AV-unprocessed.smi:3046|AV-procd|sdf|11615|dock4
  -GOLD-   2272016593D 1   1.00000     0.00000
 Structure written by MMmdl.
 38 38  0  0  0  0  0  0  0  0  2 V2000
  152.9168  138.6238  154.7529 C   0  0  0  0  0  0  0  0  0  0  0  0
  151.7210  138.1457  155.1277 C   0  0  0  0  0  0  0  0  0  0  0  0
  150.4263  138.3885  154.3771 C   0  0  0  0  0  0  0  0  0  0  0  0
  149.6417  137.1654  154.2591 N   0  0  0  0  0  0  0  0  0  0  0  0
  148.8776  136.6415  155.2302 C   0  0  0  0  0  0  0  0  0  0  0  0
  148.7428  137.1616  156.3385 O   0  0  0  0  0  0  0  0  0  0  0  0
  148.1534  135.3306  154.8965 C   0  0  2  0  0  0  0  0  0  0  0  0
  149.1799  134.2176  154.6359 C   0  0  0  0  0  0  0  0  0  0  0  0
  147.2757  135.4790  153.7118 N   0  3  0  0  0  0  0  0  0  0  0  0
  146.7438  134.2292  153.1139 C   0  0  1  0  0  0  0  0  0  0  0  0
  145.6578  133.5961  154.0003 C   0  0  0  0  0  0  0  0  0  0  0  0
  146.1954  134.5140  151.7017 C   0  0  0  0  0  0  0  0  0  0  0  0
  145.3064  133.4652  151.2331 N   0  0  0  0  0  0  0  0  0  0  0  0
  145.6010  132.1416  150.9812 C   0  0  0  0  0  0  0  0  0  0  0  0
  144.4513  131.5448  150.5492 C   0  0  0  0  0  0  0  0  0  0  0  0
  143.4940  132.5973  150.5721 C   0  0  0  0  0  0  0  0  0  0  0  0
  144.0095  133.7461  150.9793 N   0  0  0  0  0  0  0  0  0  0  0  0
  153.0279  139.2262  153.8628 H   0  0  0  0  0  0  0  0  0  0  0  0
  153.8034  138.4177  155.3346 H   0  0  0  0  0  0  0  0  0  0  0  0
  151.6518  137.5510  156.0273 H   0  0  0  0  0  0  0  0  0  0  0  0
  149.8526  139.1616  154.8906 H   0  0  0  0  0  0  0  0  0  0  0  0
  150.6394  138.7657  153.3765 H   0  0  0  0  0  0  0  0  0  0  0  0
  149.6903  136.6792  153.3753 H   0  0  0  0  0  0  0  0  0  0  0  0
  147.5486  135.0313  155.7542 H   0  0  0  0  0  0  0  0  0  0  0  0
  149.8290  134.0641  155.4990 H   0  0  0  0  0  0  0  0  0  0  0  0
  149.8145  134.4491  153.7792 H   0  0  0  0  0  0  0  0  0  0  0  0
  148.6823  133.2690  154.4312 H   0  0  0  0  0  0  0  0  0  0  0  0
  146.5145  136.1042  153.9371 H   0  0  0  0  0  0  0  0  0  0  0  0
  147.5629  133.5158  153.0103 H   0  0  0  0  0  0  0  0  0  0  0  0
  145.2350  132.7094  153.5269 H   0  0  0  0  0  0  0  0  0  0  0  0
  144.8400  134.2935  154.1864 H   0  0  0  0  0  0  0  0  0  0  0  0
  146.0561  133.2806  154.9642 H   0  0  0  0  0  0  0  0  0  0  0  0
  145.6355  135.4502  151.6984 H   0  0  0  0  0  0  0  0  0  0  0  0
  147.0100  134.6381  150.9858 H   0  0  0  0  0  0  0  0  0  0  0  0
  146.5929  131.7389  151.1267 H   0  0  0  0  0  0  0  0  0  0  0  0
  144.3142  130.5128  150.2617 H   0  0  0  0  0  0  0  0  0  0  0  0
  142.4480  132.5616  150.3052 H   0  0  0  0  0  0  0  0  0  0  0  0
  147.8358  135.9155  152.9929 H   0  0  0  0  0  0  0  0  0  0  0  0
  1  2  2  0  0  0  0
  1 18  1  0  0  0  0
  1 19  1  0  0  0  0
  2  3  1  0  0  0  0
  2 20  1  0  0  0  0
  3  4  1  0  0  0  0
  3 21  1  0  0  0  0
  3 22  1  0  0  0  0
  4  5  1  0  0  0  0
  4 23  1  0  0  0  0
  5  6  2  0  0  0  0
  5  7  1  0  0  0  0
  7  8  1  0  0  0  0
  7  9  1  0  0  0  0
  7 24  1  0  0  0  0
  8 25  1  0  0  0  0
  8 26  1  0  0  0  0
  8 27  1  0  0  0  0
  9 10  1  0  0  0  0
  9 28  1  0  0  0  0
  9 38  1  0  0  0  0
 10 11  1  0  0  0  0
 10 12  1  0  0  0  0
 10 29  1  0  0  0  0
 11 30  1  0  0  0  0
 11 31  1  0  0  0  0
 11 32  1  0  0  0  0
 12 13  1  0  0  0  0
 12 33  1  0  0  0  0
 12 34  1  0  0  0  0
 13 17  1  0  0  0  0
 13 14  1  0  0  0  0
 14 15  2  0  0  0  0
 14 35  1  0  0  0  0
 15 16  1  0  0  0  0
 15 36  1  0  0  0  0
 16 17  2  0  0  0  0
 16 37  1  0  0  0  0
M  CHG  1   9   1
M  END
> <s_m_source_file>
AV-unprocessed.smi

> <i_m_source_file_index>
3046

> <i_lp_mmshare_version>
43012

> <i_f3d_flags>
0

> <s_epik_input>
W0NIMl09W0NIXVtDSDJdW05IXUMoPU8pW0NASF0oW0NIM10pW05IXVtDQEhdKFtDSDNdKVtDSDJdbjFbY0hdW2NIXVtjSF1uMQ==

> <s_epik_cmdline>
J2VwaWtfcHl0aG9uJywgJy1waCcsICc3LjAnLCAnLXRuJywgJzgnLCAnLW1hJywgJzIwMCcsICctbWV0YWxfYmluZGluZycsICctaW1hZScsICc8aW5maWxlLm1hZT4nLCAnLW9tYWUnLCAnPG91dGZpbGUubWFlPic=

> <r_lp_tautomer_probability>
1

> <r_epik_Ionization_Penalty>
0.132961

> <r_epik_Ionization_Penalty_Charging>
0.132956

> <r_epik_Ionization_Penalty_Neutral>
5.00268e-06

> <r_epik_State_Penalty>
0.122332

> <r_epik_Charging_Adjusted_Penalty>
0.255288

> <i_epik_Tot_Q>
1

> <i_epik_Tot_abs_Q>
1

> <r_epik_Metal_State_Penalty>
0.122338

> <b_epik_Metal_Only>
0

> <s_lp_Force_Field>
OPLS_2005

> <r_lp_Energy>
6.26821

> <b_lp_Chiralities_Consistent>
1

> <s_lp_Variant>
AV-unprocessed.smi:3046-3

> <Gold.Version>
5.8.1

> <Gold.Id.Protein>
6NUR|6NUR_protein|mol2

> <Gold.PLP.Fitness>
43.6359

> <Gold.PLP.PLP>
-29.5805

> <Gold.PLP.part.hbond>
-2.0000

> <Gold.PLP.part.metal>
0.0000

> <Gold.PLP.part.buried>
-3.3098

> <Gold.PLP.part.nonpolar>
-24.4985

> <Gold.PLP.part.repulsive>
0.1983

> <Gold.PLP.ligand.clash>
0.0000

> <Gold.PLP.ligand.torsion>
0.6321

> <Gold.PLP.Chemscore.Hbond>
3.0000

> <Gold.PLP.Chemscore.CHOScore>
2.0553

> <Gold.PLP.Chemscore.Metal>
0.0000

> <Gold.Chemscore.Hbonds>
donor molecule, donor type, donor heavy atom, donor atom, acceptor molecule, acceptor atom, score
      L1  H     4    23       P1  7948  1.00
      L1  H     9    38       P1  7948  2.00
      L1  C    14    35       P1 10747  0.63
      L1  C    16    37       P1 10186  0.97
      L1  C    16    37       P1 10952  0.24

> <Gold.PLP.Chemscore.Internal.Correction>
0.1538

> <Gold.Rescore>
     Score         DG    S(hbond)    S(metal)    S(lipo)     H(rot)  DE(clash)    DE(int)     intcor
     13.81     -14.39       1.89        0.00      71.84       2.26       0.06       0.52       ----

> <Gold.Chemscore.Fitness>
13.8094

> <Gold.Chemscore.DG>
-14.3904

> <Gold.Chemscore.ZeroCoef>
-5.4800

> <Gold.Chemscore.Hbond>
1.8856

> <Gold.Chemscore.Metal>
0.0000

> <Gold.Chemscore.Lipo>
71.8359

> <Gold.Chemscore.Internal_Hbond>
0.0000

> <Gold.Chemscore.DEClash>
0.0565

> <Gold.Chemscore.DEInternal>
0.5245

> <Gold.Chemscore.Rot>
2.2626

> <Gold.Chemscore.Internal.Correction>
   9.000000E+99

> <Gold.Chemscore.Hbonds>
donor molecule, donor type, donor heavy atom, donor atom, acceptor molecule, acceptor atom, score
      L1  H     4    23       P1  7948  0.43
      L1  H     9    38       P1  7948  0.99

> <Gold.Chemscore.Hbond.Weighted>
-6.2978

> <Gold.Chemscore.Metal.Weighted>
-0.0000

> <Gold.Chemscore.Lipo.Weighted>
-8.4048

> <Gold.Chemscore.Internal_Hbond.Weighted>
0.0000

> <Gold.Chemscore.DEClash.Weighted>
0.0565

> <Gold.Chemscore.DEInternal.Weighted>
0.5245

> <Gold.Chemscore.Rot.Weighted>
5.7922

> <Gold.Chemscore.Internal.Correction.Weighted>
   9.000000E+99

> <Gold.Protein.RotatedTorsions>
[ 6907 6896 6895 6894 ] final -121.27 input  -60.11 | X-H torsion
[ 7974 7965 7964 7962 ] final   51.89 input  175.53 | X-H torsion
[ 8008 7997 7996 7995 ] final  166.23 input   59.86 | X-H torsion
[ 10167 10162 10161 10158 ] final -128.19 input  -65.29 | X-H torsion
[ 10718 10713 10712 10709 ] final   40.92 input   66.30 | X-H torsion
[ 10763 10752 10751 10750 ] final -177.79 input  -60.55 | X-H torsion
[ 11005 11000 10999 10996 ] final  103.44 input  -57.11 | X-H torsion

> <Gold.Protein.ActiveResidues>
 VAL166  LYS551  ARG553  GLY616  TRP617  ASP618  TYR619  PRO620  LYS621  CYS622 
 ASP623  PHE694  ASN695  SER759  ASP760  ASP761  ALA762  ILE779  LEU786  VAL792 
 PHE793  MET794  SER795  GLU796  ALA797  LYS798  CYS799  TRP800  GLU811  SER814 

> <Gold.Protein.RotatedAtoms>
  150.8468  133.7849  159.3039 H   0  0  0  0  0  0  0  0  0  0  0  0  # atno 6907 bound_to 6896
  151.5533  135.1065  159.9964 H   0  0  0  0  0  0  0  0  0  0  0  0  # atno 6908 bound_to 6896
  152.4520  133.7605  159.6800 H   0  0  0  0  0  0  0  0  0  0  0  0  # atno 6909 bound_to 6896
  145.9868  139.4298  143.0098 H   0  0  0  0  0  0  0  0  0  0  0  0  # atno 7974 bound_to 7965
  156.1736  140.1649  156.8403 H   0  0  0  0  0  0  0  0  0  0  0  0  # atno 8008 bound_to 7997
  154.5283  140.0762  156.8332 H   0  0  0  0  0  0  0  0  0  0  0  0  # atno 8009 bound_to 7997
  155.3461  140.3387  155.4241 H   0  0  0  0  0  0  0  0  0  0  0  0  # atno 8010 bound_to 7997
  139.9529  143.6035  152.2469 H   0  0  0  0  0  0  0  0  0  0  0  0  # atno 10167 bound_to 10162
  157.3877  130.7789  149.7244 H   0  0  0  0  0  0  0  0  0  0  0  0  # atno 10718 bound_to 10713
  154.5557  135.2816  155.0966 H   0  0  0  0  0  0  0  0  0  0  0  0  # atno 10763 bound_to 10752
  154.2395  135.6359  153.5206 H   0  0  0  0  0  0  0  0  0  0  0  0  # atno 10764 bound_to 10752
  153.0015  135.5556  154.6137 H   0  0  0  0  0  0  0  0  0  0  0  0  # atno 10765 bound_to 10752
  139.8784  134.9263  156.5209 H   0  0  0  0  0  0  0  0  0  0  0  0  # atno 11005 bound_to 11000
  145.7689  140.9905  143.1160 LP  0  0  0  0  0  0  0  0  0  0  0  0  # atno 17320 bound_to 7965
  144.6877  139.9422  143.7475 LP  0  0  0  0  0  0  0  0  0  0  0  0  # atno 17321 bound_to 7965
  139.6614  144.7662  151.1956 LP  0  0  0  0  0  0  0  0  0  0  0  0  # atno 17342 bound_to 10162
  140.7577  143.6005  150.8705 LP  0  0  0  0  0  0  0  0  0  0  0  0  # atno 17343 bound_to 10162
  155.9790  130.4044  150.3610 LP  0  0  0  0  0  0  0  0  0  0  0  0  # atno 17370 bound_to 10713
  157.1722  131.0371  151.2789 LP  0  0  0  0  0  0  0  0  0  0  0  0  # atno 17371 bound_to 10713
  140.8451  133.8175  155.9113 LP  0  0  0  0  0  0  0  0  0  0  0  0  # atno 17394 bound_to 11000
  140.9199  134.2154  157.4933 LP  0  0  0  0  0  0  0  0  0  0  0  0  # atno 17395 bound_to 11000

$$$$
