AV-unprocessed.smi:3218|AV-procd|sdf|12294|dock7
  -GOLD-   2272018133D 1   1.00000     0.00000
 Structure written by MMmdl.
 37 38  0  0  0  0  0  0  0  0  1 V2000
  146.4120  138.6911  152.2893 C   0  0  0  0  0  0  0  0  0  0  0  0
  147.4253  139.3308  153.1942 C   0  0  0  0  0  0  0  0  0  0  0  0
  148.4819  138.6965  153.9078 C   0  0  0  0  0  0  0  0  0  0  0  0
  149.2003  139.5448  154.6252 N   0  0  0  0  0  0  0  0  0  0  0  0
  148.6317  140.7468  154.3936 N   0  0  0  0  0  0  0  0  0  0  0  0
  149.1648  141.9318  155.0364 C   0  0  0  0  0  0  0  0  0  0  0  0
  150.3965  141.5984  155.8884 C   0  0  0  0  0  0  0  0  0  0  0  0
  150.8561  142.7940  156.5753 N   0  0  0  0  0  0  0  0  0  0  0  0
  151.4291  142.4343  157.8611 C   0  0  0  0  0  0  0  0  0  0  0  0
  152.0795  143.6702  158.5004 C   0  0  0  0  0  0  0  0  0  0  0  0
  152.3548  143.4473  159.9162 N   0  0  0  0  0  0  0  0  0  0  0  0
  151.8971  144.3924  160.9208 C   0  0  0  0  0  0  0  0  0  0  0  0
  152.5713  143.9415  162.2244 C   0  0  0  0  0  0  0  0  0  0  0  0
  153.0828  142.5218  161.9570 C   0  0  0  0  0  0  0  0  0  0  0  0
  152.9951  142.3979  160.4452 C   0  0  0  0  0  0  0  0  0  0  0  0
  153.4633  141.4446  159.8245 O   0  0  0  0  0  0  0  0  0  0  0  0
  147.5578  140.6473  153.5350 C   0  0  0  0  0  0  0  0  0  0  0  0
  146.8448  137.8724  151.7142 H   0  0  0  0  0  0  0  0  0  0  0  0
  146.0007  139.4034  151.5737 H   0  0  0  0  0  0  0  0  0  0  0  0
  145.5743  138.2805  152.8531 H   0  0  0  0  0  0  0  0  0  0  0  0
  148.7456  137.6493  153.9269 H   0  0  0  0  0  0  0  0  0  0  0  0
  149.4143  142.6653  154.2677 H   0  0  0  0  0  0  0  0  0  0  0  0
  148.3800  142.3720  155.6533 H   0  0  0  0  0  0  0  0  0  0  0  0
  150.1479  140.8267  156.6185 H   0  0  0  0  0  0  0  0  0  0  0  0
  151.1962  141.2086  155.2571 H   0  0  0  0  0  0  0  0  0  0  0  0
  150.0817  143.4277  156.7139 H   0  0  0  0  0  0  0  0  0  0  0  0
  150.6473  142.0373  158.5102 H   0  0  0  0  0  0  0  0  0  0  0  0
  152.1743  141.6489  157.7252 H   0  0  0  0  0  0  0  0  0  0  0  0
  153.0112  143.9122  157.9865 H   0  0  0  0  0  0  0  0  0  0  0  0
  151.4311  144.5415  158.3912 H   0  0  0  0  0  0  0  0  0  0  0  0
  152.1674  145.4159  160.6577 H   0  0  0  0  0  0  0  0  0  0  0  0
  150.8108  144.3343  161.0014 H   0  0  0  0  0  0  0  0  0  0  0  0
  153.4109  144.5982  162.4567 H   0  0  0  0  0  0  0  0  0  0  0  0
  151.8832  143.9776  163.0697 H   0  0  0  0  0  0  0  0  0  0  0  0
  154.1033  142.3758  162.3125 H   0  0  0  0  0  0  0  0  0  0  0  0
  152.4388  141.7731  162.4194 H   0  0  0  0  0  0  0  0  0  0  0  0
  146.9811  141.5127  153.2428 H   0  0  0  0  0  0  0  0  0  0  0  0
  1  2  1  0  0  0  0
  1 18  1  0  0  0  0
  1 19  1  0  0  0  0
  1 20  1  0  0  0  0
  2 17  2  0  0  0  0
  2  3  1  0  0  0  0
  3  4  2  0  0  0  0
  3 21  1  0  0  0  0
  4  5  1  0  0  0  0
  5  6  1  0  0  0  0
  5 17  1  0  0  0  0
  6  7  1  0  0  0  0
  6 22  1  0  0  0  0
  6 23  1  0  0  0  0
  7  8  1  0  0  0  0
  7 24  1  0  0  0  0
  7 25  1  0  0  0  0
  8  9  1  0  0  0  0
  8 26  1  0  0  0  0
  9 10  1  0  0  0  0
  9 27  1  0  0  0  0
  9 28  1  0  0  0  0
 10 11  1  0  0  0  0
 10 29  1  0  0  0  0
 10 30  1  0  0  0  0
 11 15  1  0  0  0  0
 11 12  1  0  0  0  0
 12 13  1  0  0  0  0
 12 31  1  0  0  0  0
 12 32  1  0  0  0  0
 13 14  1  0  0  0  0
 13 33  1  0  0  0  0
 13 34  1  0  0  0  0
 14 15  1  0  0  0  0
 14 35  1  0  0  0  0
 14 36  1  0  0  0  0
 15 16  2  0  0  0  0
 17 37  1  0  0  0  0
M  END
> <s_m_source_file>
AV-unprocessed.smi

> <i_m_source_file_index>
3218

> <i_lp_mmshare_version>
43012

> <i_f3d_flags>
0

> <s_epik_input>
W0NIM11jMVtjSF1ubihbY0hdMSlbQ0gyXVtDSDJdW05IXVtDSDJdW0NIMl1OMltDSDJdW0NIMl1bQ0gyXUMyPU8=

> <s_epik_cmdline>
J2VwaWtfcHl0aG9uJywgJy1waCcsICc3LjAnLCAnLXRuJywgJzgnLCAnLW1hJywgJzIwMCcsICctbWV0YWxfYmluZGluZycsICctaW1hZScsICc8aW5maWxlLm1hZT4nLCAnLW9tYWUnLCAnPG91dGZpbGUubWFlPic=

> <r_lp_tautomer_probability>
1

> <r_epik_Ionization_Penalty>
2.53806

> <r_epik_Ionization_Penalty_Charging>
0

> <r_epik_Ionization_Penalty_Neutral>
2.53806

> <r_epik_State_Penalty>
2.70334

> <r_epik_Charging_Adjusted_Penalty>
2.70334

> <i_epik_Tot_Q>
0

> <i_epik_Tot_abs_Q>
0

> <r_epik_Metal_State_Penalty>
2.70114

> <b_epik_Metal_Only>
0

> <s_lp_Force_Field>
OPLS_2005

> <r_lp_Energy>
17.5506

> <b_lp_Chiralities_Consistent>
1

> <s_lp_Variant>
AV-unprocessed.smi:3218-2

> <Gold.Version>
5.8.1

> <Gold.Id.Protein>
6NUR|6NUR_protein|mol2

> <Gold.PLP.Fitness>
47.1978

> <Gold.PLP.PLP>
-42.6810

> <Gold.PLP.part.hbond>
-1.0000

> <Gold.PLP.part.metal>
0.0000

> <Gold.PLP.part.buried>
0.7798

> <Gold.PLP.part.nonpolar>
-42.5009

> <Gold.PLP.part.repulsive>
0.1176

> <Gold.PLP.ligand.clash>
0.0000

> <Gold.PLP.ligand.torsion>
0.3595

> <Gold.PLP.Chemscore.Hbond>
0.8406

> <Gold.PLP.Chemscore.CHOScore>
0.8799

> <Gold.PLP.Chemscore.Metal>
0.0000

> <Gold.Chemscore.Hbonds>
donor molecule, donor type, donor heavy atom, donor atom, acceptor molecule, acceptor atom, score
      L1  H     8    26       P1  8028  0.78
      L1  C     3    21       P1  7948  0.87

> <Gold.PLP.Chemscore.Internal.Correction>
0.0742

> <Gold.Rescore>
     Score         DG    S(hbond)    S(metal)    S(lipo)     H(rot)  DE(clash)    DE(int)     intcor
     13.72     -15.27       0.95        0.00      99.06       1.95       0.41       1.14       ----

> <Gold.Chemscore.Fitness>
13.7226

> <Gold.Chemscore.DG>
-15.2717

> <Gold.Chemscore.ZeroCoef>
-5.4800

> <Gold.Chemscore.Hbond>
0.9533

> <Gold.Chemscore.Metal>
0.0000

> <Gold.Chemscore.Lipo>
99.0621

> <Gold.Chemscore.Internal_Hbond>
0.0000

> <Gold.Chemscore.DEClash>
0.4073

> <Gold.Chemscore.DEInternal>
1.1419

> <Gold.Chemscore.Rot>
1.9463

> <Gold.Chemscore.Internal.Correction>
   9.000000E+99

> <Gold.Chemscore.Hbonds>
donor molecule, donor type, donor heavy atom, donor atom, acceptor molecule, acceptor atom, score
      L1  H     8    26       P1  8028  0.74

> <Gold.Chemscore.Hbond.Weighted>
-3.1839

> <Gold.Chemscore.Metal.Weighted>
-0.0000

> <Gold.Chemscore.Lipo.Weighted>
-11.5903

> <Gold.Chemscore.Internal_Hbond.Weighted>
0.0000

> <Gold.Chemscore.DEClash.Weighted>
0.4073

> <Gold.Chemscore.DEInternal.Weighted>
1.1419

> <Gold.Chemscore.Rot.Weighted>
4.9824

> <Gold.Chemscore.Internal.Correction.Weighted>
   9.000000E+99

> <Gold.Protein.RotatedTorsions>
[ 6907 6896 6895 6894 ] final  -37.18 input  -60.11 | X-H torsion
[ 7974 7965 7964 7962 ] final   66.31 input  175.53 | X-H torsion
[ 8008 7997 7996 7995 ] final -146.71 input   59.86 | X-H torsion
[ 10167 10162 10161 10158 ] final -104.67 input  -65.29 | X-H torsion
[ 10718 10713 10712 10709 ] final  -86.95 input   66.30 | X-H torsion
[ 10763 10752 10751 10750 ] final -141.52 input  -60.55 | X-H torsion
[ 11005 11000 10999 10996 ] final  -33.85 input  -57.11 | X-H torsion

> <Gold.Protein.ActiveResidues>
 VAL166  LYS551  ARG553  GLY616  TRP617  ASP618  TYR619  PRO620  LYS621  CYS622 
 ASP623  PHE694  ASN695  SER759  ASP760  ASP761  ALA762  ILE779  LEU786  VAL792 
 PHE793  MET794  SER795  GLU796  ALA797  LYS798  CYS799  TRP800  GLU811  SER814 

> <Gold.Protein.RotatedAtoms>
  151.0179  134.9447  159.8043 H   0  0  0  0  0  0  0  0  0  0  0  0  # atno 6907 bound_to 6896
  152.5318  134.2942  159.9064 H   0  0  0  0  0  0  0  0  0  0  0  0  # atno 6908 bound_to 6896
  151.2949  133.4106  159.2670 H   0  0  0  0  0  0  0  0  0  0  0  0  # atno 6909 bound_to 6896
  145.8281  139.3123  143.1003 H   0  0  0  0  0  0  0  0  0  0  0  0  # atno 7974 bound_to 7965
  155.5638  140.0628  157.2822 H   0  0  0  0  0  0  0  0  0  0  0  0  # atno 8008 bound_to 7997
  154.4382  140.1881  156.0855 H   0  0  0  0  0  0  0  0  0  0  0  0  # atno 8009 bound_to 7997
  156.0427  140.3294  155.7265 H   0  0  0  0  0  0  0  0  0  0  0  0  # atno 8010 bound_to 7997
  140.2067  143.3777  152.1084 H   0  0  0  0  0  0  0  0  0  0  0  0  # atno 10167 bound_to 10162
  155.9987  130.4783  150.4793 H   0  0  0  0  0  0  0  0  0  0  0  0  # atno 10718 bound_to 10713
  154.8542  135.3522  154.5881 H   0  0  0  0  0  0  0  0  0  0  0  0  # atno 10763 bound_to 10752
  153.6491  135.6995  153.5220 H   0  0  0  0  0  0  0  0  0  0  0  0  # atno 10764 bound_to 10752
  153.2908  135.4235  155.1123 H   0  0  0  0  0  0  0  0  0  0  0  0  # atno 10765 bound_to 10752
  140.9668  133.7132  156.1459 H   0  0  0  0  0  0  0  0  0  0  0  0  # atno 11005 bound_to 11000
  145.9601  140.8842  143.0215 LP  0  0  0  0  0  0  0  0  0  0  0  0  # atno 17320 bound_to 7965
  144.6742  140.1800  143.7406 LP  0  0  0  0  0  0  0  0  0  0  0  0  # atno 17321 bound_to 7965
  139.5196  144.7021  151.5463 LP  0  0  0  0  0  0  0  0  0  0  0  0  # atno 17342 bound_to 10162
  140.6352  143.8998  150.6641 LP  0  0  0  0  0  0  0  0  0  0  0  0  # atno 17343 bound_to 10162
  157.2800  131.0605  151.2204 LP  0  0  0  0  0  0  0  0  0  0  0  0  # atno 17370 bound_to 10713
  157.3254  130.6958  149.6293 LP  0  0  0  0  0  0  0  0  0  0  0  0  # atno 17371 bound_to 10713
  140.7387  134.4174  157.5557 LP  0  0  0  0  0  0  0  0  0  0  0  0  # atno 17394 bound_to 11000
  139.8897  134.8822  156.2404 LP  0  0  0  0  0  0  0  0  0  0  0  0  # atno 17395 bound_to 11000

$$$$
