AV-unprocessed.smi:1645|AV-procd|sdf|6620|dock4
  -GOLD-   22720 7313D 1   1.00000     0.00000
 Structure written by MMmdl.
 55 58  0  0  0  0  0  0  0  0  4 V2000
  153.3765  136.4895  160.5174 O   0  0  0  0  0  0  0  0  0  0  0  0
  154.2247  136.7266  161.3831 C   0  0  0  0  0  0  0  0  0  0  0  0
  154.5437  137.9915  161.7116 N   0  0  0  0  0  0  0  0  0  0  0  0
  154.0629  139.2316  161.2052 C   0  0  0  0  0  0  0  0  0  0  0  0
  154.5283  140.4036  161.8362 C   0  0  0  0  0  0  0  0  0  0  0  0
  154.0965  141.6676  161.3863 C   0  0  0  0  0  0  0  0  0  0  0  0
  153.1935  141.7580  160.2978 C   0  0  0  0  0  0  0  0  0  0  0  0
  152.7022  142.9772  159.7783 N   0  0  0  0  0  0  0  0  0  0  0  0
  152.0708  143.8835  160.7431 C   0  0  0  0  0  0  0  0  0  0  0  0
  151.9568  145.3118  160.1843 C   0  0  0  0  0  0  0  0  0  0  0  0
  151.2591  145.3173  158.8173 C   0  0  0  0  0  0  0  0  0  0  0  0
  151.9965  144.3778  157.8538 C   0  0  0  0  0  0  0  0  0  0  0  0
  152.1115  142.9597  158.4384 C   0  0  0  0  0  0  0  0  0  0  0  0
  152.7704  140.6046  159.7269 N   0  3  0  0  0  0  0  0  0  0  0  0
  153.1573  139.3738  160.1264 C   0  0  0  0  0  0  0  0  0  0  0  0
  154.9457  135.8233  162.1003 N   0  5  0  0  0  0  0  0  0  0  0  0
  154.6066  135.3573  163.4512 C   0  0  2  0  0  0  0  0  0  0  0  0
  153.8310  136.4541  164.1897 C   0  0  0  0  0  0  0  0  0  0  0  0
  154.8994  137.3712  164.8152 C   0  0  0  0  0  0  0  0  0  0  0  0
  156.1750  136.6101  164.8384 N   0  3  2  0  0  0  0  0  0  0  0  0
  157.2772  137.3156  164.1236 C   0  0  0  0  0  0  0  0  0  0  0  0
  158.5191  136.4336  163.9512 C   0  0  0  0  0  0  0  0  0  0  0  0
  158.1590  135.1789  163.1536 C   0  0  0  0  0  0  0  0  0  0  0  0
  157.0772  134.3873  163.9006 C   0  0  0  0  0  0  0  0  0  0  0  0
  155.8567  135.2387  164.3517 C   0  0  2  0  0  0  0  0  0  0  0  0
  155.2524  138.0710  162.4262 H   0  0  0  0  0  0  0  0  0  0  0  0
  155.2197  140.3383  162.6638 H   0  0  0  0  0  0  0  0  0  0  0  0
  154.4789  142.5463  161.8828 H   0  0  0  0  0  0  0  0  0  0  0  0
  151.0790  143.4980  160.9825 H   0  0  0  0  0  0  0  0  0  0  0  0
  152.6250  143.9248  161.6804 H   0  0  0  0  0  0  0  0  0  0  0  0
  151.4110  145.9435  160.8856 H   0  0  0  0  0  0  0  0  0  0  0  0
  152.9528  145.7462  160.0870 H   0  0  0  0  0  0  0  0  0  0  0  0
  150.2227  144.9956  158.9284 H   0  0  0  0  0  0  0  0  0  0  0  0
  151.2322  146.3288  158.4110 H   0  0  0  0  0  0  0  0  0  0  0  0
  151.4801  144.3443  156.8943 H   0  0  0  0  0  0  0  0  0  0  0  0
  152.9942  144.7715  157.6540 H   0  0  0  0  0  0  0  0  0  0  0  0
  152.7227  142.3601  157.7634 H   0  0  0  0  0  0  0  0  0  0  0  0
  151.1266  142.4936  158.4888 H   0  0  0  0  0  0  0  0  0  0  0  0
  152.7180  138.5680  159.5602 H   0  0  0  0  0  0  0  0  0  0  0  0
  154.0380  134.4265  163.4456 H   0  0  0  0  0  0  0  0  0  0  0  0
  153.1321  136.9966  163.5512 H   0  0  0  0  0  0  0  0  0  0  0  0
  153.2431  135.9971  164.9868 H   0  0  0  0  0  0  0  0  0  0  0  0
  154.9954  138.2910  164.2348 H   0  0  0  0  0  0  0  0  0  0  0  0
  154.6194  137.6640  165.8276 H   0  0  0  0  0  0  0  0  0  0  0  0
  156.9363  137.6418  163.1397 H   0  0  0  0  0  0  0  0  0  0  0  0
  157.5349  138.2182  164.6786 H   0  0  0  0  0  0  0  0  0  0  0  0
  159.2991  136.9908  163.4314 H   0  0  0  0  0  0  0  0  0  0  0  0
  158.9255  136.1592  164.9253 H   0  0  0  0  0  0  0  0  0  0  0  0
  157.8127  135.4556  162.1579 H   0  0  0  0  0  0  0  0  0  0  0  0
  159.0430  134.5570  163.0109 H   0  0  0  0  0  0  0  0  0  0  0  0
  156.7694  133.5184  163.3158 H   0  0  0  0  0  0  0  0  0  0  0  0
  157.5433  133.9744  164.7963 H   0  0  0  0  0  0  0  0  0  0  0  0
  155.4874  134.7265  165.2423 H   0  0  0  0  0  0  0  0  0  0  0  0
  156.4709  136.5148  165.7989 H   0  0  0  0  0  0  0  0  0  0  0  0
  152.1157  140.6669  158.9475 H   0  0  0  0  0  0  0  0  0  0  0  0
  1  2  2  0  0  0  0
  2  3  1  0  0  0  0
  2 16  1  0  0  0  0
  3  4  1  0  0  0  0
  3 26  1  0  0  0  0
  4 15  1  0  0  0  0
  4  5  2  0  0  0  0
  5  6  1  0  0  0  0
  5 27  1  0  0  0  0
  6  7  2  0  0  0  0
  6 28  1  0  0  0  0
  7  8  1  0  0  0  0
  7 14  1  0  0  0  0
  8 13  1  0  0  0  0
  8  9  1  0  0  0  0
  9 10  1  0  0  0  0
  9 29  1  0  0  0  0
  9 30  1  0  0  0  0
 10 11  1  0  0  0  0
 10 31  1  0  0  0  0
 10 32  1  0  0  0  0
 11 12  1  0  0  0  0
 11 33  1  0  0  0  0
 11 34  1  0  0  0  0
 12 13  1  0  0  0  0
 12 35  1  0  0  0  0
 12 36  1  0  0  0  0
 13 37  1  0  0  0  0
 13 38  1  0  0  0  0
 14 15  2  0  0  0  0
 14 55  1  0  0  0  0
 15 39  1  0  0  0  0
 16 17  1  0  0  0  0
 17 25  1  0  0  0  0
 17 18  1  0  0  0  0
 17 40  1  0  0  0  0
 18 19  1  0  0  0  0
 18 41  1  0  0  0  0
 18 42  1  0  0  0  0
 19 20  1  0  0  0  0
 19 43  1  0  0  0  0
 19 44  1  0  0  0  0
 20 25  1  0  0  0  0
 20 21  1  0  0  0  0
 20 54  1  0  0  0  0
 21 22  1  0  0  0  0
 21 45  1  0  0  0  0
 21 46  1  0  0  0  0
 22 23  1  0  0  0  0
 22 47  1  0  0  0  0
 22 48  1  0  0  0  0
 23 24  1  0  0  0  0
 23 49  1  0  0  0  0
 23 50  1  0  0  0  0
 24 25  1  0  0  0  0
 24 51  1  0  0  0  0
 24 52  1  0  0  0  0
 25 53  1  0  0  0  0
M  CHG  1  14   1
M  CHG  1  16  -1
M  CHG  1  20   1
M  END
> <s_m_source_file>
AV-unprocessed.smi

> <i_m_source_file_index>
1645

> <i_lp_mmshare_version>
43012

> <i_f3d_flags>
0

> <s_epik_input>
W0NIMl0xW0NIMl1bQ0gyXVtDSDJdW0NASF0oTjEyKVtDQEBIXShbQ0gyXVtDSDJdMilbTkhdQyg9TylbTkhdYzNbY0hdW2NIXWMobltjSF0zKU40W0NIMl1bQ0gyXVtDSDJdW0NIMl1bQ0gyXTQ=

> <s_epik_cmdline>
J2VwaWtfcHl0aG9uJywgJy1waCcsICc3LjAnLCAnLXRuJywgJzgnLCAnLW1hJywgJzIwMCcsICctbWV0YWxfYmluZGluZycsICctaW1hZScsICc8aW5maWxlLm1hZT4nLCAnLW9tYWUnLCAnPG91dGZpbGUubWFlPic=

> <r_lp_tautomer_probability>
0.999994

> <r_epik_Ionization_Penalty>
8.55589

> <r_epik_Ionization_Penalty_Charging>
8.55589

> <r_epik_Ionization_Penalty_Neutral>
3.8092e-06

> <r_epik_State_Penalty>
8.15703

> <r_epik_Charging_Adjusted_Penalty>
16.7129

> <i_epik_Tot_Q>
1

> <i_epik_Tot_abs_Q>
3

> <r_epik_Metal_State_Penalty>
4.13781

> <b_epik_Metal_Only>
1

> <s_lp_Force_Field>
OPLS_2005

> <r_lp_Energy>
58.0783

> <b_lp_Chiralities_Consistent>
1

> <s_lp_Variant>
AV-unprocessed.smi:1645-21

> <Gold.Version>
5.8.1

> <Gold.Id.Protein>
6NUR|6NUR_protein|mol2

> <Gold.PLP.Fitness>
47.6179

> <Gold.PLP.PLP>
-46.8183

> <Gold.PLP.part.hbond>
-0.9981

> <Gold.PLP.part.metal>
0.0000

> <Gold.PLP.part.buried>
-5.4465

> <Gold.PLP.part.nonpolar>
-40.3841

> <Gold.PLP.part.repulsive>
0.1591

> <Gold.PLP.ligand.clash>
0.0000

> <Gold.PLP.ligand.torsion>
1.3422

> <Gold.PLP.Chemscore.Hbond>
0.9750

> <Gold.PLP.Chemscore.CHOScore>
0.0000

> <Gold.PLP.Chemscore.Metal>
0.0000

> <Gold.Chemscore.Hbonds>
donor molecule, donor type, donor heavy atom, donor atom, acceptor molecule, acceptor atom, score
      P1  H  6896  6907       L1     1  1.00

> <Gold.PLP.Chemscore.Internal.Correction>
0.5589

> <Gold.Rescore>
     Score         DG    S(hbond)    S(metal)    S(lipo)     H(rot)  DE(clash)    DE(int)     intcor
     18.12     -20.69       0.98        0.00     127.65       1.17       0.02       2.55       ----

> <Gold.Chemscore.Fitness>
18.1218

> <Gold.Chemscore.DG>
-20.6939

> <Gold.Chemscore.ZeroCoef>
-5.4800

> <Gold.Chemscore.Hbond>
0.9826

> <Gold.Chemscore.Metal>
0.0000

> <Gold.Chemscore.Lipo>
127.6506

> <Gold.Chemscore.Internal_Hbond>
0.0000

> <Gold.Chemscore.DEClash>
0.0195

> <Gold.Chemscore.DEInternal>
2.5526

> <Gold.Chemscore.Rot>
1.1731

> <Gold.Chemscore.Internal.Correction>
   9.000000E+99

> <Gold.Chemscore.Hbonds>
donor molecule, donor type, donor heavy atom, donor atom, acceptor molecule, acceptor atom, score
      P1  H  6896  6907       L1     1  0.97

> <Gold.Chemscore.Hbond.Weighted>
-3.2820

> <Gold.Chemscore.Metal.Weighted>
-0.0000

> <Gold.Chemscore.Lipo.Weighted>
-14.9351

> <Gold.Chemscore.Internal_Hbond.Weighted>
0.0000

> <Gold.Chemscore.DEClash.Weighted>
0.0195

> <Gold.Chemscore.DEInternal.Weighted>
2.5526

> <Gold.Chemscore.Rot.Weighted>
3.0032

> <Gold.Chemscore.Internal.Correction.Weighted>
   9.000000E+99

> <Gold.Protein.RotatedTorsions>
[ 6907 6896 6895 6894 ] final   38.55 input  -60.11 | X-H torsion
[ 7974 7965 7964 7962 ] final -126.90 input  175.53 | X-H torsion
[ 8008 7997 7996 7995 ] final  135.23 input   59.86 | X-H torsion
[ 10167 10162 10161 10158 ] final  -16.46 input  -65.29 | X-H torsion
[ 10718 10713 10712 10709 ] final  113.99 input   66.30 | X-H torsion
[ 10763 10752 10751 10750 ] final -119.92 input  -60.55 | X-H torsion
[ 11005 11000 10999 10996 ] final  -43.19 input  -57.11 | X-H torsion

> <Gold.Protein.ActiveResidues>
 VAL166  LYS551  ARG553  GLY616  TRP617  ASP618  TYR619  PRO620  LYS621  CYS622 
 ASP623  PHE694  ASN695  SER759  ASP760  ASP761  ALA762  ILE779  LEU786  VAL792 
 PHE793  MET794  SER795  GLU796  ALA797  LYS798  CYS799  TRP800  GLU811  SER814 

> <Gold.Protein.RotatedAtoms>
  152.1579  134.8936  160.0543 H   0  0  0  0  0  0  0  0  0  0  0  0  # atno 6907 bound_to 6896
  151.9943  133.3797  159.4165 H   0  0  0  0  0  0  0  0  0  0  0  0  # atno 6908 bound_to 6896
  150.6884  134.3826  159.5084 H   0  0  0  0  0  0  0  0  0  0  0  0  # atno 6909 bound_to 6896
  144.9825  140.7654  143.4603 H   0  0  0  0  0  0  0  0  0  0  0  0  # atno 7974 bound_to 7965
  156.3002  140.2476  156.3547 H   0  0  0  0  0  0  0  0  0  0  0  0  # atno 8008 bound_to 7997
  154.8933  140.0408  157.1870 H   0  0  0  0  0  0  0  0  0  0  0  0  # atno 8009 bound_to 7997
  154.8575  140.2915  155.5564 H   0  0  0  0  0  0  0  0  0  0  0  0  # atno 8010 bound_to 7997
  140.7234  143.5114  150.9745 H   0  0  0  0  0  0  0  0  0  0  0  0  # atno 10167 bound_to 10162
  157.6307  131.0992  150.7121 H   0  0  0  0  0  0  0  0  0  0  0  0  # atno 10718 bound_to 10713
  154.8630  135.4221  154.2375 H   0  0  0  0  0  0  0  0  0  0  0  0  # atno 10763 bound_to 10752
  153.3348  135.6990  153.6923 H   0  0  0  0  0  0  0  0  0  0  0  0  # atno 10764 bound_to 10752
  153.5925  135.3552  155.2889 H   0  0  0  0  0  0  0  0  0  0  0  0  # atno 10765 bound_to 10752
  141.0367  133.6797  156.2698 H   0  0  0  0  0  0  0  0  0  0  0  0  # atno 11005 bound_to 11000
  145.2400  139.2076  143.4997 LP  0  0  0  0  0  0  0  0  0  0  0  0  # atno 17320 bound_to 7965
  146.3412  140.2294  142.8593 LP  0  0  0  0  0  0  0  0  0  0  0  0  # atno 17321 bound_to 7965
  139.8828  143.7051  152.3155 LP  0  0  0  0  0  0  0  0  0  0  0  0  # atno 17342 bound_to 10162
  139.7339  144.7576  151.0758 LP  0  0  0  0  0  0  0  0  0  0  0  0  # atno 17343 bound_to 10162
  156.7461  130.4754  149.5467 LP  0  0  0  0  0  0  0  0  0  0  0  0  # atno 17370 bound_to 10713
  156.1508  130.6309  151.0593 LP  0  0  0  0  0  0  0  0  0  0  0  0  # atno 17371 bound_to 10713
  140.6309  134.5264  157.5559 LP  0  0  0  0  0  0  0  0  0  0  0  0  # atno 17394 bound_to 11000
  139.9246  134.8082  156.1108 LP  0  0  0  0  0  0  0  0  0  0  0  0  # atno 17395 bound_to 11000

$$$$
