AV-unprocessed.smi:655|AV-procd|sdf|3214|dock1
  -GOLD-   22720 0153D 1   1.00000     0.00000
 Structure written by MMmdl.
 35 36  0  0  0  0  0  0  0  0  1 V2000
  152.0977  143.7167  160.8421 C   0  0  0  0  0  0  0  0  0  0  0  0
  152.2267  143.0416  159.4693 C   0  0  2  0  0  0  0  0  0  0  0  0
  151.0259  143.3701  158.5653 C   0  0  0  0  0  0  0  0  0  0  0  0
  151.1486  142.7011  157.1848 C   0  0  0  0  0  0  0  0  0  0  0  0
  151.3538  141.1671  157.2665 C   0  0  1  0  0  0  0  0  0  0  0  0
  150.1912  140.5721  157.8146 O   0  0  0  0  0  0  0  0  0  0  0  0
  151.6208  140.4980  155.8868 C   0  0  0  0  0  0  0  0  0  0  0  0
  150.4538  140.2796  155.0594 N   0  0  0  0  0  0  0  0  0  0  0  0
  149.4581  141.2347  154.9123 C   0  0  0  0  0  0  0  0  0  0  0  0
  148.3500  141.0446  154.1564 C   0  0  0  0  0  0  0  0  0  0  0  0
  147.1509  142.2818  154.0318 Cl  0  0  0  0  0  0  0  0  0  0  0  0
  148.1602  139.7838  153.4409 C   0  0  0  0  0  0  0  0  0  0  0  0
  147.1963  139.5065  152.7300 O   0  0  0  0  0  0  0  0  0  0  0  0
  149.1890  138.8531  153.6130 N   0  0  0  0  0  0  0  0  0  0  0  0
  150.3328  139.0396  154.3899 C   0  0  0  0  0  0  0  0  0  0  0  0
  151.1744  138.1442  154.4616 O   0  0  0  0  0  0  0  0  0  0  0  0
  152.5185  140.8357  158.2308 C   0  0  0  0  0  0  0  0  0  0  0  0
  152.3849  141.5172  159.6046 C   0  0  0  0  0  0  0  0  0  0  0  0
  149.0973  137.9697  153.1325 H   0  0  0  0  0  0  0  0  0  0  0  0
  151.2072  143.3742  161.3701 H   0  0  0  0  0  0  0  0  0  0  0  0
  152.0291  144.8003  160.7418 H   0  0  0  0  0  0  0  0  0  0  0  0
  152.9619  143.4984  161.4701 H   0  0  0  0  0  0  0  0  0  0  0  0
  153.1262  143.4337  158.9921 H   0  0  0  0  0  0  0  0  0  0  0  0
  150.1015  143.0486  159.0470 H   0  0  0  0  0  0  0  0  0  0  0  0
  150.9425  144.4497  158.4366 H   0  0  0  0  0  0  0  0  0  0  0  0
  150.2603  142.9380  156.5978 H   0  0  0  0  0  0  0  0  0  0  0  0
  151.9915  143.1476  156.6564 H   0  0  0  0  0  0  0  0  0  0  0  0
  150.3046  140.4927  158.7494 H   0  0  0  0  0  0  0  0  0  0  0  0
  152.2612  141.1423  155.2822 H   0  0  0  0  0  0  0  0  0  0  0  0
  152.1685  139.5558  155.9645 H   0  0  0  0  0  0  0  0  0  0  0  0
  149.5639  142.1770  155.4312 H   0  0  0  0  0  0  0  0  0  0  0  0
  152.6041  139.7562  158.3644 H   0  0  0  0  0  0  0  0  0  0  0  0
  153.4597  141.1565  157.7819 H   0  0  0  0  0  0  0  0  0  0  0  0
  153.2640  141.2882  160.2080 H   0  0  0  0  0  0  0  0  0  0  0  0
  151.5309  141.1025  160.1418 H   0  0  0  0  0  0  0  0  0  0  0  0
  1  2  1  0  0  0  0
  1 20  1  0  0  0  0
  1 21  1  0  0  0  0
  1 22  1  0  0  0  0
  2 18  1  0  0  0  0
  2  3  1  0  0  0  0
  2 23  1  0  0  0  0
  3  4  1  0  0  0  0
  3 24  1  0  0  0  0
  3 25  1  0  0  0  0
  4  5  1  0  0  0  0
  4 26  1  0  0  0  0
  4 27  1  0  0  0  0
  5  6  1  0  0  0  0
  5  7  1  0  0  0  0
  5 17  1  0  0  0  0
  6 28  1  0  0  0  0
  7  8  1  0  0  0  0
  7 29  1  0  0  0  0
  7 30  1  0  0  0  0
  8 15  1  0  0  0  0
  8  9  1  0  0  0  0
  9 10  2  0  0  0  0
  9 31  1  0  0  0  0
 10 11  1  0  0  0  0
 10 12  1  0  0  0  0
 12 13  2  0  0  0  0
 12 14  1  0  0  0  0
 14 19  1  0  0  0  0
 14 15  1  0  0  0  0
 15 16  2  0  0  0  0
 17 18  1  0  0  0  0
 17 32  1  0  0  0  0
 17 33  1  0  0  0  0
 18 34  1  0  0  0  0
 18 35  1  0  0  0  0
M  END
> <s_m_source_file>
AV-unprocessed.smi

> <i_m_source_file_index>
655

> <i_lp_mmshare_version>
43012

> <i_f3d_flags>
0

> <s_epik_input>
W0NIMl0xW0NIMl1bQ0BIXShbQ0gzXSlbQ0gyXVtDSDJdW0NAQF0xKFtPSF0pW0NIMl1uMltjSF1jKENsKWMoPU8pW25IXWMyPU8=

> <s_epik_cmdline>
J2VwaWtfcHl0aG9uJywgJy1waCcsICc3LjAnLCAnLXRuJywgJzgnLCAnLW1hJywgJzIwMCcsICctbWV0YWxfYmluZGluZycsICctaW1hZScsICc8aW5maWxlLm1hZT4nLCAnLW9tYWUnLCAnPG91dGZpbGUubWFlPic=

> <r_lp_tautomer_probability>
0.999537

> <r_epik_Ionization_Penalty>
0.0114762

> <r_epik_Ionization_Penalty_Charging>
0.0114753

> <r_epik_Ionization_Penalty_Neutral>
8.25878e-07

> <r_epik_State_Penalty>
0.00883314

> <r_epik_Charging_Adjusted_Penalty>
0.0203085

> <i_epik_Tot_Q>
0

> <i_epik_Tot_abs_Q>
0

> <r_epik_Metal_State_Penalty>
1.64347

> <b_epik_Metal_Only>
0

> <s_lp_Force_Field>
OPLS_2005

> <r_lp_Energy>
18.0938

> <b_lp_Chiralities_Consistent>
1

> <s_lp_Variant>
AV-unprocessed.smi:655-1

> <Gold.Version>
5.8.1

> <Gold.Id.Protein>
6NUR|6NUR_protein|mol2

> <Gold.PLP.Fitness>
42.1013

> <Gold.PLP.PLP>
-38.7694

> <Gold.PLP.part.hbond>
-1.5915

> <Gold.PLP.part.metal>
0.0000

> <Gold.PLP.part.buried>
-2.1313

> <Gold.PLP.part.nonpolar>
-35.2886

> <Gold.PLP.part.repulsive>
1.0756

> <Gold.PLP.ligand.clash>
0.0000

> <Gold.PLP.ligand.torsion>
0.4955

> <Gold.PLP.Chemscore.Hbond>
0.6825

> <Gold.PLP.Chemscore.CHOScore>
0.7550

> <Gold.PLP.Chemscore.Metal>
0.0000

> <Gold.Chemscore.Hbonds>
donor molecule, donor type, donor heavy atom, donor atom, acceptor molecule, acceptor atom, score
      L1  H    14    19       P1  7948  0.75
      L1  C     9    31       P1  8028  0.73

> <Gold.PLP.Chemscore.Internal.Correction>
0.0103

> <Gold.Rescore>
     Score         DG    S(hbond)    S(metal)    S(lipo)     H(rot)  DE(clash)    DE(int)     intcor
     12.26     -14.02       0.82        0.00      89.89       1.84       0.15       1.62       ----

> <Gold.Chemscore.Fitness>
12.2581

> <Gold.Chemscore.DG>
-14.0233

> <Gold.Chemscore.ZeroCoef>
-5.4800

> <Gold.Chemscore.Hbond>
0.8211

> <Gold.Chemscore.Metal>
0.0000

> <Gold.Chemscore.Lipo>
89.8920

> <Gold.Chemscore.Internal_Hbond>
0.0000

> <Gold.Chemscore.DEClash>
0.1461

> <Gold.Chemscore.DEInternal>
1.6191

> <Gold.Chemscore.Rot>
1.8424

> <Gold.Chemscore.Internal.Correction>
   9.000000E+99

> <Gold.Chemscore.Hbonds>
donor molecule, donor type, donor heavy atom, donor atom, acceptor molecule, acceptor atom, score
      L1  H    14    19       P1  7948  0.75

> <Gold.Chemscore.Hbond.Weighted>
-2.7424

> <Gold.Chemscore.Metal.Weighted>
-0.0000

> <Gold.Chemscore.Lipo.Weighted>
-10.5174

> <Gold.Chemscore.Internal_Hbond.Weighted>
0.0000

> <Gold.Chemscore.DEClash.Weighted>
0.1461

> <Gold.Chemscore.DEInternal.Weighted>
1.6191

> <Gold.Chemscore.Rot.Weighted>
4.7164

> <Gold.Chemscore.Internal.Correction.Weighted>
   9.000000E+99

> <Gold.Protein.RotatedTorsions>
[ 6907 6896 6895 6894 ] final   32.51 input  -60.11 | X-H torsion
[ 7974 7965 7964 7962 ] final -139.31 input  175.53 | X-H torsion
[ 8008 7997 7996 7995 ] final   73.63 input   59.86 | X-H torsion
[ 10167 10162 10161 10158 ] final   42.57 input  -65.29 | X-H torsion
[ 10718 10713 10712 10709 ] final   98.26 input   66.30 | X-H torsion
[ 10763 10752 10751 10750 ] final -137.89 input  -60.55 | X-H torsion
[ 11005 11000 10999 10996 ] final  121.90 input  -57.11 | X-H torsion

> <Gold.Protein.ActiveResidues>
 VAL166  LYS551  ARG553  GLY616  TRP617  ASP618  TYR619  PRO620  LYS621  CYS622 
 ASP623  PHE694  ASN695  SER759  ASP760  ASP761  ALA762  ILE779  LEU786  VAL792 
 PHE793  MET794  SER795  GLU796  ALA797  LYS798  CYS799  TRP800  GLU811  SER814 

> <Gold.Protein.RotatedAtoms>
  152.0755  134.9506  160.0573 H   0  0  0  0  0  0  0  0  0  0  0  0  # atno 6907 bound_to 6896
  152.0815  133.4150  159.4511 H   0  0  0  0  0  0  0  0  0  0  0  0  # atno 6908 bound_to 6896
  150.6836  134.2896  159.4705 H   0  0  0  0  0  0  0  0  0  0  0  0  # atno 6909 bound_to 6896
  144.8687  140.6334  143.5281 H   0  0  0  0  0  0  0  0  0  0  0  0  # atno 7974 bound_to 7965
  155.7864  140.3480  155.5325 H   0  0  0  0  0  0  0  0  0  0  0  0  # atno 8008 bound_to 7997
  155.8677  140.0981  157.1592 H   0  0  0  0  0  0  0  0  0  0  0  0  # atno 8009 bound_to 7997
  154.4015  140.1346  156.4027 H   0  0  0  0  0  0  0  0  0  0  0  0  # atno 8010 bound_to 7997
  140.3530  144.2326  150.6144 H   0  0  0  0  0  0  0  0  0  0  0  0  # atno 10167 bound_to 10162
  157.6899  131.0634  150.4768 H   0  0  0  0  0  0  0  0  0  0  0  0  # atno 10718 bound_to 10713
  154.8650  135.3628  154.5297 H   0  0  0  0  0  0  0  0  0  0  0  0  # atno 10763 bound_to 10752
  153.5923  135.7015  153.5423 H   0  0  0  0  0  0  0  0  0  0  0  0  # atno 10764 bound_to 10752
  153.3363  135.4110  155.1497 H   0  0  0  0  0  0  0  0  0  0  0  0  # atno 10765 bound_to 10752
  139.9245  134.9640  156.8028 H   0  0  0  0  0  0  0  0  0  0  0  0  # atno 11005 bound_to 11000
  145.4171  139.1570  143.4094 LP  0  0  0  0  0  0  0  0  0  0  0  0  # atno 17320 bound_to 7965
  146.2915  140.4279  142.8738 LP  0  0  0  0  0  0  0  0  0  0  0  0  # atno 17321 bound_to 7965
  140.5200  143.2268  151.8403 LP  0  0  0  0  0  0  0  0  0  0  0  0  # atno 17342 bound_to 10162
  139.4824  144.4848  151.9261 LP  0  0  0  0  0  0  0  0  0  0  0  0  # atno 17343 bound_to 10162
  156.5103  130.4137  149.6305 LP  0  0  0  0  0  0  0  0  0  0  0  0  # atno 17370 bound_to 10713
  156.3247  130.7299  151.2218 LP  0  0  0  0  0  0  0  0  0  0  0  0  # atno 17371 bound_to 10713
  140.6376  133.9848  155.7691 LP  0  0  0  0  0  0  0  0  0  0  0  0  # atno 17394 bound_to 11000
  141.0793  134.0087  157.3411 LP  0  0  0  0  0  0  0  0  0  0  0  0  # atno 17395 bound_to 11000

$$$$
