AV-unprocessed.smi:672|AV-procd|sdf|3290|dock1
  -GOLD-   22720 0253D 1   1.00000     0.00000
 Structure written by MMmdl.
 36 37  0  0  0  0  0  0  0  0  1 V2000
  142.1674  143.4256  160.9515 C   0  0  0  0  0  0  0  0  0  0  0  0
  143.2101  143.5127  162.0710 C   0  0  0  0  0  0  0  0  0  0  0  0
  144.6036  143.6262  161.5493 C   0  0  0  0  0  0  0  0  0  0  0  0
  145.5610  142.7378  161.8438 N   0  0  0  0  0  0  0  0  0  0  0  0
  146.7650  143.0358  161.2214 N   0  0  0  0  0  0  0  0  0  0  0  0
  146.6758  144.1357  160.4609 C   0  0  0  0  0  0  0  0  0  0  0  0
  147.7579  144.6658  159.7099 N   0  0  0  0  0  0  0  0  0  0  0  0
  149.0763  144.4997  159.9160 C   0  0  0  0  0  0  0  0  0  0  0  0
  149.5780  143.8323  160.8211 O   0  0  0  0  0  0  0  0  0  0  0  0
  149.7971  145.1582  158.9972 N   0  0  0  0  0  0  0  0  0  0  0  0
  151.2564  145.1844  158.9362 C   0  0  1  0  0  0  0  0  0  0  0  0
  151.8796  145.2962  160.3419 C   0  0  0  0  0  0  0  0  0  0  0  0
  152.5138  143.9358  160.6310 C   0  0  0  0  0  0  0  0  0  0  0  0
  152.9342  143.4211  159.2556 C   0  0  1  0  0  0  0  0  0  0  0  0
  153.1885  141.6233  159.2100 S   0  0  0  0  0  0  0  0  0  0  0  0
  154.1491  141.3940  160.7296 C   0  0  0  0  0  0  0  0  0  0  0  0
  151.8027  143.8778  158.3300 C   0  0  0  0  0  0  0  0  0  0  0  0
  145.0976  144.9035  160.4440 S   0  0  0  0  0  0  0  0  0  0  0  0
  141.1612  143.3462  161.3633 H   0  0  0  0  0  0  0  0  0  0  0  0
  142.3393  142.5527  160.3210 H   0  0  0  0  0  0  0  0  0  0  0  0
  142.1987  144.3106  160.3153 H   0  0  0  0  0  0  0  0  0  0  0  0
  143.0029  144.3753  162.7048 H   0  0  0  0  0  0  0  0  0  0  0  0
  143.1428  142.6325  162.7116 H   0  0  0  0  0  0  0  0  0  0  0  0
  147.4969  145.2393  158.9213 H   0  0  0  0  0  0  0  0  0  0  0  0
  149.3038  145.6800  158.2878 H   0  0  0  0  0  0  0  0  0  0  0  0
  151.5821  146.0295  158.3265 H   0  0  0  0  0  0  0  0  0  0  0  0
  152.6586  146.0596  160.3275 H   0  0  0  0  0  0  0  0  0  0  0  0
  151.1656  145.5849  161.1145 H   0  0  0  0  0  0  0  0  0  0  0  0
  153.3480  144.0079  161.3291 H   0  0  0  0  0  0  0  0  0  0  0  0
  151.7679  143.2706  161.0683 H   0  0  0  0  0  0  0  0  0  0  0  0
  153.8577  143.9168  158.9526 H   0  0  0  0  0  0  0  0  0  0  0  0
  154.4272  140.3461  160.8420 H   0  0  0  0  0  0  0  0  0  0  0  0
  153.5659  141.6895  161.6016 H   0  0  0  0  0  0  0  0  0  0  0  0
  155.0600  141.9919  160.6991 H   0  0  0  0  0  0  0  0  0  0  0  0
  151.0222  143.1152  158.3060 H   0  0  0  0  0  0  0  0  0  0  0  0
  152.1473  144.0143  157.3044 H   0  0  0  0  0  0  0  0  0  0  0  0
  1  2  1  0  0  0  0
  1 19  1  0  0  0  0
  1 20  1  0  0  0  0
  1 21  1  0  0  0  0
  2  3  1  0  0  0  0
  2 22  1  0  0  0  0
  2 23  1  0  0  0  0
  3 18  1  0  0  0  0
  3  4  2  0  0  0  0
  4  5  1  0  0  0  0
  5  6  2  0  0  0  0
  6  7  1  0  0  0  0
  6 18  1  0  0  0  0
  7  8  1  0  0  0  0
  7 24  1  0  0  0  0
  8  9  2  0  0  0  0
  8 10  1  0  0  0  0
 10 11  1  0  0  0  0
 10 25  1  0  0  0  0
 11 17  1  0  0  0  0
 11 12  1  0  0  0  0
 11 26  1  0  0  0  0
 12 13  1  0  0  0  0
 12 27  1  0  0  0  0
 12 28  1  0  0  0  0
 13 14  1  0  0  0  0
 13 29  1  0  0  0  0
 13 30  1  0  0  0  0
 14 15  1  0  0  0  0
 14 17  1  0  0  0  0
 14 31  1  0  0  0  0
 15 16  1  0  0  0  0
 16 32  1  0  0  0  0
 16 33  1  0  0  0  0
 16 34  1  0  0  0  0
 17 35  1  0  0  0  0
 17 36  1  0  0  0  0
M  END
> <s_m_source_file>
AV-unprocessed.smi

> <i_m_source_file_index>
672

> <i_lp_mmshare_version>
43012

> <i_f3d_flags>
0

> <s_epik_input>
W0NIM11bQ0gyXWMxbm5jKHMxKVtOSF1DKD1PKVtOSF1bQ0BASF0yW0NIMl1bQ0gyXVtDQEhdKFtDSDJdMilTW0NIM10=

> <s_epik_cmdline>
J2VwaWtfcHl0aG9uJywgJy1waCcsICc3LjAnLCAnLXRuJywgJzgnLCAnLW1hJywgJzIwMCcsICctbWV0YWxfYmluZGluZycsICctaW1hZScsICc8aW5maWxlLm1hZT4nLCAnLW9tYWUnLCAnPG91dGZpbGUubWFlPic=

> <r_lp_tautomer_probability>
1

> <r_epik_Ionization_Penalty>
0.000422169

> <r_epik_Ionization_Penalty_Charging>
0

> <r_epik_Ionization_Penalty_Neutral>
0.000422169

> <r_epik_State_Penalty>
-0

> <r_epik_Charging_Adjusted_Penalty>
0

> <i_epik_Tot_Q>
0

> <i_epik_Tot_abs_Q>
0

> <r_epik_Metal_State_Penalty>
0.200061

> <b_epik_Metal_Only>
0

> <s_lp_Force_Field>
OPLS_2005

> <r_lp_Energy>
11.4796

> <b_lp_Chiralities_Consistent>
1

> <s_lp_Variant>
AV-unprocessed.smi:672-2

> <Gold.Version>
5.8.1

> <Gold.Id.Protein>
6NUR|6NUR_protein|mol2

> <Gold.PLP.Fitness>
51.9328

> <Gold.PLP.PLP>
-43.6517

> <Gold.PLP.part.hbond>
-4.7143

> <Gold.PLP.part.metal>
0.0000

> <Gold.PLP.part.buried>
-6.9444

> <Gold.PLP.part.nonpolar>
-32.4324

> <Gold.PLP.part.repulsive>
0.5825

> <Gold.PLP.ligand.clash>
0.0000

> <Gold.PLP.ligand.torsion>
0.5122

> <Gold.PLP.Chemscore.Hbond>
3.0858

> <Gold.PLP.Chemscore.CHOScore>
0.0000

> <Gold.PLP.Chemscore.Metal>
0.0000

> <Gold.Chemscore.Hbonds>
donor molecule, donor type, donor heavy atom, donor atom, acceptor molecule, acceptor atom, score
      L1  H     7    24       P1  8029  1.00
      L1  H    10    25       P1  8029  1.00
      P1  H  6933  6944       L1     5  0.94
      P1  H  6934  6946       L1     5  0.13

> <Gold.PLP.Chemscore.Internal.Correction>
0.0481

> <Gold.Rescore>
     Score         DG    S(hbond)    S(metal)    S(lipo)     H(rot)  DE(clash)    DE(int)     intcor
     19.83     -24.18       2.73        0.00     111.79       1.37       0.08       4.27       ----

> <Gold.Chemscore.Fitness>
19.8262

> <Gold.Chemscore.DG>
-24.1767

> <Gold.Chemscore.ZeroCoef>
-5.4800

> <Gold.Chemscore.Hbond>
2.7296

> <Gold.Chemscore.Metal>
0.0000

> <Gold.Chemscore.Lipo>
111.7861

> <Gold.Chemscore.Internal_Hbond>
0.0000

> <Gold.Chemscore.DEClash>
0.0785

> <Gold.Chemscore.DEInternal>
4.2719

> <Gold.Chemscore.Rot>
1.3669

> <Gold.Chemscore.Internal.Correction>
   9.000000E+99

> <Gold.Chemscore.Hbonds>
donor molecule, donor type, donor heavy atom, donor atom, acceptor molecule, acceptor atom, score
      L1  H     7    24       P1  8029  0.95
      L1  H    10    25       P1  8029  0.85
      P1  H  6933  6944       L1     5  0.85

> <Gold.Chemscore.Hbond.Weighted>
-9.1169

> <Gold.Chemscore.Metal.Weighted>
-0.0000

> <Gold.Chemscore.Lipo.Weighted>
-13.0790

> <Gold.Chemscore.Internal_Hbond.Weighted>
0.0000

> <Gold.Chemscore.DEClash.Weighted>
0.0785

> <Gold.Chemscore.DEInternal.Weighted>
4.2719

> <Gold.Chemscore.Rot.Weighted>
3.4992

> <Gold.Chemscore.Internal.Correction.Weighted>
   9.000000E+99

> <Gold.Protein.RotatedTorsions>
[ 6907 6896 6895 6894 ] final   46.64 input  -60.11 | X-H torsion
[ 7974 7965 7964 7962 ] final -144.49 input  175.53 | X-H torsion
[ 8008 7997 7996 7995 ] final   74.26 input   59.86 | X-H torsion
[ 10167 10162 10161 10158 ] final    1.20 input  -65.29 | X-H torsion
[ 10718 10713 10712 10709 ] final -175.88 input   66.30 | X-H torsion
[ 10763 10752 10751 10750 ] final   -1.55 input  -60.55 | X-H torsion
[ 11005 11000 10999 10996 ] final  -33.50 input  -57.11 | X-H torsion

> <Gold.Protein.ActiveResidues>
 VAL166  LYS551  ARG553  GLY616  TRP617  ASP618  TYR619  PRO620  LYS621  CYS622 
 ASP623  PHE694  ASN695  SER759  ASP760  ASP761  ALA762  ILE779  LEU786  VAL792 
 PHE793  MET794  SER795  GLU796  ALA797  LYS798  CYS799  TRP800  GLU811  SER814 

> <Gold.Protein.RotatedAtoms>
  152.2587  134.8056  160.0433 H   0  0  0  0  0  0  0  0  0  0  0  0  # atno 6907 bound_to 6896
  151.8710  133.3470  159.3743 H   0  0  0  0  0  0  0  0  0  0  0  0  # atno 6908 bound_to 6896
  150.7109  134.5039  159.5619 H   0  0  0  0  0  0  0  0  0  0  0  0  # atno 6909 bound_to 6896
  144.8294  140.5703  143.5525 H   0  0  0  0  0  0  0  0  0  0  0  0  # atno 7974 bound_to 7965
  155.7958  140.3478  155.5375 H   0  0  0  0  0  0  0  0  0  0  0  0  # atno 8008 bound_to 7997
  155.8588  140.0968  157.1647 H   0  0  0  0  0  0  0  0  0  0  0  0  # atno 8009 bound_to 7997
  154.4011  140.1362  156.3922 H   0  0  0  0  0  0  0  0  0  0  0  0  # atno 8010 bound_to 7997
  140.6694  143.7091  150.7891 H   0  0  0  0  0  0  0  0  0  0  0  0  # atno 10167 bound_to 10162
  156.8065  130.9571  151.3117 H   0  0  0  0  0  0  0  0  0  0  0  0  # atno 10718 bound_to 10713
  153.3463  135.6983  153.6825 H   0  0  0  0  0  0  0  0  0  0  0  0  # atno 10763 bound_to 10752
  153.5570  135.3542  155.2784 H   0  0  0  0  0  0  0  0  0  0  0  0  # atno 10764 bound_to 10752
  154.8645  135.4240  154.2688 H   0  0  0  0  0  0  0  0  0  0  0  0  # atno 10765 bound_to 10752
  140.9640  133.7148  156.1415 H   0  0  0  0  0  0  0  0  0  0  0  0  # atno 11005 bound_to 11000
  145.4929  139.1487  143.3700 LP  0  0  0  0  0  0  0  0  0  0  0  0  # atno 17320 bound_to 7965
  146.2598  140.5067  142.8858 LP  0  0  0  0  0  0  0  0  0  0  0  0  # atno 17321 bound_to 7965
  140.0774  143.5002  152.2548 LP  0  0  0  0  0  0  0  0  0  0  0  0  # atno 17342 bound_to 10162
  139.5955  144.7565  151.3296 LP  0  0  0  0  0  0  0  0  0  0  0  0  # atno 17343 bound_to 10162
  157.6527  130.8898  149.9667 LP  0  0  0  0  0  0  0  0  0  0  0  0  # atno 17370 bound_to 10713
  156.1070  130.3652  150.0116 LP  0  0  0  0  0  0  0  0  0  0  0  0  # atno 17371 bound_to 10713
  140.7426  134.4133  157.5552 LP  0  0  0  0  0  0  0  0  0  0  0  0  # atno 17394 bound_to 11000
  139.8888  134.8847  156.2455 LP  0  0  0  0  0  0  0  0  0  0  0  0  # atno 17395 bound_to 11000

$$$$
