AV-unprocessed.smi:149|AV-procd|sdf|1239|dock2
  -GOLD-   2262018453D 1   1.00000     0.00000
 Structure written by MMmdl.
 59 63  0  0  0  0  0  0  0  0  1 V2000
  151.4644  139.8714  157.4566 C   0  0  0  0  0  0  0  0  0  0  0  0
  150.9707  140.8225  156.3467 C   0  0  1  0  0  0  0  0  0  0  0  0
  149.8163  140.1774  155.5630 C   0  0  0  0  0  0  0  0  0  0  0  0
  148.5916  140.7431  156.1097 N   0  0  0  0  0  0  0  0  0  0  0  0
  147.4315  140.0371  156.1160 C   0  0  0  0  0  0  0  0  0  0  0  0
  146.5963  140.1602  157.1820 N   0  0  0  0  0  0  0  0  0  0  0  0
  145.4430  139.4875  157.2230 C   0  0  0  0  0  0  0  0  0  0  0  0
  144.9332  138.6515  156.3176 N   0  0  0  0  0  0  0  0  0  0  0  0
  145.7595  138.5267  155.2401 C   0  0  0  0  0  0  0  0  0  0  0  0
  147.0116  139.1811  155.0550 C   0  0  0  0  0  0  0  0  0  0  0  0
  147.5434  138.8276  153.8192 N   0  0  0  0  0  0  0  0  0  0  0  0
  146.6617  138.0129  153.3084 C   0  0  0  0  0  0  0  0  0  0  0  0
  145.5717  137.7543  154.1073 N   0  0  0  0  0  0  0  0  0  0  0  0
  144.4402  136.9372  153.7805 C   0  0  0  0  0  0  0  0  0  0  0  0
  144.4407  135.4347  154.0723 C   0  0  0  0  0  0  0  0  0  0  0  0
  143.5536  135.2004  152.8286 C   0  0  0  0  0  0  0  0  0  0  0  0
  143.9275  133.9543  152.0070 C   0  0  0  0  0  0  0  0  0  0  0  0
  143.4921  134.0548  150.6669 O   0  0  0  0  0  0  0  0  0  0  0  0
  142.0416  135.1724  153.1381 C   0  0  0  0  0  0  0  0  0  0  0  0
  141.7247  134.2763  154.1836 O   0  0  0  0  0  0  0  0  0  0  0  0
  144.1318  136.5463  152.3337 C   0  0  0  0  0  0  0  0  0  0  0  0
  148.9081  141.7001  157.1583 C   0  0  0  0  0  0  0  0  0  0  0  0
  150.3491  142.1384  156.8671 C   0  0  1  0  0  0  0  0  0  0  0  0
  151.0494  142.8017  157.9753 N   0  0  0  0  0  0  0  0  0  0  0  0
  150.1251  143.4681  158.8922 C   0  0  0  0  0  0  0  0  0  0  0  0
  150.8619  144.1755  160.0432 C   0  0  0  0  0  0  0  0  0  0  0  0
  151.7973  145.1078  159.5126 O   0  0  0  0  0  0  0  0  0  0  0  0
  152.7455  144.4960  158.6454 C   0  0  0  0  0  0  0  0  0  0  0  0
  152.0089  143.7949  157.4916 C   0  0  0  0  0  0  0  0  0  0  0  0
  150.6666  139.6229  158.1567 H   0  0  0  0  0  0  0  0  0  0  0  0
  152.2834  140.3046  158.0297 H   0  0  0  0  0  0  0  0  0  0  0  0
  151.8307  138.9368  157.0311 H   0  0  0  0  0  0  0  0  0  0  0  0
  151.8041  141.0306  155.6751 H   0  0  0  0  0  0  0  0  0  0  0  0
  149.8779  140.4420  154.5069 H   0  0  0  0  0  0  0  0  0  0  0  0
  149.8381  139.0896  155.6397 H   0  0  0  0  0  0  0  0  0  0  0  0
  144.8425  139.6414  158.1074 H   0  0  0  0  0  0  0  0  0  0  0  0
  146.7871  137.5739  152.3293 H   0  0  0  0  0  0  0  0  0  0  0  0
  143.5771  137.4205  154.2413 H   0  0  0  0  0  0  0  0  0  0  0  0
  145.4372  134.9975  153.9820 H   0  0  0  0  0  0  0  0  0  0  0  0
  143.9827  135.1599  155.0231 H   0  0  0  0  0  0  0  0  0  0  0  0
  145.0086  133.8146  151.9863 H   0  0  0  0  0  0  0  0  0  0  0  0
  143.5110  133.0482  152.4478 H   0  0  0  0  0  0  0  0  0  0  0  0
  142.5995  134.3648  150.6628 H   0  0  0  0  0  0  0  0  0  0  0  0
  141.6775  136.1646  153.4066 H   0  0  0  0  0  0  0  0  0  0  0  0
  141.4663  134.8687  152.2632 H   0  0  0  0  0  0  0  0  0  0  0  0
  142.1908  133.4675  154.0386 H   0  0  0  0  0  0  0  0  0  0  0  0
  143.4181  137.2009  151.8329 H   0  0  0  0  0  0  0  0  0  0  0  0
  145.0337  136.4209  151.7315 H   0  0  0  0  0  0  0  0  0  0  0  0
  148.2172  142.5435  157.1341 H   0  0  0  0  0  0  0  0  0  0  0  0
  148.8346  141.2209  158.1359 H   0  0  0  0  0  0  0  0  0  0  0  0
  150.3055  142.8302  156.0236 H   0  0  0  0  0  0  0  0  0  0  0  0
  149.5225  144.1961  158.3469 H   0  0  0  0  0  0  0  0  0  0  0  0
  149.4305  142.7456  159.3206 H   0  0  0  0  0  0  0  0  0  0  0  0
  150.1524  144.7052  160.6791 H   0  0  0  0  0  0  0  0  0  0  0  0
  151.3785  143.4503  160.6736 H   0  0  0  0  0  0  0  0  0  0  0  0
  153.4185  145.2604  158.2570 H   0  0  0  0  0  0  0  0  0  0  0  0
  153.3556  143.7842  159.2038 H   0  0  0  0  0  0  0  0  0  0  0  0
  152.7454  143.3288  156.8383 H   0  0  0  0  0  0  0  0  0  0  0  0
  151.4930  144.5439  156.8887 H   0  0  0  0  0  0  0  0  0  0  0  0
  1  2  1  0  0  0  0
  1 30  1  0  0  0  0
  1 31  1  0  0  0  0
  1 32  1  0  0  0  0
  2 23  1  0  0  0  0
  2  3  1  0  0  0  0
  2 33  1  0  0  0  0
  3  4  1  0  0  0  0
  3 34  1  0  0  0  0
  3 35  1  0  0  0  0
  4  5  1  0  0  0  0
  4 22  1  0  0  0  0
  5 10  1  0  0  0  0
  5  6  2  0  0  0  0
  6  7  1  0  0  0  0
  7  8  2  0  0  0  0
  7 36  1  0  0  0  0
  8  9  1  0  0  0  0
  9 13  1  0  0  0  0
  9 10  2  0  0  0  0
 10 11  1  0  0  0  0
 11 12  2  0  0  0  0
 12 13  1  0  0  0  0
 12 37  1  0  0  0  0
 13 14  1  0  0  0  0
 14 21  1  0  0  0  0
 14 15  1  0  0  0  0
 14 38  1  0  0  0  0
 15 16  1  0  0  0  0
 15 39  1  0  0  0  0
 15 40  1  0  0  0  0
 16 17  1  0  0  0  0
 16 19  1  0  0  0  0
 16 21  1  0  0  0  0
 17 18  1  0  0  0  0
 17 41  1  0  0  0  0
 17 42  1  0  0  0  0
 18 43  1  0  0  0  0
 19 20  1  0  0  0  0
 19 44  1  0  0  0  0
 19 45  1  0  0  0  0
 20 46  1  0  0  0  0
 21 47  1  0  0  0  0
 21 48  1  0  0  0  0
 22 23  1  0  0  0  0
 22 49  1  0  0  0  0
 22 50  1  0  0  0  0
 23 24  1  0  0  0  0
 23 51  1  0  0  0  0
 24 29  1  0  0  0  0
 24 25  1  0  0  0  0
 25 26  1  0  0  0  0
 25 52  1  0  0  0  0
 25 53  1  0  0  0  0
 26 27  1  0  0  0  0
 26 54  1  0  0  0  0
 26 55  1  0  0  0  0
 27 28  1  0  0  0  0
 28 29  1  0  0  0  0
 28 56  1  0  0  0  0
 28 57  1  0  0  0  0
 29 58  1  0  0  0  0
 29 59  1  0  0  0  0
M  END
> <s_m_source_file>
AV-unprocessed.smi

> <i_m_source_file_index>
149

> <i_lp_mmshare_version>
43012

> <i_f3d_flags>
0

> <s_epik_input>
W0NIMl0xW0NIMl1PW0NIMl1bQ0gyXU4xW0NAQEhdMltDSDJdTihbQ0gyXVtDQEhdMltDSDNdKWMobltjSF1uMyljKGMzNCluW2NIXW40W0NIXShbQ0gyXTUpW0NIMl1DNShbQ0gyXVtPSF0pW0NIMl1bT0hd

> <s_epik_cmdline>
J2VwaWtfcHl0aG9uJywgJy1waCcsICc3LjAnLCAnLXRuJywgJzgnLCAnLW1hJywgJzIwMCcsICctbWV0YWxfYmluZGluZycsICctaW1hZScsICc8aW5maWxlLm1hZT4nLCAnLW9tYWUnLCAnPG91dGZpbGUubWFlPic=

> <r_lp_tautomer_probability>
1

> <r_epik_Ionization_Penalty>
0.41918

> <r_epik_Ionization_Penalty_Charging>
0

> <r_epik_Ionization_Penalty_Neutral>
0.41918

> <r_epik_State_Penalty>
0.654916

> <r_epik_Charging_Adjusted_Penalty>
0.654916

> <i_epik_Tot_Q>
0

> <i_epik_Tot_abs_Q>
0

> <r_epik_Metal_State_Penalty>
0.653217

> <b_epik_Metal_Only>
0

> <s_lp_Force_Field>
OPLS_2005

> <r_lp_Energy>
77.678

> <b_lp_Chiralities_Consistent>
1

> <s_lp_Variant>
AV-unprocessed.smi:149-6

> <Gold.Version>
5.8.1

> <Gold.Id.Protein>
6NUR|6NUR_protein|mol2

> <Gold.PLP.Fitness>
44.4054

> <Gold.PLP.PLP>
-36.7957

> <Gold.PLP.part.hbond>
-3.0141

> <Gold.PLP.part.metal>
0.0000

> <Gold.PLP.part.buried>
-6.6103

> <Gold.PLP.part.nonpolar>
-27.9708

> <Gold.PLP.part.repulsive>
0.4567

> <Gold.PLP.ligand.clash>
0.0000

> <Gold.PLP.ligand.torsion>
2.2443

> <Gold.PLP.Chemscore.Hbond>
2.9360

> <Gold.PLP.Chemscore.CHOScore>
0.8423

> <Gold.PLP.Chemscore.Metal>
0.0000

> <Gold.Chemscore.Hbonds>
donor molecule, donor type, donor heavy atom, donor atom, acceptor molecule, acceptor atom, score
      L1  H    18    43       P1 10186  0.85
      L1  H    20    46       P1 10957  0.90
      P1  H 11000 11005       L1    20  1.00
      L1  C    12    37       P1  7948  0.69

> <Gold.PLP.Chemscore.Internal.Correction>
0.7632

> <Gold.Rescore>
     Score         DG    S(hbond)    S(metal)    S(lipo)     H(rot)  DE(clash)    DE(int)     intcor
     13.81     -17.15       2.51        0.00      94.57       3.04       1.29       2.05       ----

> <Gold.Chemscore.Fitness>
13.8140

> <Gold.Chemscore.DG>
-17.1540

> <Gold.Chemscore.ZeroCoef>
-5.4800

> <Gold.Chemscore.Hbond>
2.5118

> <Gold.Chemscore.Metal>
0.0000

> <Gold.Chemscore.Lipo>
94.5661

> <Gold.Chemscore.Internal_Hbond>
0.0000

> <Gold.Chemscore.DEClash>
1.2869

> <Gold.Chemscore.DEInternal>
2.0531

> <Gold.Chemscore.Rot>
3.0390

> <Gold.Chemscore.Internal.Correction>
   9.000000E+99

> <Gold.Chemscore.Hbonds>
donor molecule, donor type, donor heavy atom, donor atom, acceptor molecule, acceptor atom, score
      L1  H    18    43       P1 10186  0.33
      L1  H    20    46       P1 10957  0.88
      P1  H 11000 11005       L1    20  0.49

> <Gold.Chemscore.Hbond.Weighted>
-8.3896

> <Gold.Chemscore.Metal.Weighted>
-0.0000

> <Gold.Chemscore.Lipo.Weighted>
-11.0642

> <Gold.Chemscore.Internal_Hbond.Weighted>
0.0000

> <Gold.Chemscore.DEClash.Weighted>
1.2869

> <Gold.Chemscore.DEInternal.Weighted>
2.0531

> <Gold.Chemscore.Rot.Weighted>
7.7798

> <Gold.Chemscore.Internal.Correction.Weighted>
   9.000000E+99

> <Gold.Protein.RotatedTorsions>
[ 6907 6896 6895 6894 ] final -150.16 input  -60.11 | X-H torsion
[ 7974 7965 7964 7962 ] final -126.35 input  175.53 | X-H torsion
[ 8008 7997 7996 7995 ] final  109.39 input   59.86 | X-H torsion
[ 10167 10162 10161 10158 ] final   14.09 input  -65.29 | X-H torsion
[ 10718 10713 10712 10709 ] final  -86.95 input   66.30 | X-H torsion
[ 10763 10752 10751 10750 ] final -109.65 input  -60.55 | X-H torsion
[ 11005 11000 10999 10996 ] final   -0.30 input  -57.11 | X-H torsion

> <Gold.Protein.ActiveResidues>
 VAL166  LYS551  ARG553  GLY616  TRP617  ASP618  TYR619  PRO620  LYS621  CYS622 
 ASP623  PHE694  ASN695  SER759  ASP760  ASP761  ALA762  ILE779  LEU786  VAL792 
 PHE793  MET794  SER795  GLU796  ALA797  LYS798  CYS799  TRP800  GLU811  SER814 

> <Gold.Protein.RotatedAtoms>
  151.1945  133.4647  159.2595 H   0  0  0  0  0  0  0  0  0  0  0  0  # atno 6907 bound_to 6896
  151.1130  135.0037  159.8513 H   0  0  0  0  0  0  0  0  0  0  0  0  # atno 6908 bound_to 6896
  152.5451  134.1863  159.8709 H   0  0  0  0  0  0  0  0  0  0  0  0  # atno 6909 bound_to 6896
  144.9882  140.7706  143.4570 H   0  0  0  0  0  0  0  0  0  0  0  0  # atno 7974 bound_to 7965
  156.1976  140.3058  155.9459 H   0  0  0  0  0  0  0  0  0  0  0  0  # atno 8008 bound_to 7997
  155.3030  140.0447  157.3047 H   0  0  0  0  0  0  0  0  0  0  0  0  # atno 8009 bound_to 7997
  154.5529  140.2297  155.8465 H   0  0  0  0  0  0  0  0  0  0  0  0  # atno 8010 bound_to 7997
  140.5959  143.8703  150.6917 H   0  0  0  0  0  0  0  0  0  0  0  0  # atno 10167 bound_to 10162
  155.9987  130.4783  150.4793 H   0  0  0  0  0  0  0  0  0  0  0  0  # atno 10718 bound_to 10713
  154.8205  135.4593  154.0765 H   0  0  0  0  0  0  0  0  0  0  0  0  # atno 10763 bound_to 10752
  153.2122  135.6883  153.8106 H   0  0  0  0  0  0  0  0  0  0  0  0  # atno 10764 bound_to 10752
  153.7553  135.3292  155.3305 H   0  0  0  0  0  0  0  0  0  0  0  0  # atno 10765 bound_to 10752
  140.6348  133.9543  155.8294 H   0  0  0  0  0  0  0  0  0  0  0  0  # atno 11005 bound_to 11000
  145.2323  139.2109  143.5036 LP  0  0  0  0  0  0  0  0  0  0  0  0  # atno 17320 bound_to 7965
  146.3425  140.2203  142.8591 LP  0  0  0  0  0  0  0  0  0  0  0  0  # atno 17321 bound_to 7965
  140.2237  143.3789  152.1622 LP  0  0  0  0  0  0  0  0  0  0  0  0  # atno 17342 bound_to 10162
  139.5258  144.7100  151.5236 LP  0  0  0  0  0  0  0  0  0  0  0  0  # atno 17343 bound_to 10162
  157.2800  131.0605  151.2204 LP  0  0  0  0  0  0  0  0  0  0  0  0  # atno 17370 bound_to 10713
  157.3254  130.6958  149.6293 LP  0  0  0  0  0  0  0  0  0  0  0  0  # atno 17371 bound_to 10713
  141.0649  134.0291  157.3607 LP  0  0  0  0  0  0  0  0  0  0  0  0  # atno 17394 bound_to 11000
  139.9102  135.0188  156.7660 LP  0  0  0  0  0  0  0  0  0  0  0  0  # atno 17395 bound_to 11000

$$$$
