AV-unprocessed.smi:1780|AV-procd|sdf|7183|dock9
  -GOLD-   22720 8423D 1   1.00000     0.00000
 Structure written by MMmdl.
 43 44  0  0  0  0  0  0  0  0  1 V2000
  145.5532  130.4586  151.4640 C   0  0  0  0  0  0  0  0  0  0  0  0
  144.5072  131.3736  150.8162 C   0  0  0  0  0  0  0  0  0  0  0  0
  144.6130  132.7374  151.2971 N   0  0  0  0  0  0  0  0  0  0  0  0
  145.7193  133.5636  151.2869 C   0  0  0  0  0  0  0  0  0  0  0  0
  145.3112  134.7385  151.8432 C   0  0  0  0  0  0  0  0  0  0  0  0
  146.1377  135.8741  152.0338 N   0  0  0  0  0  0  0  0  0  0  0  0
  145.7865  137.0518  152.5745 C   0  0  0  0  0  0  0  0  0  0  0  0
  144.6523  137.3460  152.9514 O   0  0  0  0  0  0  0  0  0  0  0  0
  146.8388  137.8784  152.6640 N   0  0  0  0  0  0  0  0  0  0  0  0
  146.8141  139.2302  153.2196 C   0  0  0  0  0  0  0  0  0  0  0  0
  146.9643  139.2603  154.7680 C   0  0  2  0  0  0  0  0  0  0  0  0
  146.0487  140.3683  155.3483 C   0  0  0  0  0  0  0  0  0  0  0  0
  148.3717  139.3916  155.2145 N   0  0  0  0  0  0  0  0  0  0  0  0
  148.8930  140.7553  155.0648 C   0  0  0  0  0  0  0  0  0  0  0  0
  150.3629  140.8856  155.5000 C   0  0  0  0  0  0  0  0  0  0  0  0
  151.1645  139.9744  154.7618 O   0  0  0  0  0  0  0  0  0  0  0  0
  150.7442  138.6297  154.9431 C   0  0  0  0  0  0  0  0  0  0  0  0
  149.2774  138.4814  154.5030 C   0  0  0  0  0  0  0  0  0  0  0  0
  143.9381  134.5563  152.1721 C   0  0  0  0  0  0  0  0  0  0  0  0
  143.5266  133.3424  151.8379 N   0  0  0  0  0  0  0  0  0  0  0  0
  145.4517  129.4362  151.1001 H   0  0  0  0  0  0  0  0  0  0  0  0
  145.4416  130.4392  152.5484 H   0  0  0  0  0  0  0  0  0  0  0  0
  146.5661  130.7926  151.2370 H   0  0  0  0  0  0  0  0  0  0  0  0
  144.6224  131.3737  149.7315 H   0  0  0  0  0  0  0  0  0  0  0  0
  143.5029  131.0053  151.0286 H   0  0  0  0  0  0  0  0  0  0  0  0
  146.6752  133.2500  150.8943 H   0  0  0  0  0  0  0  0  0  0  0  0
  147.1015  135.7701  151.7530 H   0  0  0  0  0  0  0  0  0  0  0  0
  147.7306  137.5463  152.3275 H   0  0  0  0  0  0  0  0  0  0  0  0
  147.6470  139.7359  152.7350 H   0  0  0  0  0  0  0  0  0  0  0  0
  145.9135  139.7684  152.9191 H   0  0  0  0  0  0  0  0  0  0  0  0
  146.5829  138.3085  155.1414 H   0  0  0  0  0  0  0  0  0  0  0  0
  145.0180  140.2743  155.0103 H   0  0  0  0  0  0  0  0  0  0  0  0
  146.3995  141.3600  155.0604 H   0  0  0  0  0  0  0  0  0  0  0  0
  145.9865  140.3338  156.4345 H   0  0  0  0  0  0  0  0  0  0  0  0
  148.7922  141.0788  154.0277 H   0  0  0  0  0  0  0  0  0  0  0  0
  148.3234  141.4544  155.6736 H   0  0  0  0  0  0  0  0  0  0  0  0
  150.7215  141.8994  155.3218 H   0  0  0  0  0  0  0  0  0  0  0  0
  150.4681  140.6921  156.5688 H   0  0  0  0  0  0  0  0  0  0  0  0
  151.3848  137.9748  154.3522 H   0  0  0  0  0  0  0  0  0  0  0  0
  150.8662  138.3383  155.9874 H   0  0  0  0  0  0  0  0  0  0  0  0
  148.9985  137.4445  154.6793 H   0  0  0  0  0  0  0  0  0  0  0  0
  149.2040  138.6525  153.4280 H   0  0  0  0  0  0  0  0  0  0  0  0
  143.2370  135.2375  152.6306 H   0  0  0  0  0  0  0  0  0  0  0  0
  1  2  1  0  0  0  0
  1 21  1  0  0  0  0
  1 22  1  0  0  0  0
  1 23  1  0  0  0  0
  2  3  1  0  0  0  0
  2 24  1  0  0  0  0
  2 25  1  0  0  0  0
  3 20  1  0  0  0  0
  3  4  1  0  0  0  0
  4  5  2  0  0  0  0
  4 26  1  0  0  0  0
  5  6  1  0  0  0  0
  5 19  1  0  0  0  0
  6  7  1  0  0  0  0
  6 27  1  0  0  0  0
  7  8  2  0  0  0  0
  7  9  1  0  0  0  0
  9 10  1  0  0  0  0
  9 28  1  0  0  0  0
 10 11  1  0  0  0  0
 10 29  1  0  0  0  0
 10 30  1  0  0  0  0
 11 12  1  0  0  0  0
 11 13  1  0  0  0  0
 11 31  1  0  0  0  0
 12 32  1  0  0  0  0
 12 33  1  0  0  0  0
 12 34  1  0  0  0  0
 13 18  1  0  0  0  0
 13 14  1  0  0  0  0
 14 15  1  0  0  0  0
 14 35  1  0  0  0  0
 14 36  1  0  0  0  0
 15 16  1  0  0  0  0
 15 37  1  0  0  0  0
 15 38  1  0  0  0  0
 16 17  1  0  0  0  0
 17 18  1  0  0  0  0
 17 39  1  0  0  0  0
 17 40  1  0  0  0  0
 18 41  1  0  0  0  0
 18 42  1  0  0  0  0
 19 20  2  0  0  0  0
 19 43  1  0  0  0  0
M  END
> <s_m_source_file>
AV-unprocessed.smi

> <i_m_source_file_index>
1780

> <i_lp_mmshare_version>
43012

> <i_f3d_flags>
0

> <s_epik_input>
W0NIM11bQ0gyXW4xW2NIXWMoW2NIXW4xKVtOSF1DKD1PKVtOSF1bQ0gyXVtDQEhdKFtDSDNdKU4yW0NIMl1bQ0gyXU9bQ0gyXVtDSDJdMg==

> <s_epik_cmdline>
J2VwaWtfcHl0aG9uJywgJy1waCcsICc3LjAnLCAnLXRuJywgJzgnLCAnLW1hJywgJzIwMCcsICctbWV0YWxfYmluZGluZycsICctaW1hZScsICc8aW5maWxlLm1hZT4nLCAnLW9tYWUnLCAnPG91dGZpbGUubWFlPic=

> <r_lp_tautomer_probability>
1

> <r_epik_Ionization_Penalty>
0.242902

> <r_epik_Ionization_Penalty_Charging>
0

> <r_epik_Ionization_Penalty_Neutral>
0.242902

> <r_epik_State_Penalty>
0.233765

> <r_epik_Charging_Adjusted_Penalty>
0.233765

> <i_epik_Tot_Q>
0

> <i_epik_Tot_abs_Q>
0

> <r_epik_Metal_State_Penalty>
0.233759

> <b_epik_Metal_Only>
0

> <s_lp_Force_Field>
OPLS_2005

> <r_lp_Energy>
32.6304

> <b_lp_Chiralities_Consistent>
1

> <s_lp_Variant>
AV-unprocessed.smi:1780-1

> <Gold.Version>
5.8.1

> <Gold.Id.Protein>
6NUR|6NUR_protein|mol2

> <Gold.PLP.Fitness>
40.6363

> <Gold.PLP.PLP>
-33.2464

> <Gold.PLP.part.hbond>
-2.9926

> <Gold.PLP.part.metal>
0.0000

> <Gold.PLP.part.buried>
-7.2706

> <Gold.PLP.part.nonpolar>
-25.2897

> <Gold.PLP.part.repulsive>
1.1119

> <Gold.PLP.ligand.clash>
0.0000

> <Gold.PLP.ligand.torsion>
0.8240

> <Gold.PLP.Chemscore.Hbond>
3.0000

> <Gold.PLP.Chemscore.CHOScore>
0.0000

> <Gold.PLP.Chemscore.Metal>
0.0000

> <Gold.Chemscore.Hbonds>
donor molecule, donor type, donor heavy atom, donor atom, acceptor molecule, acceptor atom, score
      L1  H     6    27       P1  7948  1.00
      L1  H     9    28       P1  7948  1.00
      P1  H  7989  7998       L1    16  1.00

> <Gold.PLP.Chemscore.Internal.Correction>
0.0381

> <Gold.Rescore>
     Score         DG    S(hbond)    S(metal)    S(lipo)     H(rot)  DE(clash)    DE(int)     intcor
     17.37     -19.39       2.86        0.00      72.56       1.61       0.08       1.94       ----

> <Gold.Chemscore.Fitness>
17.3746

> <Gold.Chemscore.DG>
-19.3918

> <Gold.Chemscore.ZeroCoef>
-5.4800

> <Gold.Chemscore.Hbond>
2.8590

> <Gold.Chemscore.Metal>
0.0000

> <Gold.Chemscore.Lipo>
72.5553

> <Gold.Chemscore.Internal_Hbond>
0.0000

> <Gold.Chemscore.DEClash>
0.0780

> <Gold.Chemscore.DEInternal>
1.9392

> <Gold.Chemscore.Rot>
1.6117

> <Gold.Chemscore.Internal.Correction>
   9.000000E+99

> <Gold.Chemscore.Hbonds>
donor molecule, donor type, donor heavy atom, donor atom, acceptor molecule, acceptor atom, score
      L1  H     6    27       P1  7948  0.98
      L1  H     9    28       P1  7948  0.98
      P1  H  7989  7998       L1    16  0.39

> <Gold.Chemscore.Hbond.Weighted>
-9.5489

> <Gold.Chemscore.Metal.Weighted>
-0.0000

> <Gold.Chemscore.Lipo.Weighted>
-8.4890

> <Gold.Chemscore.Internal_Hbond.Weighted>
0.0000

> <Gold.Chemscore.DEClash.Weighted>
0.0780

> <Gold.Chemscore.DEInternal.Weighted>
1.9392

> <Gold.Chemscore.Rot.Weighted>
4.1260

> <Gold.Chemscore.Internal.Correction.Weighted>
   9.000000E+99

> <Gold.Protein.RotatedTorsions>
[ 6907 6896 6895 6894 ] final -150.64 input  -60.11 | X-H torsion
[ 7974 7965 7964 7962 ] final  -40.44 input  175.53 | X-H torsion
[ 8008 7997 7996 7995 ] final  -27.24 input   59.86 | X-H torsion
[ 10167 10162 10161 10158 ] final  172.40 input  -65.29 | X-H torsion
[ 10718 10713 10712 10709 ] final   54.83 input   66.30 | X-H torsion
[ 10763 10752 10751 10750 ] final   -6.09 input  -60.55 | X-H torsion
[ 11005 11000 10999 10996 ] final -176.09 input  -57.11 | X-H torsion

> <Gold.Protein.ActiveResidues>
 VAL166  LYS551  ARG553  GLY616  TRP617  ASP618  TYR619  PRO620  LYS621  CYS622 
 ASP623  PHE694  ASN695  SER759  ASP760  ASP761  ALA762  ILE779  LEU786  VAL792 
 PHE793  MET794  SER795  GLU796  ALA797  LYS798  CYS799  TRP800  GLU811  SER814 

> <Gold.Protein.RotatedAtoms>
  151.2015  133.4608  159.2596 H   0  0  0  0  0  0  0  0  0  0  0  0  # atno 6907 bound_to 6896
  151.1065  135.0002  159.8484 H   0  0  0  0  0  0  0  0  0  0  0  0  # atno 6908 bound_to 6896
  152.5447  134.1937  159.8737 H   0  0  0  0  0  0  0  0  0  0  0  0  # atno 6909 bound_to 6896
  146.0304  140.6738  142.9135 H   0  0  0  0  0  0  0  0  0  0  0  0  # atno 7974 bound_to 7965
  154.4386  140.1877  156.0901 H   0  0  0  0  0  0  0  0  0  0  0  0  # atno 8008 bound_to 7997
  156.0372  140.3324  155.7178 H   0  0  0  0  0  0  0  0  0  0  0  0  # atno 8009 bound_to 7997
  155.5753  140.0616  157.2787 H   0  0  0  0  0  0  0  0  0  0  0  0  # atno 8010 bound_to 7997
  139.5075  144.3378  152.0048 H   0  0  0  0  0  0  0  0  0  0  0  0  # atno 10167 bound_to 10162
  157.5292  130.8618  149.8663 H   0  0  0  0  0  0  0  0  0  0  0  0  # atno 10718 bound_to 10713
  153.4076  135.7007  153.6382 H   0  0  0  0  0  0  0  0  0  0  0  0  # atno 10763 bound_to 10752
  153.4889  135.3677  155.2482 H   0  0  0  0  0  0  0  0  0  0  0  0  # atno 10764 bound_to 10752
  154.8715  135.4084  154.3422 H   0  0  0  0  0  0  0  0  0  0  0  0  # atno 10765 bound_to 10752
  140.4559  134.6299  157.4822 H   0  0  0  0  0  0  0  0  0  0  0  0  # atno 11005 bound_to 11000
  144.7028  140.3726  143.7142 LP  0  0  0  0  0  0  0  0  0  0  0  0  # atno 17320 bound_to 7965
  145.7049  139.1670  143.2571 LP  0  0  0  0  0  0  0  0  0  0  0  0  # atno 17321 bound_to 7965
  140.2816  144.3853  150.6117 LP  0  0  0  0  0  0  0  0  0  0  0  0  # atno 17342 bound_to 10162
  140.6014  143.2167  151.7066 LP  0  0  0  0  0  0  0  0  0  0  0  0  # atno 17343 bound_to 10162
  156.0409  130.3739  150.1437 LP  0  0  0  0  0  0  0  0  0  0  0  0  # atno 17370 bound_to 10713
  156.9622  130.9808  151.3476 LP  0  0  0  0  0  0  0  0  0  0  0  0  # atno 17371 bound_to 10713
  139.9976  134.6886  155.9583 LP  0  0  0  0  0  0  0  0  0  0  0  0  # atno 17394 bound_to 11000
  141.1643  133.6537  156.4425 LP  0  0  0  0  0  0  0  0  0  0  0  0  # atno 17395 bound_to 11000

$$$$
