AV-unprocessed.smi:3283|AV-procd|sdf|12568|dock5
  -GOLD-   2272018483D 1   1.00000     0.00000
 Structure written by MMmdl.
 44 45  0  0  0  0  0  0  0  0  2 V2000
  148.3395  141.3966  154.9550 C   0  0  0  0  0  0  0  0  0  0  0  0
  149.5230  140.4971  155.2693 C   0  0  0  0  0  0  0  0  0  0  0  0
  149.9652  139.5884  154.3780 C   0  0  0  0  0  0  0  0  0  0  0  0
  151.1104  138.6237  154.6244 C   0  0  0  0  0  0  0  0  0  0  0  0
  151.8807  138.9292  155.9182 C   0  0  0  0  0  0  0  0  0  0  0  0
  150.9328  139.3686  157.0484 C   0  0  1  0  0  0  0  0  0  0  0  0
  151.6551  139.4253  158.4052 C   0  0  0  0  0  0  0  0  0  0  0  0
  150.1438  140.6568  156.6601 C   0  0  1  0  0  0  0  0  0  0  0  0
  150.9710  141.9669  156.7283 C   0  0  0  0  0  0  0  0  0  0  0  0
  150.3381  142.9845  157.5913 N   0  3  0  0  0  0  0  0  0  0  0  0
  151.1355  144.2136  157.7665 C   0  0  0  0  0  0  0  0  0  0  0  0
  152.5572  143.8811  158.2424 C   0  0  0  0  0  0  0  0  0  0  0  0
  152.6570  143.5333  159.6965 C   0  0  0  0  0  0  0  0  0  0  0  0
  152.2350  144.1981  160.8157 C   0  0  0  0  0  0  0  0  0  0  0  0
  152.6269  143.3540  161.8910 C   0  0  0  0  0  0  0  0  0  0  0  0
  153.2391  142.2585  161.4779 N   0  0  0  0  0  0  0  0  0  0  0  0
  153.2578  142.3662  160.1327 N   0  0  0  0  0  0  0  0  0  0  0  0
  153.8706  141.3132  159.3459 C   0  0  0  0  0  0  0  0  0  0  0  0
  147.5538  141.2611  155.6985 H   0  0  0  0  0  0  0  0  0  0  0  0
  147.9154  141.1654  153.9773 H   0  0  0  0  0  0  0  0  0  0  0  0
  148.6285  142.4465  154.9489 H   0  0  0  0  0  0  0  0  0  0  0  0
  149.4748  139.4968  153.4197 H   0  0  0  0  0  0  0  0  0  0  0  0
  150.6886  137.6194  154.6744 H   0  0  0  0  0  0  0  0  0  0  0  0
  151.7890  138.6384  153.7713 H   0  0  0  0  0  0  0  0  0  0  0  0
  152.4456  138.0446  156.2150 H   0  0  0  0  0  0  0  0  0  0  0  0
  152.6200  139.7077  155.7292 H   0  0  0  0  0  0  0  0  0  0  0  0
  150.1891  138.5761  157.1516 H   0  0  0  0  0  0  0  0  0  0  0  0
  152.5137  140.0967  158.3794 H   0  0  0  0  0  0  0  0  0  0  0  0
  152.0284  138.4397  158.6851 H   0  0  0  0  0  0  0  0  0  0  0  0
  150.9835  139.7547  159.1984 H   0  0  0  0  0  0  0  0  0  0  0  0
  149.3089  140.7480  157.3568 H   0  0  0  0  0  0  0  0  0  0  0  0
  151.9838  141.7640  157.0763 H   0  0  0  0  0  0  0  0  0  0  0  0
  151.0725  142.4126  155.7395 H   0  0  0  0  0  0  0  0  0  0  0  0
  149.4429  143.2313  157.1939 H   0  0  0  0  0  0  0  0  0  0  0  0
  151.1765  144.7503  156.8177 H   0  0  0  0  0  0  0  0  0  0  0  0
  150.6386  144.8631  158.4882 H   0  0  0  0  0  0  0  0  0  0  0  0
  152.9467  143.0505  157.6526 H   0  0  0  0  0  0  0  0  0  0  0  0
  153.2097  144.7309  158.0377 H   0  0  0  0  0  0  0  0  0  0  0  0
  151.7227  145.1474  160.8644 H   0  0  0  0  0  0  0  0  0  0  0  0
  152.4863  143.5037  162.9514 H   0  0  0  0  0  0  0  0  0  0  0  0
  154.7462  141.7058  158.8284 H   0  0  0  0  0  0  0  0  0  0  0  0
  153.1575  140.9404  158.6104 H   0  0  0  0  0  0  0  0  0  0  0  0
  154.1803  140.4848  159.9845 H   0  0  0  0  0  0  0  0  0  0  0  0
  150.1851  142.5735  158.5013 H   0  0  0  0  0  0  0  0  0  0  0  0
  1  2  1  0  0  0  0
  1 19  1  0  0  0  0
  1 20  1  0  0  0  0
  1 21  1  0  0  0  0
  2  8  1  0  0  0  0
  2  3  2  0  0  0  0
  3  4  1  0  0  0  0
  3 22  1  0  0  0  0
  4  5  1  0  0  0  0
  4 23  1  0  0  0  0
  4 24  1  0  0  0  0
  5  6  1  0  0  0  0
  5 25  1  0  0  0  0
  5 26  1  0  0  0  0
  6  7  1  0  0  0  0
  6  8  1  0  0  0  0
  6 27  1  0  0  0  0
  7 28  1  0  0  0  0
  7 29  1  0  0  0  0
  7 30  1  0  0  0  0
  8  9  1  0  0  0  0
  8 31  1  0  0  0  0
  9 10  1  0  0  0  0
  9 32  1  0  0  0  0
  9 33  1  0  0  0  0
 10 11  1  0  0  0  0
 10 34  1  0  0  0  0
 10 44  1  0  0  0  0
 11 12  1  0  0  0  0
 11 35  1  0  0  0  0
 11 36  1  0  0  0  0
 12 13  1  0  0  0  0
 12 37  1  0  0  0  0
 12 38  1  0  0  0  0
 13 17  1  0  0  0  0
 13 14  2  0  0  0  0
 14 15  1  0  0  0  0
 14 39  1  0  0  0  0
 15 16  2  0  0  0  0
 15 40  1  0  0  0  0
 16 17  1  0  0  0  0
 17 18  1  0  0  0  0
 18 41  1  0  0  0  0
 18 42  1  0  0  0  0
 18 43  1  0  0  0  0
M  CHG  1  10   1
M  END
> <s_m_source_file>
AV-unprocessed.smi

> <i_m_source_file_index>
3283

> <i_lp_mmshare_version>
43012

> <i_f3d_flags>
0

> <s_epik_input>
W0NIM11DMT1bQ0hdW0NIMl1bQ0gyXVtDQEBIXShbQ0gzXSlbQ0BIXTFbQ0gyXVtOSF1bQ0gyXVtDSDJdYzJbY0hdW2NIXW5uMltDSDNd

> <s_epik_cmdline>
J2VwaWtfcHl0aG9uJywgJy1waCcsICc3LjAnLCAnLXRuJywgJzgnLCAnLW1hJywgJzIwMCcsICctbWV0YWxfYmluZGluZycsICctaW1hZScsICc8aW5maWxlLm1hZT4nLCAnLW9tYWUnLCAnPG91dGZpbGUubWFlPic=

> <r_lp_tautomer_probability>
1

> <r_epik_Ionization_Penalty>
0.000866911

> <r_epik_Ionization_Penalty_Charging>
0.000836385

> <r_epik_Ionization_Penalty_Neutral>
3.05258e-05

> <r_epik_State_Penalty>
-0

> <r_epik_Charging_Adjusted_Penalty>
0.000836385

> <i_epik_Tot_Q>
1

> <i_epik_Tot_abs_Q>
1

> <r_epik_Metal_State_Penalty>
-0

> <b_epik_Metal_Only>
0

> <s_lp_Force_Field>
OPLS_2005

> <r_lp_Energy>
14.2558

> <b_lp_Chiralities_Consistent>
1

> <s_lp_Variant>
AV-unprocessed.smi:3283-1

> <Gold.Version>
5.8.1

> <Gold.Id.Protein>
6NUR|6NUR_protein|mol2

> <Gold.PLP.Fitness>
50.9943

> <Gold.PLP.PLP>
-46.5555

> <Gold.PLP.part.hbond>
-1.0000

> <Gold.PLP.part.metal>
0.0000

> <Gold.PLP.part.buried>
-3.1859

> <Gold.PLP.part.nonpolar>
-42.0498

> <Gold.PLP.part.repulsive>
0.0618

> <Gold.PLP.ligand.clash>
0.0000

> <Gold.PLP.ligand.torsion>
0.8530

> <Gold.PLP.Chemscore.Hbond>
2.0000

> <Gold.PLP.Chemscore.CHOScore>
0.0000

> <Gold.PLP.Chemscore.Metal>
0.0000

> <Gold.Chemscore.Hbonds>
donor molecule, donor type, donor heavy atom, donor atom, acceptor molecule, acceptor atom, score
      L1  H    10    34       P1  8028  0.71

> <Gold.PLP.Chemscore.Internal.Correction>
0.1448

> <Gold.Rescore>
     Score         DG    S(hbond)    S(metal)    S(lipo)     H(rot)  DE(clash)    DE(int)     intcor
     19.15     -20.09       0.99        0.00     129.21       1.48       0.08       0.86       ----

> <Gold.Chemscore.Fitness>
19.1485

> <Gold.Chemscore.DG>
-20.0922

> <Gold.Chemscore.ZeroCoef>
-5.4800

> <Gold.Chemscore.Hbond>
0.9865

> <Gold.Chemscore.Metal>
0.0000

> <Gold.Chemscore.Lipo>
129.2137

> <Gold.Chemscore.Internal_Hbond>
0.0000

> <Gold.Chemscore.DEClash>
0.0814

> <Gold.Chemscore.DEInternal>
0.8623

> <Gold.Chemscore.Rot>
1.4847

> <Gold.Chemscore.Internal.Correction>
   9.000000E+99

> <Gold.Chemscore.Hbonds>
donor molecule, donor type, donor heavy atom, donor atom, acceptor molecule, acceptor atom, score
      L1  H    10    34       P1  8028  0.34

> <Gold.Chemscore.Hbond.Weighted>
-3.2950

> <Gold.Chemscore.Metal.Weighted>
-0.0000

> <Gold.Chemscore.Lipo.Weighted>
-15.1180

> <Gold.Chemscore.Internal_Hbond.Weighted>
0.0000

> <Gold.Chemscore.DEClash.Weighted>
0.0814

> <Gold.Chemscore.DEInternal.Weighted>
0.8623

> <Gold.Chemscore.Rot.Weighted>
3.8008

> <Gold.Chemscore.Internal.Correction.Weighted>
   9.000000E+99

> <Gold.Protein.RotatedTorsions>
[ 6907 6896 6895 6894 ] final  104.35 input  -60.11 | X-H torsion
[ 7974 7965 7964 7962 ] final  -15.06 input  175.53 | X-H torsion
[ 8008 7997 7996 7995 ] final  161.96 input   59.86 | X-H torsion
[ 10167 10162 10161 10158 ] final -136.28 input  -65.29 | X-H torsion
[ 10718 10713 10712 10709 ] final  122.99 input   66.30 | X-H torsion
[ 10763 10752 10751 10750 ] final  152.12 input  -60.55 | X-H torsion
[ 11005 11000 10999 10996 ] final -105.84 input  -57.11 | X-H torsion

> <Gold.Protein.ActiveResidues>
 VAL166  LYS551  ARG553  GLY616  TRP617  ASP618  TYR619  PRO620  LYS621  CYS622 
 ASP623  PHE694  ASN695  SER759  ASP760  ASP761  ALA762  ILE779  LEU786  VAL792 
 PHE793  MET794  SER795  GLU796  ALA797  LYS798  CYS799  TRP800  GLU811  SER814 

> <Gold.Protein.RotatedAtoms>
  152.5267  133.9690  159.7752 H   0  0  0  0  0  0  0  0  0  0  0  0  # atno 6907 bound_to 6896
  150.9965  133.6089  159.2708 H   0  0  0  0  0  0  0  0  0  0  0  0  # atno 6908 bound_to 6896
  151.3214  135.0825  159.9360 H   0  0  0  0  0  0  0  0  0  0  0  0  # atno 6909 bound_to 6896
  146.2048  140.3438  142.8411 H   0  0  0  0  0  0  0  0  0  0  0  0  # atno 7974 bound_to 7965
  156.2065  140.1763  156.7787 H   0  0  0  0  0  0  0  0  0  0  0  0  # atno 8008 bound_to 7997
  154.5663  140.0690  156.8926 H   0  0  0  0  0  0  0  0  0  0  0  0  # atno 8009 bound_to 7997
  155.2755  140.3345  155.4264 H   0  0  0  0  0  0  0  0  0  0  0  0  # atno 8010 bound_to 7997
  139.8694  143.6977  152.2641 H   0  0  0  0  0  0  0  0  0  0  0  0  # atno 10167 bound_to 10162
  157.5700  131.1084  150.8385 H   0  0  0  0  0  0  0  0  0  0  0  0  # atno 10718 bound_to 10713
  154.1149  135.2836  155.3222 H   0  0  0  0  0  0  0  0  0  0  0  0  # atno 10763 bound_to 10752
  154.6464  135.5384  153.7852 H   0  0  0  0  0  0  0  0  0  0  0  0  # atno 10764 bound_to 10752
  153.0332  135.6499  154.1306 H   0  0  0  0  0  0  0  0  0  0  0  0  # atno 10765 bound_to 10752
  141.1034  133.8842  157.1783 H   0  0  0  0  0  0  0  0  0  0  0  0  # atno 11005 bound_to 11000
  144.8767  140.7345  143.6013 LP  0  0  0  0  0  0  0  0  0  0  0  0  # atno 17320 bound_to 7965
  145.3358  139.1746  143.4512 LP  0  0  0  0  0  0  0  0  0  0  0  0  # atno 17321 bound_to 7965
  139.7298  144.7585  151.0820 LP  0  0  0  0  0  0  0  0  0  0  0  0  # atno 17342 bound_to 10162
  140.7763  143.5102  150.9662 LP  0  0  0  0  0  0  0  0  0  0  0  0  # atno 17343 bound_to 10162
  156.8859  130.5196  149.5288 LP  0  0  0  0  0  0  0  0  0  0  0  0  # atno 17370 bound_to 10713
  156.0746  130.5771  150.9448 LP  0  0  0  0  0  0  0  0  0  0  0  0  # atno 17371 bound_to 10713
  139.9894  135.0070  156.9939 LP  0  0  0  0  0  0  0  0  0  0  0  0  # atno 17394 bound_to 11000
  140.4964  134.1141  155.7242 LP  0  0  0  0  0  0  0  0  0  0  0  0  # atno 17395 bound_to 11000

$$$$
