AV-unprocessed.smi:1068|AV-procd|sdf|4674|dock6
  -GOLD-   22720 3183D 1   1.00000     0.00000
 Structure written by MMmdl.
 51 52  0  0  0  0  0  0  0  0  1 V2000
  152.8746  143.1684  160.1030 C   0  0  0  0  0  0  0  0  0  0  0  0
  151.9670  143.8469  159.0498 C   0  0  0  0  0  0  0  0  0  0  0  0
  151.0136  144.7736  159.8403 C   0  0  0  0  0  0  0  0  0  0  0  0
  152.8295  144.6892  158.0921 C   0  0  0  0  0  0  0  0  0  0  0  0
  151.1782  142.8019  158.2419 C   0  0  0  0  0  0  0  0  0  0  0  0
  151.2952  142.8458  156.9082 N   0  0  0  0  0  0  0  0  0  0  0  0
  150.5120  142.0205  156.1832 C   0  0  0  0  0  0  0  0  0  0  0  0
  149.5760  141.1571  156.7863 C   0  0  0  0  0  0  0  0  0  0  0  0
  148.7733  140.3292  155.9563 N   0  0  0  0  0  0  0  0  0  0  0  0
  148.7413  140.2656  154.6147 C   0  0  0  0  0  0  0  0  0  0  0  0
  149.3949  140.9742  153.8504 O   0  0  0  0  0  0  0  0  0  0  0  0
  147.8894  139.3182  154.1959 N   0  0  0  0  0  0  0  0  0  0  0  0
  147.6261  138.9762  152.7975 C   0  0  0  0  0  0  0  0  0  0  0  0
  146.3333  138.1791  152.5576 C   0  0  0  0  0  0  0  0  0  0  0  0
  145.2710  138.6218  152.9927 O   0  0  0  0  0  0  0  0  0  0  0  0
  146.4161  137.0208  151.8807 N   0  0  0  0  0  0  0  0  0  0  0  0
  145.2967  136.1460  151.5481 C   0  0  0  0  0  0  0  0  0  0  0  0
  144.4422  135.8564  152.7994 C   0  0  0  0  0  0  0  0  0  0  0  0
  143.3067  134.8678  152.4885 C   0  0  0  0  0  0  0  0  0  0  0  0
  143.8508  133.5661  151.8797 C   0  0  0  0  0  0  0  0  0  0  0  0
  144.6973  133.8503  150.6289 C   0  0  0  0  0  0  0  0  0  0  0  0
  145.8343  134.8377  150.9375 C   0  0  0  0  0  0  0  0  0  0  0  0
  149.4972  141.2269  158.1980 C   0  0  0  0  0  0  0  0  0  0  0  0
  150.2873  142.0581  158.9106 N   0  0  0  0  0  0  0  0  0  0  0  0
  153.3969  143.9069  160.7123 H   0  0  0  0  0  0  0  0  0  0  0  0
  153.6406  142.5443  159.6413 H   0  0  0  0  0  0  0  0  0  0  0  0
  152.2964  142.5368  160.7786 H   0  0  0  0  0  0  0  0  0  0  0  0
  150.3688  144.2025  160.5094 H   0  0  0  0  0  0  0  0  0  0  0  0
  150.3713  145.3584  159.1811 H   0  0  0  0  0  0  0  0  0  0  0  0
  151.5687  145.4868  160.4508 H   0  0  0  0  0  0  0  0  0  0  0  0
  153.4040  145.4428  158.6319 H   0  0  0  0  0  0  0  0  0  0  0  0
  152.2134  145.2088  157.3574 H   0  0  0  0  0  0  0  0  0  0  0  0
  153.5372  144.0656  157.5446 H   0  0  0  0  0  0  0  0  0  0  0  0
  150.6309  142.0564  155.1099 H   0  0  0  0  0  0  0  0  0  0  0  0
  148.1280  139.7256  156.4449 H   0  0  0  0  0  0  0  0  0  0  0  0
  147.3903  138.7860  154.8935 H   0  0  0  0  0  0  0  0  0  0  0  0
  147.5637  139.9054  152.2309 H   0  0  0  0  0  0  0  0  0  0  0  0
  148.4685  138.4201  152.3827 H   0  0  0  0  0  0  0  0  0  0  0  0
  147.3277  136.7322  151.5568 H   0  0  0  0  0  0  0  0  0  0  0  0
  144.6722  136.6369  150.7989 H   0  0  0  0  0  0  0  0  0  0  0  0
  145.0723  135.4457  153.5896 H   0  0  0  0  0  0  0  0  0  0  0  0
  144.0209  136.7827  153.1913 H   0  0  0  0  0  0  0  0  0  0  0  0
  142.7462  134.6475  153.3973 H   0  0  0  0  0  0  0  0  0  0  0  0
  142.6023  135.3286  151.7947 H   0  0  0  0  0  0  0  0  0  0  0  0
  144.4563  133.0414  152.6198 H   0  0  0  0  0  0  0  0  0  0  0  0
  143.0254  132.9000  151.6267 H   0  0  0  0  0  0  0  0  0  0  0  0
  145.1098  132.9189  150.2399 H   0  0  0  0  0  0  0  0  0  0  0  0
  144.0622  134.2595  149.8423 H   0  0  0  0  0  0  0  0  0  0  0  0
  146.3911  135.0526  150.0245 H   0  0  0  0  0  0  0  0  0  0  0  0
  146.5397  134.3703  151.6261 H   0  0  0  0  0  0  0  0  0  0  0  0
  148.7954  140.6483  158.7774 H   0  0  0  0  0  0  0  0  0  0  0  0
  1  2  1  0  0  0  0
  1 25  1  0  0  0  0
  1 26  1  0  0  0  0
  1 27  1  0  0  0  0
  2  3  1  0  0  0  0
  2  4  1  0  0  0  0
  2  5  1  0  0  0  0
  3 28  1  0  0  0  0
  3 29  1  0  0  0  0
  3 30  1  0  0  0  0
  4 31  1  0  0  0  0
  4 32  1  0  0  0  0
  4 33  1  0  0  0  0
  5 24  1  0  0  0  0
  5  6  2  0  0  0  0
  6  7  1  0  0  0  0
  7  8  2  0  0  0  0
  7 34  1  0  0  0  0
  8  9  1  0  0  0  0
  8 23  1  0  0  0  0
  9 10  1  0  0  0  0
  9 35  1  0  0  0  0
 10 11  2  0  0  0  0
 10 12  1  0  0  0  0
 12 13  1  0  0  0  0
 12 36  1  0  0  0  0
 13 14  1  0  0  0  0
 13 37  1  0  0  0  0
 13 38  1  0  0  0  0
 14 15  2  0  0  0  0
 14 16  1  0  0  0  0
 16 17  1  0  0  0  0
 16 39  1  0  0  0  0
 17 22  1  0  0  0  0
 17 18  1  0  0  0  0
 17 40  1  0  0  0  0
 18 19  1  0  0  0  0
 18 41  1  0  0  0  0
 18 42  1  0  0  0  0
 19 20  1  0  0  0  0
 19 43  1  0  0  0  0
 19 44  1  0  0  0  0
 20 21  1  0  0  0  0
 20 45  1  0  0  0  0
 20 46  1  0  0  0  0
 21 22  1  0  0  0  0
 21 47  1  0  0  0  0
 21 48  1  0  0  0  0
 22 49  1  0  0  0  0
 22 50  1  0  0  0  0
 23 24  2  0  0  0  0
 23 51  1  0  0  0  0
M  END
> <s_m_source_file>
AV-unprocessed.smi

> <i_m_source_file_index>
1068

> <i_lp_mmshare_version>
43012

> <i_f3d_flags>
0

> <s_epik_input>
W0NIM11DKFtDSDNdKShbQ0gzXSljMW5bY0hdYyhbY0hdbjEpW05IXUMoPU8pW05IXVtDSDJdQyg9TylbTkhdW0NIXTJbQ0gyXVtDSDJdW0NIMl1bQ0gyXVtDSDJdMg==

> <s_epik_cmdline>
J2VwaWtfcHl0aG9uJywgJy1waCcsICc3LjAnLCAnLXRuJywgJzgnLCAnLW1hJywgJzIwMCcsICctbWV0YWxfYmluZGluZycsICctaW1hZScsICc8aW5maWxlLm1hZT4nLCAnLW9tYWUnLCAnPG91dGZpbGUubWFlPic=

> <r_lp_tautomer_probability>
1

> <r_epik_Ionization_Penalty>
2.47974e-05

> <r_epik_Ionization_Penalty_Charging>
0

> <r_epik_Ionization_Penalty_Neutral>
2.47974e-05

> <r_epik_State_Penalty>
-0

> <r_epik_Charging_Adjusted_Penalty>
0

> <i_epik_Tot_Q>
0

> <i_epik_Tot_abs_Q>
0

> <r_epik_Metal_State_Penalty>
-0

> <b_epik_Metal_Only>
0

> <s_lp_Force_Field>
OPLS_2005

> <r_lp_Energy>
3.00881

> <b_lp_Chiralities_Consistent>
1

> <s_lp_Variant>
AV-unprocessed.smi:1068-1

> <Gold.Version>
5.8.1

> <Gold.Id.Protein>
6NUR|6NUR_protein|mol2

> <Gold.PLP.Fitness>
44.4918

> <Gold.PLP.PLP>
-38.9331

> <Gold.PLP.part.hbond>
-3.7414

> <Gold.PLP.part.metal>
0.0000

> <Gold.PLP.part.buried>
-2.1685

> <Gold.PLP.part.nonpolar>
-39.3748

> <Gold.PLP.part.repulsive>
6.6123

> <Gold.PLP.ligand.clash>
0.0000

> <Gold.PLP.ligand.torsion>
0.3057

> <Gold.PLP.Chemscore.Hbond>
2.0039

> <Gold.PLP.Chemscore.CHOScore>
0.0000

> <Gold.PLP.Chemscore.Metal>
0.0000

> <Gold.Chemscore.Hbonds>
donor molecule, donor type, donor heavy atom, donor atom, acceptor molecule, acceptor atom, score
      L1  H    16    39       P1  7948  1.00
      P1  H  7989  7998       L1    11  0.19
      P1  H  8011  8017       L1    11  0.72

> <Gold.PLP.Chemscore.Internal.Correction>
0.1584

> <Gold.Rescore>
     Score         DG    S(hbond)    S(metal)    S(lipo)     H(rot)  DE(clash)    DE(int)     intcor
     13.20     -20.65       2.08        0.00     106.16       1.64       4.51       2.94       ----

> <Gold.Chemscore.Fitness>
13.1994

> <Gold.Chemscore.DG>
-20.6515

> <Gold.Chemscore.ZeroCoef>
-5.4800

> <Gold.Chemscore.Hbond>
2.0829

> <Gold.Chemscore.Metal>
0.0000

> <Gold.Chemscore.Lipo>
106.1620

> <Gold.Chemscore.Internal_Hbond>
0.0000

> <Gold.Chemscore.DEClash>
4.5138

> <Gold.Chemscore.DEInternal>
2.9383

> <Gold.Chemscore.Rot>
1.6431

> <Gold.Chemscore.Internal.Correction>
   9.000000E+99

> <Gold.Chemscore.Hbonds>
donor molecule, donor type, donor heavy atom, donor atom, acceptor molecule, acceptor atom, score
      L1  H    16    39       P1  7948  0.97
      P1  H  7989  7998       L1    11  0.18
      P1  H  8011  8017       L1    11  0.69

> <Gold.Chemscore.Hbond.Weighted>
-6.9569

> <Gold.Chemscore.Metal.Weighted>
-0.0000

> <Gold.Chemscore.Lipo.Weighted>
-12.4210

> <Gold.Chemscore.Internal_Hbond.Weighted>
0.0000

> <Gold.Chemscore.DEClash.Weighted>
4.5138

> <Gold.Chemscore.DEInternal.Weighted>
2.9383

> <Gold.Chemscore.Rot.Weighted>
4.2063

> <Gold.Chemscore.Internal.Correction.Weighted>
   9.000000E+99

> <Gold.Protein.RotatedTorsions>
[ 6907 6896 6895 6894 ] final   13.01 input  -60.11 | X-H torsion
[ 7974 7965 7964 7962 ] final  -80.57 input  175.53 | X-H torsion
[ 8008 7997 7996 7995 ] final  -38.13 input   59.86 | X-H torsion
[ 10167 10162 10161 10158 ] final -138.43 input  -65.29 | X-H torsion
[ 10718 10713 10712 10709 ] final  168.79 input   66.30 | X-H torsion
[ 10763 10752 10751 10750 ] final  146.34 input  -60.55 | X-H torsion
[ 11005 11000 10999 10996 ] final  153.13 input  -57.11 | X-H torsion

> <Gold.Protein.ActiveResidues>
 VAL166  LYS551  ARG553  GLY616  TRP617  ASP618  TYR619  PRO620  LYS621  CYS622 
 ASP623  PHE694  ASN695  SER759  ASP760  ASP761  ALA762  ILE779  LEU786  VAL792 
 PHE793  MET794  SER795  GLU796  ALA797  LYS798  CYS799  TRP800  GLU811  SER814 

> <Gold.Protein.RotatedAtoms>
  151.7795  135.0765  160.0371 H   0  0  0  0  0  0  0  0  0  0  0  0  # atno 6907 bound_to 6896
  152.3233  133.5873  159.5767 H   0  0  0  0  0  0  0  0  0  0  0  0  # atno 6908 bound_to 6896
  150.7381  133.9895  159.3644 H   0  0  0  0  0  0  0  0  0  0  0  0  # atno 6909 bound_to 6896
  145.5582  140.9486  143.1462 H   0  0  0  0  0  0  0  0  0  0  0  0  # atno 7974 bound_to 7965
  154.4042  140.1586  156.2649 H   0  0  0  0  0  0  0  0  0  0  0  0  # atno 8008 bound_to 7997
  155.9004  140.3433  155.6000 H   0  0  0  0  0  0  0  0  0  0  0  0  # atno 8009 bound_to 7997
  155.7455  140.0798  157.2216 H   0  0  0  0  0  0  0  0  0  0  0  0  # atno 8010 bound_to 7997
  139.8479  143.7237  152.2659 H   0  0  0  0  0  0  0  0  0  0  0  0  # atno 10167 bound_to 10162
  157.0319  131.0262  151.2741 H   0  0  0  0  0  0  0  0  0  0  0  0  # atno 10718 bound_to 10713
  154.0203  135.2906  155.3381 H   0  0  0  0  0  0  0  0  0  0  0  0  # atno 10763 bound_to 10752
  154.7050  135.5173  153.8585 H   0  0  0  0  0  0  0  0  0  0  0  0  # atno 10764 bound_to 10752
  153.0684  135.6639  154.0426 H   0  0  0  0  0  0  0  0  0  0  0  0  # atno 10765 bound_to 10752
  140.1370  134.8764  157.2280 H   0  0  0  0  0  0  0  0  0  0  0  0  # atno 11005 bound_to 11000
  144.7496  139.7229  143.7278 LP  0  0  0  0  0  0  0  0  0  0  0  0  # atno 17320 bound_to 7965
  146.1870  139.5090  142.9830 LP  0  0  0  0  0  0  0  0  0  0  0  0  # atno 17321 bound_to 7965
  139.7494  144.7538  151.0529 LP  0  0  0  0  0  0  0  0  0  0  0  0  # atno 17342 bound_to 10162
  140.7791  143.4878  150.9933 LP  0  0  0  0  0  0  0  0  0  0  0  0  # atno 17343 bound_to 10162
  157.5171  130.7974  149.7768 LP  0  0  0  0  0  0  0  0  0  0  0  0  # atno 17370 bound_to 10713
  156.0066  130.3852  150.2408 LP  0  0  0  0  0  0  0  0  0  0  0  0  # atno 17371 bound_to 10713
  140.2770  134.3394  155.7355 LP  0  0  0  0  0  0  0  0  0  0  0  0  # atno 17394 bound_to 11000
  141.2180  133.7456  156.9307 LP  0  0  0  0  0  0  0  0  0  0  0  0  # atno 17395 bound_to 11000

$$$$
