AV-unprocessed.smi:1558|AV-procd|sdf|6273|dock4
  -GOLD-   22720 6463D 1   1.00000     0.00000
 Structure written by MMmdl.
 36 37  0  0  0  0  0  0  0  0  1 V2000
  146.4051  140.6370  151.8607 N   0  0  0  0  0  0  0  0  0  0  0  0
  146.3655  139.3196  152.0783 C   0  0  0  0  0  0  0  0  0  0  0  0
  146.2414  138.5062  151.1655 O   0  0  0  0  0  0  0  0  0  0  0  0
  146.4820  138.8472  153.5287 C   0  0  0  0  0  0  0  0  0  0  0  0
  147.5923  139.4952  154.2041 N   0  0  0  0  0  0  0  0  0  0  0  0
  147.7197  140.8260  154.5521 C   0  0  0  0  0  0  0  0  0  0  0  0
  148.9360  140.9345  155.1647 C   0  0  0  0  0  0  0  0  0  0  0  0
  149.5654  142.0785  155.7174 N   0  0  0  0  0  0  0  0  0  0  0  0
  150.6691  142.1116  156.4817 C   0  0  0  0  0  0  0  0  0  0  0  0
  151.3192  141.1250  156.8283 O   0  0  0  0  0  0  0  0  0  0  0  0
  150.9853  143.3682  156.8249 N   0  0  0  0  0  0  0  0  0  0  0  0
  152.1443  143.7535  157.6223 C   0  0  0  0  0  0  0  0  0  0  0  0
  152.1194  143.0866  159.0071 C   0  0  1  0  0  0  0  0  0  0  0  0
  153.4995  142.6763  159.5149 C   0  0  0  0  0  0  0  0  0  0  0  0
  153.2593  142.5897  161.0050 C   0  0  0  0  0  0  0  0  0  0  0  0
  152.2978  143.7522  161.2435 C   0  0  0  0  0  0  0  0  0  0  0  0
  151.6343  143.9830  160.0028 O   0  0  0  0  0  0  0  0  0  0  0  0
  149.4946  139.6300  155.1491 C   0  0  0  0  0  0  0  0  0  0  0  0
  148.6771  138.7656  154.5674 N   0  0  0  0  0  0  0  0  0  0  0  0
  146.3289  140.9906  150.9180 H   0  0  0  0  0  0  0  0  0  0  0  0
  146.5082  141.2750  152.6364 H   0  0  0  0  0  0  0  0  0  0  0  0
  145.5545  139.0612  154.0624 H   0  0  0  0  0  0  0  0  0  0  0  0
  146.6304  137.7672  153.5669 H   0  0  0  0  0  0  0  0  0  0  0  0
  146.9487  141.5507  154.3365 H   0  0  0  0  0  0  0  0  0  0  0  0
  149.1349  142.9654  155.5007 H   0  0  0  0  0  0  0  0  0  0  0  0
  150.3920  144.1154  156.4955 H   0  0  0  0  0  0  0  0  0  0  0  0
  153.0359  143.4361  157.0812 H   0  0  0  0  0  0  0  0  0  0  0  0
  152.2122  144.8386  157.7167 H   0  0  0  0  0  0  0  0  0  0  0  0
  151.4696  142.2100  158.9935 H   0  0  0  0  0  0  0  0  0  0  0  0
  153.8513  141.7392  159.0827 H   0  0  0  0  0  0  0  0  0  0  0  0
  154.2361  143.4519  159.2996 H   0  0  0  0  0  0  0  0  0  0  0  0
  152.7728  141.6444  161.2485 H   0  0  0  0  0  0  0  0  0  0  0  0
  154.1738  142.6647  161.5937 H   0  0  0  0  0  0  0  0  0  0  0  0
  151.5842  143.5356  162.0386 H   0  0  0  0  0  0  0  0  0  0  0  0
  152.8446  144.6554  161.5160 H   0  0  0  0  0  0  0  0  0  0  0  0
  150.4444  139.2878  155.5326 H   0  0  0  0  0  0  0  0  0  0  0  0
  1  2  1  0  0  0  0
  1 20  1  0  0  0  0
  1 21  1  0  0  0  0
  2  3  2  0  0  0  0
  2  4  1  0  0  0  0
  4  5  1  0  0  0  0
  4 22  1  0  0  0  0
  4 23  1  0  0  0  0
  5 19  1  0  0  0  0
  5  6  1  0  0  0  0
  6  7  2  0  0  0  0
  6 24  1  0  0  0  0
  7  8  1  0  0  0  0
  7 18  1  0  0  0  0
  8  9  1  0  0  0  0
  8 25  1  0  0  0  0
  9 10  2  0  0  0  0
  9 11  1  0  0  0  0
 11 12  1  0  0  0  0
 11 26  1  0  0  0  0
 12 13  1  0  0  0  0
 12 27  1  0  0  0  0
 12 28  1  0  0  0  0
 13 17  1  0  0  0  0
 13 14  1  0  0  0  0
 13 29  1  0  0  0  0
 14 15  1  0  0  0  0
 14 30  1  0  0  0  0
 14 31  1  0  0  0  0
 15 16  1  0  0  0  0
 15 32  1  0  0  0  0
 15 33  1  0  0  0  0
 16 17  1  0  0  0  0
 16 34  1  0  0  0  0
 16 35  1  0  0  0  0
 18 19  2  0  0  0  0
 18 36  1  0  0  0  0
M  END
> <s_m_source_file>
AV-unprocessed.smi

> <i_m_source_file_index>
1558

> <i_lp_mmshare_version>
43012

> <i_f3d_flags>
0

> <s_epik_input>
W05IMl1DKD1PKVtDSDJdbjFbY0hdYyhbY0hdbjEpW05IXUMoPU8pW05IXVtDSDJdW0NAQEhdMltDSDJdW0NIMl1bQ0gyXU8y

> <s_epik_cmdline>
J2VwaWtfcHl0aG9uJywgJy1waCcsICc3LjAnLCAnLXRuJywgJzgnLCAnLW1hJywgJzIwMCcsICctbWV0YWxfYmluZGluZycsICctaW1hZScsICc8aW5maWxlLm1hZT4nLCAnLW9tYWUnLCAnPG91dGZpbGUubWFlPic=

> <r_lp_tautomer_probability>
1

> <r_epik_Ionization_Penalty>
4.01684e-05

> <r_epik_Ionization_Penalty_Charging>
0

> <r_epik_Ionization_Penalty_Neutral>
4.01684e-05

> <r_epik_State_Penalty>
-0

> <r_epik_Charging_Adjusted_Penalty>
0

> <i_epik_Tot_Q>
0

> <i_epik_Tot_abs_Q>
0

> <r_epik_Metal_State_Penalty>
-0

> <b_epik_Metal_Only>
0

> <s_lp_Force_Field>
OPLS_2005

> <r_lp_Energy>
20.8688

> <b_lp_Chiralities_Consistent>
1

> <s_lp_Variant>
AV-unprocessed.smi:1558-2

> <Gold.Version>
5.8.1

> <Gold.Id.Protein>
6NUR|6NUR_protein|mol2

> <Gold.PLP.Fitness>
46.3763

> <Gold.PLP.PLP>
-38.8421

> <Gold.PLP.part.hbond>
-4.4353

> <Gold.PLP.part.metal>
0.0000

> <Gold.PLP.part.buried>
-3.7660

> <Gold.PLP.part.nonpolar>
-31.6320

> <Gold.PLP.part.repulsive>
0.9436

> <Gold.PLP.ligand.clash>
0.0000

> <Gold.PLP.ligand.torsion>
0.7468

> <Gold.PLP.Chemscore.Hbond>
3.0000

> <Gold.PLP.Chemscore.CHOScore>
0.0000

> <Gold.PLP.Chemscore.Metal>
0.0000

> <Gold.Chemscore.Hbonds>
donor molecule, donor type, donor heavy atom, donor atom, acceptor molecule, acceptor atom, score
      L1  H     8    25       P1  8028  1.00
      L1  H    11    26       P1  8028  1.00
      P1  H  7954  7966       L1     3  0.10

> <Gold.PLP.Chemscore.Internal.Correction>
0.0278

> <Gold.Rescore>
     Score         DG    S(hbond)    S(metal)    S(lipo)     H(rot)  DE(clash)    DE(int)     intcor
     15.12     -18.73       2.94        0.00      80.40       2.33       0.39       3.21       ----

> <Gold.Chemscore.Fitness>
15.1238

> <Gold.Chemscore.DG>
-18.7306

> <Gold.Chemscore.ZeroCoef>
-5.4800

> <Gold.Chemscore.Hbond>
2.9370

> <Gold.Chemscore.Metal>
0.0000

> <Gold.Chemscore.Lipo>
80.3981

> <Gold.Chemscore.Internal_Hbond>
0.0000

> <Gold.Chemscore.DEClash>
0.3928

> <Gold.Chemscore.DEInternal>
3.2140

> <Gold.Chemscore.Rot>
2.3303

> <Gold.Chemscore.Internal.Correction>
   9.000000E+99

> <Gold.Chemscore.Hbonds>
donor molecule, donor type, donor heavy atom, donor atom, acceptor molecule, acceptor atom, score
      L1  H     8    25       P1  8028  0.99
      L1  H    11    26       P1  8028  0.97
      P1  H  7954  7966       L1     3  0.12

> <Gold.Chemscore.Hbond.Weighted>
-9.8096

> <Gold.Chemscore.Metal.Weighted>
-0.0000

> <Gold.Chemscore.Lipo.Weighted>
-9.4066

> <Gold.Chemscore.Internal_Hbond.Weighted>
0.0000

> <Gold.Chemscore.DEClash.Weighted>
0.3928

> <Gold.Chemscore.DEInternal.Weighted>
3.2140

> <Gold.Chemscore.Rot.Weighted>
5.9656

> <Gold.Chemscore.Internal.Correction.Weighted>
   9.000000E+99

> <Gold.Protein.RotatedTorsions>
[ 6907 6896 6895 6894 ] final  -57.95 input  -60.11 | X-H torsion
[ 7974 7965 7964 7962 ] final  -84.02 input  175.53 | X-H torsion
[ 8008 7997 7996 7995 ] final   -8.04 input   59.86 | X-H torsion
[ 10167 10162 10161 10158 ] final  -32.82 input  -65.29 | X-H torsion
[ 10718 10713 10712 10709 ] final   20.38 input   66.30 | X-H torsion
[ 10763 10752 10751 10750 ] final  152.96 input  -60.55 | X-H torsion
[ 11005 11000 10999 10996 ] final   95.36 input  -57.11 | X-H torsion

> <Gold.Protein.ActiveResidues>
 VAL166  LYS551  ARG553  GLY616  TRP617  ASP618  TYR619  PRO620  LYS621  CYS622 
 ASP623  PHE694  ASN695  SER759  ASP760  ASP761  ALA762  ILE779  LEU786  VAL792 
 PHE793  MET794  SER795  GLU796  ALA797  LYS798  CYS799  TRP800  GLU811  SER814 

> <Gold.Protein.RotatedAtoms>
  150.8045  134.7161  159.6630 H   0  0  0  0  0  0  0  0  0  0  0  0  # atno 6907 bound_to 6896
  152.4164  134.6031  160.0015 H   0  0  0  0  0  0  0  0  0  0  0  0  # atno 6908 bound_to 6896
  151.6259  133.3298  159.3134 H   0  0  0  0  0  0  0  0  0  0  0  0  # atno 6909 bound_to 6896
  145.5122  140.9539  143.1701 H   0  0  0  0  0  0  0  0  0  0  0  0  # atno 7974 bound_to 7965
  154.5780  140.2391  155.8095 H   0  0  0  0  0  0  0  0  0  0  0  0  # atno 8008 bound_to 7997
  156.2157  140.3013  155.9792 H   0  0  0  0  0  0  0  0  0  0  0  0  # atno 8009 bound_to 7997
  155.2592  140.0414  157.2986 H   0  0  0  0  0  0  0  0  0  0  0  0  # atno 8010 bound_to 7997
  140.7215  143.3666  151.1858 H   0  0  0  0  0  0  0  0  0  0  0  0  # atno 10167 bound_to 10162
  157.1236  130.6560  149.5931 H   0  0  0  0  0  0  0  0  0  0  0  0  # atno 10718 bound_to 10713
  154.1285  135.2828  155.3191 H   0  0  0  0  0  0  0  0  0  0  0  0  # atno 10763 bound_to 10752
  154.6372  135.5415  153.7751 H   0  0  0  0  0  0  0  0  0  0  0  0  # atno 10764 bound_to 10752
  153.0289  135.6477  154.1436 H   0  0  0  0  0  0  0  0  0  0  0  0  # atno 10765 bound_to 10752
  139.8790  134.8894  156.3999 H   0  0  0  0  0  0  0  0  0  0  0  0  # atno 11005 bound_to 11000
  144.7721  139.6711  143.7190 LP  0  0  0  0  0  0  0  0  0  0  0  0  # atno 17320 bound_to 7965
  146.2159  139.5549  142.9650 LP  0  0  0  0  0  0  0  0  0  0  0  0  # atno 17321 bound_to 7965
  139.7229  143.9194  152.2992 LP  0  0  0  0  0  0  0  0  0  0  0  0  # atno 17342 bound_to 10162
  139.8957  144.6940  150.8720 LP  0  0  0  0  0  0  0  0  0  0  0  0  # atno 17343 bound_to 10162
  155.9823  130.4836  150.6874 LP  0  0  0  0  0  0  0  0  0  0  0  0  # atno 17370 bound_to 10713
  157.4454  131.0866  151.0900 LP  0  0  0  0  0  0  0  0  0  0  0  0  # atno 17371 bound_to 10713
  140.9274  133.7603  155.9981 LP  0  0  0  0  0  0  0  0  0  0  0  0  # atno 17394 bound_to 11000
  140.8370  134.3111  157.5328 LP  0  0  0  0  0  0  0  0  0  0  0  0  # atno 17395 bound_to 11000

$$$$
