AV-unprocessed.smi:1703|AV-procd|sdf|6855|dock9
  -GOLD-   22720 8 33D 1   1.00000     0.00000
 Structure written by MMmdl.
 48 50  0  0  0  0  0  0  0  0  1 V2000
  144.9255  143.4762  157.3072 C   0  0  0  0  0  0  0  0  0  0  0  0
  144.4141  142.6936  156.0855 C   0  0  2  0  0  0  0  0  0  0  0  0
  145.4182  141.6454  155.5663 C   0  0  0  0  0  0  0  0  0  0  0  0
  146.5527  142.2428  154.8696 N   0  0  0  0  0  0  0  0  0  0  0  0
  147.4712  141.2070  154.3944 C   0  0  0  0  0  0  0  0  0  0  0  0
  148.5441  140.7535  155.4089 C   0  0  1  0  0  0  0  0  0  0  0  0
  148.4926  139.3458  155.5115 O   0  0  0  0  0  0  0  0  0  0  0  0
  149.9819  141.1351  155.0001 C   0  0  0  0  0  0  0  0  0  0  0  0
  150.9752  140.7786  156.0046 N   0  0  0  0  0  0  0  0  0  0  0  0
  151.8720  139.7604  155.9718 C   0  0  0  0  0  0  0  0  0  0  0  0
  151.9727  138.8175  154.8121 C   0  0  0  0  0  0  0  0  0  0  0  0
  152.7854  137.6977  155.0909 O   0  0  0  0  0  0  0  0  0  0  0  0
  152.6699  139.6552  157.0350 N   0  0  0  0  0  0  0  0  0  0  0  0
  152.2612  140.7097  157.8276 C   0  0  0  0  0  0  0  0  0  0  0  0
  152.7213  141.1391  159.0930 C   0  0  0  0  0  0  0  0  0  0  0  0
  152.1423  142.2619  159.7198 C   0  0  0  0  0  0  0  0  0  0  0  0
  151.0976  142.9704  159.0916 C   0  0  0  0  0  0  0  0  0  0  0  0
  150.6242  142.5593  157.8309 C   0  0  0  0  0  0  0  0  0  0  0  0
  151.2046  141.4369  157.2096 C   0  0  0  0  0  0  0  0  0  0  0  0
  146.0494  143.0881  153.7901 C   0  0  0  0  0  0  0  0  0  0  0  0
  145.0905  144.1753  154.3090 C   0  0  1  0  0  0  0  0  0  0  0  0
  144.4901  145.0052  153.1694 C   0  0  0  0  0  0  0  0  0  0  0  0
  144.0185  143.5644  155.0245 O   0  0  0  0  0  0  0  0  0  0  0  0
  145.1150  142.8052  158.1453 H   0  0  0  0  0  0  0  0  0  0  0  0
  144.1897  144.2115  157.6331 H   0  0  0  0  0  0  0  0  0  0  0  0
  145.8554  144.0044  157.0973 H   0  0  0  0  0  0  0  0  0  0  0  0
  143.5129  142.1666  156.4001 H   0  0  0  0  0  0  0  0  0  0  0  0
  145.7699  141.0361  156.3997 H   0  0  0  0  0  0  0  0  0  0  0  0
  144.8971  140.9658  154.8900 H   0  0  0  0  0  0  0  0  0  0  0  0
  146.8994  140.3265  154.0973 H   0  0  0  0  0  0  0  0  0  0  0  0
  147.9534  141.5656  153.4848 H   0  0  0  0  0  0  0  0  0  0  0  0
  148.3415  141.1706  156.3933 H   0  0  0  0  0  0  0  0  0  0  0  0
  149.3446  139.0374  155.7807 H   0  0  0  0  0  0  0  0  0  0  0  0
  150.2486  140.6559  154.0577 H   0  0  0  0  0  0  0  0  0  0  0  0
  150.0478  142.2086  154.8180 H   0  0  0  0  0  0  0  0  0  0  0  0
  150.9750  138.4657  154.5470 H   0  0  0  0  0  0  0  0  0  0  0  0
  152.3617  139.3385  153.9382 H   0  0  0  0  0  0  0  0  0  0  0  0
  153.4387  137.9511  155.7246 H   0  0  0  0  0  0  0  0  0  0  0  0
  153.5218  140.6038  159.5817 H   0  0  0  0  0  0  0  0  0  0  0  0
  152.5015  142.5816  160.6871 H   0  0  0  0  0  0  0  0  0  0  0  0
  150.6596  143.8296  159.5784 H   0  0  0  0  0  0  0  0  0  0  0  0
  149.8225  143.0990  157.3491 H   0  0  0  0  0  0  0  0  0  0  0  0
  146.8736  143.5775  153.2733 H   0  0  0  0  0  0  0  0  0  0  0  0
  145.5373  142.4731  153.0482 H   0  0  0  0  0  0  0  0  0  0  0  0
  145.6312  144.8492  154.9744 H   0  0  0  0  0  0  0  0  0  0  0  0
  145.2699  145.5098  152.5985 H   0  0  0  0  0  0  0  0  0  0  0  0
  143.8154  145.7689  153.5572 H   0  0  0  0  0  0  0  0  0  0  0  0
  143.9231  144.3781  152.4808 H   0  0  0  0  0  0  0  0  0  0  0  0
  1  2  1  0  0  0  0
  1 24  1  0  0  0  0
  1 25  1  0  0  0  0
  1 26  1  0  0  0  0
  2 23  1  0  0  0  0
  2  3  1  0  0  0  0
  2 27  1  0  0  0  0
  3  4  1  0  0  0  0
  3 28  1  0  0  0  0
  3 29  1  0  0  0  0
  4  5  1  0  0  0  0
  4 20  1  0  0  0  0
  5  6  1  0  0  0  0
  5 30  1  0  0  0  0
  5 31  1  0  0  0  0
  6  7  1  0  0  0  0
  6  8  1  0  0  0  0
  6 32  1  0  0  0  0
  7 33  1  0  0  0  0
  8  9  1  0  0  0  0
  8 34  1  0  0  0  0
  8 35  1  0  0  0  0
  9 19  1  0  0  0  0
  9 10  1  0  0  0  0
 10 11  1  0  0  0  0
 10 13  2  0  0  0  0
 11 12  1  0  0  0  0
 11 36  1  0  0  0  0
 11 37  1  0  0  0  0
 12 38  1  0  0  0  0
 13 14  1  0  0  0  0
 14 19  2  0  0  0  0
 14 15  1  0  0  0  0
 15 16  2  0  0  0  0
 15 39  1  0  0  0  0
 16 17  1  0  0  0  0
 16 40  1  0  0  0  0
 17 18  2  0  0  0  0
 17 41  1  0  0  0  0
 18 19  1  0  0  0  0
 18 42  1  0  0  0  0
 20 21  1  0  0  0  0
 20 43  1  0  0  0  0
 20 44  1  0  0  0  0
 21 22  1  0  0  0  0
 21 23  1  0  0  0  0
 21 45  1  0  0  0  0
 22 46  1  0  0  0  0
 22 47  1  0  0  0  0
 22 48  1  0  0  0  0
M  END
> <s_m_source_file>
AV-unprocessed.smi

> <i_m_source_file_index>
1703

> <i_lp_mmshare_version>
43012

> <i_f3d_flags>
0

> <s_epik_input>
W0NIM11bQ0BASF0xW0NIMl1OKFtDSDJdW0NASF0oTzEpW0NIM10pW0NIMl1bQ0BIXShbT0hdKVtDSDJdbihjKG4yKVtDSDJdW09IXSljKGMyMylbY0hdW2NIXVtjSF1bY0hdMw==

> <s_epik_cmdline>
J2VwaWtfcHl0aG9uJywgJy1waCcsICc3LjAnLCAnLXRuJywgJzgnLCAnLW1hJywgJzIwMCcsICctbWV0YWxfYmluZGluZycsICctaW1hZScsICc8aW5maWxlLm1hZT4nLCAnLW9tYWUnLCAnPG91dGZpbGUubWFlPic=

> <r_epik_Ionization_Penalty>
0.307685

> <r_epik_Ionization_Penalty_Charging>
0

> <r_epik_Ionization_Penalty_Neutral>
0.307685

> <r_epik_State_Penalty>
0.277856

> <r_epik_Charging_Adjusted_Penalty>
0.277856

> <i_epik_Tot_Q>
0

> <i_epik_Tot_abs_Q>
0

> <r_epik_Metal_State_Penalty>
0.238959

> <b_epik_Metal_Only>
0

> <s_lp_Force_Field>
OPLS_2005

> <r_lp_Energy>
33.3157

> <b_lp_Chiralities_Consistent>
1

> <s_lp_Variant>
AV-unprocessed.smi:1703-3

> <Gold.Version>
5.8.1

> <Gold.Id.Protein>
6NUR|6NUR_protein|mol2

> <Gold.PLP.Fitness>
43.6896

> <Gold.PLP.PLP>
-41.8441

> <Gold.PLP.part.hbond>
-2.0000

> <Gold.PLP.part.metal>
0.0000

> <Gold.PLP.part.buried>
-5.9087

> <Gold.PLP.part.nonpolar>
-34.8788

> <Gold.PLP.part.repulsive>
0.3047

> <Gold.PLP.ligand.clash>
0.0000

> <Gold.PLP.ligand.torsion>
1.3642

> <Gold.PLP.Chemscore.Hbond>
1.5062

> <Gold.PLP.Chemscore.CHOScore>
0.0000

> <Gold.PLP.Chemscore.Metal>
0.0000

> <Gold.Chemscore.Hbonds>
donor molecule, donor type, donor heavy atom, donor atom, acceptor molecule, acceptor atom, score
      P1  H  7997  8009       L1    13  1.00
      P1  H 10752 10764       L1    12  0.30

> <Gold.PLP.Chemscore.Internal.Correction>
0.0552

> <Gold.Rescore>
     Score         DG    S(hbond)    S(metal)    S(lipo)     H(rot)  DE(clash)    DE(int)     intcor
     10.95     -13.06       0.68        0.00     108.29       2.88       0.87       1.23       ----

> <Gold.Chemscore.Fitness>
10.9549

> <Gold.Chemscore.DG>
-13.0616

> <Gold.Chemscore.ZeroCoef>
-5.4800

> <Gold.Chemscore.Hbond>
0.6824

> <Gold.Chemscore.Metal>
0.0000

> <Gold.Chemscore.Lipo>
108.2851

> <Gold.Chemscore.Internal_Hbond>
0.0000

> <Gold.Chemscore.DEClash>
0.8727

> <Gold.Chemscore.DEInternal>
1.2340

> <Gold.Chemscore.Rot>
2.8778

> <Gold.Chemscore.Internal.Correction>
   9.000000E+99

> <Gold.Chemscore.Hbonds>
donor molecule, donor type, donor heavy atom, donor atom, acceptor molecule, acceptor atom, score
      P1  H  7997  8009       L1    13  0.29
      P1  H 10752 10764       L1    12  0.24

> <Gold.Chemscore.Hbond.Weighted>
-2.2793

> <Gold.Chemscore.Metal.Weighted>
-0.0000

> <Gold.Chemscore.Lipo.Weighted>
-12.6694

> <Gold.Chemscore.Internal_Hbond.Weighted>
0.0000

> <Gold.Chemscore.DEClash.Weighted>
0.8727

> <Gold.Chemscore.DEInternal.Weighted>
1.2340

> <Gold.Chemscore.Rot.Weighted>
7.3671

> <Gold.Chemscore.Internal.Correction.Weighted>
   9.000000E+99

> <Gold.Protein.RotatedTorsions>
[ 6907 6896 6895 6894 ] final  122.36 input  -60.11 | X-H torsion
[ 7974 7965 7964 7962 ] final -133.96 input  175.53 | X-H torsion
[ 8008 7997 7996 7995 ] final -171.43 input   59.86 | X-H torsion
[ 10167 10162 10161 10158 ] final  -50.96 input  -65.29 | X-H torsion
[ 10718 10713 10712 10709 ] final -151.94 input   66.30 | X-H torsion
[ 10763 10752 10751 10750 ] final  -60.56 input  -60.55 | X-H torsion
[ 11005 11000 10999 10996 ] final    1.80 input  -57.11 | X-H torsion

> <Gold.Protein.ActiveResidues>
 VAL166  LYS551  ARG553  GLY616  TRP617  ASP618  TYR619  PRO620  LYS621  CYS622 
 ASP623  PHE694  ASN695  SER759  ASP760  ASP761  ALA762  ILE779  LEU786  VAL792 
 PHE793  MET794  SER795  GLU796  ALA797  LYS798  CYS799  TRP800  GLU811  SER814 

> <Gold.Protein.RotatedAtoms>
  152.4249  133.7178  159.6515 H   0  0  0  0  0  0  0  0  0  0  0  0  # atno 6907 bound_to 6896
  150.8125  133.8385  159.3181 H   0  0  0  0  0  0  0  0  0  0  0  0  # atno 6908 bound_to 6896
  151.6091  135.1043  160.0128 H   0  0  0  0  0  0  0  0  0  0  0  0  # atno 6909 bound_to 6896
  144.9145  140.6937  143.5004 H   0  0  0  0  0  0  0  0  0  0  0  0  # atno 7974 bound_to 7965
  155.9314  140.1092  157.1129 H   0  0  0  0  0  0  0  0  0  0  0  0  # atno 8008 bound_to 7997
  154.4071  140.1236  156.4874 H   0  0  0  0  0  0  0  0  0  0  0  0  # atno 8009 bound_to 7997
  155.7075  140.3471  155.4961 H   0  0  0  0  0  0  0  0  0  0  0  0  # atno 8010 bound_to 7997
  140.6612  143.2637  151.4435 H   0  0  0  0  0  0  0  0  0  0  0  0  # atno 10167 bound_to 10162
  156.4658  130.8235  151.2465 H   0  0  0  0  0  0  0  0  0  0  0  0  # atno 10718 bound_to 10713
  154.2710  135.6290  153.5310 H   0  0  0  0  0  0  0  0  0  0  0  0  # atno 10763 bound_to 10752
  152.9880  135.5610  154.5600 H   0  0  0  0  0  0  0  0  0  0  0  0  # atno 10764 bound_to 10752
  154.5170  135.2880  155.1270 H   0  0  0  0  0  0  0  0  0  0  0  0  # atno 10765 bound_to 10752
  140.6114  133.9745  155.8179 H   0  0  0  0  0  0  0  0  0  0  0  0  # atno 11005 bound_to 11000
  145.3398  139.1735  143.4492 LP  0  0  0  0  0  0  0  0  0  0  0  0  # atno 17320 bound_to 7965
  146.3175  140.3438  142.8650 LP  0  0  0  0  0  0  0  0  0  0  0  0  # atno 17321 bound_to 7965
  139.5846  144.1632  152.2013 LP  0  0  0  0  0  0  0  0  0  0  0  0  # atno 17342 bound_to 10162
  140.0968  144.5573  150.7016 LP  0  0  0  0  0  0  0  0  0  0  0  0  # atno 17343 bound_to 10162
  157.7495  131.0092  150.3258 LP  0  0  0  0  0  0  0  0  0  0  0  0  # atno 17370 bound_to 10713
  156.3669  130.3856  149.7206 LP  0  0  0  0  0  0  0  0  0  0  0  0  # atno 17371 bound_to 10713
  141.0805  134.0069  157.3392 LP  0  0  0  0  0  0  0  0  0  0  0  0  # atno 17394 bound_to 11000
  139.9191  135.0199  156.7994 LP  0  0  0  0  0  0  0  0  0  0  0  0  # atno 17395 bound_to 11000

$$$$
