AV-unprocessed.smi:304|AV-procd|sdf|2276|dock7
  -GOLD-   2262022173D 1   1.00000     0.00000
 Structure written by MMmdl.
 36 38  0  0  0  0  0  0  0  0  1 V2000
  149.8160  140.3909  158.1261 O   0  0  0  0  0  0  0  0  0  0  0  0
  150.5217  140.6283  156.9235 C   0  0  2  0  0  0  0  0  0  0  0  0
  150.7803  139.2773  156.2388 C   0  0  0  0  0  0  0  0  0  0  0  0
  151.1031  139.5045  154.8772 O   0  0  0  0  0  0  0  0  0  0  0  0
  150.1143  139.0086  153.9892 C   0  0  0  0  0  0  0  0  0  0  0  0
  149.0307  140.0346  153.8961 C   0  0  0  0  0  0  0  0  0  0  0  0
  149.1519  141.3843  154.1091 C   0  0  0  0  0  0  0  0  0  0  0  0
  147.9301  142.0961  153.9256 C   0  0  0  0  0  0  0  0  0  0  0  0
  146.8903  141.2816  153.5646 C   0  0  0  0  0  0  0  0  0  0  0  0
  147.3942  139.6185  153.4416 S   0  0  0  0  0  0  0  0  0  0  0  0
  151.8342  141.3684  157.2467 C   0  0  0  0  0  0  0  0  0  0  0  0
  151.6496  142.4374  158.2125 N   0  0  0  0  0  0  0  0  0  0  0  0
  150.9575  143.5786  158.0335 C   0  0  0  0  0  0  0  0  0  0  0  0
  150.9146  144.4318  159.0528 N   0  0  0  0  0  0  0  0  0  0  0  0
  151.6657  143.7659  160.0062 C   0  0  0  0  0  0  0  0  0  0  0  0
  152.0074  144.1358  161.3266 C   0  0  0  0  0  0  0  0  0  0  0  0
  152.7959  143.2830  162.1266 C   0  0  0  0  0  0  0  0  0  0  0  0
  153.1143  143.6531  163.3899 F   0  0  0  0  0  0  0  0  0  0  0  0
  153.2535  142.0486  161.6195 C   0  0  0  0  0  0  0  0  0  0  0  0
  154.0088  141.2351  162.3949 F   0  0  0  0  0  0  0  0  0  0  0  0
  152.9262  141.6590  160.3067 C   0  0  0  0  0  0  0  0  0  0  0  0
  152.1405  142.5136  159.5117 C   0  0  0  0  0  0  0  0  0  0  0  0
  149.1787  139.7109  157.9679 H   0  0  0  0  0  0  0  0  0  0  0  0
  149.9115  141.2572  156.2734 H   0  0  0  0  0  0  0  0  0  0  0  0
  151.6304  138.7830  156.7121 H   0  0  0  0  0  0  0  0  0  0  0  0
  149.9218  138.6110  156.3407 H   0  0  0  0  0  0  0  0  0  0  0  0
  150.5450  138.8230  153.0040 H   0  0  0  0  0  0  0  0  0  0  0  0
  149.7066  138.0677  154.3610 H   0  0  0  0  0  0  0  0  0  0  0  0
  150.0684  141.8814  154.3907 H   0  0  0  0  0  0  0  0  0  0  0  0
  147.8585  143.1653  154.0608 H   0  0  0  0  0  0  0  0  0  0  0  0
  145.8654  141.5551  153.3622 H   0  0  0  0  0  0  0  0  0  0  0  0
  152.5814  140.6731  157.6313 H   0  0  0  0  0  0  0  0  0  0  0  0
  152.2539  141.8029  156.3384 H   0  0  0  0  0  0  0  0  0  0  0  0
  150.4564  143.7947  157.1010 H   0  0  0  0  0  0  0  0  0  0  0  0
  151.6619  145.0779  161.7256 H   0  0  0  0  0  0  0  0  0  0  0  0
  153.2725  140.7133  159.9170 H   0  0  0  0  0  0  0  0  0  0  0  0
  1  2  1  0  0  0  0
  1 23  1  0  0  0  0
  2  3  1  0  0  0  0
  2 11  1  0  0  0  0
  2 24  1  0  0  0  0
  3  4  1  0  0  0  0
  3 25  1  0  0  0  0
  3 26  1  0  0  0  0
  4  5  1  0  0  0  0
  5  6  1  0  0  0  0
  5 27  1  0  0  0  0
  5 28  1  0  0  0  0
  6 10  1  0  0  0  0
  6  7  2  0  0  0  0
  7  8  1  0  0  0  0
  7 29  1  0  0  0  0
  8  9  2  0  0  0  0
  8 30  1  0  0  0  0
  9 10  1  0  0  0  0
  9 31  1  0  0  0  0
 11 12  1  0  0  0  0
 11 32  1  0  0  0  0
 11 33  1  0  0  0  0
 12 22  1  0  0  0  0
 12 13  1  0  0  0  0
 13 14  2  0  0  0  0
 13 34  1  0  0  0  0
 14 15  1  0  0  0  0
 15 22  2  0  0  0  0
 15 16  1  0  0  0  0
 16 17  2  0  0  0  0
 16 35  1  0  0  0  0
 17 18  1  0  0  0  0
 17 19  1  0  0  0  0
 19 20  1  0  0  0  0
 19 21  2  0  0  0  0
 21 22  1  0  0  0  0
 21 36  1  0  0  0  0
M  END
> <s_m_source_file>
AV-unprocessed.smi

> <i_m_source_file_index>
304

> <i_lp_mmshare_version>
43012

> <i_f3d_flags>
0

> <s_epik_input>
W2NIXTFjKEYpYyhGKVtjSF1jKGMxMiluKFtjSF1uMilbQ0gyXVtDQEhdKFtPSF0pW0NIMl1PW0NIMl1jM1tjSF1bY0hdW2NIXXMz

> <s_epik_cmdline>
J2VwaWtfcHl0aG9uJywgJy1waCcsICc3LjAnLCAnLXRuJywgJzgnLCAnLW1hJywgJzIwMCcsICctbWV0YWxfYmluZGluZycsICctaW1hZScsICc8aW5maWxlLm1hZT4nLCAnLW9tYWUnLCAnPG91dGZpbGUubWFlPic=

> <r_epik_Ionization_Penalty>
0.0152118

> <r_epik_Ionization_Penalty_Charging>
0

> <r_epik_Ionization_Penalty_Neutral>
0.0152118

> <r_epik_State_Penalty>
0.0119413

> <r_epik_Charging_Adjusted_Penalty>
0.0119413

> <i_epik_Tot_Q>
0

> <i_epik_Tot_abs_Q>
0

> <r_epik_Metal_State_Penalty>
1.20623e-05

> <b_epik_Metal_Only>
0

> <s_lp_Force_Field>
OPLS_2005

> <r_lp_Energy>
8.33782

> <b_lp_Chiralities_Consistent>
1

> <s_lp_Variant>
AV-unprocessed.smi:304-1

> <Gold.Version>
5.8.1

> <Gold.Id.Protein>
6NUR|6NUR_protein|mol2

> <Gold.PLP.Fitness>
56.0378

> <Gold.PLP.PLP>
-50.1775

> <Gold.PLP.part.hbond>
-1.0000

> <Gold.PLP.part.metal>
0.0000

> <Gold.PLP.part.buried>
-2.9031

> <Gold.PLP.part.nonpolar>
-46.0864

> <Gold.PLP.part.repulsive>
0.1646

> <Gold.PLP.ligand.clash>
0.0000

> <Gold.PLP.ligand.torsion>
1.1528

> <Gold.PLP.Chemscore.Hbond>
0.7000

> <Gold.PLP.Chemscore.CHOScore>
2.0000

> <Gold.PLP.Chemscore.Metal>
0.0000

> <Gold.Chemscore.Hbonds>
donor molecule, donor type, donor heavy atom, donor atom, acceptor molecule, acceptor atom, score
      P1  H  7989  7998       L1     4  0.50
      L1  C     9    31       P1 10175  0.69
      L1  C    13    34       P1  8028  1.00

> <Gold.PLP.Chemscore.Internal.Correction>
0.0658

> <Gold.Rescore>
     Score         DG    S(hbond)    S(metal)    S(lipo)     H(rot)  DE(clash)    DE(int)     intcor
     11.57     -12.55       0.01        0.00     118.03       2.64       0.12       0.86       ----

> <Gold.Chemscore.Fitness>
11.5651

> <Gold.Chemscore.DG>
-12.5471

> <Gold.Chemscore.ZeroCoef>
-5.4800

> <Gold.Chemscore.Hbond>
0.0051

> <Gold.Chemscore.Metal>
0.0000

> <Gold.Chemscore.Lipo>
118.0276

> <Gold.Chemscore.Internal_Hbond>
0.0000

> <Gold.Chemscore.DEClash>
0.1238

> <Gold.Chemscore.DEInternal>
0.8583

> <Gold.Chemscore.Rot>
2.6403

> <Gold.Chemscore.Internal.Correction>
   9.000000E+99

> <Gold.Chemscore.Hbonds>
donor molecule, donor type, donor heavy atom, donor atom, acceptor molecule, acceptor atom, score
      P1  H  7989  7998       L1     4  0.02

> <Gold.Chemscore.Hbond.Weighted>
-0.0171

> <Gold.Chemscore.Metal.Weighted>
-0.0000

> <Gold.Chemscore.Lipo.Weighted>
-13.8092

> <Gold.Chemscore.Internal_Hbond.Weighted>
0.0000

> <Gold.Chemscore.DEClash.Weighted>
0.1238

> <Gold.Chemscore.DEInternal.Weighted>
0.8583

> <Gold.Chemscore.Rot.Weighted>
6.7592

> <Gold.Chemscore.Internal.Correction.Weighted>
   9.000000E+99

> <Gold.Protein.RotatedTorsions>
[ 6907 6896 6895 6894 ] final -156.63 input  -60.11 | X-H torsion
[ 7974 7965 7964 7962 ] final  141.85 input  175.53 | X-H torsion
[ 8008 7997 7996 7995 ] final -120.03 input   59.86 | X-H torsion
[ 10167 10162 10161 10158 ] final -171.61 input  -65.29 | X-H torsion
[ 10718 10713 10712 10709 ] final -154.26 input   66.30 | X-H torsion
[ 10763 10752 10751 10750 ] final  -80.62 input  -60.55 | X-H torsion
[ 11005 11000 10999 10996 ] final -114.98 input  -57.11 | X-H torsion

> <Gold.Protein.ActiveResidues>
 VAL166  LYS551  ARG553  GLY616  TRP617  ASP618  TYR619  PRO620  LYS621  CYS622 
 ASP623  PHE694  ASN695  SER759  ASP760  ASP761  ALA762  ILE779  LEU786  VAL792 
 PHE793  MET794  SER795  GLU796  ALA797  LYS798  CYS799  TRP800  GLU811  SER814 

> <Gold.Protein.RotatedAtoms>
  151.2905  133.4167  159.2632 H   0  0  0  0  0  0  0  0  0  0  0  0  # atno 6907 bound_to 6896
  151.0281  134.9519  159.8106 H   0  0  0  0  0  0  0  0  0  0  0  0  # atno 6908 bound_to 6896
  152.5339  134.2867  159.9080 H   0  0  0  0  0  0  0  0  0  0  0  0  # atno 6909 bound_to 6896
  144.9059  139.5358  143.5731 H   0  0  0  0  0  0  0  0  0  0  0  0  # atno 7974 bound_to 7965
  155.1253  140.0399  157.2761 H   0  0  0  0  0  0  0  0  0  0  0  0  # atno 8008 bound_to 7997
  154.6583  140.2585  155.7111 H   0  0  0  0  0  0  0  0  0  0  0  0  # atno 8009 bound_to 7997
  156.2608  140.2822  156.1045 H   0  0  0  0  0  0  0  0  0  0  0  0  # atno 8010 bound_to 7997
  139.5792  144.1462  152.1492 H   0  0  0  0  0  0  0  0  0  0  0  0  # atno 10167 bound_to 10162
  156.4969  130.8373  151.2593 H   0  0  0  0  0  0  0  0  0  0  0  0  # atno 10718 bound_to 10713
  154.5534  135.5655  153.6942 H   0  0  0  0  0  0  0  0  0  0  0  0  # atno 10763 bound_to 10752
  152.9996  135.6256  154.2343 H   0  0  0  0  0  0  0  0  0  0  0  0  # atno 10764 bound_to 10752
  154.2278  135.2867  155.2881 H   0  0  0  0  0  0  0  0  0  0  0  0  # atno 10765 bound_to 10752
  141.0517  133.9676  157.2824 H   0  0  0  0  0  0  0  0  0  0  0  0  # atno 11005 bound_to 11000
  146.3133  139.7827  142.9003 LP  0  0  0  0  0  0  0  0  0  0  0  0  # atno 17320 bound_to 7965
  145.3536  141.0312  143.3324 LP  0  0  0  0  0  0  0  0  0  0  0  0  # atno 17321 bound_to 7965
  140.1012  144.5538  150.6988 LP  0  0  0  0  0  0  0  0  0  0  0  0  # atno 17342 bound_to 10162
  140.7072  143.2477  151.4691 LP  0  0  0  0  0  0  0  0  0  0  0  0  # atno 17343 bound_to 10162
  157.7467  130.9995  150.2890 LP  0  0  0  0  0  0  0  0  0  0  0  0  # atno 17370 bound_to 10713
  156.3371  130.3809  149.7441 LP  0  0  0  0  0  0  0  0  0  0  0  0  # atno 17371 bound_to 10713
  139.9356  135.0196  156.8545 LP  0  0  0  0  0  0  0  0  0  0  0  0  # atno 17394 bound_to 11000
  140.6042  134.0143  155.7550 LP  0  0  0  0  0  0  0  0  0  0  0  0  # atno 17395 bound_to 11000

$$$$
