AV-unprocessed.smi:2058|AV-procd|sdf|8344|dock3
  -GOLD-   2272011 13D 1   1.00000     0.00000
 Structure written by MMmdl.
 42 43  0  0  0  0  0  0  0  0  1 V2000
  145.1113  136.7148  153.1221 C   0  0  0  0  0  0  0  0  0  0  0  0
  145.8608  137.5218  152.0504 C   0  0  2  0  0  0  0  0  0  0  0  0
  145.9283  136.8148  150.6808 C   0  0  0  0  0  0  0  0  0  0  0  0
  146.2947  137.7110  149.6510 O   0  0  0  0  0  0  0  0  0  0  0  0
  147.1973  137.8791  152.5211 N   0  0  0  0  0  0  0  0  0  0  0  0
  147.4714  138.7602  153.4937 C   0  0  0  0  0  0  0  0  0  0  0  0
  146.6044  139.3603  154.1284 O   0  0  0  0  0  0  0  0  0  0  0  0
  148.7977  138.8804  153.6765 N   0  0  0  0  0  0  0  0  0  0  0  0
  149.5033  139.7194  154.5819 C   0  0  0  0  0  0  0  0  0  0  0  0
  148.7500  140.5853  155.3978 C   0  0  0  0  0  0  0  0  0  0  0  0
  149.4136  141.4193  156.3170 C   0  0  0  0  0  0  0  0  0  0  0  0
  150.8242  141.3640  156.4042 C   0  0  0  0  0  0  0  0  0  0  0  0
  151.5120  142.1942  157.3162 N   0  0  0  0  0  0  0  0  0  0  0  0
  151.5812  141.6933  158.6907 C   0  0  0  0  0  0  0  0  0  0  0  0
  152.6682  142.4268  159.4949 C   0  0  0  0  0  0  0  0  0  0  0  0
  152.4670  143.9480  159.4342 C   0  0  0  0  0  0  0  0  0  0  0  0
  152.4087  144.4117  157.9714 C   0  0  0  0  0  0  0  0  0  0  0  0
  151.3300  143.6429  157.1891 C   0  0  0  0  0  0  0  0  0  0  0  0
  151.5483  140.5179  155.6316 N   0  0  0  0  0  0  0  0  0  0  0  0
  150.9085  139.7207  154.7502 C   0  0  0  0  0  0  0  0  0  0  0  0
  144.1069  136.4574  152.7850 H   0  0  0  0  0  0  0  0  0  0  0  0
  145.0115  137.2884  154.0441 H   0  0  0  0  0  0  0  0  0  0  0  0
  145.6294  135.7867  153.3653 H   0  0  0  0  0  0  0  0  0  0  0  0
  145.3005  138.4477  151.9092 H   0  0  0  0  0  0  0  0  0  0  0  0
  146.6705  136.0170  150.7129 H   0  0  0  0  0  0  0  0  0  0  0  0
  144.9754  136.3468  150.4309 H   0  0  0  0  0  0  0  0  0  0  0  0
  145.5206  138.1711  149.3652 H   0  0  0  0  0  0  0  0  0  0  0  0
  147.9727  137.4328  152.0539 H   0  0  0  0  0  0  0  0  0  0  0  0
  149.3758  138.2699  153.1177 H   0  0  0  0  0  0  0  0  0  0  0  0
  147.6726  140.6132  155.3236 H   0  0  0  0  0  0  0  0  0  0  0  0
  148.8371  142.0764  156.9510 H   0  0  0  0  0  0  0  0  0  0  0  0
  150.6087  141.8414  159.1621 H   0  0  0  0  0  0  0  0  0  0  0  0
  151.7813  140.6233  158.7222 H   0  0  0  0  0  0  0  0  0  0  0  0
  152.6579  142.0888  160.5313 H   0  0  0  0  0  0  0  0  0  0  0  0
  153.6509  142.1721  159.0956 H   0  0  0  0  0  0  0  0  0  0  0  0
  151.5413  144.2181  159.9438 H   0  0  0  0  0  0  0  0  0  0  0  0
  153.2753  144.4569  159.9601 H   0  0  0  0  0  0  0  0  0  0  0  0
  152.2104  145.4826  157.9249 H   0  0  0  0  0  0  0  0  0  0  0  0
  153.3804  144.2557  157.5009 H   0  0  0  0  0  0  0  0  0  0  0  0
  151.3760  143.9376  156.1398 H   0  0  0  0  0  0  0  0  0  0  0  0
  150.3389  143.9125  157.5570 H   0  0  0  0  0  0  0  0  0  0  0  0
  151.5570  139.0647  154.1919 H   0  0  0  0  0  0  0  0  0  0  0  0
  1  2  1  0  0  0  0
  1 21  1  0  0  0  0
  1 22  1  0  0  0  0
  1 23  1  0  0  0  0
  2  3  1  0  0  0  0
  2  5  1  0  0  0  0
  2 24  1  0  0  0  0
  3  4  1  0  0  0  0
  3 25  1  0  0  0  0
  3 26  1  0  0  0  0
  4 27  1  0  0  0  0
  5  6  1  0  0  0  0
  5 28  1  0  0  0  0
  6  7  2  0  0  0  0
  6  8  1  0  0  0  0
  8  9  1  0  0  0  0
  8 29  1  0  0  0  0
  9 20  1  0  0  0  0
  9 10  2  0  0  0  0
 10 11  1  0  0  0  0
 10 30  1  0  0  0  0
 11 12  2  0  0  0  0
 11 31  1  0  0  0  0
 12 13  1  0  0  0  0
 12 19  1  0  0  0  0
 13 18  1  0  0  0  0
 13 14  1  0  0  0  0
 14 15  1  0  0  0  0
 14 32  1  0  0  0  0
 14 33  1  0  0  0  0
 15 16  1  0  0  0  0
 15 34  1  0  0  0  0
 15 35  1  0  0  0  0
 16 17  1  0  0  0  0
 16 36  1  0  0  0  0
 16 37  1  0  0  0  0
 17 18  1  0  0  0  0
 17 38  1  0  0  0  0
 17 39  1  0  0  0  0
 18 40  1  0  0  0  0
 18 41  1  0  0  0  0
 19 20  2  0  0  0  0
 20 42  1  0  0  0  0
M  END
> <s_m_source_file>
AV-unprocessed.smi

> <i_m_source_file_index>
2058

> <i_lp_mmshare_version>
43012

> <i_f3d_flags>
0

> <s_epik_input>
W09IXVtDSDJdW0NAQEhdKFtDSDNdKVtOSF1DKD1PKVtOSF1jMVtjSF1bY0hdYyhuW2NIXTEpTjJbQ0gyXVtDSDJdW0NIMl1bQ0gyXVtDSDJdMg==

> <s_epik_cmdline>
J2VwaWtfcHl0aG9uJywgJy1waCcsICc3LjAnLCAnLXRuJywgJzgnLCAnLW1hJywgJzIwMCcsICctbWV0YWxfYmluZGluZycsICctaW1hZScsICc8aW5maWxlLm1hZT4nLCAnLW9tYWUnLCAnPG91dGZpbGUubWFlPic=

> <r_lp_tautomer_probability>
1

> <r_epik_Ionization_Penalty>
0.104828

> <r_epik_Ionization_Penalty_Charging>
0

> <r_epik_Ionization_Penalty_Neutral>
0.104828

> <r_epik_State_Penalty>
0.0887547

> <r_epik_Charging_Adjusted_Penalty>
0.0887547

> <i_epik_Tot_Q>
0

> <i_epik_Tot_abs_Q>
0

> <r_epik_Metal_State_Penalty>
0.0759464

> <b_epik_Metal_Only>
0

> <s_lp_Force_Field>
OPLS_2005

> <r_lp_Energy>
20.4208

> <b_lp_Chiralities_Consistent>
1

> <s_lp_Variant>
AV-unprocessed.smi:2058-1

> <Gold.Version>
5.8.1

> <Gold.Id.Protein>
6NUR|6NUR_protein|mol2

> <Gold.PLP.Fitness>
44.6144

> <Gold.PLP.PLP>
-37.7750

> <Gold.PLP.part.hbond>
-5.0876

> <Gold.PLP.part.metal>
0.0000

> <Gold.PLP.part.buried>
1.8866

> <Gold.PLP.part.nonpolar>
-35.5856

> <Gold.PLP.part.repulsive>
0.2959

> <Gold.PLP.ligand.clash>
0.0000

> <Gold.PLP.ligand.torsion>
0.5731

> <Gold.PLP.Chemscore.Hbond>
2.5098

> <Gold.PLP.Chemscore.CHOScore>
0.0000

> <Gold.PLP.Chemscore.Metal>
0.0000

> <Gold.Chemscore.Hbonds>
donor molecule, donor type, donor heavy atom, donor atom, acceptor molecule, acceptor atom, score
      L1  H     4    27       P1 10171  0.91
      L1  H     5    28       P1  7948  1.00
      L1  H     8    29       P1  7948  0.06
      P1  H  7954  7966       L1     4  0.42

> <Gold.PLP.Chemscore.Internal.Correction>
0.4563

> <Gold.Rescore>
     Score         DG    S(hbond)    S(metal)    S(lipo)     H(rot)  DE(clash)    DE(int)     intcor
     18.87     -20.92       2.78        0.00      97.23       2.05       0.11       1.93       ----

> <Gold.Chemscore.Fitness>
18.8737

> <Gold.Chemscore.DG>
-20.9180

> <Gold.Chemscore.ZeroCoef>
-5.4800

> <Gold.Chemscore.Hbond>
2.7838

> <Gold.Chemscore.Metal>
0.0000

> <Gold.Chemscore.Lipo>
97.2327

> <Gold.Chemscore.Internal_Hbond>
0.0000

> <Gold.Chemscore.DEClash>
0.1124

> <Gold.Chemscore.DEInternal>
1.9320

> <Gold.Chemscore.Rot>
2.0453

> <Gold.Chemscore.Internal.Correction>
   9.000000E+99

> <Gold.Chemscore.Hbonds>
donor molecule, donor type, donor heavy atom, donor atom, acceptor molecule, acceptor atom, score
      L1  H     4    27       P1 10171  0.90
      L1  H     5    28       P1  7948  0.92
      L1  H     8    29       P1  7948  0.08
      P1  H  7954  7966       L1     4  0.19

> <Gold.Chemscore.Hbond.Weighted>
-9.2978

> <Gold.Chemscore.Metal.Weighted>
-0.0000

> <Gold.Chemscore.Lipo.Weighted>
-11.3762

> <Gold.Chemscore.Internal_Hbond.Weighted>
0.0000

> <Gold.Chemscore.DEClash.Weighted>
0.1124

> <Gold.Chemscore.DEInternal.Weighted>
1.9320

> <Gold.Chemscore.Rot.Weighted>
5.2360

> <Gold.Chemscore.Internal.Correction.Weighted>
   9.000000E+99

> <Gold.Protein.RotatedTorsions>
[ 6907 6896 6895 6894 ] final  -78.99 input  -60.11 | X-H torsion
[ 7974 7965 7964 7962 ] final  109.91 input  175.53 | X-H torsion
[ 8008 7997 7996 7995 ] final   76.14 input   59.86 | X-H torsion
[ 10167 10162 10161 10158 ] final  117.62 input  -65.29 | X-H torsion
[ 10718 10713 10712 10709 ] final  -67.99 input   66.30 | X-H torsion
[ 10763 10752 10751 10750 ] final   59.28 input  -60.55 | X-H torsion
[ 11005 11000 10999 10996 ] final   10.54 input  -57.11 | X-H torsion

> <Gold.Protein.ActiveResidues>
 VAL166  LYS551  ARG553  GLY616  TRP617  ASP618  TYR619  PRO620  LYS621  CYS622 
 ASP623  PHE694  ASN695  SER759  ASP760  ASP761  ALA762  ILE779  LEU786  VAL792 
 PHE793  MET794  SER795  GLU796  ALA797  LYS798  CYS799  TRP800  GLU811  SER814 

> <Gold.Protein.RotatedAtoms>
  150.6960  134.4188  159.5195 H   0  0  0  0  0  0  0  0  0  0  0  0  # atno 6907 bound_to 6896
  152.1934  134.8649  160.0524 H   0  0  0  0  0  0  0  0  0  0  0  0  # atno 6908 bound_to 6896
  151.9596  133.3656  159.4067 H   0  0  0  0  0  0  0  0  0  0  0  0  # atno 6909 bound_to 6896
  145.2618  139.2699  143.4013 H   0  0  0  0  0  0  0  0  0  0  0  0  # atno 7974 bound_to 7965
  155.8230  140.3469  155.5525 H   0  0  0  0  0  0  0  0  0  0  0  0  # atno 8008 bound_to 7997
  155.8322  140.0929  157.1805 H   0  0  0  0  0  0  0  0  0  0  0  0  # atno 8009 bound_to 7997
  154.4004  140.1410  156.3615 H   0  0  0  0  0  0  0  0  0  0  0  0  # atno 8010 bound_to 7997
  139.6166  144.7093  151.2726 H   0  0  0  0  0  0  0  0  0  0  0  0  # atno 10167 bound_to 10162
  156.0528  130.4287  150.1936 H   0  0  0  0  0  0  0  0  0  0  0  0  # atno 10718 bound_to 10713
  152.9891  135.5577  154.5688 H   0  0  0  0  0  0  0  0  0  0  0  0  # atno 10763 bound_to 10752
  154.5093  135.2801  155.1358 H   0  0  0  0  0  0  0  0  0  0  0  0  # atno 10764 bound_to 10752
  154.2757  135.6354  153.5380 H   0  0  0  0  0  0  0  0  0  0  0  0  # atno 10765 bound_to 10752
  140.5133  134.0631  155.7824 H   0  0  0  0  0  0  0  0  0  0  0  0  # atno 11005 bound_to 11000
  146.3273  140.3037  142.8622 LP  0  0  0  0  0  0  0  0  0  0  0  0  # atno 17320 bound_to 7965
  144.9412  140.8080  143.5629 LP  0  0  0  0  0  0  0  0  0  0  0  0  # atno 17321 bound_to 7965
  140.7355  143.6735  150.8061 LP  0  0  0  0  0  0  0  0  0  0  0  0  # atno 17342 bound_to 10162
  140.0339  143.5415  152.2748 LP  0  0  0  0  0  0  0  0  0  0  0  0  # atno 17343 bound_to 10162
  157.0016  130.9924  151.3389 LP  0  0  0  0  0  0  0  0  0  0  0  0  # atno 17370 bound_to 10713
  157.5471  130.8158  149.8099 LP  0  0  0  0  0  0  0  0  0  0  0  0  # atno 17371 bound_to 10713
  141.1374  133.9198  157.2403 LP  0  0  0  0  0  0  0  0  0  0  0  0  # atno 17394 bound_to 11000
  139.9647  135.0145  156.9354 LP  0  0  0  0  0  0  0  0  0  0  0  0  # atno 17395 bound_to 11000

$$$$
