AV-unprocessed.smi:1314|AV-procd|sdf|5453|dock5
  -GOLD-   22720 5 23D 1   1.00000     0.00000
 Structure written by MMmdl.
 41 42  0  0  0  0  0  0  0  0  1 V2000
  146.7985  140.5785  154.3589 C   0  0  0  0  0  0  0  0  0  0  0  0
  148.0726  139.8040  154.1793 C   0  0  0  0  0  0  0  0  0  0  0  0
  148.0213  138.5000  153.9644 N   0  0  0  0  0  0  0  0  0  0  0  0
  149.3490  138.0805  153.8373 O   0  0  0  0  0  0  0  0  0  0  0  0
  150.1569  139.1615  153.9835 C   0  0  0  0  0  0  0  0  0  0  0  0
  151.6248  138.9216  153.8757 C   0  0  0  0  0  0  0  0  0  0  0  0
  149.4123  140.2870  154.2072 C   0  0  0  0  0  0  0  0  0  0  0  0
  149.8829  141.7018  154.4269 C   0  0  0  0  0  0  0  0  0  0  0  0
  150.7773  141.7675  155.6666 C   0  0  0  0  0  0  0  0  0  0  0  0
  151.5824  140.8642  155.8939 O   0  0  0  0  0  0  0  0  0  0  0  0
  150.6220  142.8393  156.4594 N   0  0  0  0  0  0  0  0  0  0  0  0
  151.3505  143.0939  157.6985 C   0  0  0  0  0  0  0  0  0  0  0  0
  151.8369  144.5491  157.7938 C   0  0  0  0  0  0  0  0  0  0  0  0
  152.0098  145.1173  159.5104 S   0  0  0  0  0  0  0  0  0  0  0  0
  152.1859  143.5272  160.3698 C   0  0  0  0  0  0  0  0  0  0  0  0
  152.4198  143.6980  161.8702 C   0  0  0  0  0  0  0  0  0  0  0  0
  153.0308  142.3673  162.3154 C   0  0  0  0  0  0  0  0  0  0  0  0
  153.7526  141.7980  161.0844 C   0  0  0  0  0  0  0  0  0  0  0  0
  153.4029  142.7205  159.9088 C   0  0  0  0  0  0  0  0  0  0  0  0
  146.8149  141.4970  153.7721 H   0  0  0  0  0  0  0  0  0  0  0  0
  146.6554  140.8545  155.4036 H   0  0  0  0  0  0  0  0  0  0  0  0
  145.9274  140.0026  154.0443 H   0  0  0  0  0  0  0  0  0  0  0  0
  152.1007  139.6998  153.2789 H   0  0  0  0  0  0  0  0  0  0  0  0
  151.8319  137.9615  153.4022 H   0  0  0  0  0  0  0  0  0  0  0  0
  152.0882  138.9200  154.8621 H   0  0  0  0  0  0  0  0  0  0  0  0
  150.4537  142.0679  153.5729 H   0  0  0  0  0  0  0  0  0  0  0  0
  149.0382  142.3833  154.5389 H   0  0  0  0  0  0  0  0  0  0  0  0
  149.9376  143.5298  156.1868 H   0  0  0  0  0  0  0  0  0  0  0  0
  150.6633  142.8944  158.5211 H   0  0  0  0  0  0  0  0  0  0  0  0
  152.1833  142.4003  157.8265 H   0  0  0  0  0  0  0  0  0  0  0  0
  152.7878  144.6699  157.2736 H   0  0  0  0  0  0  0  0  0  0  0  0
  151.1185  145.1984  157.2937 H   0  0  0  0  0  0  0  0  0  0  0  0
  151.2798  142.9391  160.2174 H   0  0  0  0  0  0  0  0  0  0  0  0
  153.1350  144.5026  162.0471 H   0  0  0  0  0  0  0  0  0  0  0  0
  151.5059  143.9411  162.4130 H   0  0  0  0  0  0  0  0  0  0  0  0
  153.7010  142.4923  163.1666 H   0  0  0  0  0  0  0  0  0  0  0  0
  152.2383  141.6835  162.6219 H   0  0  0  0  0  0  0  0  0  0  0  0
  154.8318  141.7571  161.2360 H   0  0  0  0  0  0  0  0  0  0  0  0
  153.4129  140.7800  160.8901 H   0  0  0  0  0  0  0  0  0  0  0  0
  153.2106  142.1636  158.9914 H   0  0  0  0  0  0  0  0  0  0  0  0
  154.2412  143.3916  159.7163 H   0  0  0  0  0  0  0  0  0  0  0  0
  1  2  1  0  0  0  0
  1 20  1  0  0  0  0
  1 21  1  0  0  0  0
  1 22  1  0  0  0  0
  2  7  1  0  0  0  0
  2  3  2  0  0  0  0
  3  4  1  0  0  0  0
  4  5  1  0  0  0  0
  5  6  1  0  0  0  0
  5  7  2  0  0  0  0
  6 23  1  0  0  0  0
  6 24  1  0  0  0  0
  6 25  1  0  0  0  0
  7  8  1  0  0  0  0
  8  9  1  0  0  0  0
  8 26  1  0  0  0  0
  8 27  1  0  0  0  0
  9 10  2  0  0  0  0
  9 11  1  0  0  0  0
 11 12  1  0  0  0  0
 11 28  1  0  0  0  0
 12 13  1  0  0  0  0
 12 29  1  0  0  0  0
 12 30  1  0  0  0  0
 13 14  1  0  0  0  0
 13 31  1  0  0  0  0
 13 32  1  0  0  0  0
 14 15  1  0  0  0  0
 15 19  1  0  0  0  0
 15 16  1  0  0  0  0
 15 33  1  0  0  0  0
 16 17  1  0  0  0  0
 16 34  1  0  0  0  0
 16 35  1  0  0  0  0
 17 18  1  0  0  0  0
 17 36  1  0  0  0  0
 17 37  1  0  0  0  0
 18 19  1  0  0  0  0
 18 38  1  0  0  0  0
 18 39  1  0  0  0  0
 19 40  1  0  0  0  0
 19 41  1  0  0  0  0
M  END
> <s_m_source_file>
AV-unprocessed.smi

> <i_m_source_file_index>
1314

> <i_lp_mmshare_version>
43012

> <i_f3d_flags>
0

> <s_epik_input>
W0NIM11jMW5vYyhbQ0gzXSljMVtDSDJdQyg9TylbTkhdW0NIMl1bQ0gyXVNbQ0hdMltDSDJdW0NIMl1bQ0gyXVtDSDJdMg==

> <s_epik_cmdline>
J2VwaWtfcHl0aG9uJywgJy1waCcsICc3LjAnLCAnLXRuJywgJzgnLCAnLW1hJywgJzIwMCcsICctbWV0YWxfYmluZGluZycsICctaW1hZScsICc8aW5maWxlLm1hZT4nLCAnLW9tYWUnLCAnPG91dGZpbGUubWFlPic=

> <r_lp_tautomer_probability>
1

> <r_epik_Ionization_Penalty>
2.75407e-08

> <r_epik_Ionization_Penalty_Charging>
0

> <r_epik_Ionization_Penalty_Neutral>
2.75407e-08

> <r_epik_State_Penalty>
-0

> <r_epik_Charging_Adjusted_Penalty>
0

> <i_epik_Tot_Q>
0

> <i_epik_Tot_abs_Q>
0

> <r_epik_Metal_State_Penalty>
-0

> <b_epik_Metal_Only>
0

> <s_lp_Force_Field>
OPLS_2005

> <r_lp_Energy>
14.7141

> <b_lp_Chiralities_Consistent>
1

> <s_lp_Variant>
AV-unprocessed.smi:1314-1

> <Gold.Version>
5.8.1

> <Gold.Id.Protein>
6NUR|6NUR_protein|mol2

> <Gold.PLP.Fitness>
50.2953

> <Gold.PLP.PLP>
-48.8138

> <Gold.PLP.part.hbond>
-1.0000

> <Gold.PLP.part.metal>
0.0000

> <Gold.PLP.part.buried>
-5.8922

> <Gold.PLP.part.nonpolar>
-41.4381

> <Gold.PLP.part.repulsive>
0.3455

> <Gold.PLP.ligand.clash>
0.0000

> <Gold.PLP.ligand.torsion>
0.8099

> <Gold.PLP.Chemscore.Hbond>
1.0000

> <Gold.PLP.Chemscore.CHOScore>
0.0000

> <Gold.PLP.Chemscore.Metal>
0.0000

> <Gold.Chemscore.Hbonds>
donor molecule, donor type, donor heavy atom, donor atom, acceptor molecule, acceptor atom, score
      L1  H    11    28       P1  8028  1.00

> <Gold.PLP.Chemscore.Internal.Correction>
0.1012

> <Gold.Rescore>
     Score         DG    S(hbond)    S(metal)    S(lipo)     H(rot)  DE(clash)    DE(int)     intcor
     18.78     -19.91       1.00        0.00     131.19       1.66       0.20       0.93       ----

> <Gold.Chemscore.Fitness>
18.7761

> <Gold.Chemscore.DG>
-19.9074

> <Gold.Chemscore.ZeroCoef>
-5.4800

> <Gold.Chemscore.Hbond>
0.9999

> <Gold.Chemscore.Metal>
0.0000

> <Gold.Chemscore.Lipo>
131.1926

> <Gold.Chemscore.Internal_Hbond>
0.0000

> <Gold.Chemscore.DEClash>
0.1968

> <Gold.Chemscore.DEInternal>
0.9346

> <Gold.Chemscore.Rot>
1.6648

> <Gold.Chemscore.Internal.Correction>
   9.000000E+99

> <Gold.Chemscore.Hbonds>
donor molecule, donor type, donor heavy atom, donor atom, acceptor molecule, acceptor atom, score
      L1  H    11    28       P1  8028  1.00

> <Gold.Chemscore.Hbond.Weighted>
-3.3398

> <Gold.Chemscore.Metal.Weighted>
-0.0000

> <Gold.Chemscore.Lipo.Weighted>
-15.3495

> <Gold.Chemscore.Internal_Hbond.Weighted>
0.0000

> <Gold.Chemscore.DEClash.Weighted>
0.1968

> <Gold.Chemscore.DEInternal.Weighted>
0.9346

> <Gold.Chemscore.Rot.Weighted>
4.2619

> <Gold.Chemscore.Internal.Correction.Weighted>
   9.000000E+99

> <Gold.Protein.RotatedTorsions>
[ 6907 6896 6895 6894 ] final   98.41 input  -60.11 | X-H torsion
[ 7974 7965 7964 7962 ] final  -15.93 input  175.53 | X-H torsion
[ 8008 7997 7996 7995 ] final   64.44 input   59.86 | X-H torsion
[ 10167 10162 10161 10158 ] final   20.89 input  -65.29 | X-H torsion
[ 10718 10713 10712 10709 ] final   92.10 input   66.30 | X-H torsion
[ 10763 10752 10751 10750 ] final  139.77 input  -60.55 | X-H torsion
[ 11005 11000 10999 10996 ] final -100.67 input  -57.11 | X-H torsion

> <Gold.Protein.ActiveResidues>
 VAL166  LYS551  ARG553  GLY616  TRP617  ASP618  TYR619  PRO620  LYS621  CYS622 
 ASP623  PHE694  ASN695  SER759  ASP760  ASP761  ALA762  ILE779  LEU786  VAL792 
 PHE793  MET794  SER795  GLU796  ALA797  LYS798  CYS799  TRP800  GLU811  SER814 

> <Gold.Protein.RotatedAtoms>
  152.5409  134.0584  159.8140 H   0  0  0  0  0  0  0  0  0  0  0  0  # atno 6907 bound_to 6896
  151.0715  133.5454  159.2634 H   0  0  0  0  0  0  0  0  0  0  0  0  # atno 6908 bound_to 6896
  151.2316  135.0564  159.9043 H   0  0  0  0  0  0  0  0  0  0  0  0  # atno 6909 bound_to 6896
  146.2010  140.3563  142.8423 H   0  0  0  0  0  0  0  0  0  0  0  0  # atno 7974 bound_to 7965
  155.6461  140.3497  155.4732 H   0  0  0  0  0  0  0  0  0  0  0  0  # atno 8008 bound_to 7997
  155.9886  140.1189  157.0683 H   0  0  0  0  0  0  0  0  0  0  0  0  # atno 8009 bound_to 7997
  154.4212  140.1124  156.5520 H   0  0  0  0  0  0  0  0  0  0  0  0  # atno 8010 bound_to 7997
  140.5469  143.9578  150.6553 H   0  0  0  0  0  0  0  0  0  0  0  0  # atno 10167 bound_to 10162
  157.6959  131.0431  150.3831 H   0  0  0  0  0  0  0  0  0  0  0  0  # atno 10718 bound_to 10713
  153.9116  135.3010  155.3448 H   0  0  0  0  0  0  0  0  0  0  0  0  # atno 10763 bound_to 10752
  154.7620  135.4929  153.9486 H   0  0  0  0  0  0  0  0  0  0  0  0  # atno 10764 bound_to 10752
  153.1189  135.6777  153.9471 H   0  0  0  0  0  0  0  0  0  0  0  0  # atno 10765 bound_to 10752
  141.1261  133.8417  157.1133 H   0  0  0  0  0  0  0  0  0  0  0  0  # atno 11005 bound_to 11000
  144.8684  140.7238  143.6062 LP  0  0  0  0  0  0  0  0  0  0  0  0  # atno 17320 bound_to 7965
  145.3482  139.1713  143.4449 LP  0  0  0  0  0  0  0  0  0  0  0  0  # atno 17321 bound_to 7965
  140.2994  143.3271  152.0986 LP  0  0  0  0  0  0  0  0  0  0  0  0  # atno 17342 bound_to 10162
  139.5011  144.6706  151.6251 LP  0  0  0  0  0  0  0  0  0  0  0  0  # atno 17343 bound_to 10162
  156.4242  130.3959  149.6804 LP  0  0  0  0  0  0  0  0  0  0  0  0  # atno 17370 bound_to 10713
  156.4044  130.7691  151.2700 LP  0  0  0  0  0  0  0  0  0  0  0  0  # atno 17371 bound_to 10713
  140.0262  134.9923  157.0690 LP  0  0  0  0  0  0  0  0  0  0  0  0  # atno 17394 bound_to 11000
  140.4359  134.1731  155.7171 LP  0  0  0  0  0  0  0  0  0  0  0  0  # atno 17395 bound_to 11000

$$$$
