AV-unprocessed.smi:514|AV-procd|sdf|2778|dock5
  -GOLD-   2262023243D 1   1.00000     0.00000
 Structure written by MMmdl.
 45 47  0  0  0  0  0  0  0  0  3 V2000
  148.9130  133.3393  155.0564 C   0  0  0  0  0  0  0  0  0  0  0  0
  149.4776  134.4597  155.9325 C   0  0  0  0  0  0  0  0  0  0  0  0
  149.2349  135.7046  155.2995 O   0  0  0  0  0  0  0  0  0  0  0  0
  150.0666  136.7404  155.7937 C   0  0  0  0  0  0  0  0  0  0  0  0
  150.0514  137.9034  154.7884 C   0  0  0  0  0  0  0  0  0  0  0  0
  150.0242  139.2074  155.4457 N   0  0  0  0  0  0  0  0  0  0  0  0
  149.1393  140.2346  155.2836 C   0  0  0  0  0  0  0  0  0  0  0  0
  148.0341  140.1844  154.4208 N   0  0  0  0  0  0  0  0  0  0  0  0
  147.3965  141.3841  153.8757 C   0  0  0  0  0  0  0  0  0  0  0  0
  147.2169  141.2906  152.3497 C   0  0  0  0  0  0  0  0  0  0  0  0
  146.4402  140.0875  151.9899 N   0  3  0  0  0  0  0  0  0  0  0  0
  146.9988  138.8569  152.5845 C   0  0  0  0  0  0  0  0  0  0  0  0
  147.1888  139.0311  154.1030 C   0  0  0  0  0  0  0  0  0  0  0  0
  149.4348  141.3257  155.9945 N   0  0  0  0  0  0  0  0  0  0  0  0
  150.5835  140.9646  156.6780 C   0  0  0  0  0  0  0  0  0  0  0  0
  150.9635  139.6993  156.3603 C   0  0  0  0  0  0  0  0  0  0  0  0
  152.1745  139.0457  156.9077 C   0  0  0  0  0  0  0  0  0  0  0  0
  152.4912  137.9077  156.5679 O   0  0  0  0  0  0  0  0  0  0  0  0
  152.8449  139.8523  157.7900 N   0  5  0  0  0  0  0  0  0  0  0  0
  152.4900  141.1360  158.1447 C   0  0  0  0  0  0  0  0  0  0  0  0
  153.1504  141.7947  158.9492 O   0  0  0  0  0  0  0  0  0  0  0  0
  151.3736  141.7094  157.5953 N   0  0  0  0  0  0  0  0  0  0  0  0
  150.9775  143.0765  157.9450 C   0  0  0  0  0  0  0  0  0  0  0  0
  149.0831  132.3646  155.5139 H   0  0  0  0  0  0  0  0  0  0  0  0
  149.3862  133.3351  154.0743 H   0  0  0  0  0  0  0  0  0  0  0  0
  147.8391  133.4591  154.9113 H   0  0  0  0  0  0  0  0  0  0  0  0
  149.0041  134.4376  156.9151 H   0  0  0  0  0  0  0  0  0  0  0  0
  150.5490  134.3138  156.0777 H   0  0  0  0  0  0  0  0  0  0  0  0
  149.7111  137.0649  156.7718 H   0  0  0  0  0  0  0  0  0  0  0  0
  151.0816  136.3692  155.9357 H   0  0  0  0  0  0  0  0  0  0  0  0
  150.9249  137.8520  154.1390 H   0  0  0  0  0  0  0  0  0  0  0  0
  149.2039  137.8189  154.1131 H   0  0  0  0  0  0  0  0  0  0  0  0
  146.4320  141.5301  154.3638 H   0  0  0  0  0  0  0  0  0  0  0  0
  147.9947  142.2656  154.1082 H   0  0  0  0  0  0  0  0  0  0  0  0
  146.7060  142.1754  151.9696 H   0  0  0  0  0  0  0  0  0  0  0  0
  148.1903  141.2464  151.8592 H   0  0  0  0  0  0  0  0  0  0  0  0
  145.4988  140.2055  152.3358 H   0  0  0  0  0  0  0  0  0  0  0  0
  146.3300  138.0218  152.3764 H   0  0  0  0  0  0  0  0  0  0  0  0
  147.9505  138.6318  152.1024 H   0  0  0  0  0  0  0  0  0  0  0  0
  147.5848  138.1190  154.5381 H   0  0  0  0  0  0  0  0  0  0  0  0
  146.2169  139.1761  154.5774 H   0  0  0  0  0  0  0  0  0  0  0  0
  150.7369  143.1435  159.0067 H   0  0  0  0  0  0  0  0  0  0  0  0
  150.1044  143.4168  157.3889 H   0  0  0  0  0  0  0  0  0  0  0  0
  151.7871  143.7764  157.7334 H   0  0  0  0  0  0  0  0  0  0  0  0
  146.4112  139.9934  150.9848 H   0  0  0  0  0  0  0  0  0  0  0  0
  1  2  1  0  0  0  0
  1 24  1  0  0  0  0
  1 25  1  0  0  0  0
  1 26  1  0  0  0  0
  2  3  1  0  0  0  0
  2 27  1  0  0  0  0
  2 28  1  0  0  0  0
  3  4  1  0  0  0  0
  4  5  1  0  0  0  0
  4 29  1  0  0  0  0
  4 30  1  0  0  0  0
  5  6  1  0  0  0  0
  5 31  1  0  0  0  0
  5 32  1  0  0  0  0
  6 16  1  0  0  0  0
  6  7  1  0  0  0  0
  7  8  1  0  0  0  0
  7 14  2  0  0  0  0
  8 13  1  0  0  0  0
  8  9  1  0  0  0  0
  9 10  1  0  0  0  0
  9 33  1  0  0  0  0
  9 34  1  0  0  0  0
 10 11  1  0  0  0  0
 10 35  1  0  0  0  0
 10 36  1  0  0  0  0
 11 12  1  0  0  0  0
 11 37  1  0  0  0  0
 11 45  1  0  0  0  0
 12 13  1  0  0  0  0
 12 38  1  0  0  0  0
 12 39  1  0  0  0  0
 13 40  1  0  0  0  0
 13 41  1  0  0  0  0
 14 15  1  0  0  0  0
 15 22  1  0  0  0  0
 15 16  2  0  0  0  0
 16 17  1  0  0  0  0
 17 18  2  0  0  0  0
 17 19  1  0  0  0  0
 19 20  1  0  0  0  0
 20 21  2  0  0  0  0
 20 22  1  0  0  0  0
 22 23  1  0  0  0  0
 23 42  1  0  0  0  0
 23 43  1  0  0  0  0
 23 44  1  0  0  0  0
M  CHG  1  11   1
M  CHG  1  19  -1
M  END
> <s_m_source_file>
AV-unprocessed.smi

> <i_m_source_file_index>
514

> <i_lp_mmshare_version>
43012

> <i_f3d_flags>
0

> <s_epik_input>
W0NIM11uMWMoPU8pW25IXWMoPU8pYyhjMTIpbihbQ0gyXVtDSDJdT1tDSDJdW0NIM10pYyhuMilOM1tDSDJdW0NIMl1bTkhdW0NIMl1bQ0gyXTM=

> <s_epik_cmdline>
J2VwaWtfcHl0aG9uJywgJy1waCcsICc3LjAnLCAnLXRuJywgJzgnLCAnLW1hJywgJzIwMCcsICctbWV0YWxfYmluZGluZycsICctaW1hZScsICc8aW5maWxlLm1hZT4nLCAnLW9tYWUnLCAnPG91dGZpbGUubWFlPic=

> <r_epik_Ionization_Penalty>
5.92505

> <r_epik_Ionization_Penalty_Charging>
0.0655308

> <r_epik_Ionization_Penalty_Neutral>
5.85952

> <r_epik_State_Penalty>
5.86593

> <r_epik_Charging_Adjusted_Penalty>
5.93146

> <i_epik_Tot_Q>
0

> <i_epik_Tot_abs_Q>
2

> <r_epik_Metal_State_Penalty>
1.83024

> <b_epik_Metal_Only>
1

> <s_lp_Force_Field>
OPLS_2005

> <r_lp_Energy>
48.6867

> <b_lp_Chiralities_Consistent>
1

> <s_lp_Variant>
AV-unprocessed.smi:514-3

> <Gold.Version>
5.8.1

> <Gold.Id.Protein>
6NUR|6NUR_protein|mol2

> <Gold.PLP.Fitness>
39.8253

> <Gold.PLP.PLP>
-29.2420

> <Gold.PLP.part.hbond>
-2.2670

> <Gold.PLP.part.metal>
0.0000

> <Gold.PLP.part.buried>
-3.7785

> <Gold.PLP.part.nonpolar>
-24.2352

> <Gold.PLP.part.repulsive>
0.9555

> <Gold.PLP.ligand.clash>
0.0000

> <Gold.PLP.ligand.torsion>
0.7885

> <Gold.PLP.Chemscore.Hbond>
4.0000

> <Gold.PLP.Chemscore.CHOScore>
0.0000

> <Gold.PLP.Chemscore.Metal>
0.0000

> <Gold.Chemscore.Hbonds>
donor molecule, donor type, donor heavy atom, donor atom, acceptor molecule, acceptor atom, score
      L1  H    11    37       P1 10175  2.00
      P1  H  7997  8010       L1    19  2.00

> <Gold.PLP.Chemscore.Internal.Correction>
0.1603

> <Gold.Rescore>
     Score         DG    S(hbond)    S(metal)    S(lipo)     H(rot)  DE(clash)    DE(int)     intcor
      8.80     -12.65       1.34        0.00      60.72       1.72       1.30       2.55       ----

> <Gold.Chemscore.Fitness>
8.8033

> <Gold.Chemscore.DG>
-12.6524

> <Gold.Chemscore.ZeroCoef>
-5.4800

> <Gold.Chemscore.Hbond>
1.3399

> <Gold.Chemscore.Metal>
0.0000

> <Gold.Chemscore.Lipo>
60.7186

> <Gold.Chemscore.Internal_Hbond>
0.0000

> <Gold.Chemscore.DEClash>
1.3001

> <Gold.Chemscore.DEInternal>
2.5490

> <Gold.Chemscore.Rot>
1.7214

> <Gold.Chemscore.Internal.Correction>
   9.000000E+99

> <Gold.Chemscore.Hbonds>
donor molecule, donor type, donor heavy atom, donor atom, acceptor molecule, acceptor atom, score
      L1  H    11    37       P1 10175  0.70
      P1  H  7997  8010       L1    19  0.20

> <Gold.Chemscore.Hbond.Weighted>
-4.4752

> <Gold.Chemscore.Metal.Weighted>
-0.0000

> <Gold.Chemscore.Lipo.Weighted>
-7.1041

> <Gold.Chemscore.Internal_Hbond.Weighted>
0.0000

> <Gold.Chemscore.DEClash.Weighted>
1.3001

> <Gold.Chemscore.DEInternal.Weighted>
2.5490

> <Gold.Chemscore.Rot.Weighted>
4.4069

> <Gold.Chemscore.Internal.Correction.Weighted>
   9.000000E+99

> <Gold.Protein.RotatedTorsions>
[ 6907 6896 6895 6894 ] final  100.56 input  -60.11 | X-H torsion
[ 7974 7965 7964 7962 ] final  104.56 input  175.53 | X-H torsion
[ 8008 7997 7996 7995 ] final   35.47 input   59.86 | X-H torsion
[ 10167 10162 10161 10158 ] final   40.68 input  -65.29 | X-H torsion
[ 10718 10713 10712 10709 ] final  -41.39 input   66.30 | X-H torsion
[ 10763 10752 10751 10750 ] final  -62.77 input  -60.55 | X-H torsion
[ 11005 11000 10999 10996 ] final -119.47 input  -57.11 | X-H torsion

> <Gold.Protein.ActiveResidues>
 VAL166  LYS551  ARG553  GLY616  TRP617  ASP618  TYR619  PRO620  LYS621  CYS622 
 ASP623  PHE694  ASN695  SER759  ASP760  ASP761  ALA762  ILE779  LEU786  VAL792 
 PHE793  MET794  SER795  GLU796  ALA797  LYS798  CYS799  TRP800  GLU811  SER814 

> <Gold.Protein.RotatedAtoms>
  152.5369  134.0259  159.8002 H   0  0  0  0  0  0  0  0  0  0  0  0  # atno 6907 bound_to 6896
  151.0437  133.5676  159.2656 H   0  0  0  0  0  0  0  0  0  0  0  0  # atno 6908 bound_to 6896
  151.2636  135.0669  159.9161 H   0  0  0  0  0  0  0  0  0  0  0  0  # atno 6909 bound_to 6896
  145.3312  139.2486  143.3659 H   0  0  0  0  0  0  0  0  0  0  0  0  # atno 7974 bound_to 7965
  155.1717  140.3292  155.4391 H   0  0  0  0  0  0  0  0  0  0  0  0  # atno 8008 bound_to 7997
  156.2508  140.1942  156.6770 H   0  0  0  0  0  0  0  0  0  0  0  0  # atno 8009 bound_to 7997
  154.6333  140.0579  156.9744 H   0  0  0  0  0  0  0  0  0  0  0  0  # atno 8010 bound_to 7997
  140.3718  144.2095  150.6133 H   0  0  0  0  0  0  0  0  0  0  0  0  # atno 10167 bound_to 10162
  156.2709  130.4206  149.8439 H   0  0  0  0  0  0  0  0  0  0  0  0  # atno 10718 bound_to 10713
  154.3049  135.6227  153.5441 H   0  0  0  0  0  0  0  0  0  0  0  0  # atno 10763 bound_to 10752
  152.9836  135.5687  154.5242 H   0  0  0  0  0  0  0  0  0  0  0  0  # atno 10764 bound_to 10752
  154.4880  135.2866  155.1495 H   0  0  0  0  0  0  0  0  0  0  0  0  # atno 10765 bound_to 10752
  141.0213  134.0120  157.3278 H   0  0  0  0  0  0  0  0  0  0  0  0  # atno 11005 bound_to 11000
  146.3045  140.3890  142.8692 LP  0  0  0  0  0  0  0  0  0  0  0  0  # atno 17320 bound_to 7965
  144.8862  140.7465  143.5955 LP  0  0  0  0  0  0  0  0  0  0  0  0  # atno 17321 bound_to 7965
  140.5025  143.2313  151.8656 LP  0  0  0  0  0  0  0  0  0  0  0  0  # atno 17342 bound_to 10162
  139.4803  144.5043  151.9019 LP  0  0  0  0  0  0  0  0  0  0  0  0  # atno 17343 bound_to 10162
  156.5921  130.8511  151.3411 LP  0  0  0  0  0  0  0  0  0  0  0  0  # atno 17370 bound_to 10713
  157.7283  130.9655  150.1738 LP  0  0  0  0  0  0  0  0  0  0  0  0  # atno 17371 bound_to 10713
  139.9148  135.0195  156.7836 LP  0  0  0  0  0  0  0  0  0  0  0  0  # atno 17394 bound_to 11000
  140.6568  133.9681  155.7784 LP  0  0  0  0  0  0  0  0  0  0  0  0  # atno 17395 bound_to 11000

$$$$
