AV-unprocessed.smi:610|AV-procd|sdf|3057|dock1
  -GOLD-   2262023583D 1   1.00000     0.00000
 Structure written by MMmdl.
 38 39  0  0  0  0  0  0  0  0  2 V2000
  151.1079  140.3832  155.6934 C   0  0  0  0  0  0  0  0  0  0  0  0
  149.8976  141.2916  155.9466 C   0  0  2  0  0  0  0  0  0  0  0  0
  149.2137  141.6950  154.6220 C   0  0  0  0  0  0  0  0  0  0  0  0
  148.5166  140.5800  153.9721 N   0  0  0  0  0  0  0  0  0  0  0  0
  147.1939  140.5212  153.6132 C   0  0  0  0  0  0  0  0  0  0  0  0
  146.9940  139.2828  153.0601 C   0  0  0  0  0  0  0  0  0  0  0  0
  148.2033  138.6418  153.0976 N   0  3  0  0  0  0  0  0  0  0  0  0
  149.1290  139.4341  153.6476 C   0  0  0  0  0  0  0  0  0  0  0  0
  150.3385  142.4714  156.6894 N   0  0  0  0  0  0  0  0  0  0  0  0
  151.0203  142.4677  157.8494 C   0  0  0  0  0  0  0  0  0  0  0  0
  151.3629  141.4231  158.4060 O   0  0  0  0  0  0  0  0  0  0  0  0
  151.3551  143.8301  158.5076 C   0  0  0  0  0  0  0  0  0  0  0  0
  150.8715  144.9539  157.7155 N   0  0  0  0  0  0  0  0  0  0  0  0
  150.7529  143.9231  159.9363 C   0  0  0  0  0  0  0  0  0  0  0  0
  151.9247  144.1157  160.9065 C   0  0  0  0  0  0  0  0  0  0  0  0
  153.1501  143.5976  160.1619 C   0  0  0  0  0  0  0  0  0  0  0  0
  152.8817  143.9832  158.7079 C   0  0  0  0  0  0  0  0  0  0  0  0
  150.8131  139.4745  155.1677 H   0  0  0  0  0  0  0  0  0  0  0  0
  151.5759  140.0818  156.6314 H   0  0  0  0  0  0  0  0  0  0  0  0
  151.8645  140.8861  155.0899 H   0  0  0  0  0  0  0  0  0  0  0  0
  149.1902  140.7204  156.5505 H   0  0  0  0  0  0  0  0  0  0  0  0
  148.4917  142.4961  154.7871 H   0  0  0  0  0  0  0  0  0  0  0  0
  149.9508  142.0755  153.9134 H   0  0  0  0  0  0  0  0  0  0  0  0
  146.5093  141.3396  153.7824 H   0  0  0  0  0  0  0  0  0  0  0  0
  146.1055  138.8218  152.6542 H   0  0  0  0  0  0  0  0  0  0  0  0
  150.1640  139.1909  153.8098 H   0  0  0  0  0  0  0  0  0  0  0  0
  150.1071  143.3718  156.2937 H   0  0  0  0  0  0  0  0  0  0  0  0
  151.6477  145.3781  157.2285 H   0  0  0  0  0  0  0  0  0  0  0  0
  150.2448  144.6110  157.0015 H   0  0  0  0  0  0  0  0  0  0  0  0
  150.0334  144.7365  160.0430 H   0  0  0  0  0  0  0  0  0  0  0  0
  150.2149  143.0120  160.2048 H   0  0  0  0  0  0  0  0  0  0  0  0
  152.0521  145.1785  161.1166 H   0  0  0  0  0  0  0  0  0  0  0  0
  151.7680  143.6081  161.8587 H   0  0  0  0  0  0  0  0  0  0  0  0
  154.0814  144.0176  160.5424 H   0  0  0  0  0  0  0  0  0  0  0  0
  153.2103  142.5127  160.2559 H   0  0  0  0  0  0  0  0  0  0  0  0
  153.4725  143.3779  158.0183 H   0  0  0  0  0  0  0  0  0  0  0  0
  153.1932  145.0186  158.5572 H   0  0  0  0  0  0  0  0  0  0  0  0
  148.3746  137.7027  152.7603 H   0  0  0  0  0  0  0  0  0  0  0  0
  1  2  1  0  0  0  0
  1 18  1  0  0  0  0
  1 19  1  0  0  0  0
  1 20  1  0  0  0  0
  2  3  1  0  0  0  0
  2  9  1  0  0  0  0
  2 21  1  0  0  0  0
  3  4  1  0  0  0  0
  3 22  1  0  0  0  0
  3 23  1  0  0  0  0
  4  8  1  0  0  0  0
  4  5  1  0  0  0  0
  5  6  2  0  0  0  0
  5 24  1  0  0  0  0
  6  7  1  0  0  0  0
  6 25  1  0  0  0  0
  7  8  2  0  0  0  0
  7 38  1  0  0  0  0
  8 26  1  0  0  0  0
  9 10  1  0  0  0  0
  9 27  1  0  0  0  0
 10 11  2  0  0  0  0
 10 12  1  0  0  0  0
 12 17  1  0  0  0  0
 12 13  1  0  0  0  0
 12 14  1  0  0  0  0
 13 28  1  0  0  0  0
 13 29  1  0  0  0  0
 14 15  1  0  0  0  0
 14 30  1  0  0  0  0
 14 31  1  0  0  0  0
 15 16  1  0  0  0  0
 15 32  1  0  0  0  0
 15 33  1  0  0  0  0
 16 17  1  0  0  0  0
 16 34  1  0  0  0  0
 16 35  1  0  0  0  0
 17 36  1  0  0  0  0
 17 37  1  0  0  0  0
M  CHG  1   7   1
M  END
> <s_m_source_file>
AV-unprocessed.smi

> <i_m_source_file_index>
610

> <i_lp_mmshare_version>
43012

> <i_f3d_flags>
0

> <s_epik_input>
W2NIXTFuW2NIXVtjSF1uMVtDSDJdW0NAQEhdKFtDSDNdKVtOSF1DKD1PKUMyKFtOSDJdKVtDSDJdW0NIMl1bQ0gyXVtDSDJdMg==

> <s_epik_cmdline>
J2VwaWtfcHl0aG9uJywgJy1waCcsICc3LjAnLCAnLXRuJywgJzgnLCAnLW1hJywgJzIwMCcsICctbWV0YWxfYmluZGluZycsICctaW1hZScsICc8aW5maWxlLm1hZT4nLCAnLW9tYWUnLCAnPG91dGZpbGUubWFlPic=

> <r_epik_Ionization_Penalty>
1.50287

> <r_epik_Ionization_Penalty_Charging>
0

> <r_epik_Ionization_Penalty_Neutral>
1.50287

> <r_epik_State_Penalty>
1.57152

> <r_epik_Charging_Adjusted_Penalty>
1.57152

> <i_epik_Tot_Q>
1

> <i_epik_Tot_abs_Q>
1

> <r_epik_Metal_State_Penalty>
1.8522

> <b_epik_Metal_Only>
0

> <s_lp_Force_Field>
OPLS_2005

> <r_lp_Energy>
22.5232

> <b_lp_Chiralities_Consistent>
1

> <s_lp_Variant>
AV-unprocessed.smi:610-5

> <Gold.Version>
5.8.1

> <Gold.Id.Protein>
6NUR|6NUR_protein|mol2

> <Gold.PLP.Fitness>
47.8733

> <Gold.PLP.PLP>
-36.0448

> <Gold.PLP.part.hbond>
-4.2113

> <Gold.PLP.part.metal>
0.0000

> <Gold.PLP.part.buried>
1.2095

> <Gold.PLP.part.nonpolar>
-33.1851

> <Gold.PLP.part.repulsive>
0.0884

> <Gold.PLP.ligand.clash>
0.0000

> <Gold.PLP.ligand.torsion>
0.1035

> <Gold.PLP.Chemscore.Hbond>
3.9920

> <Gold.PLP.Chemscore.CHOScore>
0.0000

> <Gold.PLP.Chemscore.Metal>
0.0000

> <Gold.Chemscore.Hbonds>
donor molecule, donor type, donor heavy atom, donor atom, acceptor molecule, acceptor atom, score
      L1  H     7    38       P1  7948  2.00
      L1  H     9    27       P1  8028  1.00
      L1  H    13    29       P1  8028  1.00

> <Gold.PLP.Chemscore.Internal.Correction>
0.0595

> <Gold.Rescore>
     Score         DG    S(hbond)    S(metal)    S(lipo)     H(rot)  DE(clash)    DE(int)     intcor
     16.54     -19.77       2.66        0.00      90.45       2.02       1.29       1.94       ----

> <Gold.Chemscore.Fitness>
16.5406

> <Gold.Chemscore.DG>
-19.7748

> <Gold.Chemscore.ZeroCoef>
-5.4800

> <Gold.Chemscore.Hbond>
2.6560

> <Gold.Chemscore.Metal>
0.0000

> <Gold.Chemscore.Lipo>
90.4513

> <Gold.Chemscore.Internal_Hbond>
0.0000

> <Gold.Chemscore.DEClash>
1.2903

> <Gold.Chemscore.DEInternal>
1.9439

> <Gold.Chemscore.Rot>
2.0152

> <Gold.Chemscore.Internal.Correction>
   9.000000E+99

> <Gold.Chemscore.Hbonds>
donor molecule, donor type, donor heavy atom, donor atom, acceptor molecule, acceptor atom, score
      L1  H     7    38       P1  7948  1.00
      L1  H     9    27       P1  8028  0.98
      L1  H    13    29       P1  8028  0.64

> <Gold.Chemscore.Hbond.Weighted>
-8.8709

> <Gold.Chemscore.Metal.Weighted>
-0.0000

> <Gold.Chemscore.Lipo.Weighted>
-10.5828

> <Gold.Chemscore.Internal_Hbond.Weighted>
0.0000

> <Gold.Chemscore.DEClash.Weighted>
1.2903

> <Gold.Chemscore.DEInternal.Weighted>
1.9439

> <Gold.Chemscore.Rot.Weighted>
5.1589

> <Gold.Chemscore.Internal.Correction.Weighted>
   9.000000E+99

> <Gold.Protein.RotatedTorsions>
[ 6907 6896 6895 6894 ] final  126.28 input  -60.11 | X-H torsion
[ 7974 7965 7964 7962 ] final  -15.40 input  175.53 | X-H torsion
[ 8008 7997 7996 7995 ] final   86.51 input   59.86 | X-H torsion
[ 10167 10162 10161 10158 ] final  153.09 input  -65.29 | X-H torsion
[ 10718 10713 10712 10709 ] final -115.29 input   66.30 | X-H torsion
[ 10763 10752 10751 10750 ] final  -71.16 input  -60.55 | X-H torsion
[ 11005 11000 10999 10996 ] final  -74.69 input  -57.11 | X-H torsion

> <Gold.Protein.ActiveResidues>
 VAL166  LYS551  ARG553  GLY616  TRP617  ASP618  TYR619  PRO620  LYS621  CYS622 
 ASP623  PHE694  ASN695  SER759  ASP760  ASP761  ALA762  ILE779  LEU786  VAL792 
 PHE793  MET794  SER795  GLU796  ALA797  LYS798  CYS799  TRP800  GLU811  SER814 

> <Gold.Protein.RotatedAtoms>
  152.3918  133.6689  159.6243 H   0  0  0  0  0  0  0  0  0  0  0  0  # atno 6907 bound_to 6896
  150.7824  133.8942  159.3331 H   0  0  0  0  0  0  0  0  0  0  0  0  # atno 6908 bound_to 6896
  151.6727  135.0975  160.0252 H   0  0  0  0  0  0  0  0  0  0  0  0  # atno 6909 bound_to 6896
  146.2034  140.3487  142.8415 H   0  0  0  0  0  0  0  0  0  0  0  0  # atno 7974 bound_to 7965
  155.9637  140.3391  155.6513 H   0  0  0  0  0  0  0  0  0  0  0  0  # atno 8008 bound_to 7997
  155.6765  140.0733  157.2519 H   0  0  0  0  0  0  0  0  0  0  0  0  # atno 8009 bound_to 7997
  154.4149  140.1682  156.1924 H   0  0  0  0  0  0  0  0  0  0  0  0  # atno 8010 bound_to 7997
  139.4829  144.5303  151.7734 H   0  0  0  0  0  0  0  0  0  0  0  0  # atno 10167 bound_to 10162
  156.0886  130.6073  150.8887 H   0  0  0  0  0  0  0  0  0  0  0  0  # atno 10718 bound_to 10713
  154.4278  135.5971  153.6049 H   0  0  0  0  0  0  0  0  0  0  0  0  # atno 10763 bound_to 10752
  152.9797  135.5968  154.3876 H   0  0  0  0  0  0  0  0  0  0  0  0  # atno 10764 bound_to 10752
  154.3710  135.2841  155.2245 H   0  0  0  0  0  0  0  0  0  0  0  0  # atno 10765 bound_to 10752
  141.1638  133.6920  156.7403 H   0  0  0  0  0  0  0  0  0  0  0  0  # atno 11005 bound_to 11000
  144.8734  140.7304  143.6032 LP  0  0  0  0  0  0  0  0  0  0  0  0  # atno 17320 bound_to 7965
  145.3406  139.1733  143.4487 LP  0  0  0  0  0  0  0  0  0  0  0  0  # atno 17321 bound_to 7965
  140.4828  144.1425  150.5935 LP  0  0  0  0  0  0  0  0  0  0  0  0  # atno 17342 bound_to 10162
  140.4259  143.2590  151.9657 LP  0  0  0  0  0  0  0  0  0  0  0  0  # atno 17343 bound_to 10162
  157.6028  131.0940  150.8930 LP  0  0  0  0  0  0  0  0  0  0  0  0  # atno 17370 bound_to 10713
  156.9084  130.5272  149.5281 LP  0  0  0  0  0  0  0  0  0  0  0  0  # atno 17371 bound_to 10713
  140.2679  134.8415  157.3820 LP  0  0  0  0  0  0  0  0  0  0  0  0  # atno 17394 bound_to 11000
  140.1549  134.4803  155.7935 LP  0  0  0  0  0  0  0  0  0  0  0  0  # atno 17395 bound_to 11000

$$$$
