AV-unprocessed.smi:1518|AV-procd|sdf|6127|dock3
  -GOLD-   22720 6263D 1   1.00000     0.00000
 Structure written by MMmdl.
 46 48  0  0  0  0  0  0  0  0  2 V2000
  151.8055  130.5063  156.5926 C   0  0  0  0  0  0  0  0  0  0  0  0
  151.6877  131.9414  157.1036 C   0  0  0  0  0  0  0  0  0  0  0  0
  152.1698  132.2168  158.2017 O   0  0  0  0  0  0  0  0  0  0  0  0
  150.9904  132.9367  156.2385 C   0  0  0  0  0  0  0  0  0  0  0  0
  150.4593  132.5189  154.9973 C   0  0  0  0  0  0  0  0  0  0  0  0
  149.7955  133.4345  154.1612 C   0  0  0  0  0  0  0  0  0  0  0  0
  149.6558  134.7765  154.5572 C   0  0  0  0  0  0  0  0  0  0  0  0
  150.1749  135.2200  155.7893 C   0  0  0  0  0  0  0  0  0  0  0  0
  149.9897  136.5508  156.0970 O   0  0  0  0  0  0  0  0  0  0  0  0
  150.4238  137.0211  157.3672 C   0  0  0  0  0  0  0  0  0  0  0  0
  150.2363  138.5446  157.4549 C   0  0  1  0  0  0  0  0  0  0  0  0
  150.0652  138.9188  158.8073 O   0  0  0  0  0  0  0  0  0  0  0  0
  151.3692  139.3444  156.7800 C   0  0  0  0  0  0  0  0  0  0  0  0
  151.1153  140.7943  156.7714 N   0  0  0  0  0  0  0  0  0  0  0  0
  150.4807  141.5707  155.8457 C   0  0  0  0  0  0  0  0  0  0  0  0
  149.8581  141.1193  154.5655 C   0  0  0  0  0  0  0  0  0  0  0  0
  150.6340  140.1434  153.9061 O   0  0  0  0  0  0  0  0  0  0  0  0
  150.5052  142.8522  156.3085 N   0  3  0  0  0  0  0  0  0  0  0  0
  151.1604  142.8984  157.5394 C   0  0  0  0  0  0  0  0  0  0  0  0
  151.4295  143.9683  158.3874 C   0  0  0  0  0  0  0  0  0  0  0  0
  152.1187  143.6716  159.5816 C   0  0  0  0  0  0  0  0  0  0  0  0
  152.5111  142.3540  159.8942 C   0  0  0  0  0  0  0  0  0  0  0  0
  152.2335  141.2779  159.0258 C   0  0  0  0  0  0  0  0  0  0  0  0
  151.5536  141.5793  157.8454 C   0  0  0  0  0  0  0  0  0  0  0  0
  150.8438  134.2908  156.6268 C   0  0  0  0  0  0  0  0  0  0  0  0
  152.3707  130.4774  155.6611 H   0  0  0  0  0  0  0  0  0  0  0  0
  150.8176  130.0796  156.4183 H   0  0  0  0  0  0  0  0  0  0  0  0
  152.3215  129.8826  157.3229 H   0  0  0  0  0  0  0  0  0  0  0  0
  150.5553  131.4925  154.6729 H   0  0  0  0  0  0  0  0  0  0  0  0
  149.3927  133.1067  153.2143 H   0  0  0  0  0  0  0  0  0  0  0  0
  149.1446  135.4732  153.9090 H   0  0  0  0  0  0  0  0  0  0  0  0
  149.8195  136.5520  158.1454 H   0  0  0  0  0  0  0  0  0  0  0  0
  151.4664  136.7542  157.5496 H   0  0  0  0  0  0  0  0  0  0  0  0
  149.2977  138.7880  156.9563 H   0  0  0  0  0  0  0  0  0  0  0  0
  149.2165  138.6191  159.0964 H   0  0  0  0  0  0  0  0  0  0  0  0
  152.3314  139.1531  157.2546 H   0  0  0  0  0  0  0  0  0  0  0  0
  151.4802  139.0263  155.7433 H   0  0  0  0  0  0  0  0  0  0  0  0
  148.8698  140.7068  154.7696 H   0  0  0  0  0  0  0  0  0  0  0  0
  149.7162  141.9730  153.9031 H   0  0  0  0  0  0  0  0  0  0  0  0
  150.3094  140.0462  153.0238 H   0  0  0  0  0  0  0  0  0  0  0  0
  151.1276  144.9782  158.1512 H   0  0  0  0  0  0  0  0  0  0  0  0
  152.3489  144.4698  160.2723 H   0  0  0  0  0  0  0  0  0  0  0  0
  153.0348  142.1633  160.8198 H   0  0  0  0  0  0  0  0  0  0  0  0
  152.5334  140.2720  159.2797 H   0  0  0  0  0  0  0  0  0  0  0  0
  151.2469  134.6156  157.5727 H   0  0  0  0  0  0  0  0  0  0  0  0
  150.0965  143.6365  155.8168 H   0  0  0  0  0  0  0  0  0  0  0  0
  1  2  1  0  0  0  0
  1 26  1  0  0  0  0
  1 27  1  0  0  0  0
  1 28  1  0  0  0  0
  2  3  2  0  0  0  0
  2  4  1  0  0  0  0
  4 25  1  0  0  0  0
  4  5  2  0  0  0  0
  5  6  1  0  0  0  0
  5 29  1  0  0  0  0
  6  7  2  0  0  0  0
  6 30  1  0  0  0  0
  7  8  1  0  0  0  0
  7 31  1  0  0  0  0
  8  9  1  0  0  0  0
  8 25  2  0  0  0  0
  9 10  1  0  0  0  0
 10 11  1  0  0  0  0
 10 32  1  0  0  0  0
 10 33  1  0  0  0  0
 11 12  1  0  0  0  0
 11 13  1  0  0  0  0
 11 34  1  0  0  0  0
 12 35  1  0  0  0  0
 13 14  1  0  0  0  0
 13 36  1  0  0  0  0
 13 37  1  0  0  0  0
 14 24  1  0  0  0  0
 14 15  1  0  0  0  0
 15 16  1  0  0  0  0
 15 18  2  0  0  0  0
 16 17  1  0  0  0  0
 16 38  1  0  0  0  0
 16 39  1  0  0  0  0
 17 40  1  0  0  0  0
 18 19  1  0  0  0  0
 18 46  1  0  0  0  0
 19 24  2  0  0  0  0
 19 20  1  0  0  0  0
 20 21  2  0  0  0  0
 20 41  1  0  0  0  0
 21 22  1  0  0  0  0
 21 42  1  0  0  0  0
 22 23  2  0  0  0  0
 22 43  1  0  0  0  0
 23 24  1  0  0  0  0
 23 44  1  0  0  0  0
 25 45  1  0  0  0  0
M  CHG  1  18   1
M  END
> <s_m_source_file>
AV-unprocessed.smi

> <i_m_source_file_index>
1518

> <i_lp_mmshare_version>
43012

> <i_f3d_flags>
0

> <s_epik_input>
W0NIM11DKD1PKWMxW2NIXVtjSF1bY0hdYyhbY0hdMSlPW0NIMl1bQ0BIXShbT0hdKVtDSDJdbihjKG4yKVtDSDJdW09IXSljKGMyMylbY0hdW2NIXVtjSF1bY0hdMw==

> <s_epik_cmdline>
J2VwaWtfcHl0aG9uJywgJy1waCcsICc3LjAnLCAnLXRuJywgJzgnLCAnLW1hJywgJzIwMCcsICctbWV0YWxfYmluZGluZycsICctaW1hZScsICc8aW5maWxlLm1hZT4nLCAnLW9tYWUnLCAnPG91dGZpbGUubWFlPic=

> <r_lp_tautomer_probability>
0.99995

> <r_epik_Ionization_Penalty>
1.40416

> <r_epik_Ionization_Penalty_Charging>
1.4033

> <r_epik_Ionization_Penalty_Neutral>
0.000858184

> <r_epik_State_Penalty>
1.48564

> <r_epik_Charging_Adjusted_Penalty>
2.88894

> <i_epik_Tot_Q>
1

> <i_epik_Tot_abs_Q>
1

> <r_epik_Metal_State_Penalty>
5.52809

> <b_epik_Metal_Only>
0

> <s_lp_Force_Field>
OPLS_2005

> <r_lp_Energy>
25.8835

> <b_lp_Chiralities_Consistent>
1

> <s_lp_Variant>
AV-unprocessed.smi:1518-4

> <Gold.Version>
5.8.1

> <Gold.Id.Protein>
6NUR|6NUR_protein|mol2

> <Gold.PLP.Fitness>
61.3774

> <Gold.PLP.PLP>
-48.4180

> <Gold.PLP.part.hbond>
-4.1811

> <Gold.PLP.part.metal>
0.0000

> <Gold.PLP.part.buried>
-5.8293

> <Gold.PLP.part.nonpolar>
-37.7729

> <Gold.PLP.part.repulsive>
0.1224

> <Gold.PLP.ligand.clash>
0.0000

> <Gold.PLP.ligand.torsion>
0.9415

> <Gold.PLP.Chemscore.Hbond>
4.8960

> <Gold.PLP.Chemscore.CHOScore>
0.0000

> <Gold.PLP.Chemscore.Metal>
0.0000

> <Gold.Chemscore.Hbonds>
donor molecule, donor type, donor heavy atom, donor atom, acceptor molecule, acceptor atom, score
      L1  H    17    40       P1  7957  1.00
      L1  H    18    46       P1  8028  2.00
      P1  H  6896  6907       L1     3  1.00
      P1  H  7989  7998       L1    17  0.20

> <Gold.PLP.Chemscore.Internal.Correction>
0.1543

> <Gold.Rescore>
     Score         DG    S(hbond)    S(metal)    S(lipo)     H(rot)  DE(clash)    DE(int)     intcor
     20.80     -22.14       3.44        0.00     117.22       3.34       0.12       1.22       ----

> <Gold.Chemscore.Fitness>
20.8014

> <Gold.Chemscore.DG>
-22.1367

> <Gold.Chemscore.ZeroCoef>
-5.4800

> <Gold.Chemscore.Hbond>
3.4400

> <Gold.Chemscore.Metal>
0.0000

> <Gold.Chemscore.Lipo>
117.2152

> <Gold.Chemscore.Internal_Hbond>
0.0000

> <Gold.Chemscore.DEClash>
0.1179

> <Gold.Chemscore.DEInternal>
1.2174

> <Gold.Chemscore.Rot>
3.3387

> <Gold.Chemscore.Internal.Correction>
   9.000000E+99

> <Gold.Chemscore.Hbonds>
donor molecule, donor type, donor heavy atom, donor atom, acceptor molecule, acceptor atom, score
      L1  H    17    40       P1  7957  0.97
      L1  H    18    46       P1  8028  0.94
      P1  H  6896  6907       L1     3  0.98

> <Gold.Chemscore.Hbond.Weighted>
-11.4897

> <Gold.Chemscore.Metal.Weighted>
-0.0000

> <Gold.Chemscore.Lipo.Weighted>
-13.7142

> <Gold.Chemscore.Internal_Hbond.Weighted>
0.0000

> <Gold.Chemscore.DEClash.Weighted>
0.1179

> <Gold.Chemscore.DEInternal.Weighted>
1.2174

> <Gold.Chemscore.Rot.Weighted>
8.5471

> <Gold.Chemscore.Internal.Correction.Weighted>
   9.000000E+99

> <Gold.Protein.RotatedTorsions>
[ 6907 6896 6895 6894 ] final  162.89 input  -60.11 | X-H torsion
[ 7974 7965 7964 7962 ] final   29.34 input  175.53 | X-H torsion
[ 8008 7997 7996 7995 ] final   -0.81 input   59.86 | X-H torsion
[ 10167 10162 10161 10158 ] final  -92.31 input  -65.29 | X-H torsion
[ 10718 10713 10712 10709 ] final   28.15 input   66.30 | X-H torsion
[ 10763 10752 10751 10750 ] final   97.56 input  -60.55 | X-H torsion
[ 11005 11000 10999 10996 ] final   54.81 input  -57.11 | X-H torsion

> <Gold.Protein.ActiveResidues>
 VAL166  LYS551  ARG553  GLY616  TRP617  ASP618  TYR619  PRO620  LYS621  CYS622 
 ASP623  PHE694  ASN695  SER759  ASP760  ASP761  ALA762  ILE779  LEU786  VAL792 
 PHE793  MET794  SER795  GLU796  ALA797  LYS798  CYS799  TRP800  GLU811  SER814 

> <Gold.Protein.RotatedAtoms>
  151.9335  133.3618  159.3939 H   0  0  0  0  0  0  0  0  0  0  0  0  # atno 6907 bound_to 6896
  150.7012  134.4512  159.5346 H   0  0  0  0  0  0  0  0  0  0  0  0  # atno 6908 bound_to 6896
  152.2157  134.8460  160.0543 H   0  0  0  0  0  0  0  0  0  0  0  0  # atno 6909 bound_to 6896
  146.1677  139.6935  142.8989 H   0  0  0  0  0  0  0  0  0  0  0  0  # atno 7974 bound_to 7965
  154.6539  140.2575  155.7183 H   0  0  0  0  0  0  0  0  0  0  0  0  # atno 8008 bound_to 7997
  156.2588  140.2862  156.0905 H   0  0  0  0  0  0  0  0  0  0  0  0  # atno 8009 bound_to 7997
  155.1410  140.0380  157.2788 H   0  0  0  0  0  0  0  0  0  0  0  0  # atno 8010 bound_to 7997
  140.3361  143.2968  151.9887 H   0  0  0  0  0  0  0  0  0  0  0  0  # atno 10167 bound_to 10162
  157.2297  130.7018  149.6308 H   0  0  0  0  0  0  0  0  0  0  0  0  # atno 10718 bound_to 10713
  153.2784  135.4179  155.1055 H   0  0  0  0  0  0  0  0  0  0  0  0  # atno 10763 bound_to 10752
  154.8480  135.3489  154.6147 H   0  0  0  0  0  0  0  0  0  0  0  0  # atno 10764 bound_to 10752
  153.6567  135.7050  153.5248 H   0  0  0  0  0  0  0  0  0  0  0  0  # atno 10765 bound_to 10752
  140.0657  134.5540  155.9102 H   0  0  0  0  0  0  0  0  0  0  0  0  # atno 11005 bound_to 11000
  145.4423  141.0423  143.2850 LP  0  0  0  0  0  0  0  0  0  0  0  0  # atno 17320 bound_to 7965
  144.8117  139.5950  143.7026 LP  0  0  0  0  0  0  0  0  0  0  0  0  # atno 17321 bound_to 7965
  139.4848  144.6195  151.7282 LP  0  0  0  0  0  0  0  0  0  0  0  0  # atno 17342 bound_to 10162
  140.5352  144.0667  150.6068 LP  0  0  0  0  0  0  0  0  0  0  0  0  # atno 17343 bound_to 10162
  155.9676  130.4493  150.5652 LP  0  0  0  0  0  0  0  0  0  0  0  0  # atno 17370 bound_to 10713
  157.3491  131.0730  151.1727 LP  0  0  0  0  0  0  0  0  0  0  0  0  # atno 17371 bound_to 10713
  141.1991  133.6605  156.5829 LP  0  0  0  0  0  0  0  0  0  0  0  0  # atno 17394 bound_to 11000
  140.3703  134.7611  157.4594 LP  0  0  0  0  0  0  0  0  0  0  0  0  # atno 17395 bound_to 11000

$$$$
