AV-unprocessed.smi:739|AV-procd|sdf|3543|dock3
  -GOLD-   22720 0533D 1   1.00000     0.00000
 Structure written by MMmdl.
 32 34  0  0  0  0  0  0  0  0  1 V2000
  149.6550  140.3251  153.8054 O   0  0  0  0  0  0  0  0  0  0  0  0
  149.2864  140.8597  155.0602 C   0  0  1  0  0  0  0  0  0  0  0  0
  150.3771  141.8557  155.5014 C   0  0  0  0  0  0  0  0  0  0  0  0
  151.2615  141.2928  156.5068 N   0  0  0  0  0  0  0  0  0  0  0  0
  151.9054  140.1115  156.4458 C   0  0  0  0  0  0  0  0  0  0  0  0
  152.6624  139.7755  157.4864 N   0  0  0  0  0  0  0  0  0  0  0  0
  152.4906  140.8664  158.3212 C   0  0  0  0  0  0  0  0  0  0  0  0
  153.0250  141.1337  159.6018 C   0  0  0  0  0  0  0  0  0  0  0  0
  152.7007  142.3291  160.2765 C   0  0  0  0  0  0  0  0  0  0  0  0
  153.2203  142.5685  161.5038 F   0  0  0  0  0  0  0  0  0  0  0  0
  151.8393  143.2745  159.6811 C   0  0  0  0  0  0  0  0  0  0  0  0
  151.5308  144.4185  160.3367 F   0  0  0  0  0  0  0  0  0  0  0  0
  151.2978  143.0314  158.4046 C   0  0  0  0  0  0  0  0  0  0  0  0
  151.6216  141.8362  157.7360 C   0  0  0  0  0  0  0  0  0  0  0  0
  147.9024  141.4940  155.0320 C   0  0  0  0  0  0  0  0  0  0  0  0
  147.0605  141.3980  156.1611 C   0  0  0  0  0  0  0  0  0  0  0  0
  145.7917  142.0090  156.1551 C   0  0  0  0  0  0  0  0  0  0  0  0
  145.3563  142.7184  155.0194 C   0  0  0  0  0  0  0  0  0  0  0  0
  144.1377  143.3083  155.0149 F   0  0  0  0  0  0  0  0  0  0  0  0
  146.1903  142.8160  153.8894 C   0  0  0  0  0  0  0  0  0  0  0  0
  147.4597  142.2059  153.8952 C   0  0  0  0  0  0  0  0  0  0  0  0
  149.1207  140.7300  153.1391 H   0  0  0  0  0  0  0  0  0  0  0  0
  149.2714  140.0205  155.7572 H   0  0  0  0  0  0  0  0  0  0  0  0
  150.9890  142.1443  154.6453 H   0  0  0  0  0  0  0  0  0  0  0  0
  149.9340  142.7735  155.8901 H   0  0  0  0  0  0  0  0  0  0  0  0
  151.8096  139.4594  155.5898 H   0  0  0  0  0  0  0  0  0  0  0  0
  153.6847  140.4170  160.0679 H   0  0  0  0  0  0  0  0  0  0  0  0
  150.6369  143.7531  157.9483 H   0  0  0  0  0  0  0  0  0  0  0  0
  147.3901  140.8652  157.0410 H   0  0  0  0  0  0  0  0  0  0  0  0
  145.1538  141.9362  157.0235 H   0  0  0  0  0  0  0  0  0  0  0  0
  145.8584  143.3624  153.0189 H   0  0  0  0  0  0  0  0  0  0  0  0
  148.0964  142.2954  153.0270 H   0  0  0  0  0  0  0  0  0  0  0  0
  1  2  1  0  0  0  0
  1 22  1  0  0  0  0
  2  3  1  0  0  0  0
  2 15  1  0  0  0  0
  2 23  1  0  0  0  0
  3  4  1  0  0  0  0
  3 24  1  0  0  0  0
  3 25  1  0  0  0  0
  4 14  1  0  0  0  0
  4  5  1  0  0  0  0
  5  6  2  0  0  0  0
  5 26  1  0  0  0  0
  6  7  1  0  0  0  0
  7 14  2  0  0  0  0
  7  8  1  0  0  0  0
  8  9  2  0  0  0  0
  8 27  1  0  0  0  0
  9 10  1  0  0  0  0
  9 11  1  0  0  0  0
 11 12  1  0  0  0  0
 11 13  2  0  0  0  0
 13 14  1  0  0  0  0
 13 28  1  0  0  0  0
 15 21  1  0  0  0  0
 15 16  2  0  0  0  0
 16 17  1  0  0  0  0
 16 29  1  0  0  0  0
 17 18  2  0  0  0  0
 17 30  1  0  0  0  0
 18 19  1  0  0  0  0
 18 20  1  0  0  0  0
 20 21  2  0  0  0  0
 20 31  1  0  0  0  0
 21 32  1  0  0  0  0
M  END
> <s_m_source_file>
AV-unprocessed.smi

> <i_m_source_file_index>
739

> <i_lp_mmshare_version>
43012

> <i_f3d_flags>
0

> <s_epik_input>
W2NIXTFbY0hdYyhGKVtjSF1bY0hdYzFbQ0BIXShbT0hdKVtDSDJdbihbY0hdbjIpYyhjMjMpW2NIXWMoRiljKEYpW2NIXTM=

> <s_epik_cmdline>
J2VwaWtfcHl0aG9uJywgJy1waCcsICc3LjAnLCAnLXRuJywgJzgnLCAnLW1hJywgJzIwMCcsICctbWV0YWxfYmluZGluZycsICctaW1hZScsICc8aW5maWxlLm1hZT4nLCAnLW9tYWUnLCAnPG91dGZpbGUubWFlPic=

> <r_epik_Ionization_Penalty>
0.0156356

> <r_epik_Ionization_Penalty_Charging>
0

> <r_epik_Ionization_Penalty_Neutral>
0.0156356

> <r_epik_State_Penalty>
0.0122974

> <r_epik_Charging_Adjusted_Penalty>
0.0122974

> <i_epik_Tot_Q>
0

> <i_epik_Tot_abs_Q>
0

> <r_epik_Metal_State_Penalty>
1.24258e-05

> <b_epik_Metal_Only>
0

> <s_lp_Force_Field>
OPLS_2005

> <r_lp_Energy>
11.0695

> <b_lp_Chiralities_Consistent>
1

> <s_lp_Variant>
AV-unprocessed.smi:739-2

> <Gold.Version>
5.8.1

> <Gold.Id.Protein>
6NUR|6NUR_protein|mol2

> <Gold.PLP.Fitness>
50.9514

> <Gold.PLP.PLP>
-48.3024

> <Gold.PLP.part.hbond>
-3.0000

> <Gold.PLP.part.metal>
0.0000

> <Gold.PLP.part.buried>
-6.1636

> <Gold.PLP.part.nonpolar>
-37.5451

> <Gold.PLP.part.repulsive>
0.0000

> <Gold.PLP.ligand.clash>
0.0000

> <Gold.PLP.ligand.torsion>
1.4017

> <Gold.PLP.Chemscore.Hbond>
1.8128

> <Gold.PLP.Chemscore.CHOScore>
0.0000

> <Gold.PLP.Chemscore.Metal>
0.0000

> <Gold.Chemscore.Hbonds>
donor molecule, donor type, donor heavy atom, donor atom, acceptor molecule, acceptor atom, score
      L1  H     1    22       P1  7957  0.18
      P1  H  7989  7998       L1     1  0.60
      P1  H  7997  8010       L1     6  1.00

> <Gold.PLP.Chemscore.Internal.Correction>
0.0141

> <Gold.Rescore>
     Score         DG    S(hbond)    S(metal)    S(lipo)     H(rot)  DE(clash)    DE(int)     intcor
     13.11     -14.71       0.86        0.00      99.58       2.07       0.38       1.22       ----

> <Gold.Chemscore.Fitness>
13.1052

> <Gold.Chemscore.DG>
-14.7065

> <Gold.Chemscore.ZeroCoef>
-5.4800

> <Gold.Chemscore.Hbond>
0.8607

> <Gold.Chemscore.Metal>
0.0000

> <Gold.Chemscore.Lipo>
99.5818

> <Gold.Chemscore.Internal_Hbond>
0.0000

> <Gold.Chemscore.DEClash>
0.3814

> <Gold.Chemscore.DEInternal>
1.2199

> <Gold.Chemscore.Rot>
2.0700

> <Gold.Chemscore.Internal.Correction>
   9.000000E+99

> <Gold.Chemscore.Hbonds>
donor molecule, donor type, donor heavy atom, donor atom, acceptor molecule, acceptor atom, score
      L1  H     1    22       P1  7957  0.19
      P1  H  7989  7998       L1     1  0.21
      P1  H  7997  8010       L1     6  0.10

> <Gold.Chemscore.Hbond.Weighted>
-2.8747

> <Gold.Chemscore.Metal.Weighted>
-0.0000

> <Gold.Chemscore.Lipo.Weighted>
-11.6511

> <Gold.Chemscore.Internal_Hbond.Weighted>
0.0000

> <Gold.Chemscore.DEClash.Weighted>
0.3814

> <Gold.Chemscore.DEInternal.Weighted>
1.2199

> <Gold.Chemscore.Rot.Weighted>
5.2992

> <Gold.Chemscore.Internal.Correction.Weighted>
   9.000000E+99

> <Gold.Protein.RotatedTorsions>
[ 6907 6896 6895 6894 ] final -112.93 input  -60.11 | X-H torsion
[ 7974 7965 7964 7962 ] final  168.31 input  175.53 | X-H torsion
[ 8008 7997 7996 7995 ] final   53.38 input   59.86 | X-H torsion
[ 10167 10162 10161 10158 ] final  103.55 input  -65.29 | X-H torsion
[ 10718 10713 10712 10709 ] final  -96.99 input   66.30 | X-H torsion
[ 10763 10752 10751 10750 ] final   85.08 input  -60.55 | X-H torsion
[ 11005 11000 10999 10996 ] final  -29.87 input  -57.11 | X-H torsion

> <Gold.Protein.ActiveResidues>
 VAL166  LYS551  ARG553  GLY616  TRP617  ASP618  TYR619  PRO620  LYS621  CYS622 
 ASP623  PHE694  ASN695  SER759  ASP760  ASP761  ALA762  ILE779  LEU786  VAL792 
 PHE793  MET794  SER795  GLU796  ALA797  LYS798  CYS799  TRP800  GLU811  SER814 

> <Gold.Protein.RotatedAtoms>
  150.7793  133.9018  159.3343 H   0  0  0  0  0  0  0  0  0  0  0  0  # atno 6907 bound_to 6896
  151.6885  135.0948  160.0238 H   0  0  0  0  0  0  0  0  0  0  0  0  # atno 6908 bound_to 6896
  152.3839  133.6546  159.6219 H   0  0  0  0  0  0  0  0  0  0  0  0  # atno 6909 bound_to 6896
  144.7393  139.8888  143.6401 H   0  0  0  0  0  0  0  0  0  0  0  0  # atno 7974 bound_to 7965
  155.4674  140.3464  155.4321 H   0  0  0  0  0  0  0  0  0  0  0  0  # atno 8008 bound_to 7997
  156.1122  140.1464  156.9351 H   0  0  0  0  0  0  0  0  0  0  0  0  # atno 8009 bound_to 7997
  154.4764  140.0883  156.7252 H   0  0  0  0  0  0  0  0  0  0  0  0  # atno 8010 bound_to 7997
  139.7253  144.7049  151.0807 H   0  0  0  0  0  0  0  0  0  0  0  0  # atno 10167 bound_to 10162
  156.0074  130.5175  150.6308 H   0  0  0  0  0  0  0  0  0  0  0  0  # atno 10718 bound_to 10713
  153.1441  135.4630  154.9540 H   0  0  0  0  0  0  0  0  0  0  0  0  # atno 10763 bound_to 10752
  154.7771  135.3177  154.8070 H   0  0  0  0  0  0  0  0  0  0  0  0  # atno 10764 bound_to 10752
  153.8588  135.6914  153.4839 H   0  0  0  0  0  0  0  0  0  0  0  0  # atno 10765 bound_to 10752
  140.9333  133.7324  156.0969 H   0  0  0  0  0  0  0  0  0  0  0  0  # atno 11005 bound_to 11000
  146.1157  139.4168  143.0260 LP  0  0  0  0  0  0  0  0  0  0  0  0  # atno 17320 bound_to 7965
  145.7378  141.0019  143.1317 LP  0  0  0  0  0  0  0  0  0  0  0  0  # atno 17321 bound_to 7965
  140.7761  143.5112  150.9650 LP  0  0  0  0  0  0  0  0  0  0  0  0  # atno 17342 bound_to 10162
  139.8800  143.7084  152.3158 LP  0  0  0  0  0  0  0  0  0  0  0  0  # atno 17343 bound_to 10162
  157.4107  131.0823  151.1224 LP  0  0  0  0  0  0  0  0  0  0  0  0  # atno 17370 bound_to 10713
  157.1856  130.6329  149.5687 LP  0  0  0  0  0  0  0  0  0  0  0  0  # atno 17371 bound_to 10713
  140.7832  134.3701  157.5482 LP  0  0  0  0  0  0  0  0  0  0  0  0  # atno 17394 bound_to 11000
  139.8802  134.9095  156.2992 LP  0  0  0  0  0  0  0  0  0  0  0  0  # atno 17395 bound_to 11000

$$$$
