AV-unprocessed.smi:1080|AV-procd|sdf|4706|dock9
  -GOLD-   22720 3233D 1   1.00000     0.00000
 Structure written by MMmdl.
 48 50  0  0  0  0  0  0  0  0  1 V2000
  150.4522  136.8740  156.6721 O   0  0  0  0  0  0  0  0  0  0  0  0
  149.8953  137.0318  155.5861 C   0  0  0  0  0  0  0  0  0  0  0  0
  149.5056  136.0468  154.7575 N   0  0  0  0  0  0  0  0  0  0  0  0
  149.6322  134.6386  154.9123 C   0  0  0  0  0  0  0  0  0  0  0  0
  150.4781  134.1700  155.9394 C   0  0  0  0  0  0  0  0  0  0  0  0
  150.6339  132.7803  156.1121 C   0  0  0  0  0  0  0  0  0  0  0  0
  150.0179  131.8631  155.3375 N   0  0  0  0  0  0  0  0  0  0  0  0
  149.2177  132.3119  154.3476 C   0  0  0  0  0  0  0  0  0  0  0  0
  148.9937  133.6792  154.0890 C   0  0  0  0  0  0  0  0  0  0  0  0
  149.6108  138.2351  155.0661 N   0  0  0  0  0  0  0  0  0  0  0  0
  149.9087  139.5266  155.6802 C   0  0  2  0  0  0  0  0  0  0  0  0
  151.3580  139.5386  156.2009 C   0  0  0  0  0  0  0  0  0  0  0  0
  151.6820  140.8491  156.9374 C   0  0  0  0  0  0  0  0  0  0  0  0
  150.6909  141.1102  158.0909 C   0  0  1  0  0  0  0  0  0  0  0  0
  151.0361  142.4302  158.8152 C   0  0  0  0  0  0  0  0  0  0  0  0
  150.1633  143.2964  158.8928 O   0  0  0  0  0  0  0  0  0  0  0  0
  152.2618  142.6003  159.3731 N   0  0  0  0  0  0  0  0  0  0  0  0
  152.5679  143.7297  160.2602 C   0  0  0  0  0  0  0  0  0  0  0  0
  152.5148  143.2441  161.7191 C   0  0  0  0  0  0  0  0  0  0  0  0
  153.7627  141.9542  162.0309 S   0  0  0  0  0  0  0  0  0  0  0  0
  153.4324  140.8522  160.6196 C   0  0  0  0  0  0  0  0  0  0  0  0
  153.3787  141.6502  159.3069 C   0  0  0  0  0  0  0  0  0  0  0  0
  149.2435  141.1143  157.5479 C   0  0  0  0  0  0  0  0  0  0  0  0
  148.9147  139.7987  156.8240 C   0  0  0  0  0  0  0  0  0  0  0  0
  149.1121  136.3456  153.8772 H   0  0  0  0  0  0  0  0  0  0  0  0
  150.9972  134.8591  156.5895 H   0  0  0  0  0  0  0  0  0  0  0  0
  151.2719  132.3956  156.8940 H   0  0  0  0  0  0  0  0  0  0  0  0
  148.7434  131.5577  153.7372 H   0  0  0  0  0  0  0  0  0  0  0  0
  148.3518  133.9544  153.2673 H   0  0  0  0  0  0  0  0  0  0  0  0
  149.1531  138.2617  154.1669 H   0  0  0  0  0  0  0  0  0  0  0  0
  149.8036  140.3285  154.9472 H   0  0  0  0  0  0  0  0  0  0  0  0
  151.5155  138.6976  156.8778 H   0  0  0  0  0  0  0  0  0  0  0  0
  152.0535  139.4023  155.3718 H   0  0  0  0  0  0  0  0  0  0  0  0
  152.7035  140.8064  157.3173 H   0  0  0  0  0  0  0  0  0  0  0  0
  151.6541  141.6773  156.2273 H   0  0  0  0  0  0  0  0  0  0  0  0
  150.7353  140.2811  158.7955 H   0  0  0  0  0  0  0  0  0  0  0  0
  153.5549  144.1349  160.0328 H   0  0  0  0  0  0  0  0  0  0  0  0
  151.8774  144.5630  160.1244 H   0  0  0  0  0  0  0  0  0  0  0  0
  152.6912  144.0745  162.4029 H   0  0  0  0  0  0  0  0  0  0  0  0
  151.5263  142.8448  161.9496 H   0  0  0  0  0  0  0  0  0  0  0  0
  154.2173  140.0972  160.5747 H   0  0  0  0  0  0  0  0  0  0  0  0
  152.4915  140.3273  160.7883 H   0  0  0  0  0  0  0  0  0  0  0  0
  153.3187  140.9838  158.4477 H   0  0  0  0  0  0  0  0  0  0  0  0
  154.3169  142.1891  159.1669 H   0  0  0  0  0  0  0  0  0  0  0  0
  148.5367  141.2655  158.3648 H   0  0  0  0  0  0  0  0  0  0  0  0
  149.0964  141.9435  156.8539 H   0  0  0  0  0  0  0  0  0  0  0  0
  147.8974  139.8396  156.4327 H   0  0  0  0  0  0  0  0  0  0  0  0
  148.9376  138.9762  157.5405 H   0  0  0  0  0  0  0  0  0  0  0  0
  1  2  2  0  0  0  0
  2  3  1  0  0  0  0
  2 10  1  0  0  0  0
  3  4  1  0  0  0  0
  3 25  1  0  0  0  0
  4  9  1  0  0  0  0
  4  5  2  0  0  0  0
  5  6  1  0  0  0  0
  5 26  1  0  0  0  0
  6  7  2  0  0  0  0
  6 27  1  0  0  0  0
  7  8  1  0  0  0  0
  8  9  2  0  0  0  0
  8 28  1  0  0  0  0
  9 29  1  0  0  0  0
 10 11  1  0  0  0  0
 10 30  1  0  0  0  0
 11 24  1  0  0  0  0
 11 12  1  0  0  0  0
 11 31  1  0  0  0  0
 12 13  1  0  0  0  0
 12 32  1  0  0  0  0
 12 33  1  0  0  0  0
 13 14  1  0  0  0  0
 13 34  1  0  0  0  0
 13 35  1  0  0  0  0
 14 15  1  0  0  0  0
 14 23  1  0  0  0  0
 14 36  1  0  0  0  0
 15 16  2  0  0  0  0
 15 17  1  0  0  0  0
 17 22  1  0  0  0  0
 17 18  1  0  0  0  0
 18 19  1  0  0  0  0
 18 37  1  0  0  0  0
 18 38  1  0  0  0  0
 19 20  1  0  0  0  0
 19 39  1  0  0  0  0
 19 40  1  0  0  0  0
 20 21  1  0  0  0  0
 21 22  1  0  0  0  0
 21 41  1  0  0  0  0
 21 42  1  0  0  0  0
 22 43  1  0  0  0  0
 22 44  1  0  0  0  0
 23 24  1  0  0  0  0
 23 45  1  0  0  0  0
 23 46  1  0  0  0  0
 24 47  1  0  0  0  0
 24 48  1  0  0  0  0
M  END
> <s_m_source_file>
AV-unprocessed.smi

> <i_m_source_file_index>
1080

> <i_lp_mmshare_version>
43012

> <i_f3d_flags>
0

> <s_epik_input>
W2NIXTFbY0hdbltjSF1bY0hdYzFbTkhdQyg9TylbTkhdW0NAQEhdMltDSDJdW0NIMl1bQ0BIXShbQ0gyXVtDSDJdMilDKD1PKU4zW0NIMl1bQ0gyXVNbQ0gyXVtDSDJdMw==

> <s_epik_cmdline>
J2VwaWtfcHl0aG9uJywgJy1waCcsICc3LjAnLCAnLXRuJywgJzgnLCAnLW1hJywgJzIwMCcsICctbWV0YWxfYmluZGluZycsICctaW1hZScsICc8aW5maWxlLm1hZT4nLCAnLW9tYWUnLCAnPG91dGZpbGUubWFlPic=

> <r_epik_Ionization_Penalty>
0.118325

> <r_epik_Ionization_Penalty_Charging>
0

> <r_epik_Ionization_Penalty_Neutral>
0.118325

> <r_epik_State_Penalty>
0.107868

> <r_epik_Charging_Adjusted_Penalty>
0.107868

> <i_epik_Tot_Q>
0

> <i_epik_Tot_abs_Q>
0

> <r_epik_Metal_State_Penalty>
0.0897632

> <b_epik_Metal_Only>
0

> <s_lp_Force_Field>
OPLS_2005

> <r_lp_Energy>
33.2651

> <b_lp_Chiralities_Consistent>
1

> <s_lp_Variant>
AV-unprocessed.smi:1080-1

> <Gold.Version>
5.8.1

> <Gold.Id.Protein>
6NUR|6NUR_protein|mol2

> <Gold.PLP.Fitness>
47.3020

> <Gold.PLP.PLP>
-44.7220

> <Gold.PLP.part.hbond>
-1.0000

> <Gold.PLP.part.metal>
0.0000

> <Gold.PLP.part.buried>
-6.4739

> <Gold.PLP.part.nonpolar>
-37.3984

> <Gold.PLP.part.repulsive>
0.1845

> <Gold.PLP.ligand.clash>
0.0000

> <Gold.PLP.ligand.torsion>
0.2399

> <Gold.PLP.Chemscore.Hbond>
1.0000

> <Gold.PLP.Chemscore.CHOScore>
0.0000

> <Gold.PLP.Chemscore.Metal>
0.0000

> <Gold.Chemscore.Hbonds>
donor molecule, donor type, donor heavy atom, donor atom, acceptor molecule, acceptor atom, score
      L1  H     3    25       P1  7948  1.00

> <Gold.PLP.Chemscore.Internal.Correction>
0.0598

> <Gold.Rescore>
     Score         DG    S(hbond)    S(metal)    S(lipo)     H(rot)  DE(clash)    DE(int)     intcor
     15.28     -17.94       0.94        0.00     106.61       1.23       0.00       2.66       ----

> <Gold.Chemscore.Fitness>
15.2767

> <Gold.Chemscore.DG>
-17.9410

> <Gold.Chemscore.ZeroCoef>
-5.4800

> <Gold.Chemscore.Hbond>
0.9424

> <Gold.Chemscore.Metal>
0.0000

> <Gold.Chemscore.Lipo>
106.6108

> <Gold.Chemscore.Internal_Hbond>
0.0000

> <Gold.Chemscore.DEClash>
0.0009

> <Gold.Chemscore.DEInternal>
2.6634

> <Gold.Chemscore.Rot>
1.2344

> <Gold.Chemscore.Internal.Correction>
   9.000000E+99

> <Gold.Chemscore.Hbonds>
donor molecule, donor type, donor heavy atom, donor atom, acceptor molecule, acceptor atom, score
      L1  H     3    25       P1  7948  0.89

> <Gold.Chemscore.Hbond.Weighted>
-3.1475

> <Gold.Chemscore.Metal.Weighted>
-0.0000

> <Gold.Chemscore.Lipo.Weighted>
-12.4735

> <Gold.Chemscore.Internal_Hbond.Weighted>
0.0000

> <Gold.Chemscore.DEClash.Weighted>
0.0009

> <Gold.Chemscore.DEInternal.Weighted>
2.6634

> <Gold.Chemscore.Rot.Weighted>
3.1600

> <Gold.Chemscore.Internal.Correction.Weighted>
   9.000000E+99

> <Gold.Protein.RotatedTorsions>
[ 6907 6896 6895 6894 ] final    5.40 input  -60.11 | X-H torsion
[ 7974 7965 7964 7962 ] final  -99.21 input  175.53 | X-H torsion
[ 8008 7997 7996 7995 ] final -117.57 input   59.86 | X-H torsion
[ 10167 10162 10161 10158 ] final   77.05 input  -65.29 | X-H torsion
[ 10718 10713 10712 10709 ] final  136.37 input   66.30 | X-H torsion
[ 10763 10752 10751 10750 ] final   -3.76 input  -60.55 | X-H torsion
[ 11005 11000 10999 10996 ] final  110.83 input  -57.11 | X-H torsion

> <Gold.Protein.ActiveResidues>
 VAL166  LYS551  ARG553  GLY616  TRP617  ASP618  TYR619  PRO620  LYS621  CYS622 
 ASP623  PHE694  ASN695  SER759  ASP760  ASP761  ALA762  ILE779  LEU786  VAL792 
 PHE793  MET794  SER795  GLU796  ALA797  LYS798  CYS799  TRP800  GLU811  SER814 

> <Gold.Protein.RotatedAtoms>
  151.6569  135.0994  160.0171 H   0  0  0  0  0  0  0  0  0  0  0  0  # atno 6907 bound_to 6896
  152.3969  133.6756  159.6292 H   0  0  0  0  0  0  0  0  0  0  0  0  # atno 6908 bound_to 6896
  150.7875  133.8775  159.3317 H   0  0  0  0  0  0  0  0  0  0  0  0  # atno 6909 bound_to 6896
  145.3106  140.9399  143.2772 H   0  0  0  0  0  0  0  0  0  0  0  0  # atno 7974 bound_to 7965
  155.0858  140.0394  157.2653 H   0  0  0  0  0  0  0  0  0  0  0  0  # atno 8008 bound_to 7997
  154.6871  140.2645  155.6825 H   0  0  0  0  0  0  0  0  0  0  0  0  # atno 8009 bound_to 7997
  156.2715  140.2767  156.1436 H   0  0  0  0  0  0  0  0  0  0  0  0  # atno 8010 bound_to 7997
  139.9857  144.5794  150.7861 H   0  0  0  0  0  0  0  0  0  0  0  0  # atno 10167 bound_to 10162
  157.4474  131.1063  151.0074 H   0  0  0  0  0  0  0  0  0  0  0  0  # atno 10718 bound_to 10713
  153.3757  135.6996  153.6604 H   0  0  0  0  0  0  0  0  0  0  0  0  # atno 10763 bound_to 10752
  153.5236  135.3607  155.2644 H   0  0  0  0  0  0  0  0  0  0  0  0  # atno 10764 bound_to 10752
  154.8686  135.4163  154.3044 H   0  0  0  0  0  0  0  0  0  0  0  0  # atno 10765 bound_to 10752
  139.8890  134.9493  156.6338 H   0  0  0  0  0  0  0  0  0  0  0  0  # atno 11005 bound_to 11000
  144.9019  139.4638  143.6628 LP  0  0  0  0  0  0  0  0  0  0  0  0  # atno 17320 bound_to 7965
  146.3119  139.7778  142.9013 LP  0  0  0  0  0  0  0  0  0  0  0  0  # atno 17321 bound_to 7965
  140.7473  143.2904  151.3347 LP  0  0  0  0  0  0  0  0  0  0  0  0  # atno 17342 bound_to 10162
  139.6377  144.0600  152.2529 LP  0  0  0  0  0  0  0  0  0  0  0  0  # atno 17343 bound_to 10162
  157.0916  130.5944  149.5441 LP  0  0  0  0  0  0  0  0  0  0  0  0  # atno 17370 bound_to 10713
  155.9973  130.5044  150.7528 LP  0  0  0  0  0  0  0  0  0  0  0  0  # atno 17371 bound_to 10713
  140.7646  133.8789  155.8444 LP  0  0  0  0  0  0  0  0  0  0  0  0  # atno 17394 bound_to 11000
  140.9893  134.1300  157.4422 LP  0  0  0  0  0  0  0  0  0  0  0  0  # atno 17395 bound_to 11000

$$$$
