AV-unprocessed.smi:282|AV-procd|sdf|2121|dock6
  -GOLD-   2262021423D 1   1.00000     0.00000
 Structure written by MMmdl.
 65 69  0  0  0  0  0  0  0  0  2 V2000
  147.4106  141.5092  155.9475 C   0  0  0  0  0  0  0  0  0  0  0  0
  148.9168  141.3647  155.6912 C   0  0  0  0  0  0  0  0  0  0  0  0
  149.7347  140.9601  156.9421 C   0  0  2  0  0  0  0  0  0  0  0  0
  149.5320  141.9123  158.1392 C   0  0  0  0  0  0  0  0  0  0  0  0
  150.1923  143.2265  157.9169 N   0  3  1  0  0  0  0  0  0  0  0  0
  149.9381  144.2105  159.0014 C   0  0  0  0  0  0  0  0  0  0  0  0
  150.7688  143.9104  160.2637 C   0  0  0  0  0  0  0  0  0  0  0  0
  152.2638  143.8163  159.9297 C   0  0  0  0  0  0  0  0  0  0  0  0
  152.4993  142.7950  158.8081 C   0  0  0  0  0  0  0  0  0  0  0  0
  151.6394  143.1227  157.5672 C   0  0  1  0  0  0  0  0  0  0  0  0
  151.8692  142.1261  156.4137 C   0  0  0  0  0  0  0  0  0  0  0  0
  151.1665  140.8649  156.6471 N   0  0  0  0  0  0  0  0  0  0  0  0
  151.5786  139.7684  155.9609 C   0  0  0  0  0  0  0  0  0  0  0  0
  152.6820  139.8458  155.1703 N   0  0  0  0  0  0  0  0  0  0  0  0
  153.0947  138.7775  154.4818 C   0  0  0  0  0  0  0  0  0  0  0  0
  152.5657  137.5534  154.4456 N   0  0  0  0  0  0  0  0  0  0  0  0
  151.4654  137.4656  155.2467 C   0  0  0  0  0  0  0  0  0  0  0  0
  150.9054  138.5161  156.0270 C   0  0  0  0  0  0  0  0  0  0  0  0
  149.7906  138.0511  156.7144 N   0  0  0  0  0  0  0  0  0  0  0  0
  149.6931  136.8005  156.3550 C   0  0  0  0  0  0  0  0  0  0  0  0
  150.6696  136.3592  155.4909 N   0  0  0  0  0  0  0  0  0  0  0  0
  150.8060  135.0222  154.9334 C   0  0  0  0  0  0  0  0  0  0  0  0
  149.7349  133.9818  155.3951 C   0  0  0  0  0  0  0  0  0  0  0  0
  149.8505  133.7035  156.9205 C   0  0  0  0  0  0  0  0  0  0  0  0
  148.9497  132.7187  157.3885 O   0  0  0  0  0  0  0  0  0  0  0  0
  148.2836  134.4040  155.0468 C   0  0  0  0  0  0  0  0  0  0  0  0
  148.0099  134.3922  153.5326 C   0  0  0  0  0  0  0  0  0  0  0  0
  148.2699  133.0979  153.0050 O   0  0  0  0  0  0  0  0  0  0  0  0
  149.6258  132.6995  153.1600 C   0  0  0  0  0  0  0  0  0  0  0  0
  149.9932  132.6446  154.6553 C   0  0  0  0  0  0  0  0  0  0  0  0
  146.8799  141.6973  155.0140 H   0  0  0  0  0  0  0  0  0  0  0  0
  147.1889  142.3394  156.6172 H   0  0  0  0  0  0  0  0  0  0  0  0
  146.9965  140.6006  156.3852 H   0  0  0  0  0  0  0  0  0  0  0  0
  149.0472  140.6058  154.9187 H   0  0  0  0  0  0  0  0  0  0  0  0
  149.2996  142.2926  155.2657 H   0  0  0  0  0  0  0  0  0  0  0  0
  149.3723  139.9820  157.2545 H   0  0  0  0  0  0  0  0  0  0  0  0
  148.4722  142.0595  158.3436 H   0  0  0  0  0  0  0  0  0  0  0  0
  149.9441  141.4441  159.0333 H   0  0  0  0  0  0  0  0  0  0  0  0
  150.1926  145.2035  158.6286 H   0  0  0  0  0  0  0  0  0  0  0  0
  148.8744  144.2378  159.2403 H   0  0  0  0  0  0  0  0  0  0  0  0
  150.6050  144.6907  161.0075 H   0  0  0  0  0  0  0  0  0  0  0  0
  150.4347  142.9795  160.7223 H   0  0  0  0  0  0  0  0  0  0  0  0
  152.6315  144.7946  159.6177 H   0  0  0  0  0  0  0  0  0  0  0  0
  152.8319  143.5386  160.8179 H   0  0  0  0  0  0  0  0  0  0  0  0
  153.5556  142.7916  158.5371 H   0  0  0  0  0  0  0  0  0  0  0  0
  152.2770  141.7913  159.1721 H   0  0  0  0  0  0  0  0  0  0  0  0
  151.9528  144.1046  157.2092 H   0  0  0  0  0  0  0  0  0  0  0  0
  151.5140  142.5579  155.4775 H   0  0  0  0  0  0  0  0  0  0  0  0
  152.9389  141.9506  156.2894 H   0  0  0  0  0  0  0  0  0  0  0  0
  153.9759  138.9237  153.8747 H   0  0  0  0  0  0  0  0  0  0  0  0
  148.9052  136.1588  156.7208 H   0  0  0  0  0  0  0  0  0  0  0  0
  150.8078  135.1311  153.8502 H   0  0  0  0  0  0  0  0  0  0  0  0
  151.8021  134.6568  155.1858 H   0  0  0  0  0  0  0  0  0  0  0  0
  150.8521  133.3518  157.1705 H   0  0  0  0  0  0  0  0  0  0  0  0
  149.6957  134.6210  157.4892 H   0  0  0  0  0  0  0  0  0  0  0  0
  148.2896  133.1421  157.9157 H   0  0  0  0  0  0  0  0  0  0  0  0
  147.5858  133.7125  155.5213 H   0  0  0  0  0  0  0  0  0  0  0  0
  148.0451  135.3839  155.4580 H   0  0  0  0  0  0  0  0  0  0  0  0
  146.9651  134.6390  153.3440 H   0  0  0  0  0  0  0  0  0  0  0  0
  148.6065  135.1406  153.0101 H   0  0  0  0  0  0  0  0  0  0  0  0
  149.7483  131.7123  152.7142 H   0  0  0  0  0  0  0  0  0  0  0  0
  150.2816  133.3707  152.6051 H   0  0  0  0  0  0  0  0  0  0  0  0
  151.0342  132.3402  154.7706 H   0  0  0  0  0  0  0  0  0  0  0  0
  149.3985  131.8514  155.1103 H   0  0  0  0  0  0  0  0  0  0  0  0
  149.7411  143.6032  157.0957 H   0  0  0  0  0  0  0  0  0  0  0  0
  1  2  1  0  0  0  0
  1 31  1  0  0  0  0
  1 32  1  0  0  0  0
  1 33  1  0  0  0  0
  2  3  1  0  0  0  0
  2 34  1  0  0  0  0
  2 35  1  0  0  0  0
  3 12  1  0  0  0  0
  3  4  1  0  0  0  0
  3 36  1  0  0  0  0
  4  5  1  0  0  0  0
  4 37  1  0  0  0  0
  4 38  1  0  0  0  0
  5 10  1  0  0  0  0
  5  6  1  0  0  0  0
  5 65  1  0  0  0  0
  6  7  1  0  0  0  0
  6 39  1  0  0  0  0
  6 40  1  0  0  0  0
  7  8  1  0  0  0  0
  7 41  1  0  0  0  0
  7 42  1  0  0  0  0
  8  9  1  0  0  0  0
  8 43  1  0  0  0  0
  8 44  1  0  0  0  0
  9 10  1  0  0  0  0
  9 45  1  0  0  0  0
  9 46  1  0  0  0  0
 10 11  1  0  0  0  0
 10 47  1  0  0  0  0
 11 12  1  0  0  0  0
 11 48  1  0  0  0  0
 11 49  1  0  0  0  0
 12 13  1  0  0  0  0
 13 18  1  0  0  0  0
 13 14  2  0  0  0  0
 14 15  1  0  0  0  0
 15 16  2  0  0  0  0
 15 50  1  0  0  0  0
 16 17  1  0  0  0  0
 17 21  1  0  0  0  0
 17 18  2  0  0  0  0
 18 19  1  0  0  0  0
 19 20  2  0  0  0  0
 20 21  1  0  0  0  0
 20 51  1  0  0  0  0
 21 22  1  0  0  0  0
 22 23  1  0  0  0  0
 22 52  1  0  0  0  0
 22 53  1  0  0  0  0
 23 30  1  0  0  0  0
 23 24  1  0  0  0  0
 23 26  1  0  0  0  0
 24 25  1  0  0  0  0
 24 54  1  0  0  0  0
 24 55  1  0  0  0  0
 25 56  1  0  0  0  0
 26 27  1  0  0  0  0
 26 57  1  0  0  0  0
 26 58  1  0  0  0  0
 27 28  1  0  0  0  0
 27 59  1  0  0  0  0
 27 60  1  0  0  0  0
 28 29  1  0  0  0  0
 29 30  1  0  0  0  0
 29 61  1  0  0  0  0
 29 62  1  0  0  0  0
 30 63  1  0  0  0  0
 30 64  1  0  0  0  0
M  CHG  1   5   1
M  END
> <s_m_source_file>
AV-unprocessed.smi

> <i_m_source_file_index>
282

> <i_lp_mmshare_version>
43012

> <i_f3d_flags>
0

> <s_epik_input>
W0NIMl0xW0NIMl1bQ0gyXVtDSDJdW0NAQEhdKE4xMilbQ0gyXU4oW0NAQEhdKFtDSDJdMilbQ0gyXVtDSDNdKWMobltjSF1uMyljKGMzNCluW2NIXW40W0NIMl1DNShbQ0gyXVtPSF0pW0NIMl1bQ0gyXU9bQ0gyXVtDSDJdNQ==

> <s_epik_cmdline>
J2VwaWtfcHl0aG9uJywgJy1waCcsICc3LjAnLCAnLXRuJywgJzgnLCAnLW1hJywgJzIwMCcsICctbWV0YWxfYmluZGluZycsICctaW1hZScsICc8aW5maWxlLm1hZT4nLCAnLW9tYWUnLCAnPG91dGZpbGUubWFlPic=

> <r_lp_tautomer_probability>
1

> <r_epik_Ionization_Penalty>
0.00308583

> <r_epik_Ionization_Penalty_Charging>
0.00300384

> <r_epik_Ionization_Penalty_Neutral>
8.19894e-05

> <r_epik_State_Penalty>
-0

> <r_epik_Charging_Adjusted_Penalty>
0.00300384

> <i_epik_Tot_Q>
1

> <i_epik_Tot_abs_Q>
1

> <r_epik_Metal_State_Penalty>
-0

> <b_epik_Metal_Only>
0

> <s_lp_Force_Field>
OPLS_2005

> <r_lp_Energy>
61.1987

> <b_lp_Chiralities_Consistent>
1

> <s_lp_Variant>
AV-unprocessed.smi:282-5

> <Gold.Version>
5.8.1

> <Gold.Id.Protein>
6NUR|6NUR_protein|mol2

> <Gold.PLP.Fitness>
51.0855

> <Gold.PLP.PLP>
-39.8948

> <Gold.PLP.part.hbond>
-3.3041

> <Gold.PLP.part.metal>
0.0000

> <Gold.PLP.part.buried>
-6.8368

> <Gold.PLP.part.nonpolar>
-29.5728

> <Gold.PLP.part.repulsive>
0.3029

> <Gold.PLP.ligand.clash>
0.0000

> <Gold.PLP.ligand.torsion>
0.1943

> <Gold.PLP.Chemscore.Hbond>
3.7656

> <Gold.PLP.Chemscore.CHOScore>
0.0000

> <Gold.PLP.Chemscore.Metal>
0.0000

> <Gold.Chemscore.Hbonds>
donor molecule, donor type, donor heavy atom, donor atom, acceptor molecule, acceptor atom, score
      L1  H     5    65       P1  8028  2.00
      P1  H  7989  7998       L1    14  0.22
      P1  H  7997  8010       L1    14  0.85
      P1  H 10752 10765       L1    16  0.55

> <Gold.PLP.Chemscore.Internal.Correction>
0.2824

> <Gold.Rescore>
     Score         DG    S(hbond)    S(metal)    S(lipo)     H(rot)  DE(clash)    DE(int)     intcor
     15.09     -19.29       1.87        0.00     113.06       2.20       2.83       1.38       ----

> <Gold.Chemscore.Fitness>
15.0894

> <Gold.Chemscore.DG>
-19.2941

> <Gold.Chemscore.ZeroCoef>
-5.4800

> <Gold.Chemscore.Hbond>
1.8650

> <Gold.Chemscore.Metal>
0.0000

> <Gold.Chemscore.Lipo>
113.0584

> <Gold.Chemscore.Internal_Hbond>
0.0000

> <Gold.Chemscore.DEClash>
2.8287

> <Gold.Chemscore.DEInternal>
1.3759

> <Gold.Chemscore.Rot>
2.2042

> <Gold.Chemscore.Internal.Correction>
   9.000000E+99

> <Gold.Chemscore.Hbonds>
donor molecule, donor type, donor heavy atom, donor atom, acceptor molecule, acceptor atom, score
      L1  H     5    65       P1  8028  0.91
      P1  H  7989  7998       L1    14  0.01
      P1  H  7997  8010       L1    14  0.13
      P1  H 10752 10765       L1    16  0.12

> <Gold.Chemscore.Hbond.Weighted>
-6.2291

> <Gold.Chemscore.Metal.Weighted>
-0.0000

> <Gold.Chemscore.Lipo.Weighted>
-13.2278

> <Gold.Chemscore.Internal_Hbond.Weighted>
0.0000

> <Gold.Chemscore.DEClash.Weighted>
2.8287

> <Gold.Chemscore.DEInternal.Weighted>
1.3759

> <Gold.Chemscore.Rot.Weighted>
5.6429

> <Gold.Chemscore.Internal.Correction.Weighted>
   9.000000E+99

> <Gold.Protein.RotatedTorsions>
[ 6907 6896 6895 6894 ] final -134.92 input  -60.11 | X-H torsion
[ 7974 7965 7964 7962 ] final  117.48 input  175.53 | X-H torsion
[ 8008 7997 7996 7995 ] final   85.57 input   59.86 | X-H torsion
[ 10167 10162 10161 10158 ] final   -9.27 input  -65.29 | X-H torsion
[ 10718 10713 10712 10709 ] final  164.79 input   66.30 | X-H torsion
[ 10763 10752 10751 10750 ] final  162.73 input  -60.55 | X-H torsion
[ 11005 11000 10999 10996 ] final  151.17 input  -57.11 | X-H torsion

> <Gold.Protein.ActiveResidues>
 VAL166  LYS551  ARG553  GLY616  TRP617  ASP618  TYR619  PRO620  LYS621  CYS622 
 ASP623  PHE694  ASN695  SER759  ASP760  ASP761  ALA762  ILE779  LEU786  VAL792 
 PHE793  MET794  SER795  GLU796  ALA797  LYS798  CYS799  TRP800  GLU811  SER814 

> <Gold.Protein.RotatedAtoms>
  150.9917  133.6143  159.2707 H   0  0  0  0  0  0  0  0  0  0  0  0  # atno 6907 bound_to 6896
  151.3362  135.0852  159.9365 H   0  0  0  0  0  0  0  0  0  0  0  0  # atno 6908 bound_to 6896
  152.5247  133.9537  159.7738 H   0  0  0  0  0  0  0  0  0  0  0  0  # atno 6909 bound_to 6896
  145.1668  139.3124  143.4488 H   0  0  0  0  0  0  0  0  0  0  0  0  # atno 7974 bound_to 7965
  155.9517  140.3400  155.6414 H   0  0  0  0  0  0  0  0  0  0  0  0  # atno 8008 bound_to 7997
  155.6911  140.0749  157.2466 H   0  0  0  0  0  0  0  0  0  0  0  0  # atno 8009 bound_to 7997
  154.4123  140.1657  156.2075 H   0  0  0  0  0  0  0  0  0  0  0  0  # atno 8010 bound_to 7997
  140.7082  143.5877  150.8926 H   0  0  0  0  0  0  0  0  0  0  0  0  # atno 10167 bound_to 10162
  157.0893  131.0413  151.2543 H   0  0  0  0  0  0  0  0  0  0  0  0  # atno 10718 bound_to 10713
  154.2828  135.2763  155.2689 H   0  0  0  0  0  0  0  0  0  0  0  0  # atno 10763 bound_to 10752
  154.5203  135.5758  153.6678 H   0  0  0  0  0  0  0  0  0  0  0  0  # atno 10764 bound_to 10752
  152.9926  135.6202  154.2988 H   0  0  0  0  0  0  0  0  0  0  0  0  # atno 10765 bound_to 10752
  140.1195  134.8872  157.2052 H   0  0  0  0  0  0  0  0  0  0  0  0  # atno 11005 bound_to 11000
  146.3474  140.1799  142.8589 LP  0  0  0  0  0  0  0  0  0  0  0  0  # atno 17320 bound_to 7965
  145.0274  140.8843  143.5130 LP  0  0  0  0  0  0  0  0  0  0  0  0  # atno 17321 bound_to 7965
  139.9602  143.6172  152.3004 LP  0  0  0  0  0  0  0  0  0  0  0  0  # atno 17342 bound_to 10162
  139.6722  144.7660  151.1762 LP  0  0  0  0  0  0  0  0  0  0  0  0  # atno 17343 bound_to 10162
  157.4734  130.7722  149.7345 LP  0  0  0  0  0  0  0  0  0  0  0  0  # atno 17370 bound_to 10713
  155.9902  130.3946  150.3038 LP  0  0  0  0  0  0  0  0  0  0  0  0  # atno 17371 bound_to 10713
  140.2983  134.3160  155.7296 LP  0  0  0  0  0  0  0  0  0  0  0  0  # atno 17394 bound_to 11000
  141.2148  133.7576  156.9604 LP  0  0  0  0  0  0  0  0  0  0  0  0  # atno 17395 bound_to 11000

$$$$
