AV-unprocessed.smi:781|AV-procd|sdf|3712|dock4
  -GOLD-   22720 1133D 1   1.00000     0.00000
 Structure written by MMmdl.
 38 40  0  0  0  0  0  0  0  0  1 V2000
  152.4425  136.3276  157.4007 C   0  0  0  0  0  0  0  0  0  0  0  0
  151.2891  135.6939  156.7012 C   0  0  0  0  0  0  0  0  0  0  0  0
  150.6151  136.0011  155.5528 C   0  0  0  0  0  0  0  0  0  0  0  0
  149.6307  134.9799  155.4774 C   0  0  0  0  0  0  0  0  0  0  0  0
  148.7056  134.9397  154.4037 N   0  0  0  0  0  0  0  0  0  0  0  0
  147.6186  134.1582  154.2880 C   0  0  0  0  0  0  0  0  0  0  0  0
  147.2398  133.3391  155.1259 O   0  0  0  0  0  0  0  0  0  0  0  0
  146.9795  134.3832  153.1317 N   0  0  0  0  0  0  0  0  0  0  0  0
  145.7647  133.6945  152.7026 C   0  0  1  0  0  0  0  0  0  0  0  0
  144.5119  134.6067  152.6778 C   0  0  1  0  0  0  0  0  0  0  0  0
  144.7750  135.9076  151.8894 C   0  0  0  0  0  0  0  0  0  0  0  0
  144.8823  135.4048  150.4377 C   0  0  0  0  0  0  0  0  0  0  0  0
  144.6346  133.8902  150.5819 C   0  0  2  0  0  0  0  0  0  0  0  0
  143.6079  133.8565  151.7081 C   0  0  0  0  0  0  0  0  0  0  0  0
  145.8727  133.2255  151.2272 C   0  0  2  0  0  0  0  0  0  0  0  0
  145.8773  131.6925  151.0709 C   0  0  0  0  0  0  0  0  0  0  0  0
  146.9825  131.1379  151.7525 O   0  0  0  0  0  0  0  0  0  0  0  0
  149.6984  134.1260  156.4874 N   0  0  0  0  0  0  0  0  0  0  0  0
  150.7621  134.5790  157.2765 O   0  0  0  0  0  0  0  0  0  0  0  0
  152.5661  137.3645  157.0877 H   0  0  0  0  0  0  0  0  0  0  0  0
  153.3672  135.7948  157.1796 H   0  0  0  0  0  0  0  0  0  0  0  0
  152.2953  136.3166  158.4810 H   0  0  0  0  0  0  0  0  0  0  0  0
  150.7992  136.8241  154.8781 H   0  0  0  0  0  0  0  0  0  0  0  0
  148.8935  135.5715  153.6398 H   0  0  0  0  0  0  0  0  0  0  0  0
  147.3593  135.0722  152.4994 H   0  0  0  0  0  0  0  0  0  0  0  0
  145.5803  132.8409  153.3581 H   0  0  0  0  0  0  0  0  0  0  0  0
  144.0786  134.7771  153.6639 H   0  0  0  0  0  0  0  0  0  0  0  0
  143.9312  136.5914  151.9909 H   0  0  0  0  0  0  0  0  0  0  0  0
  145.6657  136.4442  152.2164 H   0  0  0  0  0  0  0  0  0  0  0  0
  144.1147  135.8670  149.8158 H   0  0  0  0  0  0  0  0  0  0  0  0
  145.8515  135.6279  149.9904 H   0  0  0  0  0  0  0  0  0  0  0  0
  144.3147  133.4181  149.6524 H   0  0  0  0  0  0  0  0  0  0  0  0
  143.3548  132.8494  152.0428 H   0  0  0  0  0  0  0  0  0  0  0  0
  142.6870  134.3923  151.4706 H   0  0  0  0  0  0  0  0  0  0  0  0
  146.7737  133.6159  150.7498 H   0  0  0  0  0  0  0  0  0  0  0  0
  144.9585  131.2475  151.4533 H   0  0  0  0  0  0  0  0  0  0  0  0
  145.9528  131.4197  150.0180 H   0  0  0  0  0  0  0  0  0  0  0  0
  147.6601  130.9476  151.1218 H   0  0  0  0  0  0  0  0  0  0  0  0
  1  2  1  0  0  0  0
  1 20  1  0  0  0  0
  1 21  1  0  0  0  0
  1 22  1  0  0  0  0
  2 19  1  0  0  0  0
  2  3  2  0  0  0  0
  3  4  1  0  0  0  0
  3 23  1  0  0  0  0
  4  5  1  0  0  0  0
  4 18  2  0  0  0  0
  5  6  1  0  0  0  0
  5 24  1  0  0  0  0
  6  7  2  0  0  0  0
  6  8  1  0  0  0  0
  8  9  1  0  0  0  0
  8 25  1  0  0  0  0
  9 15  1  0  0  0  0
  9 10  1  0  0  0  0
  9 26  1  0  0  0  0
 10 14  1  0  0  0  0
 10 11  1  0  0  0  0
 10 27  1  0  0  0  0
 11 12  1  0  0  0  0
 11 28  1  0  0  0  0
 11 29  1  0  0  0  0
 12 13  1  0  0  0  0
 12 30  1  0  0  0  0
 12 31  1  0  0  0  0
 13 14  1  0  0  0  0
 13 15  1  0  0  0  0
 13 32  1  0  0  0  0
 14 33  1  0  0  0  0
 14 34  1  0  0  0  0
 15 16  1  0  0  0  0
 15 35  1  0  0  0  0
 16 17  1  0  0  0  0
 16 36  1  0  0  0  0
 16 37  1  0  0  0  0
 17 38  1  0  0  0  0
 18 19  1  0  0  0  0
M  END
> <s_m_source_file>
AV-unprocessed.smi

> <i_m_source_file_index>
781

> <i_lp_mmshare_version>
43012

> <i_f3d_flags>
0

> <s_epik_input>
W0NIM11jMVtjSF1jKG5vMSlbTkhdQyg9TylbTkhdW0NASF0oW0NAQEhdMjMpW0NASF0oW0NIMl1bT0hdKVtDQEBIXShbQ0gyXTMpW0NIMl1bQ0gyXTI=

> <s_epik_cmdline>
J2VwaWtfcHl0aG9uJywgJy1waCcsICc3LjAnLCAnLXRuJywgJzgnLCAnLW1hJywgJzIwMCcsICctbWV0YWxfYmluZGluZycsICctaW1hZScsICc8aW5maWxlLm1hZT4nLCAnLW9tYWUnLCAnPG91dGZpbGUubWFlPic=

> <r_lp_tautomer_probability>
1

> <r_epik_Ionization_Penalty>
2.32222e-05

> <r_epik_Ionization_Penalty_Charging>
0

> <r_epik_Ionization_Penalty_Neutral>
2.32222e-05

> <r_epik_State_Penalty>
-0

> <r_epik_Charging_Adjusted_Penalty>
0

> <i_epik_Tot_Q>
0

> <i_epik_Tot_abs_Q>
0

> <r_epik_Metal_State_Penalty>
-0

> <b_epik_Metal_Only>
0

> <s_lp_Force_Field>
OPLS_2005

> <r_lp_Energy>
46.3898

> <b_lp_Chiralities_Consistent>
1

> <s_lp_Variant>
AV-unprocessed.smi:781-6

> <Gold.Version>
5.8.1

> <Gold.Id.Protein>
6NUR|6NUR_protein|mol2

> <Gold.PLP.Fitness>
37.1611

> <Gold.PLP.PLP>
-27.3841

> <Gold.PLP.part.hbond>
-3.8197

> <Gold.PLP.part.metal>
0.0000

> <Gold.PLP.part.buried>
-4.6636

> <Gold.PLP.part.nonpolar>
-19.4656

> <Gold.PLP.part.repulsive>
0.0203

> <Gold.PLP.ligand.clash>
0.0000

> <Gold.PLP.ligand.torsion>
0.1442

> <Gold.PLP.Chemscore.Hbond>
3.3494

> <Gold.PLP.Chemscore.CHOScore>
0.0000

> <Gold.PLP.Chemscore.Metal>
0.0000

> <Gold.Chemscore.Hbonds>
donor molecule, donor type, donor heavy atom, donor atom, acceptor molecule, acceptor atom, score
      L1  H     5    24       P1  7948  1.00
      L1  H     8    25       P1  7948  0.97
      L1  H    17    38       P1 10747  1.00
      P1  H  6896  6907       L1    19  0.37

> <Gold.PLP.Chemscore.Internal.Correction>
0.0171

> <Gold.Rescore>
     Score         DG    S(hbond)    S(metal)    S(lipo)     H(rot)  DE(clash)    DE(int)     intcor
     17.45     -19.07       3.42        0.00      59.10       1.86       0.23       1.39       ----

> <Gold.Chemscore.Fitness>
17.4530

> <Gold.Chemscore.DG>
-19.0712

> <Gold.Chemscore.ZeroCoef>
-5.4800

> <Gold.Chemscore.Hbond>
3.4237

> <Gold.Chemscore.Metal>
0.0000

> <Gold.Chemscore.Lipo>
59.0968

> <Gold.Chemscore.Internal_Hbond>
0.0000

> <Gold.Chemscore.DEClash>
0.2250

> <Gold.Chemscore.DEInternal>
1.3932

> <Gold.Chemscore.Rot>
1.8587

> <Gold.Chemscore.Internal.Correction>
   9.000000E+99

> <Gold.Chemscore.Hbonds>
donor molecule, donor type, donor heavy atom, donor atom, acceptor molecule, acceptor atom, score
      L1  H     5    24       P1  7948  0.88
      L1  H     8    25       P1  7948  0.86
      L1  H    17    38       P1 10747  0.97
      P1  H  6896  6907       L1    19  0.35

> <Gold.Chemscore.Hbond.Weighted>
-11.4352

> <Gold.Chemscore.Metal.Weighted>
-0.0000

> <Gold.Chemscore.Lipo.Weighted>
-6.9143

> <Gold.Chemscore.Internal_Hbond.Weighted>
0.0000

> <Gold.Chemscore.DEClash.Weighted>
0.2250

> <Gold.Chemscore.DEInternal.Weighted>
1.3932

> <Gold.Chemscore.Rot.Weighted>
4.7583

> <Gold.Chemscore.Internal.Correction.Weighted>
   9.000000E+99

> <Gold.Protein.RotatedTorsions>
[ 6907 6896 6895 6894 ] final -114.04 input  -60.11 | X-H torsion
[ 7974 7965 7964 7962 ] final  -38.75 input  175.53 | X-H torsion
[ 8008 7997 7996 7995 ] final -168.10 input   59.86 | X-H torsion
[ 10167 10162 10161 10158 ] final   70.20 input  -65.29 | X-H torsion
[ 10718 10713 10712 10709 ] final   75.05 input   66.30 | X-H torsion
[ 10763 10752 10751 10750 ] final  176.86 input  -60.55 | X-H torsion
[ 11005 11000 10999 10996 ] final   16.76 input  -57.11 | X-H torsion

> <Gold.Protein.ActiveResidues>
 VAL166  LYS551  ARG553  GLY616  TRP617  ASP618  TYR619  PRO620  LYS621  CYS622 
 ASP623  PHE694  ASN695  SER759  ASP760  ASP761  ALA762  ILE779  LEU786  VAL792 
 PHE793  MET794  SER795  GLU796  ALA797  LYS798  CYS799  TRP800  GLU811  SER814 

> <Gold.Protein.RotatedAtoms>
  150.7873  133.8857  159.3298 H   0  0  0  0  0  0  0  0  0  0  0  0  # atno 6907 bound_to 6896
  151.6705  135.0975  160.0206 H   0  0  0  0  0  0  0  0  0  0  0  0  # atno 6908 bound_to 6896
  152.3940  133.6681  159.6296 H   0  0  0  0  0  0  0  0  0  0  0  0  # atno 6909 bound_to 6896
  146.0458  140.6548  142.9065 H   0  0  0  0  0  0  0  0  0  0  0  0  # atno 7974 bound_to 7965
  155.8868  140.1018  157.1447 H   0  0  0  0  0  0  0  0  0  0  0  0  # atno 8008 bound_to 7997
  154.4010  140.1318  156.4329 H   0  0  0  0  0  0  0  0  0  0  0  0  # atno 8009 bound_to 7997
  155.7580  140.3463  155.5186 H   0  0  0  0  0  0  0  0  0  0  0  0  # atno 8010 bound_to 7997
  140.0595  144.5244  150.7304 H   0  0  0  0  0  0  0  0  0  0  0  0  # atno 10167 bound_to 10162
  157.6618  130.9707  150.1298 H   0  0  0  0  0  0  0  0  0  0  0  0  # atno 10718 bound_to 10713
  154.4867  135.2777  155.1528 H   0  0  0  0  0  0  0  0  0  0  0  0  # atno 10763 bound_to 10752
  154.3216  135.6208  153.5514 H   0  0  0  0  0  0  0  0  0  0  0  0  # atno 10764 bound_to 10752
  152.9882  135.5744  154.5280 H   0  0  0  0  0  0  0  0  0  0  0  0  # atno 10765 bound_to 10752
  140.4435  134.1297  155.7693 H   0  0  0  0  0  0  0  0  0  0  0  0  # atno 11005 bound_to 11000
  144.7097  140.3992  143.7090 LP  0  0  0  0  0  0  0  0  0  0  0  0  # atno 17320 bound_to 7965
  145.6808  139.1618  143.2702 LP  0  0  0  0  0  0  0  0  0  0  0  0  # atno 17321 bound_to 7965
  140.7178  143.2561  151.4376 LP  0  0  0  0  0  0  0  0  0  0  0  0  # atno 17342 bound_to 10162
  139.5902  144.1515  152.2079 LP  0  0  0  0  0  0  0  0  0  0  0  0  # atno 17343 bound_to 10162
  156.2147  130.3669  149.8627 LP  0  0  0  0  0  0  0  0  0  0  0  0  # atno 17370 bound_to 10713
  156.6496  130.8738  151.3529 LP  0  0  0  0  0  0  0  0  0  0  0  0  # atno 17371 bound_to 10713
  141.1695  133.8637  157.1614 LP  0  0  0  0  0  0  0  0  0  0  0  0  # atno 17394 bound_to 11000
  140.0054  135.0011  157.0280 LP  0  0  0  0  0  0  0  0  0  0  0  0  # atno 17395 bound_to 11000

$$$$
