AV-unprocessed.smi:1427|AV-procd|sdf|5812|dock10
  -GOLD-   22720 5463D 1   1.00000     0.00000
 Structure written by MMmdl.
 33 34  0  0  0  0  0  0  0  0  1 V2000
  151.2932  144.1856  158.0017 C   0  0  0  0  0  0  0  0  0  0  0  0
  151.4298  142.7592  157.4521 C   0  0  1  0  0  0  0  0  0  0  0  0
  151.2977  141.7086  158.5761 C   0  0  0  0  0  0  0  0  0  0  0  0
  152.1070  142.0278  159.7400 N   0  0  0  0  0  0  0  0  0  0  0  0
  153.2738  141.4269  160.1629 C   0  0  0  0  0  0  0  0  0  0  0  0
  153.6564  142.0495  161.3162 C   0  0  0  0  0  0  0  0  0  0  0  0
  152.6491  143.0336  161.5193 C   0  0  0  0  0  0  0  0  0  0  0  0
  151.7252  143.0211  160.5725 N   0  0  0  0  0  0  0  0  0  0  0  0
  150.4166  142.5474  156.4190 N   0  0  0  0  0  0  0  0  0  0  0  0
  150.3939  141.5305  155.5424 C   0  0  0  0  0  0  0  0  0  0  0  0
  151.2723  140.6687  155.4826 O   0  0  0  0  0  0  0  0  0  0  0  0
  149.1948  141.4851  154.5849 C   0  0  1  0  0  0  0  0  0  0  0  0
  148.5001  140.1107  154.5165 C   0  0  0  0  0  0  0  0  0  0  0  0
  147.2383  140.2448  155.3803 C   0  0  0  0  0  0  0  0  0  0  0  0
  147.0599  141.7505  155.4838 C   0  0  0  0  0  0  0  0  0  0  0  0
  146.0506  142.2858  155.9358 O   0  0  0  0  0  0  0  0  0  0  0  0
  148.1390  142.3834  155.0223 N   0  0  0  0  0  0  0  0  0  0  0  0
  152.0551  144.3897  158.7546 H   0  0  0  0  0  0  0  0  0  0  0  0
  150.3182  144.3423  158.4644 H   0  0  0  0  0  0  0  0  0  0  0  0
  151.4094  144.9255  157.2090 H   0  0  0  0  0  0  0  0  0  0  0  0
  152.4269  142.6782  157.0152 H   0  0  0  0  0  0  0  0  0  0  0  0
  150.2595  141.6417  158.9033 H   0  0  0  0  0  0  0  0  0  0  0  0
  151.5711  140.7178  158.2088 H   0  0  0  0  0  0  0  0  0  0  0  0
  153.7238  140.6097  159.6187 H   0  0  0  0  0  0  0  0  0  0  0  0
  154.5221  141.8327  161.9240 H   0  0  0  0  0  0  0  0  0  0  0  0
  152.5622  143.7516  162.3217 H   0  0  0  0  0  0  0  0  0  0  0  0
  149.6548  143.2094  156.3904 H   0  0  0  0  0  0  0  0  0  0  0  0
  149.5178  141.7882  153.5875 H   0  0  0  0  0  0  0  0  0  0  0  0
  148.2183  139.8876  153.4865 H   0  0  0  0  0  0  0  0  0  0  0  0
  149.1398  139.2953  154.8583 H   0  0  0  0  0  0  0  0  0  0  0  0
  146.3712  139.7634  154.9274 H   0  0  0  0  0  0  0  0  0  0  0  0
  147.3927  139.8310  156.3774 H   0  0  0  0  0  0  0  0  0  0  0  0
  148.2431  143.3876  155.0103 H   0  0  0  0  0  0  0  0  0  0  0  0
  1  2  1  0  0  0  0
  1 18  1  0  0  0  0
  1 19  1  0  0  0  0
  1 20  1  0  0  0  0
  2  3  1  0  0  0  0
  2  9  1  0  0  0  0
  2 21  1  0  0  0  0
  3  4  1  0  0  0  0
  3 22  1  0  0  0  0
  3 23  1  0  0  0  0
  4  8  1  0  0  0  0
  4  5  1  0  0  0  0
  5  6  2  0  0  0  0
  5 24  1  0  0  0  0
  6  7  1  0  0  0  0
  6 25  1  0  0  0  0
  7  8  2  0  0  0  0
  7 26  1  0  0  0  0
  9 10  1  0  0  0  0
  9 27  1  0  0  0  0
 10 11  2  0  0  0  0
 10 12  1  0  0  0  0
 12 17  1  0  0  0  0
 12 13  1  0  0  0  0
 12 28  1  0  0  0  0
 13 14  1  0  0  0  0
 13 29  1  0  0  0  0
 13 30  1  0  0  0  0
 14 15  1  0  0  0  0
 14 31  1  0  0  0  0
 14 32  1  0  0  0  0
 15 16  2  0  0  0  0
 15 17  1  0  0  0  0
 17 33  1  0  0  0  0
M  END
> <s_m_source_file>
AV-unprocessed.smi

> <i_m_source_file_index>
1427

> <i_lp_mmshare_version>
43012

> <i_f3d_flags>
0

> <s_epik_input>
bjFbY0hdW2NIXVtjSF1uMVtDSDJdW0NAQEhdKFtDSDNdKVtOSF1DKD1PKVtDQEBIXTJbQ0gyXVtDSDJdQyg9TylbTkhdMg==

> <s_epik_cmdline>
J2VwaWtfcHl0aG9uJywgJy1waCcsICc3LjAnLCAnLXRuJywgJzgnLCAnLW1hJywgJzIwMCcsICctbWV0YWxfYmluZGluZycsICctaW1hZScsICc8aW5maWxlLm1hZT4nLCAnLW9tYWUnLCAnPG91dGZpbGUubWFlPic=

> <r_lp_tautomer_probability>
1

> <r_epik_Ionization_Penalty>
0.000310707

> <r_epik_Ionization_Penalty_Charging>
0

> <r_epik_Ionization_Penalty_Neutral>
0.000310707

> <r_epik_State_Penalty>
-0

> <r_epik_Charging_Adjusted_Penalty>
0

> <i_epik_Tot_Q>
0

> <i_epik_Tot_abs_Q>
0

> <r_epik_Metal_State_Penalty>
-0

> <b_epik_Metal_Only>
0

> <s_lp_Force_Field>
OPLS_2005

> <r_lp_Energy>
14.0885

> <b_lp_Chiralities_Consistent>
1

> <s_lp_Variant>
AV-unprocessed.smi:1427-4

> <Gold.Version>
5.8.1

> <Gold.Id.Protein>
6NUR|6NUR_protein|mol2

> <Gold.PLP.Fitness>
42.8428

> <Gold.PLP.PLP>
-36.1549

> <Gold.PLP.part.hbond>
-3.6681

> <Gold.PLP.part.metal>
0.0000

> <Gold.PLP.part.buried>
-5.1639

> <Gold.PLP.part.nonpolar>
-27.2917

> <Gold.PLP.part.repulsive>
0.4590

> <Gold.PLP.ligand.clash>
0.0000

> <Gold.PLP.ligand.torsion>
0.6273

> <Gold.PLP.Chemscore.Hbond>
2.6391

> <Gold.PLP.Chemscore.CHOScore>
0.0000

> <Gold.PLP.Chemscore.Metal>
0.0000

> <Gold.Chemscore.Hbonds>
donor molecule, donor type, donor heavy atom, donor atom, acceptor molecule, acceptor atom, score
      L1  H     9    27       P1  8028  0.99
      L1  H    17    33       P1  8028  1.00
      P1  H  7989  7998       L1    11  0.64

> <Gold.PLP.Chemscore.Internal.Correction>
0.0253

> <Gold.Rescore>
     Score         DG    S(hbond)    S(metal)    S(lipo)     H(rot)  DE(clash)    DE(int)     intcor
     15.56     -16.47       1.94        0.00      79.64       1.88       0.04       0.86       ----

> <Gold.Chemscore.Fitness>
15.5560

> <Gold.Chemscore.DG>
-16.4656

> <Gold.Chemscore.ZeroCoef>
-5.4800

> <Gold.Chemscore.Hbond>
1.9419

> <Gold.Chemscore.Metal>
0.0000

> <Gold.Chemscore.Lipo>
79.6385

> <Gold.Chemscore.Internal_Hbond>
0.0000

> <Gold.Chemscore.DEClash>
0.0447

> <Gold.Chemscore.DEInternal>
0.8649

> <Gold.Chemscore.Rot>
1.8821

> <Gold.Chemscore.Internal.Correction>
   9.000000E+99

> <Gold.Chemscore.Hbonds>
donor molecule, donor type, donor heavy atom, donor atom, acceptor molecule, acceptor atom, score
      L1  H     9    27       P1  8028  0.94
      L1  H    17    33       P1  8028  0.89
      P1  H  7989  7998       L1    11  0.09

> <Gold.Chemscore.Hbond.Weighted>
-6.4859

> <Gold.Chemscore.Metal.Weighted>
-0.0000

> <Gold.Chemscore.Lipo.Weighted>
-9.3177

> <Gold.Chemscore.Internal_Hbond.Weighted>
0.0000

> <Gold.Chemscore.DEClash.Weighted>
0.0447

> <Gold.Chemscore.DEInternal.Weighted>
0.8649

> <Gold.Chemscore.Rot.Weighted>
4.8181

> <Gold.Chemscore.Internal.Correction.Weighted>
   9.000000E+99

> <Gold.Protein.RotatedTorsions>
[ 6907 6896 6895 6894 ] final  -98.34 input  -60.11 | X-H torsion
[ 7974 7965 7964 7962 ] final -130.51 input  175.53 | X-H torsion
[ 8008 7997 7996 7995 ] final  -96.67 input   59.86 | X-H torsion
[ 10167 10162 10161 10158 ] final  155.81 input  -65.29 | X-H torsion
[ 10718 10713 10712 10709 ] final -166.37 input   66.30 | X-H torsion
[ 10763 10752 10751 10750 ] final -174.16 input  -60.55 | X-H torsion
[ 11005 11000 10999 10996 ] final   53.73 input  -57.11 | X-H torsion

> <Gold.Protein.ActiveResidues>
 VAL166  LYS551  ARG553  GLY616  TRP617  ASP618  TYR619  PRO620  LYS621  CYS622 
 ASP623  PHE694  ASN695  SER759  ASP760  ASP761  ALA762  ILE779  LEU786  VAL792 
 PHE793  MET794  SER795  GLU796  ALA797  LYS798  CYS799  TRP800  GLU811  SER814 

> <Gold.Protein.RotatedAtoms>
  150.7044  134.1209  159.4034 H   0  0  0  0  0  0  0  0  0  0  0  0  # atno 6907 bound_to 6896
  151.9195  135.0302  160.0530 H   0  0  0  0  0  0  0  0  0  0  0  0  # atno 6908 bound_to 6896
  152.2268  133.4991  159.5230 H   0  0  0  0  0  0  0  0  0  0  0  0  # atno 6909 bound_to 6896
  144.9468  140.7300  143.4813 H   0  0  0  0  0  0  0  0  0  0  0  0  # atno 7974 bound_to 7965
  154.7776  140.0469  157.1101 H   0  0  0  0  0  0  0  0  0  0  0  0  # atno 8008 bound_to 7997
  154.9744  140.3093  155.4954 H   0  0  0  0  0  0  0  0  0  0  0  0  # atno 8009 bound_to 7997
  156.2931  140.2247  156.4839 H   0  0  0  0  0  0  0  0  0  0  0  0  # atno 8010 bound_to 7997
  139.4821  144.5065  151.8090 H   0  0  0  0  0  0  0  0  0  0  0  0  # atno 10167 bound_to 10162
  156.6669  130.9068  151.3038 H   0  0  0  0  0  0  0  0  0  0  0  0  # atno 10718 bound_to 10713
  154.5995  135.2853  155.0551 H   0  0  0  0  0  0  0  0  0  0  0  0  # atno 10763 bound_to 10752
  154.1821  135.6455  153.5041 H   0  0  0  0  0  0  0  0  0  0  0  0  # atno 10764 bound_to 10752
  153.0151  135.5426  154.6709 H   0  0  0  0  0  0  0  0  0  0  0  0  # atno 10765 bound_to 10752
  140.0743  134.5426  155.9013 H   0  0  0  0  0  0  0  0  0  0  0  0  # atno 11005 bound_to 11000
  145.2906  139.1885  143.4742 LP  0  0  0  0  0  0  0  0  0  0  0  0  # atno 17320 bound_to 7965
  146.3306  140.2882  142.8614 LP  0  0  0  0  0  0  0  0  0  0  0  0  # atno 17321 bound_to 7965
  140.4563  144.1784  150.5902 LP  0  0  0  0  0  0  0  0  0  0  0  0  # atno 17342 bound_to 10162
  140.4531  143.2478  151.9321 LP  0  0  0  0  0  0  0  0  0  0  0  0  # atno 17343 bound_to 10162
  157.7090  130.9419  150.1027 LP  0  0  0  0  0  0  0  0  0  0  0  0  # atno 17370 bound_to 10713
  156.1968  130.3658  149.8839 LP  0  0  0  0  0  0  0  0  0  0  0  0  # atno 17371 bound_to 10713
  141.2024  133.6624  156.6003 LP  0  0  0  0  0  0  0  0  0  0  0  0  # atno 17394 bound_to 11000
  140.3580  134.7712  157.4514 LP  0  0  0  0  0  0  0  0  0  0  0  0  # atno 17395 bound_to 11000

$$$$
