AV-unprocessed.smi:629|AV-procd|sdf|3116|dock1
  -GOLD-   22720 0 43D 1   1.00000     0.00000
 Structure written by MMmdl.
 31 32  0  0  0  0  0  0  0  0  1 V2000
  146.8465  138.6373  152.1836 C   0  0  0  0  0  0  0  0  0  0  0  0
  147.6681  139.7651  152.5941 N   0  0  0  0  0  0  0  0  0  0  0  0
  147.7043  140.2594  153.8409 C   0  0  0  0  0  0  0  0  0  0  0  0
  147.0454  139.7942  154.7709 O   0  0  0  0  0  0  0  0  0  0  0  0
  148.6313  141.4532  154.0818 C   0  0  0  0  0  0  0  0  0  0  0  0
  149.7734  141.0725  154.9695 C   0  0  0  0  0  0  0  0  0  0  0  0
  150.6728  140.1723  154.5883 N   0  0  0  0  0  0  0  0  0  0  0  0
  151.5561  140.1155  155.6758 O   0  0  0  0  0  0  0  0  0  0  0  0
  151.0640  140.9779  156.5971 C   0  0  0  0  0  0  0  0  0  0  0  0
  151.8199  141.1870  157.8673 C   0  0  0  0  0  0  0  0  0  0  0  0
  151.3568  142.4362  158.6394 C   0  0  1  0  0  0  0  0  0  0  0  0
  152.1826  142.6994  159.8735 C   0  0  0  0  0  0  0  0  0  0  0  0
  152.6696  143.9374  159.9160 C   0  0  0  0  0  0  0  0  0  0  0  0
  152.2713  144.7525  158.7178 C   0  0  0  0  0  0  0  0  0  0  0  0
  151.5111  143.7472  157.8247 C   0  0  0  0  0  0  0  0  0  0  0  0
  149.9612  141.6115  156.2063 N   0  0  0  0  0  0  0  0  0  0  0  0
  146.9591  138.4663  151.1133 H   0  0  0  0  0  0  0  0  0  0  0  0
  145.7923  138.8276  152.3893 H   0  0  0  0  0  0  0  0  0  0  0  0
  147.1459  137.7290  152.7079 H   0  0  0  0  0  0  0  0  0  0  0  0
  148.2393  140.2033  151.8857 H   0  0  0  0  0  0  0  0  0  0  0  0
  149.0188  141.8192  153.1298 H   0  0  0  0  0  0  0  0  0  0  0  0
  148.0664  142.2721  154.5295 H   0  0  0  0  0  0  0  0  0  0  0  0
  151.7446  140.2930  158.4882 H   0  0  0  0  0  0  0  0  0  0  0  0
  152.8733  141.2894  157.6033 H   0  0  0  0  0  0  0  0  0  0  0  0
  150.3125  142.3272  158.9363 H   0  0  0  0  0  0  0  0  0  0  0  0
  152.3329  141.9478  160.6347 H   0  0  0  0  0  0  0  0  0  0  0  0
  153.2745  144.3423  160.7140 H   0  0  0  0  0  0  0  0  0  0  0  0
  151.6330  145.5799  159.0286 H   0  0  0  0  0  0  0  0  0  0  0  0
  153.1505  145.1577  158.2163 H   0  0  0  0  0  0  0  0  0  0  0  0
  152.0821  143.5723  156.9121 H   0  0  0  0  0  0  0  0  0  0  0  0
  150.5407  144.1418  157.5209 H   0  0  0  0  0  0  0  0  0  0  0  0
  1  2  1  0  0  0  0
  1 17  1  0  0  0  0
  1 18  1  0  0  0  0
  1 19  1  0  0  0  0
  2  3  1  0  0  0  0
  2 20  1  0  0  0  0
  3  4  2  0  0  0  0
  3  5  1  0  0  0  0
  5  6  1  0  0  0  0
  5 21  1  0  0  0  0
  5 22  1  0  0  0  0
  6 16  1  0  0  0  0
  6  7  2  0  0  0  0
  7  8  1  0  0  0  0
  8  9  1  0  0  0  0
  9 10  1  0  0  0  0
  9 16  2  0  0  0  0
 10 11  1  0  0  0  0
 10 23  1  0  0  0  0
 10 24  1  0  0  0  0
 11 15  1  0  0  0  0
 11 12  1  0  0  0  0
 11 25  1  0  0  0  0
 12 13  2  0  0  0  0
 12 26  1  0  0  0  0
 13 14  1  0  0  0  0
 13 27  1  0  0  0  0
 14 15  1  0  0  0  0
 14 28  1  0  0  0  0
 14 29  1  0  0  0  0
 15 30  1  0  0  0  0
 15 31  1  0  0  0  0
M  END
> <s_m_source_file>
AV-unprocessed.smi

> <i_m_source_file_index>
629

> <i_lp_mmshare_version>
43012

> <i_f3d_flags>
0

> <s_epik_input>
W0NIM11bTkhdQyg9TylbQ0gyXWMxbm9jKG4xKVtDSDJdW0NAQEhdMltDSF09W0NIXVtDSDJdW0NIMl0y

> <s_epik_cmdline>
J2VwaWtfcHl0aG9uJywgJy1waCcsICc3LjAnLCAnLXRuJywgJzgnLCAnLW1hJywgJzIwMCcsICctbWV0YWxfYmluZGluZycsICctaW1hZScsICc8aW5maWxlLm1hZT4nLCAnLW9tYWUnLCAnPG91dGZpbGUubWFlPic=

> <r_lp_tautomer_probability>
1

> <r_epik_Ionization_Penalty>
1.02915e-07

> <r_epik_Ionization_Penalty_Charging>
0

> <r_epik_Ionization_Penalty_Neutral>
1.02915e-07

> <r_epik_State_Penalty>
-0

> <r_epik_Charging_Adjusted_Penalty>
0

> <i_epik_Tot_Q>
0

> <i_epik_Tot_abs_Q>
0

> <r_epik_Metal_State_Penalty>
-0

> <b_epik_Metal_Only>
0

> <s_lp_Force_Field>
OPLS_2005

> <r_lp_Energy>
15.6904

> <b_lp_Chiralities_Consistent>
1

> <s_lp_Variant>
AV-unprocessed.smi:629-2

> <Gold.Version>
5.8.1

> <Gold.Id.Protein>
6NUR|6NUR_protein|mol2

> <Gold.PLP.Fitness>
42.6344

> <Gold.PLP.PLP>
-37.4662

> <Gold.PLP.part.hbond>
-2.1180

> <Gold.PLP.part.metal>
0.0000

> <Gold.PLP.part.buried>
-3.2495

> <Gold.PLP.part.nonpolar>
-31.9369

> <Gold.PLP.part.repulsive>
0.3451

> <Gold.PLP.ligand.clash>
0.0000

> <Gold.PLP.ligand.torsion>
0.2231

> <Gold.PLP.Chemscore.Hbond>
1.8640

> <Gold.PLP.Chemscore.CHOScore>
0.0000

> <Gold.PLP.Chemscore.Metal>
0.0000

> <Gold.Chemscore.Hbonds>
donor molecule, donor type, donor heavy atom, donor atom, acceptor molecule, acceptor atom, score
      L1  H     2    20       P1  7957  0.85
      P1  H  7989  7998       L1     7  1.00

> <Gold.PLP.Chemscore.Internal.Correction>
0.0225

> <Gold.Rescore>
     Score         DG    S(hbond)    S(metal)    S(lipo)     H(rot)  DE(clash)    DE(int)     intcor
     14.62     -14.90       1.37        0.00      82.74       1.89       0.08       0.20       ----

> <Gold.Chemscore.Fitness>
14.6182

> <Gold.Chemscore.DG>
-14.9008

> <Gold.Chemscore.ZeroCoef>
-5.4800

> <Gold.Chemscore.Hbond>
1.3692

> <Gold.Chemscore.Metal>
0.0000

> <Gold.Chemscore.Lipo>
82.7371

> <Gold.Chemscore.Internal_Hbond>
0.0000

> <Gold.Chemscore.DEClash>
0.0846

> <Gold.Chemscore.DEInternal>
0.1979

> <Gold.Chemscore.Rot>
1.8877

> <Gold.Chemscore.Internal.Correction>
   9.000000E+99

> <Gold.Chemscore.Hbonds>
donor molecule, donor type, donor heavy atom, donor atom, acceptor molecule, acceptor atom, score
      L1  H     2    20       P1  7957  0.78
      P1  H  7989  7998       L1     7  0.15

> <Gold.Chemscore.Hbond.Weighted>
-4.5730

> <Gold.Chemscore.Metal.Weighted>
-0.0000

> <Gold.Chemscore.Lipo.Weighted>
-9.6802

> <Gold.Chemscore.Internal_Hbond.Weighted>
0.0000

> <Gold.Chemscore.DEClash.Weighted>
0.0846

> <Gold.Chemscore.DEInternal.Weighted>
0.1979

> <Gold.Chemscore.Rot.Weighted>
4.8325

> <Gold.Chemscore.Internal.Correction.Weighted>
   9.000000E+99

> <Gold.Protein.RotatedTorsions>
[ 6907 6896 6895 6894 ] final -140.21 input  -60.11 | X-H torsion
[ 7974 7965 7964 7962 ] final  118.66 input  175.53 | X-H torsion
[ 8008 7997 7996 7995 ] final  -91.32 input   59.86 | X-H torsion
[ 10167 10162 10161 10158 ] final  -86.52 input  -65.29 | X-H torsion
[ 10718 10713 10712 10709 ] final -139.25 input   66.30 | X-H torsion
[ 10763 10752 10751 10750 ] final  -64.82 input  -60.55 | X-H torsion
[ 11005 11000 10999 10996 ] final -157.01 input  -57.11 | X-H torsion

> <Gold.Protein.ActiveResidues>
 VAL166  LYS551  ARG553  GLY616  TRP617  ASP618  TYR619  PRO620  LYS621  CYS622 
 ASP623  PHE694  ASN695  SER759  ASP760  ASP761  ALA762  ILE779  LEU786  VAL792 
 PHE793  MET794  SER795  GLU796  ALA797  LYS798  CYS799  TRP800  GLU811  SER814 

> <Gold.Protein.RotatedAtoms>
  151.0577  133.5570  159.2636 H   0  0  0  0  0  0  0  0  0  0  0  0  # atno 6907 bound_to 6896
  151.2557  135.0636  159.9089 H   0  0  0  0  0  0  0  0  0  0  0  0  # atno 6908 bound_to 6896
  152.5392  134.0330  159.8087 H   0  0  0  0  0  0  0  0  0  0  0  0  # atno 6909 bound_to 6896
  145.1525  139.3202  143.4559 H   0  0  0  0  0  0  0  0  0  0  0  0  # atno 7974 bound_to 7965
  154.7093  140.0521  157.0534 H   0  0  0  0  0  0  0  0  0  0  0  0  # atno 8008 bound_to 7997
  155.0577  140.3186  155.4652 H   0  0  0  0  0  0  0  0  0  0  0  0  # atno 8009 bound_to 7997
  156.2784  140.2104  156.5703 H   0  0  0  0  0  0  0  0  0  0  0  0  # atno 8010 bound_to 7997
  140.3934  143.2695  151.9236 H   0  0  0  0  0  0  0  0  0  0  0  0  # atno 10167 bound_to 10162
  156.3086  130.7469  151.1539 H   0  0  0  0  0  0  0  0  0  0  0  0  # atno 10718 bound_to 10713
  154.3358  135.6167  153.5573 H   0  0  0  0  0  0  0  0  0  0  0  0  # atno 10763 bound_to 10752
  152.9808  135.5758  154.4909 H   0  0  0  0  0  0  0  0  0  0  0  0  # atno 10764 bound_to 10752
  154.4604  135.2855  155.1694 H   0  0  0  0  0  0  0  0  0  0  0  0  # atno 10765 bound_to 10752
  140.6693  134.4264  157.5232 H   0  0  0  0  0  0  0  0  0  0  0  0  # atno 11005 bound_to 11000
  146.3493  140.1605  142.8591 LP  0  0  0  0  0  0  0  0  0  0  0  0  # atno 17320 bound_to 7965
  145.0415  140.8949  143.5049 LP  0  0  0  0  0  0  0  0  0  0  0  0  # atno 17321 bound_to 7965
  139.4788  144.5705  151.8095 LP  0  0  0  0  0  0  0  0  0  0  0  0  # atno 17342 bound_to 10162
  140.4816  144.1441  150.5933 LP  0  0  0  0  0  0  0  0  0  0  0  0  # atno 17343 bound_to 10162
  157.7385  131.0539  150.5288 LP  0  0  0  0  0  0  0  0  0  0  0  0  # atno 17370 bound_to 10713
  156.5424  130.4211  149.6147 LP  0  0  0  0  0  0  0  0  0  0  0  0  # atno 17371 bound_to 10713
  139.8987  134.8608  156.1992 LP  0  0  0  0  0  0  0  0  0  0  0  0  # atno 17394 bound_to 11000
  141.0404  133.6941  156.1588 LP  0  0  0  0  0  0  0  0  0  0  0  0  # atno 17395 bound_to 11000

$$$$
