AV-unprocessed.smi:13|AV-procd|sdf|69|dock3
  -GOLD-   2262015193D 1   1.00000     0.00000
 Structure written by MMmdl.
 54 58  0  0  0  0  0  0  0  0  1 V2000
  151.7828  144.9982  158.8482 C   0  0  0  0  0  0  0  0  0  0  0  0
  151.0375  143.6614  158.7383 C   0  0  0  0  0  0  0  0  0  0  0  0
  149.6308  143.8974  159.2869 C   0  0  0  0  0  0  0  0  0  0  0  0
  151.1119  142.9697  157.3682 C   0  0  0  0  0  0  0  0  0  0  0  0
  152.2113  142.1833  157.9030 N   0  0  0  0  0  0  0  0  0  0  0  0
  152.2462  140.8269  157.4834 C   0  0  0  0  0  0  0  0  0  0  0  0
  152.9685  139.9757  158.2544 N   0  0  0  0  0  0  0  0  0  0  0  0
  153.0576  138.6772  157.9542 C   0  0  0  0  0  0  0  0  0  0  0  0
  152.5073  138.0187  156.9346 N   0  0  0  0  0  0  0  0  0  0  0  0
  151.7786  138.8585  156.1471 C   0  0  0  0  0  0  0  0  0  0  0  0
  151.5970  140.2576  156.3461 C   0  0  0  0  0  0  0  0  0  0  0  0
  150.7871  140.7697  155.3379 N   0  0  0  0  0  0  0  0  0  0  0  0
  150.5078  139.7375  154.5908 C   0  0  0  0  0  0  0  0  0  0  0  0
  151.0685  138.5498  155.0002 N   0  0  0  0  0  0  0  0  0  0  0  0
  150.9291  137.2532  154.3554 C   0  0  0  0  0  0  0  0  0  0  0  0
  150.1124  136.2411  155.1914 C   0  0  1  0  0  0  0  0  0  0  0  0
  149.7547  135.1472  154.3641 O   0  0  0  0  0  0  0  0  0  0  0  0
  150.8477  135.7027  156.4148 C   0  0  0  0  0  0  0  0  0  0  0  0
  149.7162  135.4333  157.3963 C   0  0  0  0  0  0  0  0  0  0  0  0
  148.8529  136.5380  157.1861 O   0  0  0  0  0  0  0  0  0  0  0  0
  148.8253  136.8388  155.7938 C   0  0  0  0  0  0  0  0  0  0  0  0
  151.7551  142.4025  159.2700 C   0  0  1  0  0  0  0  0  0  0  0  0
  152.9291  142.4906  160.2455 C   0  0  2  0  0  0  0  0  0  0  0  0
  153.4610  141.1332  160.7044 C   0  0  0  0  0  0  0  0  0  0  0  0
  154.0950  141.4377  162.0516 C   0  0  0  0  0  0  0  0  0  0  0  0
  153.4971  142.7917  162.4450 C   0  0  0  0  0  0  0  0  0  0  0  0
  152.4961  143.0565  161.4718 O   0  0  0  0  0  0  0  0  0  0  0  0
  151.2743  145.7859  158.2915 H   0  0  0  0  0  0  0  0  0  0  0  0
  152.7956  144.9302  158.4497 H   0  0  0  0  0  0  0  0  0  0  0  0
  151.8637  145.3277  159.8846 H   0  0  0  0  0  0  0  0  0  0  0  0
  149.0227  142.9940  159.2284 H   0  0  0  0  0  0  0  0  0  0  0  0
  149.1072  144.6742  158.7289 H   0  0  0  0  0  0  0  0  0  0  0  0
  149.6569  144.2007  160.3339 H   0  0  0  0  0  0  0  0  0  0  0  0
  150.2214  142.3895  157.1243 H   0  0  0  0  0  0  0  0  0  0  0  0
  151.4056  143.6262  156.5486 H   0  0  0  0  0  0  0  0  0  0  0  0
  153.6561  138.0814  158.6277 H   0  0  0  0  0  0  0  0  0  0  0  0
  149.8864  139.8156  153.7107 H   0  0  0  0  0  0  0  0  0  0  0  0
  150.4562  137.4044  153.3840 H   0  0  0  0  0  0  0  0  0  0  0  0
  151.9262  136.8610  154.1508 H   0  0  0  0  0  0  0  0  0  0  0  0
  149.4614  135.4854  153.5318 H   0  0  0  0  0  0  0  0  0  0  0  0
  151.4626  134.8248  156.2104 H   0  0  0  0  0  0  0  0  0  0  0  0
  151.4964  136.4724  156.8342 H   0  0  0  0  0  0  0  0  0  0  0  0
  149.1961  134.5056  157.1526 H   0  0  0  0  0  0  0  0  0  0  0  0
  150.0575  135.3793  158.4302 H   0  0  0  0  0  0  0  0  0  0  0  0
  148.7760  137.9211  155.6706 H   0  0  0  0  0  0  0  0  0  0  0  0
  147.9247  136.4192  155.3423 H   0  0  0  0  0  0  0  0  0  0  0  0
  151.0171  141.6622  159.5798 H   0  0  0  0  0  0  0  0  0  0  0  0
  153.7429  143.0987  159.8456 H   0  0  0  0  0  0  0  0  0  0  0  0
  152.6368  140.4311  160.8392 H   0  0  0  0  0  0  0  0  0  0  0  0
  154.1620  140.6932  159.9947 H   0  0  0  0  0  0  0  0  0  0  0  0
  153.8600  140.6607  162.7797 H   0  0  0  0  0  0  0  0  0  0  0  0
  155.1803  141.5077  161.9720 H   0  0  0  0  0  0  0  0  0  0  0  0
  153.0724  142.7861  163.4491 H   0  0  0  0  0  0  0  0  0  0  0  0
  154.2568  143.5733  162.4009 H   0  0  0  0  0  0  0  0  0  0  0  0
  1  2  1  0  0  0  0
  1 28  1  0  0  0  0
  1 29  1  0  0  0  0
  1 30  1  0  0  0  0
  2 22  1  0  0  0  0
  2  3  1  0  0  0  0
  2  4  1  0  0  0  0
  3 31  1  0  0  0  0
  3 32  1  0  0  0  0
  3 33  1  0  0  0  0
  4  5  1  0  0  0  0
  4 34  1  0  0  0  0
  4 35  1  0  0  0  0
  5  6  1  0  0  0  0
  5 22  1  0  0  0  0
  6 11  1  0  0  0  0
  6  7  2  0  0  0  0
  7  8  1  0  0  0  0
  8  9  2  0  0  0  0
  8 36  1  0  0  0  0
  9 10  1  0  0  0  0
 10 14  1  0  0  0  0
 10 11  2  0  0  0  0
 11 12  1  0  0  0  0
 12 13  2  0  0  0  0
 13 14  1  0  0  0  0
 13 37  1  0  0  0  0
 14 15  1  0  0  0  0
 15 16  1  0  0  0  0
 15 38  1  0  0  0  0
 15 39  1  0  0  0  0
 16 21  1  0  0  0  0
 16 17  1  0  0  0  0
 16 18  1  0  0  0  0
 17 40  1  0  0  0  0
 18 19  1  0  0  0  0
 18 41  1  0  0  0  0
 18 42  1  0  0  0  0
 19 20  1  0  0  0  0
 19 43  1  0  0  0  0
 19 44  1  0  0  0  0
 20 21  1  0  0  0  0
 21 45  1  0  0  0  0
 21 46  1  0  0  0  0
 22 23  1  0  0  0  0
 22 47  1  0  0  0  0
 23 27  1  0  0  0  0
 23 24  1  0  0  0  0
 23 48  1  0  0  0  0
 24 25  1  0  0  0  0
 24 49  1  0  0  0  0
 24 50  1  0  0  0  0
 25 26  1  0  0  0  0
 25 51  1  0  0  0  0
 25 52  1  0  0  0  0
 26 27  1  0  0  0  0
 26 53  1  0  0  0  0
 26 54  1  0  0  0  0
M  END
> <s_m_source_file>
AV-unprocessed.smi

> <i_m_source_file_index>
13

> <i_lp_mmshare_version>
43012

> <i_f3d_flags>
0

> <s_epik_input>
TzFbQ0gyXVtDSDJdW0NIMl1bQ0BIXTFbQ0BASF0yTihbQ0gyXUMyKFtDSDNdKVtDSDNdKWMobltjSF1uMyljKGMzNCluW2NIXW40W0NIMl1bQ0BAXTUoW09IXSlbQ0gyXVtDSDJdT1tDSDJdNQ==

> <s_epik_cmdline>
J2VwaWtfcHl0aG9uJywgJy1waCcsICc3LjAnLCAnLXRuJywgJzgnLCAnLW1hJywgJzIwMCcsICctbWV0YWxfYmluZGluZycsICctaW1hZScsICc8aW5maWxlLm1hZT4nLCAnLW9tYWUnLCAnPG91dGZpbGUubWFlPic=

> <r_lp_tautomer_probability>
1

> <r_epik_Ionization_Penalty>
0.00202764

> <r_epik_Ionization_Penalty_Charging>
0

> <r_epik_Ionization_Penalty_Neutral>
0.00202764

> <r_epik_State_Penalty>
0.00134017

> <r_epik_Charging_Adjusted_Penalty>
0.00134017

> <i_epik_Tot_Q>
0

> <i_epik_Tot_abs_Q>
0

> <r_epik_Metal_State_Penalty>
-0

> <b_epik_Metal_Only>
0

> <s_lp_Force_Field>
OPLS_2005

> <r_lp_Energy>
60.4132

> <b_lp_Chiralities_Consistent>
1

> <s_lp_Variant>
AV-unprocessed.smi:13-1

> <Gold.Version>
5.8.1

> <Gold.Id.Protein>
6NUR|6NUR_protein|mol2

> <Gold.PLP.Fitness>
50.1878

> <Gold.PLP.PLP>
-45.0864

> <Gold.PLP.part.hbond>
-2.8531

> <Gold.PLP.part.metal>
0.0000

> <Gold.PLP.part.buried>
-0.1103

> <Gold.PLP.part.nonpolar>
-40.1109

> <Gold.PLP.part.repulsive>
0.1721

> <Gold.PLP.ligand.clash>
0.0000

> <Gold.PLP.ligand.torsion>
0.6891

> <Gold.PLP.Chemscore.Hbond>
1.0840

> <Gold.PLP.Chemscore.CHOScore>
0.9250

> <Gold.PLP.Chemscore.Metal>
0.0000

> <Gold.Chemscore.Hbonds>
donor molecule, donor type, donor heavy atom, donor atom, acceptor molecule, acceptor atom, score
      L1  H    17    40       P1  7948  0.90
      P1  H  7997  8009       L1     7  0.03
      L1  C    13    37       P1  7957  0.90

> <Gold.PLP.Chemscore.Internal.Correction>
0.4527

> <Gold.Rescore>
     Score         DG    S(hbond)    S(metal)    S(lipo)     H(rot)  DE(clash)    DE(int)     intcor
     12.10     -15.60       0.93        0.00     110.41       2.30       0.14       3.37       ----

> <Gold.Chemscore.Fitness>
12.0969

> <Gold.Chemscore.DG>
-15.6026

> <Gold.Chemscore.ZeroCoef>
-5.4800

> <Gold.Chemscore.Hbond>
0.9256

> <Gold.Chemscore.Metal>
0.0000

> <Gold.Chemscore.Lipo>
110.4100

> <Gold.Chemscore.Internal_Hbond>
0.0000

> <Gold.Chemscore.DEClash>
0.1403

> <Gold.Chemscore.DEInternal>
3.3654

> <Gold.Chemscore.Rot>
2.2996

> <Gold.Chemscore.Internal.Correction>
   9.000000E+99

> <Gold.Chemscore.Hbonds>
donor molecule, donor type, donor heavy atom, donor atom, acceptor molecule, acceptor atom, score
      L1  H    17    40       P1  7948  0.18

> <Gold.Chemscore.Hbond.Weighted>
-3.0915

> <Gold.Chemscore.Metal.Weighted>
-0.0000

> <Gold.Chemscore.Lipo.Weighted>
-12.9180

> <Gold.Chemscore.Internal_Hbond.Weighted>
0.0000

> <Gold.Chemscore.DEClash.Weighted>
0.1403

> <Gold.Chemscore.DEInternal.Weighted>
3.3654

> <Gold.Chemscore.Rot.Weighted>
5.8869

> <Gold.Chemscore.Internal.Correction.Weighted>
   9.000000E+99

> <Gold.Protein.RotatedTorsions>
[ 6907 6896 6895 6894 ] final  -18.15 input  -60.11 | X-H torsion
[ 7974 7965 7964 7962 ] final -118.22 input  175.53 | X-H torsion
[ 8008 7997 7996 7995 ] final  154.02 input   59.86 | X-H torsion
[ 10167 10162 10161 10158 ] final  -65.31 input  -65.29 | X-H torsion
[ 10718 10713 10712 10709 ] final   43.89 input   66.30 | X-H torsion
[ 10763 10752 10751 10750 ] final  -54.80 input  -60.55 | X-H torsion
[ 11005 11000 10999 10996 ] final -150.40 input  -57.11 | X-H torsion

> <Gold.Protein.ActiveResidues>
 VAL166  LYS551  ARG553  GLY616  TRP617  ASP618  TYR619  PRO620  LYS621  CYS622 
 ASP623  PHE694  ASN695  SER759  ASP760  ASP761  ALA762  ILE779  LEU786  VAL792 
 PHE793  MET794  SER795  GLU796  ALA797  LYS798  CYS799  TRP800  GLU811  SER814 

> <Gold.Protein.RotatedAtoms>
  151.2825  135.0718  159.9174 H   0  0  0  0  0  0  0  0  0  0  0  0  # atno 6907 bound_to 6896
  152.5331  134.0016  159.7907 H   0  0  0  0  0  0  0  0  0  0  0  0  # atno 6908 bound_to 6896
  151.0272  133.5772  159.2695 H   0  0  0  0  0  0  0  0  0  0  0  0  # atno 6909 bound_to 6896
  145.0763  140.8395  143.4065 H   0  0  0  0  0  0  0  0  0  0  0  0  # atno 7974 bound_to 7965
  156.2553  140.1978  156.6580 H   0  0  0  0  0  0  0  0  0  0  0  0  # atno 8008 bound_to 7997
  154.6486  140.0575  156.9954 H   0  0  0  0  0  0  0  0  0  0  0  0  # atno 8009 bound_to 7997
  155.1453  140.3246  155.4446 H   0  0  0  0  0  0  0  0  0  0  0  0  # atno 8010 bound_to 7997
  140.5739  143.2320  151.6482 H   0  0  0  0  0  0  0  0  0  0  0  0  # atno 10167 bound_to 10162
  157.4209  130.7969  149.7514 H   0  0  0  0  0  0  0  0  0  0  0  0  # atno 10718 bound_to 10713
  154.1806  135.6444  153.5033 H   0  0  0  0  0  0  0  0  0  0  0  0  # atno 10763 bound_to 10752
  153.0060  135.5405  154.6518 H   0  0  0  0  0  0  0  0  0  0  0  0  # atno 10764 bound_to 10752
  154.5881  135.2931  155.0636 H   0  0  0  0  0  0  0  0  0  0  0  0  # atno 10765 bound_to 10752
  140.7406  134.3518  157.5148 H   0  0  0  0  0  0  0  0  0  0  0  0  # atno 11005 bound_to 11000
  145.1231  139.2680  143.5578 LP  0  0  0  0  0  0  0  0  0  0  0  0  # atno 17320 bound_to 7965
  146.3530  140.0861  142.8615 LP  0  0  0  0  0  0  0  0  0  0  0  0  # atno 17321 bound_to 7965
  139.5132  144.3451  152.0704 LP  0  0  0  0  0  0  0  0  0  0  0  0  # atno 17342 bound_to 10162
  140.2592  144.4086  150.6192 LP  0  0  0  0  0  0  0  0  0  0  0  0  # atno 17343 bound_to 10162
  155.9880  130.3962  150.3137 LP  0  0  0  0  0  0  0  0  0  0  0  0  # atno 17370 bound_to 10713
  157.1285  131.0265  151.2979 LP  0  0  0  0  0  0  0  0  0  0  0  0  # atno 17371 bound_to 10713
  139.8807  134.9078  156.2954 LP  0  0  0  0  0  0  0  0  0  0  0  0  # atno 17394 bound_to 11000
  140.9840  133.7250  156.0714 LP  0  0  0  0  0  0  0  0  0  0  0  0  # atno 17395 bound_to 11000

$$$$
