AV-unprocessed.smi:1682|AV-procd|sdf|6746|dock6
  -GOLD-   22720 7503D 1   1.00000     0.00000
 Structure written by MMmdl.
 39 40  0  0  0  0  0  0  0  0  2 V2000
  147.1911  138.6791  157.3382 O   0  0  0  0  0  0  0  0  0  0  0  0
  148.3654  138.3828  157.5604 C   0  0  0  0  0  0  0  0  0  0  0  0
  149.3936  139.2018  157.2911 N   0  0  0  0  0  0  0  0  0  0  0  0
  149.2751  140.5410  156.7206 C   0  0  0  0  0  0  0  0  0  0  0  0
  150.6309  141.1439  156.2980 C   0  0  0  0  0  0  0  0  0  0  0  0
  151.2034  142.1262  157.3053 C   0  0  0  0  0  0  0  0  0  0  0  0
  152.0344  141.7123  158.3697 C   0  0  0  0  0  0  0  0  0  0  0  0
  152.5397  142.6772  159.2654 C   0  0  0  0  0  0  0  0  0  0  0  0
  152.2018  144.0339  159.0803 C   0  0  0  0  0  0  0  0  0  0  0  0
  151.3667  144.3917  158.0022 C   0  0  0  0  0  0  0  0  0  0  0  0
  150.9044  143.4379  157.1639 N   0  3  0  0  0  0  0  0  0  0  0  0
  148.7172  137.0279  158.1940 C   0  0  1  0  0  0  0  0  0  0  0  0
  149.3807  137.2138  159.5725 C   0  0  0  0  0  0  0  0  0  0  0  0
  148.3656  136.6477  160.5504 C   0  0  0  0  0  0  0  0  0  0  0  0
  148.5007  136.7307  161.7699 O   0  0  0  0  0  0  0  0  0  0  0  0
  147.3390  136.0838  159.9056 N   0  0  0  0  0  0  0  0  0  0  0  0
  146.1646  135.4646  160.5185 C   0  0  0  0  0  0  0  0  0  0  0  0
  146.5378  134.4280  161.5939 C   0  0  0  0  0  0  0  0  0  0  0  0
  146.9434  135.0196  162.7172 F   0  0  0  0  0  0  0  0  0  0  0  0
  145.4660  133.6870  161.8714 F   0  0  0  0  0  0  0  0  0  0  0  0
  147.5043  133.6255  161.1480 F   0  0  0  0  0  0  0  0  0  0  0  0
  147.4730  136.1516  158.4592 C   0  0  0  0  0  0  0  0  0  0  0  0
  150.3261  138.8751  157.5004 H   0  0  0  0  0  0  0  0  0  0  0  0
  148.6255  140.4648  155.8484 H   0  0  0  0  0  0  0  0  0  0  0  0
  148.7684  141.2032  157.4243 H   0  0  0  0  0  0  0  0  0  0  0  0
  151.3525  140.3424  156.1355 H   0  0  0  0  0  0  0  0  0  0  0  0
  150.5277  141.6490  155.3369 H   0  0  0  0  0  0  0  0  0  0  0  0
  152.2859  140.6690  158.4965 H   0  0  0  0  0  0  0  0  0  0  0  0
  153.1781  142.3799  160.0846 H   0  0  0  0  0  0  0  0  0  0  0  0
  152.5772  144.7886  159.7562 H   0  0  0  0  0  0  0  0  0  0  0  0
  151.0568  145.4040  157.7865 H   0  0  0  0  0  0  0  0  0  0  0  0
  149.3980  136.4923  157.5299 H   0  0  0  0  0  0  0  0  0  0  0  0
  150.3087  136.6458  159.6426 H   0  0  0  0  0  0  0  0  0  0  0  0
  149.6036  138.2537  159.8170 H   0  0  0  0  0  0  0  0  0  0  0  0
  145.5293  136.2389  160.9515 H   0  0  0  0  0  0  0  0  0  0  0  0
  145.5682  134.9850  159.7411 H   0  0  0  0  0  0  0  0  0  0  0  0
  146.5636  136.5527  158.0082 H   0  0  0  0  0  0  0  0  0  0  0  0
  147.6182  135.1460  158.0626 H   0  0  0  0  0  0  0  0  0  0  0  0
  150.3015  143.7198  156.3905 H   0  0  0  0  0  0  0  0  0  0  0  0
  1  2  2  0  0  0  0
  2  3  1  0  0  0  0
  2 12  1  0  0  0  0
  3  4  1  0  0  0  0
  3 23  1  0  0  0  0
  4  5  1  0  0  0  0
  4 24  1  0  0  0  0
  4 25  1  0  0  0  0
  5  6  1  0  0  0  0
  5 26  1  0  0  0  0
  5 27  1  0  0  0  0
  6 11  1  0  0  0  0
  6  7  2  0  0  0  0
  7  8  1  0  0  0  0
  7 28  1  0  0  0  0
  8  9  2  0  0  0  0
  8 29  1  0  0  0  0
  9 10  1  0  0  0  0
  9 30  1  0  0  0  0
 10 11  2  0  0  0  0
 10 31  1  0  0  0  0
 11 39  1  0  0  0  0
 12 22  1  0  0  0  0
 12 13  1  0  0  0  0
 12 32  1  0  0  0  0
 13 14  1  0  0  0  0
 13 33  1  0  0  0  0
 13 34  1  0  0  0  0
 14 15  2  0  0  0  0
 14 16  1  0  0  0  0
 16 17  1  0  0  0  0
 16 22  1  0  0  0  0
 17 18  1  0  0  0  0
 17 35  1  0  0  0  0
 17 36  1  0  0  0  0
 18 19  1  0  0  0  0
 18 20  1  0  0  0  0
 18 21  1  0  0  0  0
 22 37  1  0  0  0  0
 22 38  1  0  0  0  0
M  CHG  1  11   1
M  END
> <s_m_source_file>
AV-unprocessed.smi

> <i_m_source_file_index>
1682

> <i_lp_mmshare_version>
43012

> <i_f3d_flags>
0

> <s_epik_input>
RkMoRikoRilbQ0gyXU4oW0NIMl0xKUMoPU8pW0NIMl1bQ0BIXTFDKD1PKVtOSF1bQ0gyXVtDSDJdYzJbY0hdW2NIXVtjSF1bY0hdbjI=

> <s_epik_cmdline>
J2VwaWtfcHl0aG9uJywgJy1waCcsICc3LjAnLCAnLXRuJywgJzgnLCAnLW1hJywgJzIwMCcsICctbWV0YWxfYmluZGluZycsICctaW1hZScsICc8aW5maWxlLm1hZT4nLCAnLW9tYWUnLCAnPG91dGZpbGUubWFlPic=

> <r_epik_Ionization_Penalty>
1.88249

> <r_epik_Ionization_Penalty_Charging>
1.88249

> <r_epik_Ionization_Penalty_Neutral>
2.8664e-08

> <r_epik_State_Penalty>
2.00238

> <r_epik_Charging_Adjusted_Penalty>
3.88487

> <i_epik_Tot_Q>
1

> <i_epik_Tot_abs_Q>
1

> <r_epik_Metal_State_Penalty>
2.02677

> <b_epik_Metal_Only>
0

> <s_lp_Force_Field>
OPLS_2005

> <r_lp_Energy>
19.2524

> <b_lp_Chiralities_Consistent>
1

> <s_lp_Variant>
AV-unprocessed.smi:1682-4

> <Gold.Version>
5.8.1

> <Gold.Id.Protein>
6NUR|6NUR_protein|mol2

> <Gold.PLP.Fitness>
46.4561

> <Gold.PLP.PLP>
-39.2156

> <Gold.PLP.part.hbond>
-2.0000

> <Gold.PLP.part.metal>
0.0000

> <Gold.PLP.part.buried>
-1.7379

> <Gold.PLP.part.nonpolar>
-35.2368

> <Gold.PLP.part.repulsive>
0.0623

> <Gold.PLP.ligand.clash>
0.0000

> <Gold.PLP.ligand.torsion>
0.9472

> <Gold.PLP.Chemscore.Hbond>
3.0000

> <Gold.PLP.Chemscore.CHOScore>
0.0000

> <Gold.PLP.Chemscore.Metal>
0.0000

> <Gold.Chemscore.Hbonds>
donor molecule, donor type, donor heavy atom, donor atom, acceptor molecule, acceptor atom, score
      L1  H    11    39       P1  8028  2.00
      P1  H  6931  6943       L1    15  1.00

> <Gold.PLP.Chemscore.Internal.Correction>
0.1348

> <Gold.Rescore>
     Score         DG    S(hbond)    S(metal)    S(lipo)     H(rot)  DE(clash)    DE(int)     intcor
     13.12     -15.73       1.84        0.00      82.93       2.19       0.04       2.57       ----

> <Gold.Chemscore.Fitness>
13.1204

> <Gold.Chemscore.DG>
-15.7294

> <Gold.Chemscore.ZeroCoef>
-5.4800

> <Gold.Chemscore.Hbond>
1.8445

> <Gold.Chemscore.Metal>
0.0000

> <Gold.Chemscore.Lipo>
82.9343

> <Gold.Chemscore.Internal_Hbond>
0.0000

> <Gold.Chemscore.DEClash>
0.0368

> <Gold.Chemscore.DEInternal>
2.5721

> <Gold.Chemscore.Rot>
2.1932

> <Gold.Chemscore.Internal.Correction>
   9.000000E+99

> <Gold.Chemscore.Hbonds>
donor molecule, donor type, donor heavy atom, donor atom, acceptor molecule, acceptor atom, score
      L1  H    11    39       P1  8028  0.96
      P1  H  6931  6943       L1    15  0.30

> <Gold.Chemscore.Hbond.Weighted>
-6.1605

> <Gold.Chemscore.Metal.Weighted>
-0.0000

> <Gold.Chemscore.Lipo.Weighted>
-9.7033

> <Gold.Chemscore.Internal_Hbond.Weighted>
0.0000

> <Gold.Chemscore.DEClash.Weighted>
0.0368

> <Gold.Chemscore.DEInternal.Weighted>
2.5721

> <Gold.Chemscore.Rot.Weighted>
5.6145

> <Gold.Chemscore.Internal.Correction.Weighted>
   9.000000E+99

> <Gold.Protein.RotatedTorsions>
[ 6907 6896 6895 6894 ] final  162.27 input  -60.11 | X-H torsion
[ 7974 7965 7964 7962 ] final   93.41 input  175.53 | X-H torsion
[ 8008 7997 7996 7995 ] final  -99.57 input   59.86 | X-H torsion
[ 10167 10162 10161 10158 ] final  -31.83 input  -65.29 | X-H torsion
[ 10718 10713 10712 10709 ] final   80.90 input   66.30 | X-H torsion
[ 10763 10752 10751 10750 ] final  -12.53 input  -60.55 | X-H torsion
[ 11005 11000 10999 10996 ] final  134.08 input  -57.11 | X-H torsion

> <Gold.Protein.ActiveResidues>
 VAL166  LYS551  ARG553  GLY616  TRP617  ASP618  TYR619  PRO620  LYS621  CYS622 
 ASP623  PHE694  ASN695  SER759  ASP760  ASP761  ALA762  ILE779  LEU786  VAL792 
 PHE793  MET794  SER795  GLU796  ALA797  LYS798  CYS799  TRP800  GLU811  SER814 

> <Gold.Protein.RotatedAtoms>
  151.9430  133.3643  159.3971 H   0  0  0  0  0  0  0  0  0  0  0  0  # atno 6907 bound_to 6896
  150.6995  134.4419  159.5305 H   0  0  0  0  0  0  0  0  0  0  0  0  # atno 6908 bound_to 6896
  152.2080  134.8528  160.0551 H   0  0  0  0  0  0  0  0  0  0  0  0  # atno 6909 bound_to 6896
  145.4793  139.2279  143.2891 H   0  0  0  0  0  0  0  0  0  0  0  0  # atno 7974 bound_to 7965
  154.8167  140.0447  157.1381 H   0  0  0  0  0  0  0  0  0  0  0  0  # atno 8008 bound_to 7997
  154.9307  140.3039  155.5149 H   0  0  0  0  0  0  0  0  0  0  0  0  # atno 8009 bound_to 7997
  156.2976  140.2323  156.4366 H   0  0  0  0  0  0  0  0  0  0  0  0  # atno 8010 bound_to 7997
  140.7230  143.3741  151.1723 H   0  0  0  0  0  0  0  0  0  0  0  0  # atno 10167 bound_to 10162
  157.6819  130.9980  150.2147 H   0  0  0  0  0  0  0  0  0  0  0  0  # atno 10718 bound_to 10713
  153.4999  135.7017  153.5838 H   0  0  0  0  0  0  0  0  0  0  0  0  # atno 10763 bound_to 10752
  153.3974  135.3880  155.1964 H   0  0  0  0  0  0  0  0  0  0  0  0  # atno 10764 bound_to 10752
  154.8711  135.3873  154.4468 H   0  0  0  0  0  0  0  0  0  0  0  0  # atno 10765 bound_to 10752
  139.9892  134.9521  156.9816 H   0  0  0  0  0  0  0  0  0  0  0  0  # atno 11005 bound_to 11000
  146.2351  140.5578  142.8958 LP  0  0  0  0  0  0  0  0  0  0  0  0  # atno 17320 bound_to 7965
  144.7899  140.6010  143.6549 LP  0  0  0  0  0  0  0  0  0  0  0  0  # atno 17321 bound_to 7965
  139.7317  143.9061  152.3022 LP  0  0  0  0  0  0  0  0  0  0  0  0  # atno 17342 bound_to 10162
  139.8853  144.6995  150.8832 LP  0  0  0  0  0  0  0  0  0  0  0  0  # atno 17343 bound_to 10162
  156.2811  130.3733  149.7934 LP  0  0  0  0  0  0  0  0  0  0  0  0  # atno 17370 bound_to 10713
  156.5622  130.8388  151.3332 LP  0  0  0  0  0  0  0  0  0  0  0  0  # atno 17371 bound_to 10713
  140.4942  134.1163  155.7238 LP  0  0  0  0  0  0  0  0  0  0  0  0  # atno 17394 bound_to 11000
  141.1551  133.8897  157.1997 LP  0  0  0  0  0  0  0  0  0  0  0  0  # atno 17395 bound_to 11000

$$$$
