AV-unprocessed.smi:697|AV-procd|sdf|3394|dock3
  -GOLD-   22720 0373D 1   1.00000     0.00000
 Structure written by MMmdl.
 43 44  0  0  0  0  0  0  0  0  2 V2000
  152.5620  138.1434  158.7545 C   0  0  0  0  0  0  0  0  0  0  0  0
  152.4357  138.1462  157.3377 O   0  0  0  0  0  0  0  0  0  0  0  0
  151.1228  138.3398  156.7931 C   0  0  2  0  0  0  0  0  0  0  0  0
  150.4883  139.6171  157.3578 C   0  0  0  0  0  0  0  0  0  0  0  0
  150.3288  137.0201  156.8352 C   0  0  0  0  0  0  0  0  0  0  0  0
  151.0293  136.6422  155.5318 C   0  0  1  0  0  0  0  0  0  0  0  0
  150.1511  135.9335  154.6070 N   0  0  0  0  0  0  0  0  0  0  0  0
  149.8315  134.6367  154.7072 C   0  0  0  0  0  0  0  0  0  0  0  0
  150.2458  133.9087  155.6091 O   0  0  0  0  0  0  0  0  0  0  0  0
  149.0345  134.2625  153.6904 N   0  0  0  0  0  0  0  0  0  0  0  0
  148.4511  133.0118  153.4272 C   0  0  0  0  0  0  0  0  0  0  0  0
  149.0137  131.8107  153.7366 C   0  0  0  0  0  0  0  0  0  0  0  0
  148.3515  130.5433  153.4538 C   0  0  0  0  0  0  0  0  0  0  0  0
  148.9121  129.1907  153.8562 C   0  0  0  0  0  0  0  0  0  0  0  0
  150.1353  129.3127  154.3727 F   0  0  0  0  0  0  0  0  0  0  0  0
  148.1276  128.6294  154.7751 F   0  0  0  0  0  0  0  0  0  0  0  0
  148.9786  128.3693  152.8082 F   0  0  0  0  0  0  0  0  0  0  0  0
  147.1078  130.7186  152.8787 C   0  0  0  0  0  0  0  0  0  0  0  0
  146.4840  131.8663  152.5338 N   0  5  0  0  0  0  0  0  0  0  0  0
  147.1157  133.0453  152.7956 C   0  0  0  0  0  0  0  0  0  0  0  0
  146.5992  134.1282  152.5172 O   0  0  0  0  0  0  0  0  0  0  0  0
  151.1993  138.1557  155.2418 C   0  0  0  0  0  0  0  0  0  0  0  0
  150.0818  138.8335  154.4259 C   0  0  0  0  0  0  0  0  0  0  0  0
  152.5134  138.5651  154.5678 C   0  0  0  0  0  0  0  0  0  0  0  0
  153.5732  137.8359  159.0202 H   0  0  0  0  0  0  0  0  0  0  0  0
  151.8701  137.4508  159.2328 H   0  0  0  0  0  0  0  0  0  0  0  0
  152.4088  139.1375  159.1738 H   0  0  0  0  0  0  0  0  0  0  0  0
  149.5331  139.8395  156.8835 H   0  0  0  0  0  0  0  0  0  0  0  0
  151.1362  140.4810  157.2076 H   0  0  0  0  0  0  0  0  0  0  0  0
  150.2821  139.5333  158.4245 H   0  0  0  0  0  0  0  0  0  0  0  0
  150.5475  136.3533  157.6685 H   0  0  0  0  0  0  0  0  0  0  0  0
  149.2530  137.1697  156.7266 H   0  0  0  0  0  0  0  0  0  0  0  0
  151.9789  136.1350  155.7184 H   0  0  0  0  0  0  0  0  0  0  0  0
  149.7720  136.4620  153.8350 H   0  0  0  0  0  0  0  0  0  0  0  0
  148.8455  134.9620  152.9875 H   0  0  0  0  0  0  0  0  0  0  0  0
  149.9732  131.7587  154.2242 H   0  0  0  0  0  0  0  0  0  0  0  0
  146.5229  129.7975  152.6696 H   0  0  0  0  0  0  0  0  0  0  0  0
  150.0998  138.5209  153.3813 H   0  0  0  0  0  0  0  0  0  0  0  0
  150.1814  139.9193  154.4378 H   0  0  0  0  0  0  0  0  0  0  0  0
  149.0893  138.5973  154.8099 H   0  0  0  0  0  0  0  0  0  0  0  0
  152.5046  138.3410  153.5008 H   0  0  0  0  0  0  0  0  0  0  0  0
  153.3698  138.0378  154.9887 H   0  0  0  0  0  0  0  0  0  0  0  0
  152.7027  139.6330  154.6806 H   0  0  0  0  0  0  0  0  0  0  0  0
  1  2  1  0  0  0  0
  1 25  1  0  0  0  0
  1 26  1  0  0  0  0
  1 27  1  0  0  0  0
  2  3  1  0  0  0  0
  3 22  1  0  0  0  0
  3  4  1  0  0  0  0
  3  5  1  0  0  0  0
  4 28  1  0  0  0  0
  4 29  1  0  0  0  0
  4 30  1  0  0  0  0
  5  6  1  0  0  0  0
  5 31  1  0  0  0  0
  5 32  1  0  0  0  0
  6  7  1  0  0  0  0
  6 22  1  0  0  0  0
  6 33  1  0  0  0  0
  7  8  1  0  0  0  0
  7 34  1  0  0  0  0
  8  9  2  0  0  0  0
  8 10  1  0  0  0  0
 10 11  1  0  0  0  0
 10 35  1  0  0  0  0
 11 20  1  0  0  0  0
 11 12  2  0  0  0  0
 12 13  1  0  0  0  0
 12 36  1  0  0  0  0
 13 14  1  0  0  0  0
 13 18  2  0  0  0  0
 14 15  1  0  0  0  0
 14 16  1  0  0  0  0
 14 17  1  0  0  0  0
 18 19  1  0  0  0  0
 18 37  1  0  0  0  0
 19 20  1  0  0  0  0
 20 21  2  0  0  0  0
 22 23  1  0  0  0  0
 22 24  1  0  0  0  0
 23 38  1  0  0  0  0
 23 39  1  0  0  0  0
 23 40  1  0  0  0  0
 24 41  1  0  0  0  0
 24 42  1  0  0  0  0
 24 43  1  0  0  0  0
M  CHG  1  19  -1
M  END
> <s_m_source_file>
AV-unprocessed.smi

> <i_m_source_file_index>
697

> <i_lp_mmshare_version>
43012

> <i_f3d_flags>
0

> <s_epik_input>
W0NIM11PW0NAQF0xKFtDSDNdKVtDSDJdW0NASF0oQzEoW0NIM10pW0NIM10pW05IXUMoPU8pW05IXWMyW2NIXWMoQyhGKShGKUYpW2NIXVtuSF1jMj1P

> <s_epik_cmdline>
J2VwaWtfcHl0aG9uJywgJy1waCcsICc3LjAnLCAnLXRuJywgJzgnLCAnLW1hJywgJzIwMCcsICctbWV0YWxfYmluZGluZycsICctaW1hZScsICc8aW5maWxlLm1hZT4nLCAnLW9tYWUnLCAnPG91dGZpbGUubWFlPic=

> <r_lp_tautomer_probability>
1

> <r_epik_Ionization_Penalty>
3.20094

> <r_epik_Ionization_Penalty_Charging>
0.180017

> <r_epik_Ionization_Penalty_Neutral>
3.02092

> <r_epik_State_Penalty>
3.01726

> <r_epik_Charging_Adjusted_Penalty>
3.19727

> <i_epik_Tot_Q>
-1

> <i_epik_Tot_abs_Q>
1

> <r_epik_Metal_State_Penalty>
0.455096

> <b_epik_Metal_Only>
1

> <s_lp_Force_Field>
OPLS_2005

> <r_lp_Energy>
36.2607

> <b_lp_Chiralities_Consistent>
1

> <s_lp_Variant>
AV-unprocessed.smi:697-6

> <Gold.Version>
5.8.1

> <Gold.Id.Protein>
6NUR|6NUR_protein|mol2

> <Gold.PLP.Fitness>
38.3558

> <Gold.PLP.PLP>
-33.7217

> <Gold.PLP.part.hbond>
-2.2463

> <Gold.PLP.part.metal>
0.0000

> <Gold.PLP.part.buried>
-4.4860

> <Gold.PLP.part.nonpolar>
-27.5006

> <Gold.PLP.part.repulsive>
0.3449

> <Gold.PLP.ligand.clash>
0.0000

> <Gold.PLP.ligand.torsion>
0.5376

> <Gold.PLP.Chemscore.Hbond>
1.7579

> <Gold.PLP.Chemscore.CHOScore>
0.0000

> <Gold.PLP.Chemscore.Metal>
0.0000

> <Gold.Chemscore.Hbonds>
donor molecule, donor type, donor heavy atom, donor atom, acceptor molecule, acceptor atom, score
      L1  H     7    34       P1  7948  0.66
      L1  H    10    35       P1  7948  0.95

> <Gold.PLP.Chemscore.Internal.Correction>
0.4357

> <Gold.Rescore>
     Score         DG    S(hbond)    S(metal)    S(lipo)     H(rot)  DE(clash)    DE(int)     intcor
     12.70     -14.32       1.41        0.00      63.60       1.30       0.19       1.43       ----

> <Gold.Chemscore.Fitness>
12.6994

> <Gold.Chemscore.DG>
-14.3163

> <Gold.Chemscore.ZeroCoef>
-5.4800

> <Gold.Chemscore.Hbond>
1.4121

> <Gold.Chemscore.Metal>
0.0000

> <Gold.Chemscore.Lipo>
63.5961

> <Gold.Chemscore.Internal_Hbond>
0.0000

> <Gold.Chemscore.DEClash>
0.1889

> <Gold.Chemscore.DEInternal>
1.4280

> <Gold.Chemscore.Rot>
1.2973

> <Gold.Chemscore.Internal.Correction>
   9.000000E+99

> <Gold.Chemscore.Hbonds>
donor molecule, donor type, donor heavy atom, donor atom, acceptor molecule, acceptor atom, score
      L1  H     7    34       P1  7948  0.29
      L1  H    10    35       P1  7948  0.21

> <Gold.Chemscore.Hbond.Weighted>
-4.7165

> <Gold.Chemscore.Metal.Weighted>
-0.0000

> <Gold.Chemscore.Lipo.Weighted>
-7.4407

> <Gold.Chemscore.Internal_Hbond.Weighted>
0.0000

> <Gold.Chemscore.DEClash.Weighted>
0.1889

> <Gold.Chemscore.DEInternal.Weighted>
1.4280

> <Gold.Chemscore.Rot.Weighted>
3.3210

> <Gold.Chemscore.Internal.Correction.Weighted>
   9.000000E+99

> <Gold.Protein.RotatedTorsions>
[ 6907 6896 6895 6894 ] final -100.70 input  -60.11 | X-H torsion
[ 7974 7965 7964 7962 ] final   82.49 input  175.53 | X-H torsion
[ 8008 7997 7996 7995 ] final   37.55 input   59.86 | X-H torsion
[ 10167 10162 10161 10158 ] final  123.64 input  -65.29 | X-H torsion
[ 10718 10713 10712 10709 ] final  152.92 input   66.30 | X-H torsion
[ 10763 10752 10751 10750 ] final  -44.18 input  -60.55 | X-H torsion
[ 11005 11000 10999 10996 ] final -165.33 input  -57.11 | X-H torsion

> <Gold.Protein.ActiveResidues>
 VAL166  LYS551  ARG553  GLY616  TRP617  ASP618  TYR619  PRO620  LYS621  CYS622 
 ASP623  PHE694  ASN695  SER759  ASP760  ASP761  ALA762  ILE779  LEU786  VAL792 
 PHE793  MET794  SER795  GLU796  ALA797  LYS798  CYS799  TRP800  GLU811  SER814 

> <Gold.Protein.RotatedAtoms>
  150.7126  134.0848  159.3910 H   0  0  0  0  0  0  0  0  0  0  0  0  # atno 6907 bound_to 6896
  151.8832  135.0443  160.0500 H   0  0  0  0  0  0  0  0  0  0  0  0  # atno 6908 bound_to 6896
  152.2551  133.5213  159.5385 H   0  0  0  0  0  0  0  0  0  0  0  0  # atno 6909 bound_to 6896
  145.6244  139.2392  143.2120 H   0  0  0  0  0  0  0  0  0  0  0  0  # atno 7974 bound_to 7965
  155.2056  140.3319  155.4336 H   0  0  0  0  0  0  0  0  0  0  0  0  # atno 8008 bound_to 7997
  156.2390  140.1886  156.7089 H   0  0  0  0  0  0  0  0  0  0  0  0  # atno 8009 bound_to 7997
  154.6112  140.0608  156.9482 H   0  0  0  0  0  0  0  0  0  0  0  0  # atno 8010 bound_to 7997
  139.5787  144.6976  151.3584 H   0  0  0  0  0  0  0  0  0  0  0  0  # atno 10167 bound_to 10162
  157.2515  131.0780  151.1726 H   0  0  0  0  0  0  0  0  0  0  0  0  # atno 10718 bound_to 10713
  154.0078  135.6685  153.4763 H   0  0  0  0  0  0  0  0  0  0  0  0  # atno 10763 bound_to 10752
  153.0634  135.5015  154.8141 H   0  0  0  0  0  0  0  0  0  0  0  0  # atno 10764 bound_to 10752
  154.7014  135.3079  154.9299 H   0  0  0  0  0  0  0  0  0  0  0  0  # atno 10765 bound_to 10752
  140.5769  134.5181  157.5172 H   0  0  0  0  0  0  0  0  0  0  0  0  # atno 11005 bound_to 11000
  146.1406  140.7063  142.9369 LP  0  0  0  0  0  0  0  0  0  0  0  0  # atno 17320 bound_to 7965
  144.7218  140.4398  143.7002 LP  0  0  0  0  0  0  0  0  0  0  0  0  # atno 17321 bound_to 7965
  140.7068  143.7494  150.7496 LP  0  0  0  0  0  0  0  0  0  0  0  0  # atno 17342 bound_to 10162
  140.1020  143.4778  152.2419 LP  0  0  0  0  0  0  0  0  0  0  0  0  # atno 17343 bound_to 10162
  157.3272  130.6967  149.6303 LP  0  0  0  0  0  0  0  0  0  0  0  0  # atno 17370 bound_to 10713
  155.9666  130.4318  150.4935 LP  0  0  0  0  0  0  0  0  0  0  0  0  # atno 17371 bound_to 10713
  139.9335  134.7918  156.0865 LP  0  0  0  0  0  0  0  0  0  0  0  0  # atno 17394 bound_to 11000
  141.1021  133.6673  156.2778 LP  0  0  0  0  0  0  0  0  0  0  0  0  # atno 17395 bound_to 11000

$$$$
