AV-unprocessed.smi:2061|AV-procd|sdf|8376|dock6
  -GOLD-   2272011 53D 1   1.00000     0.00000
 Structure written by MMmdl.
 44 45  0  0  0  0  0  0  0  0  2 V2000
  146.3391  136.1299  162.2599 C   0  0  0  0  0  0  0  0  0  0  0  0
  147.3040  136.4025  161.1571 C   0  0  0  0  0  0  0  0  0  0  0  0
  148.3551  135.6940  160.6478 C   0  0  0  0  0  0  0  0  0  0  0  0
  148.8387  136.5332  159.6069 C   0  0  0  0  0  0  0  0  0  0  0  0
  149.8877  136.2769  158.8103 N   0  5  0  0  0  0  0  0  0  0  0  0
  150.1986  137.1211  157.7997 C   0  0  0  0  0  0  0  0  0  0  0  0
  149.9932  136.9311  156.5985 O   0  0  0  0  0  0  0  0  0  0  0  0
  150.7896  138.2543  158.2057 N   0  0  0  0  0  0  0  0  0  0  0  0
  151.2533  139.3366  157.3401 C   0  0  0  0  0  0  0  0  0  0  0  0
  150.5618  140.7023  157.6273 C   0  0  2  0  0  0  0  0  0  0  0  0
  149.8721  141.1949  156.3290 C   0  0  0  0  0  0  0  0  0  0  0  0
  151.4753  141.7150  158.2085 N   0  0  0  0  0  0  0  0  0  0  0  0
  150.8231  143.0169  158.3923 C   0  0  0  0  0  0  0  0  0  0  0  0
  151.7385  144.0866  159.0207 C   0  0  2  0  0  0  0  0  0  0  0  0
  152.7994  144.6296  158.0481 C   0  0  0  0  0  0  0  0  0  0  0  0
  152.3219  143.5971  160.2260 O   0  0  0  0  0  0  0  0  0  0  0  0
  152.9919  142.3479  160.0976 C   0  0  1  0  0  0  0  0  0  0  0  0
  153.4994  141.9375  161.4841 C   0  0  0  0  0  0  0  0  0  0  0  0
  152.0299  141.3044  159.5018 C   0  0  0  0  0  0  0  0  0  0  0  0
  148.1526  137.6592  159.5055 N   0  0  0  0  0  0  0  0  0  0  0  0
  147.1621  137.5802  160.4917 O   0  0  0  0  0  0  0  0  0  0  0  0
  146.8260  136.2295  163.2300 H   0  0  0  0  0  0  0  0  0  0  0  0
  145.9409  135.1182  162.1827 H   0  0  0  0  0  0  0  0  0  0  0  0
  145.5002  136.8257  162.2295 H   0  0  0  0  0  0  0  0  0  0  0  0
  148.7192  134.7286  160.9652 H   0  0  0  0  0  0  0  0  0  0  0  0
  150.9367  138.3694  159.1976 H   0  0  0  0  0  0  0  0  0  0  0  0
  152.3341  139.3881  157.4630 H   0  0  0  0  0  0  0  0  0  0  0  0
  151.0753  139.0414  156.3059 H   0  0  0  0  0  0  0  0  0  0  0  0
  149.7701  140.5142  158.3541 H   0  0  0  0  0  0  0  0  0  0  0  0
  149.2435  140.4298  155.8749 H   0  0  0  0  0  0  0  0  0  0  0  0
  150.6074  141.4988  155.5834 H   0  0  0  0  0  0  0  0  0  0  0  0
  149.2041  142.0359  156.5080 H   0  0  0  0  0  0  0  0  0  0  0  0
  150.4697  143.4126  157.4420 H   0  0  0  0  0  0  0  0  0  0  0  0
  149.9421  142.8918  159.0239 H   0  0  0  0  0  0  0  0  0  0  0  0
  151.1131  144.9319  159.3090 H   0  0  0  0  0  0  0  0  0  0  0  0
  152.3280  145.1136  157.1925 H   0  0  0  0  0  0  0  0  0  0  0  0
  153.4429  143.8403  157.6600 H   0  0  0  0  0  0  0  0  0  0  0  0
  153.4335  145.3689  158.5378 H   0  0  0  0  0  0  0  0  0  0  0  0
  153.8540  142.4635  159.4402 H   0  0  0  0  0  0  0  0  0  0  0  0
  154.0303  140.9861  161.4418 H   0  0  0  0  0  0  0  0  0  0  0  0
  152.6753  141.8304  162.1901 H   0  0  0  0  0  0  0  0  0  0  0  0
  154.1865  142.6835  161.8842 H   0  0  0  0  0  0  0  0  0  0  0  0
  151.2192  141.1048  160.2046 H   0  0  0  0  0  0  0  0  0  0  0  0
  152.5969  140.3817  159.4023 H   0  0  0  0  0  0  0  0  0  0  0  0
  1  2  1  0  0  0  0
  1 22  1  0  0  0  0
  1 23  1  0  0  0  0
  1 24  1  0  0  0  0
  2 21  1  0  0  0  0
  2  3  2  0  0  0  0
  3  4  1  0  0  0  0
  3 25  1  0  0  0  0
  4  5  1  0  0  0  0
  4 20  2  0  0  0  0
  5  6  1  0  0  0  0
  6  7  2  0  0  0  0
  6  8  1  0  0  0  0
  8  9  1  0  0  0  0
  8 26  1  0  0  0  0
  9 10  1  0  0  0  0
  9 27  1  0  0  0  0
  9 28  1  0  0  0  0
 10 11  1  0  0  0  0
 10 12  1  0  0  0  0
 10 29  1  0  0  0  0
 11 30  1  0  0  0  0
 11 31  1  0  0  0  0
 11 32  1  0  0  0  0
 12 19  1  0  0  0  0
 12 13  1  0  0  0  0
 13 14  1  0  0  0  0
 13 33  1  0  0  0  0
 13 34  1  0  0  0  0
 14 15  1  0  0  0  0
 14 16  1  0  0  0  0
 14 35  1  0  0  0  0
 15 36  1  0  0  0  0
 15 37  1  0  0  0  0
 15 38  1  0  0  0  0
 16 17  1  0  0  0  0
 17 18  1  0  0  0  0
 17 19  1  0  0  0  0
 17 39  1  0  0  0  0
 18 40  1  0  0  0  0
 18 41  1  0  0  0  0
 18 42  1  0  0  0  0
 19 43  1  0  0  0  0
 19 44  1  0  0  0  0
 20 21  1  0  0  0  0
M  CHG  1   5  -1
M  END
> <s_m_source_file>
AV-unprocessed.smi

> <i_m_source_file_index>
2061

> <i_lp_mmshare_version>
43012

> <i_f3d_flags>
0

> <s_epik_input>
W0NIM11jMVtjSF1jKG5vMSlbTkhdQyg9TylbTkhdW0NIMl1bQ0BIXShbQ0gzXSlOMltDSDJdW0NAQEhdKFtDSDNdKU9bQ0BASF0oW0NIM10pW0NIMl0y

> <s_epik_cmdline>
J2VwaWtfcHl0aG9uJywgJy1waCcsICc3LjAnLCAnLXRuJywgJzgnLCAnLW1hJywgJzIwMCcsICctbWV0YWxfYmluZGluZycsICctaW1hZScsICc8aW5maWxlLm1hZT4nLCAnLW9tYWUnLCAnPG91dGZpbGUubWFlPic=

> <r_epik_Ionization_Penalty>
6.88367

> <r_epik_Ionization_Penalty_Charging>
6.57198

> <r_epik_Ionization_Penalty_Neutral>
0.311681

> <r_epik_State_Penalty>
6.77619

> <r_epik_Charging_Adjusted_Penalty>
13.3482

> <i_epik_Tot_Q>
-1

> <i_epik_Tot_abs_Q>
1

> <r_epik_Metal_State_Penalty>
2.70524

> <b_epik_Metal_Only>
1

> <s_lp_Force_Field>
OPLS_2005

> <r_lp_Energy>
24.3932

> <b_lp_Chiralities_Consistent>
1

> <s_lp_Variant>
AV-unprocessed.smi:2061-17

> <Gold.Version>
5.8.1

> <Gold.Id.Protein>
6NUR|6NUR_protein|mol2

> <Gold.PLP.Fitness>
45.8412

> <Gold.PLP.PLP>
-39.7453

> <Gold.PLP.part.hbond>
-4.1086

> <Gold.PLP.part.metal>
0.0000

> <Gold.PLP.part.buried>
-6.1436

> <Gold.PLP.part.nonpolar>
-30.5203

> <Gold.PLP.part.repulsive>
0.1443

> <Gold.PLP.ligand.clash>
0.0000

> <Gold.PLP.ligand.torsion>
1.4657

> <Gold.PLP.Chemscore.Hbond>
2.9913

> <Gold.PLP.Chemscore.CHOScore>
0.0000

> <Gold.PLP.Chemscore.Metal>
0.0000

> <Gold.Chemscore.Hbonds>
donor molecule, donor type, donor heavy atom, donor atom, acceptor molecule, acceptor atom, score
      P1  H  6896  6907       L1     5  2.00
      P1  H  6934  6947       L1    21  0.85

> <Gold.PLP.Chemscore.Internal.Correction>
0.0536

> <Gold.Rescore>
     Score         DG    S(hbond)    S(metal)    S(lipo)     H(rot)  DE(clash)    DE(int)     intcor
     16.26     -17.80       1.13        0.00     106.28       1.52       0.09       1.46       ----

> <Gold.Chemscore.Fitness>
16.2552

> <Gold.Chemscore.DG>
-17.8014

> <Gold.Chemscore.ZeroCoef>
-5.4800

> <Gold.Chemscore.Hbond>
1.1303

> <Gold.Chemscore.Metal>
0.0000

> <Gold.Chemscore.Lipo>
106.2800

> <Gold.Chemscore.Internal_Hbond>
0.0000

> <Gold.Chemscore.DEClash>
0.0869

> <Gold.Chemscore.DEInternal>
1.4594

> <Gold.Chemscore.Rot>
1.5190

> <Gold.Chemscore.Internal.Correction>
   9.000000E+99

> <Gold.Chemscore.Hbonds>
donor molecule, donor type, donor heavy atom, donor atom, acceptor molecule, acceptor atom, score
      P1  H  6896  6907       L1     5  0.50
      P1  H  6934  6947       L1    21  0.16

> <Gold.Chemscore.Hbond.Weighted>
-3.7753

> <Gold.Chemscore.Metal.Weighted>
-0.0000

> <Gold.Chemscore.Lipo.Weighted>
-12.4348

> <Gold.Chemscore.Internal_Hbond.Weighted>
0.0000

> <Gold.Chemscore.DEClash.Weighted>
0.0869

> <Gold.Chemscore.DEInternal.Weighted>
1.4594

> <Gold.Chemscore.Rot.Weighted>
3.8886

> <Gold.Chemscore.Internal.Correction.Weighted>
   9.000000E+99

> <Gold.Protein.RotatedTorsions>
[ 6907 6896 6895 6894 ] final  -54.33 input  -60.11 | X-H torsion
[ 7974 7965 7964 7962 ] final -107.81 input  175.53 | X-H torsion
[ 8008 7997 7996 7995 ] final  -27.69 input   59.86 | X-H torsion
[ 10167 10162 10161 10158 ] final -142.65 input  -65.29 | X-H torsion
[ 10718 10713 10712 10709 ] final -165.38 input   66.30 | X-H torsion
[ 10763 10752 10751 10750 ] final  -43.81 input  -60.55 | X-H torsion
[ 11005 11000 10999 10996 ] final  133.61 input  -57.11 | X-H torsion

> <Gold.Protein.ActiveResidues>
 VAL166  LYS551  ARG553  GLY616  TRP617  ASP618  TYR619  PRO620  LYS621  CYS622 
 ASP623  PHE694  ASN695  SER759  ASP760  ASP761  ALA762  ILE779  LEU786  VAL792 
 PHE793  MET794  SER795  GLU796  ALA797  LYS798  CYS799  TRP800  GLU811  SER814 

> <Gold.Protein.RotatedAtoms>
  150.8347  134.7615  159.6882 H   0  0  0  0  0  0  0  0  0  0  0  0  # atno 6907 bound_to 6896
  152.4446  134.5518  159.9879 H   0  0  0  0  0  0  0  0  0  0  0  0  # atno 6908 bound_to 6896
  151.5671  133.3357  159.3018 H   0  0  0  0  0  0  0  0  0  0  0  0  # atno 6909 bound_to 6896
  145.2006  140.9055  143.3371 H   0  0  0  0  0  0  0  0  0  0  0  0  # atno 7974 bound_to 7965
  154.4366  140.1865  156.0971 H   0  0  0  0  0  0  0  0  0  0  0  0  # atno 8008 bound_to 7997
  156.0321  140.3329  155.7125 H   0  0  0  0  0  0  0  0  0  0  0  0  # atno 8009 bound_to 7997
  155.5824  140.0623  157.2770 H   0  0  0  0  0  0  0  0  0  0  0  0  # atno 8010 bound_to 7997
  139.8068  143.7758  152.2661 H   0  0  0  0  0  0  0  0  0  0  0  0  # atno 10167 bound_to 10162
  156.6525  130.9013  151.3015 H   0  0  0  0  0  0  0  0  0  0  0  0  # atno 10718 bound_to 10713
  154.0017  135.6692  153.4759 H   0  0  0  0  0  0  0  0  0  0  0  0  # atno 10763 bound_to 10752
  153.0659  135.5001  154.8195 H   0  0  0  0  0  0  0  0  0  0  0  0  # atno 10764 bound_to 10752
  154.7049  135.3086  154.9249 H   0  0  0  0  0  0  0  0  0  0  0  0  # atno 10765 bound_to 10752
  139.9863  134.9531  156.9750 H   0  0  0  0  0  0  0  0  0  0  0  0  # atno 11005 bound_to 11000
  144.9951  139.3652  143.6195 LP  0  0  0  0  0  0  0  0  0  0  0  0  # atno 17320 bound_to 7965
  146.3418  139.9150  142.8775 LP  0  0  0  0  0  0  0  0  0  0  0  0  # atno 17321 bound_to 7965
  139.7894  144.7415  150.9976 LP  0  0  0  0  0  0  0  0  0  0  0  0  # atno 17342 bound_to 10162
  140.7819  143.4458  151.0485 LP  0  0  0  0  0  0  0  0  0  0  0  0  # atno 17343 bound_to 10162
  157.7136  130.9470  150.1175 LP  0  0  0  0  0  0  0  0  0  0  0  0  # atno 17370 bound_to 10713
  156.2073  130.3664  149.8714 LP  0  0  0  0  0  0  0  0  0  0  0  0  # atno 17371 bound_to 10713
  140.4997  134.1110  155.7248 LP  0  0  0  0  0  0  0  0  0  0  0  0  # atno 17394 bound_to 11000
  141.1527  133.8939  157.2057 LP  0  0  0  0  0  0  0  0  0  0  0  0  # atno 17395 bound_to 11000

$$$$
