AV-unprocessed.smi:2061|AV-procd|sdf|8382|dock8
  -GOLD-   2272011 63D 1   1.00000     0.00000
 Structure written by MMmdl.
 45 46  0  0  0  0  0  0  0  0  3 V2000
  151.0768  142.0391  157.1989 C   0  0  0  0  0  0  0  0  0  0  0  0
  150.9988  140.9852  156.1480 C   0  0  0  0  0  0  0  0  0  0  0  0
  151.4199  139.6864  156.1037 C   0  0  0  0  0  0  0  0  0  0  0  0
  151.0180  139.2589  154.8088 C   0  0  0  0  0  0  0  0  0  0  0  0
  151.2217  138.0418  154.2817 N   0  5  0  0  0  0  0  0  0  0  0  0
  151.0879  136.9358  155.0484 C   0  0  0  0  0  0  0  0  0  0  0  0
  151.6816  136.6976  156.1027 O   0  0  0  0  0  0  0  0  0  0  0  0
  150.2147  136.0446  154.5584 N   0  0  0  0  0  0  0  0  0  0  0  0
  149.8867  134.7558  155.1600 C   0  0  0  0  0  0  0  0  0  0  0  0
  148.5339  134.1802  154.6638 C   0  0  2  0  0  0  0  0  0  0  0  0
  148.7749  133.1498  153.5335 C   0  0  0  0  0  0  0  0  0  0  0  0
  147.6151  135.2984  154.2734 N   0  3  1  0  0  0  0  0  0  0  0  0
  146.3266  134.8949  153.6464 C   0  0  0  0  0  0  0  0  0  0  0  0
  145.4879  136.1209  153.2305 C   0  0  2  0  0  0  0  0  0  0  0  0
  146.0252  136.8345  151.9767 C   0  0  0  0  0  0  0  0  0  0  0  0
  145.3248  137.0150  154.3292 O   0  0  0  0  0  0  0  0  0  0  0  0
  146.5432  137.4526  154.9205 C   0  0  1  0  0  0  0  0  0  0  0  0
  146.1924  138.3992  156.0738 C   0  0  0  0  0  0  0  0  0  0  0  0
  147.3408  136.2281  155.4006 C   0  0  0  0  0  0  0  0  0  0  0  0
  150.4218  140.2187  154.1214 N   0  0  0  0  0  0  0  0  0  0  0  0
  150.3993  141.3274  154.9759 O   0  0  0  0  0  0  0  0  0  0  0  0
  152.0793  142.0868  157.6238 H   0  0  0  0  0  0  0  0  0  0  0  0
  150.3760  141.8293  158.0067 H   0  0  0  0  0  0  0  0  0  0  0  0
  150.8370  143.0208  156.7898 H   0  0  0  0  0  0  0  0  0  0  0  0
  151.9303  139.1292  156.8747 H   0  0  0  0  0  0  0  0  0  0  0  0
  149.7467  136.2817  153.6959 H   0  0  0  0  0  0  0  0  0  0  0  0
  150.7167  134.0755  154.9731 H   0  0  0  0  0  0  0  0  0  0  0  0
  149.8517  134.8944  156.2410 H   0  0  0  0  0  0  0  0  0  0  0  0
  148.0571  133.6377  155.4817 H   0  0  0  0  0  0  0  0  0  0  0  0
  149.4660  132.3662  153.8436 H   0  0  0  0  0  0  0  0  0  0  0  0
  149.1965  133.6224  152.6458 H   0  0  0  0  0  0  0  0  0  0  0  0
  147.8582  132.6347  153.2469 H   0  0  0  0  0  0  0  0  0  0  0  0
  146.4899  134.2879  152.7565 H   0  0  0  0  0  0  0  0  0  0  0  0
  145.7632  134.2848  154.3543 H   0  0  0  0  0  0  0  0  0  0  0  0
  144.4866  135.7670  152.9829 H   0  0  0  0  0  0  0  0  0  0  0  0
  145.9954  136.1714  151.1116 H   0  0  0  0  0  0  0  0  0  0  0  0
  147.0577  137.1617  152.0965 H   0  0  0  0  0  0  0  0  0  0  0  0
  145.4212  137.7105  151.7391 H   0  0  0  0  0  0  0  0  0  0  0  0
  147.1311  138.0120  154.1927 H   0  0  0  0  0  0  0  0  0  0  0  0
  147.0922  138.7714  156.5643 H   0  0  0  0  0  0  0  0  0  0  0  0
  145.5841  137.8969  156.8267 H   0  0  0  0  0  0  0  0  0  0  0  0
  145.6307  139.2614  155.7136 H   0  0  0  0  0  0  0  0  0  0  0  0
  146.7857  135.7004  156.1784 H   0  0  0  0  0  0  0  0  0  0  0  0
  148.2659  136.5726  155.8592 H   0  0  0  0  0  0  0  0  0  0  0  0
  148.1086  135.8275  153.5689 H   0  0  0  0  0  0  0  0  0  0  0  0
  1  2  1  0  0  0  0
  1 22  1  0  0  0  0
  1 23  1  0  0  0  0
  1 24  1  0  0  0  0
  2 21  1  0  0  0  0
  2  3  2  0  0  0  0
  3  4  1  0  0  0  0
  3 25  1  0  0  0  0
  4  5  1  0  0  0  0
  4 20  2  0  0  0  0
  5  6  1  0  0  0  0
  6  7  2  0  0  0  0
  6  8  1  0  0  0  0
  8  9  1  0  0  0  0
  8 26  1  0  0  0  0
  9 10  1  0  0  0  0
  9 27  1  0  0  0  0
  9 28  1  0  0  0  0
 10 11  1  0  0  0  0
 10 12  1  0  0  0  0
 10 29  1  0  0  0  0
 11 30  1  0  0  0  0
 11 31  1  0  0  0  0
 11 32  1  0  0  0  0
 12 19  1  0  0  0  0
 12 13  1  0  0  0  0
 12 45  1  0  0  0  0
 13 14  1  0  0  0  0
 13 33  1  0  0  0  0
 13 34  1  0  0  0  0
 14 15  1  0  0  0  0
 14 16  1  0  0  0  0
 14 35  1  0  0  0  0
 15 36  1  0  0  0  0
 15 37  1  0  0  0  0
 15 38  1  0  0  0  0
 16 17  1  0  0  0  0
 17 18  1  0  0  0  0
 17 19  1  0  0  0  0
 17 39  1  0  0  0  0
 18 40  1  0  0  0  0
 18 41  1  0  0  0  0
 18 42  1  0  0  0  0
 19 43  1  0  0  0  0
 19 44  1  0  0  0  0
 20 21  1  0  0  0  0
M  CHG  1   5  -1
M  CHG  1  12   1
M  END
> <s_m_source_file>
AV-unprocessed.smi

> <i_m_source_file_index>
2061

> <i_lp_mmshare_version>
43012

> <i_f3d_flags>
0

> <s_epik_input>
W0NIM11jMVtjSF1jKG5vMSlbTkhdQyg9TylbTkhdW0NIMl1bQ0BIXShbQ0gzXSlOMltDSDJdW0NAQEhdKFtDSDNdKU9bQ0BASF0oW0NIM10pW0NIMl0y

> <s_epik_cmdline>
J2VwaWtfcHl0aG9uJywgJy1waCcsICc3LjAnLCAnLXRuJywgJzgnLCAnLW1hJywgJzIwMCcsICctbWV0YWxfYmluZGluZycsICctaW1hZScsICc8aW5maWxlLm1hZT4nLCAnLW9tYWUnLCAnPG91dGZpbGUubWFlPic=

> <r_epik_Ionization_Penalty>
6.73511

> <r_epik_Ionization_Penalty_Charging>
6.73502

> <r_epik_Ionization_Penalty_Neutral>
9.50841e-05

> <r_epik_State_Penalty>
6.93549

> <r_epik_Charging_Adjusted_Penalty>
13.6705

> <i_epik_Tot_Q>
0

> <i_epik_Tot_abs_Q>
2

> <r_epik_Metal_State_Penalty>
2.87211

> <b_epik_Metal_Only>
1

> <s_lp_Force_Field>
OPLS_2005

> <r_lp_Energy>
12.0901

> <b_lp_Chiralities_Consistent>
1

> <s_lp_Variant>
AV-unprocessed.smi:2061-23

> <Gold.Version>
5.8.1

> <Gold.Id.Protein>
6NUR|6NUR_protein|mol2

> <Gold.PLP.Fitness>
37.7415

> <Gold.PLP.PLP>
-28.1818

> <Gold.PLP.part.hbond>
-6.0000

> <Gold.PLP.part.metal>
0.0000

> <Gold.PLP.part.buried>
-1.2123

> <Gold.PLP.part.nonpolar>
-22.0416

> <Gold.PLP.part.repulsive>
1.2437

> <Gold.PLP.ligand.clash>
0.0000

> <Gold.PLP.ligand.torsion>
1.4530

> <Gold.PLP.Chemscore.Hbond>
4.1344

> <Gold.PLP.Chemscore.CHOScore>
0.0000

> <Gold.PLP.Chemscore.Metal>
0.0000

> <Gold.Chemscore.Hbonds>
donor molecule, donor type, donor heavy atom, donor atom, acceptor molecule, acceptor atom, score
      L1  H     8    26       P1  7948  1.00
      L1  H    12    45       P1  7948  2.00
      P1  H  7989  7998       L1    20  0.28
      P1  H 10752 10763       L1     7  0.16

> <Gold.PLP.Chemscore.Internal.Correction>
0.0624

> <Gold.Rescore>
     Score         DG    S(hbond)    S(metal)    S(lipo)     H(rot)  DE(clash)    DE(int)     intcor
     10.13     -12.96       1.79        0.00      46.84       1.56       0.01       2.81       ----

> <Gold.Chemscore.Fitness>
10.1350

> <Gold.Chemscore.DG>
-12.9633

> <Gold.Chemscore.ZeroCoef>
-5.4800

> <Gold.Chemscore.Hbond>
1.7916

> <Gold.Chemscore.Metal>
0.0000

> <Gold.Chemscore.Lipo>
46.8386

> <Gold.Chemscore.Internal_Hbond>
0.0000

> <Gold.Chemscore.DEClash>
0.0149

> <Gold.Chemscore.DEInternal>
2.8134

> <Gold.Chemscore.Rot>
1.5550

> <Gold.Chemscore.Internal.Correction>
   9.000000E+99

> <Gold.Chemscore.Hbonds>
donor molecule, donor type, donor heavy atom, donor atom, acceptor molecule, acceptor atom, score
      L1  H     8    26       P1  7948  0.34
      L1  H    12    45       P1  7948  0.98

> <Gold.Chemscore.Hbond.Weighted>
-5.9840

> <Gold.Chemscore.Metal.Weighted>
-0.0000

> <Gold.Chemscore.Lipo.Weighted>
-5.4801

> <Gold.Chemscore.Internal_Hbond.Weighted>
0.0000

> <Gold.Chemscore.DEClash.Weighted>
0.0149

> <Gold.Chemscore.DEInternal.Weighted>
2.8134

> <Gold.Chemscore.Rot.Weighted>
3.9809

> <Gold.Chemscore.Internal.Correction.Weighted>
   9.000000E+99

> <Gold.Protein.RotatedTorsions>
[ 6907 6896 6895 6894 ] final   91.05 input  -60.11 | X-H torsion
[ 7974 7965 7964 7962 ] final  -93.28 input  175.53 | X-H torsion
[ 8008 7997 7996 7995 ] final  109.14 input   59.86 | X-H torsion
[ 10167 10162 10161 10158 ] final -169.96 input  -65.29 | X-H torsion
[ 10718 10713 10712 10709 ] final   70.56 input   66.30 | X-H torsion
[ 10763 10752 10751 10750 ] final   74.54 input  -60.55 | X-H torsion
[ 11005 11000 10999 10996 ] final  169.24 input  -57.11 | X-H torsion

> <Gold.Protein.ActiveResidues>
 VAL166  LYS551  ARG553  GLY616  TRP617  ASP618  TYR619  PRO620  LYS621  CYS622 
 ASP623  PHE694  ASN695  SER759  ASP760  ASP761  ALA762  ILE779  LEU786  VAL792 
 PHE793  MET794  SER795  GLU796  ALA797  LYS798  CYS799  TRP800  GLU811  SER814 

> <Gold.Protein.RotatedAtoms>
  152.5448  134.1717  159.8599 H   0  0  0  0  0  0  0  0  0  0  0  0  # atno 6907 bound_to 6896
  151.1727  133.4767  159.2601 H   0  0  0  0  0  0  0  0  0  0  0  0  # atno 6908 bound_to 6896
  151.1259  135.0115  159.8615 H   0  0  0  0  0  0  0  0  0  0  0  0  # atno 6909 bound_to 6896
  145.3886  140.9526  143.2353 H   0  0  0  0  0  0  0  0  0  0  0  0  # atno 7974 bound_to 7965
  156.1957  140.3063  155.9422 H   0  0  0  0  0  0  0  0  0  0  0  0  # atno 8008 bound_to 7997
  155.3072  140.0449  157.3050 H   0  0  0  0  0  0  0  0  0  0  0  0  # atno 8009 bound_to 7997
  154.5507  140.2290  155.8500 H   0  0  0  0  0  0  0  0  0  0  0  0  # atno 8010 bound_to 7997
  139.5890  144.1254  152.1612 H   0  0  0  0  0  0  0  0  0  0  0  0  # atno 10167 bound_to 10162
  157.6406  130.9483  150.0667 H   0  0  0  0  0  0  0  0  0  0  0  0  # atno 10718 bound_to 10713
  153.0594  135.5022  154.8057 H   0  0  0  0  0  0  0  0  0  0  0  0  # atno 10763 bound_to 10752
  154.6858  135.2976  154.9551 H   0  0  0  0  0  0  0  0  0  0  0  0  # atno 10764 bound_to 10752
  154.0322  135.6728  153.4834 H   0  0  0  0  0  0  0  0  0  0  0  0  # atno 10765 bound_to 10752
  140.2957  134.7637  157.3875 H   0  0  0  0  0  0  0  0  0  0  0  0  # atno 11005 bound_to 11000
  144.8456  139.5402  143.6880 LP  0  0  0  0  0  0  0  0  0  0  0  0  # atno 17320 bound_to 7965
  146.2808  139.6873  142.9230 LP  0  0  0  0  0  0  0  0  0  0  0  0  # atno 17321 bound_to 7965
  140.0824  144.5689  150.7113 LP  0  0  0  0  0  0  0  0  0  0  0  0  # atno 17342 bound_to 10162
  140.7157  143.2542  151.4441 LP  0  0  0  0  0  0  0  0  0  0  0  0  # atno 17343 bound_to 10162
  156.1683  130.3645  149.9200 LP  0  0  0  0  0  0  0  0  0  0  0  0  # atno 17370 bound_to 10713
  156.7182  130.8996  151.3616 LP  0  0  0  0  0  0  0  0  0  0  0  0  # atno 17371 bound_to 10713
  140.1155  134.5289  155.8229 LP  0  0  0  0  0  0  0  0  0  0  0  0  # atno 17394 bound_to 11000
  141.2138  133.6738  156.6769 LP  0  0  0  0  0  0  0  0  0  0  0  0  # atno 17395 bound_to 11000

$$$$
