AV-unprocessed.smi:414|AV-procd|sdf|2514|dock9
  -GOLD-   2262022463D 1   1.00000     0.00000
 Structure written by MMmdl.
 38 39  0  0  0  0  0  0  0  0  1 V2000
  153.1057  142.8141  161.1637 C   0  0  0  0  0  0  0  0  0  0  0  0
  152.0501  142.7925  160.0491 C   0  0  2  0  0  0  0  0  0  0  0  0
  151.9111  141.3881  159.4313 C   0  0  0  0  0  0  0  0  0  0  0  0
  150.8566  141.3638  158.3129 C   0  0  0  0  0  0  0  0  0  0  0  0
  151.1699  142.4023  157.2206 C   0  0  1  0  0  0  0  0  0  0  0  0
  150.1160  142.3834  156.2107 N   0  0  0  0  0  0  0  0  0  0  0  0
  149.9531  141.4343  155.2761 C   0  0  0  0  0  0  0  0  0  0  0  0
  150.7056  140.4660  155.1599 O   0  0  0  0  0  0  0  0  0  0  0  0
  148.7706  141.6300  154.3163 C   0  0  0  0  0  0  0  0  0  0  0  0
  147.4697  141.3503  154.9416 N   0  0  0  0  0  0  0  0  0  0  0  0
  147.1041  141.9935  156.1156 C   0  0  0  0  0  0  0  0  0  0  0  0
  145.9183  141.7924  156.7378 C   0  0  0  0  0  0  0  0  0  0  0  0
  144.9418  140.8609  156.1833 C   0  0  0  0  0  0  0  0  0  0  0  0
  143.8429  140.6102  156.6732 O   0  0  0  0  0  0  0  0  0  0  0  0
  145.3455  140.2353  155.0007 N   0  0  0  0  0  0  0  0  0  0  0  0
  146.5653  140.4394  154.3534 C   0  0  0  0  0  0  0  0  0  0  0  0
  146.8201  139.8380  153.3104 O   0  0  0  0  0  0  0  0  0  0  0  0
  151.3122  143.8097  157.8343 C   0  0  0  0  0  0  0  0  0  0  0  0
  152.3645  143.8303  158.9548 C   0  0  0  0  0  0  0  0  0  0  0  0
  144.7003  139.5838  154.5779 H   0  0  0  0  0  0  0  0  0  0  0  0
  154.0930  142.5546  160.7802 H   0  0  0  0  0  0  0  0  0  0  0  0
  152.8577  142.1040  161.9533 H   0  0  0  0  0  0  0  0  0  0  0  0
  153.1748  143.8020  161.6201 H   0  0  0  0  0  0  0  0  0  0  0  0
  151.0924  143.0586  160.4991 H   0  0  0  0  0  0  0  0  0  0  0  0
  152.8725  141.0643  159.0300 H   0  0  0  0  0  0  0  0  0  0  0  0
  151.6405  140.6660  160.2026 H   0  0  0  0  0  0  0  0  0  0  0  0
  150.8092  140.3652  157.8765 H   0  0  0  0  0  0  0  0  0  0  0  0
  149.8725  141.5607  158.7411 H   0  0  0  0  0  0  0  0  0  0  0  0
  152.1158  142.1239  156.7514 H   0  0  0  0  0  0  0  0  0  0  0  0
  149.4554  143.1467  156.2293 H   0  0  0  0  0  0  0  0  0  0  0  0
  148.7837  142.6457  153.9151 H   0  0  0  0  0  0  0  0  0  0  0  0
  148.9236  140.9787  153.4544 H   0  0  0  0  0  0  0  0  0  0  0  0
  147.7946  142.6962  156.5602 H   0  0  0  0  0  0  0  0  0  0  0  0
  145.6905  142.3245  157.6500 H   0  0  0  0  0  0  0  0  0  0  0  0
  151.5881  144.5312  157.0643 H   0  0  0  0  0  0  0  0  0  0  0  0
  150.3517  144.1377  158.2343 H   0  0  0  0  0  0  0  0  0  0  0  0
  152.4134  144.8290  159.3900 H   0  0  0  0  0  0  0  0  0  0  0  0
  153.3492  143.6313  158.5294 H   0  0  0  0  0  0  0  0  0  0  0  0
  1  2  1  0  0  0  0
  1 21  1  0  0  0  0
  1 22  1  0  0  0  0
  1 23  1  0  0  0  0
  2 19  1  0  0  0  0
  2  3  1  0  0  0  0
  2 24  1  0  0  0  0
  3  4  1  0  0  0  0
  3 25  1  0  0  0  0
  3 26  1  0  0  0  0
  4  5  1  0  0  0  0
  4 27  1  0  0  0  0
  4 28  1  0  0  0  0
  5  6  1  0  0  0  0
  5 18  1  0  0  0  0
  5 29  1  0  0  0  0
  6  7  1  0  0  0  0
  6 30  1  0  0  0  0
  7  8  2  0  0  0  0
  7  9  1  0  0  0  0
  9 10  1  0  0  0  0
  9 31  1  0  0  0  0
  9 32  1  0  0  0  0
 10 16  1  0  0  0  0
 10 11  1  0  0  0  0
 11 12  2  0  0  0  0
 11 33  1  0  0  0  0
 12 13  1  0  0  0  0
 12 34  1  0  0  0  0
 13 14  2  0  0  0  0
 13 15  1  0  0  0  0
 15 20  1  0  0  0  0
 15 16  1  0  0  0  0
 16 17  2  0  0  0  0
 18 19  1  0  0  0  0
 18 35  1  0  0  0  0
 18 36  1  0  0  0  0
 19 37  1  0  0  0  0
 19 38  1  0  0  0  0
M  END
> <s_m_source_file>
AV-unprocessed.smi

> <i_m_source_file_index>
414

> <i_lp_mmshare_version>
43012

> <i_f3d_flags>
0

> <s_epik_input>
W0NIM11bQ0BASF0xW0NIMl1bQ0gyXVtDQEhdKFtDSDJdW0NIMl0xKVtOSF1DKD1PKVtDSDJdbjJbY0hdW2NIXWMoPU8pW25IXWMyPU8=

> <s_epik_cmdline>
J2VwaWtfcHl0aG9uJywgJy1waCcsICc3LjAnLCAnLXRuJywgJzgnLCAnLW1hJywgJzIwMCcsICctbWV0YWxfYmluZGluZycsICctaW1hZScsICc8aW5maWxlLm1hZT4nLCAnLW9tYWUnLCAnPG91dGZpbGUubWFlPic=

> <r_lp_tautomer_probability>
0.999537

> <r_epik_Ionization_Penalty>
0.00309124

> <r_epik_Ionization_Penalty_Charging>
0.00309122

> <r_epik_Ionization_Penalty_Neutral>
1.90469e-08

> <r_epik_State_Penalty>
0.00217484

> <r_epik_Charging_Adjusted_Penalty>
0.00526606

> <i_epik_Tot_Q>
0

> <i_epik_Tot_abs_Q>
0

> <r_epik_Metal_State_Penalty>
0.362537

> <b_epik_Metal_Only>
0

> <s_lp_Force_Field>
OPLS_2005

> <r_lp_Energy>
8.30971

> <b_lp_Chiralities_Consistent>
1

> <s_lp_Variant>
AV-unprocessed.smi:414-1

> <Gold.Version>
5.8.1

> <Gold.Id.Protein>
6NUR|6NUR_protein|mol2

> <Gold.PLP.Fitness>
43.0772

> <Gold.PLP.PLP>
-34.8799

> <Gold.PLP.part.hbond>
-3.0000

> <Gold.PLP.part.metal>
0.0000

> <Gold.PLP.part.buried>
-3.6572

> <Gold.PLP.part.nonpolar>
-28.6059

> <Gold.PLP.part.repulsive>
0.4103

> <Gold.PLP.ligand.clash>
0.0000

> <Gold.PLP.ligand.torsion>
0.4036

> <Gold.PLP.Chemscore.Hbond>
2.0000

> <Gold.PLP.Chemscore.CHOScore>
1.0000

> <Gold.PLP.Chemscore.Metal>
0.0000

> <Gold.Chemscore.Hbonds>
donor molecule, donor type, donor heavy atom, donor atom, acceptor molecule, acceptor atom, score
      L1  H     6    30       P1  8028  1.00
      P1  H  7989  7998       L1     8  1.00
      L1  C    11    33       P1  8028  1.00

> <Gold.PLP.Chemscore.Internal.Correction>
0.0045

> <Gold.Rescore>
     Score         DG    S(hbond)    S(metal)    S(lipo)     H(rot)  DE(clash)    DE(int)     intcor
     15.91     -16.49       1.68        0.00      83.24       1.69       0.14       0.45       ----

> <Gold.Chemscore.Fitness>
15.9113

> <Gold.Chemscore.DG>
-16.4937

> <Gold.Chemscore.ZeroCoef>
-5.4800

> <Gold.Chemscore.Hbond>
1.6750

> <Gold.Chemscore.Metal>
0.0000

> <Gold.Chemscore.Lipo>
83.2383

> <Gold.Chemscore.Internal_Hbond>
0.0000

> <Gold.Chemscore.DEClash>
0.1359

> <Gold.Chemscore.DEInternal>
0.4464

> <Gold.Chemscore.Rot>
1.6874

> <Gold.Chemscore.Internal.Correction>
   9.000000E+99

> <Gold.Chemscore.Hbonds>
donor molecule, donor type, donor heavy atom, donor atom, acceptor molecule, acceptor atom, score
      L1  H     6    30       P1  8028  0.96
      P1  H  7989  7998       L1     8  0.33

> <Gold.Chemscore.Hbond.Weighted>
-5.5946

> <Gold.Chemscore.Metal.Weighted>
-0.0000

> <Gold.Chemscore.Lipo.Weighted>
-9.7389

> <Gold.Chemscore.Internal_Hbond.Weighted>
0.0000

> <Gold.Chemscore.DEClash.Weighted>
0.1359

> <Gold.Chemscore.DEInternal.Weighted>
0.4464

> <Gold.Chemscore.Rot.Weighted>
4.3198

> <Gold.Chemscore.Internal.Correction.Weighted>
   9.000000E+99

> <Gold.Protein.RotatedTorsions>
[ 6907 6896 6895 6894 ] final  -44.75 input  -60.11 | X-H torsion
[ 7974 7965 7964 7962 ] final -112.94 input  175.53 | X-H torsion
[ 8008 7997 7996 7995 ] final   93.93 input   59.86 | X-H torsion
[ 10167 10162 10161 10158 ] final -127.18 input  -65.29 | X-H torsion
[ 10718 10713 10712 10709 ] final  -70.31 input   66.30 | X-H torsion
[ 10763 10752 10751 10750 ] final   51.56 input  -60.55 | X-H torsion
[ 11005 11000 10999 10996 ] final   26.94 input  -57.11 | X-H torsion

> <Gold.Protein.ActiveResidues>
 VAL166  LYS551  ARG553  GLY616  TRP617  ASP618  TYR619  PRO620  LYS621  CYS622 
 ASP623  PHE694  ASN695  SER759  ASP760  ASP761  ALA762  ILE779  LEU786  VAL792 
 PHE793  MET794  SER795  GLU796  ALA797  LYS798  CYS799  TRP800  GLU811  SER814 

> <Gold.Protein.RotatedAtoms>
  150.9294  134.8709  159.7540 H   0  0  0  0  0  0  0  0  0  0  0  0  # atno 6907 bound_to 6896
  152.5031  134.4101  159.9456 H   0  0  0  0  0  0  0  0  0  0  0  0  # atno 6908 bound_to 6896
  151.4129  133.3682  159.2781 H   0  0  0  0  0  0  0  0  0  0  0  0  # atno 6909 bound_to 6896
  145.1380  140.8762  143.3719 H   0  0  0  0  0  0  0  0  0  0  0  0  # atno 7974 bound_to 7965
  156.0522  140.3306  155.7364 H   0  0  0  0  0  0  0  0  0  0  0  0  # atno 8008 bound_to 7997
  155.5583  140.0616  157.2852 H   0  0  0  0  0  0  0  0  0  0  0  0  # atno 8009 bound_to 7997
  154.4441  140.1882  156.0745 H   0  0  0  0  0  0  0  0  0  0  0  0  # atno 8010 bound_to 7997
  139.9636  143.5923  152.2437 H   0  0  0  0  0  0  0  0  0  0  0  0  # atno 10167 bound_to 10162
  156.0414  130.4329  150.2276 H   0  0  0  0  0  0  0  0  0  0  0  0  # atno 10718 bound_to 10713
  152.9785  135.5842  154.4436 H   0  0  0  0  0  0  0  0  0  0  0  0  # atno 10763 bound_to 10752
  154.4034  135.2769  155.2084 H   0  0  0  0  0  0  0  0  0  0  0  0  # atno 10764 bound_to 10752
  154.3906  135.6126  153.5895 H   0  0  0  0  0  0  0  0  0  0  0  0  # atno 10765 bound_to 10752
  140.3316  134.2431  155.7701 H   0  0  0  0  0  0  0  0  0  0  0  0  # atno 11005 bound_to 11000
  145.0563  139.3141  143.5903 LP  0  0  0  0  0  0  0  0  0  0  0  0  # atno 17320 bound_to 7965
  146.3508  139.9989  142.8678 LP  0  0  0  0  0  0  0  0  0  0  0  0  # atno 17321 bound_to 7965
  139.6535  144.7661  151.2101 LP  0  0  0  0  0  0  0  0  0  0  0  0  # atno 17342 bound_to 10162
  140.7545  143.6123  150.8593 LP  0  0  0  0  0  0  0  0  0  0  0  0  # atno 17343 bound_to 10162
  157.0371  131.0024  151.3295 LP  0  0  0  0  0  0  0  0  0  0  0  0  # atno 17370 bound_to 10713
  157.5236  130.8014  149.7837 LP  0  0  0  0  0  0  0  0  0  0  0  0  # atno 17371 bound_to 10713
  141.2062  133.7840  157.0192 LP  0  0  0  0  0  0  0  0  0  0  0  0  # atno 17394 bound_to 11000
  140.0856  134.9623  157.1694 LP  0  0  0  0  0  0  0  0  0  0  0  0  # atno 17395 bound_to 11000

$$$$
