AV-unprocessed.smi:1808|AV-procd|sdf|7307|dock6
  -GOLD-   22720 8563D 1   1.00000     0.00000
 Structure written by MMmdl.
 27 28  0  0  0  0  0  0  0  0  2 V2000
  151.0322  140.6341  155.5288 O   0  0  0  0  0  0  0  0  0  0  0  0
  150.3108  141.6335  155.5739 C   0  0  0  0  0  0  0  0  0  0  0  0
  150.4445  142.5095  156.5800 N   0  0  0  0  0  0  0  0  0  0  0  0
  151.4037  142.4122  157.6750 C   0  0  0  0  0  0  0  0  0  0  0  0
  151.0990  143.4304  158.7860 C   0  0  2  0  0  0  0  0  0  0  0  0
  151.6285  144.8317  158.5009 C   0  0  0  0  0  0  0  0  0  0  0  0
  151.6716  145.4514  159.8850 C   0  0  0  0  0  0  0  0  0  0  0  0
  151.8328  144.2463  160.8176 C   0  0  0  0  0  0  0  0  0  0  0  0
  151.7811  143.0932  159.9845 O   0  0  0  0  0  0  0  0  0  0  0  0
  149.3529  141.9713  154.6808 N   0  5  0  0  0  0  0  0  0  0  0  0
  148.5153  141.0342  154.2073 C   0  0  0  0  0  0  0  0  0  0  0  0
  148.8114  139.7294  154.1958 N   0  0  0  0  0  0  0  0  0  0  0  0
  147.7941  138.9340  153.6653 C   0  0  0  0  0  0  0  0  0  0  0  0
  146.6941  139.6487  153.2711 C   0  0  0  0  0  0  0  0  0  0  0  0
  146.9048  141.3527  153.5563 S   0  0  0  0  0  0  0  0  0  0  0  0
  149.8366  143.3154  156.5769 H   0  0  0  0  0  0  0  0  0  0  0  0
  151.3701  141.3983  158.0743 H   0  0  0  0  0  0  0  0  0  0  0  0
  152.4148  142.5604  157.2924 H   0  0  0  0  0  0  0  0  0  0  0  0
  150.0270  143.4799  158.9864 H   0  0  0  0  0  0  0  0  0  0  0  0
  152.6367  144.7788  158.0877 H   0  0  0  0  0  0  0  0  0  0  0  0
  151.0025  145.3883  157.8030 H   0  0  0  0  0  0  0  0  0  0  0  0
  152.4820  146.1736  159.9873 H   0  0  0  0  0  0  0  0  0  0  0  0
  150.7333  145.9646  160.0990 H   0  0  0  0  0  0  0  0  0  0  0  0
  152.7783  144.2706  161.3596 H   0  0  0  0  0  0  0  0  0  0  0  0
  151.0236  144.2115  161.5479 H   0  0  0  0  0  0  0  0  0  0  0  0
  147.9380  137.8655  153.6078 H   0  0  0  0  0  0  0  0  0  0  0  0
  145.7783  139.2805  152.8345 H   0  0  0  0  0  0  0  0  0  0  0  0
  1  2  2  0  0  0  0
  2  3  1  0  0  0  0
  2 10  1  0  0  0  0
  3  4  1  0  0  0  0
  3 16  1  0  0  0  0
  4  5  1  0  0  0  0
  4 17  1  0  0  0  0
  4 18  1  0  0  0  0
  5  9  1  0  0  0  0
  5  6  1  0  0  0  0
  5 19  1  0  0  0  0
  6  7  1  0  0  0  0
  6 20  1  0  0  0  0
  6 21  1  0  0  0  0
  7  8  1  0  0  0  0
  7 22  1  0  0  0  0
  7 23  1  0  0  0  0
  8  9  1  0  0  0  0
  8 24  1  0  0  0  0
  8 25  1  0  0  0  0
 10 11  1  0  0  0  0
 11 15  1  0  0  0  0
 11 12  2  0  0  0  0
 12 13  1  0  0  0  0
 13 14  2  0  0  0  0
 13 26  1  0  0  0  0
 14 15  1  0  0  0  0
 14 27  1  0  0  0  0
M  CHG  1  10  -1
M  END
> <s_m_source_file>
AV-unprocessed.smi

> <i_m_source_file_index>
1808

> <i_lp_mmshare_version>
43012

> <i_f3d_flags>
0

> <s_epik_input>
czFbY0hdW2NIXW5jMVtOSF1DKD1PKVtOSF1bQ0gyXVtDQEBIXTJbQ0gyXVtDSDJdW0NIMl1PMg==

> <s_epik_cmdline>
J2VwaWtfcHl0aG9uJywgJy1waCcsICc3LjAnLCAnLXRuJywgJzgnLCAnLW1hJywgJzIwMCcsICctbWV0YWxfYmluZGluZycsICctaW1hZScsICc8aW5maWxlLm1hZT4nLCAnLW9tYWUnLCAnPG91dGZpbGUubWFlPic=

> <r_lp_tautomer_probability>
0.999

> <r_epik_Ionization_Penalty>
8.26346

> <r_epik_Ionization_Penalty_Charging>
6.6559

> <r_epik_Ionization_Penalty_Neutral>
1.60756

> <r_epik_State_Penalty>
6.65607

> <r_epik_Charging_Adjusted_Penalty>
13.312

> <i_epik_Tot_Q>
-1

> <i_epik_Tot_abs_Q>
1

> <r_epik_Metal_State_Penalty>
2.5789

> <b_epik_Metal_Only>
1

> <s_lp_Force_Field>
OPLS_2005

> <r_lp_Energy>
12.338

> <b_lp_Chiralities_Consistent>
1

> <s_lp_Variant>
AV-unprocessed.smi:1808-3

> <Gold.Version>
5.8.1

> <Gold.Id.Protein>
6NUR|6NUR_protein|mol2

> <Gold.PLP.Fitness>
42.0402

> <Gold.PLP.PLP>
-32.2163

> <Gold.PLP.part.hbond>
-3.4158

> <Gold.PLP.part.metal>
0.0000

> <Gold.PLP.part.buried>
-3.9081

> <Gold.PLP.part.nonpolar>
-25.1617

> <Gold.PLP.part.repulsive>
2.3550

> <Gold.PLP.ligand.clash>
0.0000

> <Gold.PLP.ligand.torsion>
0.6980

> <Gold.PLP.Chemscore.Hbond>
1.7352

> <Gold.PLP.Chemscore.CHOScore>
2.0000

> <Gold.PLP.Chemscore.Metal>
0.0000

> <Gold.Chemscore.Hbonds>
donor molecule, donor type, donor heavy atom, donor atom, acceptor molecule, acceptor atom, score
      L1  H     3    16       P1  8028  1.00
      P1  H  7989  7998       L1     1  0.53
      L1  C    13    26       P1  7948  0.85
      L1  C    14    27       P1 10175  0.98

> <Gold.PLP.Chemscore.Internal.Correction>
0.0143

> <Gold.Rescore>
     Score         DG    S(hbond)    S(metal)    S(lipo)     H(rot)  DE(clash)    DE(int)     intcor
     11.95     -14.16       1.02        0.00      73.44       1.30       0.18       2.02       ----

> <Gold.Chemscore.Fitness>
11.9520

> <Gold.Chemscore.DG>
-14.1580

> <Gold.Chemscore.ZeroCoef>
-5.4800

> <Gold.Chemscore.Hbond>
1.0221

> <Gold.Chemscore.Metal>
0.0000

> <Gold.Chemscore.Lipo>
73.4388

> <Gold.Chemscore.Internal_Hbond>
0.0000

> <Gold.Chemscore.DEClash>
0.1811

> <Gold.Chemscore.DEInternal>
2.0249

> <Gold.Chemscore.Rot>
1.3000

> <Gold.Chemscore.Internal.Correction>
   9.000000E+99

> <Gold.Chemscore.Hbonds>
donor molecule, donor type, donor heavy atom, donor atom, acceptor molecule, acceptor atom, score
      L1  H     3    16       P1  8028  0.96
      P1  H  7989  7998       L1     1  0.08

> <Gold.Chemscore.Hbond.Weighted>
-3.4137

> <Gold.Chemscore.Metal.Weighted>
-0.0000

> <Gold.Chemscore.Lipo.Weighted>
-8.5923

> <Gold.Chemscore.Internal_Hbond.Weighted>
0.0000

> <Gold.Chemscore.DEClash.Weighted>
0.1811

> <Gold.Chemscore.DEInternal.Weighted>
2.0249

> <Gold.Chemscore.Rot.Weighted>
3.3280

> <Gold.Chemscore.Internal.Correction.Weighted>
   9.000000E+99

> <Gold.Protein.RotatedTorsions>
[ 6907 6896 6895 6894 ] final  -22.91 input  -60.11 | X-H torsion
[ 7974 7965 7964 7962 ] final -125.07 input  175.53 | X-H torsion
[ 8008 7997 7996 7995 ] final   94.56 input   59.86 | X-H torsion
[ 10167 10162 10161 10158 ] final   -2.84 input  -65.29 | X-H torsion
[ 10718 10713 10712 10709 ] final  -12.02 input   66.30 | X-H torsion
[ 10763 10752 10751 10750 ] final   42.83 input  -60.55 | X-H torsion
[ 11005 11000 10999 10996 ] final -155.99 input  -57.11 | X-H torsion

> <Gold.Protein.ActiveResidues>
 VAL166  LYS551  ARG553  GLY616  TRP617  ASP618  TYR619  PRO620  LYS621  CYS622 
 ASP623  PHE694  ASN695  SER759  ASP760  ASP761  ALA762  ILE779  LEU786  VAL792 
 PHE793  MET794  SER795  GLU796  ALA797  LYS798  CYS799  TRP800  GLU811  SER814 

> <Gold.Protein.RotatedAtoms>
  151.2117  135.0484  159.8913 H   0  0  0  0  0  0  0  0  0  0  0  0  # atno 6907 bound_to 6896
  152.5424  134.0737  159.8215 H   0  0  0  0  0  0  0  0  0  0  0  0  # atno 6908 bound_to 6896
  151.0891  133.5282  159.2648 H   0  0  0  0  0  0  0  0  0  0  0  0  # atno 6909 bound_to 6896
  145.0014  140.7824  143.4494 H   0  0  0  0  0  0  0  0  0  0  0  0  # atno 7974 bound_to 7965
  156.0592  140.3298  155.7442 H   0  0  0  0  0  0  0  0  0  0  0  0  # atno 8008 bound_to 7997
  155.5481  140.0607  157.2873 H   0  0  0  0  0  0  0  0  0  0  0  0  # atno 8009 bound_to 7997
  154.4473  140.1899  156.0646 H   0  0  0  0  0  0  0  0  0  0  0  0  # atno 8010 bound_to 7997
  140.6867  143.6610  150.8267 H   0  0  0  0  0  0  0  0  0  0  0  0  # atno 10167 bound_to 10162
  156.6507  130.4954  149.6063 H   0  0  0  0  0  0  0  0  0  0  0  0  # atno 10718 bound_to 10713
  152.9874  135.6120  154.3013 H   0  0  0  0  0  0  0  0  0  0  0  0  # atno 10763 bound_to 10752
  154.2734  135.2779  155.2730 H   0  0  0  0  0  0  0  0  0  0  0  0  # atno 10764 bound_to 10752
  154.5102  135.5843  153.6656 H   0  0  0  0  0  0  0  0  0  0  0  0  # atno 10765 bound_to 10752
  140.6805  134.4150  157.5227 H   0  0  0  0  0  0  0  0  0  0  0  0  # atno 11005 bound_to 11000
  145.2148  139.2187  143.5124 LP  0  0  0  0  0  0  0  0  0  0  0  0  # atno 17320 bound_to 7965
  146.3452  140.1993  142.8589 LP  0  0  0  0  0  0  0  0  0  0  0  0  # atno 17321 bound_to 7965
  140.0317  143.5436  152.2757 LP  0  0  0  0  0  0  0  0  0  0  0  0  # atno 17342 bound_to 10162
  139.6231  144.7632  151.2696 LP  0  0  0  0  0  0  0  0  0  0  0  0  # atno 17343 bound_to 10162
  156.2087  130.6665  151.1246 LP  0  0  0  0  0  0  0  0  0  0  0  0  # atno 17370 bound_to 10713
  157.7142  131.0719  150.6390 LP  0  0  0  0  0  0  0  0  0  0  0  0  # atno 17371 bound_to 10713
  139.8953  134.8685  156.2137 LP  0  0  0  0  0  0  0  0  0  0  0  0  # atno 17394 bound_to 11000
  141.0321  133.6983  156.1449 LP  0  0  0  0  0  0  0  0  0  0  0  0  # atno 17395 bound_to 11000

$$$$
