AV-unprocessed.smi:2528|AV-procd|sdf|9951|dock4
  -GOLD-   2272013593D 1   1.00000     0.00000
 Structure written by MMmdl.
 44 46  0  0  0  0  0  0  0  0  2 V2000
  150.4377  140.3331  156.0948 O   0  0  0  0  0  0  0  0  0  0  0  0
  150.0777  141.5105  156.0915 C   0  0  0  0  0  0  0  0  0  0  0  0
  149.2137  142.0148  155.1986 N   0  0  0  0  0  0  0  0  0  0  0  0
  148.5661  141.2526  154.1359 C   0  0  0  0  0  0  0  0  0  0  0  0
  147.0528  141.5280  154.0819 C   0  0  1  0  0  0  0  0  0  0  0  0
  146.2786  140.6746  155.1027 C   0  0  0  0  0  0  0  0  0  0  0  0
  144.8325  141.0047  155.0665 N   0  3  1  0  0  0  0  0  0  0  0  0
  144.0024  140.1747  155.9781 C   0  0  0  0  0  0  0  0  0  0  0  0
  144.1542  140.5966  157.4519 C   0  0  0  0  0  0  0  0  0  0  0  0
  143.8670  142.0936  157.6297 C   0  0  0  0  0  0  0  0  0  0  0  0
  144.7477  142.9229  156.6843 C   0  0  0  0  0  0  0  0  0  0  0  0
  144.5761  142.4636  155.2197 C   0  0  1  0  0  0  0  0  0  0  0  0
  145.4536  143.2647  154.2378 C   0  0  0  0  0  0  0  0  0  0  0  0
  146.8197  142.8995  154.3856 O   0  0  0  0  0  0  0  0  0  0  0  0
  150.4757  142.4492  156.9679 N   0  0  0  0  0  0  0  0  0  0  0  0
  151.3726  142.3054  158.0601 C   0  0  0  0  0  0  0  0  0  0  0  0
  151.5975  143.4830  158.8083 C   0  0  0  0  0  0  0  0  0  0  0  0
  152.4697  143.4455  159.9135 C   0  0  0  0  0  0  0  0  0  0  0  0
  153.0979  142.2306  160.2403 C   0  0  0  0  0  0  0  0  0  0  0  0
  152.8219  141.1055  159.4417 C   0  0  0  0  0  0  0  0  0  0  0  0
  151.9843  141.1385  158.3836 N   0  0  0  0  0  0  0  0  0  0  0  0
  148.9774  142.9940  155.2657 H   0  0  0  0  0  0  0  0  0  0  0  0
  149.0268  141.5531  153.1946 H   0  0  0  0  0  0  0  0  0  0  0  0
  148.7623  140.1845  154.2458 H   0  0  0  0  0  0  0  0  0  0  0  0
  146.6908  141.3084  153.0753 H   0  0  0  0  0  0  0  0  0  0  0  0
  146.4113  139.6162  154.8761 H   0  0  0  0  0  0  0  0  0  0  0  0
  146.6821  140.8360  156.1024 H   0  0  0  0  0  0  0  0  0  0  0  0
  142.9590  140.2795  155.6784 H   0  0  0  0  0  0  0  0  0  0  0  0
  144.2526  139.1202  155.8542 H   0  0  0  0  0  0  0  0  0  0  0  0
  143.4739  140.0143  158.0741 H   0  0  0  0  0  0  0  0  0  0  0  0
  145.1593  140.3688  157.8076 H   0  0  0  0  0  0  0  0  0  0  0  0
  142.8150  142.2924  157.4210 H   0  0  0  0  0  0  0  0  0  0  0  0
  144.0405  142.3904  158.6644 H   0  0  0  0  0  0  0  0  0  0  0  0
  144.4855  143.9774  156.7762 H   0  0  0  0  0  0  0  0  0  0  0  0
  145.7918  142.8431  156.9890 H   0  0  0  0  0  0  0  0  0  0  0  0
  143.5349  142.6373  154.9437 H   0  0  0  0  0  0  0  0  0  0  0  0
  145.1369  143.0907  153.2081 H   0  0  0  0  0  0  0  0  0  0  0  0
  145.3494  144.3348  154.4186 H   0  0  0  0  0  0  0  0  0  0  0  0
  150.0847  143.3716  156.8477 H   0  0  0  0  0  0  0  0  0  0  0  0
  151.1070  144.4083  158.5434 H   0  0  0  0  0  0  0  0  0  0  0  0
  152.6530  144.3340  160.4994 H   0  0  0  0  0  0  0  0  0  0  0  0
  153.7736  142.1626  161.0799 H   0  0  0  0  0  0  0  0  0  0  0  0
  153.2854  140.1543  159.6576 H   0  0  0  0  0  0  0  0  0  0  0  0
  144.5336  140.7696  154.1307 H   0  0  0  0  0  0  0  0  0  0  0  0
  1  2  2  0  0  0  0
  2  3  1  0  0  0  0
  2 15  1  0  0  0  0
  3  4  1  0  0  0  0
  3 22  1  0  0  0  0
  4  5  1  0  0  0  0
  4 23  1  0  0  0  0
  4 24  1  0  0  0  0
  5 14  1  0  0  0  0
  5  6  1  0  0  0  0
  5 25  1  0  0  0  0
  6  7  1  0  0  0  0
  6 26  1  0  0  0  0
  6 27  1  0  0  0  0
  7 12  1  0  0  0  0
  7  8  1  0  0  0  0
  7 44  1  0  0  0  0
  8  9  1  0  0  0  0
  8 28  1  0  0  0  0
  8 29  1  0  0  0  0
  9 10  1  0  0  0  0
  9 30  1  0  0  0  0
  9 31  1  0  0  0  0
 10 11  1  0  0  0  0
 10 32  1  0  0  0  0
 10 33  1  0  0  0  0
 11 12  1  0  0  0  0
 11 34  1  0  0  0  0
 11 35  1  0  0  0  0
 12 13  1  0  0  0  0
 12 36  1  0  0  0  0
 13 14  1  0  0  0  0
 13 37  1  0  0  0  0
 13 38  1  0  0  0  0
 15 16  1  0  0  0  0
 15 39  1  0  0  0  0
 16 21  1  0  0  0  0
 16 17  2  0  0  0  0
 17 18  1  0  0  0  0
 17 40  1  0  0  0  0
 18 19  2  0  0  0  0
 18 41  1  0  0  0  0
 19 20  1  0  0  0  0
 19 42  1  0  0  0  0
 20 21  2  0  0  0  0
 20 43  1  0  0  0  0
M  CHG  1   7   1
M  END
> <s_m_source_file>
AV-unprocessed.smi

> <i_m_source_file_index>
2528

> <i_lp_mmshare_version>
43012

> <i_f3d_flags>
0

> <s_epik_input>
bjFbY0hdW2NIXVtjSF1bY0hdYzFbTkhdQyg9TylbTkhdW0NIMl1bQ0BIXShbQ0gyXTIpT1tDSDJdW0NAQEhdKE4yMylbQ0gyXVtDSDJdW0NIMl1bQ0gyXTM=

> <s_epik_cmdline>
J2VwaWtfcHl0aG9uJywgJy1waCcsICc3LjAnLCAnLXRuJywgJzgnLCAnLW1hJywgJzIwMCcsICctbWV0YWxfYmluZGluZycsICctaW1hZScsICc8aW5maWxlLm1hZT4nLCAnLW9tYWUnLCAnPG91dGZpbGUubWFlPic=

> <r_epik_Ionization_Penalty>
0.0932337

> <r_epik_Ionization_Penalty_Charging>
0.0931942

> <r_epik_Ionization_Penalty_Neutral>
3.9565e-05

> <r_epik_State_Penalty>
0.0834605

> <r_epik_Charging_Adjusted_Penalty>
0.176655

> <i_epik_Tot_Q>
1

> <i_epik_Tot_abs_Q>
1

> <r_epik_Metal_State_Penalty>
0.0834607

> <b_epik_Metal_Only>
0

> <s_lp_Force_Field>
OPLS_2005

> <r_lp_Energy>
26.7775

> <b_lp_Chiralities_Consistent>
1

> <s_lp_Variant>
AV-unprocessed.smi:2528-4

> <Gold.Version>
5.8.1

> <Gold.Id.Protein>
6NUR|6NUR_protein|mol2

> <Gold.PLP.Fitness>
51.0961

> <Gold.PLP.PLP>
-39.5456

> <Gold.PLP.part.hbond>
-3.9871

> <Gold.PLP.part.metal>
0.0000

> <Gold.PLP.part.buried>
-5.9613

> <Gold.PLP.part.nonpolar>
-32.1503

> <Gold.PLP.part.repulsive>
1.5842

> <Gold.PLP.ligand.clash>
0.0000

> <Gold.PLP.ligand.torsion>
0.3104

> <Gold.PLP.Chemscore.Hbond>
4.0568

> <Gold.PLP.Chemscore.CHOScore>
0.0000

> <Gold.PLP.Chemscore.Metal>
0.0000

> <Gold.Chemscore.Hbonds>
donor molecule, donor type, donor heavy atom, donor atom, acceptor molecule, acceptor atom, score
      L1  H     3    22       P1  8028  1.00
      L1  H     7    44       P1 10175  2.00
      L1  H    15    39       P1  8028  0.68

> <Gold.PLP.Chemscore.Internal.Correction>
0.0009

> <Gold.Rescore>
     Score         DG    S(hbond)    S(metal)    S(lipo)     H(rot)  DE(clash)    DE(int)     intcor
     19.86     -21.64       2.92        0.00      82.79       1.29       0.17       1.60       ----

> <Gold.Chemscore.Fitness>
19.8648

> <Gold.Chemscore.DG>
-21.6369

> <Gold.Chemscore.ZeroCoef>
-5.4800

> <Gold.Chemscore.Hbond>
2.9236

> <Gold.Chemscore.Metal>
0.0000

> <Gold.Chemscore.Lipo>
82.7947

> <Gold.Chemscore.Internal_Hbond>
0.0000

> <Gold.Chemscore.DEClash>
0.1720

> <Gold.Chemscore.DEInternal>
1.6000

> <Gold.Chemscore.Rot>
1.2870

> <Gold.Chemscore.Internal.Correction>
   9.000000E+99

> <Gold.Chemscore.Hbonds>
donor molecule, donor type, donor heavy atom, donor atom, acceptor molecule, acceptor atom, score
      L1  H     3    22       P1  8028  1.00
      L1  H     7    44       P1 10175  0.98
      L1  H    15    39       P1  8028  0.64

> <Gold.Chemscore.Hbond.Weighted>
-9.7647

> <Gold.Chemscore.Metal.Weighted>
-0.0000

> <Gold.Chemscore.Lipo.Weighted>
-9.6870

> <Gold.Chemscore.Internal_Hbond.Weighted>
0.0000

> <Gold.Chemscore.DEClash.Weighted>
0.1720

> <Gold.Chemscore.DEInternal.Weighted>
1.6000

> <Gold.Chemscore.Rot.Weighted>
3.2948

> <Gold.Chemscore.Internal.Correction.Weighted>
   9.000000E+99

> <Gold.Protein.RotatedTorsions>
[ 6907 6896 6895 6894 ] final  -89.02 input  -60.11 | X-H torsion
[ 7974 7965 7964 7962 ] final  143.16 input  175.53 | X-H torsion
[ 8008 7997 7996 7995 ] final  123.89 input   59.86 | X-H torsion
[ 10167 10162 10161 10158 ] final  -94.23 input  -65.29 | X-H torsion
[ 10718 10713 10712 10709 ] final  -72.99 input   66.30 | X-H torsion
[ 10763 10752 10751 10750 ] final  -74.84 input  -60.55 | X-H torsion
[ 11005 11000 10999 10996 ] final  -79.26 input  -57.11 | X-H torsion

> <Gold.Protein.ActiveResidues>
 VAL166  LYS551  ARG553  GLY616  TRP617  ASP618  TYR619  PRO620  LYS621  CYS622 
 ASP623  PHE694  ASN695  SER759  ASP760  ASP761  ALA762  ILE779  LEU786  VAL792 
 PHE793  MET794  SER795  GLU796  ALA797  LYS798  CYS799  TRP800  GLU811  SER814 

> <Gold.Protein.RotatedAtoms>
  150.6871  134.2651  159.4564 H   0  0  0  0  0  0  0  0  0  0  0  0  # atno 6907 bound_to 6896
  152.0578  134.9611  160.0584 H   0  0  0  0  0  0  0  0  0  0  0  0  # atno 6908 bound_to 6896
  152.1050  133.4235  159.4641 H   0  0  0  0  0  0  0  0  0  0  0  0  # atno 6909 bound_to 6896
  144.8944  139.5511  143.5783 H   0  0  0  0  0  0  0  0  0  0  0  0  # atno 7974 bound_to 7965
  156.2782  140.2752  156.1701 H   0  0  0  0  0  0  0  0  0  0  0  0  # atno 8008 bound_to 7997
  155.0664  140.0387  157.2612 H   0  0  0  0  0  0  0  0  0  0  0  0  # atno 8009 bound_to 7997
  154.7075  140.2662  155.6666 H   0  0  0  0  0  0  0  0  0  0  0  0  # atno 8010 bound_to 7997
  140.3165  143.3074  152.0092 H   0  0  0  0  0  0  0  0  0  0  0  0  # atno 10167 bound_to 10162
  156.0298  130.4384  150.2675 H   0  0  0  0  0  0  0  0  0  0  0  0  # atno 10718 bound_to 10713
  154.4785  135.5851  153.6372 H   0  0  0  0  0  0  0  0  0  0  0  0  # atno 10763 bound_to 10752
  152.9844  135.6084  154.3277 H   0  0  0  0  0  0  0  0  0  0  0  0  # atno 10764 bound_to 10752
  154.3166  135.2844  155.2519 H   0  0  0  0  0  0  0  0  0  0  0  0  # atno 10765 bound_to 10752
  141.1667  133.7098  156.8096 H   0  0  0  0  0  0  0  0  0  0  0  0  # atno 11005 bound_to 11000
  146.3073  139.7623  142.9046 LP  0  0  0  0  0  0  0  0  0  0  0  0  # atno 17320 bound_to 7965
  145.3725  141.0345  143.3223 LP  0  0  0  0  0  0  0  0  0  0  0  0  # atno 17321 bound_to 7965
  139.4883  144.6344  151.7005 LP  0  0  0  0  0  0  0  0  0  0  0  0  # atno 17342 bound_to 10162
  140.5521  144.0407  150.6132 LP  0  0  0  0  0  0  0  0  0  0  0  0  # atno 17343 bound_to 10162
  157.0778  131.0135  151.3167 LP  0  0  0  0  0  0  0  0  0  0  0  0  # atno 17370 bound_to 10713
  157.4950  130.7845  149.7546 LP  0  0  0  0  0  0  0  0  0  0  0  0  # atno 17371 bound_to 10713
  140.2197  134.8766  157.3364 LP  0  0  0  0  0  0  0  0  0  0  0  0  # atno 17394 bound_to 11000
  140.2000  134.4266  155.7668 LP  0  0  0  0  0  0  0  0  0  0  0  0  # atno 17395 bound_to 11000

$$$$
