AV-unprocessed.smi:2850|AV-procd|sdf|10966|dock5
  -GOLD-   2272015413D 1   1.00000     0.00000
 Structure written by MMmdl.
 45 46  0  0  0  0  0  0  0  0  2 V2000
  142.2981  135.9600  162.9456 C   0  0  0  0  0  0  0  0  0  0  0  0
  141.0487  135.5484  161.6962 S   0  0  0  0  0  0  0  0  0  0  0  0
  141.9090  135.1577  160.2032 C   0  0  0  0  0  0  0  0  0  0  0  0
  143.2269  135.6039  159.9985 C   0  0  0  0  0  0  0  0  0  0  0  0
  143.8409  135.2462  158.7857 C   0  0  0  0  0  0  0  0  0  0  0  0
  143.0935  134.4722  157.8751 C   0  0  0  0  0  0  0  0  0  0  0  0
  143.6861  134.0991  156.6601 N   0  0  0  0  0  0  0  0  0  0  0  0
  144.9049  134.7352  156.1745 C   0  0  0  0  0  0  0  0  0  0  0  0
  145.6000  133.9148  155.0743 C   0  0  1  0  0  0  0  0  0  0  0  0
  146.2674  134.8247  154.0228 C   0  0  0  0  0  0  0  0  0  0  0  0
  146.9967  134.0284  153.0055 N   0  3  2  0  0  0  0  0  0  0  0  0
  146.1073  133.3972  151.9926 C   0  0  0  0  0  0  0  0  0  0  0  0
  144.9373  134.3100  151.5670 C   0  0  0  0  0  0  0  0  0  0  0  0
  144.0194  133.6266  150.5396 C   0  0  0  0  0  0  0  0  0  0  0  0
  145.4677  135.6390  151.0094 C   0  0  0  0  0  0  0  0  0  0  0  0
  147.9507  133.0981  153.6615 C   0  0  0  0  0  0  0  0  0  0  0  0
  147.2616  132.2602  154.7556 C   0  0  0  0  0  0  0  0  0  0  0  0
  146.6138  133.1215  155.6836 O   0  0  0  0  0  0  0  0  0  0  0  0
  141.8216  134.0796  158.1429 N   0  0  0  0  0  0  0  0  0  0  0  0
  141.2332  134.4161  159.2960 N   0  0  0  0  0  0  0  0  0  0  0  0
  141.8148  136.2051  163.8911 H   0  0  0  0  0  0  0  0  0  0  0  0
  142.8897  136.8189  162.6287 H   0  0  0  0  0  0  0  0  0  0  0  0
  142.9668  135.1147  163.1093 H   0  0  0  0  0  0  0  0  0  0  0  0
  143.7454  136.1954  160.7386 H   0  0  0  0  0  0  0  0  0  0  0  0
  144.8520  135.5559  158.5654 H   0  0  0  0  0  0  0  0  0  0  0  0
  143.2127  133.4403  156.0584 H   0  0  0  0  0  0  0  0  0  0  0  0
  144.6680  135.7355  155.8098 H   0  0  0  0  0  0  0  0  0  0  0  0
  145.5819  134.8728  157.0181 H   0  0  0  0  0  0  0  0  0  0  0  0
  144.8701  133.2673  154.5858 H   0  0  0  0  0  0  0  0  0  0  0  0
  145.5320  135.4720  153.5435 H   0  0  0  0  0  0  0  0  0  0  0  0
  146.9809  135.4876  154.5146 H   0  0  0  0  0  0  0  0  0  0  0  0
  146.6900  133.0963  151.1218 H   0  0  0  0  0  0  0  0  0  0  0  0
  145.6866  132.4772  152.4012 H   0  0  0  0  0  0  0  0  0  0  0  0
  144.3358  134.5543  152.4421 H   0  0  0  0  0  0  0  0  0  0  0  0
  144.5659  133.3602  149.6343 H   0  0  0  0  0  0  0  0  0  0  0  0
  143.1989  134.2838  150.2495 H   0  0  0  0  0  0  0  0  0  0  0  0
  143.5764  132.7155  150.9421 H   0  0  0  0  0  0  0  0  0  0  0  0
  146.0797  135.4810  150.1207 H   0  0  0  0  0  0  0  0  0  0  0  0
  146.0800  136.1591  151.7467 H   0  0  0  0  0  0  0  0  0  0  0  0
  144.6495  136.3056  150.7353 H   0  0  0  0  0  0  0  0  0  0  0  0
  148.4397  132.4512  152.9343 H   0  0  0  0  0  0  0  0  0  0  0  0
  148.7428  133.6940  154.1172 H   0  0  0  0  0  0  0  0  0  0  0  0
  146.5442  131.5572  154.3306 H   0  0  0  0  0  0  0  0  0  0  0  0
  148.0023  131.6649  155.2897 H   0  0  0  0  0  0  0  0  0  0  0  0
  147.5521  134.6926  152.4851 H   0  0  0  0  0  0  0  0  0  0  0  0
  1  2  1  0  0  0  0
  1 21  1  0  0  0  0
  1 22  1  0  0  0  0
  1 23  1  0  0  0  0
  2  3  1  0  0  0  0
  3 20  1  0  0  0  0
  3  4  2  0  0  0  0
  4  5  1  0  0  0  0
  4 24  1  0  0  0  0
  5  6  2  0  0  0  0
  5 25  1  0  0  0  0
  6  7  1  0  0  0  0
  6 19  1  0  0  0  0
  7  8  1  0  0  0  0
  7 26  1  0  0  0  0
  8  9  1  0  0  0  0
  8 27  1  0  0  0  0
  8 28  1  0  0  0  0
  9 18  1  0  0  0  0
  9 10  1  0  0  0  0
  9 29  1  0  0  0  0
 10 11  1  0  0  0  0
 10 30  1  0  0  0  0
 10 31  1  0  0  0  0
 11 12  1  0  0  0  0
 11 16  1  0  0  0  0
 11 45  1  0  0  0  0
 12 13  1  0  0  0  0
 12 32  1  0  0  0  0
 12 33  1  0  0  0  0
 13 14  1  0  0  0  0
 13 15  1  0  0  0  0
 13 34  1  0  0  0  0
 14 35  1  0  0  0  0
 14 36  1  0  0  0  0
 14 37  1  0  0  0  0
 15 38  1  0  0  0  0
 15 39  1  0  0  0  0
 15 40  1  0  0  0  0
 16 17  1  0  0  0  0
 16 41  1  0  0  0  0
 16 42  1  0  0  0  0
 17 18  1  0  0  0  0
 17 43  1  0  0  0  0
 17 44  1  0  0  0  0
 19 20  2  0  0  0  0
M  CHG  1  11   1
M  END
> <s_m_source_file>
AV-unprocessed.smi

> <i_m_source_file_index>
2850

> <i_lp_mmshare_version>
43012

> <i_f3d_flags>
0

> <s_epik_input>
W0NIM11TYzFbY0hdW2NIXWMobm4xKVtOSF1bQ0gyXVtDQEBIXTJbQ0gyXU4oW0NIMl1bQ0gyXU8yKVtDSDJdW0NIXShbQ0gzXSlbQ0gzXQ==

> <s_epik_cmdline>
J2VwaWtfcHl0aG9uJywgJy1waCcsICc3LjAnLCAnLXRuJywgJzgnLCAnLW1hJywgJzIwMCcsICctbWV0YWxfYmluZGluZycsICctaW1hZScsICc8aW5maWxlLm1hZT4nLCAnLW9tYWUnLCAnPG91dGZpbGUubWFlPic=

> <r_lp_tautomer_probability>
0.999978

> <r_epik_Ionization_Penalty>
0.0874875

> <r_epik_Ionization_Penalty_Charging>
0.0831532

> <r_epik_Ionization_Penalty_Neutral>
0.00433433

> <r_epik_State_Penalty>
0.0738301

> <r_epik_Charging_Adjusted_Penalty>
0.156983

> <i_epik_Tot_Q>
1

> <i_epik_Tot_abs_Q>
1

> <r_epik_Metal_State_Penalty>
0.073888

> <b_epik_Metal_Only>
0

> <s_lp_Force_Field>
OPLS_2005

> <r_lp_Energy>
26.339

> <b_lp_Chiralities_Consistent>
1

> <s_lp_Variant>
AV-unprocessed.smi:2850-2

> <Gold.Version>
5.8.1

> <Gold.Id.Protein>
6NUR|6NUR_protein|mol2

> <Gold.PLP.Fitness>
37.2098

> <Gold.PLP.PLP>
-27.2557

> <Gold.PLP.part.hbond>
-3.4402

> <Gold.PLP.part.metal>
0.0000

> <Gold.PLP.part.buried>
-4.8338

> <Gold.PLP.part.nonpolar>
-19.8292

> <Gold.PLP.part.repulsive>
0.1699

> <Gold.PLP.ligand.clash>
0.0000

> <Gold.PLP.ligand.torsion>
1.0826

> <Gold.PLP.Chemscore.Hbond>
4.0000

> <Gold.PLP.Chemscore.CHOScore>
0.0000

> <Gold.PLP.Chemscore.Metal>
0.0000

> <Gold.Chemscore.Hbonds>
donor molecule, donor type, donor heavy atom, donor atom, acceptor molecule, acceptor atom, score
      L1  H     7    26       P1 10957  0.70
      L1  H    11    45       P1  7948  1.46
      P1  H 11000 11005       L1    19  0.22

> <Gold.PLP.Chemscore.Internal.Correction>
0.1194

> <Gold.Rescore>
     Score         DG    S(hbond)    S(metal)    S(lipo)     H(rot)  DE(clash)    DE(int)     intcor
     14.15     -15.05       1.99        0.00      59.93       1.60       0.00       0.89       ----

> <Gold.Chemscore.Fitness>
14.1547

> <Gold.Chemscore.DG>
-15.0454

> <Gold.Chemscore.ZeroCoef>
-5.4800

> <Gold.Chemscore.Hbond>
1.9913

> <Gold.Chemscore.Metal>
0.0000

> <Gold.Chemscore.Lipo>
59.9265

> <Gold.Chemscore.Internal_Hbond>
0.0000

> <Gold.Chemscore.DEClash>
0.0008

> <Gold.Chemscore.DEInternal>
0.8899

> <Gold.Chemscore.Rot>
1.6003

> <Gold.Chemscore.Internal.Correction>
   9.000000E+99

> <Gold.Chemscore.Hbonds>
donor molecule, donor type, donor heavy atom, donor atom, acceptor molecule, acceptor atom, score
      L1  H     7    26       P1 10957  0.71
      L1  H    11    45       P1  7948  0.64
      P1  H 11000 11005       L1    19  0.15

> <Gold.Chemscore.Hbond.Weighted>
-6.6508

> <Gold.Chemscore.Metal.Weighted>
-0.0000

> <Gold.Chemscore.Lipo.Weighted>
-7.0114

> <Gold.Chemscore.Internal_Hbond.Weighted>
0.0000

> <Gold.Chemscore.DEClash.Weighted>
0.0008

> <Gold.Chemscore.DEInternal.Weighted>
0.8899

> <Gold.Chemscore.Rot.Weighted>
4.0968

> <Gold.Chemscore.Internal.Correction.Weighted>
   9.000000E+99

> <Gold.Protein.RotatedTorsions>
[ 6907 6896 6895 6894 ] final  166.92 input  -60.11 | X-H torsion
[ 7974 7965 7964 7962 ] final  -51.69 input  175.53 | X-H torsion
[ 8008 7997 7996 7995 ] final   13.81 input   59.86 | X-H torsion
[ 10167 10162 10161 10158 ] final  -11.28 input  -65.29 | X-H torsion
[ 10718 10713 10712 10709 ] final   -5.33 input   66.30 | X-H torsion
[ 10763 10752 10751 10750 ] final  147.55 input  -60.55 | X-H torsion
[ 11005 11000 10999 10996 ] final  -82.03 input  -57.11 | X-H torsion

> <Gold.Protein.ActiveResidues>
 VAL166  LYS551  ARG553  GLY616  TRP617  ASP618  TYR619  PRO620  LYS621  CYS622 
 ASP623  PHE694  ASN695  SER759  ASP760  ASP761  ALA762  ILE779  LEU786  VAL792 
 PHE793  MET794  SER795  GLU796  ALA797  LYS798  CYS799  TRP800  GLU811  SER814 

> <Gold.Protein.RotatedAtoms>
  151.8715  133.3476  159.3735 H   0  0  0  0  0  0  0  0  0  0  0  0  # atno 6907 bound_to 6896
  150.7151  134.5108  159.5616 H   0  0  0  0  0  0  0  0  0  0  0  0  # atno 6908 bound_to 6896
  152.2642  134.8002  160.0476 H   0  0  0  0  0  0  0  0  0  0  0  0  # atno 6909 bound_to 6896
  145.9162  140.7873  142.9670 H   0  0  0  0  0  0  0  0  0  0  0  0  # atno 7974 bound_to 7965
  154.8396  140.2912  155.5668 H   0  0  0  0  0  0  0  0  0  0  0  0  # atno 8008 bound_to 7997
  156.3011  140.2516  156.3268 H   0  0  0  0  0  0  0  0  0  0  0  0  # atno 8009 bound_to 7997
  154.9140  140.0388  157.1951 H   0  0  0  0  0  0  0  0  0  0  0  0  # atno 8010 bound_to 7997
  140.7134  143.5657  150.9147 H   0  0  0  0  0  0  0  0  0  0  0  0  # atno 10167 bound_to 10162
  156.7482  130.5231  149.5809 H   0  0  0  0  0  0  0  0  0  0  0  0  # atno 10718 bound_to 10713
  154.0402  135.2890  155.3356 H   0  0  0  0  0  0  0  0  0  0  0  0  # atno 10763 bound_to 10752
  154.6934  135.5217  153.8427 H   0  0  0  0  0  0  0  0  0  0  0  0  # atno 10764 bound_to 10752
  153.0603  135.6611  154.0606 H   0  0  0  0  0  0  0  0  0  0  0  0  # atno 10765 bound_to 10752
  141.1664  133.7224  156.8510 H   0  0  0  0  0  0  0  0  0  0  0  0  # atno 11005 bound_to 11000
  144.6748  140.1903  143.7397 LP  0  0  0  0  0  0  0  0  0  0  0  0  # atno 17320 bound_to 7965
  145.8609  139.2222  143.1717 LP  0  0  0  0  0  0  0  0  0  0  0  0  # atno 17321 bound_to 7965
  139.9383  143.6412  152.3060 LP  0  0  0  0  0  0  0  0  0  0  0  0  # atno 17342 bound_to 10162
  139.6888  144.7649  151.1476 LP  0  0  0  0  0  0  0  0  0  0  0  0  # atno 17343 bound_to 10162
  156.1419  130.6250  151.0478 LP  0  0  0  0  0  0  0  0  0  0  0  0  # atno 17370 bound_to 10713
  157.6789  131.0843  150.7423 LP  0  0  0  0  0  0  0  0  0  0  0  0  # atno 17371 bound_to 10713
  140.1915  134.8962  157.3066 LP  0  0  0  0  0  0  0  0  0  0  0  0  # atno 17394 bound_to 11000
  140.2284  134.3938  155.7533 LP  0  0  0  0  0  0  0  0  0  0  0  0  # atno 17395 bound_to 11000

$$$$
