AV-unprocessed.smi:2462|AV-procd|sdf|9717|dock5
  -GOLD-   2272013353D 1   1.00000     0.00000
 Structure written by MMmdl.
 40 41  0  0  0  0  0  0  0  0  1 V2000
  152.4836  143.4165  161.5525 C   0  0  0  0  0  0  0  0  0  0  0  0
  152.1947  142.8666  160.1672 C   0  0  0  0  0  0  0  0  0  0  0  0
  151.3888  143.6682  159.3554 N   0  0  0  0  0  0  0  0  0  0  0  0
  151.0695  143.2676  158.1686 C   0  0  0  0  0  0  0  0  0  0  0  0
  151.4981  142.0285  157.6608 N   0  0  0  0  0  0  0  0  0  0  0  0
  151.0390  141.6976  156.2939 C   0  0  0  0  0  0  0  0  0  0  0  0
  149.9465  140.5843  156.2032 C   0  0  1  0  0  0  0  0  0  0  0  0
  150.4800  139.4326  156.8300 O   0  0  0  0  0  0  0  0  0  0  0  0
  148.7048  140.9471  157.0538 C   0  0  0  0  0  0  0  0  0  0  0  0
  147.7993  141.9951  156.3822 C   0  0  0  0  0  0  0  0  0  0  0  0
  147.3593  141.5446  154.9779 C   0  0  1  0  0  0  0  0  0  0  0  0
  146.4568  142.5910  154.3092 C   0  0  0  0  0  0  0  0  0  0  0  0
  148.5899  141.2262  154.1105 C   0  0  0  0  0  0  0  0  0  0  0  0
  149.5014  140.1795  154.7748 C   0  0  0  0  0  0  0  0  0  0  0  0
  152.3479  141.2208  158.3631 C   0  0  0  0  0  0  0  0  0  0  0  0
  152.8019  140.1789  157.8877 O   0  0  0  0  0  0  0  0  0  0  0  0
  152.6823  141.6771  159.7222 C   0  0  0  0  0  0  0  0  0  0  0  0
  153.5682  140.7633  160.5602 C   0  0  0  0  0  0  0  0  0  0  0  0
  153.5559  143.5562  161.6920 H   0  0  0  0  0  0  0  0  0  0  0  0
  152.1173  142.7329  162.3187 H   0  0  0  0  0  0  0  0  0  0  0  0
  151.9981  144.3811  161.7065 H   0  0  0  0  0  0  0  0  0  0  0  0
  150.4544  143.8634  157.4927 H   0  0  0  0  0  0  0  0  0  0  0  0
  150.6848  142.6048  155.7997 H   0  0  0  0  0  0  0  0  0  0  0  0
  151.8936  141.4027  155.6862 H   0  0  0  0  0  0  0  0  0  0  0  0
  151.3748  139.6120  157.0755 H   0  0  0  0  0  0  0  0  0  0  0  0
  148.1056  140.0519  157.2296 H   0  0  0  0  0  0  0  0  0  0  0  0
  149.0108  141.3002  158.0399 H   0  0  0  0  0  0  0  0  0  0  0  0
  146.9215  142.1649  157.0067 H   0  0  0  0  0  0  0  0  0  0  0  0
  148.3137  142.9541  156.3203 H   0  0  0  0  0  0  0  0  0  0  0  0
  146.7766  140.6285  155.0848 H   0  0  0  0  0  0  0  0  0  0  0  0
  146.9809  143.5376  154.1724 H   0  0  0  0  0  0  0  0  0  0  0  0
  145.5689  142.7858  154.9112 H   0  0  0  0  0  0  0  0  0  0  0  0
  146.1220  142.2516  153.3285 H   0  0  0  0  0  0  0  0  0  0  0  0
  148.2704  140.8582  153.1350 H   0  0  0  0  0  0  0  0  0  0  0  0
  149.1453  142.1417  153.9202 H   0  0  0  0  0  0  0  0  0  0  0  0
  150.3595  139.9687  154.1364 H   0  0  0  0  0  0  0  0  0  0  0  0
  148.9448  139.2424  154.8277 H   0  0  0  0  0  0  0  0  0  0  0  0
  153.0941  139.7888  160.6819 H   0  0  0  0  0  0  0  0  0  0  0  0
  153.7707  141.1552  161.5556 H   0  0  0  0  0  0  0  0  0  0  0  0
  154.5284  140.6131  160.0658 H   0  0  0  0  0  0  0  0  0  0  0  0
  1  2  1  0  0  0  0
  1 19  1  0  0  0  0
  1 20  1  0  0  0  0
  1 21  1  0  0  0  0
  2 17  2  0  0  0  0
  2  3  1  0  0  0  0
  3  4  2  0  0  0  0
  4  5  1  0  0  0  0
  4 22  1  0  0  0  0
  5  6  1  0  0  0  0
  5 15  1  0  0  0  0
  6  7  1  0  0  0  0
  6 23  1  0  0  0  0
  6 24  1  0  0  0  0
  7 14  1  0  0  0  0
  7  8  1  0  0  0  0
  7  9  1  0  0  0  0
  8 25  1  0  0  0  0
  9 10  1  0  0  0  0
  9 26  1  0  0  0  0
  9 27  1  0  0  0  0
 10 11  1  0  0  0  0
 10 28  1  0  0  0  0
 10 29  1  0  0  0  0
 11 12  1  0  0  0  0
 11 13  1  0  0  0  0
 11 30  1  0  0  0  0
 12 31  1  0  0  0  0
 12 32  1  0  0  0  0
 12 33  1  0  0  0  0
 13 14  1  0  0  0  0
 13 34  1  0  0  0  0
 13 35  1  0  0  0  0
 14 36  1  0  0  0  0
 14 37  1  0  0  0  0
 15 16  2  0  0  0  0
 15 17  1  0  0  0  0
 17 18  1  0  0  0  0
 18 38  1  0  0  0  0
 18 39  1  0  0  0  0
 18 40  1  0  0  0  0
M  END
> <s_m_source_file>
AV-unprocessed.smi

> <i_m_source_file_index>
2462

> <i_lp_mmshare_version>
43012

> <i_f3d_flags>
0

> <s_epik_input>
W0NIM11jMW5bY0hdbihjKD1PKWMxW0NIM10pW0NIMl1bQ0BAXTIoW09IXSlbQ0gyXVtDSDJdW0NAQEhdKFtDSDNdKVtDSDJdW0NIMl0y

> <s_epik_cmdline>
J2VwaWtfcHl0aG9uJywgJy1waCcsICc3LjAnLCAnLXRuJywgJzgnLCAnLW1hJywgJzIwMCcsICctbWV0YWxfYmluZGluZycsICctaW1hZScsICc8aW5maWxlLm1hZT4nLCAnLW9tYWUnLCAnPG91dGZpbGUubWFlPic=

> <r_lp_tautomer_probability>
1

> <r_epik_Ionization_Penalty>
0.000179745

> <r_epik_Ionization_Penalty_Charging>
2.35483e-07

> <r_epik_Ionization_Penalty_Neutral>
0.00017951

> <r_epik_State_Penalty>
-0

> <r_epik_Charging_Adjusted_Penalty>
2.35483e-07

> <i_epik_Tot_Q>
0

> <i_epik_Tot_abs_Q>
0

> <r_epik_Metal_State_Penalty>
-0

> <b_epik_Metal_Only>
0

> <s_lp_Force_Field>
OPLS_2005

> <r_lp_Energy>
24.5365

> <b_lp_Chiralities_Consistent>
1

> <s_lp_Variant>
AV-unprocessed.smi:2462-1

> <Gold.Version>
5.8.1

> <Gold.Id.Protein>
6NUR|6NUR_protein|mol2

> <Gold.PLP.Fitness>
42.8542

> <Gold.PLP.PLP>
-37.1535

> <Gold.PLP.part.hbond>
-1.0000

> <Gold.PLP.part.metal>
0.0000

> <Gold.PLP.part.buried>
-3.3803

> <Gold.PLP.part.nonpolar>
-31.7735

> <Gold.PLP.part.repulsive>
0.0379

> <Gold.PLP.ligand.clash>
0.0000

> <Gold.PLP.ligand.torsion>
0.1766

> <Gold.PLP.Chemscore.Hbond>
0.9920

> <Gold.PLP.Chemscore.CHOScore>
1.0000

> <Gold.PLP.Chemscore.Metal>
0.0000

> <Gold.Chemscore.Hbonds>
donor molecule, donor type, donor heavy atom, donor atom, acceptor molecule, acceptor atom, score
      P1  H  7997  8010       L1    16  1.00
      L1  C     4    22       P1  8028  0.98

> <Gold.PLP.Chemscore.Internal.Correction>
0.0780

> <Gold.Rescore>
     Score         DG    S(hbond)    S(metal)    S(lipo)     H(rot)  DE(clash)    DE(int)     intcor
     11.71     -14.50       0.92        0.00      87.48       1.68       0.03       2.76       ----

> <Gold.Chemscore.Fitness>
11.7119

> <Gold.Chemscore.DG>
-14.5035

> <Gold.Chemscore.ZeroCoef>
-5.4800

> <Gold.Chemscore.Hbond>
0.9215

> <Gold.Chemscore.Metal>
0.0000

> <Gold.Chemscore.Lipo>
87.4836

> <Gold.Chemscore.Internal_Hbond>
0.0000

> <Gold.Chemscore.DEClash>
0.0311

> <Gold.Chemscore.DEInternal>
2.7605

> <Gold.Chemscore.Rot>
1.6758

> <Gold.Chemscore.Internal.Correction>
   9.000000E+99

> <Gold.Chemscore.Hbonds>
donor molecule, donor type, donor heavy atom, donor atom, acceptor molecule, acceptor atom, score
      P1  H  7997  8010       L1    16  0.93

> <Gold.Chemscore.Hbond.Weighted>
-3.0779

> <Gold.Chemscore.Metal.Weighted>
-0.0000

> <Gold.Chemscore.Lipo.Weighted>
-10.2356

> <Gold.Chemscore.Internal_Hbond.Weighted>
0.0000

> <Gold.Chemscore.DEClash.Weighted>
0.0311

> <Gold.Chemscore.DEInternal.Weighted>
2.7605

> <Gold.Chemscore.Rot.Weighted>
4.2899

> <Gold.Chemscore.Internal.Correction.Weighted>
   9.000000E+99

> <Gold.Protein.RotatedTorsions>
[ 6907 6896 6895 6894 ] final  -83.68 input  -60.11 | X-H torsion
[ 7974 7965 7964 7962 ] final   52.32 input  175.53 | X-H torsion
[ 8008 7997 7996 7995 ] final   48.02 input   59.86 | X-H torsion
[ 10167 10162 10161 10158 ] final -150.09 input  -65.29 | X-H torsion
[ 10718 10713 10712 10709 ] final -112.44 input   66.30 | X-H torsion
[ 10763 10752 10751 10750 ] final -145.22 input  -60.55 | X-H torsion
[ 11005 11000 10999 10996 ] final   24.07 input  -57.11 | X-H torsion

> <Gold.Protein.ActiveResidues>
 VAL166  LYS551  ARG553  GLY616  TRP617  ASP618  TYR619  PRO620  LYS621  CYS622 
 ASP623  PHE694  ASN695  SER759  ASP760  ASP761  ALA762  ILE779  LEU786  VAL792 
 PHE793  MET794  SER795  GLU796  ALA797  LYS798  CYS799  TRP800  GLU811  SER814 

> <Gold.Protein.RotatedAtoms>
  150.6883  134.3475  159.4894 H   0  0  0  0  0  0  0  0  0  0  0  0  # atno 6907 bound_to 6896
  152.1320  134.9125  160.0567 H   0  0  0  0  0  0  0  0  0  0  0  0  # atno 6908 bound_to 6896
  152.0291  133.3895  159.4327 H   0  0  0  0  0  0  0  0  0  0  0  0  # atno 6909 bound_to 6896
  145.9825  139.4257  143.0123 H   0  0  0  0  0  0  0  0  0  0  0  0  # atno 7974 bound_to 7965
  155.3788  140.3427  155.4246 H   0  0  0  0  0  0  0  0  0  0  0  0  # atno 8008 bound_to 7997
  156.1622  140.1604  156.8626 H   0  0  0  0  0  0  0  0  0  0  0  0  # atno 8009 bound_to 7997
  154.5150  140.0780  156.8046 H   0  0  0  0  0  0  0  0  0  0  0  0  # atno 8010 bound_to 7997
  139.7385  143.8699  152.2555 H   0  0  0  0  0  0  0  0  0  0  0  0  # atno 10167 bound_to 10162
  156.0706  130.5920  150.8508 H   0  0  0  0  0  0  0  0  0  0  0  0  # atno 10718 bound_to 10713
  154.8393  135.3419  154.6470 H   0  0  0  0  0  0  0  0  0  0  0  0  # atno 10763 bound_to 10752
  153.7083  135.6965  153.5049 H   0  0  0  0  0  0  0  0  0  0  0  0  # atno 10764 bound_to 10752
  153.2471  135.4365  155.0713 H   0  0  0  0  0  0  0  0  0  0  0  0  # atno 10765 bound_to 10752
  140.3627  134.2108  155.7671 H   0  0  0  0  0  0  0  0  0  0  0  0  # atno 11005 bound_to 11000
  145.7748  140.9881  143.1130 LP  0  0  0  0  0  0  0  0  0  0  0  0  # atno 17320 bound_to 7965
  144.6865  139.9492  143.7477 LP  0  0  0  0  0  0  0  0  0  0  0  0  # atno 17321 bound_to 7965
  139.8642  144.7101  150.9063 LP  0  0  0  0  0  0  0  0  0  0  0  0  # atno 17342 bound_to 10162
  140.7782  143.3792  151.1508 LP  0  0  0  0  0  0  0  0  0  0  0  0  # atno 17343 bound_to 10162
  157.5774  131.0946  150.9324 LP  0  0  0  0  0  0  0  0  0  0  0  0  # atno 17370 bound_to 10713
  156.9528  130.5426  149.5283 LP  0  0  0  0  0  0  0  0  0  0  0  0  # atno 17371 bound_to 10713
  141.1979  133.8048  157.0606 LP  0  0  0  0  0  0  0  0  0  0  0  0  # atno 17394 bound_to 11000
  140.0614  134.9752  157.1311 LP  0  0  0  0  0  0  0  0  0  0  0  0  # atno 17395 bound_to 11000

$$$$
