AV-unprocessed.smi:1995|AV-procd|sdf|8080|dock6
  -GOLD-   2272010293D 1   1.00000     0.00000
 Structure written by MMmdl.
 41 42  0  0  0  0  0  0  0  0  2 V2000
  151.9545  139.0591  155.5573 C   0  0  0  0  0  0  0  0  0  0  0  0
  150.5140  139.5939  155.4589 C   0  0  0  0  0  0  0  0  0  0  0  0
  149.7131  139.6325  156.7993 C   0  0  1  0  0  0  0  0  0  0  0  0
  148.2687  140.0679  156.4316 C   0  0  0  0  0  0  0  0  0  0  0  0
  149.6480  138.1868  157.3915 C   0  0  0  0  0  0  0  0  0  0  0  0
  148.8082  138.0707  158.5847 N   0  0  0  0  0  0  0  0  0  0  0  0
  148.6072  136.9663  159.3185 C   0  0  0  0  0  0  0  0  0  0  0  0
  149.1671  135.9109  159.0134 O   0  0  0  0  0  0  0  0  0  0  0  0
  147.7582  137.1515  160.3548 N   0  5  0  0  0  0  0  0  0  0  0  0
  147.2286  136.0916  160.9870 C   0  0  0  0  0  0  0  0  0  0  0  0
  147.7151  134.8512  160.8659 N   0  0  0  0  0  0  0  0  0  0  0  0
  147.0155  133.9050  161.6170 C   0  0  0  0  0  0  0  0  0  0  0  0
  145.9767  134.4385  162.3327 C   0  0  0  0  0  0  0  0  0  0  0  0
  145.8458  136.1562  162.0839 S   0  0  0  0  0  0  0  0  0  0  0  0
  150.3253  140.6005  157.7543 N   0  0  0  0  0  0  0  0  0  0  0  0
  151.6117  140.1884  158.3274 C   0  0  0  0  0  0  0  0  0  0  0  0
  152.0994  141.1687  159.4080 C   0  0  0  0  0  0  0  0  0  0  0  0
  152.1931  142.4790  158.8619 O   0  0  0  0  0  0  0  0  0  0  0  0
  150.9524  142.9402  158.3401 C   0  0  0  0  0  0  0  0  0  0  0  0
  150.4566  141.9735  157.2513 C   0  0  0  0  0  0  0  0  0  0  0  0
  152.4319  139.0715  154.5774 H   0  0  0  0  0  0  0  0  0  0  0  0
  151.9835  138.0314  155.9188 H   0  0  0  0  0  0  0  0  0  0  0  0
  152.5670  139.6669  156.2224 H   0  0  0  0  0  0  0  0  0  0  0  0
  150.5732  140.5954  155.0320 H   0  0  0  0  0  0  0  0  0  0  0  0
  149.9724  139.0133  154.7120 H   0  0  0  0  0  0  0  0  0  0  0  0
  147.8836  139.5221  155.5695 H   0  0  0  0  0  0  0  0  0  0  0  0
  148.2162  141.1294  156.1887 H   0  0  0  0  0  0  0  0  0  0  0  0
  147.5683  139.8853  157.2467 H   0  0  0  0  0  0  0  0  0  0  0  0
  149.3204  137.4694  156.6391 H   0  0  0  0  0  0  0  0  0  0  0  0
  150.6401  137.8568  157.6972 H   0  0  0  0  0  0  0  0  0  0  0  0
  148.3248  138.9072  158.8771 H   0  0  0  0  0  0  0  0  0  0  0  0
  147.3273  132.8718  161.5839 H   0  0  0  0  0  0  0  0  0  0  0  0
  145.2861  133.9303  162.9886 H   0  0  0  0  0  0  0  0  0  0  0  0
  151.5380  139.2030  158.7837 H   0  0  0  0  0  0  0  0  0  0  0  0
  152.3703  140.1222  157.5478 H   0  0  0  0  0  0  0  0  0  0  0  0
  151.4198  141.1703  160.2617 H   0  0  0  0  0  0  0  0  0  0  0  0
  153.0789  140.8668  159.7789 H   0  0  0  0  0  0  0  0  0  0  0  0
  150.2195  143.0251  159.1438 H   0  0  0  0  0  0  0  0  0  0  0  0
  151.0902  143.9387  157.9254 H   0  0  0  0  0  0  0  0  0  0  0  0
  151.1552  142.0053  156.4153 H   0  0  0  0  0  0  0  0  0  0  0  0
  149.5045  142.3479  156.8805 H   0  0  0  0  0  0  0  0  0  0  0  0
  1  2  1  0  0  0  0
  1 21  1  0  0  0  0
  1 22  1  0  0  0  0
  1 23  1  0  0  0  0
  2  3  1  0  0  0  0
  2 24  1  0  0  0  0
  2 25  1  0  0  0  0
  3  4  1  0  0  0  0
  3  5  1  0  0  0  0
  3 15  1  0  0  0  0
  4 26  1  0  0  0  0
  4 27  1  0  0  0  0
  4 28  1  0  0  0  0
  5  6  1  0  0  0  0
  5 29  1  0  0  0  0
  5 30  1  0  0  0  0
  6  7  1  0  0  0  0
  6 31  1  0  0  0  0
  7  8  2  0  0  0  0
  7  9  1  0  0  0  0
  9 10  1  0  0  0  0
 10 14  1  0  0  0  0
 10 11  2  0  0  0  0
 11 12  1  0  0  0  0
 12 13  2  0  0  0  0
 12 32  1  0  0  0  0
 13 14  1  0  0  0  0
 13 33  1  0  0  0  0
 15 20  1  0  0  0  0
 15 16  1  0  0  0  0
 16 17  1  0  0  0  0
 16 34  1  0  0  0  0
 16 35  1  0  0  0  0
 17 18  1  0  0  0  0
 17 36  1  0  0  0  0
 17 37  1  0  0  0  0
 18 19  1  0  0  0  0
 19 20  1  0  0  0  0
 19 38  1  0  0  0  0
 19 39  1  0  0  0  0
 20 40  1  0  0  0  0
 20 41  1  0  0  0  0
M  CHG  1   9  -1
M  END
> <s_m_source_file>
AV-unprocessed.smi

> <i_m_source_file_index>
1995

> <i_lp_mmshare_version>
43012

> <i_f3d_flags>
0

> <s_epik_input>
W0NIMl0xW0NIMl1PW0NIMl1bQ0gyXU4xW0NAQF0oW0NIM10pKFtDSDJdW0NIM10pW0NIMl1bTkhdQyg9TylbTkhdYzJuW2NIXVtjSF1zMg==

> <s_epik_cmdline>
J2VwaWtfcHl0aG9uJywgJy1waCcsICc3LjAnLCAnLXRuJywgJzgnLCAnLW1hJywgJzIwMCcsICctbWV0YWxfYmluZGluZycsICctaW1hZScsICc8aW5maWxlLm1hZT4nLCAnLW9tYWUnLCAnPG91dGZpbGUubWFlPic=

> <r_lp_tautomer_probability>
0.999

> <r_epik_Ionization_Penalty>
8.86479

> <r_epik_Ionization_Penalty_Charging>
6.76546

> <r_epik_Ionization_Penalty_Neutral>
2.09933

> <r_epik_State_Penalty>
7.05418

> <r_epik_Charging_Adjusted_Penalty>
13.8196

> <i_epik_Tot_Q>
-1

> <i_epik_Tot_abs_Q>
1

> <r_epik_Metal_State_Penalty>
2.97744

> <b_epik_Metal_Only>
1

> <s_lp_Force_Field>
OPLS_2005

> <r_lp_Energy>
37.7031

> <b_lp_Chiralities_Consistent>
1

> <s_lp_Variant>
AV-unprocessed.smi:1995-5

> <Gold.Version>
5.8.1

> <Gold.Id.Protein>
6NUR|6NUR_protein|mol2

> <Gold.PLP.Fitness>
43.8712

> <Gold.PLP.PLP>
-31.8959

> <Gold.PLP.part.hbond>
-3.0000

> <Gold.PLP.part.metal>
0.0000

> <Gold.PLP.part.buried>
-5.3425

> <Gold.PLP.part.nonpolar>
-25.0525

> <Gold.PLP.part.repulsive>
0.2010

> <Gold.PLP.ligand.clash>
0.0000

> <Gold.PLP.ligand.torsion>
0.2068

> <Gold.PLP.Chemscore.Hbond>
4.0720

> <Gold.PLP.Chemscore.CHOScore>
0.0000

> <Gold.PLP.Chemscore.Metal>
0.0000

> <Gold.Chemscore.Hbonds>
donor molecule, donor type, donor heavy atom, donor atom, acceptor molecule, acceptor atom, score
      P1  H  6896  6909       L1     8  0.93
      P1  H  6931  6943       L1     9  0.55
      P1  H  6934  6947       L1     9  1.74

> <Gold.PLP.Chemscore.Internal.Correction>
0.1729

> <Gold.Rescore>
     Score         DG    S(hbond)    S(metal)    S(lipo)     H(rot)  DE(clash)    DE(int)     intcor
     14.64     -16.67       2.10        0.00      72.89       1.70       0.00       2.03       ----

> <Gold.Chemscore.Fitness>
14.6379

> <Gold.Chemscore.DG>
-16.6696

> <Gold.Chemscore.ZeroCoef>
-5.4800

> <Gold.Chemscore.Hbond>
2.0986

> <Gold.Chemscore.Metal>
0.0000

> <Gold.Chemscore.Lipo>
72.8916

> <Gold.Chemscore.Internal_Hbond>
0.0000

> <Gold.Chemscore.DEClash>
0.0000

> <Gold.Chemscore.DEInternal>
2.0317

> <Gold.Chemscore.Rot>
1.6985

> <Gold.Chemscore.Internal.Correction>
   9.000000E+99

> <Gold.Chemscore.Hbonds>
donor molecule, donor type, donor heavy atom, donor atom, acceptor molecule, acceptor atom, score
      P1  H  6896  6909       L1     8  0.89
      P1  H  6931  6943       L1     9  0.06
      P1  H  6934  6947       L1     9  0.76

> <Gold.Chemscore.Hbond.Weighted>
-7.0095

> <Gold.Chemscore.Metal.Weighted>
-0.0000

> <Gold.Chemscore.Lipo.Weighted>
-8.5283

> <Gold.Chemscore.Internal_Hbond.Weighted>
0.0000

> <Gold.Chemscore.DEClash.Weighted>
0.0000

> <Gold.Chemscore.DEInternal.Weighted>
2.0317

> <Gold.Chemscore.Rot.Weighted>
4.3482

> <Gold.Chemscore.Internal.Correction.Weighted>
   9.000000E+99

> <Gold.Protein.RotatedTorsions>
[ 6907 6896 6895 6894 ] final   56.71 input  -60.11 | X-H torsion
[ 7974 7965 7964 7962 ] final  -49.16 input  175.53 | X-H torsion
[ 8008 7997 7996 7995 ] final -115.23 input   59.86 | X-H torsion
[ 10167 10162 10161 10158 ] final  -40.04 input  -65.29 | X-H torsion
[ 10718 10713 10712 10709 ] final   77.23 input   66.30 | X-H torsion
[ 10763 10752 10751 10750 ] final -128.85 input  -60.55 | X-H torsion
[ 11005 11000 10999 10996 ] final  -12.26 input  -57.11 | X-H torsion

> <Gold.Protein.ActiveResidues>
 VAL166  LYS551  ARG553  GLY616  TRP617  ASP618  TYR619  PRO620  LYS621  CYS622 
 ASP623  PHE694  ASN695  SER759  ASP760  ASP761  ALA762  ILE779  LEU786  VAL792 
 PHE793  MET794  SER795  GLU796  ALA797  LYS798  CYS799  TRP800  GLU811  SER814 

> <Gold.Protein.RotatedAtoms>
  152.3662  134.6800  160.0190 H   0  0  0  0  0  0  0  0  0  0  0  0  # atno 6907 bound_to 6896
  151.7108  133.3307  159.3298 H   0  0  0  0  0  0  0  0  0  0  0  0  # atno 6908 bound_to 6896
  150.7640  134.6468  159.6311 H   0  0  0  0  0  0  0  0  0  0  0  0  # atno 6909 bound_to 6896
  145.9435  140.7640  142.9540 H   0  0  0  0  0  0  0  0  0  0  0  0  # atno 7974 bound_to 7965
  155.0488  140.0393  157.2536 H   0  0  0  0  0  0  0  0  0  0  0  0  # atno 8008 bound_to 7997
  154.7154  140.2701  155.6566 H   0  0  0  0  0  0  0  0  0  0  0  0  # atno 8009 bound_to 7997
  156.2802  140.2713  156.1809 H   0  0  0  0  0  0  0  0  0  0  0  0  # atno 8010 bound_to 7997
  140.7046  143.3178  151.2867 H   0  0  0  0  0  0  0  0  0  0  0  0  # atno 10167 bound_to 10162
  157.6703  130.9812  150.1612 H   0  0  0  0  0  0  0  0  0  0  0  0  # atno 10718 bound_to 10713
  154.8757  135.3915  154.3824 H   0  0  0  0  0  0  0  0  0  0  0  0  # atno 10763 bound_to 10752
  153.4570  135.7029  153.6079 H   0  0  0  0  0  0  0  0  0  0  0  0  # atno 10764 bound_to 10752
  153.4594  135.3815  155.2298 H   0  0  0  0  0  0  0  0  0  0  0  0  # atno 10765 bound_to 10752
  140.7638  133.8493  155.9148 H   0  0  0  0  0  0  0  0  0  0  0  0  # atno 11005 bound_to 11000
  144.6783  140.2318  143.7354 LP  0  0  0  0  0  0  0  0  0  0  0  0  # atno 17320 bound_to 7965
  145.8268  139.2068  143.1906 LP  0  0  0  0  0  0  0  0  0  0  0  0  # atno 17321 bound_to 7965
  139.6622  144.0169  152.2699 LP  0  0  0  0  0  0  0  0  0  0  0  0  # atno 17342 bound_to 10162
  139.9740  144.6474  150.7962 LP  0  0  0  0  0  0  0  0  0  0  0  0  # atno 17343 bound_to 10162
  156.2388  130.3689  149.8361 LP  0  0  0  0  0  0  0  0  0  0  0  0  # atno 17370 bound_to 10713
  156.6167  130.8609  151.3466 LP  0  0  0  0  0  0  0  0  0  0  0  0  # atno 17371 bound_to 10713
  140.9638  134.1621  157.4633 LP  0  0  0  0  0  0  0  0  0  0  0  0  # atno 17394 bound_to 11000
  139.8766  134.9954  156.5743 LP  0  0  0  0  0  0  0  0  0  0  0  0  # atno 17395 bound_to 11000

$$$$
