AV-unprocessed.smi:1592|AV-procd|sdf|6404|dock4
  -GOLD-   22720 7 43D 1   1.00000     0.00000
 Structure written by MMmdl.
 27 28  0  0  0  0  0  0  0  0  3 V2000
  151.3351  140.4333  155.3463 O   0  0  0  0  0  0  0  0  0  0  0  0
  150.2517  141.0066  155.4747 C   0  0  0  0  0  0  0  0  0  0  0  0
  150.0106  141.9990  156.3512 N   0  0  0  0  0  0  0  0  0  0  0  0
  150.9031  142.6055  157.2785 C   0  0  0  0  0  0  0  0  0  0  0  0
  151.0322  143.9523  157.3815 N   0  3  0  0  0  0  0  0  0  0  0  0
  151.8706  144.5587  158.2493 C   0  0  0  0  0  0  0  0  0  0  0  0
  152.6693  143.7819  159.1099 C   0  0  0  0  0  0  0  0  0  0  0  0
  152.5751  142.3775  159.0455 C   0  0  0  0  0  0  0  0  0  0  0  0
  151.6866  141.7830  158.1242 C   0  0  0  0  0  0  0  0  0  0  0  0
  151.5957  140.4204  158.0632 O   0  5  0  0  0  0  0  0  0  0  0  0
  149.0594  140.5834  154.6097 C   0  0  1  0  0  0  0  0  0  0  0  0
  147.7992  140.2127  155.4151 C   0  0  0  0  0  0  0  0  0  0  0  0
  146.8146  141.3155  155.0764 C   0  0  0  0  0  0  0  0  0  0  0  0
  147.2723  141.7306  153.6857 C   0  0  0  0  0  0  0  0  0  0  0  0
  148.6860  141.6932  153.7955 O   0  0  0  0  0  0  0  0  0  0  0  0
  149.0734  142.3762  156.3567 H   0  0  0  0  0  0  0  0  0  0  0  0
  151.8766  145.6387  158.2276 H   0  0  0  0  0  0  0  0  0  0  0  0
  153.3443  144.2539  159.8085 H   0  0  0  0  0  0  0  0  0  0  0  0
  153.1794  141.7634  159.6973 H   0  0  0  0  0  0  0  0  0  0  0  0
  150.4642  144.5373  156.7677 H   0  0  0  0  0  0  0  0  0  0  0  0
  149.3373  139.7491  153.9628 H   0  0  0  0  0  0  0  0  0  0  0  0
  147.4145  139.2514  155.0720 H   0  0  0  0  0  0  0  0  0  0  0  0
  147.9629  140.1307  156.4906 H   0  0  0  0  0  0  0  0  0  0  0  0
  145.7754  140.9870  155.1051 H   0  0  0  0  0  0  0  0  0  0  0  0
  146.9318  142.1484  155.7708 H   0  0  0  0  0  0  0  0  0  0  0  0
  146.9429  141.0118  152.9340 H   0  0  0  0  0  0  0  0  0  0  0  0
  146.9161  142.7207  153.4003 H   0  0  0  0  0  0  0  0  0  0  0  0
  1  2  2  0  0  0  0
  2  3  1  0  0  0  0
  2 11  1  0  0  0  0
  3 16  1  0  0  0  0
  3  4  1  0  0  0  0
  4  9  2  0  0  0  0
  4  5  1  0  0  0  0
  5 20  1  0  0  0  0
  5  6  2  0  0  0  0
  6 17  1  0  0  0  0
  6  7  1  0  0  0  0
  7 18  1  0  0  0  0
  7  8  2  0  0  0  0
  8  9  1  0  0  0  0
  8 19  1  0  0  0  0
  9 10  1  0  0  0  0
 11 15  1  0  0  0  0
 11 12  1  0  0  0  0
 11 21  1  0  0  0  0
 12 13  1  0  0  0  0
 12 22  1  0  0  0  0
 12 23  1  0  0  0  0
 13 14  1  0  0  0  0
 13 24  1  0  0  0  0
 13 25  1  0  0  0  0
 14 15  1  0  0  0  0
 14 26  1  0  0  0  0
 14 27  1  0  0  0  0
M  CHG  1   5   1
M  CHG  1  10  -1
M  END
> <s_m_source_file>
AV-unprocessed.smi

> <i_m_source_file_index>
1592

> <i_lp_mmshare_version>
43012

> <i_f3d_flags>
0

> <s_epik_input>
TzFbQ0gyXVtDSDJdW0NIMl1bQ0BIXTFDKD1PKVtOSF1jMm5bY0hdW2NIXVtjSF1jMltPSF0=

> <s_epik_cmdline>
J2VwaWtfcHl0aG9uJywgJy1waCcsICc3LjAnLCAnLXRuJywgJzgnLCAnLW1hJywgJzIwMCcsICctbWV0YWxfYmluZGluZycsICctaW1hZScsICc8aW5maWxlLm1hZT4nLCAnLW9tYWUnLCAnPG91dGZpbGUubWFlPic=

> <r_lp_tautomer_probability>
0.56342

> <r_epik_Ionization_Penalty>
0.215537

> <r_epik_Ionization_Penalty_Charging>
0.025819

> <r_epik_Ionization_Penalty_Neutral>
0.189718

> <r_epik_State_Penalty>
0.544343

> <r_epik_Charging_Adjusted_Penalty>
0.570162

> <i_epik_Tot_Q>
0

> <i_epik_Tot_abs_Q>
2

> <r_epik_Metal_State_Penalty>
2.6192

> <b_epik_Metal_Only>
0

> <s_lp_Force_Field>
OPLS_2005

> <r_lp_Energy>
19.357

> <b_lp_Chiralities_Consistent>
1

> <s_lp_Variant>
AV-unprocessed.smi:1592-4

> <Gold.Version>
5.8.1

> <Gold.Id.Protein>
6NUR|6NUR_protein|mol2

> <Gold.PLP.Fitness>
42.8851

> <Gold.PLP.PLP>
-32.8458

> <Gold.PLP.part.hbond>
-4.0000

> <Gold.PLP.part.metal>
0.0000

> <Gold.PLP.part.buried>
-5.1677

> <Gold.PLP.part.nonpolar>
-24.0886

> <Gold.PLP.part.repulsive>
0.3048

> <Gold.PLP.ligand.clash>
0.0000

> <Gold.PLP.ligand.torsion>
0.4722

> <Gold.PLP.Chemscore.Hbond>
3.5040

> <Gold.PLP.Chemscore.CHOScore>
0.0000

> <Gold.PLP.Chemscore.Metal>
0.0000

> <Gold.Chemscore.Hbonds>
donor molecule, donor type, donor heavy atom, donor atom, acceptor molecule, acceptor atom, score
      L1  H     5    20       P1  8028  2.00
      P1  H  7989  7998       L1     1  0.84
      P1  H  8011  8017       L1    15  0.61

> <Gold.PLP.Chemscore.Internal.Correction>
0.4717

> <Gold.Rescore>
     Score         DG    S(hbond)    S(metal)    S(lipo)     H(rot)  DE(clash)    DE(int)     intcor
     14.04     -16.77       1.78        0.00      67.66       1.00       0.14       2.58       ----

> <Gold.Chemscore.Fitness>
14.0443

> <Gold.Chemscore.DG>
-16.7672

> <Gold.Chemscore.ZeroCoef>
-5.4800

> <Gold.Chemscore.Hbond>
1.7756

> <Gold.Chemscore.Metal>
0.0000

> <Gold.Chemscore.Lipo>
67.6628

> <Gold.Chemscore.Internal_Hbond>
0.0000

> <Gold.Chemscore.DEClash>
0.1399

> <Gold.Chemscore.DEInternal>
2.5830

> <Gold.Chemscore.Rot>
1.0000

> <Gold.Chemscore.Internal.Correction>
   9.000000E+99

> <Gold.Chemscore.Hbonds>
donor molecule, donor type, donor heavy atom, donor atom, acceptor molecule, acceptor atom, score
      L1  H     3    16       P1  8028  0.01
      L1  H     5    20       P1  8028  0.87
      P1  H  7989  7998       L1     1  0.16
      P1  H  8011  8017       L1    15  0.57

> <Gold.Chemscore.Hbond.Weighted>
-5.9307

> <Gold.Chemscore.Metal.Weighted>
-0.0000

> <Gold.Chemscore.Lipo.Weighted>
-7.9165

> <Gold.Chemscore.Internal_Hbond.Weighted>
0.0000

> <Gold.Chemscore.DEClash.Weighted>
0.1399

> <Gold.Chemscore.DEInternal.Weighted>
2.5830

> <Gold.Chemscore.Rot.Weighted>
2.5600

> <Gold.Chemscore.Internal.Correction.Weighted>
   9.000000E+99

> <Gold.Protein.RotatedTorsions>
[ 6907 6896 6895 6894 ] final -149.23 input  -60.11 | X-H torsion
[ 7974 7965 7964 7962 ] final   42.69 input  175.53 | X-H torsion
[ 8008 7997 7996 7995 ] final   -0.97 input   59.86 | X-H torsion
[ 10167 10162 10161 10158 ] final   73.46 input  -65.29 | X-H torsion
[ 10718 10713 10712 10709 ] final   91.96 input   66.30 | X-H torsion
[ 10763 10752 10751 10750 ] final   99.56 input  -60.55 | X-H torsion
[ 11005 11000 10999 10996 ] final   34.64 input  -57.11 | X-H torsion

> <Gold.Protein.ActiveResidues>
 VAL166  LYS551  ARG553  GLY616  TRP617  ASP618  TYR619  PRO620  LYS621  CYS622 
 ASP623  PHE694  ASN695  SER759  ASP760  ASP761  ALA762  ILE779  LEU786  VAL792 
 PHE793  MET794  SER795  GLU796  ALA797  LYS798  CYS799  TRP800  GLU811  SER814 

> <Gold.Protein.RotatedAtoms>
  151.1811  133.4724  159.2593 H   0  0  0  0  0  0  0  0  0  0  0  0  # atno 6907 bound_to 6896
  151.1258  135.0104  159.8570 H   0  0  0  0  0  0  0  0  0  0  0  0  # atno 6908 bound_to 6896
  152.5458  134.1718  159.8653 H   0  0  0  0  0  0  0  0  0  0  0  0  # atno 6909 bound_to 6896
  146.0719  139.5271  142.9592 H   0  0  0  0  0  0  0  0  0  0  0  0  # atno 7974 bound_to 7965
  154.6521  140.2571  155.7202 H   0  0  0  0  0  0  0  0  0  0  0  0  # atno 8008 bound_to 7997
  156.2580  140.2866  156.0880 H   0  0  0  0  0  0  0  0  0  0  0  0  # atno 8009 bound_to 7997
  155.1435  140.0381  157.2794 H   0  0  0  0  0  0  0  0  0  0  0  0  # atno 8010 bound_to 7997
  140.0243  144.5516  150.7557 H   0  0  0  0  0  0  0  0  0  0  0  0  # atno 10167 bound_to 10162
  157.6959  131.0426  150.3809 H   0  0  0  0  0  0  0  0  0  0  0  0  # atno 10718 bound_to 10713
  153.3030  135.4109  155.1269 H   0  0  0  0  0  0  0  0  0  0  0  0  # atno 10763 bound_to 10752
  154.8554  135.3546  154.5826 H   0  0  0  0  0  0  0  0  0  0  0  0  # atno 10764 bound_to 10752
  153.6252  135.7063  153.5354 H   0  0  0  0  0  0  0  0  0  0  0  0  # atno 10765 bound_to 10752
  140.2508  134.3306  155.7891 H   0  0  0  0  0  0  0  0  0  0  0  0  # atno 11005 bound_to 11000
  145.6376  141.0291  143.1829 LP  0  0  0  0  0  0  0  0  0  0  0  0  # atno 17320 bound_to 7965
  144.7237  139.7946  143.7373 LP  0  0  0  0  0  0  0  0  0  0  0  0  # atno 17321 bound_to 7965
  140.7329  143.2711  151.3885 LP  0  0  0  0  0  0  0  0  0  0  0  0  # atno 17342 bound_to 10162
  139.6119  144.1081  152.2307 LP  0  0  0  0  0  0  0  0  0  0  0  0  # atno 17343 bound_to 10162
  156.4223  130.3955  149.6816 LP  0  0  0  0  0  0  0  0  0  0  0  0  # atno 17370 bound_to 10713
  156.4063  130.7700  151.2710 LP  0  0  0  0  0  0  0  0  0  0  0  0  # atno 17371 bound_to 10713
  141.2201  133.7352  156.9033 LP  0  0  0  0  0  0  0  0  0  0  0  0  # atno 17394 bound_to 11000
  140.1560  134.9198  157.2654 LP  0  0  0  0  0  0  0  0  0  0  0  0  # atno 17395 bound_to 11000

$$$$
