AV-unprocessed.smi:558|AV-procd|sdf|2922|dock6
  -GOLD-   2262023413D 1   1.00000     0.00000
 Structure written by MMmdl.
 36 37  0  0  0  0  0  0  0  0  1 V2000
  151.7888  144.7531  158.3615 C   0  0  0  0  0  0  0  0  0  0  0  0
  152.3235  143.9690  159.5233 C   0  0  0  0  0  0  0  0  0  0  0  0
  152.1678  144.2338  160.9124 C   0  0  0  0  0  0  0  0  0  0  0  0
  152.8510  143.2233  161.5280 C   0  0  0  0  0  0  0  0  0  0  0  0
  153.0589  142.9518  162.9820 C   0  0  0  0  0  0  0  0  0  0  0  0
  153.3713  142.4217  160.5263 N   0  0  0  0  0  0  0  0  0  0  0  0
  154.1948  141.2247  160.6357 C   0  0  0  0  0  0  0  0  0  0  0  0
  153.6545  140.0842  159.7677 C   0  0  0  0  0  0  0  0  0  0  0  0
  153.8338  138.9151  160.1067 O   0  0  0  0  0  0  0  0  0  0  0  0
  152.9958  140.4378  158.6539 N   0  0  0  0  0  0  0  0  0  0  0  0
  152.3210  139.5224  157.7441 C   0  0  0  0  0  0  0  0  0  0  0  0
  151.8902  140.2615  156.4666 C   0  0  2  0  0  0  0  0  0  0  0  0
  150.6276  141.0902  156.6104 C   0  0  0  0  0  0  0  0  0  0  0  0
  150.2056  141.2754  155.1561 C   0  0  0  0  0  0  0  0  0  0  0  0
  150.6620  140.1153  154.4645 O   0  0  0  0  0  0  0  0  0  0  0  0
  151.5056  139.3396  155.3108 C   0  0  0  0  0  0  0  0  0  0  0  0
  153.0432  142.8824  159.2992 N   0  0  0  0  0  0  0  0  0  0  0  0
  151.0890  145.5203  158.6930 H   0  0  0  0  0  0  0  0  0  0  0  0
  151.2634  144.1071  157.6574 H   0  0  0  0  0  0  0  0  0  0  0  0
  152.5949  145.2506  157.8215 H   0  0  0  0  0  0  0  0  0  0  0  0
  151.6353  145.0454  161.3857 H   0  0  0  0  0  0  0  0  0  0  0  0
  152.5963  143.7273  163.5924 H   0  0  0  0  0  0  0  0  0  0  0  0
  154.1206  142.9244  163.2264 H   0  0  0  0  0  0  0  0  0  0  0  0
  152.6186  141.9957  163.2658 H   0  0  0  0  0  0  0  0  0  0  0  0
  155.2181  141.4563  160.3406 H   0  0  0  0  0  0  0  0  0  0  0  0
  154.2292  140.9142  161.6813 H   0  0  0  0  0  0  0  0  0  0  0  0
  152.9072  141.4231  158.4530 H   0  0  0  0  0  0  0  0  0  0  0  0
  153.0009  138.7065  157.4965 H   0  0  0  0  0  0  0  0  0  0  0  0
  151.4489  139.0763  158.2255 H   0  0  0  0  0  0  0  0  0  0  0  0
  152.6991  140.9148  156.1343 H   0  0  0  0  0  0  0  0  0  0  0  0
  149.8644  140.5304  157.1532 H   0  0  0  0  0  0  0  0  0  0  0  0
  150.7883  142.0364  157.1289 H   0  0  0  0  0  0  0  0  0  0  0  0
  149.1284  141.4055  155.0494 H   0  0  0  0  0  0  0  0  0  0  0  0
  150.6961  142.1495  154.7264 H   0  0  0  0  0  0  0  0  0  0  0  0
  152.3738  138.9623  154.7700 H   0  0  0  0  0  0  0  0  0  0  0  0
  150.9346  138.4831  155.6716 H   0  0  0  0  0  0  0  0  0  0  0  0
  1  2  1  0  0  0  0
  1 18  1  0  0  0  0
  1 19  1  0  0  0  0
  1 20  1  0  0  0  0
  2 17  2  0  0  0  0
  2  3  1  0  0  0  0
  3  4  2  0  0  0  0
  3 21  1  0  0  0  0
  4  5  1  0  0  0  0
  4  6  1  0  0  0  0
  5 22  1  0  0  0  0
  5 23  1  0  0  0  0
  5 24  1  0  0  0  0
  6  7  1  0  0  0  0
  6 17  1  0  0  0  0
  7  8  1  0  0  0  0
  7 25  1  0  0  0  0
  7 26  1  0  0  0  0
  8  9  2  0  0  0  0
  8 10  1  0  0  0  0
 10 11  1  0  0  0  0
 10 27  1  0  0  0  0
 11 12  1  0  0  0  0
 11 28  1  0  0  0  0
 11 29  1  0  0  0  0
 12 16  1  0  0  0  0
 12 13  1  0  0  0  0
 12 30  1  0  0  0  0
 13 14  1  0  0  0  0
 13 31  1  0  0  0  0
 13 32  1  0  0  0  0
 14 15  1  0  0  0  0
 14 33  1  0  0  0  0
 14 34  1  0  0  0  0
 15 16  1  0  0  0  0
 16 35  1  0  0  0  0
 16 36  1  0  0  0  0
M  END
> <s_m_source_file>
AV-unprocessed.smi

> <i_m_source_file_index>
558

> <i_lp_mmshare_version>
43012

> <i_f3d_flags>
0

> <s_epik_input>
W0NIM11jMVtjSF1jKFtDSDNdKW4objEpW0NIMl1DKD1PKVtOSF1bQ0gyXVtDQEBIXTJbQ0gyXVtDSDJdT1tDSDJdMg==

> <s_epik_cmdline>
J2VwaWtfcHl0aG9uJywgJy1waCcsICc3LjAnLCAnLXRuJywgJzgnLCAnLW1hJywgJzIwMCcsICctbWV0YWxfYmluZGluZycsICctaW1hZScsICc8aW5maWxlLm1hZT4nLCAnLW9tYWUnLCAnPG91dGZpbGUubWFlPic=

> <r_lp_tautomer_probability>
1

> <r_epik_Ionization_Penalty>
0.000376629

> <r_epik_Ionization_Penalty_Charging>
0

> <r_epik_Ionization_Penalty_Neutral>
0.000376629

> <r_epik_State_Penalty>
-0

> <r_epik_Charging_Adjusted_Penalty>
0

> <i_epik_Tot_Q>
0

> <i_epik_Tot_abs_Q>
0

> <r_epik_Metal_State_Penalty>
-0

> <b_epik_Metal_Only>
0

> <s_lp_Force_Field>
OPLS_2005

> <r_lp_Energy>
17.1643

> <b_lp_Chiralities_Consistent>
1

> <s_lp_Variant>
AV-unprocessed.smi:558-1

> <Gold.Version>
5.8.1

> <Gold.Id.Protein>
6NUR|6NUR_protein|mol2

> <Gold.PLP.Fitness>
45.5047

> <Gold.PLP.PLP>
-43.8304

> <Gold.PLP.part.hbond>
-1.0000

> <Gold.PLP.part.metal>
0.0000

> <Gold.PLP.part.buried>
-5.7562

> <Gold.PLP.part.nonpolar>
-36.9560

> <Gold.PLP.part.repulsive>
0.1820

> <Gold.PLP.ligand.clash>
0.0000

> <Gold.PLP.ligand.torsion>
0.6680

> <Gold.PLP.Chemscore.Hbond>
1.0000

> <Gold.PLP.Chemscore.CHOScore>
0.0000

> <Gold.PLP.Chemscore.Metal>
0.0000

> <Gold.Chemscore.Hbonds>
donor molecule, donor type, donor heavy atom, donor atom, acceptor molecule, acceptor atom, score
      P1  H  7989  7998       L1    15  0.80

> <Gold.PLP.Chemscore.Internal.Correction>
0.0104

> <Gold.Rescore>
     Score         DG    S(hbond)    S(metal)    S(lipo)     H(rot)  DE(clash)    DE(int)     intcor
     13.10     -15.87       0.60        0.00     105.46       1.54       0.19       2.58       ----

> <Gold.Chemscore.Fitness>
13.1009

> <Gold.Chemscore.DG>
-15.8680

> <Gold.Chemscore.ZeroCoef>
-5.4800

> <Gold.Chemscore.Hbond>
0.5954

> <Gold.Chemscore.Metal>
0.0000

> <Gold.Chemscore.Lipo>
105.4584

> <Gold.Chemscore.Internal_Hbond>
0.0000

> <Gold.Chemscore.DEClash>
0.1870

> <Gold.Chemscore.DEInternal>
2.5801

> <Gold.Chemscore.Rot>
1.5387

> <Gold.Chemscore.Internal.Correction>
   9.000000E+99

> <Gold.Chemscore.Hbonds>
donor molecule, donor type, donor heavy atom, donor atom, acceptor molecule, acceptor atom, score
      P1  H  7989  7998       L1    15  0.06

> <Gold.Chemscore.Hbond.Weighted>
-1.9885

> <Gold.Chemscore.Metal.Weighted>
-0.0000

> <Gold.Chemscore.Lipo.Weighted>
-12.3386

> <Gold.Chemscore.Internal_Hbond.Weighted>
0.0000

> <Gold.Chemscore.DEClash.Weighted>
0.1870

> <Gold.Chemscore.DEInternal.Weighted>
2.5801

> <Gold.Chemscore.Rot.Weighted>
3.9392

> <Gold.Chemscore.Internal.Correction.Weighted>
   9.000000E+99

> <Gold.Protein.RotatedTorsions>
[ 6907 6896 6895 6894 ] final  177.93 input  -60.11 | X-H torsion
[ 7974 7965 7964 7962 ] final   19.98 input  175.53 | X-H torsion
[ 8008 7997 7996 7995 ] final  109.44 input   59.86 | X-H torsion
[ 10167 10162 10161 10158 ] final -104.57 input  -65.29 | X-H torsion
[ 10718 10713 10712 10709 ] final  127.56 input   66.30 | X-H torsion
[ 10763 10752 10751 10750 ] final  -53.66 input  -60.55 | X-H torsion
[ 11005 11000 10999 10996 ] final   73.39 input  -57.11 | X-H torsion

> <Gold.Protein.ActiveResidues>
 VAL166  LYS551  ARG553  GLY616  TRP617  ASP618  TYR619  PRO620  LYS621  CYS622 
 ASP623  PHE694  ASN695  SER759  ASP760  ASP761  ALA762  ILE779  LEU786  VAL792 
 PHE793  MET794  SER795  GLU796  ALA797  LYS798  CYS799  TRP800  GLU811  SER814 

> <Gold.Protein.RotatedAtoms>
  151.6961  133.3311  159.3254 H   0  0  0  0  0  0  0  0  0  0  0  0  # atno 6907 bound_to 6896
  150.7757  134.6656  159.6373 H   0  0  0  0  0  0  0  0  0  0  0  0  # atno 6908 bound_to 6896
  152.3798  134.6611  160.0199 H   0  0  0  0  0  0  0  0  0  0  0  0  # atno 6909 bound_to 6896
  146.2129  139.8235  142.8675 H   0  0  0  0  0  0  0  0  0  0  0  0  # atno 7974 bound_to 7965
  156.1979  140.3057  155.9466 H   0  0  0  0  0  0  0  0  0  0  0  0  # atno 8008 bound_to 7997
  155.3022  140.0447  157.3047 H   0  0  0  0  0  0  0  0  0  0  0  0  # atno 8009 bound_to 7997
  154.5533  140.2298  155.8459 H   0  0  0  0  0  0  0  0  0  0  0  0  # atno 8010 bound_to 7997
  140.2079  143.3769  152.1075 H   0  0  0  0  0  0  0  0  0  0  0  0  # atno 10167 bound_to 10162
  157.5322  131.1098  150.8991 H   0  0  0  0  0  0  0  0  0  0  0  0  # atno 10718 bound_to 10713
  154.1624  135.6472  153.4989 H   0  0  0  0  0  0  0  0  0  0  0  0  # atno 10763 bound_to 10752
  153.0107  135.5364  154.6697 H   0  0  0  0  0  0  0  0  0  0  0  0  # atno 10764 bound_to 10752
  154.6014  135.2944  155.0502 H   0  0  0  0  0  0  0  0  0  0  0  0  # atno 10765 bound_to 10752
  139.9442  134.7343  156.1021 H   0  0  0  0  0  0  0  0  0  0  0  0  # atno 11005 bound_to 11000
  145.3071  141.0210  143.3576 LP  0  0  0  0  0  0  0  0  0  0  0  0  # atno 17320 bound_to 7965
  144.8963  139.4708  143.6654 LP  0  0  0  0  0  0  0  0  0  0  0  0  # atno 17321 bound_to 7965
  139.5191  144.7015  151.5479 LP  0  0  0  0  0  0  0  0  0  0  0  0  # atno 17342 bound_to 10162
  140.6344  143.9012  150.6634 LP  0  0  0  0  0  0  0  0  0  0  0  0  # atno 17343 bound_to 10162
  156.9569  130.5440  149.5284 LP  0  0  0  0  0  0  0  0  0  0  0  0  # atno 17370 bound_to 10713
  156.0431  130.5511  150.8818 LP  0  0  0  0  0  0  0  0  0  0  0  0  # atno 17371 bound_to 10713
  141.1087  133.6651  156.2927 LP  0  0  0  0  0  0  0  0  0  0  0  0  # atno 17394 bound_to 11000
  140.5875  134.5684  157.5492 LP  0  0  0  0  0  0  0  0  0  0  0  0  # atno 17395 bound_to 11000

$$$$
