AV-unprocessed.smi:266|AV-procd|sdf|2032|dock7
  -GOLD-   2262021243D 1   1.00000     0.00000
 Structure written by MMmdl.
 52 55  0  0  0  0  0  0  0  0  1 V2000
  150.1406  141.6846  156.0930 C   0  0  0  0  0  0  0  0  0  0  0  0
  149.8558  140.8632  154.8251 C   0  0  1  0  0  0  0  0  0  0  0  0
  151.0059  140.0818  154.5166 O   0  0  0  0  0  0  0  0  0  0  0  0
  150.5839  138.9107  153.8422 C   0  0  0  0  0  0  0  0  0  0  0  0
  149.3430  138.5192  154.6274 C   0  0  0  0  0  0  0  0  0  0  0  0
  148.6654  139.8655  154.8905 C   0  0  1  0  0  0  0  0  0  0  0  0
  148.0668  139.8181  156.1745 O   0  0  0  0  0  0  0  0  0  0  0  0
  147.5760  140.2344  153.8485 C   0  0  0  0  0  0  0  0  0  0  0  0
  146.7161  139.1279  153.4528 N   0  0  0  0  0  0  0  0  0  0  0  0
  146.6895  138.5065  152.2266 C   0  0  0  0  0  0  0  0  0  0  0  0
  145.8193  137.5424  152.1135 N   0  0  0  0  0  0  0  0  0  0  0  0
  145.1778  137.4973  153.3485 C   0  0  0  0  0  0  0  0  0  0  0  0
  144.1291  136.7026  153.9126 C   0  0  0  0  0  0  0  0  0  0  0  0
  143.4741  135.6934  153.2645 N   0  0  0  0  0  0  0  0  0  0  0  0
  142.2764  135.1024  153.8497 C   0  0  0  0  0  0  0  0  0  0  0  0
  143.8291  135.2981  151.8979 C   0  0  0  0  0  0  0  0  0  0  0  0
  144.7217  134.0418  151.8490 C   0  0  2  0  0  0  0  0  0  0  0  0
  146.1094  134.3394  151.2497 C   0  0  0  0  0  0  0  0  0  0  0  0
  146.8359  133.0116  151.0100 C   0  0  0  0  0  0  0  0  0  0  0  0
  145.5284  131.8032  150.5792 S   0  0  0  0  0  0  0  0  0  0  0  0
  145.5132  131.5913  149.1239 O   0  0  0  0  0  0  0  0  0  0  0  0
  145.6049  130.6670  151.5099 O   0  0  0  0  0  0  0  0  0  0  0  0
  144.1199  132.8800  151.0421 C   0  0  0  0  0  0  0  0  0  0  0  0
  143.7677  136.9965  155.1907 N   0  0  0  0  0  0  0  0  0  0  0  0
  144.3729  137.9702  155.8745 C   0  0  0  0  0  0  0  0  0  0  0  0
  145.3572  138.7754  155.4787 N   0  0  0  0  0  0  0  0  0  0  0  0
  145.7321  138.5009  154.1981 C   0  0  0  0  0  0  0  0  0  0  0  0
  149.2873  142.3103  156.3561 H   0  0  0  0  0  0  0  0  0  0  0  0
  150.9974  142.3421  155.9431 H   0  0  0  0  0  0  0  0  0  0  0  0
  150.3648  141.0407  156.9438 H   0  0  0  0  0  0  0  0  0  0  0  0
  149.7114  141.5550  153.9937 H   0  0  0  0  0  0  0  0  0  0  0  0
  150.3381  139.1444  152.8052 H   0  0  0  0  0  0  0  0  0  0  0  0
  151.3536  138.1390  153.8537 H   0  0  0  0  0  0  0  0  0  0  0  0
  148.7257  137.7896  154.1065 H   0  0  0  0  0  0  0  0  0  0  0  0
  149.6612  138.0609  155.5655 H   0  0  0  0  0  0  0  0  0  0  0  0
  148.1201  140.6777  156.5634 H   0  0  0  0  0  0  0  0  0  0  0  0
  146.9429  141.0325  154.2385 H   0  0  0  0  0  0  0  0  0  0  0  0
  148.0417  140.6332  152.9462 H   0  0  0  0  0  0  0  0  0  0  0  0
  147.3431  138.7893  151.4142 H   0  0  0  0  0  0  0  0  0  0  0  0
  141.5376  135.8712  154.0780 H   0  0  0  0  0  0  0  0  0  0  0  0
  142.5217  134.5602  154.7632 H   0  0  0  0  0  0  0  0  0  0  0  0
  141.8120  134.3940  153.1631 H   0  0  0  0  0  0  0  0  0  0  0  0
  142.9527  135.1716  151.2622 H   0  0  0  0  0  0  0  0  0  0  0  0
  144.3754  136.1319  151.4554 H   0  0  0  0  0  0  0  0  0  0  0  0
  144.8885  133.6864  152.8669 H   0  0  0  0  0  0  0  0  0  0  0  0
  145.9849  134.8514  150.2945 H   0  0  0  0  0  0  0  0  0  0  0  0
  146.6931  135.0003  151.8913 H   0  0  0  0  0  0  0  0  0  0  0  0
  147.5776  133.0677  150.2131 H   0  0  0  0  0  0  0  0  0  0  0  0
  147.3258  132.6680  151.9214 H   0  0  0  0  0  0  0  0  0  0  0  0
  143.3756  132.3113  151.5992 H   0  0  0  0  0  0  0  0  0  0  0  0
  143.6653  133.2393  150.1188 H   0  0  0  0  0  0  0  0  0  0  0  0
  144.0179  138.1253  156.8827 H   0  0  0  0  0  0  0  0  0  0  0  0
  1  2  1  0  0  0  0
  1 28  1  0  0  0  0
  1 29  1  0  0  0  0
  1 30  1  0  0  0  0
  2  6  1  0  0  0  0
  2  3  1  0  0  0  0
  2 31  1  0  0  0  0
  3  4  1  0  0  0  0
  4  5  1  0  0  0  0
  4 32  1  0  0  0  0
  4 33  1  0  0  0  0
  5  6  1  0  0  0  0
  5 34  1  0  0  0  0
  5 35  1  0  0  0  0
  6  7  1  0  0  0  0
  6  8  1  0  0  0  0
  7 36  1  0  0  0  0
  8  9  1  0  0  0  0
  8 37  1  0  0  0  0
  8 38  1  0  0  0  0
  9 27  1  0  0  0  0
  9 10  1  0  0  0  0
 10 11  2  0  0  0  0
 10 39  1  0  0  0  0
 11 12  1  0  0  0  0
 12 27  2  0  0  0  0
 12 13  1  0  0  0  0
 13 14  1  0  0  0  0
 13 24  2  0  0  0  0
 14 15  1  0  0  0  0
 14 16  1  0  0  0  0
 15 40  1  0  0  0  0
 15 41  1  0  0  0  0
 15 42  1  0  0  0  0
 16 17  1  0  0  0  0
 16 43  1  0  0  0  0
 16 44  1  0  0  0  0
 17 23  1  0  0  0  0
 17 18  1  0  0  0  0
 17 45  1  0  0  0  0
 18 19  1  0  0  0  0
 18 46  1  0  0  0  0
 18 47  1  0  0  0  0
 19 20  1  0  0  0  0
 19 48  1  0  0  0  0
 19 49  1  0  0  0  0
 20 21  2  0  0  0  0
 20 22  2  0  0  0  0
 20 23  1  0  0  0  0
 23 50  1  0  0  0  0
 23 51  1  0  0  0  0
 24 25  1  0  0  0  0
 25 26  2  0  0  0  0
 25 52  1  0  0  0  0
 26 27  1  0  0  0  0
M  END
> <s_m_source_file>
AV-unprocessed.smi

> <i_m_source_file_index>
266

> <i_lp_mmshare_version>
43012

> <i_f3d_flags>
0

> <s_epik_input>
W0NIMl0xW0NIMl1PW0NAQEhdKFtDSDNdKVtDQEBdMShbT0hdKVtDSDJdbihbY0hdbjIpYyhjMjMpbltjSF1uYzNOKFtDSDNdKVtDSDJdW0NAQEhdKFtDSDJdNClbQ0gyXVtDSDJdUzQoPU8pPU8=

> <s_epik_cmdline>
J2VwaWtfcHl0aG9uJywgJy1waCcsICc3LjAnLCAnLXRuJywgJzgnLCAnLW1hJywgJzIwMCcsICctbWV0YWxfYmluZGluZycsICctaW1hZScsICc8aW5maWxlLm1hZT4nLCAnLW9tYWUnLCAnPG91dGZpbGUubWFlPic=

> <r_lp_tautomer_probability>
1

> <r_epik_Ionization_Penalty>
0.00155497

> <r_epik_Ionization_Penalty_Charging>
0

> <r_epik_Ionization_Penalty_Neutral>
0.00155497

> <r_epik_State_Penalty>
-0

> <r_epik_Charging_Adjusted_Penalty>
0

> <i_epik_Tot_Q>
0

> <i_epik_Tot_abs_Q>
0

> <r_epik_Metal_State_Penalty>
-0

> <b_epik_Metal_Only>
0

> <s_lp_Force_Field>
OPLS_2005

> <r_lp_Energy>
32.0182

> <b_lp_Chiralities_Consistent>
1

> <s_lp_Variant>
AV-unprocessed.smi:266-2

> <Gold.Version>
5.8.1

> <Gold.Id.Protein>
6NUR|6NUR_protein|mol2

> <Gold.PLP.Fitness>
41.7688

> <Gold.PLP.PLP>
-38.6421

> <Gold.PLP.part.hbond>
-2.2362

> <Gold.PLP.part.metal>
0.0000

> <Gold.PLP.part.buried>
-4.8544

> <Gold.PLP.part.nonpolar>
-33.5609

> <Gold.PLP.part.repulsive>
1.3680

> <Gold.PLP.ligand.clash>
0.0000

> <Gold.PLP.ligand.torsion>
1.4910

> <Gold.PLP.Chemscore.Hbond>
1.0000

> <Gold.PLP.Chemscore.CHOScore>
1.0000

> <Gold.PLP.Chemscore.Metal>
0.0000

> <Gold.Chemscore.Hbonds>
donor molecule, donor type, donor heavy atom, donor atom, acceptor molecule, acceptor atom, score
      P1  H  7989  7998       L1     3  0.75
      L1  C    10    39       P1  7957  0.95

> <Gold.PLP.Chemscore.Internal.Correction>
0.1086

> <Gold.Rescore>
     Score         DG    S(hbond)    S(metal)    S(lipo)     H(rot)  DE(clash)    DE(int)     intcor
      5.35      -8.36       0.04        0.00      77.10       2.45       0.32       2.68       ----

> <Gold.Chemscore.Fitness>
5.3498

> <Gold.Chemscore.DG>
-8.3573

> <Gold.Chemscore.ZeroCoef>
-5.4800

> <Gold.Chemscore.Hbond>
0.0362

> <Gold.Chemscore.Metal>
0.0000

> <Gold.Chemscore.Lipo>
77.1031

> <Gold.Chemscore.Internal_Hbond>
0.0000

> <Gold.Chemscore.DEClash>
0.3227

> <Gold.Chemscore.DEInternal>
2.6848

> <Gold.Chemscore.Rot>
2.4471

> <Gold.Chemscore.Internal.Correction>
   9.000000E+99

> <Gold.Chemscore.Hbonds>
donor molecule, donor type, donor heavy atom, donor atom, acceptor molecule, acceptor atom, score
      P1  H  7989  7998       L1     3  0.12

> <Gold.Chemscore.Hbond.Weighted>
-0.1208

> <Gold.Chemscore.Metal.Weighted>
-0.0000

> <Gold.Chemscore.Lipo.Weighted>
-9.0211

> <Gold.Chemscore.Internal_Hbond.Weighted>
0.0000

> <Gold.Chemscore.DEClash.Weighted>
0.3227

> <Gold.Chemscore.DEInternal.Weighted>
2.6848

> <Gold.Chemscore.Rot.Weighted>
6.2645

> <Gold.Chemscore.Internal.Correction.Weighted>
   9.000000E+99

> <Gold.Protein.RotatedTorsions>
[ 6907 6896 6895 6894 ] final  -27.21 input  -60.11 | X-H torsion
[ 7974 7965 7964 7962 ] final  175.03 input  175.53 | X-H torsion
[ 8008 7997 7996 7995 ] final   68.87 input   59.86 | X-H torsion
[ 10167 10162 10161 10158 ] final  -36.13 input  -65.29 | X-H torsion
[ 10718 10713 10712 10709 ] final -158.36 input   66.30 | X-H torsion
[ 10763 10752 10751 10750 ] final -162.47 input  -60.55 | X-H torsion
[ 11005 11000 10999 10996 ] final -140.85 input  -57.11 | X-H torsion

> <Gold.Protein.ActiveResidues>
 VAL166  LYS551  ARG553  GLY616  TRP617  ASP618  TYR619  PRO620  LYS621  CYS622 
 ASP623  PHE694  ASN695  SER759  ASP760  ASP761  ALA762  ILE779  LEU786  VAL792 
 PHE793  MET794  SER795  GLU796  ALA797  LYS798  CYS799  TRP800  GLU811  SER814 

> <Gold.Protein.RotatedAtoms>
  151.1501  135.0223  159.8664 H   0  0  0  0  0  0  0  0  0  0  0  0  # atno 6907 bound_to 6896
  152.5453  134.1398  159.8484 H   0  0  0  0  0  0  0  0  0  0  0  0  # atno 6908 bound_to 6896
  151.1482  133.4879  159.2628 H   0  0  0  0  0  0  0  0  0  0  0  0  # atno 6909 bound_to 6896
  144.7209  139.9886  143.6439 H   0  0  0  0  0  0  0  0  0  0  0  0  # atno 7974 bound_to 7965
  155.7150  140.3494  155.4990 H   0  0  0  0  0  0  0  0  0  0  0  0  # atno 8008 bound_to 7997
  155.9321  140.1086  157.1145 H   0  0  0  0  0  0  0  0  0  0  0  0  # atno 8009 bound_to 7997
  154.4087  140.1229  156.4803 H   0  0  0  0  0  0  0  0  0  0  0  0  # atno 8010 bound_to 7997
  140.7149  143.3430  151.2317 H   0  0  0  0  0  0  0  0  0  0  0  0  # atno 10167 bound_to 10162
  156.5531  130.8614  151.2786 H   0  0  0  0  0  0  0  0  0  0  0  0  # atno 10718 bound_to 10713
  154.7211  135.3026  154.9046 H   0  0  0  0  0  0  0  0  0  0  0  0  # atno 10763 bound_to 10752
  153.9917  135.6718  153.4758 H   0  0  0  0  0  0  0  0  0  0  0  0  # atno 10764 bound_to 10752
  153.0835  135.4996  154.8467 H   0  0  0  0  0  0  0  0  0  0  0  0  # atno 10765 bound_to 10752
  140.8382  134.2434  157.4823 H   0  0  0  0  0  0  0  0  0  0  0  0  # atno 11005 bound_to 11000
  146.0430  139.3439  143.0686 LP  0  0  0  0  0  0  0  0  0  0  0  0  # atno 17320 bound_to 7965
  145.8311  140.9630  143.0848 LP  0  0  0  0  0  0  0  0  0  0  0  0  # atno 17321 bound_to 7965
  139.6942  143.9641  152.2874 LP  0  0  0  0  0  0  0  0  0  0  0  0  # atno 17342 bound_to 10162
  139.9313  144.6740  150.8360 LP  0  0  0  0  0  0  0  0  0  0  0  0  # atno 17343 bound_to 10162
  157.7384  130.9812  150.2248 LP  0  0  0  0  0  0  0  0  0  0  0  0  # atno 17370 bound_to 10713
  156.2867  130.3740  149.7882 LP  0  0  0  0  0  0  0  0  0  0  0  0  # atno 17371 bound_to 10713
  139.8703  134.9622  156.4421 LP  0  0  0  0  0  0  0  0  0  0  0  0  # atno 17394 bound_to 11000
  140.8924  133.7839  155.9586 LP  0  0  0  0  0  0  0  0  0  0  0  0  # atno 17395 bound_to 11000

$$$$
