AV-unprocessed.smi:3199|AV-procd|sdf|12233|dock6
  -GOLD-   2272018 63D 1   1.00000     0.00000
 Structure written by MMmdl.
 36 37  0  0  0  0  0  0  0  0  2 V2000
  147.1050  139.0948  151.7082 C   0  0  0  0  0  0  0  0  0  0  0  0
  148.0885  139.6092  152.7379 C   0  0  0  0  0  0  0  0  0  0  0  0
  147.9928  140.9043  153.2913 C   0  0  0  0  0  0  0  0  0  0  0  0
  148.9439  141.3169  154.2479 C   0  0  0  0  0  0  0  0  0  0  0  0
  149.9713  140.4268  154.6312 C   0  0  0  0  0  0  0  0  0  0  0  0
  151.0116  140.8352  155.6556 C   0  0  0  0  0  0  0  0  0  0  0  0
  150.5933  142.0906  156.4393 C   0  0  0  0  0  0  0  0  0  0  0  0
  151.4961  142.3541  157.5533 N   0  0  0  0  0  0  0  0  0  0  0  0
  151.2617  143.2299  158.5441 C   0  0  0  0  0  0  0  0  0  0  0  0
  150.2298  143.8983  158.6137 O   0  0  0  0  0  0  0  0  0  0  0  0
  152.3355  143.3587  159.6348 C   0  0  2  0  0  0  0  0  0  0  0  0
  152.7266  142.0274  160.3056 C   0  0  0  0  0  0  0  0  0  0  0  0
  152.5269  142.2848  161.7902 C   0  0  0  0  0  0  0  0  0  0  0  0
  152.5443  143.8045  161.8792 C   0  0  0  0  0  0  0  0  0  0  0  0
  151.8637  144.1862  160.6967 O   0  0  0  0  0  0  0  0  0  0  0  0
  150.0156  139.1436  154.0453 C   0  0  0  0  0  0  0  0  0  0  0  0
  149.0854  138.7858  153.1333 N   0  3  0  0  0  0  0  0  0  0  0  0
  146.5262  139.9126  151.2778 H   0  0  0  0  0  0  0  0  0  0  0  0
  146.4122  138.3893  152.1672 H   0  0  0  0  0  0  0  0  0  0  0  0
  147.6276  138.5865  150.8972 H   0  0  0  0  0  0  0  0  0  0  0  0
  147.2016  141.5748  152.9885 H   0  0  0  0  0  0  0  0  0  0  0  0
  148.8830  142.3051  154.6803 H   0  0  0  0  0  0  0  0  0  0  0  0
  151.1712  139.9978  156.3363 H   0  0  0  0  0  0  0  0  0  0  0  0
  151.9649  141.0078  155.1543 H   0  0  0  0  0  0  0  0  0  0  0  0
  150.5997  142.9601  155.7815 H   0  0  0  0  0  0  0  0  0  0  0  0
  149.5720  141.9894  156.8103 H   0  0  0  0  0  0  0  0  0  0  0  0
  152.3682  141.8447  157.5719 H   0  0  0  0  0  0  0  0  0  0  0  0
  153.2214  143.8264  159.2023 H   0  0  0  0  0  0  0  0  0  0  0  0
  152.1309  141.1743  159.9779 H   0  0  0  0  0  0  0  0  0  0  0  0
  153.7713  141.7977  160.0936 H   0  0  0  0  0  0  0  0  0  0  0  0
  151.5520  141.9088  162.1034 H   0  0  0  0  0  0  0  0  0  0  0  0
  153.2886  141.8135  162.4119 H   0  0  0  0  0  0  0  0  0  0  0  0
  152.0460  144.1820  162.7722 H   0  0  0  0  0  0  0  0  0  0  0  0
  153.5653  144.1890  161.8597 H   0  0  0  0  0  0  0  0  0  0  0  0
  150.7611  138.3969  154.2782 H   0  0  0  0  0  0  0  0  0  0  0  0
  149.1377  137.8525  152.7243 H   0  0  0  0  0  0  0  0  0  0  0  0
  1  2  1  0  0  0  0
  1 18  1  0  0  0  0
  1 19  1  0  0  0  0
  1 20  1  0  0  0  0
  2 17  1  0  0  0  0
  2  3  2  0  0  0  0
  3  4  1  0  0  0  0
  3 21  1  0  0  0  0
  4  5  2  0  0  0  0
  4 22  1  0  0  0  0
  5  6  1  0  0  0  0
  5 16  1  0  0  0  0
  6  7  1  0  0  0  0
  6 23  1  0  0  0  0
  6 24  1  0  0  0  0
  7  8  1  0  0  0  0
  7 25  1  0  0  0  0
  7 26  1  0  0  0  0
  8  9  1  0  0  0  0
  8 27  1  0  0  0  0
  9 10  2  0  0  0  0
  9 11  1  0  0  0  0
 11 15  1  0  0  0  0
 11 12  1  0  0  0  0
 11 28  1  0  0  0  0
 12 13  1  0  0  0  0
 12 29  1  0  0  0  0
 12 30  1  0  0  0  0
 13 14  1  0  0  0  0
 13 31  1  0  0  0  0
 13 32  1  0  0  0  0
 14 15  1  0  0  0  0
 14 33  1  0  0  0  0
 14 34  1  0  0  0  0
 16 17  2  0  0  0  0
 16 35  1  0  0  0  0
 17 36  1  0  0  0  0
M  CHG  1  17   1
M  END
> <s_m_source_file>
AV-unprocessed.smi

> <i_m_source_file_index>
3199

> <i_lp_mmshare_version>
43012

> <i_f3d_flags>
0

> <s_epik_input>
W0NIM11jMVtjSF1bY0hdYyhbY0hdbjEpW0NIMl1bQ0gyXVtOSF1DKD1PKVtDQEBIXTJbQ0gyXVtDSDJdW0NIMl1PMg==

> <s_epik_cmdline>
J2VwaWtfcHl0aG9uJywgJy1waCcsICc3LjAnLCAnLXRuJywgJzgnLCAnLW1hJywgJzIwMCcsICctbWV0YWxfYmluZGluZycsICctaW1hZScsICc8aW5maWxlLm1hZT4nLCAnLW9tYWUnLCAnPG91dGZpbGUubWFlPic=

> <r_epik_Ionization_Penalty>
1.4683

> <r_epik_Ionization_Penalty_Charging>
1.4683

> <r_epik_Ionization_Penalty_Neutral>
5.71603e-08

> <r_epik_State_Penalty>
1.5559

> <r_epik_Charging_Adjusted_Penalty>
3.0242

> <i_epik_Tot_Q>
1

> <i_epik_Tot_abs_Q>
1

> <r_epik_Metal_State_Penalty>
1.60421

> <b_epik_Metal_Only>
0

> <s_lp_Force_Field>
OPLS_2005

> <r_lp_Energy>
23.6243

> <b_lp_Chiralities_Consistent>
1

> <s_lp_Variant>
AV-unprocessed.smi:3199-3

> <Gold.Version>
5.8.1

> <Gold.Id.Protein>
6NUR|6NUR_protein|mol2

> <Gold.PLP.Fitness>
45.4476

> <Gold.PLP.PLP>
-40.1479

> <Gold.PLP.part.hbond>
-2.0000

> <Gold.PLP.part.metal>
0.0000

> <Gold.PLP.part.buried>
0.9558

> <Gold.PLP.part.nonpolar>
-39.0370

> <Gold.PLP.part.repulsive>
0.3980

> <Gold.PLP.ligand.clash>
0.0000

> <Gold.PLP.ligand.torsion>
0.3526

> <Gold.PLP.Chemscore.Hbond>
2.0000

> <Gold.PLP.Chemscore.CHOScore>
0.0000

> <Gold.PLP.Chemscore.Metal>
0.0000

> <Gold.Chemscore.Hbonds>
donor molecule, donor type, donor heavy atom, donor atom, acceptor molecule, acceptor atom, score
      L1  H    17    36       P1  7948  2.00

> <Gold.PLP.Chemscore.Internal.Correction>
0.0049

> <Gold.Rescore>
     Score         DG    S(hbond)    S(metal)    S(lipo)     H(rot)  DE(clash)    DE(int)     intcor
     16.31     -16.79       1.00        0.00     102.39       1.56       0.13       0.35       ----

> <Gold.Chemscore.Fitness>
16.3120

> <Gold.Chemscore.DG>
-16.7919

> <Gold.Chemscore.ZeroCoef>
-5.4800

> <Gold.Chemscore.Hbond>
0.9968

> <Gold.Chemscore.Metal>
0.0000

> <Gold.Chemscore.Lipo>
102.3879

> <Gold.Chemscore.Internal_Hbond>
0.0000

> <Gold.Chemscore.DEClash>
0.1298

> <Gold.Chemscore.DEInternal>
0.3501

> <Gold.Chemscore.Rot>
1.5613

> <Gold.Chemscore.Internal.Correction>
   9.000000E+99

> <Gold.Chemscore.Hbonds>
donor molecule, donor type, donor heavy atom, donor atom, acceptor molecule, acceptor atom, score
      L1  H    17    36       P1  7948  0.98

> <Gold.Chemscore.Hbond.Weighted>
-3.3294

> <Gold.Chemscore.Metal.Weighted>
-0.0000

> <Gold.Chemscore.Lipo.Weighted>
-11.9794

> <Gold.Chemscore.Internal_Hbond.Weighted>
0.0000

> <Gold.Chemscore.DEClash.Weighted>
0.1298

> <Gold.Chemscore.DEInternal.Weighted>
0.3501

> <Gold.Chemscore.Rot.Weighted>
3.9969

> <Gold.Chemscore.Internal.Correction.Weighted>
   9.000000E+99

> <Gold.Protein.RotatedTorsions>
[ 6907 6896 6895 6894 ] final -175.79 input  -60.11 | X-H torsion
[ 7974 7965 7964 7962 ] final  -41.23 input  175.53 | X-H torsion
[ 8008 7997 7996 7995 ] final  -13.51 input   59.86 | X-H torsion
[ 10167 10162 10161 10158 ] final -102.12 input  -65.29 | X-H torsion
[ 10718 10713 10712 10709 ] final   96.78 input   66.30 | X-H torsion
[ 10763 10752 10751 10750 ] final -135.83 input  -60.55 | X-H torsion
[ 11005 11000 10999 10996 ] final -120.14 input  -57.11 | X-H torsion

> <Gold.Protein.ActiveResidues>
 VAL166  LYS551  ARG553  GLY616  TRP617  ASP618  TYR619  PRO620  LYS621  CYS622 
 ASP623  PHE694  ASN695  SER759  ASP760  ASP761  ALA762  ILE779  LEU786  VAL792 
 PHE793  MET794  SER795  GLU796  ALA797  LYS798  CYS799  TRP800  GLU811  SER814 

> <Gold.Protein.RotatedAtoms>
  151.5943  133.3363  159.3033 H   0  0  0  0  0  0  0  0  0  0  0  0  # atno 6907 bound_to 6896
  150.8243  134.7469  159.6810 H   0  0  0  0  0  0  0  0  0  0  0  0  # atno 6908 bound_to 6896
  152.4333  134.5740  159.9981 H   0  0  0  0  0  0  0  0  0  0  0  0  # atno 6909 bound_to 6896
  146.0231  140.6825  142.9169 H   0  0  0  0  0  0  0  0  0  0  0  0  # atno 7974 bound_to 7965
  154.5286  140.2247  155.8845 H   0  0  0  0  0  0  0  0  0  0  0  0  # atno 8008 bound_to 7997
  156.1740  140.3115  155.8989 H   0  0  0  0  0  0  0  0  0  0  0  0  # atno 8009 bound_to 7997
  155.3499  140.0455  157.3036 H   0  0  0  0  0  0  0  0  0  0  0  0  # atno 8010 bound_to 7997
  140.2341  143.3586  152.0861 H   0  0  0  0  0  0  0  0  0  0  0  0  # atno 10167 bound_to 10162
  157.6922  131.0589  150.4544 H   0  0  0  0  0  0  0  0  0  0  0  0  # atno 10718 bound_to 10713
  154.8695  135.3691  154.4963 H   0  0  0  0  0  0  0  0  0  0  0  0  # atno 10763 bound_to 10752
  153.5606  135.7023  153.5554 H   0  0  0  0  0  0  0  0  0  0  0  0  # atno 10764 bound_to 10752
  153.3631  135.4041  155.1697 H   0  0  0  0  0  0  0  0  0  0  0  0  # atno 10765 bound_to 10752
  141.0165  134.0188  157.3343 H   0  0  0  0  0  0  0  0  0  0  0  0  # atno 11005 bound_to 11000
  144.6998  140.3601  143.7165 LP  0  0  0  0  0  0  0  0  0  0  0  0  # atno 17320 bound_to 7965
  145.7162  139.1697  143.2511 LP  0  0  0  0  0  0  0  0  0  0  0  0  # atno 17321 bound_to 7965
  139.5100  144.6876  151.5845 LP  0  0  0  0  0  0  0  0  0  0  0  0  # atno 17342 bound_to 10162
  140.6163  143.9342  150.6491 LP  0  0  0  0  0  0  0  0  0  0  0  0  # atno 17343 bound_to 10162
  156.4893  130.4091  149.6416 LP  0  0  0  0  0  0  0  0  0  0  0  0  # atno 17370 bound_to 10713
  156.3432  130.7393  151.2341 LP  0  0  0  0  0  0  0  0  0  0  0  0  # atno 17371 bound_to 10713
  139.9120  135.0191  156.7729 LP  0  0  0  0  0  0  0  0  0  0  0  0  # atno 17394 bound_to 11000
  140.6646  133.9614  155.7823 LP  0  0  0  0  0  0  0  0  0  0  0  0  # atno 17395 bound_to 11000

$$$$
