AV-unprocessed.smi:3345|AV-procd|sdf|12905|dock9
  -GOLD-   2272019323D 1   1.00000     0.00000
 Structure written by MMmdl.
 41 42  0  0  0  0  0  0  0  0  2 V2000
  146.3807  138.4359  152.7534 C   0  0  0  0  0  0  0  0  0  0  0  0
  147.3346  139.2336  153.6528 C   0  0  2  0  0  0  0  0  0  0  0  0
  147.4309  140.7096  153.2014 C   0  0  0  0  0  0  0  0  0  0  0  0
  146.3748  141.5681  153.7949 N   0  3  0  0  0  0  0  0  0  0  0  0
  146.1879  141.3467  155.2475 C   0  0  0  0  0  0  0  0  0  0  0  0
  145.0202  142.2033  155.7670 C   0  0  0  0  0  0  0  0  0  0  0  0
  145.2664  143.5743  155.4783 O   0  0  0  0  0  0  0  0  0  0  0  0
  145.3755  143.8153  154.0804 C   0  0  0  0  0  0  0  0  0  0  0  0
  146.5568  143.0122  153.5116 C   0  0  0  0  0  0  0  0  0  0  0  0
  148.6475  138.5866  153.6454 N   0  0  0  0  0  0  0  0  0  0  0  0
  149.7056  138.9344  154.3965 C   0  0  0  0  0  0  0  0  0  0  0  0
  149.6914  139.8848  155.1793 O   0  0  0  0  0  0  0  0  0  0  0  0
  150.9722  138.0830  154.2266 C   0  0  1  0  0  0  0  0  0  0  0  0
  152.2503  138.8567  154.6083 C   0  0  0  0  0  0  0  0  0  0  0  0
  150.8379  136.8324  154.9630 N   0  0  0  0  0  0  0  0  0  0  0  0
  149.8568  135.9271  154.9418 C   0  0  0  0  0  0  0  0  0  0  0  0
  150.0354  134.9188  155.7832 N   0  0  0  0  0  0  0  0  0  0  0  0
  151.2244  135.2947  156.3408 C   0  0  0  0  0  0  0  0  0  0  0  0
  151.7420  136.4392  155.8948 N   0  0  0  0  0  0  0  0  0  0  0  0
  145.3832  138.8763  152.7518 H   0  0  0  0  0  0  0  0  0  0  0  0
  146.2835  137.4062  153.0994 H   0  0  0  0  0  0  0  0  0  0  0  0
  146.7336  138.4090  151.7218 H   0  0  0  0  0  0  0  0  0  0  0  0
  146.9218  139.1934  154.6618 H   0  0  0  0  0  0  0  0  0  0  0  0
  148.4096  141.0904  153.4978 H   0  0  0  0  0  0  0  0  0  0  0  0
  147.3944  140.7849  152.1135 H   0  0  0  0  0  0  0  0  0  0  0  0
  145.9806  140.2933  155.4404 H   0  0  0  0  0  0  0  0  0  0  0  0
  147.1071  141.5982  155.7792 H   0  0  0  0  0  0  0  0  0  0  0  0
  144.0766  141.8888  155.3174 H   0  0  0  0  0  0  0  0  0  0  0  0
  144.9155  142.0821  156.8453 H   0  0  0  0  0  0  0  0  0  0  0  0
  144.4445  143.5478  153.5775 H   0  0  0  0  0  0  0  0  0  0  0  0
  145.5322  144.8815  153.9163 H   0  0  0  0  0  0  0  0  0  0  0  0
  147.4914  143.3596  153.9549 H   0  0  0  0  0  0  0  0  0  0  0  0
  146.6297  143.1842  152.4381 H   0  0  0  0  0  0  0  0  0  0  0  0
  148.7532  137.7925  153.0300 H   0  0  0  0  0  0  0  0  0  0  0  0
  151.0591  137.8220  153.1703 H   0  0  0  0  0  0  0  0  0  0  0  0
  152.3555  139.7601  154.0068 H   0  0  0  0  0  0  0  0  0  0  0  0
  153.1382  138.2472  154.4382 H   0  0  0  0  0  0  0  0  0  0  0  0
  152.2532  139.1575  155.6569 H   0  0  0  0  0  0  0  0  0  0  0  0
  148.9918  136.0092  154.2999 H   0  0  0  0  0  0  0  0  0  0  0  0
  151.7197  134.7113  157.1028 H   0  0  0  0  0  0  0  0  0  0  0  0
  145.5078  141.2915  153.3556 H   0  0  0  0  0  0  0  0  0  0  0  0
  1  2  1  0  0  0  0
  1 20  1  0  0  0  0
  1 21  1  0  0  0  0
  1 22  1  0  0  0  0
  2  3  1  0  0  0  0
  2 10  1  0  0  0  0
  2 23  1  0  0  0  0
  3  4  1  0  0  0  0
  3 24  1  0  0  0  0
  3 25  1  0  0  0  0
  4  9  1  0  0  0  0
  4  5  1  0  0  0  0
  4 41  1  0  0  0  0
  5  6  1  0  0  0  0
  5 26  1  0  0  0  0
  5 27  1  0  0  0  0
  6  7  1  0  0  0  0
  6 28  1  0  0  0  0
  6 29  1  0  0  0  0
  7  8  1  0  0  0  0
  8  9  1  0  0  0  0
  8 30  1  0  0  0  0
  8 31  1  0  0  0  0
  9 32  1  0  0  0  0
  9 33  1  0  0  0  0
 10 11  1  0  0  0  0
 10 34  1  0  0  0  0
 11 12  2  0  0  0  0
 11 13  1  0  0  0  0
 13 14  1  0  0  0  0
 13 15  1  0  0  0  0
 13 35  1  0  0  0  0
 14 36  1  0  0  0  0
 14 37  1  0  0  0  0
 14 38  1  0  0  0  0
 15 19  1  0  0  0  0
 15 16  1  0  0  0  0
 16 17  2  0  0  0  0
 16 39  1  0  0  0  0
 17 18  1  0  0  0  0
 18 19  2  0  0  0  0
 18 40  1  0  0  0  0
M  CHG  1   4   1
M  END
> <s_m_source_file>
AV-unprocessed.smi

> <i_m_source_file_index>
3345

> <i_lp_mmshare_version>
43012

> <i_f3d_flags>
0

> <s_epik_input>
W0NIMl0xW0NIMl1PW0NIMl1bQ0gyXU4xW0NIMl1bQ0BASF0oW0NIM10pW05IXUMoPU8pW0NASF0oW0NIM10pbjJbY0hdbltjSF1uMg==

> <s_epik_cmdline>
J2VwaWtfcHl0aG9uJywgJy1waCcsICc3LjAnLCAnLXRuJywgJzgnLCAnLW1hJywgJzIwMCcsICctbWV0YWxfYmluZGluZycsICctaW1hZScsICc8aW5maWxlLm1hZT4nLCAnLW9tYWUnLCAnPG91dGZpbGUubWFlPic=

> <r_lp_tautomer_probability>
1

> <r_epik_Ionization_Penalty>
0.71326

> <r_epik_Ionization_Penalty_Charging>
0.713252

> <r_epik_Ionization_Penalty_Neutral>
8.27671e-06

> <r_epik_State_Penalty>
0.737017

> <r_epik_Charging_Adjusted_Penalty>
1.45027

> <i_epik_Tot_Q>
1

> <i_epik_Tot_abs_Q>
1

> <r_epik_Metal_State_Penalty>
0.73702

> <b_epik_Metal_Only>
0

> <s_lp_Force_Field>
OPLS_2005

> <r_lp_Energy>
28.0971

> <b_lp_Chiralities_Consistent>
1

> <s_lp_Variant>
AV-unprocessed.smi:3345-7

> <Gold.Version>
5.8.1

> <Gold.Id.Protein>
6NUR|6NUR_protein|mol2

> <Gold.PLP.Fitness>
41.8774

> <Gold.PLP.PLP>
-31.3729

> <Gold.PLP.part.hbond>
-3.9685

> <Gold.PLP.part.metal>
0.0000

> <Gold.PLP.part.buried>
-3.0994

> <Gold.PLP.part.nonpolar>
-24.7125

> <Gold.PLP.part.repulsive>
0.3872

> <Gold.PLP.ligand.clash>
0.0000

> <Gold.PLP.ligand.torsion>
1.0629

> <Gold.PLP.Chemscore.Hbond>
3.1481

> <Gold.PLP.Chemscore.CHOScore>
1.0000

> <Gold.PLP.Chemscore.Metal>
0.0000

> <Gold.Chemscore.Hbonds>
donor molecule, donor type, donor heavy atom, donor atom, acceptor molecule, acceptor atom, score
      L1  H     4    41       P1 10175  1.24
      L1  H    10    34       P1  7948  1.00
      P1  H 10752 10763       L1    19  0.28
      L1  C    16    39       P1  7948  0.93

> <Gold.PLP.Chemscore.Internal.Correction>
0.1859

> <Gold.Rescore>
     Score         DG    S(hbond)    S(metal)    S(lipo)     H(rot)  DE(clash)    DE(int)     intcor
      9.72     -10.96       1.75        0.00      54.02       2.61       0.11       1.13       ----

> <Gold.Chemscore.Fitness>
9.7156

> <Gold.Chemscore.DG>
-10.9552

> <Gold.Chemscore.ZeroCoef>
-5.4800

> <Gold.Chemscore.Hbond>
1.7504

> <Gold.Chemscore.Metal>
0.0000

> <Gold.Chemscore.Lipo>
54.0171

> <Gold.Chemscore.Internal_Hbond>
0.0000

> <Gold.Chemscore.DEClash>
0.1063

> <Gold.Chemscore.DEInternal>
1.1334

> <Gold.Chemscore.Rot>
2.6138

> <Gold.Chemscore.Internal.Correction>
   9.000000E+99

> <Gold.Chemscore.Hbonds>
donor molecule, donor type, donor heavy atom, donor atom, acceptor molecule, acceptor atom, score
      L1  H     4    41       P1 10175  0.14
      L1  H    10    34       P1  7948  0.99
      P1  H 10752 10763       L1    19  0.01

> <Gold.Chemscore.Hbond.Weighted>
-5.8464

> <Gold.Chemscore.Metal.Weighted>
-0.0000

> <Gold.Chemscore.Lipo.Weighted>
-6.3200

> <Gold.Chemscore.Internal_Hbond.Weighted>
0.0000

> <Gold.Chemscore.DEClash.Weighted>
0.1063

> <Gold.Chemscore.DEInternal.Weighted>
1.1334

> <Gold.Chemscore.Rot.Weighted>
6.6912

> <Gold.Chemscore.Internal.Correction.Weighted>
   9.000000E+99

> <Gold.Protein.RotatedTorsions>
[ 6907 6896 6895 6894 ] final  -71.05 input  -60.11 | X-H torsion
[ 7974 7965 7964 7962 ] final   27.29 input  175.53 | X-H torsion
[ 8008 7997 7996 7995 ] final  113.11 input   59.86 | X-H torsion
[ 10167 10162 10161 10158 ] final  -10.86 input  -65.29 | X-H torsion
[ 10718 10713 10712 10709 ] final -131.86 input   66.30 | X-H torsion
[ 10763 10752 10751 10750 ] final  112.55 input  -60.55 | X-H torsion
[ 11005 11000 10999 10996 ] final  -73.38 input  -57.11 | X-H torsion

> <Gold.Protein.ActiveResidues>
 VAL166  LYS551  ARG553  GLY616  TRP617  ASP618  TYR619  PRO620  LYS621  CYS622 
 ASP623  PHE694  ASN695  SER759  ASP760  ASP761  ALA762  ILE779  LEU786  VAL792 
 PHE793  MET794  SER795  GLU796  ALA797  LYS798  CYS799  TRP800  GLU811  SER814 

> <Gold.Protein.RotatedAtoms>
  150.7229  134.5364  159.5725 H   0  0  0  0  0  0  0  0  0  0  0  0  # atno 6907 bound_to 6896
  152.2885  134.7746  160.0391 H   0  0  0  0  0  0  0  0  0  0  0  0  # atno 6908 bound_to 6896
  151.8367  133.3381  159.3667 H   0  0  0  0  0  0  0  0  0  0  0  0  # atno 6909 bound_to 6896
  146.1792  139.7212  142.8912 H   0  0  0  0  0  0  0  0  0  0  0  0  # atno 7974 bound_to 7965
  156.2236  140.2986  156.0013 H   0  0  0  0  0  0  0  0  0  0  0  0  # atno 8008 bound_to 7997
  155.2415  140.0422  157.2992 H   0  0  0  0  0  0  0  0  0  0  0  0  # atno 8009 bound_to 7997
  154.5880  140.2393  155.7968 H   0  0  0  0  0  0  0  0  0  0  0  0  # atno 8010 bound_to 7997
  140.7124  143.5702  150.9101 H   0  0  0  0  0  0  0  0  0  0  0  0  # atno 10167 bound_to 10162
  156.2286  130.7024  151.0834 H   0  0  0  0  0  0  0  0  0  0  0  0  # atno 10718 bound_to 10713
  153.4795  135.3682  155.2434 H   0  0  0  0  0  0  0  0  0  0  0  0  # atno 10763 bound_to 10752
  154.8755  135.3951  154.3717 H   0  0  0  0  0  0  0  0  0  0  0  0  # atno 10764 bound_to 10752
  153.4318  135.7082  153.6291 H   0  0  0  0  0  0  0  0  0  0  0  0  # atno 10765 bound_to 10752
  141.1622  133.6876  156.7204 H   0  0  0  0  0  0  0  0  0  0  0  0  # atno 11005 bound_to 11000
  145.4124  141.0398  143.3009 LP  0  0  0  0  0  0  0  0  0  0  0  0  # atno 17320 bound_to 7965
  144.8287  139.5666  143.6954 LP  0  0  0  0  0  0  0  0  0  0  0  0  # atno 17321 bound_to 7965
  139.9428  143.6362  152.3049 LP  0  0  0  0  0  0  0  0  0  0  0  0  # atno 17342 bound_to 10162
  139.6853  144.7652  151.1535 LP  0  0  0  0  0  0  0  0  0  0  0  0  # atno 17343 bound_to 10162
  157.7122  131.0728  150.6458 LP  0  0  0  0  0  0  0  0  0  0  0  0  # atno 17370 bound_to 10713
  156.6524  130.4489  149.5715 LP  0  0  0  0  0  0  0  0  0  0  0  0  # atno 17371 bound_to 10713
  140.2821  134.8309  157.3942 LP  0  0  0  0  0  0  0  0  0  0  0  0  # atno 17394 bound_to 11000
  140.1424  134.4955  155.8021 LP  0  0  0  0  0  0  0  0  0  0  0  0  # atno 17395 bound_to 11000

$$$$
