AV-unprocessed.smi:1762|AV-procd|sdf|7116|dock7
  -GOLD-   22720 8343D 1   1.00000     0.00000
 Structure written by MMmdl.
 53 54  0  0  0  0  0  0  0  0  2 V2000
  152.9729  138.4879  155.3541 C   0  0  0  0  0  0  0  0  0  0  0  0
  151.7008  138.4780  154.4871 C   0  0  1  0  0  0  0  0  0  0  0  0
  150.7209  137.3434  154.8481 C   0  0  0  0  0  0  0  0  0  0  0  0
  150.0134  137.6142  156.1310 N   0  3  2  0  0  0  0  0  0  0  0  0
  149.0819  136.5278  156.5931 C   0  0  2  0  0  0  0  0  0  0  0  0
  148.0237  136.2119  155.5141 C   0  0  0  0  0  0  0  0  0  0  0  0
  147.1637  137.0457  155.2270 O   0  0  0  0  0  0  0  0  0  0  0  0
  148.1005  135.0092  154.9254 N   0  0  0  0  0  0  0  0  0  0  0  0
  147.1919  134.5441  153.8865 C   0  0  0  0  0  0  0  0  0  0  0  0
  147.7384  133.2766  153.2156 C   0  0  0  0  0  0  0  0  0  0  0  0
  146.7840  132.7210  152.1752 C   0  0  0  0  0  0  0  0  0  0  0  0
  146.2365  131.4280  152.3168 C   0  0  0  0  0  0  0  0  0  0  0  0
  145.3491  130.9634  151.3269 C   0  0  0  0  0  0  0  0  0  0  0  0
  145.0448  131.8047  150.2394 C   0  0  0  0  0  0  0  0  0  0  0  0
  145.6438  133.0794  150.1903 C   0  0  0  0  0  0  0  0  0  0  0  0
  146.4957  133.5349  151.1344 N   0  0  0  0  0  0  0  0  0  0  0  0
  148.3944  136.8112  157.9721 C   0  0  0  0  0  0  0  0  0  0  0  0
  149.3954  137.1698  159.0885 C   0  0  0  0  0  0  0  0  0  0  0  0
  147.4521  135.6852  158.4479 C   0  0  0  0  0  0  0  0  0  0  0  0
  149.3546  138.9483  156.0414 C   0  0  0  0  0  0  0  0  0  0  0  0
  150.3780  140.0495  155.7182 C   0  0  2  0  0  0  0  0  0  0  0  0
  149.7128  141.4209  155.5572 C   0  0  0  0  0  0  0  0  0  0  0  0
  151.0325  139.7368  154.4945 O   0  0  0  0  0  0  0  0  0  0  0  0
  153.5403  137.5670  155.2171 H   0  0  0  0  0  0  0  0  0  0  0  0
  152.7501  138.5734  156.4174 H   0  0  0  0  0  0  0  0  0  0  0  0
  153.6240  139.3183  155.0799 H   0  0  0  0  0  0  0  0  0  0  0  0
  152.0255  138.3189  153.4583 H   0  0  0  0  0  0  0  0  0  0  0  0
  149.9822  137.2249  154.0538 H   0  0  0  0  0  0  0  0  0  0  0  0
  151.2959  136.4206  154.8859 H   0  0  0  0  0  0  0  0  0  0  0  0
  149.6977  135.6355  156.7236 H   0  0  0  0  0  0  0  0  0  0  0  0
  148.8323  134.3758  155.2140 H   0  0  0  0  0  0  0  0  0  0  0  0
  146.2146  134.3444  154.3285 H   0  0  0  0  0  0  0  0  0  0  0  0
  147.0557  135.3299  153.1414 H   0  0  0  0  0  0  0  0  0  0  0  0
  148.6958  133.4895  152.7373 H   0  0  0  0  0  0  0  0  0  0  0  0
  147.9346  132.5105  153.9672 H   0  0  0  0  0  0  0  0  0  0  0  0
  146.4871  130.8060  153.1638 H   0  0  0  0  0  0  0  0  0  0  0  0
  144.9090  129.9798  151.4006 H   0  0  0  0  0  0  0  0  0  0  0  0
  144.3679  131.4817  149.4624 H   0  0  0  0  0  0  0  0  0  0  0  0
  145.4320  133.7509  149.3713 H   0  0  0  0  0  0  0  0  0  0  0  0
  147.7948  137.7141  157.8652 H   0  0  0  0  0  0  0  0  0  0  0  0
  150.0074  136.3167  159.3825 H   0  0  0  0  0  0  0  0  0  0  0  0
  148.8731  137.5134  159.9820 H   0  0  0  0  0  0  0  0  0  0  0  0
  150.0651  137.9711  158.7753 H   0  0  0  0  0  0  0  0  0  0  0  0
  148.0022  134.7783  158.6992 H   0  0  0  0  0  0  0  0  0  0  0  0
  146.7124  135.4216  157.6924 H   0  0  0  0  0  0  0  0  0  0  0  0
  146.9062  135.9889  159.3417 H   0  0  0  0  0  0  0  0  0  0  0  0
  148.5789  138.9178  155.2742 H   0  0  0  0  0  0  0  0  0  0  0  0
  148.8589  139.2131  156.9749 H   0  0  0  0  0  0  0  0  0  0  0  0
  151.1082  140.1216  156.5245 H   0  0  0  0  0  0  0  0  0  0  0  0
  149.1999  141.7190  156.4720 H   0  0  0  0  0  0  0  0  0  0  0  0
  148.9799  141.4126  154.7498 H   0  0  0  0  0  0  0  0  0  0  0  0
  150.4526  142.1882  155.3272 H   0  0  0  0  0  0  0  0  0  0  0  0
  150.7274  137.6879  156.8421 H   0  0  0  0  0  0  0  0  0  0  0  0
  1  2  1  0  0  0  0
  1 24  1  0  0  0  0
  1 25  1  0  0  0  0
  1 26  1  0  0  0  0
  2 23  1  0  0  0  0
  2  3  1  0  0  0  0
  2 27  1  0  0  0  0
  3  4  1  0  0  0  0
  3 28  1  0  0  0  0
  3 29  1  0  0  0  0
  4  5  1  0  0  0  0
  4 20  1  0  0  0  0
  4 53  1  0  0  0  0
  5  6  1  0  0  0  0
  5 17  1  0  0  0  0
  5 30  1  0  0  0  0
  6  7  2  0  0  0  0
  6  8  1  0  0  0  0
  8  9  1  0  0  0  0
  8 31  1  0  0  0  0
  9 10  1  0  0  0  0
  9 32  1  0  0  0  0
  9 33  1  0  0  0  0
 10 11  1  0  0  0  0
 10 34  1  0  0  0  0
 10 35  1  0  0  0  0
 11 16  1  0  0  0  0
 11 12  2  0  0  0  0
 12 13  1  0  0  0  0
 12 36  1  0  0  0  0
 13 14  2  0  0  0  0
 13 37  1  0  0  0  0
 14 15  1  0  0  0  0
 14 38  1  0  0  0  0
 15 16  2  0  0  0  0
 15 39  1  0  0  0  0
 17 18  1  0  0  0  0
 17 19  1  0  0  0  0
 17 40  1  0  0  0  0
 18 41  1  0  0  0  0
 18 42  1  0  0  0  0
 18 43  1  0  0  0  0
 19 44  1  0  0  0  0
 19 45  1  0  0  0  0
 19 46  1  0  0  0  0
 20 21  1  0  0  0  0
 20 47  1  0  0  0  0
 20 48  1  0  0  0  0
 21 22  1  0  0  0  0
 21 23  1  0  0  0  0
 21 49  1  0  0  0  0
 22 50  1  0  0  0  0
 22 51  1  0  0  0  0
 22 52  1  0  0  0  0
M  CHG  1   4   1
M  END
> <s_m_source_file>
AV-unprocessed.smi

> <i_m_source_file_index>
1762

> <i_lp_mmshare_version>
43012

> <i_f3d_flags>
0

> <s_epik_input>
W0NIM11bQ0BASF0xW0NIMl1OKFtDSDJdW0NASF0oTzEpW0NIM10pW0NAQEhdKFtDSF0oW0NIM10pW0NIM10pQyg9TylbTkhdW0NIMl1bQ0gyXWMyW2NIXVtjSF1bY0hdW2NIXW4y

> <s_epik_cmdline>
J2VwaWtfcHl0aG9uJywgJy1waCcsICc3LjAnLCAnLXRuJywgJzgnLCAnLW1hJywgJzIwMCcsICctbWV0YWxfYmluZGluZycsICctaW1hZScsICc8aW5maWxlLm1hZT4nLCAnLW9tYWUnLCAnPG91dGZpbGUubWFlPic=

> <r_epik_Ionization_Penalty>
2.27005

> <r_epik_Ionization_Penalty_Charging>
2.24983

> <r_epik_Ionization_Penalty_Neutral>
0.0202209

> <r_epik_State_Penalty>
2.40228

> <r_epik_Charging_Adjusted_Penalty>
4.65211

> <i_epik_Tot_Q>
1

> <i_epik_Tot_abs_Q>
1

> <r_epik_Metal_State_Penalty>
2.40762

> <b_epik_Metal_Only>
0

> <s_lp_Force_Field>
OPLS_2005

> <r_lp_Energy>
24.3613

> <b_lp_Chiralities_Consistent>
1

> <s_lp_Variant>
AV-unprocessed.smi:1762-18

> <Gold.Version>
5.8.1

> <Gold.Id.Protein>
6NUR|6NUR_protein|mol2

> <Gold.PLP.Fitness>
39.5639

> <Gold.PLP.PLP>
-33.6697

> <Gold.PLP.part.hbond>
-1.0000

> <Gold.PLP.part.metal>
0.0000

> <Gold.PLP.part.buried>
-3.9231

> <Gold.PLP.part.nonpolar>
-28.2372

> <Gold.PLP.part.repulsive>
0.3903

> <Gold.PLP.ligand.clash>
0.0000

> <Gold.PLP.ligand.torsion>
0.1868

> <Gold.PLP.Chemscore.Hbond>
1.0000

> <Gold.PLP.Chemscore.CHOScore>
1.0000

> <Gold.PLP.Chemscore.Metal>
0.0000

> <Gold.Chemscore.Hbonds>
donor molecule, donor type, donor heavy atom, donor atom, acceptor molecule, acceptor atom, score
      P1  H  7989  7998       L1    23  1.00
      L1  C    15    39       P1  7921  1.00

> <Gold.PLP.Chemscore.Internal.Correction>
0.2678

> <Gold.Rescore>
     Score         DG    S(hbond)    S(metal)    S(lipo)     H(rot)  DE(clash)    DE(int)     intcor
     15.60     -15.97       0.90        0.00     100.41       1.66       0.01       0.35       ----

> <Gold.Chemscore.Fitness>
15.5998

> <Gold.Chemscore.DG>
-15.9686

> <Gold.Chemscore.ZeroCoef>
-5.4800

> <Gold.Chemscore.Hbond>
0.8980

> <Gold.Chemscore.Metal>
0.0000

> <Gold.Chemscore.Lipo>
100.4086

> <Gold.Chemscore.Internal_Hbond>
0.0000

> <Gold.Chemscore.DEClash>
0.0149

> <Gold.Chemscore.DEInternal>
0.3539

> <Gold.Chemscore.Rot>
1.6635

> <Gold.Chemscore.Internal.Correction>
   9.000000E+99

> <Gold.Chemscore.Hbonds>
donor molecule, donor type, donor heavy atom, donor atom, acceptor molecule, acceptor atom, score
      P1  H  7989  7998       L1    23  0.91

> <Gold.Chemscore.Hbond.Weighted>
-2.9995

> <Gold.Chemscore.Metal.Weighted>
-0.0000

> <Gold.Chemscore.Lipo.Weighted>
-11.7478

> <Gold.Chemscore.Internal_Hbond.Weighted>
0.0000

> <Gold.Chemscore.DEClash.Weighted>
0.0149

> <Gold.Chemscore.DEInternal.Weighted>
0.3539

> <Gold.Chemscore.Rot.Weighted>
4.2586

> <Gold.Chemscore.Internal.Correction.Weighted>
   9.000000E+99

> <Gold.Protein.RotatedTorsions>
[ 6907 6896 6895 6894 ] final  162.06 input  -60.11 | X-H torsion
[ 7974 7965 7964 7962 ] final   53.93 input  175.53 | X-H torsion
[ 8008 7997 7996 7995 ] final  114.43 input   59.86 | X-H torsion
[ 10167 10162 10161 10158 ] final  -44.74 input  -65.29 | X-H torsion
[ 10718 10713 10712 10709 ] final  109.19 input   66.30 | X-H torsion
[ 10763 10752 10751 10750 ] final  138.89 input  -60.55 | X-H torsion
[ 11005 11000 10999 10996 ] final  160.79 input  -57.11 | X-H torsion

> <Gold.Protein.ActiveResidues>
 VAL166  LYS551  ARG553  GLY616  TRP617  ASP618  TYR619  PRO620  LYS621  CYS622 
 ASP623  PHE694  ASN695  SER759  ASP760  ASP761  ALA762  ILE779  LEU786  VAL792 
 PHE793  MET794  SER795  GLU796  ALA797  LYS798  CYS799  TRP800  GLU811  SER814 

> <Gold.Protein.RotatedAtoms>
  151.9461  133.3652  159.3982 H   0  0  0  0  0  0  0  0  0  0  0  0  # atno 6907 bound_to 6896
  150.6989  134.4388  159.5292 H   0  0  0  0  0  0  0  0  0  0  0  0  # atno 6908 bound_to 6896
  152.2054  134.8550  160.0554 H   0  0  0  0  0  0  0  0  0  0  0  0  # atno 6909 bound_to 6896
  145.9661  139.4105  143.0218 H   0  0  0  0  0  0  0  0  0  0  0  0  # atno 7974 bound_to 7965
  156.2320  140.2959  156.0214 H   0  0  0  0  0  0  0  0  0  0  0  0  # atno 8008 bound_to 7997
  155.2198  140.0415  157.2963 H   0  0  0  0  0  0  0  0  0  0  0  0  # atno 8009 bound_to 7997
  154.6013  140.2427  155.7797 H   0  0  0  0  0  0  0  0  0  0  0  0  # atno 8010 bound_to 7997
  140.6885  143.2915  151.3538 H   0  0  0  0  0  0  0  0  0  0  0  0  # atno 10167 bound_to 10162
  157.6552  131.0909  150.6417 H   0  0  0  0  0  0  0  0  0  0  0  0  # atno 10718 bound_to 10713
  153.8971  135.3026  155.3448 H   0  0  0  0  0  0  0  0  0  0  0  0  # atno 10763 bound_to 10752
  154.7688  135.4896  153.9611 H   0  0  0  0  0  0  0  0  0  0  0  0  # atno 10764 bound_to 10752
  153.1265  135.6794  153.9347 H   0  0  0  0  0  0  0  0  0  0  0  0  # atno 10765 bound_to 10752
  140.2094  134.8279  157.3104 H   0  0  0  0  0  0  0  0  0  0  0  0  # atno 11005 bound_to 11000
  145.7972  140.9788  143.1018 LP  0  0  0  0  0  0  0  0  0  0  0  0  # atno 17320 bound_to 7965
  144.6826  139.9756  143.7483 LP  0  0  0  0  0  0  0  0  0  0  0  0  # atno 17321 bound_to 7965
  139.6266  144.0803  152.2439 LP  0  0  0  0  0  0  0  0  0  0  0  0  # atno 17342 bound_to 10162
  140.0264  144.6114  150.7524 LP  0  0  0  0  0  0  0  0  0  0  0  0  # atno 17343 bound_to 10162
  156.6724  130.4543  149.5653 LP  0  0  0  0  0  0  0  0  0  0  0  0  # atno 17370 bound_to 10713
  156.1988  130.6606  151.1144 LP  0  0  0  0  0  0  0  0  0  0  0  0  # atno 17371 bound_to 10713
  140.1967  134.4305  155.7685 LP  0  0  0  0  0  0  0  0  0  0  0  0  # atno 17394 bound_to 11000
  141.2226  133.7052  156.8117 LP  0  0  0  0  0  0  0  0  0  0  0  0  # atno 17395 bound_to 11000

$$$$
