AV-unprocessed.smi:2125|AV-procd|sdf|8674|dock8
  -GOLD-   2272011423D 1   1.00000     0.00000
 Structure written by MMmdl.
 32 33  0  0  0  0  0  0  0  0  1 V2000
  153.7699  141.1995  160.4540 C   0  0  0  0  0  0  0  0  0  0  0  0
  152.7747  141.9039  159.6730 N   0  0  0  0  0  0  0  0  0  0  0  0
  152.1968  143.0877  160.1928 C   0  0  0  0  0  0  0  0  0  0  0  0
  152.5053  143.5527  161.2903 O   0  0  0  0  0  0  0  0  0  0  0  0
  151.2074  143.7083  159.3198 C   0  0  0  0  0  0  0  0  0  0  0  0
  150.8994  143.1648  158.1218 C   0  0  0  0  0  0  0  0  0  0  0  0
  151.4803  142.0067  157.6381 N   0  0  0  0  0  0  0  0  0  0  0  0
  151.0747  141.4810  156.3281 C   0  0  0  0  0  0  0  0  0  0  0  0
  149.6213  140.9880  156.2993 C   0  0  0  0  0  0  0  0  0  0  0  0
  149.3642  139.7871  156.2032 O   0  0  0  0  0  0  0  0  0  0  0  0
  148.6776  141.9352  156.4059 N   0  0  0  0  0  0  0  0  0  0  0  0
  147.2423  141.6857  156.4220 C   0  0  0  0  0  0  0  0  0  0  0  0
  146.6317  141.3807  155.0670 C   0  0  0  0  0  0  0  0  0  0  0  0
  147.4553  141.4568  153.8015 C   0  0  0  0  0  0  0  0  0  0  0  0
  146.3904  142.4913  154.0715 C   0  0  0  0  0  0  0  0  0  0  0  0
  152.4466  141.3398  158.4209 C   0  0  0  0  0  0  0  0  0  0  0  0
  152.9783  140.3023  158.0171 O   0  0  0  0  0  0  0  0  0  0  0  0
  153.9659  141.7048  161.3989 H   0  0  0  0  0  0  0  0  0  0  0  0
  154.6836  141.1647  159.8577 H   0  0  0  0  0  0  0  0  0  0  0  0
  153.3805  140.1978  160.6447 H   0  0  0  0  0  0  0  0  0  0  0  0
  150.7138  144.6150  159.6372 H   0  0  0  0  0  0  0  0  0  0  0  0
  150.1571  143.6611  157.5137 H   0  0  0  0  0  0  0  0  0  0  0  0
  151.1854  142.2556  155.5682 H   0  0  0  0  0  0  0  0  0  0  0  0
  151.7440  140.6739  156.0242 H   0  0  0  0  0  0  0  0  0  0  0  0
  148.9754  142.8969  156.4834 H   0  0  0  0  0  0  0  0  0  0  0  0
  147.0654  140.8294  157.0731 H   0  0  0  0  0  0  0  0  0  0  0  0
  146.7214  142.5287  156.8799 H   0  0  0  0  0  0  0  0  0  0  0  0
  145.8635  140.6102  155.0972 H   0  0  0  0  0  0  0  0  0  0  0  0
  148.4938  141.7704  153.8893 H   0  0  0  0  0  0  0  0  0  0  0  0
  147.2562  140.7168  153.0291 H   0  0  0  0  0  0  0  0  0  0  0  0
  145.4806  142.4434  153.4764 H   0  0  0  0  0  0  0  0  0  0  0  0
  146.7214  143.4932  154.3382 H   0  0  0  0  0  0  0  0  0  0  0  0
  1  2  1  0  0  0  0
  1 18  1  0  0  0  0
  1 19  1  0  0  0  0
  1 20  1  0  0  0  0
  2 16  1  0  0  0  0
  2  3  1  0  0  0  0
  3  4  2  0  0  0  0
  3  5  1  0  0  0  0
  5  6  2  0  0  0  0
  5 21  1  0  0  0  0
  6  7  1  0  0  0  0
  6 22  1  0  0  0  0
  7  8  1  0  0  0  0
  7 16  1  0  0  0  0
  8  9  1  0  0  0  0
  8 23  1  0  0  0  0
  8 24  1  0  0  0  0
  9 10  2  0  0  0  0
  9 11  1  0  0  0  0
 11 12  1  0  0  0  0
 11 25  1  0  0  0  0
 12 13  1  0  0  0  0
 12 26  1  0  0  0  0
 12 27  1  0  0  0  0
 13 15  1  0  0  0  0
 13 14  1  0  0  0  0
 13 28  1  0  0  0  0
 14 15  1  0  0  0  0
 14 29  1  0  0  0  0
 14 30  1  0  0  0  0
 15 31  1  0  0  0  0
 15 32  1  0  0  0  0
 16 17  2  0  0  0  0
M  END
> <s_m_source_file>
AV-unprocessed.smi

> <i_m_source_file_index>
2125

> <i_lp_mmshare_version>
43012

> <i_f3d_flags>
0

> <s_epik_input>
W0NIM11uMWMoPU8pW2NIXVtjSF1uKGMxPU8pW0NIMl1DKD1PKVtOSF1bQ0gyXVtDSF0yW0NIMl1bQ0gyXTI=

> <s_epik_cmdline>
J2VwaWtfcHl0aG9uJywgJy1waCcsICc3LjAnLCAnLXRuJywgJzgnLCAnLW1hJywgJzIwMCcsICctbWV0YWxfYmluZGluZycsICctaW1hZScsICc8aW5maWxlLm1hZT4nLCAnLW9tYWUnLCAnPG91dGZpbGUubWFlPic=

> <r_lp_tautomer_probability>
1

> <r_epik_Ionization_Penalty>
3.09839e-08

> <r_epik_Ionization_Penalty_Charging>
1.16822e-08

> <r_epik_Ionization_Penalty_Neutral>
1.93017e-08

> <r_epik_State_Penalty>
-0

> <r_epik_Charging_Adjusted_Penalty>
1.16822e-08

> <i_epik_Tot_Q>
0

> <i_epik_Tot_abs_Q>
0

> <r_epik_Metal_State_Penalty>
-0

> <b_epik_Metal_Only>
0

> <s_lp_Force_Field>
OPLS_2005

> <r_lp_Energy>
19.7621

> <b_lp_Chiralities_Consistent>
1

> <s_lp_Variant>
AV-unprocessed.smi:2125-1

> <Gold.Version>
5.8.1

> <Gold.Id.Protein>
6NUR|6NUR_protein|mol2

> <Gold.PLP.Fitness>
43.3947

> <Gold.PLP.PLP>
-35.6678

> <Gold.PLP.part.hbond>
-2.0000

> <Gold.PLP.part.metal>
0.0000

> <Gold.PLP.part.buried>
-5.1104

> <Gold.PLP.part.nonpolar>
-28.1605

> <Gold.PLP.part.repulsive>
0.1223

> <Gold.PLP.ligand.clash>
0.0000

> <Gold.PLP.ligand.torsion>
0.6671

> <Gold.PLP.Chemscore.Hbond>
1.8400

> <Gold.PLP.Chemscore.CHOScore>
1.0000

> <Gold.PLP.Chemscore.Metal>
0.0000

> <Gold.Chemscore.Hbonds>
donor molecule, donor type, donor heavy atom, donor atom, acceptor molecule, acceptor atom, score
      L1  H    11    25       P1  8028  0.91
      P1  H  7997  8010       L1    17  0.91
      L1  C     6    22       P1  8028  1.00

> <Gold.PLP.Chemscore.Internal.Correction>
0.5411

> <Gold.Rescore>
     Score         DG    S(hbond)    S(metal)    S(lipo)     H(rot)  DE(clash)    DE(int)     intcor
     13.36     -14.23       1.91        0.00      59.85       1.81       0.14       0.73       ----

> <Gold.Chemscore.Fitness>
13.3640

> <Gold.Chemscore.DG>
-14.2309

> <Gold.Chemscore.ZeroCoef>
-5.4800

> <Gold.Chemscore.Hbond>
1.9118

> <Gold.Chemscore.Metal>
0.0000

> <Gold.Chemscore.Lipo>
59.8480

> <Gold.Chemscore.Internal_Hbond>
0.0000

> <Gold.Chemscore.DEClash>
0.1407

> <Gold.Chemscore.DEInternal>
0.7262

> <Gold.Chemscore.Rot>
1.8112

> <Gold.Chemscore.Internal.Correction>
   9.000000E+99

> <Gold.Chemscore.Hbonds>
donor molecule, donor type, donor heavy atom, donor atom, acceptor molecule, acceptor atom, score
      L1  H    11    25       P1  8028  0.84
      P1  H  7997  8010       L1    17  0.88

> <Gold.Chemscore.Hbond.Weighted>
-6.3854

> <Gold.Chemscore.Metal.Weighted>
-0.0000

> <Gold.Chemscore.Lipo.Weighted>
-7.0022

> <Gold.Chemscore.Internal_Hbond.Weighted>
0.0000

> <Gold.Chemscore.DEClash.Weighted>
0.1407

> <Gold.Chemscore.DEInternal.Weighted>
0.7262

> <Gold.Chemscore.Rot.Weighted>
4.6367

> <Gold.Chemscore.Internal.Correction.Weighted>
   9.000000E+99

> <Gold.Protein.RotatedTorsions>
[ 6907 6896 6895 6894 ] final   25.49 input  -60.11 | X-H torsion
[ 7974 7965 7964 7962 ] final  141.58 input  175.53 | X-H torsion
[ 8008 7997 7996 7995 ] final   46.68 input   59.86 | X-H torsion
[ 10167 10162 10161 10158 ] final   46.84 input  -65.29 | X-H torsion
[ 10718 10713 10712 10709 ] final  -33.63 input   66.30 | X-H torsion
[ 10763 10752 10751 10750 ] final  155.89 input  -60.55 | X-H torsion
[ 11005 11000 10999 10996 ] final -133.67 input  -57.11 | X-H torsion

> <Gold.Protein.ActiveResidues>
 VAL166  LYS551  ARG553  GLY616  TRP617  ASP618  TYR619  PRO620  LYS621  CYS622 
 ASP623  PHE694  ASN695  SER759  ASP760  ASP761  ALA762  ILE779  LEU786  VAL792 
 PHE793  MET794  SER795  GLU796  ALA797  LYS798  CYS799  TRP800  GLU811  SER814 

> <Gold.Protein.RotatedAtoms>
  151.9732  135.0066  160.0553 H   0  0  0  0  0  0  0  0  0  0  0  0  # atno 6907 bound_to 6896
  152.1764  133.4673  159.4943 H   0  0  0  0  0  0  0  0  0  0  0  0  # atno 6908 bound_to 6896
  150.6910  134.1806  159.4290 H   0  0  0  0  0  0  0  0  0  0  0  0  # atno 6909 bound_to 6896
  144.9084  139.5326  143.5720 H   0  0  0  0  0  0  0  0  0  0  0  0  # atno 7974 bound_to 7965
  155.3565  140.3416  155.4240 H   0  0  0  0  0  0  0  0  0  0  0  0  # atno 8008 bound_to 7997
  156.1736  140.1640  156.8437 H   0  0  0  0  0  0  0  0  0  0  0  0  # atno 8009 bound_to 7997
  154.5259  140.0756  156.8240 H   0  0  0  0  0  0  0  0  0  0  0  0  # atno 8010 bound_to 7997
  140.3098  144.2834  150.6202 H   0  0  0  0  0  0  0  0  0  0  0  0  # atno 10167 bound_to 10162
  156.3603  130.4322  149.7630 H   0  0  0  0  0  0  0  0  0  0  0  0  # atno 10718 bound_to 10713
  154.1757  135.2802  155.3067 H   0  0  0  0  0  0  0  0  0  0  0  0  # atno 10763 bound_to 10752
  154.6041  135.5520  153.7408 H   0  0  0  0  0  0  0  0  0  0  0  0  # atno 10764 bound_to 10752
  153.0152  135.6399  154.1896 H   0  0  0  0  0  0  0  0  0  0  0  0  # atno 10765 bound_to 10752
  140.9059  134.1630  157.4425 H   0  0  0  0  0  0  0  0  0  0  0  0  # atno 11005 bound_to 11000
  146.3146  139.7870  142.8994 LP  0  0  0  0  0  0  0  0  0  0  0  0  # atno 17320 bound_to 7965
  145.3496  141.0305  143.3346 LP  0  0  0  0  0  0  0  0  0  0  0  0  # atno 17321 bound_to 7965
  140.5578  143.2196  151.7817 LP  0  0  0  0  0  0  0  0  0  0  0  0  # atno 17342 bound_to 10162
  139.4896  144.4390  151.9786 LP  0  0  0  0  0  0  0  0  0  0  0  0  # atno 17343 bound_to 10162
  156.4796  130.8035  151.3050 LP  0  0  0  0  0  0  0  0  0  0  0  0  # atno 17370 bound_to 10713
  157.7472  131.0010  150.2946 LP  0  0  0  0  0  0  0  0  0  0  0  0  # atno 17371 bound_to 10713
  139.8749  134.9917  156.5560 LP  0  0  0  0  0  0  0  0  0  0  0  0  # atno 17394 bound_to 11000
  140.8171  133.8383  155.8862 LP  0  0  0  0  0  0  0  0  0  0  0  0  # atno 17395 bound_to 11000

$$$$
