AV-unprocessed.smi:415|AV-procd|sdf|2522|dock2
  -GOLD-   2262022473D 1   1.00000     0.00000
 Structure written by MMmdl.
 53 54  0  0  0  0  0  0  0  0  1 V2000
  145.9445  132.1844  151.4384 C   0  0  0  0  0  0  0  0  0  0  0  0
  146.5480  131.0086  151.9478 O   0  0  0  0  0  0  0  0  0  0  0  0
  147.2662  131.2393  153.1485 C   0  0  0  0  0  0  0  0  0  0  0  0
  148.3766  132.2754  152.9079 C   0  0  0  0  0  0  0  0  0  0  0  0
  149.3347  132.3450  153.9956 N   0  0  0  0  0  0  0  0  0  0  0  0
  150.1206  131.2634  154.3837 C   0  0  0  0  0  0  0  0  0  0  0  0
  150.0156  130.0635  153.7030 N   0  0  0  0  0  0  0  0  0  0  0  0
  150.9961  131.3596  155.4085 C   0  0  0  0  0  0  0  0  0  0  0  0
  151.1667  132.5945  156.1604 C   0  0  0  0  0  0  0  0  0  0  0  0
  151.9300  132.6913  157.1216 O   0  0  0  0  0  0  0  0  0  0  0  0
  150.3806  133.6887  155.7314 N   0  0  0  0  0  0  0  0  0  0  0  0
  150.4711  134.9642  156.4830 C   0  0  0  0  0  0  0  0  0  0  0  0
  151.0847  136.1281  155.6832 C   0  0  0  0  0  0  0  0  0  0  0  0
  152.2733  136.0884  155.3692 O   0  0  0  0  0  0  0  0  0  0  0  0
  150.2770  137.1517  155.3642 N   0  0  0  0  0  0  0  0  0  0  0  0
  150.6310  138.3544  154.6175 C   0  0  2  0  0  0  0  0  0  0  0  0
  152.0629  138.8042  154.9673 C   0  0  0  0  0  0  0  0  0  0  0  0
  152.1635  139.2983  156.4180 C   0  0  0  0  0  0  0  0  0  0  0  0
  151.1523  140.4212  156.6866 C   0  0  0  0  0  0  0  0  0  0  0  0
  149.7054  139.9957  156.3600 C   0  0  1  0  0  0  0  0  0  0  0  0
  148.7411  141.1576  156.6574 C   0  0  0  0  0  0  0  0  0  0  0  0
  149.6006  139.4797  154.8960 C   0  0  2  0  0  0  0  0  0  0  0  0
  148.1730  139.0324  154.5185 C   0  0  0  0  0  0  0  0  0  0  0  0
  149.4676  133.5936  154.6556 C   0  0  0  0  0  0  0  0  0  0  0  0
  148.7976  134.5751  154.3231 O   0  0  0  0  0  0  0  0  0  0  0  0
  145.4134  131.9524  150.5152 H   0  0  0  0  0  0  0  0  0  0  0  0
  146.6917  132.9469  151.2146 H   0  0  0  0  0  0  0  0  0  0  0  0
  145.2244  132.5963  152.1465 H   0  0  0  0  0  0  0  0  0  0  0  0
  146.5812  131.6155  153.9098 H   0  0  0  0  0  0  0  0  0  0  0  0
  147.6901  130.3075  153.5264 H   0  0  0  0  0  0  0  0  0  0  0  0
  148.9102  132.1067  151.9712 H   0  0  0  0  0  0  0  0  0  0  0  0
  147.9559  133.2759  152.8101 H   0  0  0  0  0  0  0  0  0  0  0  0
  149.3815  129.9443  152.9259 H   0  0  0  0  0  0  0  0  0  0  0  0
  150.5688  129.2572  153.9559 H   0  0  0  0  0  0  0  0  0  0  0  0
  151.5885  130.5003  155.6885 H   0  0  0  0  0  0  0  0  0  0  0  0
  149.4896  135.2788  156.8409 H   0  0  0  0  0  0  0  0  0  0  0  0
  151.0520  134.8362  157.3976 H   0  0  0  0  0  0  0  0  0  0  0  0
  149.3162  137.0887  155.6682 H   0  0  0  0  0  0  0  0  0  0  0  0
  150.5969  138.1197  153.5520 H   0  0  0  0  0  0  0  0  0  0  0  0
  152.7696  137.9902  154.8006 H   0  0  0  0  0  0  0  0  0  0  0  0
  152.3624  139.6071  154.2928 H   0  0  0  0  0  0  0  0  0  0  0  0
  151.9876  138.4714  157.1072 H   0  0  0  0  0  0  0  0  0  0  0  0
  153.1744  139.6540  156.6183 H   0  0  0  0  0  0  0  0  0  0  0  0
  151.2243  140.7265  157.7311 H   0  0  0  0  0  0  0  0  0  0  0  0
  151.4204  141.2965  156.0928 H   0  0  0  0  0  0  0  0  0  0  0  0
  149.4403  139.1784  157.0328 H   0  0  0  0  0  0  0  0  0  0  0  0
  148.8986  141.9901  155.9709 H   0  0  0  0  0  0  0  0  0  0  0  0
  148.8828  141.5334  157.6712 H   0  0  0  0  0  0  0  0  0  0  0  0
  147.6992  140.8486  156.5790 H   0  0  0  0  0  0  0  0  0  0  0  0
  149.8546  140.3110  154.2363 H   0  0  0  0  0  0  0  0  0  0  0  0
  147.7832  138.2912  155.2174 H   0  0  0  0  0  0  0  0  0  0  0  0
  148.1526  138.5906  153.5221 H   0  0  0  0  0  0  0  0  0  0  0  0
  147.4791  139.8724  154.5048 H   0  0  0  0  0  0  0  0  0  0  0  0
  1  2  1  0  0  0  0
  1 26  1  0  0  0  0
  1 27  1  0  0  0  0
  1 28  1  0  0  0  0
  2  3  1  0  0  0  0
  3  4  1  0  0  0  0
  3 29  1  0  0  0  0
  3 30  1  0  0  0  0
  4  5  1  0  0  0  0
  4 31  1  0  0  0  0
  4 32  1  0  0  0  0
  5 24  1  0  0  0  0
  5  6  1  0  0  0  0
  6  7  1  0  0  0  0
  6  8  2  0  0  0  0
  7 33  1  0  0  0  0
  7 34  1  0  0  0  0
  8  9  1  0  0  0  0
  8 35  1  0  0  0  0
  9 10  2  0  0  0  0
  9 11  1  0  0  0  0
 11 12  1  0  0  0  0
 11 24  1  0  0  0  0
 12 13  1  0  0  0  0
 12 36  1  0  0  0  0
 12 37  1  0  0  0  0
 13 14  2  0  0  0  0
 13 15  1  0  0  0  0
 15 16  1  0  0  0  0
 15 38  1  0  0  0  0
 16 22  1  0  0  0  0
 16 17  1  0  0  0  0
 16 39  1  0  0  0  0
 17 18  1  0  0  0  0
 17 40  1  0  0  0  0
 17 41  1  0  0  0  0
 18 19  1  0  0  0  0
 18 42  1  0  0  0  0
 18 43  1  0  0  0  0
 19 20  1  0  0  0  0
 19 44  1  0  0  0  0
 19 45  1  0  0  0  0
 20 21  1  0  0  0  0
 20 22  1  0  0  0  0
 20 46  1  0  0  0  0
 21 47  1  0  0  0  0
 21 48  1  0  0  0  0
 21 49  1  0  0  0  0
 22 23  1  0  0  0  0
 22 50  1  0  0  0  0
 23 51  1  0  0  0  0
 23 52  1  0  0  0  0
 23 53  1  0  0  0  0
 24 25  2  0  0  0  0
M  END
> <s_m_source_file>
AV-unprocessed.smi

> <i_m_source_file_index>
415

> <i_lp_mmshare_version>
43012

> <i_f3d_flags>
0

> <s_epik_input>
W0NIM11PW0NIMl1bQ0gyXW4xYyhbTkgyXSlbY0hdYyg9TyluKGMxPU8pW0NIMl1DKD1PKVtOSF1bQ0BASF0yW0NIMl1bQ0gyXVtDSDJdW0NAQEhdKFtDSDNdKVtDQEhdMltDSDNd

> <s_epik_cmdline>
J2VwaWtfcHl0aG9uJywgJy1waCcsICc3LjAnLCAnLXRuJywgJzgnLCAnLW1hJywgJzIwMCcsICctbWV0YWxfYmluZGluZycsICctaW1hZScsICc8aW5maWxlLm1hZT4nLCAnLW9tYWUnLCAnPG91dGZpbGUubWFlPic=

> <r_lp_tautomer_probability>
1

> <r_epik_Ionization_Penalty>
8.6647e-06

> <r_epik_Ionization_Penalty_Charging>
1.81162e-08

> <r_epik_Ionization_Penalty_Neutral>
8.64658e-06

> <r_epik_State_Penalty>
-0

> <r_epik_Charging_Adjusted_Penalty>
1.81162e-08

> <i_epik_Tot_Q>
0

> <i_epik_Tot_abs_Q>
0

> <r_epik_Metal_State_Penalty>
-0

> <b_epik_Metal_Only>
0

> <s_lp_Force_Field>
OPLS_2005

> <r_lp_Energy>
19.7433

> <b_lp_Chiralities_Consistent>
1

> <s_lp_Variant>
AV-unprocessed.smi:415-5

> <Gold.Version>
5.8.1

> <Gold.Id.Protein>
6NUR|6NUR_protein|mol2

> <Gold.PLP.Fitness>
44.1423

> <Gold.PLP.PLP>
-39.4967

> <Gold.PLP.part.hbond>
-1.7437

> <Gold.PLP.part.metal>
0.0000

> <Gold.PLP.part.buried>
-4.5531

> <Gold.PLP.part.nonpolar>
-36.2464

> <Gold.PLP.part.repulsive>
2.8024

> <Gold.PLP.ligand.clash>
0.0000

> <Gold.PLP.ligand.torsion>
0.4665

> <Gold.PLP.Chemscore.Hbond>
1.8400

> <Gold.PLP.Chemscore.CHOScore>
0.0000

> <Gold.PLP.Chemscore.Metal>
0.0000

> <Gold.Chemscore.Hbonds>
donor molecule, donor type, donor heavy atom, donor atom, acceptor molecule, acceptor atom, score
      P1  H  6896  6907       L1    10  0.34
      P1  H 10752 10764       L1    14  0.12

> <Gold.PLP.Chemscore.Internal.Correction>
0.0586

> <Gold.Rescore>
     Score         DG    S(hbond)    S(metal)    S(lipo)     H(rot)  DE(clash)    DE(int)     intcor
     11.38     -14.38       1.92        0.00      70.73       2.26       1.52       1.48       ----

> <Gold.Chemscore.Fitness>
11.3790

> <Gold.Chemscore.DG>
-14.3790

> <Gold.Chemscore.ZeroCoef>
-5.4800

> <Gold.Chemscore.Hbond>
1.9223

> <Gold.Chemscore.Metal>
0.0000

> <Gold.Chemscore.Lipo>
70.7317

> <Gold.Chemscore.Internal_Hbond>
0.0000

> <Gold.Chemscore.DEClash>
1.5175

> <Gold.Chemscore.DEInternal>
1.4825

> <Gold.Chemscore.Rot>
2.2645

> <Gold.Chemscore.Internal.Correction>
   9.000000E+99

> <Gold.Chemscore.Hbonds>
donor molecule, donor type, donor heavy atom, donor atom, acceptor molecule, acceptor atom, score
      P1  H  6896  6907       L1    10  0.34
      P1  H 10752 10764       L1    14  0.13

> <Gold.Chemscore.Hbond.Weighted>
-6.4205

> <Gold.Chemscore.Metal.Weighted>
-0.0000

> <Gold.Chemscore.Lipo.Weighted>
-8.2756

> <Gold.Chemscore.Internal_Hbond.Weighted>
0.0000

> <Gold.Chemscore.DEClash.Weighted>
1.5175

> <Gold.Chemscore.DEInternal.Weighted>
1.4825

> <Gold.Chemscore.Rot.Weighted>
5.7972

> <Gold.Chemscore.Internal.Correction.Weighted>
   9.000000E+99

> <Gold.Protein.RotatedTorsions>
[ 6907 6896 6895 6894 ] final -159.05 input  -60.11 | X-H torsion
[ 7974 7965 7964 7962 ] final  166.35 input  175.53 | X-H torsion
[ 8008 7997 7996 7995 ] final   65.22 input   59.86 | X-H torsion
[ 10167 10162 10161 10158 ] final  164.98 input  -65.29 | X-H torsion
[ 10718 10713 10712 10709 ] final -130.01 input   66.30 | X-H torsion
[ 10763 10752 10751 10750 ] final  -67.43 input  -60.55 | X-H torsion
[ 11005 11000 10999 10996 ] final  -48.88 input  -57.11 | X-H torsion

> <Gold.Protein.ActiveResidues>
 VAL166  LYS551  ARG553  GLY616  TRP617  ASP618  TYR619  PRO620  LYS621  CYS622 
 ASP623  PHE694  ASN695  SER759  ASP760  ASP761  ALA762  ILE779  LEU786  VAL792 
 PHE793  MET794  SER795  GLU796  ALA797  LYS798  CYS799  TRP800  GLU811  SER814 

> <Gold.Protein.RotatedAtoms>
  151.3275  133.4014  159.2659 H   0  0  0  0  0  0  0  0  0  0  0  0  # atno 6907 bound_to 6896
  150.9983  134.9302  159.7949 H   0  0  0  0  0  0  0  0  0  0  0  0  # atno 6908 bound_to 6896
  152.5267  134.3240  159.9211 H   0  0  0  0  0  0  0  0  0  0  0  0  # atno 6909 bound_to 6896
  144.7466  139.8603  143.6380 H   0  0  0  0  0  0  0  0  0  0  0  0  # atno 7974 bound_to 7965
  155.6584  140.3497  155.4773 H   0  0  0  0  0  0  0  0  0  0  0  0  # atno 8008 bound_to 7997
  155.9789  140.1170  157.0768 H   0  0  0  0  0  0  0  0  0  0  0  0  # atno 8009 bound_to 7997
  154.4186  140.1142  156.5394 H   0  0  0  0  0  0  0  0  0  0  0  0  # atno 8010 bound_to 7997
  139.4898  144.4180  151.9221 H   0  0  0  0  0  0  0  0  0  0  0  0  # atno 10167 bound_to 10162
  156.2103  130.6914  151.0641 H   0  0  0  0  0  0  0  0  0  0  0  0  # atno 10718 bound_to 10713
  154.3743  135.6088  153.5757 H   0  0  0  0  0  0  0  0  0  0  0  0  # atno 10763 bound_to 10752
  152.9789  135.5845  154.4485 H   0  0  0  0  0  0  0  0  0  0  0  0  # atno 10764 bound_to 10752
  154.4244  135.2846  155.1932 H   0  0  0  0  0  0  0  0  0  0  0  0  # atno 10765 bound_to 10752
  141.0727  133.6674  156.3505 H   0  0  0  0  0  0  0  0  0  0  0  0  # atno 11005 bound_to 11000
  146.1353  139.4397  143.0143 LP  0  0  0  0  0  0  0  0  0  0  0  0  # atno 17320 bound_to 7965
  145.7101  141.0109  143.1458 LP  0  0  0  0  0  0  0  0  0  0  0  0  # atno 17321 bound_to 7965
  140.3623  144.2958  150.5931 LP  0  0  0  0  0  0  0  0  0  0  0  0  # atno 17342 bound_to 10162
  140.5392  143.2227  151.8113 LP  0  0  0  0  0  0  0  0  0  0  0  0  # atno 17343 bound_to 10162
  157.7035  131.0766  150.6745 LP  0  0  0  0  0  0  0  0  0  0  0  0  # atno 17370 bound_to 10713
  156.6804  130.4565  149.5629 LP  0  0  0  0  0  0  0  0  0  0  0  0  # atno 17371 bound_to 10713
  140.5640  134.5906  157.5441 LP  0  0  0  0  0  0  0  0  0  0  0  0  # atno 17394 bound_to 11000
  139.9539  134.7568  156.0385 LP  0  0  0  0  0  0  0  0  0  0  0  0  # atno 17395 bound_to 11000

$$$$
