AV-unprocessed.smi:2784|AV-procd|sdf|10727|dock2
  -GOLD-   2272015163D 1   1.00000     0.00000
 Structure written by MMmdl.
 31 32  0  0  0  0  0  0  0  0  1 V2000
  150.5643  145.3055  159.9831 C   0  0  0  0  0  0  0  0  0  0  0  0
  150.6680  144.3929  158.9021 O   0  0  0  0  0  0  0  0  0  0  0  0
  152.0104  144.0777  158.5420 C   0  0  1  0  0  0  0  0  0  0  0  0
  152.7517  143.5575  159.7783 C   0  0  0  0  0  0  0  0  0  0  0  0
  152.3323  142.0932  159.8756 C   0  0  0  0  0  0  0  0  0  0  0  0
  152.2218  141.6183  158.4237 C   0  0  0  0  0  0  0  0  0  0  0  0
  152.0290  142.8821  157.5623 C   0  0  1  0  0  0  0  0  0  0  0  0
  150.8202  142.7891  156.7461 N   0  0  0  0  0  0  0  0  0  0  0  0
  150.4581  141.7110  156.0362 C   0  0  0  0  0  0  0  0  0  0  0  0
  151.1120  140.6679  156.0046 O   0  0  0  0  0  0  0  0  0  0  0  0
  149.3080  141.9251  155.3759 N   0  0  0  0  0  0  0  0  0  0  0  0
  148.6237  141.0254  154.5205 C   0  0  0  0  0  0  0  0  0  0  0  0
  148.9612  139.7606  154.2631 N   0  0  0  0  0  0  0  0  0  0  0  0
  147.9910  139.3131  153.3782 C   0  0  0  0  0  0  0  0  0  0  0  0
  147.1142  140.3419  153.1486 C   0  0  0  0  0  0  0  0  0  0  0  0
  147.5046  141.4387  153.8692 O   0  0  0  0  0  0  0  0  0  0  0  0
  149.5130  145.4854  160.2076 H   0  0  0  0  0  0  0  0  0  0  0  0
  151.0202  146.2635  159.7309 H   0  0  0  0  0  0  0  0  0  0  0  0
  151.0382  144.9206  160.8861 H   0  0  0  0  0  0  0  0  0  0  0  0
  152.5041  144.9436  158.0970 H   0  0  0  0  0  0  0  0  0  0  0  0
  153.8275  143.6160  159.6080 H   0  0  0  0  0  0  0  0  0  0  0  0
  152.5341  144.1161  160.6884 H   0  0  0  0  0  0  0  0  0  0  0  0
  153.0313  141.4951  160.4604 H   0  0  0  0  0  0  0  0  0  0  0  0
  151.3560  142.0267  160.3576 H   0  0  0  0  0  0  0  0  0  0  0  0
  153.1398  141.1098  158.1261 H   0  0  0  0  0  0  0  0  0  0  0  0
  151.4088  140.8992  158.3121 H   0  0  0  0  0  0  0  0  0  0  0  0
  152.8966  142.9751  156.9063 H   0  0  0  0  0  0  0  0  0  0  0  0
  150.2304  143.6075  156.7108 H   0  0  0  0  0  0  0  0  0  0  0  0
  148.8768  142.8297  155.4945 H   0  0  0  0  0  0  0  0  0  0  0  0
  148.0002  138.3073  152.9850 H   0  0  0  0  0  0  0  0  0  0  0  0
  146.2257  140.4491  152.5442 H   0  0  0  0  0  0  0  0  0  0  0  0
  1  2  1  0  0  0  0
  1 17  1  0  0  0  0
  1 18  1  0  0  0  0
  1 19  1  0  0  0  0
  2  3  1  0  0  0  0
  3  7  1  0  0  0  0
  3  4  1  0  0  0  0
  3 20  1  0  0  0  0
  4  5  1  0  0  0  0
  4 21  1  0  0  0  0
  4 22  1  0  0  0  0
  5  6  1  0  0  0  0
  5 23  1  0  0  0  0
  5 24  1  0  0  0  0
  6  7  1  0  0  0  0
  6 25  1  0  0  0  0
  6 26  1  0  0  0  0
  7  8  1  0  0  0  0
  7 27  1  0  0  0  0
  8  9  1  0  0  0  0
  8 28  1  0  0  0  0
  9 10  2  0  0  0  0
  9 11  1  0  0  0  0
 11 12  1  0  0  0  0
 11 29  1  0  0  0  0
 12 16  1  0  0  0  0
 12 13  2  0  0  0  0
 13 14  1  0  0  0  0
 14 15  2  0  0  0  0
 14 30  1  0  0  0  0
 15 16  1  0  0  0  0
 15 31  1  0  0  0  0
M  END
> <s_m_source_file>
AV-unprocessed.smi

> <i_m_source_file_index>
2784

> <i_lp_mmshare_version>
43012

> <i_f3d_flags>
0

> <s_epik_input>
W0NIM11PW0NAQEhdMVtDSDJdW0NIMl1bQ0gyXVtDQEhdMVtOSF1DKD1PKVtOSF1jMm5bY0hdW2NIXW8y

> <s_epik_cmdline>
J2VwaWtfcHl0aG9uJywgJy1waCcsICc3LjAnLCAnLXRuJywgJzgnLCAnLW1hJywgJzIwMCcsICctbWV0YWxfYmluZGluZycsICctaW1hZScsICc8aW5maWxlLm1hZT4nLCAnLW9tYWUnLCAnPG91dGZpbGUubWFlPic=

> <r_lp_tautomer_probability>
0.785861

> <r_epik_Ionization_Penalty>
4.58897e-05

> <r_epik_Ionization_Penalty_Charging>
0

> <r_epik_Ionization_Penalty_Neutral>
4.58897e-05

> <r_epik_State_Penalty>
0.0380021

> <r_epik_Charging_Adjusted_Penalty>
0.0380021

> <i_epik_Tot_Q>
0

> <i_epik_Tot_abs_Q>
0

> <r_epik_Metal_State_Penalty>
0.0585611

> <b_epik_Metal_Only>
0

> <s_lp_Force_Field>
OPLS_2005

> <r_lp_Energy>
20.0634

> <b_lp_Chiralities_Consistent>
1

> <s_lp_Variant>
AV-unprocessed.smi:2784-2

> <Gold.Version>
5.8.1

> <Gold.Id.Protein>
6NUR|6NUR_protein|mol2

> <Gold.PLP.Fitness>
41.0838

> <Gold.PLP.PLP>
-29.5835

> <Gold.PLP.part.hbond>
-2.0000

> <Gold.PLP.part.metal>
0.0000

> <Gold.PLP.part.buried>
-4.0564

> <Gold.PLP.part.nonpolar>
-24.0669

> <Gold.PLP.part.repulsive>
0.6767

> <Gold.PLP.ligand.clash>
0.0000

> <Gold.PLP.ligand.torsion>
0.2201

> <Gold.PLP.Chemscore.Hbond>
1.9760

> <Gold.PLP.Chemscore.CHOScore>
2.0000

> <Gold.PLP.Chemscore.Metal>
0.0000

> <Gold.Chemscore.Hbonds>
donor molecule, donor type, donor heavy atom, donor atom, acceptor molecule, acceptor atom, score
      L1  H     8    28       P1  8028  0.98
      L1  H    11    29       P1  8028  1.00
      L1  C    14    30       P1  7948  1.00
      L1  C    15    31       P1 10175  0.99

> <Gold.PLP.Chemscore.Internal.Correction>
0.0123

> <Gold.Rescore>
     Score         DG    S(hbond)    S(metal)    S(lipo)     H(rot)  DE(clash)    DE(int)     intcor
     13.38     -17.71       1.91        0.00      79.01       1.32       1.58       2.76       ----

> <Gold.Chemscore.Fitness>
13.3766

> <Gold.Chemscore.DG>
-17.7109

> <Gold.Chemscore.ZeroCoef>
-5.4800

> <Gold.Chemscore.Hbond>
1.9087

> <Gold.Chemscore.Metal>
0.0000

> <Gold.Chemscore.Lipo>
79.0080

> <Gold.Chemscore.Internal_Hbond>
0.0000

> <Gold.Chemscore.DEClash>
1.5752

> <Gold.Chemscore.DEInternal>
2.7591

> <Gold.Chemscore.Rot>
1.3235

> <Gold.Chemscore.Internal.Correction>
   9.000000E+99

> <Gold.Chemscore.Hbonds>
donor molecule, donor type, donor heavy atom, donor atom, acceptor molecule, acceptor atom, score
      L1  H     8    28       P1  8028  0.87
      L1  H    11    29       P1  8028  0.98

> <Gold.Chemscore.Hbond.Weighted>
-6.3752

> <Gold.Chemscore.Metal.Weighted>
-0.0000

> <Gold.Chemscore.Lipo.Weighted>
-9.2439

> <Gold.Chemscore.Internal_Hbond.Weighted>
0.0000

> <Gold.Chemscore.DEClash.Weighted>
1.5752

> <Gold.Chemscore.DEInternal.Weighted>
2.7591

> <Gold.Chemscore.Rot.Weighted>
3.3882

> <Gold.Chemscore.Internal.Correction.Weighted>
   9.000000E+99

> <Gold.Protein.RotatedTorsions>
[ 6907 6896 6895 6894 ] final  118.18 input  -60.11 | X-H torsion
[ 7974 7965 7964 7962 ] final  165.50 input  175.53 | X-H torsion
[ 8008 7997 7996 7995 ] final  -80.27 input   59.86 | X-H torsion
[ 10167 10162 10161 10158 ] final   10.86 input  -65.29 | X-H torsion
[ 10718 10713 10712 10709 ] final -177.01 input   66.30 | X-H torsion
[ 10763 10752 10751 10750 ] final -105.23 input  -60.55 | X-H torsion
[ 11005 11000 10999 10996 ] final -132.53 input  -57.11 | X-H torsion

> <Gold.Protein.ActiveResidues>
 VAL166  LYS551  ARG553  GLY616  TRP617  ASP618  TYR619  PRO620  LYS621  CYS622 
 ASP623  PHE694  ASN695  SER759  ASP760  ASP761  ALA762  ILE779  LEU786  VAL792 
 PHE793  MET794  SER795  GLU796  ALA797  LYS798  CYS799  TRP800  GLU811  SER814 

> <Gold.Protein.RotatedAtoms>
  152.4561  133.7725  159.6806 H   0  0  0  0  0  0  0  0  0  0  0  0  # atno 6907 bound_to 6896
  150.8487  133.7810  159.3039 H   0  0  0  0  0  0  0  0  0  0  0  0  # atno 6908 bound_to 6896
  151.5412  135.1071  159.9979 H   0  0  0  0  0  0  0  0  0  0  0  0  # atno 6909 bound_to 6896
  144.7500  139.8479  143.6369 H   0  0  0  0  0  0  0  0  0  0  0  0  # atno 7974 bound_to 7965
  154.5867  140.0665  156.9181 H   0  0  0  0  0  0  0  0  0  0  0  0  # atno 8008 bound_to 7997
  155.2367  140.3341  155.4278 H   0  0  0  0  0  0  0  0  0  0  0  0  # atno 8009 bound_to 7997
  156.2227  140.1806  156.7422 H   0  0  0  0  0  0  0  0  0  0  0  0  # atno 8010 bound_to 7997
  140.6168  143.8291  150.7127 H   0  0  0  0  0  0  0  0  0  0  0  0  # atno 10167 bound_to 10162
  156.8232  130.9627  151.3110 H   0  0  0  0  0  0  0  0  0  0  0  0  # atno 10718 bound_to 10713
  154.7933  135.4756  154.0102 H   0  0  0  0  0  0  0  0  0  0  0  0  # atno 10763 bound_to 10752
  153.1664  135.6817  153.8677 H   0  0  0  0  0  0  0  0  0  0  0  0  # atno 10764 bound_to 10752
  153.8273  135.3196  155.3393 H   0  0  0  0  0  0  0  0  0  0  0  0  # atno 10765 bound_to 10752
  140.9162  134.1504  157.4351 H   0  0  0  0  0  0  0  0  0  0  0  0  # atno 11005 bound_to 11000
  146.1436  139.4500  143.0093 LP  0  0  0  0  0  0  0  0  0  0  0  0  # atno 17320 bound_to 7965
  145.6979  141.0145  143.1520 LP  0  0  0  0  0  0  0  0  0  0  0  0  # atno 17321 bound_to 7965
  140.1872  143.4066  152.1890 LP  0  0  0  0  0  0  0  0  0  0  0  0  # atno 17342 bound_to 10162
  139.5405  144.7252  151.4750 LP  0  0  0  0  0  0  0  0  0  0  0  0  # atno 17343 bound_to 10162
  157.6446  130.8833  149.9513 LP  0  0  0  0  0  0  0  0  0  0  0  0  # atno 17370 bound_to 10713
  156.0977  130.3658  150.0276 LP  0  0  0  0  0  0  0  0  0  0  0  0  # atno 17371 bound_to 10713
  139.8766  134.9954  156.5743 LP  0  0  0  0  0  0  0  0  0  0  0  0  # atno 17394 bound_to 11000
  140.8047  133.8477  155.8757 LP  0  0  0  0  0  0  0  0  0  0  0  0  # atno 17395 bound_to 11000

$$$$
