AV-unprocessed.smi:250|AV-procd|sdf|1933|dock1
  -GOLD-   2262021 53D 1   1.00000     0.00000
 Structure written by MMmdl.
 56 60  0  0  0  0  0  0  0  0  1 V2000
  152.1655  144.5341  159.9850 C   0  0  0  0  0  0  0  0  0  0  0  0
  151.5313  143.9354  158.8174 N   0  0  0  0  0  0  0  0  0  0  0  0
  151.4200  144.5088  157.6076 C   0  0  0  0  0  0  0  0  0  0  0  0
  151.8580  145.6102  157.2808 O   0  0  0  0  0  0  0  0  0  0  0  0
  150.7356  143.6818  156.8119 N   0  0  0  0  0  0  0  0  0  0  0  0
  150.2507  142.5138  157.5158 C   0  0  1  0  0  0  0  0  0  0  0  0
  150.2718  141.2039  156.6912 C   0  0  0  0  0  0  0  0  0  0  0  0
  151.3887  140.3121  157.0045 N   0  0  0  0  0  0  0  0  0  0  0  0
  151.4987  139.2201  156.2049 C   0  0  0  0  0  0  0  0  0  0  0  0
  151.6027  139.4367  154.8678 N   0  0  0  0  0  0  0  0  0  0  0  0
  151.7191  138.4106  154.0209 C   0  0  0  0  0  0  0  0  0  0  0  0
  151.7511  137.1055  154.2923 N   0  0  0  0  0  0  0  0  0  0  0  0
  151.6410  136.8762  155.6320 C   0  0  0  0  0  0  0  0  0  0  0  0
  151.5084  137.8637  156.6507 C   0  0  0  0  0  0  0  0  0  0  0  0
  151.3982  137.2396  157.8891 N   0  0  0  0  0  0  0  0  0  0  0  0
  151.4720  135.9658  157.6191 C   0  0  0  0  0  0  0  0  0  0  0  0
  151.6361  135.6571  156.2885 N   0  0  0  0  0  0  0  0  0  0  0  0
  151.7378  134.3255  155.7073 C   0  0  0  0  0  0  0  0  0  0  0  0
  150.4676  133.4289  155.8412 C   0  0  0  0  0  0  0  0  0  0  0  0
  150.2609  133.1342  157.3543 C   0  0  0  0  0  0  0  0  0  0  0  0
  151.4714  132.8189  158.0136 O   0  0  0  0  0  0  0  0  0  0  0  0
  149.2179  134.1581  155.2813 C   0  0  0  0  0  0  0  0  0  0  0  0
  147.9746  133.2508  155.2081 C   0  0  0  0  0  0  0  0  0  0  0  0
  148.2605  132.0918  154.4348 O   0  0  0  0  0  0  0  0  0  0  0  0
  149.3077  131.3004  154.9828 C   0  0  0  0  0  0  0  0  0  0  0  0
  150.6118  132.1174  155.0253 C   0  0  0  0  0  0  0  0  0  0  0  0
  151.7818  140.1962  158.4028 C   0  0  0  0  0  0  0  0  0  0  0  0
  152.1929  141.5718  158.9213 C   0  0  0  0  0  0  0  0  0  0  0  0
  151.0225  142.5701  158.8445 C   0  0  1  0  0  0  0  0  0  0  0  0
  149.2030  142.7404  157.7220 H   0  0  0  0  0  0  0  0  0  0  0  0
  150.3410  142.4210  159.6835 H   0  0  0  0  0  0  0  0  0  0  0  0
  151.7535  145.5247  160.1817 H   0  0  0  0  0  0  0  0  0  0  0  0
  153.2396  144.6328  159.8248 H   0  0  0  0  0  0  0  0  0  0  0  0
  152.0092  143.9223  160.8738 H   0  0  0  0  0  0  0  0  0  0  0  0
  150.5052  143.8777  155.8486 H   0  0  0  0  0  0  0  0  0  0  0  0
  149.3564  140.6481  156.8979 H   0  0  0  0  0  0  0  0  0  0  0  0
  150.2444  141.4438  155.6276 H   0  0  0  0  0  0  0  0  0  0  0  0
  151.7988  138.6732  152.9764 H   0  0  0  0  0  0  0  0  0  0  0  0
  151.4128  135.2106  158.3896 H   0  0  0  0  0  0  0  0  0  0  0  0
  152.0016  134.4516  154.6565 H   0  0  0  0  0  0  0  0  0  0  0  0
  152.5922  133.8277  156.1680 H   0  0  0  0  0  0  0  0  0  0  0  0
  149.8191  133.9990  157.8504 H   0  0  0  0  0  0  0  0  0  0  0  0
  149.5749  132.3063  157.5234 H   0  0  0  0  0  0  0  0  0  0  0  0
  151.7774  131.9829  157.6960 H   0  0  0  0  0  0  0  0  0  0  0  0
  148.9980  135.0466  155.8743 H   0  0  0  0  0  0  0  0  0  0  0  0
  149.4093  134.5099  154.2682 H   0  0  0  0  0  0  0  0  0  0  0  0
  147.6190  132.9660  156.1983 H   0  0  0  0  0  0  0  0  0  0  0  0
  147.1550  133.7886  154.7314 H   0  0  0  0  0  0  0  0  0  0  0  0
  149.0292  130.9311  155.9700 H   0  0  0  0  0  0  0  0  0  0  0  0
  149.4428  130.4225  154.3510 H   0  0  0  0  0  0  0  0  0  0  0  0
  150.8772  132.3466  153.9942 H   0  0  0  0  0  0  0  0  0  0  0  0
  151.4252  131.5047  155.4146 H   0  0  0  0  0  0  0  0  0  0  0  0
  150.9556  139.7944  158.9904 H   0  0  0  0  0  0  0  0  0  0  0  0
  152.6258  139.5130  158.5047 H   0  0  0  0  0  0  0  0  0  0  0  0
  152.5499  141.4945  159.9486 H   0  0  0  0  0  0  0  0  0  0  0  0
  153.0377  141.9285  158.3288 H   0  0  0  0  0  0  0  0  0  0  0  0
  1  2  1  0  0  0  0
  1 32  1  0  0  0  0
  1 33  1  0  0  0  0
  1 34  1  0  0  0  0
  2 29  1  0  0  0  0
  2  3  1  0  0  0  0
  3  4  2  0  0  0  0
  3  5  1  0  0  0  0
  5  6  1  0  0  0  0
  5 35  1  0  0  0  0
  6 30  1  0  0  0  0
  6 29  1  0  0  0  0
  6  7  1  0  0  0  0
  7  8  1  0  0  0  0
  7 36  1  0  0  0  0
  7 37  1  0  0  0  0
  8  9  1  0  0  0  0
  8 27  1  0  0  0  0
  9 14  1  0  0  0  0
  9 10  2  0  0  0  0
 10 11  1  0  0  0  0
 11 12  2  0  0  0  0
 11 38  1  0  0  0  0
 12 13  1  0  0  0  0
 13 17  1  0  0  0  0
 13 14  2  0  0  0  0
 14 15  1  0  0  0  0
 15 16  2  0  0  0  0
 16 17  1  0  0  0  0
 16 39  1  0  0  0  0
 17 18  1  0  0  0  0
 18 19  1  0  0  0  0
 18 40  1  0  0  0  0
 18 41  1  0  0  0  0
 19 26  1  0  0  0  0
 19 20  1  0  0  0  0
 19 22  1  0  0  0  0
 20 21  1  0  0  0  0
 20 42  1  0  0  0  0
 20 43  1  0  0  0  0
 21 44  1  0  0  0  0
 22 23  1  0  0  0  0
 22 45  1  0  0  0  0
 22 46  1  0  0  0  0
 23 24  1  0  0  0  0
 23 47  1  0  0  0  0
 23 48  1  0  0  0  0
 24 25  1  0  0  0  0
 25 26  1  0  0  0  0
 25 49  1  0  0  0  0
 25 50  1  0  0  0  0
 26 51  1  0  0  0  0
 26 52  1  0  0  0  0
 27 28  1  0  0  0  0
 27 53  1  0  0  0  0
 27 54  1  0  0  0  0
 28 29  1  0  0  0  0
 28 55  1  0  0  0  0
 28 56  1  0  0  0  0
 29 31  1  0  0  0  0
M  END
> <s_m_source_file>
AV-unprocessed.smi

> <i_m_source_file_index>
250

> <i_lp_mmshare_version>
43012

> <i_f3d_flags>
0

> <s_epik_input>
Tz1DKFtOSF0xKU4oW0NIM10pW0NASF0oW0NASF0xMilbQ0gyXVtDSDJdTihbQ0gyXTIpYyhuW2NIXW4zKWMoYzM0KW5bY0hdbjRbQ0gyXUM1KFtDSDJdW09IXSlbQ0gyXVtDSDJdT1tDSDJdW0NIMl01

> <s_epik_cmdline>
J2VwaWtfcHl0aG9uJywgJy1waCcsICc3LjAnLCAnLXRuJywgJzgnLCAnLW1hJywgJzIwMCcsICctbWV0YWxfYmluZGluZycsICctaW1hZScsICc8aW5maWxlLm1hZT4nLCAnLW9tYWUnLCAnPG91dGZpbGUubWFlPic=

> <r_lp_tautomer_probability>
1

> <r_epik_Ionization_Penalty>
0.00229024

> <r_epik_Ionization_Penalty_Charging>
0

> <r_epik_Ionization_Penalty_Neutral>
0.00229024

> <r_epik_State_Penalty>
0.0013961

> <r_epik_Charging_Adjusted_Penalty>
0.0013961

> <i_epik_Tot_Q>
0

> <i_epik_Tot_abs_Q>
0

> <r_epik_Metal_State_Penalty>
-0

> <b_epik_Metal_Only>
0

> <s_lp_Force_Field>
OPLS_2005

> <r_lp_Energy>
68.1887

> <b_lp_Chiralities_Consistent>
1

> <s_lp_Variant>
AV-unprocessed.smi:250-4

> <Gold.Version>
5.8.1

> <Gold.Id.Protein>
6NUR|6NUR_protein|mol2

> <Gold.PLP.Fitness>
46.0805

> <Gold.PLP.PLP>
-39.4360

> <Gold.PLP.part.hbond>
-4.0000

> <Gold.PLP.part.metal>
0.0000

> <Gold.PLP.part.buried>
-0.2597

> <Gold.PLP.part.nonpolar>
-35.2944

> <Gold.PLP.part.repulsive>
0.5455

> <Gold.PLP.ligand.clash>
0.0000

> <Gold.PLP.ligand.torsion>
0.9266

> <Gold.PLP.Chemscore.Hbond>
2.7410

> <Gold.PLP.Chemscore.CHOScore>
0.0000

> <Gold.PLP.Chemscore.Metal>
0.0000

> <Gold.Chemscore.Hbonds>
donor molecule, donor type, donor heavy atom, donor atom, acceptor molecule, acceptor atom, score
      L1  H     5    35       P1  8028  0.27
      P1  H  6896  6908       L1    21  0.32
      P1  H  7989  7998       L1    10  0.80
      P1  H 10752 10765       L1    12  0.45

> <Gold.PLP.Chemscore.Internal.Correction>
0.2748

> <Gold.Rescore>
     Score         DG    S(hbond)    S(metal)    S(lipo)     H(rot)  DE(clash)    DE(int)     intcor
     11.30     -15.37       1.91        0.00      78.47       2.22       2.30       1.78       ----

> <Gold.Chemscore.Fitness>
11.2956

> <Gold.Chemscore.DG>
-15.3706

> <Gold.Chemscore.ZeroCoef>
-5.4800

> <Gold.Chemscore.Hbond>
1.9116

> <Gold.Chemscore.Metal>
0.0000

> <Gold.Chemscore.Lipo>
78.4733

> <Gold.Chemscore.Internal_Hbond>
0.0000

> <Gold.Chemscore.DEClash>
2.2989

> <Gold.Chemscore.DEInternal>
1.7761

> <Gold.Chemscore.Rot>
2.2170

> <Gold.Chemscore.Internal.Correction>
   9.000000E+99

> <Gold.Chemscore.Hbonds>
donor molecule, donor type, donor heavy atom, donor atom, acceptor molecule, acceptor atom, score
      L1  H     5    35       P1  8028  0.26
      P1  H  6896  6908       L1    21  0.02
      P1  H  7989  7998       L1    10  0.11
      P1  H 10752 10765       L1    12  0.02

> <Gold.Chemscore.Hbond.Weighted>
-6.3848

> <Gold.Chemscore.Metal.Weighted>
-0.0000

> <Gold.Chemscore.Lipo.Weighted>
-9.1814

> <Gold.Chemscore.Internal_Hbond.Weighted>
0.0000

> <Gold.Chemscore.DEClash.Weighted>
2.2989

> <Gold.Chemscore.DEInternal.Weighted>
1.7761

> <Gold.Chemscore.Rot.Weighted>
5.6756

> <Gold.Chemscore.Internal.Correction.Weighted>
   9.000000E+99

> <Gold.Protein.RotatedTorsions>
[ 6907 6896 6895 6894 ] final  100.00 input  -60.11 | X-H torsion
[ 7974 7965 7964 7962 ] final  -64.12 input  175.53 | X-H torsion
[ 8008 7997 7996 7995 ] final   75.22 input   59.86 | X-H torsion
[ 10167 10162 10161 10158 ] final  -88.07 input  -65.29 | X-H torsion
[ 10718 10713 10712 10709 ] final  145.38 input   66.30 | X-H torsion
[ 10763 10752 10751 10750 ] final  155.59 input  -60.55 | X-H torsion
[ 11005 11000 10999 10996 ] final   13.64 input  -57.11 | X-H torsion

> <Gold.Protein.ActiveResidues>
 VAL166  LYS551  ARG553  GLY616  TRP617  ASP618  TYR619  PRO620  LYS621  CYS622 
 ASP623  PHE694  ASN695  SER759  ASP760  ASP761  ALA762  ILE779  LEU786  VAL792 
 PHE793  MET794  SER795  GLU796  ALA797  LYS798  CYS799  TRP800  GLU811  SER814 

> <Gold.Protein.RotatedAtoms>
  152.5381  134.0343  159.8038 H   0  0  0  0  0  0  0  0  0  0  0  0  # atno 6907 bound_to 6896
  151.0509  133.5617  159.2649 H   0  0  0  0  0  0  0  0  0  0  0  0  # atno 6908 bound_to 6896
  151.2552  135.0643  159.9131 H   0  0  0  0  0  0  0  0  0  0  0  0  # atno 6909 bound_to 6896
  145.7707  140.8814  143.0382 H   0  0  0  0  0  0  0  0  0  0  0  0  # atno 7974 bound_to 7965
  155.8097  140.3473  155.5451 H   0  0  0  0  0  0  0  0  0  0  0  0  # atno 8008 bound_to 7997
  155.8453  140.0948  157.1729 H   0  0  0  0  0  0  0  0  0  0  0  0  # atno 8009 bound_to 7997
  154.4006  140.1386  156.3765 H   0  0  0  0  0  0  0  0  0  0  0  0  # atno 8010 bound_to 7997
  140.3783  143.2761  151.9416 H   0  0  0  0  0  0  0  0  0  0  0  0  # atno 10167 bound_to 10162
  157.3460  131.0943  151.1042 H   0  0  0  0  0  0  0  0  0  0  0  0  # atno 10718 bound_to 10713
  154.1709  135.2804  155.3081 H   0  0  0  0  0  0  0  0  0  0  0  0  # atno 10763 bound_to 10752
  154.6076  135.5509  153.7442 H   0  0  0  0  0  0  0  0  0  0  0  0  # atno 10764 bound_to 10752
  153.0165  135.6407  154.1849 H   0  0  0  0  0  0  0  0  0  0  0  0  # atno 10765 bound_to 10752
  140.4785  134.0959  155.7746 H   0  0  0  0  0  0  0  0  0  0  0  0  # atno 11005 bound_to 11000
  144.6813  139.9851  143.7484 LP  0  0  0  0  0  0  0  0  0  0  0  0  # atno 17320 bound_to 7965
  146.0173  139.3220  143.0834 LP  0  0  0  0  0  0  0  0  0  0  0  0  # atno 17321 bound_to 7965
  139.4797  144.5843  151.7880 LP  0  0  0  0  0  0  0  0  0  0  0  0  # atno 17342 bound_to 10162
  140.4964  144.1235  150.5961 LP  0  0  0  0  0  0  0  0  0  0  0  0  # atno 17343 bound_to 10162
  157.2236  130.6492  149.5821 LP  0  0  0  0  0  0  0  0  0  0  0  0  # atno 17370 bound_to 10713
  155.9714  130.4621  150.6135 LP  0  0  0  0  0  0  0  0  0  0  0  0  # atno 17371 bound_to 10713
  141.1543  133.8912  157.2019 LP  0  0  0  0  0  0  0  0  0  0  0  0  # atno 17394 bound_to 11000
  139.9841  135.0088  156.9820 LP  0  0  0  0  0  0  0  0  0  0  0  0  # atno 17395 bound_to 11000

$$$$
