AV-unprocessed.smi:2674|AV-procd|sdf|10358|dock6
  -GOLD-   2272014383D 1   1.00000     0.00000
 Structure written by MMmdl.
 45 46  0  0  0  0  0  0  0  0  2 V2000
  145.9672  139.8081  155.0880 C   0  0  0  0  0  0  0  0  0  0  0  0
  145.9423  141.0919  154.3415 N   0  3  2  0  0  0  0  0  0  0  0  0
  147.1672  141.2460  153.5109 C   0  0  0  0  0  0  0  0  0  0  0  0
  148.4183  140.7510  154.2588 C   0  0  0  0  0  0  0  0  0  0  0  0
  148.9488  141.7707  155.1565 N   0  0  0  0  0  0  0  0  0  0  0  0
  149.8468  141.5436  156.1261 C   0  0  0  0  0  0  0  0  0  0  0  0
  150.3302  140.4335  156.3508 O   0  0  0  0  0  0  0  0  0  0  0  0
  150.1361  142.6713  156.7991 N   0  0  0  0  0  0  0  0  0  0  0  0
  151.0435  142.8404  157.8789 C   0  0  0  0  0  0  0  0  0  0  0  0
  151.4064  144.1788  158.1520 C   0  0  0  0  0  0  0  0  0  0  0  0
  152.3037  144.4529  159.2023 C   0  0  0  0  0  0  0  0  0  0  0  0
  152.8161  143.3801  159.9532 C   0  0  0  0  0  0  0  0  0  0  0  0
  152.4043  142.0780  159.6153 C   0  0  0  0  0  0  0  0  0  0  0  0
  151.5444  141.8127  158.6090 N   0  0  0  0  0  0  0  0  0  0  0  0
  145.6384  142.3058  155.1643 C   0  0  0  0  0  0  0  0  0  0  0  0
  144.6888  142.0347  156.3621 C   0  0  0  0  0  0  0  0  0  0  0  0
  144.3791  143.3147  157.1560 C   0  0  0  0  0  0  0  0  0  0  0  0
  143.7841  144.4034  156.2543 C   0  0  0  0  0  0  0  0  0  0  0  0
  144.7118  144.6922  155.0672 C   0  0  0  0  0  0  0  0  0  0  0  0
  145.0148  143.4113  154.2745 C   0  0  0  0  0  0  0  0  0  0  0  0
  146.6848  139.8470  155.9086 H   0  0  0  0  0  0  0  0  0  0  0  0
  146.2503  138.9809  154.4371 H   0  0  0  0  0  0  0  0  0  0  0  0
  144.9856  139.5600  155.4911 H   0  0  0  0  0  0  0  0  0  0  0  0
  147.0759  140.6907  152.5783 H   0  0  0  0  0  0  0  0  0  0  0  0
  147.2859  142.2885  153.2101 H   0  0  0  0  0  0  0  0  0  0  0  0
  148.1842  139.8707  154.8568 H   0  0  0  0  0  0  0  0  0  0  0  0
  149.1897  140.4463  153.5491 H   0  0  0  0  0  0  0  0  0  0  0  0
  148.6010  142.7112  155.0383 H   0  0  0  0  0  0  0  0  0  0  0  0
  149.6519  143.5069  156.5063 H   0  0  0  0  0  0  0  0  0  0  0  0
  151.0035  144.9918  157.5653 H   0  0  0  0  0  0  0  0  0  0  0  0
  152.5934  145.4688  159.4271 H   0  0  0  0  0  0  0  0  0  0  0  0
  153.5062  143.5504  160.7663 H   0  0  0  0  0  0  0  0  0  0  0  0
  152.7748  141.2266  160.1670 H   0  0  0  0  0  0  0  0  0  0  0  0
  146.5811  142.6707  155.5766 H   0  0  0  0  0  0  0  0  0  0  0  0
  143.7550  141.5976  156.0055 H   0  0  0  0  0  0  0  0  0  0  0  0
  145.1287  141.3175  157.0551 H   0  0  0  0  0  0  0  0  0  0  0  0
  143.6883  143.0897  157.9690 H   0  0  0  0  0  0  0  0  0  0  0  0
  145.2928  143.6857  157.6222 H   0  0  0  0  0  0  0  0  0  0  0  0
  142.8068  144.0847  155.8890 H   0  0  0  0  0  0  0  0  0  0  0  0
  143.6179  145.3152  156.8288 H   0  0  0  0  0  0  0  0  0  0  0  0
  144.2545  145.4346  154.4128 H   0  0  0  0  0  0  0  0  0  0  0  0
  145.6442  145.1293  155.4267 H   0  0  0  0  0  0  0  0  0  0  0  0
  145.6675  143.6708  153.4419 H   0  0  0  0  0  0  0  0  0  0  0  0
  144.0919  143.0404  153.8261 H   0  0  0  0  0  0  0  0  0  0  0  0
  145.1718  141.0154  153.6927 H   0  0  0  0  0  0  0  0  0  0  0  0
  1  2  1  0  0  0  0
  1 21  1  0  0  0  0
  1 22  1  0  0  0  0
  1 23  1  0  0  0  0
  2  3  1  0  0  0  0
  2 15  1  0  0  0  0
  2 45  1  0  0  0  0
  3  4  1  0  0  0  0
  3 24  1  0  0  0  0
  3 25  1  0  0  0  0
  4  5  1  0  0  0  0
  4 26  1  0  0  0  0
  4 27  1  0  0  0  0
  5  6  1  0  0  0  0
  5 28  1  0  0  0  0
  6  7  2  0  0  0  0
  6  8  1  0  0  0  0
  8  9  1  0  0  0  0
  8 29  1  0  0  0  0
  9 14  1  0  0  0  0
  9 10  2  0  0  0  0
 10 11  1  0  0  0  0
 10 30  1  0  0  0  0
 11 12  2  0  0  0  0
 11 31  1  0  0  0  0
 12 13  1  0  0  0  0
 12 32  1  0  0  0  0
 13 14  2  0  0  0  0
 13 33  1  0  0  0  0
 15 20  1  0  0  0  0
 15 16  1  0  0  0  0
 15 34  1  0  0  0  0
 16 17  1  0  0  0  0
 16 35  1  0  0  0  0
 16 36  1  0  0  0  0
 17 18  1  0  0  0  0
 17 37  1  0  0  0  0
 17 38  1  0  0  0  0
 18 19  1  0  0  0  0
 18 39  1  0  0  0  0
 18 40  1  0  0  0  0
 19 20  1  0  0  0  0
 19 41  1  0  0  0  0
 19 42  1  0  0  0  0
 20 43  1  0  0  0  0
 20 44  1  0  0  0  0
M  CHG  1   2   1
M  END
> <s_m_source_file>
AV-unprocessed.smi

> <i_m_source_file_index>
2674

> <i_lp_mmshare_version>
43012

> <i_f3d_flags>
0

> <s_epik_input>
W0NIMl0xW0NIMl1bQ0gyXVtDSDJdW0NIMl1bQ0hdMU4oW0NIM10pW0NIMl1bQ0gyXVtOSF1DKD1PKVtOSF1jMltjSF1bY0hdW2NIXVtjSF1uMg==

> <s_epik_cmdline>
J2VwaWtfcHl0aG9uJywgJy1waCcsICc3LjAnLCAnLXRuJywgJzgnLCAnLW1hJywgJzIwMCcsICctbWV0YWxfYmluZGluZycsICctaW1hZScsICc8aW5maWxlLm1hZT4nLCAnLW9tYWUnLCAnPG91dGZpbGUubWFlPic=

> <r_epik_Ionization_Penalty>
0.00206741

> <r_epik_Ionization_Penalty_Charging>
0.00203269

> <r_epik_Ionization_Penalty_Neutral>
3.47205e-05

> <r_epik_State_Penalty>
0.00139005

> <r_epik_Charging_Adjusted_Penalty>
0.00342273

> <i_epik_Tot_Q>
1

> <i_epik_Tot_abs_Q>
1

> <r_epik_Metal_State_Penalty>
-0

> <b_epik_Metal_Only>
0

> <s_lp_Force_Field>
OPLS_2005

> <r_lp_Energy>
21.2235

> <b_lp_Chiralities_Consistent>
1

> <s_lp_Variant>
AV-unprocessed.smi:2674-1

> <Gold.Version>
5.8.1

> <Gold.Id.Protein>
6NUR|6NUR_protein|mol2

> <Gold.PLP.Fitness>
48.9229

> <Gold.PLP.PLP>
-39.3605

> <Gold.PLP.part.hbond>
-2.9874

> <Gold.PLP.part.metal>
0.0000

> <Gold.PLP.part.buried>
-6.3029

> <Gold.PLP.part.nonpolar>
-30.8847

> <Gold.PLP.part.repulsive>
0.3057

> <Gold.PLP.ligand.clash>
0.0000

> <Gold.PLP.ligand.torsion>
1.0268

> <Gold.PLP.Chemscore.Hbond>
3.8406

> <Gold.PLP.Chemscore.CHOScore>
0.0000

> <Gold.PLP.Chemscore.Metal>
0.0000

> <Gold.Chemscore.Hbonds>
donor molecule, donor type, donor heavy atom, donor atom, acceptor molecule, acceptor atom, score
      L1  H     2    45       P1 10175  2.00
      L1  H     5    28       P1  8028  0.73
      L1  H     8    29       P1  8028  1.00

> <Gold.PLP.Chemscore.Internal.Correction>
0.0943

> <Gold.Rescore>
     Score         DG    S(hbond)    S(metal)    S(lipo)     H(rot)  DE(clash)    DE(int)     intcor
     17.03     -19.35       2.56        0.00      82.70       1.70       0.03       2.28       ----

> <Gold.Chemscore.Fitness>
17.0328

> <Gold.Chemscore.DG>
-19.3491

> <Gold.Chemscore.ZeroCoef>
-5.4800

> <Gold.Chemscore.Hbond>
2.5606

> <Gold.Chemscore.Metal>
0.0000

> <Gold.Chemscore.Lipo>
82.7041

> <Gold.Chemscore.Internal_Hbond>
0.0000

> <Gold.Chemscore.DEClash>
0.0329

> <Gold.Chemscore.DEInternal>
2.2835

> <Gold.Chemscore.Rot>
1.7030

> <Gold.Chemscore.Internal.Correction>
   9.000000E+99

> <Gold.Chemscore.Hbonds>
donor molecule, donor type, donor heavy atom, donor atom, acceptor molecule, acceptor atom, score
      L1  H     2    45       P1 10175  0.72
      L1  H     5    28       P1  8028  0.70
      L1  H     8    29       P1  8028  1.00

> <Gold.Chemscore.Hbond.Weighted>
-8.5524

> <Gold.Chemscore.Metal.Weighted>
-0.0000

> <Gold.Chemscore.Lipo.Weighted>
-9.6764

> <Gold.Chemscore.Internal_Hbond.Weighted>
0.0000

> <Gold.Chemscore.DEClash.Weighted>
0.0329

> <Gold.Chemscore.DEInternal.Weighted>
2.2835

> <Gold.Chemscore.Rot.Weighted>
4.3597

> <Gold.Chemscore.Internal.Correction.Weighted>
   9.000000E+99

> <Gold.Protein.RotatedTorsions>
[ 6907 6896 6895 6894 ] final  -21.28 input  -60.11 | X-H torsion
[ 7974 7965 7964 7962 ] final   87.43 input  175.53 | X-H torsion
[ 8008 7997 7996 7995 ] final -172.93 input   59.86 | X-H torsion
[ 10167 10162 10161 10158 ] final   29.26 input  -65.29 | X-H torsion
[ 10718 10713 10712 10709 ] final  126.60 input   66.30 | X-H torsion
[ 10763 10752 10751 10750 ] final  158.67 input  -60.55 | X-H torsion
[ 11005 11000 10999 10996 ] final  -54.15 input  -57.11 | X-H torsion

> <Gold.Protein.ActiveResidues>
 VAL166  LYS551  ARG553  GLY616  TRP617  ASP618  TYR619  PRO620  LYS621  CYS622 
 ASP623  PHE694  ASN695  SER759  ASP760  ASP761  ALA762  ILE779  LEU786  VAL792 
 PHE793  MET794  SER795  GLU796  ALA797  LYS798  CYS799  TRP800  GLU811  SER814 

> <Gold.Protein.RotatedAtoms>
  151.2357  135.0571  159.9005 H   0  0  0  0  0  0  0  0  0  0  0  0  # atno 6907 bound_to 6896
  152.5399  134.0488  159.8111 H   0  0  0  0  0  0  0  0  0  0  0  0  # atno 6908 bound_to 6896
  151.0675  133.5445  159.2661 H   0  0  0  0  0  0  0  0  0  0  0  0  # atno 6909 bound_to 6896
  145.5590  139.2302  143.2470 H   0  0  0  0  0  0  0  0  0  0  0  0  # atno 7974 bound_to 7965
  155.9509  140.1126  157.0977 H   0  0  0  0  0  0  0  0  0  0  0  0  # atno 8008 bound_to 7997
  154.4109  140.1200  156.5118 H   0  0  0  0  0  0  0  0  0  0  0  0  # atno 8009 bound_to 7997
  155.6843  140.3473  155.4870 H   0  0  0  0  0  0  0  0  0  0  0  0  # atno 8010 bound_to 7997
  140.4781  144.0658  150.6257 H   0  0  0  0  0  0  0  0  0  0  0  0  # atno 10167 bound_to 10162
  157.5405  131.1097  150.8866 H   0  0  0  0  0  0  0  0  0  0  0  0  # atno 10718 bound_to 10713
  154.2198  135.2782  155.2929 H   0  0  0  0  0  0  0  0  0  0  0  0  # atno 10763 bound_to 10752
  154.5711  135.5618  153.7099 H   0  0  0  0  0  0  0  0  0  0  0  0  # atno 10764 bound_to 10752
  153.0044  135.6321  154.2338 H   0  0  0  0  0  0  0  0  0  0  0  0  # atno 10765 bound_to 10752
  141.1012  133.6618  156.4278 H   0  0  0  0  0  0  0  0  0  0  0  0  # atno 11005 bound_to 11000
  146.1864  140.6415  142.9166 LP  0  0  0  0  0  0  0  0  0  0  0  0  # atno 17320 bound_to 7965
  144.7492  140.5147  143.6814 LP  0  0  0  0  0  0  0  0  0  0  0  0  # atno 17321 bound_to 7965
  140.3893  143.2761  152.0079 LP  0  0  0  0  0  0  0  0  0  0  0  0  # atno 17342 bound_to 10162
  139.4829  144.6091  151.7467 LP  0  0  0  0  0  0  0  0  0  0  0  0  # atno 17343 bound_to 10162
  156.9420  130.5388  149.5280 LP  0  0  0  0  0  0  0  0  0  0  0  0  # atno 17370 bound_to 10713
  156.0493  130.5565  150.8953 LP  0  0  0  0  0  0  0  0  0  0  0  0  # atno 17371 bound_to 10713
  140.5018  134.6478  157.5251 LP  0  0  0  0  0  0  0  0  0  0  0  0  # atno 17394 bound_to 11000
  139.9864  134.7055  155.9767 LP  0  0  0  0  0  0  0  0  0  0  0  0  # atno 17395 bound_to 11000

$$$$
