AV-unprocessed.smi:513|AV-procd|sdf|2772|dock3
  -GOLD-   2262023243D 1   1.00000     0.00000
 Structure written by MMmdl.
 43 45  0  0  0  0  0  0  0  0  2 V2000
  150.5370  143.7375  159.0489 C   0  0  0  0  0  0  0  0  0  0  0  0
  149.5124  142.7746  158.8766 O   0  0  0  0  0  0  0  0  0  0  0  0
  149.6935  141.9933  157.7087 C   0  0  0  0  0  0  0  0  0  0  0  0
  148.4964  141.0479  157.5579 C   0  0  0  0  0  0  0  0  0  0  0  0
  147.3526  141.7264  156.9544 N   0  0  0  0  0  0  0  0  0  0  0  0
  146.9490  141.7189  155.6535 C   0  0  0  0  0  0  0  0  0  0  0  0
  147.6168  140.9905  154.6668 N   0  0  0  0  0  0  0  0  0  0  0  0
  149.0691  140.8376  154.6212 C   0  0  0  0  0  0  0  0  0  0  0  0
  149.4724  139.3615  154.4459 C   0  0  0  0  0  0  0  0  0  0  0  0
  148.8388  138.7851  153.2414 N   0  3  0  0  0  0  0  0  0  0  0  0
  147.3764  138.9953  153.2113 C   0  0  0  0  0  0  0  0  0  0  0  0
  147.0445  140.4844  153.4200 C   0  0  0  0  0  0  0  0  0  0  0  0
  145.9038  142.5077  155.3910 N   0  0  0  0  0  0  0  0  0  0  0  0
  145.5972  143.0474  156.6305 C   0  0  0  0  0  0  0  0  0  0  0  0
  146.4631  142.6049  157.5776 C   0  0  0  0  0  0  0  0  0  0  0  0
  146.4021  143.0647  158.9727 C   0  0  0  0  0  0  0  0  0  0  0  0
  147.1879  142.6992  159.8439 O   0  0  0  0  0  0  0  0  0  0  0  0
  145.3978  143.9460  159.1994 N   0  0  0  0  0  0  0  0  0  0  0  0
  144.4913  144.4254  158.2944 C   0  0  0  0  0  0  0  0  0  0  0  0
  143.6388  145.2386  158.6507 O   0  0  0  0  0  0  0  0  0  0  0  0
  144.5798  143.9713  157.0031 N   0  0  0  0  0  0  0  0  0  0  0  0
  143.6422  144.4511  155.9858 C   0  0  0  0  0  0  0  0  0  0  0  0
  145.3133  144.2950  160.1430 H   0  0  0  0  0  0  0  0  0  0  0  0
  150.3447  144.3187  159.9508 H   0  0  0  0  0  0  0  0  0  0  0  0
  150.5762  144.4281  158.2055 H   0  0  0  0  0  0  0  0  0  0  0  0
  151.5121  143.2608  159.1568 H   0  0  0  0  0  0  0  0  0  0  0  0
  149.7778  142.6370  156.8316 H   0  0  0  0  0  0  0  0  0  0  0  0
  150.6183  141.4197  157.7887 H   0  0  0  0  0  0  0  0  0  0  0  0
  148.7761  140.1861  156.9606 H   0  0  0  0  0  0  0  0  0  0  0  0
  148.2137  140.6325  158.5230 H   0  0  0  0  0  0  0  0  0  0  0  0
  149.4690  141.4413  153.8051 H   0  0  0  0  0  0  0  0  0  0  0  0
  149.5086  141.2277  155.5400 H   0  0  0  0  0  0  0  0  0  0  0  0
  150.5551  139.2675  154.3631 H   0  0  0  0  0  0  0  0  0  0  0  0
  149.1663  138.7832  155.3189 H   0  0  0  0  0  0  0  0  0  0  0  0
  149.2378  139.2375  152.4313 H   0  0  0  0  0  0  0  0  0  0  0  0
  146.9825  138.6456  152.2571 H   0  0  0  0  0  0  0  0  0  0  0  0
  146.9142  138.3882  153.9907 H   0  0  0  0  0  0  0  0  0  0  0  0
  145.9687  140.6533  153.3931 H   0  0  0  0  0  0  0  0  0  0  0  0
  147.4494  141.0686  152.5922 H   0  0  0  0  0  0  0  0  0  0  0  0
  142.6170  144.4547  156.3597 H   0  0  0  0  0  0  0  0  0  0  0  0
  143.6499  143.8282  155.0914 H   0  0  0  0  0  0  0  0  0  0  0  0
  143.9004  145.4679  155.6873 H   0  0  0  0  0  0  0  0  0  0  0  0
  149.0387  137.7962  153.1960 H   0  0  0  0  0  0  0  0  0  0  0  0
  1  2  1  0  0  0  0
  1 24  1  0  0  0  0
  1 25  1  0  0  0  0
  1 26  1  0  0  0  0
  2  3  1  0  0  0  0
  3  4  1  0  0  0  0
  3 27  1  0  0  0  0
  3 28  1  0  0  0  0
  4  5  1  0  0  0  0
  4 29  1  0  0  0  0
  4 30  1  0  0  0  0
  5 15  1  0  0  0  0
  5  6  1  0  0  0  0
  6  7  1  0  0  0  0
  6 13  2  0  0  0  0
  7 12  1  0  0  0  0
  7  8  1  0  0  0  0
  8  9  1  0  0  0  0
  8 31  1  0  0  0  0
  8 32  1  0  0  0  0
  9 10  1  0  0  0  0
  9 33  1  0  0  0  0
  9 34  1  0  0  0  0
 10 11  1  0  0  0  0
 10 35  1  0  0  0  0
 10 43  1  0  0  0  0
 11 12  1  0  0  0  0
 11 36  1  0  0  0  0
 11 37  1  0  0  0  0
 12 38  1  0  0  0  0
 12 39  1  0  0  0  0
 13 14  1  0  0  0  0
 14 21  1  0  0  0  0
 14 15  2  0  0  0  0
 15 16  1  0  0  0  0
 16 17  2  0  0  0  0
 16 18  1  0  0  0  0
 18 23  1  0  0  0  0
 18 19  1  0  0  0  0
 19 20  2  0  0  0  0
 19 21  1  0  0  0  0
 21 22  1  0  0  0  0
 22 40  1  0  0  0  0
 22 41  1  0  0  0  0
 22 42  1  0  0  0  0
M  CHG  1  10   1
M  END
> <s_m_source_file>
AV-unprocessed.smi

> <i_m_source_file_index>
513

> <i_lp_mmshare_version>
43012

> <i_f3d_flags>
0

> <s_epik_input>
W0NIM11uMWMoPU8pW25IXWMoPU8pYyhjMTIpbihbQ0gyXVtDSDJdT1tDSDNdKWMobjIpTjNbQ0gyXVtDSDJdW05IXVtDSDJdW0NIMl0z

> <s_epik_cmdline>
J2VwaWtfcHl0aG9uJywgJy1waCcsICc3LjAnLCAnLXRuJywgJzgnLCAnLW1hJywgJzIwMCcsICctbWV0YWxfYmluZGluZycsICctaW1hZScsICc8aW5maWxlLm1hZT4nLCAnLW9tYWUnLCAnPG91dGZpbGUubWFlPic=

> <r_epik_Ionization_Penalty>
0.00860422

> <r_epik_Ionization_Penalty_Charging>
0.00860232

> <r_epik_Ionization_Penalty_Neutral>
1.90009e-06

> <r_epik_State_Penalty>
0.00646614

> <r_epik_Charging_Adjusted_Penalty>
0.0150685

> <i_epik_Tot_Q>
1

> <i_epik_Tot_abs_Q>
1

> <r_epik_Metal_State_Penalty>
0.0348233

> <b_epik_Metal_Only>
0

> <s_lp_Force_Field>
OPLS_2005

> <r_lp_Energy>
48.3968

> <b_lp_Chiralities_Consistent>
1

> <s_lp_Variant>
AV-unprocessed.smi:513-1

> <Gold.Version>
5.8.1

> <Gold.Id.Protein>
6NUR|6NUR_protein|mol2

> <Gold.PLP.Fitness>
40.4208

> <Gold.PLP.PLP>
-29.9493

> <Gold.PLP.part.hbond>
-4.6290

> <Gold.PLP.part.metal>
0.0000

> <Gold.PLP.part.buried>
-6.6424

> <Gold.PLP.part.nonpolar>
-21.3073

> <Gold.PLP.part.repulsive>
0.4794

> <Gold.PLP.ligand.clash>
0.0201

> <Gold.PLP.ligand.torsion>
0.8345

> <Gold.PLP.Chemscore.Hbond>
3.8845

> <Gold.PLP.Chemscore.CHOScore>
0.0000

> <Gold.PLP.Chemscore.Metal>
0.0000

> <Gold.Chemscore.Hbonds>
donor molecule, donor type, donor heavy atom, donor atom, acceptor molecule, acceptor atom, score
      L1  H    10    35       P1  7957  1.00
      L1  H    10    43       P1  7948  1.55
      P1  H  6933  6944       L1    17  0.63
      P1  H  6934  6946       L1    17  0.75

> <Gold.PLP.Chemscore.Internal.Correction>
0.5070

> <Gold.Rescore>
     Score         DG    S(hbond)    S(metal)    S(lipo)     H(rot)  DE(clash)    DE(int)     intcor
     16.26     -17.67       3.19        0.00      47.50       1.57       0.09       1.32       ----

> <Gold.Chemscore.Fitness>
16.2617

> <Gold.Chemscore.DG>
-17.6650

> <Gold.Chemscore.ZeroCoef>
-5.4800

> <Gold.Chemscore.Hbond>
3.1870

> <Gold.Chemscore.Metal>
0.0000

> <Gold.Chemscore.Lipo>
47.5039

> <Gold.Chemscore.Internal_Hbond>
0.0000

> <Gold.Chemscore.DEClash>
0.0876

> <Gold.Chemscore.DEInternal>
1.3157

> <Gold.Chemscore.Rot>
1.5693

> <Gold.Chemscore.Internal.Correction>
   9.000000E+99

> <Gold.Chemscore.Hbonds>
donor molecule, donor type, donor heavy atom, donor atom, acceptor molecule, acceptor atom, score
      L1  H    10    35       P1  7957  0.94
      L1  H    10    43       P1  7948  0.73
      P1  H  6933  6944       L1    17  0.62
      P1  H  6934  6946       L1    17  0.69

> <Gold.Chemscore.Hbond.Weighted>
-10.6445

> <Gold.Chemscore.Metal.Weighted>
-0.0000

> <Gold.Chemscore.Lipo.Weighted>
-5.5580

> <Gold.Chemscore.Internal_Hbond.Weighted>
0.0000

> <Gold.Chemscore.DEClash.Weighted>
0.0876

> <Gold.Chemscore.DEInternal.Weighted>
1.3157

> <Gold.Chemscore.Rot.Weighted>
4.0175

> <Gold.Chemscore.Internal.Correction.Weighted>
   9.000000E+99

> <Gold.Protein.RotatedTorsions>
[ 6907 6896 6895 6894 ] final  -75.00 input  -60.11 | X-H torsion
[ 7974 7965 7964 7962 ] final  -98.69 input  175.53 | X-H torsion
[ 8008 7997 7996 7995 ] final  129.60 input   59.86 | X-H torsion
[ 10167 10162 10161 10158 ] final   92.26 input  -65.29 | X-H torsion
[ 10718 10713 10712 10709 ] final  -18.53 input   66.30 | X-H torsion
[ 10763 10752 10751 10750 ] final   66.11 input  -60.55 | X-H torsion
[ 11005 11000 10999 10996 ] final -148.28 input  -57.11 | X-H torsion

> <Gold.Protein.ActiveResidues>
 VAL166  LYS551  ARG553  GLY616  TRP617  ASP618  TYR619  PRO620  LYS621  CYS622 
 ASP623  PHE694  ASN695  SER759  ASP760  ASP761  ALA762  ILE779  LEU786  VAL792 
 PHE793  MET794  SER795  GLU796  ALA797  LYS798  CYS799  TRP800  GLU811  SER814 

> <Gold.Protein.RotatedAtoms>
  150.7074  134.4786  159.5459 H   0  0  0  0  0  0  0  0  0  0  0  0  # atno 6907 bound_to 6896
  152.2428  134.8209  160.0467 H   0  0  0  0  0  0  0  0  0  0  0  0  # atno 6908 bound_to 6896
  151.8984  133.3497  159.3859 H   0  0  0  0  0  0  0  0  0  0  0  0  # atno 6909 bound_to 6896
  145.3173  140.9414  143.2735 H   0  0  0  0  0  0  0  0  0  0  0  0  # atno 7974 bound_to 7965
  156.2939  140.2616  156.2626 H   0  0  0  0  0  0  0  0  0  0  0  0  # atno 8008 bound_to 7997
  154.9774  140.0390  157.2280 H   0  0  0  0  0  0  0  0  0  0  0  0  # atno 8009 bound_to 7997
  154.7803  140.2794  155.6073 H   0  0  0  0  0  0  0  0  0  0  0  0  # atno 8010 bound_to 7997
  139.8294  144.6694  150.9419 H   0  0  0  0  0  0  0  0  0  0  0  0  # atno 10167 bound_to 10162
  156.5583  130.4719  149.6419 H   0  0  0  0  0  0  0  0  0  0  0  0  # atno 10718 bound_to 10713
  153.0125  135.5332  154.6772 H   0  0  0  0  0  0  0  0  0  0  0  0  # atno 10763 bound_to 10752
  154.5941  135.2861  155.0607 H   0  0  0  0  0  0  0  0  0  0  0  0  # atno 10764 bound_to 10752
  154.1688  135.6535  153.5057 H   0  0  0  0  0  0  0  0  0  0  0  0  # atno 10765 bound_to 10752
  140.7629  134.3278  157.5097 H   0  0  0  0  0  0  0  0  0  0  0  0  # atno 11005 bound_to 11000
  144.8967  139.4703  143.6652 LP  0  0  0  0  0  0  0  0  0  0  0  0  # atno 17320 bound_to 7965
  146.3095  139.7697  142.9030 LP  0  0  0  0  0  0  0  0  0  0  0  0  # atno 17321 bound_to 7965
  140.7808  143.4015  151.1141 LP  0  0  0  0  0  0  0  0  0  0  0  0  # atno 17342 bound_to 10162
  139.7670  143.8550  152.3112 LP  0  0  0  0  0  0  0  0  0  0  0  0  # atno 17343 bound_to 10162
  156.2822  130.7077  151.1904 LP  0  0  0  0  0  0  0  0  0  0  0  0  # atno 17370 bound_to 10713
  157.7373  131.0552  150.5360 LP  0  0  0  0  0  0  0  0  0  0  0  0  # atno 17371 bound_to 10713
  139.8768  134.9213  156.3272 LP  0  0  0  0  0  0  0  0  0  0  0  0  # atno 17394 bound_to 11000
  140.9646  133.7366  156.0449 LP  0  0  0  0  0  0  0  0  0  0  0  0  # atno 17395 bound_to 11000

$$$$
