AV-unprocessed.smi:2032|AV-procd|sdf|8232|dock4
  -GOLD-   2272010503D 1   1.00000     0.00000
 Structure written by MMmdl.
 42 43  0  0  0  0  0  0  0  0  1 V2000
  150.2995  135.1141  155.9615 C   0  0  0  0  0  0  0  0  0  0  0  0
  150.4488  136.2467  154.9400 C   0  0  1  0  0  0  0  0  0  0  0  0
  149.2693  137.2356  154.9909 C   0  0  0  0  0  0  0  0  0  0  0  0
  149.4272  138.3628  154.0656 N   0  0  0  0  0  0  0  0  0  0  0  0
  148.2989  139.3201  154.1395 C   0  0  2  0  0  0  0  0  0  0  0  0
  148.1948  140.0262  155.5153 C   0  0  0  0  0  0  0  0  0  0  0  0
  146.9220  138.6754  153.8059 C   0  0  0  0  0  0  0  0  0  0  0  0
  147.0318  137.4758  152.9798 N   0  0  0  0  0  0  0  0  0  0  0  0
  146.0062  136.6797  152.6448 C   0  0  0  0  0  0  0  0  0  0  0  0
  144.8450  136.8851  153.0002 O   0  0  0  0  0  0  0  0  0  0  0  0
  146.4166  135.6484  151.8861 N   0  0  0  0  0  0  0  0  0  0  0  0
  145.6337  134.6015  151.3318 C   0  0  0  0  0  0  0  0  0  0  0  0
  144.2963  134.5628  151.3610 N   0  0  0  0  0  0  0  0  0  0  0  0
  143.7906  133.4176  150.7409 C   0  0  0  0  0  0  0  0  0  0  0  0
  144.7642  132.5894  150.2404 C   0  0  0  0  0  0  0  0  0  0  0  0
  146.3644  133.2190  150.5296 S   0  0  0  0  0  0  0  0  0  0  0  0
  150.7208  138.9965  154.3469 C   0  0  0  0  0  0  0  0  0  0  0  0
  151.9005  138.0061  154.3089 C   0  0  1  0  0  0  0  0  0  0  0  0
  153.2254  138.6714  154.6967 C   0  0  0  0  0  0  0  0  0  0  0  0
  151.6535  136.9460  155.2235 O   0  0  0  0  0  0  0  0  0  0  0  0
  149.3902  134.5407  155.7809 H   0  0  0  0  0  0  0  0  0  0  0  0
  150.2541  135.5032  156.9791 H   0  0  0  0  0  0  0  0  0  0  0  0
  151.1429  134.4256  155.9053 H   0  0  0  0  0  0  0  0  0  0  0  0
  150.5170  135.8103  153.9419 H   0  0  0  0  0  0  0  0  0  0  0  0
  148.3703  136.6700  154.7515 H   0  0  0  0  0  0  0  0  0  0  0  0
  149.1484  137.6085  156.0093 H   0  0  0  0  0  0  0  0  0  0  0  0
  148.4785  140.1004  153.3981 H   0  0  0  0  0  0  0  0  0  0  0  0
  147.3262  140.6802  155.5830 H   0  0  0  0  0  0  0  0  0  0  0  0
  149.0501  140.6713  155.7119 H   0  0  0  0  0  0  0  0  0  0  0  0
  148.1238  139.3020  156.3274 H   0  0  0  0  0  0  0  0  0  0  0  0
  146.3713  138.3884  154.7001 H   0  0  0  0  0  0  0  0  0  0  0  0
  146.2940  139.3946  153.2792 H   0  0  0  0  0  0  0  0  0  0  0  0
  147.9539  137.2348  152.6472 H   0  0  0  0  0  0  0  0  0  0  0  0
  147.4036  135.6076  151.6791 H   0  0  0  0  0  0  0  0  0  0  0  0
  142.7214  133.2709  150.7013 H   0  0  0  0  0  0  0  0  0  0  0  0
  144.6372  131.6510  149.7216 H   0  0  0  0  0  0  0  0  0  0  0  0
  150.9387  139.7697  153.6136 H   0  0  0  0  0  0  0  0  0  0  0  0
  150.6863  139.4852  155.3220 H   0  0  0  0  0  0  0  0  0  0  0  0
  151.9974  137.5925  153.3035 H   0  0  0  0  0  0  0  0  0  0  0  0
  153.4686  139.4886  154.0171 H   0  0  0  0  0  0  0  0  0  0  0  0
  154.0461  137.9546  154.6617 H   0  0  0  0  0  0  0  0  0  0  0  0
  153.1809  139.0781  155.7074 H   0  0  0  0  0  0  0  0  0  0  0  0
  1  2  1  0  0  0  0
  1 21  1  0  0  0  0
  1 22  1  0  0  0  0
  1 23  1  0  0  0  0
  2 20  1  0  0  0  0
  2  3  1  0  0  0  0
  2 24  1  0  0  0  0
  3  4  1  0  0  0  0
  3 25  1  0  0  0  0
  3 26  1  0  0  0  0
  4  5  1  0  0  0  0
  4 17  1  0  0  0  0
  5  6  1  0  0  0  0
  5  7  1  0  0  0  0
  5 27  1  0  0  0  0
  6 28  1  0  0  0  0
  6 29  1  0  0  0  0
  6 30  1  0  0  0  0
  7  8  1  0  0  0  0
  7 31  1  0  0  0  0
  7 32  1  0  0  0  0
  8  9  1  0  0  0  0
  8 33  1  0  0  0  0
  9 10  2  0  0  0  0
  9 11  1  0  0  0  0
 11 12  1  0  0  0  0
 11 34  1  0  0  0  0
 12 16  1  0  0  0  0
 12 13  2  0  0  0  0
 13 14  1  0  0  0  0
 14 15  2  0  0  0  0
 14 35  1  0  0  0  0
 15 16  1  0  0  0  0
 15 36  1  0  0  0  0
 17 18  1  0  0  0  0
 17 37  1  0  0  0  0
 17 38  1  0  0  0  0
 18 19  1  0  0  0  0
 18 20  1  0  0  0  0
 18 39  1  0  0  0  0
 19 40  1  0  0  0  0
 19 41  1  0  0  0  0
 19 42  1  0  0  0  0
M  END
> <s_m_source_file>
AV-unprocessed.smi

> <i_m_source_file_index>
2032

> <i_lp_mmshare_version>
43012

> <i_f3d_flags>
0

> <s_epik_input>
W0NIM11bQ0BASF0xW0NIMl1OKFtDSDJdW0NASF0oTzEpW0NIM10pW0NASF0oW0NIM10pW0NIMl1bTkhdQyg9TylbTkhdYzJuW2NIXVtjSF1zMg==

> <s_epik_cmdline>
J2VwaWtfcHl0aG9uJywgJy1waCcsICc3LjAnLCAnLXRuJywgJzgnLCAnLW1hJywgJzIwMCcsICctbWV0YWxfYmluZGluZycsICctaW1hZScsICc8aW5maWxlLm1hZT4nLCAnLW9tYWUnLCAnPG91dGZpbGUubWFlPic=

> <r_lp_tautomer_probability>
0.999

> <r_epik_Ionization_Penalty>
0.219202

> <r_epik_Ionization_Penalty_Charging>
0

> <r_epik_Ionization_Penalty_Neutral>
0.219202

> <r_epik_State_Penalty>
0.209349

> <r_epik_Charging_Adjusted_Penalty>
0.209349

> <i_epik_Tot_Q>
0

> <i_epik_Tot_abs_Q>
0

> <r_epik_Metal_State_Penalty>
0.247737

> <b_epik_Metal_Only>
0

> <s_lp_Force_Field>
OPLS_2005

> <r_lp_Energy>
24.8092

> <b_lp_Chiralities_Consistent>
1

> <s_lp_Variant>
AV-unprocessed.smi:2032-2

> <Gold.Version>
5.8.1

> <Gold.Id.Protein>
6NUR|6NUR_protein|mol2

> <Gold.PLP.Fitness>
41.6605

> <Gold.PLP.PLP>
-30.5655

> <Gold.PLP.part.hbond>
-3.0000

> <Gold.PLP.part.metal>
0.0000

> <Gold.PLP.part.buried>
-4.5121

> <Gold.PLP.part.nonpolar>
-23.9488

> <Gold.PLP.part.repulsive>
0.9165

> <Gold.PLP.ligand.clash>
0.0000

> <Gold.PLP.ligand.torsion>
0.4694

> <Gold.PLP.Chemscore.Hbond>
3.0000

> <Gold.PLP.Chemscore.CHOScore>
0.9983

> <Gold.PLP.Chemscore.Metal>
0.0000

> <Gold.Chemscore.Hbonds>
donor molecule, donor type, donor heavy atom, donor atom, acceptor molecule, acceptor atom, score
      L1  H     8    33       P1  7948  1.00
      L1  H    11    34       P1  7948  1.00
      P1  H 10752 10765       L1    20  1.00
      L1  C    14    35       P1 10186  1.00

> <Gold.PLP.Chemscore.Internal.Correction>
0.0389

> <Gold.Rescore>
     Score         DG    S(hbond)    S(metal)    S(lipo)     H(rot)  DE(clash)    DE(int)     intcor
     15.11     -16.89       1.98        0.00      75.37       1.57       0.09       1.69       ----

> <Gold.Chemscore.Fitness>
15.1080

> <Gold.Chemscore.DG>
-16.8870

> <Gold.Chemscore.ZeroCoef>
-5.4800

> <Gold.Chemscore.Hbond>
1.9823

> <Gold.Chemscore.Metal>
0.0000

> <Gold.Chemscore.Lipo>
75.3683

> <Gold.Chemscore.Internal_Hbond>
0.0000

> <Gold.Chemscore.DEClash>
0.0885

> <Gold.Chemscore.DEInternal>
1.6905

> <Gold.Chemscore.Rot>
1.5750

> <Gold.Chemscore.Internal.Correction>
   9.000000E+99

> <Gold.Chemscore.Hbonds>
donor molecule, donor type, donor heavy atom, donor atom, acceptor molecule, acceptor atom, score
      L1  H     8    33       P1  7948  0.94
      L1  H    11    34       P1  7948  0.95
      P1  H 10752 10765       L1    20  0.14

> <Gold.Chemscore.Hbond.Weighted>
-6.6209

> <Gold.Chemscore.Metal.Weighted>
-0.0000

> <Gold.Chemscore.Lipo.Weighted>
-8.8181

> <Gold.Chemscore.Internal_Hbond.Weighted>
0.0000

> <Gold.Chemscore.DEClash.Weighted>
0.0885

> <Gold.Chemscore.DEInternal.Weighted>
1.6905

> <Gold.Chemscore.Rot.Weighted>
4.0319

> <Gold.Chemscore.Internal.Correction.Weighted>
   9.000000E+99

> <Gold.Protein.RotatedTorsions>
[ 6907 6896 6895 6894 ] final   30.50 input  -60.11 | X-H torsion
[ 7974 7965 7964 7962 ] final  -38.10 input  175.53 | X-H torsion
[ 8008 7997 7996 7995 ] final  148.59 input   59.86 | X-H torsion
[ 10167 10162 10161 10158 ] final -133.41 input  -65.29 | X-H torsion
[ 10718 10713 10712 10709 ] final   72.35 input   66.30 | X-H torsion
[ 10763 10752 10751 10750 ] final -168.17 input  -60.55 | X-H torsion
[ 11005 11000 10999 10996 ] final  -68.46 input  -57.11 | X-H torsion

> <Gold.Protein.ActiveResidues>
 VAL166  LYS551  ARG553  GLY616  TRP617  ASP618  TYR619  PRO620  LYS621  CYS622 
 ASP623  PHE694  ASN695  SER759  ASP760  ASP761  ALA762  ILE779  LEU786  VAL792 
 PHE793  MET794  SER795  GLU796  ALA797  LYS798  CYS799  TRP800  GLU811  SER814 

> <Gold.Protein.RotatedAtoms>
  152.0469  134.9677  160.0574 H   0  0  0  0  0  0  0  0  0  0  0  0  # atno 6907 bound_to 6896
  152.1093  133.4287  159.4632 H   0  0  0  0  0  0  0  0  0  0  0  0  # atno 6908 bound_to 6896
  150.6843  134.2586  159.4583 H   0  0  0  0  0  0  0  0  0  0  0  0  # atno 6909 bound_to 6896
  146.0516  140.6473  142.9039 H   0  0  0  0  0  0  0  0  0  0  0  0  # atno 7974 bound_to 7965
  156.2786  140.2124  156.5722 H   0  0  0  0  0  0  0  0  0  0  0  0  # atno 8008 bound_to 7997
  154.7126  140.0510  157.0587 H   0  0  0  0  0  0  0  0  0  0  0  0  # atno 8009 bound_to 7997
  155.0585  140.3164  155.4671 H   0  0  0  0  0  0  0  0  0  0  0  0  # atno 8010 bound_to 7997
  139.8986  143.6635  152.2599 H   0  0  0  0  0  0  0  0  0  0  0  0  # atno 10167 bound_to 10162
  157.6497  130.9574  150.0917 H   0  0  0  0  0  0  0  0  0  0  0  0  # atno 10718 bound_to 10713
  154.6656  135.2931  154.9809 H   0  0  0  0  0  0  0  0  0  0  0  0  # atno 10763 bound_to 10752
  154.0854  135.6598  153.4848 H   0  0  0  0  0  0  0  0  0  0  0  0  # atno 10764 bound_to 10752
  153.0455  135.5207  154.7628 H   0  0  0  0  0  0  0  0  0  0  0  0  # atno 10765 bound_to 10752
  141.1532  133.6741  156.6450 H   0  0  0  0  0  0  0  0  0  0  0  0  # atno 11005 bound_to 11000
  144.7126  140.4093  143.7069 LP  0  0  0  0  0  0  0  0  0  0  0  0  # atno 17320 bound_to 7965
  145.6714  139.1600  143.2752 LP  0  0  0  0  0  0  0  0  0  0  0  0  # atno 17321 bound_to 7965
  139.7046  144.7630  151.1215 LP  0  0  0  0  0  0  0  0  0  0  0  0  # atno 17342 bound_to 10162
  140.7712  143.5412  150.9310 LP  0  0  0  0  0  0  0  0  0  0  0  0  # atno 17343 bound_to 10162
  156.1864  130.3652  149.8967 LP  0  0  0  0  0  0  0  0  0  0  0  0  # atno 17370 bound_to 10713
  156.6906  130.8894  151.3588 LP  0  0  0  0  0  0  0  0  0  0  0  0  # atno 17371 bound_to 10713
  140.3364  134.7886  157.4365 LP  0  0  0  0  0  0  0  0  0  0  0  0  # atno 17394 bound_to 11000
  140.0974  134.5519  155.8385 LP  0  0  0  0  0  0  0  0  0  0  0  0  # atno 17395 bound_to 11000

$$$$
