AV-unprocessed.smi:2531|AV-procd|sdf|9967|dock6
  -GOLD-   2272014 13D 1   1.00000     0.00000
 Structure written by MMmdl.
 46 48  0  0  0  0  0  0  0  0  3 V2000
  149.4792  143.6960  158.7905 O   0  0  0  0  0  0  0  0  0  0  0  0
  150.2299  142.8203  158.3578 C   0  0  0  0  0  0  0  0  0  0  0  0
  151.7568  143.0384  158.3283 C   0  0  0  0  0  0  0  0  0  0  0  0
  152.5220  141.9990  159.1804 C   0  0  0  0  0  0  0  0  0  0  0  0
  153.1602  142.7579  160.3537 C   0  0  0  0  0  0  0  0  0  0  0  0
  152.4788  144.1248  160.3860 C   0  0  0  0  0  0  0  0  0  0  0  0
  152.1396  144.4050  158.9231 C   0  0  0  0  0  0  0  0  0  0  0  0
  149.7284  141.6429  157.7949 N   0  0  0  0  0  0  0  0  0  0  0  0
  148.3792  141.5900  157.2503 C   0  0  0  0  0  0  0  0  0  0  0  0
  148.9228  140.5202  156.2963 C   0  0  0  0  0  0  0  0  0  0  0  0
  148.3851  140.7756  154.5460 S   0  0  0  0  0  0  0  0  0  0  0  0
  147.1718  141.6059  154.6184 O   0  0  0  0  0  0  0  0  0  0  0  0
  149.5346  141.3448  153.8235 O   0  0  0  0  0  0  0  0  0  0  0  0
  148.0684  139.2454  154.1079 N   0  5  0  0  0  0  0  0  0  0  0  0
  147.0675  138.9690  153.0900 C   0  0  0  0  0  0  0  0  0  0  0  0
  145.8979  138.1418  153.6701 C   0  0  0  0  0  0  0  0  0  0  0  0
  145.3575  137.0855  152.7157 C   0  0  0  0  0  0  0  0  0  0  0  0
  143.9820  136.7657  152.6508 C   0  0  0  0  0  0  0  0  0  0  0  0
  143.5450  135.7703  151.7521 C   0  0  0  0  0  0  0  0  0  0  0  0
  144.4898  135.1105  150.9392 C   0  0  0  0  0  0  0  0  0  0  0  0
  145.8504  135.4626  151.0460 C   0  0  0  0  0  0  0  0  0  0  0  0
  146.2302  136.4215  151.9186 N   0  3  0  0  0  0  0  0  0  0  0  0
  150.3319  141.0376  156.6160 C   0  0  0  0  0  0  0  0  0  0  0  0
  152.1059  142.9753  157.2971 H   0  0  0  0  0  0  0  0  0  0  0  0
  151.8689  141.2084  159.5533 H   0  0  0  0  0  0  0  0  0  0  0  0
  153.2923  141.5045  158.5875 H   0  0  0  0  0  0  0  0  0  0  0  0
  153.0590  142.2244  161.2995 H   0  0  0  0  0  0  0  0  0  0  0  0
  154.2265  142.8888  160.1643 H   0  0  0  0  0  0  0  0  0  0  0  0
  151.5619  144.0681  160.9742 H   0  0  0  0  0  0  0  0  0  0  0  0
  153.1093  144.8977  160.8262 H   0  0  0  0  0  0  0  0  0  0  0  0
  153.0196  144.7923  158.4082 H   0  0  0  0  0  0  0  0  0  0  0  0
  151.3550  145.1574  158.8274 H   0  0  0  0  0  0  0  0  0  0  0  0
  147.6295  141.2299  157.9553 H   0  0  0  0  0  0  0  0  0  0  0  0
  148.0756  142.5108  156.7477 H   0  0  0  0  0  0  0  0  0  0  0  0
  148.7285  139.5021  156.6368 H   0  0  0  0  0  0  0  0  0  0  0  0
  146.6630  139.8982  152.6876 H   0  0  0  0  0  0  0  0  0  0  0  0
  147.4919  138.4426  152.2344 H   0  0  0  0  0  0  0  0  0  0  0  0
  146.2077  137.6338  154.5832 H   0  0  0  0  0  0  0  0  0  0  0  0
  145.0802  138.8051  153.9553 H   0  0  0  0  0  0  0  0  0  0  0  0
  143.2702  137.2797  153.2805 H   0  0  0  0  0  0  0  0  0  0  0  0
  142.4973  135.5156  151.6882 H   0  0  0  0  0  0  0  0  0  0  0  0
  144.1750  134.3453  150.2446 H   0  0  0  0  0  0  0  0  0  0  0  0
  146.6411  135.0104  150.4653 H   0  0  0  0  0  0  0  0  0  0  0  0
  150.7196  141.7662  155.9028 H   0  0  0  0  0  0  0  0  0  0  0  0
  151.0547  140.2534  156.8425 H   0  0  0  0  0  0  0  0  0  0  0  0
  147.2204  136.6612  151.9798 H   0  0  0  0  0  0  0  0  0  0  0  0
  1  2  2  0  0  0  0
  2  3  1  0  0  0  0
  2  8  1  0  0  0  0
  3  7  1  0  0  0  0
  3  4  1  0  0  0  0
  3 24  1  0  0  0  0
  4  5  1  0  0  0  0
  4 25  1  0  0  0  0
  4 26  1  0  0  0  0
  5  6  1  0  0  0  0
  5 27  1  0  0  0  0
  5 28  1  0  0  0  0
  6  7  1  0  0  0  0
  6 29  1  0  0  0  0
  6 30  1  0  0  0  0
  7 31  1  0  0  0  0
  7 32  1  0  0  0  0
  8 23  1  0  0  0  0
  8  9  1  0  0  0  0
  9 10  1  0  0  0  0
  9 33  1  0  0  0  0
  9 34  1  0  0  0  0
 10 11  1  0  0  0  0
 10 23  1  0  0  0  0
 10 35  1  0  0  0  0
 11 12  2  0  0  0  0
 11 13  2  0  0  0  0
 11 14  1  0  0  0  0
 14 15  1  0  0  0  0
 15 16  1  0  0  0  0
 15 36  1  0  0  0  0
 15 37  1  0  0  0  0
 16 17  1  0  0  0  0
 16 38  1  0  0  0  0
 16 39  1  0  0  0  0
 17 22  1  0  0  0  0
 17 18  2  0  0  0  0
 18 19  1  0  0  0  0
 18 40  1  0  0  0  0
 19 20  2  0  0  0  0
 19 41  1  0  0  0  0
 20 21  1  0  0  0  0
 20 42  1  0  0  0  0
 21 22  2  0  0  0  0
 21 43  1  0  0  0  0
 22 46  1  0  0  0  0
 23 44  1  0  0  0  0
 23 45  1  0  0  0  0
M  CHG  1  14  -1
M  CHG  1  22   1
M  END
> <s_m_source_file>
AV-unprocessed.smi

> <i_m_source_file_index>
2531

> <i_lp_mmshare_version>
43012

> <i_f3d_flags>
0

> <s_epik_input>
W0NIMl0xW0NIMl1bQ0gyXVtDSDJdW0NIXTFDKD1PKU4yW0NIMl1bQ0hdKFtDSDJdMilTKD1PKSg9TylbTkhdW0NIMl1bQ0gyXWMzW2NIXVtjSF1bY0hdW2NIXW4z

> <s_epik_cmdline>
J2VwaWtfcHl0aG9uJywgJy1waCcsICc3LjAnLCAnLXRuJywgJzgnLCAnLW1hJywgJzIwMCcsICctbWV0YWxfYmluZGluZycsICctaW1hZScsICc8aW5maWxlLm1hZT4nLCAnLW9tYWUnLCAnPG91dGZpbGUubWFlPic=

> <r_epik_Ionization_Penalty>
6.66855

> <r_epik_Ionization_Penalty_Charging>
6.66855

> <r_epik_Ionization_Penalty_Neutral>
2.37876e-07

> <r_epik_State_Penalty>
7.51815

> <r_epik_Charging_Adjusted_Penalty>
14.1867

> <i_epik_Tot_Q>
0

> <i_epik_Tot_abs_Q>
2

> <r_epik_Metal_State_Penalty>
3.5378

> <b_epik_Metal_Only>
1

> <s_lp_Force_Field>
OPLS_2005

> <r_lp_Energy>
33.2094

> <b_lp_Chiralities_Consistent>
1

> <s_lp_Variant>
AV-unprocessed.smi:2531-4

> <Gold.Version>
5.8.1

> <Gold.Id.Protein>
6NUR|6NUR_protein|mol2

> <Gold.PLP.Fitness>
48.6501

> <Gold.PLP.PLP>
-41.2020

> <Gold.PLP.part.hbond>
-3.0000

> <Gold.PLP.part.metal>
0.0000

> <Gold.PLP.part.buried>
-6.5297

> <Gold.PLP.part.nonpolar>
-33.4204

> <Gold.PLP.part.repulsive>
1.8970

> <Gold.PLP.ligand.clash>
0.0000

> <Gold.PLP.ligand.torsion>
2.0561

> <Gold.PLP.Chemscore.Hbond>
3.0071

> <Gold.PLP.Chemscore.CHOScore>
0.0000

> <Gold.PLP.Chemscore.Metal>
0.0000

> <Gold.Chemscore.Hbonds>
donor molecule, donor type, donor heavy atom, donor atom, acceptor molecule, acceptor atom, score
      L1  H    22    46       P1  7948  2.00
      P1  H  7989  7998       L1    13  0.18
      P1  H  8011  8017       L1    13  0.80

> <Gold.PLP.Chemscore.Internal.Correction>
2.5389

> <Gold.Rescore>
     Score         DG    S(hbond)    S(metal)    S(lipo)     H(rot)  DE(clash)    DE(int)     intcor
     17.36     -19.60       1.91        0.00     103.58       1.72       0.22       2.03       ----

> <Gold.Chemscore.Fitness>
17.3576

> <Gold.Chemscore.DG>
-19.6024

> <Gold.Chemscore.ZeroCoef>
-5.4800

> <Gold.Chemscore.Hbond>
1.9148

> <Gold.Chemscore.Metal>
0.0000

> <Gold.Chemscore.Lipo>
103.5849

> <Gold.Chemscore.Internal_Hbond>
0.0000

> <Gold.Chemscore.DEClash>
0.2155

> <Gold.Chemscore.DEInternal>
2.0293

> <Gold.Chemscore.Rot>
1.7158

> <Gold.Chemscore.Internal.Correction>
   9.000000E+99

> <Gold.Chemscore.Hbonds>
donor molecule, donor type, donor heavy atom, donor atom, acceptor molecule, acceptor atom, score
      L1  H    22    46       P1  7948  0.95
      P1  H  7989  7998       L1    13  0.18
      P1  H  8011  8017       L1    13  0.80

> <Gold.Chemscore.Hbond.Weighted>
-6.3953

> <Gold.Chemscore.Metal.Weighted>
-0.0000

> <Gold.Chemscore.Lipo.Weighted>
-12.1194

> <Gold.Chemscore.Internal_Hbond.Weighted>
0.0000

> <Gold.Chemscore.DEClash.Weighted>
0.2155

> <Gold.Chemscore.DEInternal.Weighted>
2.0293

> <Gold.Chemscore.Rot.Weighted>
4.3924

> <Gold.Chemscore.Internal.Correction.Weighted>
   9.000000E+99

> <Gold.Protein.RotatedTorsions>
[ 6907 6896 6895 6894 ] final  135.96 input  -60.11 | X-H torsion
[ 7974 7965 7964 7962 ] final -150.93 input  175.53 | X-H torsion
[ 8008 7997 7996 7995 ] final  149.33 input   59.86 | X-H torsion
[ 10167 10162 10161 10158 ] final  111.04 input  -65.29 | X-H torsion
[ 10718 10713 10712 10709 ] final   67.76 input   66.30 | X-H torsion
[ 10763 10752 10751 10750 ] final    5.64 input  -60.55 | X-H torsion
[ 11005 11000 10999 10996 ] final   38.61 input  -57.11 | X-H torsion

> <Gold.Protein.ActiveResidues>
 VAL166  LYS551  ARG553  GLY616  TRP617  ASP618  TYR619  PRO620  LYS621  CYS622 
 ASP623  PHE694  ASN695  SER759  ASP760  ASP761  ALA762  ILE779  LEU786  VAL792 
 PHE793  MET794  SER795  GLU796  ALA797  LYS798  CYS799  TRP800  GLU811  SER814 

> <Gold.Protein.RotatedAtoms>
  152.2947  133.5595  159.5579 H   0  0  0  0  0  0  0  0  0  0  0  0  # atno 6907 bound_to 6896
  150.7250  134.0378  159.3764 H   0  0  0  0  0  0  0  0  0  0  0  0  # atno 6908 bound_to 6896
  151.8282  135.0630  160.0484 H   0  0  0  0  0  0  0  0  0  0  0  0  # atno 6909 bound_to 6896
  144.7879  140.4865  143.5793 H   0  0  0  0  0  0  0  0  0  0  0  0  # atno 7974 bound_to 7965
  156.2759  140.2105  156.5840 H   0  0  0  0  0  0  0  0  0  0  0  0  # atno 8008 bound_to 7997
  154.7036  140.0518  157.0505 H   0  0  0  0  0  0  0  0  0  0  0  0  # atno 8009 bound_to 7997
  155.0702  140.3176  155.4636 H   0  0  0  0  0  0  0  0  0  0  0  0  # atno 8010 bound_to 7997
  139.6642  144.7128  151.1808 H   0  0  0  0  0  0  0  0  0  0  0  0  # atno 10167 bound_to 10162
  157.6249  130.9338  150.0285 H   0  0  0  0  0  0  0  0  0  0  0  0  # atno 10718 bound_to 10713
  153.2570  135.6919  153.7618 H   0  0  0  0  0  0  0  0  0  0  0  0  # atno 10763 bound_to 10752
  153.6691  135.3347  155.3149 H   0  0  0  0  0  0  0  0  0  0  0  0  # atno 10764 bound_to 10752
  154.8416  135.4495  154.1547 H   0  0  0  0  0  0  0  0  0  0  0  0  # atno 10765 bound_to 10752
  140.2109  134.3756  155.8049 H   0  0  0  0  0  0  0  0  0  0  0  0  # atno 11005 bound_to 11000
  145.5873  139.1493  143.3202 LP  0  0  0  0  0  0  0  0  0  0  0  0  # atno 17320 bound_to 7965
  146.2118  140.6000  142.9056 LP  0  0  0  0  0  0  0  0  0  0  0  0  # atno 17321 bound_to 7965
  140.7592  143.5946  150.8761 LP  0  0  0  0  0  0  0  0  0  0  0  0  # atno 17342 bound_to 10162
  139.9606  143.6168  152.3003 LP  0  0  0  0  0  0  0  0  0  0  0  0  # atno 17343 bound_to 10162
  156.1416  130.3642  149.9574 LP  0  0  0  0  0  0  0  0  0  0  0  0  # atno 17370 bound_to 10713
  156.7614  130.9152  151.3641 LP  0  0  0  0  0  0  0  0  0  0  0  0  # atno 17371 bound_to 10713
  141.2226  133.7142  156.8416 LP  0  0  0  0  0  0  0  0  0  0  0  0  # atno 17394 bound_to 11000
  140.1952  134.8937  157.3106 LP  0  0  0  0  0  0  0  0  0  0  0  0  # atno 17395 bound_to 11000

$$$$
