AV-unprocessed.smi:99|AV-procd|sdf|880|dock9
  -GOLD-   2262017353D 1   1.00000     0.00000
 Structure written by MMmdl.
 53 56  0  0  0  0  0  0  0  0  1 V2000
  153.1866  139.9822  159.9826 O   0  0  0  0  0  0  0  0  0  0  0  0
  152.6227  140.8194  159.2756 C   0  0  0  0  0  0  0  0  0  0  0  0
  152.0560  140.5344  158.0876 O   0  0  0  0  0  0  0  0  0  0  0  0
  151.5620  139.2326  157.8171 C   0  0  0  0  0  0  0  0  0  0  0  0
  150.1453  139.3496  157.2411 C   0  0  1  0  0  0  0  0  0  0  0  0
  150.2088  139.7300  155.8697 O   0  0  0  0  0  0  0  0  0  0  0  0
  149.0674  139.2825  155.1914 C   0  0  2  0  0  0  0  0  0  0  0  0
  148.2559  140.4765  154.7283 N   0  0  0  0  0  0  0  0  0  0  0  0
  148.6419  141.7844  154.9956 C   0  0  0  0  0  0  0  0  0  0  0  0
  147.9270  142.8612  154.5917 C   0  0  0  0  0  0  0  0  0  0  0  0
  146.6869  142.6892  153.8417 C   0  0  0  0  0  0  0  0  0  0  0  0
  145.9746  143.6026  153.4310 O   0  0  0  0  0  0  0  0  0  0  0  0
  146.3319  141.3582  153.6051 N   0  0  0  0  0  0  0  0  0  0  0  0
  147.0581  140.2407  154.0195 C   0  0  0  0  0  0  0  0  0  0  0  0
  146.6453  139.1084  153.7717 O   0  0  0  0  0  0  0  0  0  0  0  0
  148.2873  138.3568  156.1544 C   0  0  2  0  0  0  0  0  0  0  0  0
  147.1764  139.0041  156.7580 O   0  0  0  0  0  0  0  0  0  0  0  0
  149.3690  138.0351  157.1735 C   0  0  2  0  0  0  0  0  0  0  0  0
  148.8230  137.5956  158.4147 O   0  0  0  0  0  0  0  0  0  0  0  0
  148.2415  136.3820  158.5362 C   0  0  0  0  0  0  0  0  0  0  0  0
  148.1599  135.5644  157.6176 O   0  0  0  0  0  0  0  0  0  0  0  0
  147.7445  136.1161  159.9160 C   0  0  0  0  0  0  0  0  0  0  0  0
  147.3106  134.8137  160.2569 C   0  0  0  0  0  0  0  0  0  0  0  0
  146.8618  134.5258  161.5603 C   0  0  0  0  0  0  0  0  0  0  0  0
  146.8372  135.5379  162.5372 C   0  0  0  0  0  0  0  0  0  0  0  0
  147.2618  136.8386  162.2094 C   0  0  0  0  0  0  0  0  0  0  0  0
  147.7138  137.1278  160.9071 C   0  0  0  0  0  0  0  0  0  0  0  0
  152.4679  142.2529  159.6572 C   0  0  0  0  0  0  0  0  0  0  0  0
  152.5819  142.6252  161.0169 C   0  0  0  0  0  0  0  0  0  0  0  0
  152.4131  143.9674  161.4094 C   0  0  0  0  0  0  0  0  0  0  0  0
  152.1298  144.9539  160.4468 C   0  0  0  0  0  0  0  0  0  0  0  0
  152.0200  144.5975  159.0901 C   0  0  0  0  0  0  0  0  0  0  0  0
  152.1903  143.2564  158.6959 C   0  0  0  0  0  0  0  0  0  0  0  0
  145.4766  141.1919  153.0945 H   0  0  0  0  0  0  0  0  0  0  0  0
  152.2239  138.7474  157.0990 H   0  0  0  0  0  0  0  0  0  0  0  0
  151.5469  138.6187  158.7188 H   0  0  0  0  0  0  0  0  0  0  0  0
  149.5740  140.1036  157.7852 H   0  0  0  0  0  0  0  0  0  0  0  0
  149.4108  138.7753  154.2877 H   0  0  0  0  0  0  0  0  0  0  0  0
  149.5462  141.9756  155.5532 H   0  0  0  0  0  0  0  0  0  0  0  0
  148.2740  143.8573  154.8264 H   0  0  0  0  0  0  0  0  0  0  0  0
  147.9405  137.4691  155.6245 H   0  0  0  0  0  0  0  0  0  0  0  0
  146.9436  139.7514  156.2282 H   0  0  0  0  0  0  0  0  0  0  0  0
  150.0142  137.2728  156.7341 H   0  0  0  0  0  0  0  0  0  0  0  0
  147.3279  134.0185  159.5255 H   0  0  0  0  0  0  0  0  0  0  0  0
  146.5397  133.5260  161.8110 H   0  0  0  0  0  0  0  0  0  0  0  0
  146.4940  135.3168  163.5371 H   0  0  0  0  0  0  0  0  0  0  0  0
  147.2430  137.6166  162.9583 H   0  0  0  0  0  0  0  0  0  0  0  0
  148.0364  138.1355  160.6893 H   0  0  0  0  0  0  0  0  0  0  0  0
  152.7915  141.8839  161.7748 H   0  0  0  0  0  0  0  0  0  0  0  0
  152.4981  144.2389  162.4514 H   0  0  0  0  0  0  0  0  0  0  0  0
  151.9960  145.9822  160.7485 H   0  0  0  0  0  0  0  0  0  0  0  0
  151.7987  145.3522  158.3500 H   0  0  0  0  0  0  0  0  0  0  0  0
  152.0916  143.0170  157.6469 H   0  0  0  0  0  0  0  0  0  0  0  0
  1  2  2  0  0  0  0
  2  3  1  0  0  0  0
  2 28  1  0  0  0  0
  3  4  1  0  0  0  0
  4  5  1  0  0  0  0
  4 35  1  0  0  0  0
  4 36  1  0  0  0  0
  5 18  1  0  0  0  0
  5  6  1  0  0  0  0
  5 37  1  0  0  0  0
  6  7  1  0  0  0  0
  7  8  1  0  0  0  0
  7 16  1  0  0  0  0
  7 38  1  0  0  0  0
  8 14  1  0  0  0  0
  8  9  1  0  0  0  0
  9 10  2  0  0  0  0
  9 39  1  0  0  0  0
 10 11  1  0  0  0  0
 10 40  1  0  0  0  0
 11 12  2  0  0  0  0
 11 13  1  0  0  0  0
 13 34  1  0  0  0  0
 13 14  1  0  0  0  0
 14 15  2  0  0  0  0
 16 17  1  0  0  0  0
 16 18  1  0  0  0  0
 16 41  1  0  0  0  0
 17 42  1  0  0  0  0
 18 19  1  0  0  0  0
 18 43  1  0  0  0  0
 19 20  1  0  0  0  0
 20 21  2  0  0  0  0
 20 22  1  0  0  0  0
 22 27  1  0  0  0  0
 22 23  2  0  0  0  0
 23 24  1  0  0  0  0
 23 44  1  0  0  0  0
 24 25  2  0  0  0  0
 24 45  1  0  0  0  0
 25 26  1  0  0  0  0
 25 46  1  0  0  0  0
 26 27  2  0  0  0  0
 26 47  1  0  0  0  0
 27 48  1  0  0  0  0
 28 33  1  0  0  0  0
 28 29  2  0  0  0  0
 29 30  1  0  0  0  0
 29 49  1  0  0  0  0
 30 31  2  0  0  0  0
 30 50  1  0  0  0  0
 31 32  1  0  0  0  0
 31 51  1  0  0  0  0
 32 33  2  0  0  0  0
 32 52  1  0  0  0  0
 33 53  1  0  0  0  0
M  END
> <s_m_source_file>
AV-unprocessed.smi

> <i_m_source_file_index>
99

> <i_lp_mmshare_version>
43012

> <i_f3d_flags>
0

> <s_epik_input>
W2NIXTFbY0hdW2NIXVtjSF1bY0hdYzFDKD1PKU9bQ0gyXVtDQEBIXTJPW0NAQEhdKG4zW2NIXVtjSF1jKD1PKVtuSF1jMz1PKVtDQEBIXShbT0hdKVtDQEhdMk9DKD1PKWM0W2NIXVtjSF1bY0hdW2NIXVtjSF00

> <s_epik_cmdline>
J2VwaWtfcHl0aG9uJywgJy1waCcsICc3LjAnLCAnLXRuJywgJzgnLCAnLW1hJywgJzIwMCcsICctbWV0YWxfYmluZGluZycsICctaW1hZScsICc8aW5maWxlLm1hZT4nLCAnLW9tYWUnLCAnPG91dGZpbGUubWFlPic=

> <r_lp_tautomer_probability>
1

> <r_epik_Ionization_Penalty>
0.00454555

> <r_epik_Ionization_Penalty_Charging>
0.0045191

> <r_epik_Ionization_Penalty_Neutral>
2.64449e-05

> <r_epik_State_Penalty>
-0

> <r_epik_Charging_Adjusted_Penalty>
0.0045191

> <i_epik_Tot_Q>
0

> <i_epik_Tot_abs_Q>
0

> <r_epik_Metal_State_Penalty>
1.27877

> <b_epik_Metal_Only>
0

> <s_epik_Chemistry_Notes>
This compound has an ester and may undergo hydrolysis at high or low pH. This compound contains an acetal/aminal-like group ( X-CH(R)-Y where X, Y are N, S, or O) that may be acid/base labile, releasing an aldehyde.

> <s_lp_Force_Field>
OPLS_2005

> <r_lp_Energy>
44.2289

> <b_lp_Chiralities_Consistent>
1

> <s_lp_Variant>
AV-unprocessed.smi:99-16

> <Gold.Version>
5.8.1

> <Gold.Id.Protein>
6NUR|6NUR_protein|mol2

> <Gold.PLP.Fitness>
57.2543

> <Gold.PLP.PLP>
-56.1476

> <Gold.PLP.part.hbond>
-1.0000

> <Gold.PLP.part.metal>
0.0000

> <Gold.PLP.part.buried>
-5.1715

> <Gold.PLP.part.nonpolar>
-50.2875

> <Gold.PLP.part.repulsive>
0.3734

> <Gold.PLP.ligand.clash>
0.0000

> <Gold.PLP.ligand.torsion>
1.0931

> <Gold.PLP.Chemscore.Hbond>
1.0000

> <Gold.PLP.Chemscore.CHOScore>
0.0000

> <Gold.PLP.Chemscore.Metal>
0.0000

> <Gold.Chemscore.Hbonds>
donor molecule, donor type, donor heavy atom, donor atom, acceptor molecule, acceptor atom, score
      L1  H    13    34       P1 10175  0.90
      L1  C     9    39       P1  8028  0.05

> <Gold.PLP.Chemscore.Internal.Correction>
0.2928

> <Gold.Rescore>
     Score         DG    S(hbond)    S(metal)    S(lipo)     H(rot)  DE(clash)    DE(int)     intcor
     15.32     -16.72       0.97        0.00     138.27       3.19       0.22       1.17       ----

> <Gold.Chemscore.Fitness>
15.3215

> <Gold.Chemscore.DG>
-16.7159

> <Gold.Chemscore.ZeroCoef>
-5.4800

> <Gold.Chemscore.Hbond>
0.9658

> <Gold.Chemscore.Metal>
0.0000

> <Gold.Chemscore.Lipo>
138.2668

> <Gold.Chemscore.Internal_Hbond>
0.0000

> <Gold.Chemscore.DEClash>
0.2250

> <Gold.Chemscore.DEInternal>
1.1695

> <Gold.Chemscore.Rot>
3.1903

> <Gold.Chemscore.Internal.Correction>
   9.000000E+99

> <Gold.Chemscore.Hbonds>
donor molecule, donor type, donor heavy atom, donor atom, acceptor molecule, acceptor atom, score
      L1  H    13    34       P1 10175  0.17

> <Gold.Chemscore.Hbond.Weighted>
-3.2258

> <Gold.Chemscore.Metal.Weighted>
-0.0000

> <Gold.Chemscore.Lipo.Weighted>
-16.1772

> <Gold.Chemscore.Internal_Hbond.Weighted>
0.0000

> <Gold.Chemscore.DEClash.Weighted>
0.2250

> <Gold.Chemscore.DEInternal.Weighted>
1.1695

> <Gold.Chemscore.Rot.Weighted>
8.1671

> <Gold.Chemscore.Internal.Correction.Weighted>
   9.000000E+99

> <Gold.Protein.RotatedTorsions>
[ 6907 6896 6895 6894 ] final -143.49 input  -60.11 | X-H torsion
[ 7974 7965 7964 7962 ] final   21.09 input  175.53 | X-H torsion
[ 8008 7997 7996 7995 ] final  121.44 input   59.86 | X-H torsion
[ 10167 10162 10161 10158 ] final   -6.89 input  -65.29 | X-H torsion
[ 10718 10713 10712 10709 ] final   53.01 input   66.30 | X-H torsion
[ 10763 10752 10751 10750 ] final  179.61 input  -60.55 | X-H torsion
[ 11005 11000 10999 10996 ] final   66.04 input  -57.11 | X-H torsion

> <Gold.Protein.ActiveResidues>
 VAL166  LYS551  ARG553  GLY616  TRP617  ASP618  TYR619  PRO620  LYS621  CYS622 
 ASP623  PHE694  ASN695  SER759  ASP760  ASP761  ALA762  ILE779  LEU786  VAL792 
 PHE793  MET794  SER795  GLU796  ALA797  LYS798  CYS799  TRP800  GLU811  SER814 

> <Gold.Protein.RotatedAtoms>
  151.1012  133.5242  159.2609 H   0  0  0  0  0  0  0  0  0  0  0  0  # atno 6907 bound_to 6896
  151.2072  135.0466  159.8906 H   0  0  0  0  0  0  0  0  0  0  0  0  # atno 6908 bound_to 6896
  152.5443  134.0832  159.8298 H   0  0  0  0  0  0  0  0  0  0  0  0  # atno 6909 bound_to 6896
  146.2085  139.8077  142.8707 H   0  0  0  0  0  0  0  0  0  0  0  0  # atno 7974 bound_to 7965
  156.2686  140.2808  156.1309 H   0  0  0  0  0  0  0  0  0  0  0  0  # atno 8008 bound_to 7997
  155.1055  140.0390  157.2727 H   0  0  0  0  0  0  0  0  0  0  0  0  # atno 8009 bound_to 7997
  154.6782  140.2603  155.6941 H   0  0  0  0  0  0  0  0  0  0  0  0  # atno 8010 bound_to 7997
  140.7011  143.6142  150.8674 H   0  0  0  0  0  0  0  0  0  0  0  0  # atno 10167 bound_to 10162
  157.5128  130.8512  149.8457 H   0  0  0  0  0  0  0  0  0  0  0  0  # atno 10718 bound_to 10713
  154.5229  135.2795  155.1247 H   0  0  0  0  0  0  0  0  0  0  0  0  # atno 10763 bound_to 10752
  154.2797  135.6288  153.5346 H   0  0  0  0  0  0  0  0  0  0  0  0  # atno 10764 bound_to 10752
  152.9940  135.5648  154.5723 H   0  0  0  0  0  0  0  0  0  0  0  0  # atno 10765 bound_to 10752
  139.9856  134.6673  156.0181 H   0  0  0  0  0  0  0  0  0  0  0  0  # atno 11005 bound_to 11000
  145.3229  141.0248  143.3490 LP  0  0  0  0  0  0  0  0  0  0  0  0  # atno 17320 bound_to 7965
  144.8854  139.4847  143.6703 LP  0  0  0  0  0  0  0  0  0  0  0  0  # atno 17321 bound_to 7965
  139.9864  143.5894  152.2925 LP  0  0  0  0  0  0  0  0  0  0  0  0  # atno 17342 bound_to 10162
  139.6534  144.7661  151.2103 LP  0  0  0  0  0  0  0  0  0  0  0  0  # atno 17343 bound_to 10162
  156.0300  130.3767  150.1714 LP  0  0  0  0  0  0  0  0  0  0  0  0  # atno 17370 bound_to 10713
  156.9903  130.9891  151.3416 LP  0  0  0  0  0  0  0  0  0  0  0  0  # atno 17371 bound_to 10713
  141.1522  133.6547  156.4048 LP  0  0  0  0  0  0  0  0  0  0  0  0  # atno 17394 bound_to 11000
  140.5008  134.6487  157.5248 LP  0  0  0  0  0  0  0  0  0  0  0  0  # atno 17395 bound_to 11000

$$$$
