AV-unprocessed.smi:2188|AV-procd|sdf|8881|dock1
  -GOLD-   2272012 83D 1   1.00000     0.00000
 Structure written by MMmdl.
 40 42  0  0  0  0  0  0  0  0  2 V2000
  153.5318  138.7665  159.9012 O   0  0  0  0  0  0  0  0  0  0  0  0
  153.7516  139.9530  160.1530 C   0  0  0  0  0  0  0  0  0  0  0  0
  154.7443  140.3063  160.9938 N   0  0  0  0  0  0  0  0  0  0  0  0
  155.6581  139.3932  161.6785 C   0  0  0  0  0  0  0  0  0  0  0  0
  155.2151  139.0820  163.1225 C   0  0  0  0  0  0  0  0  0  0  0  0
  154.9227  137.6116  163.3688 C   0  0  0  0  0  0  0  0  0  0  0  0
  155.0855  136.6597  162.3374 C   0  0  0  0  0  0  0  0  0  0  0  0
  154.7662  135.3088  162.5861 C   0  0  0  0  0  0  0  0  0  0  0  0
  154.2925  134.9389  163.8614 C   0  0  0  0  0  0  0  0  0  0  0  0
  154.1545  135.8758  164.8251 N   0  3  0  0  0  0  0  0  0  0  0  0
  154.4516  137.1789  164.6275 C   0  0  0  0  0  0  0  0  0  0  0  0
  153.0062  141.0951  159.5831 C   0  0  0  0  0  0  0  0  0  0  0  0
  152.9560  142.2686  160.2703 C   0  0  0  0  0  0  0  0  0  0  0  0
  152.2302  143.4119  159.7763 C   0  0  0  0  0  0  0  0  0  0  0  0
  151.6287  143.3094  158.5870 C   0  0  0  0  0  0  0  0  0  0  0  0
  151.6742  142.1560  157.8070 N   0  0  0  0  0  0  0  0  0  0  0  0
  151.0744  142.2347  156.4790 C   0  0  0  0  0  0  0  0  0  0  0  0
  150.3250  140.9547  156.1587 C   0  0  0  0  0  0  0  0  0  0  0  0
  151.5877  139.6335  156.1278 S   0  0  0  0  0  0  0  0  0  0  0  0
  150.8943  138.3379  156.0724 O   0  0  0  0  0  0  0  0  0  0  0  0
  152.5761  139.9691  155.0908 O   0  0  0  0  0  0  0  0  0  0  0  0
  152.2830  139.8431  157.6369 N   0  0  0  0  0  0  0  0  0  0  0  0
  152.3153  140.9761  158.2803 C   0  0  0  0  0  0  0  0  0  0  0  0
  154.8761  141.2915  161.1715 H   0  0  0  0  0  0  0  0  0  0  0  0
  155.6953  138.4668  161.1050 H   0  0  0  0  0  0  0  0  0  0  0  0
  156.6739  139.7915  161.6713 H   0  0  0  0  0  0  0  0  0  0  0  0
  155.9823  139.4177  163.8214 H   0  0  0  0  0  0  0  0  0  0  0  0
  154.3189  139.6565  163.3597 H   0  0  0  0  0  0  0  0  0  0  0  0
  155.4374  136.9613  161.3616 H   0  0  0  0  0  0  0  0  0  0  0  0
  154.8773  134.5684  161.8078 H   0  0  0  0  0  0  0  0  0  0  0  0
  154.0200  133.9305  164.1372 H   0  0  0  0  0  0  0  0  0  0  0  0
  154.2860  137.8341  165.4703 H   0  0  0  0  0  0  0  0  0  0  0  0
  153.4647  142.3955  161.2148 H   0  0  0  0  0  0  0  0  0  0  0  0
  152.1703  144.3236  160.3524 H   0  0  0  0  0  0  0  0  0  0  0  0
  151.0679  144.1310  158.1653 H   0  0  0  0  0  0  0  0  0  0  0  0
  150.3793  143.0727  156.4184 H   0  0  0  0  0  0  0  0  0  0  0  0
  151.8550  142.4235  155.7415 H   0  0  0  0  0  0  0  0  0  0  0  0
  149.5705  140.7194  156.9100 H   0  0  0  0  0  0  0  0  0  0  0  0
  149.8424  141.0007  155.1826 H   0  0  0  0  0  0  0  0  0  0  0  0
  153.8055  135.5881  165.7396 H   0  0  0  0  0  0  0  0  0  0  0  0
  1  2  2  0  0  0  0
  2  3  1  0  0  0  0
  2 12  1  0  0  0  0
  3  4  1  0  0  0  0
  3 24  1  0  0  0  0
  4  5  1  0  0  0  0
  4 25  1  0  0  0  0
  4 26  1  0  0  0  0
  5  6  1  0  0  0  0
  5 27  1  0  0  0  0
  5 28  1  0  0  0  0
  6 11  1  0  0  0  0
  6  7  2  0  0  0  0
  7  8  1  0  0  0  0
  7 29  1  0  0  0  0
  8  9  2  0  0  0  0
  8 30  1  0  0  0  0
  9 10  1  0  0  0  0
  9 31  1  0  0  0  0
 10 11  2  0  0  0  0
 10 40  1  0  0  0  0
 11 32  1  0  0  0  0
 12 23  1  0  0  0  0
 12 13  2  0  0  0  0
 13 14  1  0  0  0  0
 13 33  1  0  0  0  0
 14 15  2  0  0  0  0
 14 34  1  0  0  0  0
 15 16  1  0  0  0  0
 15 35  1  0  0  0  0
 16 23  1  0  0  0  0
 16 17  1  0  0  0  0
 17 18  1  0  0  0  0
 17 36  1  0  0  0  0
 17 37  1  0  0  0  0
 18 19  1  0  0  0  0
 18 38  1  0  0  0  0
 18 39  1  0  0  0  0
 19 20  2  0  0  0  0
 19 21  2  0  0  0  0
 19 22  1  0  0  0  0
 22 23  2  0  0  0  0
M  CHG  1  10   1
M  END
> <s_m_source_file>
AV-unprocessed.smi

> <i_m_source_file_index>
2188

> <i_lp_mmshare_version>
43012

> <i_f3d_flags>
0

> <s_epik_input>
W0NIMl0xW0NIMl1TKD1PKSg9TylOPUMoTjEyKUMoPVtDSF1bQ0hdPVtDSF0yKUMoPU8pW05IXVtDSDJdW0NIMl1jM1tjSF1bY0hdW2NIXW5bY0hdMw==

> <s_epik_cmdline>
J2VwaWtfcHl0aG9uJywgJy1waCcsICc3LjAnLCAnLXRuJywgJzgnLCAnLW1hJywgJzIwMCcsICctbWV0YWxfYmluZGluZycsICctaW1hZScsICc8aW5maWxlLm1hZT4nLCAnLW9tYWUnLCAnPG91dGZpbGUubWFlPic=

> <r_epik_Ionization_Penalty>
2.45954

> <r_epik_Ionization_Penalty_Charging>
2.45946

> <r_epik_Ionization_Penalty_Neutral>
8.13788e-05

> <r_epik_State_Penalty>
2.62155

> <r_epik_Charging_Adjusted_Penalty>
5.08101

> <i_epik_Tot_Q>
1

> <i_epik_Tot_abs_Q>
1

> <r_epik_Metal_State_Penalty>
2.74793

> <b_epik_Metal_Only>
0

> <s_lp_Force_Field>
OPLS_2005

> <r_lp_Energy>
33.7727

> <b_lp_Chiralities_Consistent>
1

> <s_lp_Variant>
AV-unprocessed.smi:2188-2

> <Gold.Version>
5.8.1

> <Gold.Id.Protein>
6NUR|6NUR_protein|mol2

> <Gold.PLP.Fitness>
47.0222

> <Gold.PLP.PLP>
-44.0459

> <Gold.PLP.part.hbond>
-2.9916

> <Gold.PLP.part.metal>
0.0000

> <Gold.PLP.part.buried>
-6.0675

> <Gold.PLP.part.nonpolar>
-34.6825

> <Gold.PLP.part.repulsive>
0.1606

> <Gold.PLP.ligand.clash>
0.0000

> <Gold.PLP.ligand.torsion>
0.8225

> <Gold.PLP.Chemscore.Hbond>
1.4860

> <Gold.PLP.Chemscore.CHOScore>
0.0000

> <Gold.PLP.Chemscore.Metal>
0.0000

> <Gold.Chemscore.Hbonds>
donor molecule, donor type, donor heavy atom, donor atom, acceptor molecule, acceptor atom, score
      P1  H  7989  7998       L1    21  0.56
      P1  H  7997  8008       L1    21  0.96

> <Gold.PLP.Chemscore.Internal.Correction>
0.1633

> <Gold.Rescore>
     Score         DG    S(hbond)    S(metal)    S(lipo)     H(rot)  DE(clash)    DE(int)     intcor
     14.97     -17.37       1.17        0.00     101.71       1.54       0.15       2.24       ----

> <Gold.Chemscore.Fitness>
14.9748

> <Gold.Chemscore.DG>
-17.3726

> <Gold.Chemscore.ZeroCoef>
-5.4800

> <Gold.Chemscore.Hbond>
1.1748

> <Gold.Chemscore.Metal>
0.0000

> <Gold.Chemscore.Lipo>
101.7062

> <Gold.Chemscore.Internal_Hbond>
0.0000

> <Gold.Chemscore.DEClash>
0.1536

> <Gold.Chemscore.DEInternal>
2.2442

> <Gold.Chemscore.Rot>
1.5355

> <Gold.Chemscore.Internal.Correction>
   9.000000E+99

> <Gold.Chemscore.Hbonds>
donor molecule, donor type, donor heavy atom, donor atom, acceptor molecule, acceptor atom, score
      P1  H  7989  7998       L1    21  0.41
      P1  H  7997  8008       L1    21  0.72

> <Gold.Chemscore.Hbond.Weighted>
-3.9239

> <Gold.Chemscore.Metal.Weighted>
-0.0000

> <Gold.Chemscore.Lipo.Weighted>
-11.8996

> <Gold.Chemscore.Internal_Hbond.Weighted>
0.0000

> <Gold.Chemscore.DEClash.Weighted>
0.1536

> <Gold.Chemscore.DEInternal.Weighted>
2.2442

> <Gold.Chemscore.Rot.Weighted>
3.9309

> <Gold.Chemscore.Internal.Correction.Weighted>
   9.000000E+99

> <Gold.Protein.RotatedTorsions>
[ 6907 6896 6895 6894 ] final  167.98 input  -60.11 | X-H torsion
[ 7974 7965 7964 7962 ] final  168.58 input  175.53 | X-H torsion
[ 8008 7997 7996 7995 ] final  -17.83 input   59.86 | X-H torsion
[ 10167 10162 10161 10158 ] final -153.59 input  -65.29 | X-H torsion
[ 10718 10713 10712 10709 ] final  126.48 input   66.30 | X-H torsion
[ 10763 10752 10751 10750 ] final   44.41 input  -60.55 | X-H torsion
[ 11005 11000 10999 10996 ] final   49.71 input  -57.11 | X-H torsion

> <Gold.Protein.ActiveResidues>
 VAL166  LYS551  ARG553  GLY616  TRP617  ASP618  TYR619  PRO620  LYS621  CYS622 
 ASP623  PHE694  ASN695  SER759  ASP760  ASP761  ALA762  ILE779  LEU786  VAL792 
 PHE793  MET794  SER795  GLU796  ALA797  LYS798  CYS799  TRP800  GLU811  SER814 

> <Gold.Protein.RotatedAtoms>
  151.8548  133.3446  159.3684 H   0  0  0  0  0  0  0  0  0  0  0  0  # atno 6907 bound_to 6896
  150.7196  134.5264  159.5688 H   0  0  0  0  0  0  0  0  0  0  0  0  # atno 6908 bound_to 6896
  152.2765  134.7877  160.0455 H   0  0  0  0  0  0  0  0  0  0  0  0  # atno 6909 bound_to 6896
  144.7384  139.8928  143.6404 H   0  0  0  0  0  0  0  0  0  0  0  0  # atno 7974 bound_to 7965
  154.4950  140.2132  155.9467 H   0  0  0  0  0  0  0  0  0  0  0  0  # atno 8008 bound_to 7997
  156.1357  140.3189  155.8386 H   0  0  0  0  0  0  0  0  0  0  0  0  # atno 8009 bound_to 7997
  155.4213  140.0497  157.3016 H   0  0  0  0  0  0  0  0  0  0  0  0  # atno 8010 bound_to 7997
  139.7084  143.9149  152.2458 H   0  0  0  0  0  0  0  0  0  0  0  0  # atno 10167 bound_to 10162
  157.5415  131.1096  150.8851 H   0  0  0  0  0  0  0  0  0  0  0  0  # atno 10718 bound_to 10713
  152.9842  135.6071  154.3270 H   0  0  0  0  0  0  0  0  0  0  0  0  # atno 10763 bound_to 10752
  154.2976  135.2773  155.2628 H   0  0  0  0  0  0  0  0  0  0  0  0  # atno 10764 bound_to 10752
  154.4895  135.5896  153.6505 H   0  0  0  0  0  0  0  0  0  0  0  0  # atno 10765 bound_to 10752
  140.1080  134.4992  155.8703 H   0  0  0  0  0  0  0  0  0  0  0  0  # atno 11005 bound_to 11000
  146.1129  139.4136  143.0276 LP  0  0  0  0  0  0  0  0  0  0  0  0  # atno 17320 bound_to 7965
  145.7417  141.0005  143.1297 LP  0  0  0  0  0  0  0  0  0  0  0  0  # atno 17321 bound_to 7965
  139.9011  144.6911  150.8664 LP  0  0  0  0  0  0  0  0  0  0  0  0  # atno 17342 bound_to 10162
  140.7727  143.3513  151.2008 LP  0  0  0  0  0  0  0  0  0  0  0  0  # atno 17343 bound_to 10162
  156.9402  130.5382  149.5280 LP  0  0  0  0  0  0  0  0  0  0  0  0  # atno 17370 bound_to 10713
  156.0501  130.5571  150.8969 LP  0  0  0  0  0  0  0  0  0  0  0  0  # atno 17371 bound_to 10713
  141.2123  133.6718  156.6649 LP  0  0  0  0  0  0  0  0  0  0  0  0  # atno 17394 bound_to 11000
  140.3129  134.8071  157.4191 LP  0  0  0  0  0  0  0  0  0  0  0  0  # atno 17395 bound_to 11000

$$$$
