AV-unprocessed.smi:39|AV-procd|sdf|366|dock2
  -GOLD-   2262016203D 1   1.00000     0.00000
 Structure written by MMmdl.
 31 32  0  0  0  0  0  0  0  0  4 V2000
  147.6330  133.9737  153.4644 C   0  0  0  0  0  0  0  0  0  0  0  0
  148.2205  134.4160  154.7934 C   0  0  0  0  0  0  0  0  0  0  0  0
  149.3345  135.1774  154.8714 C   0  0  0  0  0  0  0  0  0  0  0  0
  149.8660  135.5821  156.0852 N   0  0  0  0  0  0  0  0  0  0  0  0
  151.1215  136.4284  156.1634 C   0  0  2  0  0  0  0  0  0  0  0  0
  150.8785  137.7139  156.9678 C   0  0  0  0  0  0  0  0  0  0  0  0
  151.6575  138.7518  156.1767 C   0  0  1  0  0  0  0  0  0  0  0  0
  153.0756  138.7700  156.5553 N   0  0  0  0  0  0  0  0  0  0  0  0
  153.6246  137.6700  156.7021 N   0  3  0  0  0  0  0  0  0  0  0  0
  154.2054  136.6924  156.7434 N   0  5  0  0  0  0  0  0  0  0  0  0
  151.4848  138.2450  154.7398 C   0  0  2  0  0  0  0  0  0  0  0  0
  150.1541  138.6909  154.1009 C   0  0  0  0  0  0  0  0  0  0  0  0
  150.1636  140.0849  153.8792 O   0  0  0  0  0  0  0  0  0  0  0  0
  151.5125  136.8235  154.8776 O   0  0  0  0  0  0  0  0  0  0  0  0
  149.2529  135.1537  157.2924 C   0  0  0  0  0  0  0  0  0  0  0  0
  149.7721  135.4918  158.3563 O   0  0  0  0  0  0  0  0  0  0  0  0
  148.1248  134.3910  157.2233 N   0  5  0  0  0  0  0  0  0  0  0  0
  147.5665  134.0039  156.0409 C   0  0  0  0  0  0  0  0  0  0  0  0
  146.5415  133.3246  155.9927 O   0  0  0  0  0  0  0  0  0  0  0  0
  151.8884  135.7795  156.5898 H   0  0  0  0  0  0  0  0  0  0  0  0
  151.2223  139.7459  156.2956 H   0  0  0  0  0  0  0  0  0  0  0  0
  152.3144  138.5789  154.1143 H   0  0  0  0  0  0  0  0  0  0  0  0
  148.2203  134.3494  152.6262 H   0  0  0  0  0  0  0  0  0  0  0  0
  146.6137  134.3453  153.3558 H   0  0  0  0  0  0  0  0  0  0  0  0
  147.6122  132.8853  153.4015 H   0  0  0  0  0  0  0  0  0  0  0  0
  149.8138  135.4696  153.9499 H   0  0  0  0  0  0  0  0  0  0  0  0
  149.8149  137.9575  156.9598 H   0  0  0  0  0  0  0  0  0  0  0  0
  151.2006  137.6006  158.0036 H   0  0  0  0  0  0  0  0  0  0  0  0
  149.9447  138.1609  153.1722 H   0  0  0  0  0  0  0  0  0  0  0  0
  149.3259  138.4817  154.7780 H   0  0  0  0  0  0  0  0  0  0  0  0
  149.7785  140.2568  153.0337 H   0  0  0  0  0  0  0  0  0  0  0  0
  1  2  1  0  0  0  0
  1 23  1  0  0  0  0
  1 24  1  0  0  0  0
  1 25  1  0  0  0  0
  2 18  1  0  0  0  0
  2  3  2  0  0  0  0
  3  4  1  0  0  0  0
  3 26  1  0  0  0  0
  4  5  1  0  0  0  0
  4 15  1  0  0  0  0
  5 20  1  0  0  0  0
  5 14  1  0  0  0  0
  5  6  1  0  0  0  0
  6  7  1  0  0  0  0
  6 27  1  0  0  0  0
  6 28  1  0  0  0  0
  7 21  1  0  0  0  0
  7  8  1  0  0  0  0
  7 11  1  0  0  0  0
  8  9  2  0  0  0  0
  9 10  2  0  0  0  0
 11 22  1  0  0  0  0
 11 12  1  0  0  0  0
 11 14  1  0  0  0  0
 12 13  1  0  0  0  0
 12 29  1  0  0  0  0
 12 30  1  0  0  0  0
 13 31  1  0  0  0  0
 15 16  2  0  0  0  0
 15 17  1  0  0  0  0
 17 18  1  0  0  0  0
 18 19  2  0  0  0  0
M  CHG  1   9   1
M  CHG  1  10  -1
M  CHG  1  17  -1
M  END
> <s_m_source_file>
AV-unprocessed.smi

> <i_m_source_file_index>
39

> <i_lp_mmshare_version>
43012

> <i_f3d_flags>
0

> <s_epik_input>
Tz1jMVtuSF1jKD1PKW4oW2NIXWMxW0NIM10pW0NASF0yW0NIMl1bQ0BIXShOPVtOK109W04tXSlbQ0BIXShPMilbQ0gyXVtPSF0=

> <s_epik_cmdline>
J2VwaWtfcHl0aG9uJywgJy1waCcsICc3LjAnLCAnLXRuJywgJzgnLCAnLW1hJywgJzIwMCcsICctbWV0YWxfYmluZGluZycsICctaW1hZScsICc8aW5maWxlLm1hZT4nLCAnLW9tYWUnLCAnPG91dGZpbGUubWFlPic=

> <r_lp_tautomer_probability>
0.999537

> <r_epik_Ionization_Penalty>
3.6393

> <r_epik_Ionization_Penalty_Charging>
9.76484e-08

> <r_epik_Ionization_Penalty_Neutral>
3.6393

> <r_epik_State_Penalty>
3.63887

> <r_epik_Charging_Adjusted_Penalty>
3.63887

> <i_epik_Tot_Q>
-1

> <i_epik_Tot_abs_Q>
3

> <r_epik_Metal_State_Penalty>
0.225911

> <b_epik_Metal_Only>
1

> <s_epik_Chemistry_Notes>
This compound contains an acetal/aminal-like group ( X-CH(R)-Y where X, Y are N, S, or O) that may be acid/base labile, releasing an aldehyde.

> <s_lp_Force_Field>
OPLS_2005

> <r_lp_Energy>
37.4001

> <b_lp_Chiralities_Consistent>
1

> <s_lp_Variant>
AV-unprocessed.smi:39-16

> <Gold.Version>
5.8.1

> <Gold.Id.Protein>
6NUR|6NUR_protein|mol2

> <Gold.PLP.Fitness>
40.5349

> <Gold.PLP.PLP>
-21.4943

> <Gold.PLP.part.hbond>
-6.9053

> <Gold.PLP.part.metal>
0.0000

> <Gold.PLP.part.buried>
-3.6317

> <Gold.PLP.part.nonpolar>
-12.2147

> <Gold.PLP.part.repulsive>
0.1628

> <Gold.PLP.ligand.clash>
0.0000

> <Gold.PLP.ligand.torsion>
0.2238

> <Gold.PLP.Chemscore.Hbond>
5.5280

> <Gold.PLP.Chemscore.CHOScore>
0.9538

> <Gold.PLP.Chemscore.Metal>
0.0000

> <Gold.Chemscore.Hbonds>
donor molecule, donor type, donor heavy atom, donor atom, acceptor molecule, acceptor atom, score
      L1  H    13    31       P1  7957  1.00
      P1  H  6896  6908       L1    16  1.00
      P1  H  7989  7998       L1    13  0.53
      P1  H  7997  8010       L1     8  0.96
      P1  H 10752 10764       L1    14  0.98
      P1  H 10752 10765       L1    10  0.82
      L1  C     3    26       P1  7948  0.74

> <Gold.PLP.Chemscore.Internal.Correction>
0.0428

> <Gold.Rescore>
     Score         DG    S(hbond)    S(metal)    S(lipo)     H(rot)  DE(clash)    DE(int)     intcor
     14.94     -18.98       4.85        0.00      36.47       2.72       0.02       4.02       ----

> <Gold.Chemscore.Fitness>
14.9392

> <Gold.Chemscore.DG>
-18.9781

> <Gold.Chemscore.ZeroCoef>
-5.4800

> <Gold.Chemscore.Hbond>
4.8451

> <Gold.Chemscore.Metal>
0.0000

> <Gold.Chemscore.Lipo>
36.4670

> <Gold.Chemscore.Internal_Hbond>
0.0000

> <Gold.Chemscore.DEClash>
0.0153

> <Gold.Chemscore.DEInternal>
4.0236

> <Gold.Chemscore.Rot>
2.7153

> <Gold.Chemscore.Internal.Correction>
   9.000000E+99

> <Gold.Chemscore.Hbonds>
donor molecule, donor type, donor heavy atom, donor atom, acceptor molecule, acceptor atom, score
      L1  H    13    31       P1  7957  0.97
      P1  H  6896  6908       L1    16  0.99
      P1  H  7989  7998       L1    13  0.04
      P1  H  7997  8010       L1     8  0.69
      P1  H 10752 10764       L1    14  0.72
      P1  H 10752 10765       L1    10  0.80

> <Gold.Chemscore.Hbond.Weighted>
-16.1826

> <Gold.Chemscore.Metal.Weighted>
-0.0000

> <Gold.Chemscore.Lipo.Weighted>
-4.2666

> <Gold.Chemscore.Internal_Hbond.Weighted>
0.0000

> <Gold.Chemscore.DEClash.Weighted>
0.0153

> <Gold.Chemscore.DEInternal.Weighted>
4.0236

> <Gold.Chemscore.Rot.Weighted>
6.9512

> <Gold.Chemscore.Internal.Correction.Weighted>
   9.000000E+99

> <Gold.Protein.RotatedTorsions>
[ 6907 6896 6895 6894 ] final  168.32 input  -60.11 | X-H torsion
[ 7974 7965 7964 7962 ] final    6.11 input  175.53 | X-H torsion
[ 8008 7997 7996 7995 ] final   84.59 input   59.86 | X-H torsion
[ 10167 10162 10161 10158 ] final   33.66 input  -65.29 | X-H torsion
[ 10718 10713 10712 10709 ] final  145.28 input   66.30 | X-H torsion
[ 10763 10752 10751 10750 ] final  -84.22 input  -60.55 | X-H torsion
[ 11005 11000 10999 10996 ] final  149.94 input  -57.11 | X-H torsion

> <Gold.Protein.ActiveResidues>
 VAL166  LYS551  ARG553  GLY616  TRP617  ASP618  TYR619  PRO620  LYS621  CYS622 
 ASP623  PHE694  ASN695  SER759  ASP760  ASP761  ALA762  ILE779  LEU786  VAL792 
 PHE793  MET794  SER795  GLU796  ALA797  LYS798  CYS799  TRP800  GLU811  SER814 

> <Gold.Protein.RotatedAtoms>
  151.8495  133.3437  159.3668 H   0  0  0  0  0  0  0  0  0  0  0  0  # atno 6907 bound_to 6896
  150.7210  134.5312  159.5711 H   0  0  0  0  0  0  0  0  0  0  0  0  # atno 6908 bound_to 6896
  152.2803  134.7836  160.0449 H   0  0  0  0  0  0  0  0  0  0  0  0  # atno 6909 bound_to 6896
  146.2437  140.0283  142.8392 H   0  0  0  0  0  0  0  0  0  0  0  0  # atno 7974 bound_to 7965
  155.9390  140.3409  155.6311 H   0  0  0  0  0  0  0  0  0  0  0  0  # atno 8008 bound_to 7997
  155.7063  140.0766  157.2408 H   0  0  0  0  0  0  0  0  0  0  0  0  # atno 8009 bound_to 7997
  154.4099  140.1631  156.2234 H   0  0  0  0  0  0  0  0  0  0  0  0  # atno 8010 bound_to 7997
  140.4386  144.1220  150.6170 H   0  0  0  0  0  0  0  0  0  0  0  0  # atno 10167 bound_to 10162
  157.3471  131.0945  151.1032 H   0  0  0  0  0  0  0  0  0  0  0  0  # atno 10718 bound_to 10713
  154.5969  135.5528  153.7335 H   0  0  0  0  0  0  0  0  0  0  0  0  # atno 10763 bound_to 10752
  153.0139  135.6357  154.1769 H   0  0  0  0  0  0  0  0  0  0  0  0  # atno 10764 bound_to 10752
  154.1710  135.2892  155.3061 H   0  0  0  0  0  0  0  0  0  0  0  0  # atno 10765 bound_to 10752
  140.1088  134.8937  157.1906 H   0  0  0  0  0  0  0  0  0  0  0  0  # atno 11005 bound_to 11000
  145.1178  140.9444  143.4618 LP  0  0  0  0  0  0  0  0  0  0  0  0  # atno 17320 bound_to 7965
  145.0511  139.3181  143.5928 LP  0  0  0  0  0  0  0  0  0  0  0  0  # atno 17321 bound_to 7965
  140.4344  143.2554  151.9554 LP  0  0  0  0  0  0  0  0  0  0  0  0  # atno 17342 bound_to 10162
  139.4788  144.5713  151.8083 LP  0  0  0  0  0  0  0  0  0  0  0  0  # atno 17343 bound_to 10162
  157.2222  130.6486  149.5816 LP  0  0  0  0  0  0  0  0  0  0  0  0  # atno 17370 bound_to 10713
  155.9716  130.4625  150.6150 LP  0  0  0  0  0  0  0  0  0  0  0  0  # atno 17371 bound_to 10713
  140.3119  134.3014  155.7265 LP  0  0  0  0  0  0  0  0  0  0  0  0  # atno 17394 bound_to 11000
  141.2125  133.7656  156.9789 LP  0  0  0  0  0  0  0  0  0  0  0  0  # atno 17395 bound_to 11000

$$$$
