AV-unprocessed.smi:2941|AV-procd|sdf|11265|dock3
  -GOLD-   2272016153D 1   1.00000     0.00000
 Structure written by MMmdl.
 35 36  0  0  0  0  0  0  0  0  2 V2000
  148.9084  132.8566  153.7647 C   0  0  0  0  0  0  0  0  0  0  0  0
  149.8476  133.3965  154.6780 O   0  0  0  0  0  0  0  0  0  0  0  0
  149.4922  134.6964  155.1173 C   0  0  0  0  0  0  0  0  0  0  0  0
  150.7358  135.3781  155.7067 C   0  0  0  0  0  0  0  0  0  0  0  0
  150.3686  136.5038  156.5758 N   0  0  0  0  0  0  0  0  0  0  0  0
  150.7829  137.7851  156.1643 C   0  0  0  0  0  0  0  0  0  0  0  0
  150.5049  138.8932  156.8768 C   0  0  0  0  0  0  0  0  0  0  0  0
  150.9710  140.2222  156.4109 C   0  0  0  0  0  0  0  0  0  0  0  0
  150.9368  140.5243  155.2169 O   0  0  0  0  0  0  0  0  0  0  0  0
  151.4586  141.1927  157.4372 C   0  0  0  0  0  0  0  0  0  0  0  0
  150.8426  142.4638  157.5238 C   0  0  0  0  0  0  0  0  0  0  0  0
  151.2793  143.4126  158.4667 C   0  0  0  0  0  0  0  0  0  0  0  0
  150.6805  144.6254  158.5337 F   0  0  0  0  0  0  0  0  0  0  0  0
  152.3391  143.1025  159.3370 C   0  0  0  0  0  0  0  0  0  0  0  0
  152.9589  141.8418  159.2642 C   0  0  0  0  0  0  0  0  0  0  0  0
  152.5270  140.8850  158.3229 C   0  0  0  0  0  0  0  0  0  0  0  0
  153.1522  139.6682  158.3143 O   0  5  0  0  0  0  0  0  0  0  0  0
  149.7649  138.7291  158.1133 C   0  0  0  0  0  0  0  0  0  0  0  0
  149.3761  137.5040  158.5186 C   0  0  0  0  0  0  0  0  0  0  0  0
  148.6564  137.3190  159.7350 C   0  0  0  0  0  0  0  0  0  0  0  0
  148.0772  137.1890  160.7287 N   0  0  0  0  0  0  0  0  0  0  0  0
  149.6772  136.2961  157.7372 C   0  0  0  0  0  0  0  0  0  0  0  0
  149.3369  135.1682  158.0985 O   0  0  0  0  0  0  0  0  0  0  0  0
  149.2253  131.8594  153.4598 H   0  0  0  0  0  0  0  0  0  0  0  0
  148.8302  133.4735  152.8685 H   0  0  0  0  0  0  0  0  0  0  0  0
  147.9203  132.7716  154.2189 H   0  0  0  0  0  0  0  0  0  0  0  0
  149.1013  135.2774  154.2806 H   0  0  0  0  0  0  0  0  0  0  0  0
  148.7061  134.6325  155.8715 H   0  0  0  0  0  0  0  0  0  0  0  0
  151.3205  134.6469  156.2670 H   0  0  0  0  0  0  0  0  0  0  0  0
  151.3954  135.7090  154.9027 H   0  0  0  0  0  0  0  0  0  0  0  0
  151.3391  137.8010  155.2372 H   0  0  0  0  0  0  0  0  0  0  0  0
  150.0328  142.7251  156.8581 H   0  0  0  0  0  0  0  0  0  0  0  0
  152.6757  143.8293  160.0611 H   0  0  0  0  0  0  0  0  0  0  0  0
  153.7695  141.6081  159.9394 H   0  0  0  0  0  0  0  0  0  0  0  0
  149.5302  139.5854  158.7294 H   0  0  0  0  0  0  0  0  0  0  0  0
  1  2  1  0  0  0  0
  1 24  1  0  0  0  0
  1 25  1  0  0  0  0
  1 26  1  0  0  0  0
  2  3  1  0  0  0  0
  3  4  1  0  0  0  0
  3 27  1  0  0  0  0
  3 28  1  0  0  0  0
  4  5  1  0  0  0  0
  4 29  1  0  0  0  0
  4 30  1  0  0  0  0
  5 22  1  0  0  0  0
  5  6  1  0  0  0  0
  6  7  2  0  0  0  0
  6 31  1  0  0  0  0
  7  8  1  0  0  0  0
  7 18  1  0  0  0  0
  8  9  2  0  0  0  0
  8 10  1  0  0  0  0
 10 16  1  0  0  0  0
 10 11  2  0  0  0  0
 11 12  1  0  0  0  0
 11 32  1  0  0  0  0
 12 13  1  0  0  0  0
 12 14  2  0  0  0  0
 14 15  1  0  0  0  0
 14 33  1  0  0  0  0
 15 16  2  0  0  0  0
 15 34  1  0  0  0  0
 16 17  1  0  0  0  0
 18 19  2  0  0  0  0
 18 35  1  0  0  0  0
 19 20  1  0  0  0  0
 19 22  1  0  0  0  0
 20 21  3  0  0  0  0
 22 23  2  0  0  0  0
M  CHG  1  17  -1
M  END
> <s_m_source_file>
AV-unprocessed.smi

> <i_m_source_file_index>
2941

> <i_lp_mmshare_version>
43012

> <i_f3d_flags>
0

> <s_epik_input>
W0NIM11PW0NIMl1bQ0gyXW4xW2NIXWMoW2NIXWMoQyNOKWMxPU8pQyg9TyljMltjSF1jKEYpW2NIXVtjSF1jMltPSF0=

> <s_epik_cmdline>
J2VwaWtfcHl0aG9uJywgJy1waCcsICc3LjAnLCAnLXRuJywgJzgnLCAnLW1hJywgJzIwMCcsICctbWV0YWxfYmluZGluZycsICctaW1hZScsICc8aW5maWxlLm1hZT4nLCAnLW9tYWUnLCAnPG91dGZpbGUubWFlPic=

> <r_epik_Ionization_Penalty>
0.585622

> <r_epik_Ionization_Penalty_Charging>
0.585622

> <r_epik_Ionization_Penalty_Neutral>
1.08437e-11

> <r_epik_State_Penalty>
0.598756

> <r_epik_Charging_Adjusted_Penalty>
1.18438

> <i_epik_Tot_Q>
-1

> <i_epik_Tot_abs_Q>
1

> <r_epik_Metal_State_Penalty>
0.598756

> <b_epik_Metal_Only>
0

> <s_lp_Force_Field>
OPLS_2005

> <r_lp_Energy>
22.2584

> <b_lp_Chiralities_Consistent>
1

> <s_lp_Variant>
AV-unprocessed.smi:2941-2

> <Gold.Version>
5.8.1

> <Gold.Id.Protein>
6NUR|6NUR_protein|mol2

> <Gold.PLP.Fitness>
50.5085

> <Gold.PLP.PLP>
-36.4577

> <Gold.PLP.part.hbond>
-5.0000

> <Gold.PLP.part.metal>
0.0000

> <Gold.PLP.part.buried>
-4.7764

> <Gold.PLP.part.nonpolar>
-28.1210

> <Gold.PLP.part.repulsive>
0.1423

> <Gold.PLP.ligand.clash>
0.0000

> <Gold.PLP.ligand.torsion>
1.8200

> <Gold.PLP.Chemscore.Hbond>
5.3076

> <Gold.PLP.Chemscore.CHOScore>
0.0000

> <Gold.PLP.Chemscore.Metal>
0.0000

> <Gold.Chemscore.Hbonds>
donor molecule, donor type, donor heavy atom, donor atom, acceptor molecule, acceptor atom, score
      P1  H  6896  6909       L1    23  0.96
      P1  H  6931  6943       L1    21  0.85
      P1  H  6934  6947       L1    21  0.70
      P1  H  7989  7998       L1     9  0.98
      P1  H  7997  8008       L1    17  2.00

> <Gold.PLP.Chemscore.Internal.Correction>
1.7681

> <Gold.Rescore>
     Score         DG    S(hbond)    S(metal)    S(lipo)     H(rot)  DE(clash)    DE(int)     intcor
     20.24     -22.32       3.35        0.00      80.71       1.47       0.14       1.94       ----

> <Gold.Chemscore.Fitness>
20.2439

> <Gold.Chemscore.DG>
-22.3242

> <Gold.Chemscore.ZeroCoef>
-5.4800

> <Gold.Chemscore.Hbond>
3.3464

> <Gold.Chemscore.Metal>
0.0000

> <Gold.Chemscore.Lipo>
80.7056

> <Gold.Chemscore.Internal_Hbond>
0.0000

> <Gold.Chemscore.DEClash>
0.1361

> <Gold.Chemscore.DEInternal>
1.9443

> <Gold.Chemscore.Rot>
1.4747

> <Gold.Chemscore.Internal.Correction>
   9.000000E+99

> <Gold.Chemscore.Hbonds>
donor molecule, donor type, donor heavy atom, donor atom, acceptor molecule, acceptor atom, score
      P1  H  6896  6909       L1    23  0.79
      P1  H  6931  6943       L1    21  0.29
      P1  H  6934  6947       L1    21  0.20
      P1  H  7989  7998       L1     9  0.93
      P1  H  7997  8008       L1    17  0.29

> <Gold.Chemscore.Hbond.Weighted>
-11.1770

> <Gold.Chemscore.Metal.Weighted>
-0.0000

> <Gold.Chemscore.Lipo.Weighted>
-9.4426

> <Gold.Chemscore.Internal_Hbond.Weighted>
0.0000

> <Gold.Chemscore.DEClash.Weighted>
0.1361

> <Gold.Chemscore.DEInternal.Weighted>
1.9443

> <Gold.Chemscore.Rot.Weighted>
3.7754

> <Gold.Chemscore.Internal.Correction.Weighted>
   9.000000E+99

> <Gold.Protein.RotatedTorsions>
[ 6907 6896 6895 6894 ] final   30.62 input  -60.11 | X-H torsion
[ 7974 7965 7964 7962 ] final  -92.57 input  175.53 | X-H torsion
[ 8008 7997 7996 7995 ] final  -92.22 input   59.86 | X-H torsion
[ 10167 10162 10161 10158 ] final  -45.79 input  -65.29 | X-H torsion
[ 10718 10713 10712 10709 ] final   -5.12 input   66.30 | X-H torsion
[ 10763 10752 10751 10750 ] final  -45.51 input  -60.55 | X-H torsion
[ 11005 11000 10999 10996 ] final   79.05 input  -57.11 | X-H torsion

> <Gold.Protein.ActiveResidues>
 VAL166  LYS551  ARG553  GLY616  TRP617  ASP618  TYR619  PRO620  LYS621  CYS622 
 ASP623  PHE694  ASN695  SER759  ASP760  ASP761  ALA762  ILE779  LEU786  VAL792 
 PHE793  MET794  SER795  GLU796  ALA797  LYS798  CYS799  TRP800  GLU811  SER814 

> <Gold.Protein.RotatedAtoms>
  152.0486  134.9667  160.0574 H   0  0  0  0  0  0  0  0  0  0  0  0  # atno 6907 bound_to 6896
  152.1077  133.4279  159.4625 H   0  0  0  0  0  0  0  0  0  0  0  0  # atno 6908 bound_to 6896
  150.6842  134.2604  159.4590 H   0  0  0  0  0  0  0  0  0  0  0  0  # atno 6909 bound_to 6896
  145.3980  140.9535  143.2303 H   0  0  0  0  0  0  0  0  0  0  0  0  # atno 7974 bound_to 7965
  154.7204  140.0511  157.0634 H   0  0  0  0  0  0  0  0  0  0  0  0  # atno 8008 bound_to 7997
  155.0434  140.3171  155.4697 H   0  0  0  0  0  0  0  0  0  0  0  0  # atno 8009 bound_to 7997
  156.2815  140.2128  156.5558 H   0  0  0  0  0  0  0  0  0  0  0  0  # atno 8010 bound_to 7997
  140.6844  143.2862  151.3689 H   0  0  0  0  0  0  0  0  0  0  0  0  # atno 10167 bound_to 10162
  156.7513  130.5240  149.5803 H   0  0  0  0  0  0  0  0  0  0  0  0  # atno 10718 bound_to 10713
  154.0298  135.6658  153.4779 H   0  0  0  0  0  0  0  0  0  0  0  0  # atno 10763 bound_to 10752
  153.0545  135.5064  154.7944 H   0  0  0  0  0  0  0  0  0  0  0  0  # atno 10764 bound_to 10752
  154.6885  135.3057  154.9478 H   0  0  0  0  0  0  0  0  0  0  0  0  # atno 10765 bound_to 10752
  139.9188  134.7812  156.1728 H   0  0  0  0  0  0  0  0  0  0  0  0  # atno 11005 bound_to 11000
  144.8393  139.5498  143.6907 LP  0  0  0  0  0  0  0  0  0  0  0  0  # atno 17320 bound_to 7965
  146.2765  139.6767  142.9259 LP  0  0  0  0  0  0  0  0  0  0  0  0  # atno 17321 bound_to 7965
  139.6190  144.0944  152.2373 LP  0  0  0  0  0  0  0  0  0  0  0  0  # atno 17342 bound_to 10162
  140.0383  144.6027  150.7432 LP  0  0  0  0  0  0  0  0  0  0  0  0  # atno 17343 bound_to 10162
  156.1399  130.6237  151.0453 LP  0  0  0  0  0  0  0  0  0  0  0  0  # atno 17370 bound_to 10713
  157.6776  131.0846  150.7455 LP  0  0  0  0  0  0  0  0  0  0  0  0  # atno 17371 bound_to 10713
  141.0690  133.6806  156.2102 LP  0  0  0  0  0  0  0  0  0  0  0  0  # atno 17394 bound_to 11000
  140.6538  134.5039  157.5579 LP  0  0  0  0  0  0  0  0  0  0  0  0  # atno 17395 bound_to 11000

$$$$
