AV-unprocessed.smi:2276|AV-procd|sdf|9172|dock2
  -GOLD-   2272012383D 1   1.00000     0.00000
 Structure written by MMmdl.
 53 54  0  0  0  0  0  0  0  0  2 V2000
  152.1883  144.9781  160.0726 C   0  0  0  0  0  0  0  0  0  0  0  0
  152.3418  143.5463  159.6046 C   0  0  0  0  0  0  0  0  0  0  0  0
  151.7729  143.1175  158.3900 C   0  0  0  0  0  0  0  0  0  0  0  0
  151.9512  141.7732  158.0100 C   0  0  0  0  0  0  0  0  0  0  0  0
  151.3638  141.2454  156.7181 C   0  0  0  0  0  0  0  0  0  0  0  0
  152.6363  140.8817  158.7574 N   0  0  0  0  0  0  0  0  0  0  0  0
  153.1958  141.2853  159.9254 C   0  0  0  0  0  0  0  0  0  0  0  0
  153.9165  140.4190  160.7893 N   0  0  0  0  0  0  0  0  0  0  0  0
  153.8808  139.0758  160.8171 C   0  0  0  0  0  0  0  0  0  0  0  0
  153.4101  138.3621  159.9305 O   0  0  0  0  0  0  0  0  0  0  0  0
  154.4054  138.5974  161.9549 N   0  0  0  0  0  0  0  0  0  0  0  0
  154.3958  137.1983  162.3797 C   0  0  0  0  0  0  0  0  0  0  0  0
  154.0494  137.0530  163.8794 C   0  0  2  0  0  0  0  0  0  0  0  0
  155.0770  137.8009  164.7432 C   0  0  0  0  0  0  0  0  0  0  0  0
  153.9637  135.5684  164.3155 C   0  0  0  0  0  0  0  0  0  0  0  0
  155.2463  134.8597  164.2712 N   0  0  0  0  0  0  0  0  0  0  0  0
  155.3121  133.6438  165.0937 C   0  0  0  0  0  0  0  0  0  0  0  0
  154.3973  132.5179  164.5647 C   0  0  0  0  0  0  0  0  0  0  0  0
  154.7305  132.1892  163.1599 N   0  3  0  0  0  0  0  0  0  0  0  0
  153.8917  131.0975  162.6218 C   0  0  0  0  0  0  0  0  0  0  0  0
  154.6984  133.4041  162.3123 C   0  0  0  0  0  0  0  0  0  0  0  0
  155.6155  134.5018  162.8981 C   0  0  0  0  0  0  0  0  0  0  0  0
  153.0604  142.6154  160.3816 C   0  0  0  0  0  0  0  0  0  0  0  0
  151.5339  145.5443  159.4092 H   0  0  0  0  0  0  0  0  0  0  0  0
  153.1594  145.4727  160.0987 H   0  0  0  0  0  0  0  0  0  0  0  0
  151.7617  145.0050  161.0755 H   0  0  0  0  0  0  0  0  0  0  0  0
  151.2159  143.8009  157.7655 H   0  0  0  0  0  0  0  0  0  0  0  0
  151.0556  142.0613  156.0639 H   0  0  0  0  0  0  0  0  0  0  0  0
  150.4916  140.6255  156.9250 H   0  0  0  0  0  0  0  0  0  0  0  0
  152.0964  140.6409  156.1824 H   0  0  0  0  0  0  0  0  0  0  0  0
  154.4301  140.8731  161.5300 H   0  0  0  0  0  0  0  0  0  0  0  0
  154.7869  139.2615  162.6127 H   0  0  0  0  0  0  0  0  0  0  0  0
  153.7176  136.6015  161.7672 H   0  0  0  0  0  0  0  0  0  0  0  0
  155.3960  136.8060  162.1938 H   0  0  0  0  0  0  0  0  0  0  0  0
  153.0915  137.5497  164.0251 H   0  0  0  0  0  0  0  0  0  0  0  0
  156.0786  137.3888  164.6165 H   0  0  0  0  0  0  0  0  0  0  0  0
  154.8215  137.7367  165.8012 H   0  0  0  0  0  0  0  0  0  0  0  0
  155.1178  138.8584  164.4806 H   0  0  0  0  0  0  0  0  0  0  0  0
  153.5456  135.4791  165.3114 H   0  0  0  0  0  0  0  0  0  0  0  0
  153.2513  135.0599  163.6644 H   0  0  0  0  0  0  0  0  0  0  0  0
  156.3451  133.2936  165.0994 H   0  0  0  0  0  0  0  0  0  0  0  0
  155.0714  133.8605  166.1328 H   0  0  0  0  0  0  0  0  0  0  0  0
  154.5324  131.6274  165.1795 H   0  0  0  0  0  0  0  0  0  0  0  0
  153.3451  132.7878  164.6477 H   0  0  0  0  0  0  0  0  0  0  0  0
  152.8412  131.3887  162.6001 H   0  0  0  0  0  0  0  0  0  0  0  0
  153.9846  130.2020  163.2370 H   0  0  0  0  0  0  0  0  0  0  0  0
  154.1970  130.8403  161.6072 H   0  0  0  0  0  0  0  0  0  0  0  0
  155.0410  133.1472  161.3094 H   0  0  0  0  0  0  0  0  0  0  0  0
  153.6731  133.7603  162.2046 H   0  0  0  0  0  0  0  0  0  0  0  0
  155.5907  135.3912  162.2673 H   0  0  0  0  0  0  0  0  0  0  0  0
  156.6496  134.1546  162.8938 H   0  0  0  0  0  0  0  0  0  0  0  0
  153.5035  142.9230  161.3178 H   0  0  0  0  0  0  0  0  0  0  0  0
  155.6849  131.8586  163.1573 H   0  0  0  0  0  0  0  0  0  0  0  0
  1  2  1  0  0  0  0
  1 24  1  0  0  0  0
  1 25  1  0  0  0  0
  1 26  1  0  0  0  0
  2 23  1  0  0  0  0
  2  3  2  0  0  0  0
  3  4  1  0  0  0  0
  3 27  1  0  0  0  0
  4  5  1  0  0  0  0
  4  6  2  0  0  0  0
  5 28  1  0  0  0  0
  5 29  1  0  0  0  0
  5 30  1  0  0  0  0
  6  7  1  0  0  0  0
  7  8  1  0  0  0  0
  7 23  2  0  0  0  0
  8  9  1  0  0  0  0
  8 31  1  0  0  0  0
  9 10  2  0  0  0  0
  9 11  1  0  0  0  0
 11 12  1  0  0  0  0
 11 32  1  0  0  0  0
 12 13  1  0  0  0  0
 12 33  1  0  0  0  0
 12 34  1  0  0  0  0
 13 14  1  0  0  0  0
 13 15  1  0  0  0  0
 13 35  1  0  0  0  0
 14 36  1  0  0  0  0
 14 37  1  0  0  0  0
 14 38  1  0  0  0  0
 15 16  1  0  0  0  0
 15 39  1  0  0  0  0
 15 40  1  0  0  0  0
 16 22  1  0  0  0  0
 16 17  1  0  0  0  0
 17 18  1  0  0  0  0
 17 41  1  0  0  0  0
 17 42  1  0  0  0  0
 18 19  1  0  0  0  0
 18 43  1  0  0  0  0
 18 44  1  0  0  0  0
 19 20  1  0  0  0  0
 19 21  1  0  0  0  0
 19 53  1  0  0  0  0
 20 45  1  0  0  0  0
 20 46  1  0  0  0  0
 20 47  1  0  0  0  0
 21 22  1  0  0  0  0
 21 48  1  0  0  0  0
 21 49  1  0  0  0  0
 22 50  1  0  0  0  0
 22 51  1  0  0  0  0
 23 52  1  0  0  0  0
M  CHG  1  19   1
M  END
> <s_m_source_file>
AV-unprocessed.smi

> <i_m_source_file_index>
2276

> <i_lp_mmshare_version>
43012

> <i_f3d_flags>
0

> <s_epik_input>
W0NIM11jMVtjSF1jKFtDSDNdKW5jKFtjSF0xKVtOSF1DKD1PKVtOSF1bQ0gyXVtDQEhdKFtDSDNdKVtDSDJdTjJbQ0gyXVtDSDJdTihbQ0gzXSlbQ0gyXVtDSDJdMg==

> <s_epik_cmdline>
J2VwaWtfcHl0aG9uJywgJy1waCcsICc3LjAnLCAnLXRuJywgJzgnLCAnLW1hJywgJzIwMCcsICctbWV0YWxfYmluZGluZycsICctaW1hZScsICc8aW5maWxlLm1hZT4nLCAnLW9tYWUnLCAnPG91dGZpbGUubWFlPic=

> <r_epik_Ionization_Penalty>
0.0247364

> <r_epik_Ionization_Penalty_Charging>
0.0230248

> <r_epik_Ionization_Penalty_Neutral>
0.00171164

> <r_epik_State_Penalty>
0.239056

> <r_epik_Charging_Adjusted_Penalty>
0.262081

> <i_epik_Tot_Q>
1

> <i_epik_Tot_abs_Q>
1

> <r_epik_Metal_State_Penalty>
0.239048

> <b_epik_Metal_Only>
0

> <s_lp_Force_Field>
OPLS_2005

> <r_lp_Energy>
20.3682

> <b_lp_Chiralities_Consistent>
1

> <s_lp_Variant>
AV-unprocessed.smi:2276-1

> <Gold.Version>
5.8.1

> <Gold.Id.Protein>
6NUR|6NUR_protein|mol2

> <Gold.PLP.Fitness>
43.9476

> <Gold.PLP.PLP>
-44.6567

> <Gold.PLP.part.hbond>
0.0000

> <Gold.PLP.part.metal>
0.0000

> <Gold.PLP.part.buried>
-6.3825

> <Gold.PLP.part.nonpolar>
-38.0322

> <Gold.PLP.part.repulsive>
0.1114

> <Gold.PLP.ligand.clash>
0.0000

> <Gold.PLP.ligand.torsion>
0.3810

> <Gold.PLP.Chemscore.Hbond>
0.0000

> <Gold.PLP.Chemscore.CHOScore>
0.0000

> <Gold.PLP.Chemscore.Metal>
0.0000

> <Gold.PLP.Chemscore.Internal.Correction>
0.0529

> <Gold.Rescore>
     Score         DG    S(hbond)    S(metal)    S(lipo)     H(rot)  DE(clash)    DE(int)     intcor
     13.53     -15.58       0.00        0.00     121.91       1.63       0.13       1.92       ----

> <Gold.Chemscore.Fitness>
13.5312

> <Gold.Chemscore.DG>
-15.5755

> <Gold.Chemscore.ZeroCoef>
-5.4800

> <Gold.Chemscore.Hbond>
0.0000

> <Gold.Chemscore.Metal>
0.0000

> <Gold.Chemscore.Lipo>
121.9114

> <Gold.Chemscore.Internal_Hbond>
0.0000

> <Gold.Chemscore.DEClash>
0.1271

> <Gold.Chemscore.DEInternal>
1.9171

> <Gold.Chemscore.Rot>
1.6282

> <Gold.Chemscore.Internal.Correction>
   9.000000E+99

> <Gold.Chemscore.Hbond.Weighted>
-0.0000

> <Gold.Chemscore.Metal.Weighted>
-0.0000

> <Gold.Chemscore.Lipo.Weighted>
-14.2636

> <Gold.Chemscore.Internal_Hbond.Weighted>
0.0000

> <Gold.Chemscore.DEClash.Weighted>
0.1271

> <Gold.Chemscore.DEInternal.Weighted>
1.9171

> <Gold.Chemscore.Rot.Weighted>
4.1682

> <Gold.Chemscore.Internal.Correction.Weighted>
   9.000000E+99

> <Gold.Protein.RotatedTorsions>
[ 6907 6896 6895 6894 ] final  -52.52 input  -60.11 | X-H torsion
[ 7974 7965 7964 7962 ] final   48.42 input  175.53 | X-H torsion
[ 8008 7997 7996 7995 ] final -136.52 input   59.86 | X-H torsion
[ 10167 10162 10161 10158 ] final  118.28 input  -65.29 | X-H torsion
[ 10718 10713 10712 10709 ] final -176.92 input   66.30 | X-H torsion
[ 10763 10752 10751 10750 ] final -112.93 input  -60.55 | X-H torsion
[ 11005 11000 10999 10996 ] final   16.60 input  -57.11 | X-H torsion

> <Gold.Protein.ActiveResidues>
 VAL166  LYS551  ARG553  GLY616  TRP617  ASP618  TYR619  PRO620  LYS621  CYS622 
 ASP623  PHE694  ASN695  SER759  ASP760  ASP761  ALA762  ILE779  LEU786  VAL792 
 PHE793  MET794  SER795  GLU796  ALA797  LYS798  CYS799  TRP800  GLU811  SER814 

> <Gold.Protein.RotatedAtoms>
  150.8511  134.7835  159.7008 H   0  0  0  0  0  0  0  0  0  0  0  0  # atno 6907 bound_to 6896
  152.4575  134.5255  159.9805 H   0  0  0  0  0  0  0  0  0  0  0  0  # atno 6908 bound_to 6896
  151.5376  133.3400  159.2965 H   0  0  0  0  0  0  0  0  0  0  0  0  # atno 6909 bound_to 6896
  146.0206  139.4646  142.9899 H   0  0  0  0  0  0  0  0  0  0  0  0  # atno 7974 bound_to 7965
  155.3966  140.0503  157.3038 H   0  0  0  0  0  0  0  0  0  0  0  0  # atno 8008 bound_to 7997
  154.5011  140.2157  155.9306 H   0  0  0  0  0  0  0  0  0  0  0  0  # atno 8009 bound_to 7997
  156.1468  140.3144  155.8588 H   0  0  0  0  0  0  0  0  0  0  0  0  # atno 8010 bound_to 7997
  139.6122  144.7084  151.2818 H   0  0  0  0  0  0  0  0  0  0  0  0  # atno 10167 bound_to 10162
  156.8218  130.9622  151.3111 H   0  0  0  0  0  0  0  0  0  0  0  0  # atno 10718 bound_to 10713
  154.8372  135.4473  154.1270 H   0  0  0  0  0  0  0  0  0  0  0  0  # atno 10763 bound_to 10752
  153.2490  135.6924  153.7706 H   0  0  0  0  0  0  0  0  0  0  0  0  # atno 10764 bound_to 10752
  153.7025  135.3369  155.3204 H   0  0  0  0  0  0  0  0  0  0  0  0  # atno 10765 bound_to 10752
  140.4453  134.1279  155.7695 H   0  0  0  0  0  0  0  0  0  0  0  0  # atno 11005 bound_to 11000
  145.7199  141.0078  143.1408 LP  0  0  0  0  0  0  0  0  0  0  0  0  # atno 17320 bound_to 7965
  144.6988  139.8858  143.7450 LP  0  0  0  0  0  0  0  0  0  0  0  0  # atno 17321 bound_to 7965
  140.7327  143.6816  150.7996 LP  0  0  0  0  0  0  0  0  0  0  0  0  # atno 17342 bound_to 10162
  140.0413  143.5343  152.2716 LP  0  0  0  0  0  0  0  0  0  0  0  0  # atno 17343 bound_to 10162
  157.6452  130.8839  149.9525 LP  0  0  0  0  0  0  0  0  0  0  0  0  # atno 17370 bound_to 10713
  156.0984  130.3657  150.0263 LP  0  0  0  0  0  0  0  0  0  0  0  0  # atno 17371 bound_to 10713
  141.1688  133.8650  157.1635 LP  0  0  0  0  0  0  0  0  0  0  0  0  # atno 17394 bound_to 11000
  140.0042  135.0015  157.0257 LP  0  0  0  0  0  0  0  0  0  0  0  0  # atno 17395 bound_to 11000

$$$$
