AV-unprocessed.smi:1071|AV-procd|sdf|4680|dock6
  -GOLD-   22720 3193D 1   1.00000     0.00000
 Structure written by MMmdl.
 47 48  0  0  0  0  0  0  0  0  2 V2000
  154.9098  129.9601  154.0977 C   0  0  0  0  0  0  0  0  0  0  0  0
  154.1432  130.3230  155.2325 O   0  0  0  0  0  0  0  0  0  0  0  0
  152.7668  130.0204  155.0774 C   0  0  0  0  0  0  0  0  0  0  0  0
  152.0565  130.2232  156.4187 C   0  0  0  0  0  0  0  0  0  0  0  0
  151.6326  131.5800  156.5119 O   0  0  0  0  0  0  0  0  0  0  0  0
  150.7144  132.0474  155.5940 C   0  0  0  0  0  0  0  0  0  0  0  0
  150.3597  133.4106  155.6299 C   0  0  0  0  0  0  0  0  0  0  0  0
  149.4232  133.8928  154.6964 C   0  0  0  0  0  0  0  0  0  0  0  0
  148.8780  133.0039  153.7484 C   0  0  0  0  0  0  0  0  0  0  0  0
  147.9193  133.5077  152.8292 N   0  0  0  0  0  0  0  0  0  0  0  0
  146.8013  132.9071  152.3777 C   0  0  0  0  0  0  0  0  0  0  0  0
  146.5507  131.7147  152.5495 O   0  0  0  0  0  0  0  0  0  0  0  0
  146.0660  133.7130  151.5736 N   0  0  0  0  0  0  0  0  0  0  0  0
  145.8975  135.1328  151.9174 C   0  0  0  0  0  0  0  0  0  0  0  0
  144.6252  135.2984  152.7737 C   0  0  0  0  0  0  0  0  0  0  0  0
  143.4302  134.7383  152.0895 N   0  3  2  0  0  0  0  0  0  0  0  0
  142.2019  134.8654  152.9020 C   0  0  0  0  0  0  0  0  0  0  0  0
  143.6339  133.3570  151.5793 C   0  0  0  0  0  0  0  0  0  0  0  0
  144.9296  133.2589  150.7473 C   0  0  2  0  0  0  0  0  0  0  0  0
  145.1104  131.8754  150.0876 C   0  0  0  0  0  0  0  0  0  0  0  0
  149.2895  131.6499  153.8008 C   0  0  0  0  0  0  0  0  0  0  0  0
  150.1837  131.1809  154.6962 N   0  0  0  0  0  0  0  0  0  0  0  0
  155.9551  130.2212  154.2634 H   0  0  0  0  0  0  0  0  0  0  0  0
  154.5686  130.4870  153.2057 H   0  0  0  0  0  0  0  0  0  0  0  0
  154.8559  128.8864  153.9130 H   0  0  0  0  0  0  0  0  0  0  0  0
  152.3252  130.6701  154.3201 H   0  0  0  0  0  0  0  0  0  0  0  0
  152.6433  128.9895  154.7419 H   0  0  0  0  0  0  0  0  0  0  0  0
  151.2006  129.5496  156.4862 H   0  0  0  0  0  0  0  0  0  0  0  0
  152.7404  129.9850  157.2352 H   0  0  0  0  0  0  0  0  0  0  0  0
  150.7969  134.0740  156.3613 H   0  0  0  0  0  0  0  0  0  0  0  0
  149.1328  134.9333  154.7089 H   0  0  0  0  0  0  0  0  0  0  0  0
  148.1043  134.4332  152.4709 H   0  0  0  0  0  0  0  0  0  0  0  0
  146.7531  135.5444  152.4546 H   0  0  0  0  0  0  0  0  0  0  0  0
  145.8159  135.7230  151.0033 H   0  0  0  0  0  0  0  0  0  0  0  0
  144.7584  134.7968  153.7339 H   0  0  0  0  0  0  0  0  0  0  0  0
  144.4591  136.3545  152.9892 H   0  0  0  0  0  0  0  0  0  0  0  0
  142.2736  134.2728  153.8151 H   0  0  0  0  0  0  0  0  0  0  0  0
  141.3316  134.5247  152.3401 H   0  0  0  0  0  0  0  0  0  0  0  0
  142.0311  135.9056  153.1810 H   0  0  0  0  0  0  0  0  0  0  0  0
  143.6711  132.6596  152.4180 H   0  0  0  0  0  0  0  0  0  0  0  0
  142.7767  133.0724  150.9680 H   0  0  0  0  0  0  0  0  0  0  0  0
  144.8448  133.9621  149.9168 H   0  0  0  0  0  0  0  0  0  0  0  0
  144.3343  131.7056  149.3409 H   0  0  0  0  0  0  0  0  0  0  0  0
  145.0412  131.0563  150.8028 H   0  0  0  0  0  0  0  0  0  0  0  0
  146.0718  131.8025  149.5783 H   0  0  0  0  0  0  0  0  0  0  0  0
  148.8860  130.9054  153.1322 H   0  0  0  0  0  0  0  0  0  0  0  0
  143.2893  135.3132  151.2710 H   0  0  0  0  0  0  0  0  0  0  0  0
  1  2  1  0  0  0  0
  1 23  1  0  0  0  0
  1 24  1  0  0  0  0
  1 25  1  0  0  0  0
  2  3  1  0  0  0  0
  3  4  1  0  0  0  0
  3 26  1  0  0  0  0
  3 27  1  0  0  0  0
  4  5  1  0  0  0  0
  4 28  1  0  0  0  0
  4 29  1  0  0  0  0
  5  6  1  0  0  0  0
  6 22  1  0  0  0  0
  6  7  2  0  0  0  0
  7  8  1  0  0  0  0
  7 30  1  0  0  0  0
  8  9  2  0  0  0  0
  8 31  1  0  0  0  0
  9 10  1  0  0  0  0
  9 21  1  0  0  0  0
 10 11  1  0  0  0  0
 10 32  1  0  0  0  0
 11 12  2  0  0  0  0
 11 13  1  0  0  0  0
 13 19  1  0  0  0  0
 13 14  1  0  0  0  0
 14 15  1  0  0  0  0
 14 33  1  0  0  0  0
 14 34  1  0  0  0  0
 15 16  1  0  0  0  0
 15 35  1  0  0  0  0
 15 36  1  0  0  0  0
 16 17  1  0  0  0  0
 16 18  1  0  0  0  0
 16 47  1  0  0  0  0
 17 37  1  0  0  0  0
 17 38  1  0  0  0  0
 17 39  1  0  0  0  0
 18 19  1  0  0  0  0
 18 40  1  0  0  0  0
 18 41  1  0  0  0  0
 19 20  1  0  0  0  0
 19 42  1  0  0  0  0
 20 43  1  0  0  0  0
 20 44  1  0  0  0  0
 20 45  1  0  0  0  0
 21 22  2  0  0  0  0
 21 46  1  0  0  0  0
M  CHG  1  16   1
M  END
> <s_m_source_file>
AV-unprocessed.smi

> <i_m_source_file_index>
1071

> <i_lp_mmshare_version>
43012

> <i_f3d_flags>
0

> <s_epik_input>
W0NIM11PW0NIMl1bQ0gyXU9jMVtjSF1bY0hdYyhbY0hdbjEpW05IXUMoPU8pTjJbQ0gyXVtDSDJdTihbQ0gzXSlbQ0gyXVtDQEhdMltDSDNd

> <s_epik_cmdline>
J2VwaWtfcHl0aG9uJywgJy1waCcsICc3LjAnLCAnLXRuJywgJzgnLCAnLW1hJywgJzIwMCcsICctbWV0YWxfYmluZGluZycsICctaW1hZScsICc8aW5maWxlLm1hZT4nLCAnLW9tYWUnLCAnPG91dGZpbGUubWFlPic=

> <r_lp_tautomer_probability>
1

> <r_epik_Ionization_Penalty>
0.25455

> <r_epik_Ionization_Penalty_Charging>
0.254506

> <r_epik_Ionization_Penalty_Neutral>
4.43365e-05

> <r_epik_State_Penalty>
0.245983

> <r_epik_Charging_Adjusted_Penalty>
0.500488

> <i_epik_Tot_Q>
1

> <i_epik_Tot_abs_Q>
1

> <r_epik_Metal_State_Penalty>
0.245987

> <b_epik_Metal_Only>
0

> <s_lp_Force_Field>
OPLS_2005

> <r_lp_Energy>
54.7367

> <b_lp_Chiralities_Consistent>
1

> <s_lp_Variant>
AV-unprocessed.smi:1071-4

> <Gold.Version>
5.8.1

> <Gold.Id.Protein>
6NUR|6NUR_protein|mol2

> <Gold.PLP.Fitness>
41.3267

> <Gold.PLP.PLP>
-38.5169

> <Gold.PLP.part.hbond>
-1.0000

> <Gold.PLP.part.metal>
0.0000

> <Gold.PLP.part.buried>
-7.2390

> <Gold.PLP.part.nonpolar>
-29.8652

> <Gold.PLP.part.repulsive>
0.1648

> <Gold.PLP.ligand.clash>
0.0148

> <Gold.PLP.ligand.torsion>
0.7917

> <Gold.PLP.Chemscore.Hbond>
1.0000

> <Gold.PLP.Chemscore.CHOScore>
0.2559

> <Gold.PLP.Chemscore.Metal>
0.0000

> <Gold.Chemscore.Hbonds>
donor molecule, donor type, donor heavy atom, donor atom, acceptor molecule, acceptor atom, score
      L1  H    10    32       P1  7948  0.99
      L1  C    21    46       P1 10747  0.25

> <Gold.PLP.Chemscore.Internal.Correction>
0.6401

> <Gold.Rescore>
     Score         DG    S(hbond)    S(metal)    S(lipo)     H(rot)  DE(clash)    DE(int)     intcor
      8.27     -12.88       0.75        0.00      76.95       1.60       0.02       4.59       ----

> <Gold.Chemscore.Fitness>
8.2671

> <Gold.Chemscore.DG>
-12.8772

> <Gold.Chemscore.ZeroCoef>
-5.4800

> <Gold.Chemscore.Hbond>
0.7489

> <Gold.Chemscore.Metal>
0.0000

> <Gold.Chemscore.Lipo>
76.9526

> <Gold.Chemscore.Internal_Hbond>
0.0000

> <Gold.Chemscore.DEClash>
0.0208

> <Gold.Chemscore.DEInternal>
4.5892

> <Gold.Chemscore.Rot>
1.6045

> <Gold.Chemscore.Internal.Correction>
   9.000000E+99

> <Gold.Chemscore.Hbonds>
donor molecule, donor type, donor heavy atom, donor atom, acceptor molecule, acceptor atom, score
      L1  H    10    32       P1  7948  0.28

> <Gold.Chemscore.Hbond.Weighted>
-2.5013

> <Gold.Chemscore.Metal.Weighted>
-0.0000

> <Gold.Chemscore.Lipo.Weighted>
-9.0034

> <Gold.Chemscore.Internal_Hbond.Weighted>
0.0000

> <Gold.Chemscore.DEClash.Weighted>
0.0208

> <Gold.Chemscore.DEInternal.Weighted>
4.5892

> <Gold.Chemscore.Rot.Weighted>
4.1075

> <Gold.Chemscore.Internal.Correction.Weighted>
   9.000000E+99

> <Gold.Protein.RotatedTorsions>
[ 6907 6896 6895 6894 ] final   67.35 input  -60.11 | X-H torsion
[ 7974 7965 7964 7962 ] final -116.66 input  175.53 | X-H torsion
[ 8008 7997 7996 7995 ] final  115.52 input   59.86 | X-H torsion
[ 10167 10162 10161 10158 ] final  -39.99 input  -65.29 | X-H torsion
[ 10718 10713 10712 10709 ] final   23.95 input   66.30 | X-H torsion
[ 10763 10752 10751 10750 ] final  176.69 input  -60.55 | X-H torsion
[ 11005 11000 10999 10996 ] final  -19.46 input  -57.11 | X-H torsion

> <Gold.Protein.ActiveResidues>
 VAL166  LYS551  ARG553  GLY616  TRP617  ASP618  TYR619  PRO620  LYS621  CYS622 
 ASP623  PHE694  ASN695  SER759  ASP760  ASP761  ALA762  ILE779  LEU786  VAL792 
 PHE793  MET794  SER795  GLU796  ALA797  LYS798  CYS799  TRP800  GLU811  SER814 

> <Gold.Protein.RotatedAtoms>
  152.4546  134.5320  159.9813 H   0  0  0  0  0  0  0  0  0  0  0  0  # atno 6907 bound_to 6896
  151.5384  133.3431  159.2939 H   0  0  0  0  0  0  0  0  0  0  0  0  # atno 6908 bound_to 6896
  150.8486  134.7834  159.7053 H   0  0  0  0  0  0  0  0  0  0  0  0  # atno 6909 bound_to 6896
  145.0942  140.8510  143.3965 H   0  0  0  0  0  0  0  0  0  0  0  0  # atno 7974 bound_to 7965
  156.2386  140.2937  156.0381 H   0  0  0  0  0  0  0  0  0  0  0  0  # atno 8008 bound_to 7997
  155.2018  140.0410  157.2936 H   0  0  0  0  0  0  0  0  0  0  0  0  # atno 8009 bound_to 7997
  154.6125  140.2455  155.7658 H   0  0  0  0  0  0  0  0  0  0  0  0  # atno 8010 bound_to 7997
  140.7048  143.3180  151.2861 H   0  0  0  0  0  0  0  0  0  0  0  0  # atno 10167 bound_to 10162
  157.1731  130.6768  149.6085 H   0  0  0  0  0  0  0  0  0  0  0  0  # atno 10718 bound_to 10713
  154.4845  135.2776  155.1545 H   0  0  0  0  0  0  0  0  0  0  0  0  # atno 10763 bound_to 10752
  154.3242  135.6203  153.5525 H   0  0  0  0  0  0  0  0  0  0  0  0  # atno 10764 bound_to 10752
  152.9879  135.5750  154.5252 H   0  0  0  0  0  0  0  0  0  0  0  0  # atno 10765 bound_to 10752
  140.8369  133.7955  155.9818 H   0  0  0  0  0  0  0  0  0  0  0  0  # atno 11005 bound_to 11000
  145.1031  139.2809  143.5676 LP  0  0  0  0  0  0  0  0  0  0  0  0  # atno 17320 bound_to 7965
  146.3531  140.0604  142.8630 LP  0  0  0  0  0  0  0  0  0  0  0  0  # atno 17321 bound_to 7965
  139.6625  144.0163  152.2702 LP  0  0  0  0  0  0  0  0  0  0  0  0  # atno 17342 bound_to 10162
  139.9735  144.6477  150.7967 LP  0  0  0  0  0  0  0  0  0  0  0  0  # atno 17343 bound_to 10162
  155.9735  130.4672  150.6317 LP  0  0  0  0  0  0  0  0  0  0  0  0  # atno 17370 bound_to 10713
  157.4024  131.0812  151.1296 LP  0  0  0  0  0  0  0  0  0  0  0  0  # atno 17371 bound_to 10713
  140.8938  134.2463  157.5080 LP  0  0  0  0  0  0  0  0  0  0  0  0  # atno 17394 bound_to 11000
  139.8704  134.9674  156.4596 LP  0  0  0  0  0  0  0  0  0  0  0  0  # atno 17395 bound_to 11000

$$$$
