AV-unprocessed.smi:2503|AV-procd|sdf|9847|dock6
  -GOLD-   2272013473D 1   1.00000     0.00000
 Structure written by MMmdl.
 37 38  0  0  0  0  0  0  0  0  2 V2000
  150.8670  142.0297  156.1031 C   0  0  0  0  0  0  0  0  0  0  0  0
  150.0653  140.7755  155.7295 C   0  0  0  0  0  0  0  0  0  0  0  0
  150.9164  139.7799  154.9255 C   0  0  0  0  0  0  0  0  0  0  0  0
  148.7918  141.1374  155.0151 C   0  0  0  0  0  0  0  0  0  0  0  0
  148.3474  142.3839  154.8090 N   0  3  0  0  0  0  0  0  0  0  0  0
  147.1442  142.3652  154.1593 C   0  0  0  0  0  0  0  0  0  0  0  0
  146.8266  141.0461  153.9741 C   0  0  0  0  0  0  0  0  0  0  0  0
  147.8505  140.3121  154.5181 N   0  0  0  0  0  0  0  0  0  0  0  0
  147.9308  138.8435  154.5569 C   0  0  0  0  0  0  0  0  0  0  0  0
  146.6038  138.1731  154.1811 C   0  0  0  0  0  0  0  0  0  0  0  0
  145.5852  138.4407  154.8230 O   0  0  0  0  0  0  0  0  0  0  0  0
  146.6760  137.3183  153.1349 N   0  0  0  0  0  0  0  0  0  0  0  0
  145.7193  136.5893  152.5123 C   0  0  0  0  0  0  0  0  0  0  0  0
  144.5517  136.6400  152.8948 O   0  0  0  0  0  0  0  0  0  0  0  0
  146.1096  135.8171  151.4812 N   0  0  0  0  0  0  0  0  0  0  0  0
  145.2500  135.0389  150.6495 C   0  0  0  0  0  0  0  0  0  0  0  0
  144.3363  134.0402  151.3260 C   0  0  0  0  0  0  0  0  0  0  0  0
  145.5287  133.5549  150.5486 C   0  0  0  0  0  0  0  0  0  0  0  0
  150.2797  142.7000  156.7312 H   0  0  0  0  0  0  0  0  0  0  0  0
  151.1711  142.5858  155.2157 H   0  0  0  0  0  0  0  0  0  0  0  0
  151.7693  141.7673  156.6561 H   0  0  0  0  0  0  0  0  0  0  0  0
  149.7718  140.2736  156.6503 H   0  0  0  0  0  0  0  0  0  0  0  0
  150.3525  138.8737  154.7023 H   0  0  0  0  0  0  0  0  0  0  0  0
  151.8034  139.4834  155.4859 H   0  0  0  0  0  0  0  0  0  0  0  0
  151.2519  140.2076  153.9804 H   0  0  0  0  0  0  0  0  0  0  0  0
  146.6161  143.2679  153.8884 H   0  0  0  0  0  0  0  0  0  0  0  0
  145.9669  140.5862  153.5083 H   0  0  0  0  0  0  0  0  0  0  0  0
  148.7371  138.5239  153.8952 H   0  0  0  0  0  0  0  0  0  0  0  0
  148.2085  138.5447  155.5685 H   0  0  0  0  0  0  0  0  0  0  0  0
  147.6004  137.2042  152.7455 H   0  0  0  0  0  0  0  0  0  0  0  0
  147.0972  135.7784  151.2716 H   0  0  0  0  0  0  0  0  0  0  0  0
  144.8601  135.5124  149.7494 H   0  0  0  0  0  0  0  0  0  0  0  0
  144.3795  133.9627  152.4108 H   0  0  0  0  0  0  0  0  0  0  0  0
  143.3526  133.8839  150.8876 H   0  0  0  0  0  0  0  0  0  0  0  0
  145.3414  133.0737  149.5909 H   0  0  0  0  0  0  0  0  0  0  0  0
  146.3670  133.1534  151.1152 H   0  0  0  0  0  0  0  0  0  0  0  0
  148.8391  143.2220  155.0928 H   0  0  0  0  0  0  0  0  0  0  0  0
  1  2  1  0  0  0  0
  1 19  1  0  0  0  0
  1 20  1  0  0  0  0
  1 21  1  0  0  0  0
  2  3  1  0  0  0  0
  2  4  1  0  0  0  0
  2 22  1  0  0  0  0
  3 23  1  0  0  0  0
  3 24  1  0  0  0  0
  3 25  1  0  0  0  0
  4  8  1  0  0  0  0
  4  5  2  0  0  0  0
  5  6  1  0  0  0  0
  5 37  1  0  0  0  0
  6  7  2  0  0  0  0
  6 26  1  0  0  0  0
  7  8  1  0  0  0  0
  7 27  1  0  0  0  0
  8  9  1  0  0  0  0
  9 10  1  0  0  0  0
  9 28  1  0  0  0  0
  9 29  1  0  0  0  0
 10 11  2  0  0  0  0
 10 12  1  0  0  0  0
 12 13  1  0  0  0  0
 12 30  1  0  0  0  0
 13 14  2  0  0  0  0
 13 15  1  0  0  0  0
 15 16  1  0  0  0  0
 15 31  1  0  0  0  0
 16 18  1  0  0  0  0
 16 17  1  0  0  0  0
 16 32  1  0  0  0  0
 17 18  1  0  0  0  0
 17 33  1  0  0  0  0
 17 34  1  0  0  0  0
 18 35  1  0  0  0  0
 18 36  1  0  0  0  0
M  CHG  1   5   1
M  END
> <s_m_source_file>
AV-unprocessed.smi

> <i_m_source_file_index>
2503

> <i_lp_mmshare_version>
43012

> <i_f3d_flags>
0

> <s_epik_input>
W0NIM11bQ0hdKFtDSDNdKWMxbltjSF1bY0hdbjFbQ0gyXUMoPU8pW05IXUMoPU8pW05IXVtDSF0yW0NIMl1bQ0gyXTI=

> <s_epik_cmdline>
J2VwaWtfcHl0aG9uJywgJy1waCcsICc3LjAnLCAnLXRuJywgJzgnLCAnLW1hJywgJzIwMCcsICctbWV0YWxfYmluZGluZycsICctaW1hZScsICc8aW5maWxlLm1hZT4nLCAnLW9tYWUnLCAnPG91dGZpbGUubWFlPic=

> <r_lp_tautomer_probability>
1

> <r_epik_Ionization_Penalty>
0.381304

> <r_epik_Ionization_Penalty_Charging>
0

> <r_epik_Ionization_Penalty_Neutral>
0.381304

> <r_epik_State_Penalty>
0.37936

> <r_epik_Charging_Adjusted_Penalty>
0.37936

> <i_epik_Tot_Q>
1

> <i_epik_Tot_abs_Q>
1

> <r_epik_Metal_State_Penalty>
0.628559

> <b_epik_Metal_Only>
0

> <s_lp_Force_Field>
OPLS_2005

> <r_lp_Energy>
25.6891

> <b_lp_Chiralities_Consistent>
1

> <s_lp_Variant>
AV-unprocessed.smi:2503-1

> <Gold.Version>
5.8.1

> <Gold.Id.Protein>
6NUR|6NUR_protein|mol2

> <Gold.PLP.Fitness>
43.3907

> <Gold.PLP.PLP>
-28.7720

> <Gold.PLP.part.hbond>
-3.0000

> <Gold.PLP.part.metal>
0.0000

> <Gold.PLP.part.buried>
-5.0229

> <Gold.PLP.part.nonpolar>
-21.7177

> <Gold.PLP.part.repulsive>
0.4869

> <Gold.PLP.ligand.clash>
0.0000

> <Gold.PLP.ligand.torsion>
0.2366

> <Gold.PLP.Chemscore.Hbond>
4.0000

> <Gold.PLP.Chemscore.CHOScore>
1.0000

> <Gold.PLP.Chemscore.Metal>
0.0000

> <Gold.Chemscore.Hbonds>
donor molecule, donor type, donor heavy atom, donor atom, acceptor molecule, acceptor atom, score
      L1  H     5    37       P1  8028  2.00
      L1  H    12    30       P1  7948  1.00
      L1  H    15    31       P1  7948  0.98
      L1  C     7    27       P1 10175  1.00

> <Gold.PLP.Chemscore.Internal.Correction>
0.0920

> <Gold.Rescore>
     Score         DG    S(hbond)    S(metal)    S(lipo)     H(rot)  DE(clash)    DE(int)     intcor
     14.97     -17.07       2.87        0.00      56.87       1.82       0.39       1.71       ----

> <Gold.Chemscore.Fitness>
14.9683

> <Gold.Chemscore.DG>
-17.0715

> <Gold.Chemscore.ZeroCoef>
-5.4800

> <Gold.Chemscore.Hbond>
2.8749

> <Gold.Chemscore.Metal>
0.0000

> <Gold.Chemscore.Lipo>
56.8691

> <Gold.Chemscore.Internal_Hbond>
0.0000

> <Gold.Chemscore.DEClash>
0.3946

> <Gold.Chemscore.DEInternal>
1.7087

> <Gold.Chemscore.Rot>
1.8220

> <Gold.Chemscore.Internal.Correction>
   9.000000E+99

> <Gold.Chemscore.Hbonds>
donor molecule, donor type, donor heavy atom, donor atom, acceptor molecule, acceptor atom, score
      L1  H     5    37       P1  8028  0.94
      L1  H    12    30       P1  7948  0.97
      L1  H    15    31       P1  7948  0.91

> <Gold.Chemscore.Hbond.Weighted>
-9.6022

> <Gold.Chemscore.Metal.Weighted>
-0.0000

> <Gold.Chemscore.Lipo.Weighted>
-6.6537

> <Gold.Chemscore.Internal_Hbond.Weighted>
0.0000

> <Gold.Chemscore.DEClash.Weighted>
0.3946

> <Gold.Chemscore.DEInternal.Weighted>
1.7087

> <Gold.Chemscore.Rot.Weighted>
4.6643

> <Gold.Chemscore.Internal.Correction.Weighted>
   9.000000E+99

> <Gold.Protein.RotatedTorsions>
[ 6907 6896 6895 6894 ] final  100.68 input  -60.11 | X-H torsion
[ 7974 7965 7964 7962 ] final  170.70 input  175.53 | X-H torsion
[ 8008 7997 7996 7995 ] final  171.49 input   59.86 | X-H torsion
[ 10167 10162 10161 10158 ] final   49.59 input  -65.29 | X-H torsion
[ 10718 10713 10712 10709 ] final  144.93 input   66.30 | X-H torsion
[ 10763 10752 10751 10750 ] final  -17.11 input  -60.55 | X-H torsion
[ 11005 11000 10999 10996 ] final  -25.67 input  -57.11 | X-H torsion

> <Gold.Protein.ActiveResidues>
 VAL166  LYS551  ARG553  GLY616  TRP617  ASP618  TYR619  PRO620  LYS621  CYS622 
 ASP623  PHE694  ASN695  SER759  ASP760  ASP761  ALA762  ILE779  LEU786  VAL792 
 PHE793  MET794  SER795  GLU796  ALA797  LYS798  CYS799  TRP800  GLU811  SER814 

> <Gold.Protein.RotatedAtoms>
  152.5367  134.0240  159.7994 H   0  0  0  0  0  0  0  0  0  0  0  0  # atno 6907 bound_to 6896
  151.0422  133.5689  159.2657 H   0  0  0  0  0  0  0  0  0  0  0  0  # atno 6908 bound_to 6896
  151.2654  135.0675  159.9167 H   0  0  0  0  0  0  0  0  0  0  0  0  # atno 6909 bound_to 6896
  144.7316  139.9241  143.6421 H   0  0  0  0  0  0  0  0  0  0  0  0  # atno 7974 bound_to 7965
  156.1266  140.1510  156.9127 H   0  0  0  0  0  0  0  0  0  0  0  0  # atno 8008 bound_to 7997
  154.4876  140.0860  156.7563 H   0  0  0  0  0  0  0  0  0  0  0  0  # atno 8009 bound_to 7997
  155.4332  140.3428  155.4284 H   0  0  0  0  0  0  0  0  0  0  0  0  # atno 8010 bound_to 7997
  140.2813  144.3153  150.6263 H   0  0  0  0  0  0  0  0  0  0  0  0  # atno 10167 bound_to 10162
  157.3513  131.0951  151.0997 H   0  0  0  0  0  0  0  0  0  0  0  0  # atno 10718 bound_to 10713
  153.5689  135.7008  153.5514 H   0  0  0  0  0  0  0  0  0  0  0  0  # atno 10763 bound_to 10752
  153.3362  135.4033  155.1535 H   0  0  0  0  0  0  0  0  0  0  0  0  # atno 10764 bound_to 10752
  154.8636  135.3731  154.5210 H   0  0  0  0  0  0  0  0  0  0  0  0  # atno 10765 bound_to 10752
  140.8959  133.7557  156.0481 H   0  0  0  0  0  0  0  0  0  0  0  0  # atno 11005 bound_to 11000
  146.0907  139.3897  143.0407 LP  0  0  0  0  0  0  0  0  0  0  0  0  # atno 17320 bound_to 7965
  145.7714  140.9895  143.1147 LP  0  0  0  0  0  0  0  0  0  0  0  0  # atno 17321 bound_to 7965
  140.5809  143.2173  151.7429 LP  0  0  0  0  0  0  0  0  0  0  0  0  # atno 17342 bound_to 10162
  139.4962  144.4081  152.0110 LP  0  0  0  0  0  0  0  0  0  0  0  0  # atno 17343 bound_to 10162
  157.2172  130.6464  149.5797 LP  0  0  0  0  0  0  0  0  0  0  0  0  # atno 17370 bound_to 10713
  155.9722  130.4641  150.6205 LP  0  0  0  0  0  0  0  0  0  0  0  0  # atno 17371 bound_to 10713
  140.8290  134.3201  157.5355 LP  0  0  0  0  0  0  0  0  0  0  0  0  # atno 17394 bound_to 11000
  139.8735  134.9352  156.3628 LP  0  0  0  0  0  0  0  0  0  0  0  0  # atno 17395 bound_to 11000

$$$$
