AV-unprocessed.smi:1699|AV-procd|sdf|6815|dock3
  -GOLD-   22720 7593D 1   1.00000     0.00000
 Structure written by MMmdl.
 37 38  0  0  0  0  0  0  0  0  1 V2000
  147.7564  132.9679  152.4226 C   0  0  0  0  0  0  0  0  0  0  0  0
  146.3914  132.9393  151.7543 C   0  0  0  0  0  0  0  0  0  0  0  0
  145.8011  131.6957  151.4437 C   0  0  0  0  0  0  0  0  0  0  0  0
  144.5385  131.6708  150.8273 C   0  0  0  0  0  0  0  0  0  0  0  0
  143.9163  132.8987  150.5445 C   0  0  0  0  0  0  0  0  0  0  0  0
  144.4734  134.0914  150.8366 N   0  0  0  0  0  0  0  0  0  0  0  0
  145.6915  134.1334  151.4328 C   0  0  0  0  0  0  0  0  0  0  0  0
  146.3383  135.3549  151.7740 N   0  0  0  0  0  0  0  0  0  0  0  0
  145.7841  136.5478  152.0529 C   0  0  0  0  0  0  0  0  0  0  0  0
  144.5785  136.7964  152.0315 O   0  0  0  0  0  0  0  0  0  0  0  0
  146.7240  137.4523  152.3649 N   0  0  0  0  0  0  0  0  0  0  0  0
  146.4836  138.8454  152.7374 C   0  0  2  0  0  0  0  0  0  0  0  0
  146.8095  139.7520  151.5410 C   0  0  0  0  0  0  0  0  0  0  0  0
  147.3182  139.2058  153.9819 C   0  0  2  0  0  0  0  0  0  0  0  0
  147.3431  140.6987  154.3207 C   0  0  0  0  0  0  0  0  0  0  0  0
  148.6394  140.8190  155.0872 C   0  0  0  0  0  0  0  0  0  0  0  0
  149.5433  139.8657  154.3130 C   0  0  0  0  0  0  0  0  0  0  0  0
  148.6873  138.8535  153.7894 O   0  0  0  0  0  0  0  0  0  0  0  0
  148.1273  131.9601  152.6123 H   0  0  0  0  0  0  0  0  0  0  0  0
  147.7038  133.4899  153.3784 H   0  0  0  0  0  0  0  0  0  0  0  0
  148.4808  133.4780  151.7869 H   0  0  0  0  0  0  0  0  0  0  0  0
  146.3072  130.7697  151.6743 H   0  0  0  0  0  0  0  0  0  0  0  0
  144.0597  130.7354  150.5780 H   0  0  0  0  0  0  0  0  0  0  0  0
  142.9458  132.9252  150.0716 H   0  0  0  0  0  0  0  0  0  0  0  0
  147.3451  135.3095  151.8225 H   0  0  0  0  0  0  0  0  0  0  0  0
  147.6877  137.1525  152.3521 H   0  0  0  0  0  0  0  0  0  0  0  0
  145.4318  138.9885  152.9910 H   0  0  0  0  0  0  0  0  0  0  0  0
  146.6218  140.7994  151.7781 H   0  0  0  0  0  0  0  0  0  0  0  0
  146.1948  139.4977  150.6769 H   0  0  0  0  0  0  0  0  0  0  0  0
  147.8554  139.6606  151.2458 H   0  0  0  0  0  0  0  0  0  0  0  0
  146.9558  138.6537  154.8509 H   0  0  0  0  0  0  0  0  0  0  0  0
  147.3916  141.2996  153.4112 H   0  0  0  0  0  0  0  0  0  0  0  0
  146.4752  141.0203  154.8970 H   0  0  0  0  0  0  0  0  0  0  0  0
  149.0254  141.8381  155.1240 H   0  0  0  0  0  0  0  0  0  0  0  0
  148.5041  140.4649  156.1100 H   0  0  0  0  0  0  0  0  0  0  0  0
  150.0161  140.3833  153.4776 H   0  0  0  0  0  0  0  0  0  0  0  0
  150.3297  139.4406  154.9370 H   0  0  0  0  0  0  0  0  0  0  0  0
  1  2  1  0  0  0  0
  1 19  1  0  0  0  0
  1 20  1  0  0  0  0
  1 21  1  0  0  0  0
  2  7  1  0  0  0  0
  2  3  2  0  0  0  0
  3  4  1  0  0  0  0
  3 22  1  0  0  0  0
  4  5  2  0  0  0  0
  4 23  1  0  0  0  0
  5  6  1  0  0  0  0
  5 24  1  0  0  0  0
  6  7  2  0  0  0  0
  7  8  1  0  0  0  0
  8  9  1  0  0  0  0
  8 25  1  0  0  0  0
  9 10  2  0  0  0  0
  9 11  1  0  0  0  0
 11 12  1  0  0  0  0
 11 26  1  0  0  0  0
 12 13  1  0  0  0  0
 12 14  1  0  0  0  0
 12 27  1  0  0  0  0
 13 28  1  0  0  0  0
 13 29  1  0  0  0  0
 13 30  1  0  0  0  0
 14 18  1  0  0  0  0
 14 15  1  0  0  0  0
 14 31  1  0  0  0  0
 15 16  1  0  0  0  0
 15 32  1  0  0  0  0
 15 33  1  0  0  0  0
 16 17  1  0  0  0  0
 16 34  1  0  0  0  0
 16 35  1  0  0  0  0
 17 18  1  0  0  0  0
 17 36  1  0  0  0  0
 17 37  1  0  0  0  0
M  END
> <s_m_source_file>
AV-unprocessed.smi

> <i_m_source_file_index>
1699

> <i_lp_mmshare_version>
43012

> <i_f3d_flags>
0

> <s_epik_input>
W0NIM11jMVtjSF1bY0hdW2NIXW5jMVtOSF1DKD1PKVtOSF1bQ0BIXShbQ0gzXSlbQ0BASF0yW0NIMl1bQ0gyXVtDSDJdTzI=

> <s_epik_cmdline>
J2VwaWtfcHl0aG9uJywgJy1waCcsICc3LjAnLCAnLXRuJywgJzgnLCAnLW1hJywgJzIwMCcsICctbWV0YWxfYmluZGluZycsICctaW1hZScsICc8aW5maWxlLm1hZT4nLCAnLW9tYWUnLCAnPG91dGZpbGUubWFlPic=

> <r_lp_tautomer_probability>
1

> <r_epik_Ionization_Penalty>
5.52788e-05

> <r_epik_Ionization_Penalty_Charging>
0

> <r_epik_Ionization_Penalty_Neutral>
5.52788e-05

> <r_epik_State_Penalty>
-0

> <r_epik_Charging_Adjusted_Penalty>
0

> <i_epik_Tot_Q>
0

> <i_epik_Tot_abs_Q>
0

> <r_epik_Metal_State_Penalty>
-0

> <b_epik_Metal_Only>
0

> <s_lp_Force_Field>
OPLS_2005

> <r_lp_Energy>
20.4349

> <b_lp_Chiralities_Consistent>
1

> <s_lp_Variant>
AV-unprocessed.smi:1699-1

> <Gold.Version>
5.8.1

> <Gold.Id.Protein>
6NUR|6NUR_protein|mol2

> <Gold.PLP.Fitness>
38.0321

> <Gold.PLP.PLP>
-29.9963

> <Gold.PLP.part.hbond>
-2.0000

> <Gold.PLP.part.metal>
0.0000

> <Gold.PLP.part.buried>
-1.9356

> <Gold.PLP.part.nonpolar>
-28.6502

> <Gold.PLP.part.repulsive>
2.4179

> <Gold.PLP.ligand.clash>
0.0000

> <Gold.PLP.ligand.torsion>
0.4527

> <Gold.PLP.Chemscore.Hbond>
1.9760

> <Gold.PLP.Chemscore.CHOScore>
1.0000

> <Gold.PLP.Chemscore.Metal>
0.0000

> <Gold.Chemscore.Hbonds>
donor molecule, donor type, donor heavy atom, donor atom, acceptor molecule, acceptor atom, score
      L1  H     8    25       P1  7948  0.98
      L1  H    11    26       P1  7948  1.00
      L1  C     5    24       P1 10186  1.00

> <Gold.PLP.Chemscore.Internal.Correction>
0.0132

> <Gold.Rescore>
     Score         DG    S(hbond)    S(metal)    S(lipo)     H(rot)  DE(clash)    DE(int)     intcor
     14.16     -18.06       1.94        0.00      78.71       1.22       2.21       1.69       ----

> <Gold.Chemscore.Fitness>
14.1615

> <Gold.Chemscore.DG>
-18.0582

> <Gold.Chemscore.ZeroCoef>
-5.4800

> <Gold.Chemscore.Hbond>
1.9437

> <Gold.Chemscore.Metal>
0.0000

> <Gold.Chemscore.Lipo>
78.7145

> <Gold.Chemscore.Internal_Hbond>
0.0000

> <Gold.Chemscore.DEClash>
2.2090

> <Gold.Chemscore.DEInternal>
1.6877

> <Gold.Chemscore.Rot>
1.2200

> <Gold.Chemscore.Internal.Correction>
   9.000000E+99

> <Gold.Chemscore.Hbonds>
donor molecule, donor type, donor heavy atom, donor atom, acceptor molecule, acceptor atom, score
      L1  H     8    25       P1  7948  0.91
      L1  H    11    26       P1  7948  0.97

> <Gold.Chemscore.Hbond.Weighted>
-6.4918

> <Gold.Chemscore.Metal.Weighted>
-0.0000

> <Gold.Chemscore.Lipo.Weighted>
-9.2096

> <Gold.Chemscore.Internal_Hbond.Weighted>
0.0000

> <Gold.Chemscore.DEClash.Weighted>
2.2090

> <Gold.Chemscore.DEInternal.Weighted>
1.6877

> <Gold.Chemscore.Rot.Weighted>
3.1232

> <Gold.Chemscore.Internal.Correction.Weighted>
   9.000000E+99

> <Gold.Protein.RotatedTorsions>
[ 6907 6896 6895 6894 ] final   24.02 input  -60.11 | X-H torsion
[ 7974 7965 7964 7962 ] final -134.57 input  175.53 | X-H torsion
[ 8008 7997 7996 7995 ] final  -95.96 input   59.86 | X-H torsion
[ 10167 10162 10161 10158 ] final   30.91 input  -65.29 | X-H torsion
[ 10718 10713 10712 10709 ] final  122.74 input   66.30 | X-H torsion
[ 10763 10752 10751 10750 ] final  161.03 input  -60.55 | X-H torsion
[ 11005 11000 10999 10996 ] final  157.32 input  -57.11 | X-H torsion

> <Gold.Protein.ActiveResidues>
 VAL166  LYS551  ARG553  GLY616  TRP617  ASP618  TYR619  PRO620  LYS621  CYS622 
 ASP623  PHE694  ASN695  SER759  ASP760  ASP761  ALA762  ILE779  LEU786  VAL792 
 PHE793  MET794  SER795  GLU796  ALA797  LYS798  CYS799  TRP800  GLU811  SER814 

> <Gold.Protein.RotatedAtoms>
  151.9513  135.0168  160.0541 H   0  0  0  0  0  0  0  0  0  0  0  0  # atno 6907 bound_to 6896
  152.1951  133.4796  159.5037 H   0  0  0  0  0  0  0  0  0  0  0  0  # atno 6908 bound_to 6896
  150.6943  134.1580  159.4208 H   0  0  0  0  0  0  0  0  0  0  0  0  # atno 6909 bound_to 6896
  144.9091  140.6871  143.5036 H   0  0  0  0  0  0  0  0  0  0  0  0  # atno 7974 bound_to 7965
  154.7682  140.0475  157.1030 H   0  0  0  0  0  0  0  0  0  0  0  0  # atno 8008 bound_to 7997
  154.9853  140.3106  155.4909 H   0  0  0  0  0  0  0  0  0  0  0  0  # atno 8009 bound_to 7997
  156.2916  140.2228  156.4954 H   0  0  0  0  0  0  0  0  0  0  0  0  # atno 8010 bound_to 7997
  140.4636  144.0869  150.6219 H   0  0  0  0  0  0  0  0  0  0  0  0  # atno 10167 bound_to 10162
  157.5719  131.1082  150.8351 H   0  0  0  0  0  0  0  0  0  0  0  0  # atno 10718 bound_to 10713
  154.2566  135.2770  155.2795 H   0  0  0  0  0  0  0  0  0  0  0  0  # atno 10763 bound_to 10752
  154.5420  135.5700  153.6851 H   0  0  0  0  0  0  0  0  0  0  0  0  # atno 10764 bound_to 10752
  152.9970  135.6253  154.2714 H   0  0  0  0  0  0  0  0  0  0  0  0  # atno 10765 bound_to 10752
  140.1758  134.8511  157.2744 H   0  0  0  0  0  0  0  0  0  0  0  0  # atno 11005 bound_to 11000
  145.3485  139.1712  143.4447 LP  0  0  0  0  0  0  0  0  0  0  0  0  # atno 17320 bound_to 7965
  146.3149  140.3534  142.8658 LP  0  0  0  0  0  0  0  0  0  0  0  0  # atno 17321 bound_to 7965
  140.4063  143.2678  151.9886 LP  0  0  0  0  0  0  0  0  0  0  0  0  # atno 17342 bound_to 10162
  139.4809  144.5954  151.7700 LP  0  0  0  0  0  0  0  0  0  0  0  0  # atno 17343 bound_to 10162
  156.8820  130.5182  149.5290 LP  0  0  0  0  0  0  0  0  0  0  0  0  # atno 17370 bound_to 10713
  156.0764  130.5785  150.9482 LP  0  0  0  0  0  0  0  0  0  0  0  0  # atno 17371 bound_to 10713
  140.2324  134.3893  155.7516 LP  0  0  0  0  0  0  0  0  0  0  0  0  # atno 17394 bound_to 11000
  141.2220  133.7222  156.8662 LP  0  0  0  0  0  0  0  0  0  0  0  0  # atno 17395 bound_to 11000

$$$$
