AV-unprocessed.smi:2208|AV-procd|sdf|8946|dock10
  -GOLD-   2272012163D 1   1.00000     0.00000
 Structure written by MMmdl.
 35 36  0  0  0  0  0  0  0  0  1 V2000
  149.1375  140.0443  154.1676 C   0  0  0  0  0  0  0  0  0  0  0  0
  150.2656  139.9033  155.1496 C   0  0  0  0  0  0  0  0  0  0  0  0
  151.5070  140.0682  154.7257 N   0  0  0  0  0  0  0  0  0  0  0  0
  152.3227  139.8952  155.8475 O   0  0  0  0  0  0  0  0  0  0  0  0
  151.5311  139.6288  156.9165 C   0  0  0  0  0  0  0  0  0  0  0  0
  152.2241  139.4287  158.2219 C   0  0  0  0  0  0  0  0  0  0  0  0
  150.2139  139.6142  156.5447 C   0  0  0  0  0  0  0  0  0  0  0  0
  148.9993  139.3699  157.4046 C   0  0  0  0  0  0  0  0  0  0  0  0
  148.8628  137.8714  157.6684 C   0  0  0  0  0  0  0  0  0  0  0  0
  148.6802  137.0945  156.7314 O   0  0  0  0  0  0  0  0  0  0  0  0
  148.9259  137.4854  158.9516 N   0  0  0  0  0  0  0  0  0  0  0  0
  148.7060  136.1273  159.4316 C   0  0  0  0  0  0  0  0  0  0  0  0
  147.6614  136.1043  160.5591 C   0  0  1  0  0  0  0  0  0  0  0  0
  147.8131  134.9293  161.5201 C   0  0  0  0  0  0  0  0  0  0  0  0
  147.0750  135.4413  162.7369 C   0  0  0  0  0  0  0  0  0  0  0  0
  147.4257  136.9286  162.7322 C   0  0  0  0  0  0  0  0  0  0  0  0
  147.7955  137.2507  161.3932 O   0  0  0  0  0  0  0  0  0  0  0  0
  149.0553  141.0722  153.8135 H   0  0  0  0  0  0  0  0  0  0  0  0
  148.1798  139.7732  154.6106 H   0  0  0  0  0  0  0  0  0  0  0  0
  149.2908  139.4033  153.2990 H   0  0  0  0  0  0  0  0  0  0  0  0
  152.4878  140.3880  158.6670 H   0  0  0  0  0  0  0  0  0  0  0  0
  153.1401  138.8524  158.0917 H   0  0  0  0  0  0  0  0  0  0  0  0
  151.5875  138.8937  158.9267 H   0  0  0  0  0  0  0  0  0  0  0  0
  149.0658  139.8906  158.3598 H   0  0  0  0  0  0  0  0  0  0  0  0
  148.0929  139.7435  156.9262 H   0  0  0  0  0  0  0  0  0  0  0  0
  149.0779  138.1958  159.6529 H   0  0  0  0  0  0  0  0  0  0  0  0
  148.3907  135.4844  158.6082 H   0  0  0  0  0  0  0  0  0  0  0  0
  149.6559  135.7301  159.7904 H   0  0  0  0  0  0  0  0  0  0  0  0
  146.6510  136.0980  160.1461 H   0  0  0  0  0  0  0  0  0  0  0  0
  147.3980  134.0010  161.1266 H   0  0  0  0  0  0  0  0  0  0  0  0
  148.8635  134.7617  161.7624 H   0  0  0  0  0  0  0  0  0  0  0  0
  146.0005  135.3107  162.6005 H   0  0  0  0  0  0  0  0  0  0  0  0
  147.3649  134.9372  163.6591 H   0  0  0  0  0  0  0  0  0  0  0  0
  146.5905  137.5438  163.0671 H   0  0  0  0  0  0  0  0  0  0  0  0
  148.2761  137.1287  163.3844 H   0  0  0  0  0  0  0  0  0  0  0  0
  1  2  1  0  0  0  0
  1 18  1  0  0  0  0
  1 19  1  0  0  0  0
  1 20  1  0  0  0  0
  2  7  1  0  0  0  0
  2  3  2  0  0  0  0
  3  4  1  0  0  0  0
  4  5  1  0  0  0  0
  5  6  1  0  0  0  0
  5  7  2  0  0  0  0
  6 21  1  0  0  0  0
  6 22  1  0  0  0  0
  6 23  1  0  0  0  0
  7  8  1  0  0  0  0
  8  9  1  0  0  0  0
  8 24  1  0  0  0  0
  8 25  1  0  0  0  0
  9 10  2  0  0  0  0
  9 11  1  0  0  0  0
 11 12  1  0  0  0  0
 11 26  1  0  0  0  0
 12 13  1  0  0  0  0
 12 27  1  0  0  0  0
 12 28  1  0  0  0  0
 13 17  1  0  0  0  0
 13 14  1  0  0  0  0
 13 29  1  0  0  0  0
 14 15  1  0  0  0  0
 14 30  1  0  0  0  0
 14 31  1  0  0  0  0
 15 16  1  0  0  0  0
 15 32  1  0  0  0  0
 15 33  1  0  0  0  0
 16 17  1  0  0  0  0
 16 34  1  0  0  0  0
 16 35  1  0  0  0  0
M  END
> <s_m_source_file>
AV-unprocessed.smi

> <i_m_source_file_index>
2208

> <i_lp_mmshare_version>
43012

> <i_f3d_flags>
0

> <s_epik_input>
W0NIM11jMW5vYyhbQ0gzXSljMVtDSDJdQyg9TylbTkhdW0NIMl1bQ0BASF0yW0NIMl1bQ0gyXVtDSDJdTzI=

> <s_epik_cmdline>
J2VwaWtfcHl0aG9uJywgJy1waCcsICc3LjAnLCAnLXRuJywgJzgnLCAnLW1hJywgJzIwMCcsICctbWV0YWxfYmluZGluZycsICctaW1hZScsICc8aW5maWxlLm1hZT4nLCAnLW9tYWUnLCAnPG91dGZpbGUubWFlPic=

> <r_lp_tautomer_probability>
1

> <r_epik_Ionization_Penalty>
3.13901e-08

> <r_epik_Ionization_Penalty_Charging>
0

> <r_epik_Ionization_Penalty_Neutral>
3.13901e-08

> <r_epik_State_Penalty>
-0

> <r_epik_Charging_Adjusted_Penalty>
0

> <i_epik_Tot_Q>
0

> <i_epik_Tot_abs_Q>
0

> <r_epik_Metal_State_Penalty>
-0

> <b_epik_Metal_Only>
0

> <s_lp_Force_Field>
OPLS_2005

> <r_lp_Energy>
10.5641

> <b_lp_Chiralities_Consistent>
1

> <s_lp_Variant>
AV-unprocessed.smi:2208-2

> <Gold.Version>
5.8.1

> <Gold.Id.Protein>
6NUR|6NUR_protein|mol2

> <Gold.PLP.Fitness>
40.5308

> <Gold.PLP.PLP>
-30.4640

> <Gold.PLP.part.hbond>
-4.0000

> <Gold.PLP.part.metal>
0.0000

> <Gold.PLP.part.buried>
-3.2141

> <Gold.PLP.part.nonpolar>
-22.2727

> <Gold.PLP.part.repulsive>
0.2524

> <Gold.PLP.ligand.clash>
0.0000

> <Gold.PLP.ligand.torsion>
0.5385

> <Gold.PLP.Chemscore.Hbond>
3.7120

> <Gold.PLP.Chemscore.CHOScore>
0.0000

> <Gold.PLP.Chemscore.Metal>
0.0000

> <Gold.Chemscore.Hbonds>
donor molecule, donor type, donor heavy atom, donor atom, acceptor molecule, acceptor atom, score
      P1  H  6931  6943       L1    17  0.60
      P1  H  6934  6947       L1    17  0.75
      P1  H  7989  7998       L1     3  0.84
      P1  H  7997  8008       L1     4  0.80

> <Gold.PLP.Chemscore.Internal.Correction>
0.0078

> <Gold.Rescore>
     Score         DG    S(hbond)    S(metal)    S(lipo)     H(rot)  DE(clash)    DE(int)     intcor
     19.11     -19.68       3.16        0.00      65.08       1.56       0.01       0.56       ----

> <Gold.Chemscore.Fitness>
19.1113

> <Gold.Chemscore.DG>
-19.6816

> <Gold.Chemscore.ZeroCoef>
-5.4800

> <Gold.Chemscore.Hbond>
3.1641

> <Gold.Chemscore.Metal>
0.0000

> <Gold.Chemscore.Lipo>
65.0805

> <Gold.Chemscore.Internal_Hbond>
0.0000

> <Gold.Chemscore.DEClash>
0.0149

> <Gold.Chemscore.DEInternal>
0.5554

> <Gold.Chemscore.Rot>
1.5551

> <Gold.Chemscore.Internal.Correction>
   9.000000E+99

> <Gold.Chemscore.Hbonds>
donor molecule, donor type, donor heavy atom, donor atom, acceptor molecule, acceptor atom, score
      P1  H  6931  6943       L1    17  0.04
      P1  H  6934  6947       L1    17  0.55
      P1  H  7989  7998       L1     3  0.76
      P1  H  7997  8008       L1     4  0.60

> <Gold.Chemscore.Hbond.Weighted>
-10.5681

> <Gold.Chemscore.Metal.Weighted>
-0.0000

> <Gold.Chemscore.Lipo.Weighted>
-7.6144

> <Gold.Chemscore.Internal_Hbond.Weighted>
0.0000

> <Gold.Chemscore.DEClash.Weighted>
0.0149

> <Gold.Chemscore.DEInternal.Weighted>
0.5554

> <Gold.Chemscore.Rot.Weighted>
3.9809

> <Gold.Chemscore.Internal.Correction.Weighted>
   9.000000E+99

> <Gold.Protein.RotatedTorsions>
[ 6907 6896 6895 6894 ] final   94.73 input  -60.11 | X-H torsion
[ 7974 7965 7964 7962 ] final  -13.72 input  175.53 | X-H torsion
[ 8008 7997 7996 7995 ] final  -49.52 input   59.86 | X-H torsion
[ 10167 10162 10161 10158 ] final  138.47 input  -65.29 | X-H torsion
[ 10718 10713 10712 10709 ] final  119.31 input   66.30 | X-H torsion
[ 10763 10752 10751 10750 ] final   78.35 input  -60.55 | X-H torsion
[ 11005 11000 10999 10996 ] final   61.51 input  -57.11 | X-H torsion

> <Gold.Protein.ActiveResidues>
 VAL166  LYS551  ARG553  GLY616  TRP617  ASP618  TYR619  PRO620  LYS621  CYS622 
 ASP623  PHE694  ASN695  SER759  ASP760  ASP761  ALA762  ILE779  LEU786  VAL792 
 PHE793  MET794  SER795  GLU796  ALA797  LYS798  CYS799  TRP800  GLU811  SER814 

> <Gold.Protein.RotatedAtoms>
  152.5448  134.1148  159.8373 H   0  0  0  0  0  0  0  0  0  0  0  0  # atno 6907 bound_to 6896
  151.1210  133.5096  159.2609 H   0  0  0  0  0  0  0  0  0  0  0  0  # atno 6908 bound_to 6896
  151.1778  135.0357  159.8834 H   0  0  0  0  0  0  0  0  0  0  0  0  # atno 6909 bound_to 6896
  146.2103  140.3244  142.8393 H   0  0  0  0  0  0  0  0  0  0  0  0  # atno 7974 bound_to 7965
  154.4045  140.1294  156.4516 H   0  0  0  0  0  0  0  0  0  0  0  0  # atno 8008 bound_to 7997
  155.7360  140.3490  155.5062 H   0  0  0  0  0  0  0  0  0  0  0  0  # atno 8009 bound_to 7997
  155.9083  140.1031  157.1289 H   0  0  0  0  0  0  0  0  0  0  0  0  # atno 8010 bound_to 7997
  139.5110  144.6351  151.5717 H   0  0  0  0  0  0  0  0  0  0  0  0  # atno 10167 bound_to 10162
  157.5970  131.1056  150.7879 H   0  0  0  0  0  0  0  0  0  0  0  0  # atno 10718 bound_to 10713
  153.0867  135.4880  154.8611 H   0  0  0  0  0  0  0  0  0  0  0  0  # atno 10763 bound_to 10752
  154.7220  135.3041  154.9035 H   0  0  0  0  0  0  0  0  0  0  0  0  # atno 10764 bound_to 10752
  153.9696  135.6802  153.4800 H   0  0  0  0  0  0  0  0  0  0  0  0  # atno 10765 bound_to 10752
  140.0156  134.6230  155.9715 H   0  0  0  0  0  0  0  0  0  0  0  0  # atno 11005 bound_to 11000
  144.8897  140.7508  143.5934 LP  0  0  0  0  0  0  0  0  0  0  0  0  # atno 17320 bound_to 7965
  145.3166  139.1801  143.4610 LP  0  0  0  0  0  0  0  0  0  0  0  0  # atno 17321 bound_to 7965
  140.6097  143.9458  150.6444 LP  0  0  0  0  0  0  0  0  0  0  0  0  # atno 17342 bound_to 10162
  140.2697  143.3465  152.1249 LP  0  0  0  0  0  0  0  0  0  0  0  0  # atno 17343 bound_to 10162
  156.8287  130.5008  149.5334 LP  0  0  0  0  0  0  0  0  0  0  0  0  # atno 17370 bound_to 10713
  156.1035  130.5987  150.9933 LP  0  0  0  0  0  0  0  0  0  0  0  0  # atno 17371 bound_to 10713
  141.1740  133.6539  156.4759 LP  0  0  0  0  0  0  0  0  0  0  0  0  # atno 17394 bound_to 11000
  140.4477  134.6957  157.5024 LP  0  0  0  0  0  0  0  0  0  0  0  0  # atno 17395 bound_to 11000

$$$$
