AV-unprocessed.smi:149|AV-procd|sdf|1239|dock7
  -GOLD-   2262018453D 1   1.00000     0.00000
 Structure written by MMmdl.
 59 63  0  0  0  0  0  0  0  0  1 V2000
  150.8480  130.2492  157.9914 C   0  0  0  0  0  0  0  0  0  0  0  0
  151.3299  129.2187  156.9492 C   0  0  1  0  0  0  0  0  0  0  0  0
  150.1684  128.7995  156.0338 C   0  0  0  0  0  0  0  0  0  0  0  0
  150.3135  129.5807  154.8141 N   0  0  0  0  0  0  0  0  0  0  0  0
  149.2330  129.9309  154.0696 C   0  0  0  0  0  0  0  0  0  0  0  0
  148.3723  128.9580  153.6675 N   0  0  0  0  0  0  0  0  0  0  0  0
  147.2945  129.2626  152.9395 C   0  0  0  0  0  0  0  0  0  0  0  0
  146.8892  130.4586  152.5109 N   0  0  0  0  0  0  0  0  0  0  0  0
  147.7414  131.4432  152.9154 C   0  0  0  0  0  0  0  0  0  0  0  0
  148.9217  131.2716  153.6950 C   0  0  0  0  0  0  0  0  0  0  0  0
  149.5075  132.5109  153.9317 N   0  0  0  0  0  0  0  0  0  0  0  0
  148.7236  133.3603  153.3268 C   0  0  0  0  0  0  0  0  0  0  0  0
  147.6534  132.8017  152.6666 N   0  0  0  0  0  0  0  0  0  0  0  0
  146.6183  133.4990  151.9615 C   0  0  0  0  0  0  0  0  0  0  0  0
  145.4024  134.0638  152.6997 C   0  0  0  0  0  0  0  0  0  0  0  0
  144.5319  133.8040  151.4494 C   0  0  0  0  0  0  0  0  0  0  0  0
  143.1244  133.2635  151.7563 C   0  0  0  0  0  0  0  0  0  0  0  0
  142.5600  132.5983  150.6451 O   0  0  0  0  0  0  0  0  0  0  0  0
  144.4166  135.0209  150.5067 C   0  0  0  0  0  0  0  0  0  0  0  0
  143.9423  134.6631  149.2248 O   0  0  0  0  0  0  0  0  0  0  0  0
  145.6066  132.7521  151.0899 C   0  0  0  0  0  0  0  0  0  0  0  0
  151.4869  130.4354  154.9051 C   0  0  0  0  0  0  0  0  0  0  0  0
  152.3808  129.7635  155.9554 C   0  0  1  0  0  0  0  0  0  0  0  0
  153.4435  130.6061  156.5203 N   0  0  0  0  0  0  0  0  0  0  0  0
  152.9868  131.9715  156.7782 C   0  0  0  0  0  0  0  0  0  0  0  0
  154.1060  132.8563  157.3550 C   0  0  0  0  0  0  0  0  0  0  0  0
  155.2186  132.8614  156.4675 O   0  0  0  0  0  0  0  0  0  0  0  0
  155.7251  131.5548  156.2196 C   0  0  0  0  0  0  0  0  0  0  0  0
  154.6080  130.6728  155.6369 C   0  0  0  0  0  0  0  0  0  0  0  0
  150.4423  131.1421  157.5154 H   0  0  0  0  0  0  0  0  0  0  0  0
  151.6528  130.5652  158.6541 H   0  0  0  0  0  0  0  0  0  0  0  0
  150.0634  129.8268  158.6195 H   0  0  0  0  0  0  0  0  0  0  0  0
  151.7175  128.3480  157.4790 H   0  0  0  0  0  0  0  0  0  0  0  0
  150.2469  127.7422  155.7784 H   0  0  0  0  0  0  0  0  0  0  0  0
  149.2019  128.9595  156.5134 H   0  0  0  0  0  0  0  0  0  0  0  0
  146.6669  128.4289  152.6610 H   0  0  0  0  0  0  0  0  0  0  0  0
  148.9099  134.4243  153.3442 H   0  0  0  0  0  0  0  0  0  0  0  0
  147.1194  134.2799  151.3869 H   0  0  0  0  0  0  0  0  0  0  0  0
  145.1204  133.4513  153.5586 H   0  0  0  0  0  0  0  0  0  0  0  0
  145.4958  135.1119  152.9863 H   0  0  0  0  0  0  0  0  0  0  0  0
  143.1551  132.5493  152.5795 H   0  0  0  0  0  0  0  0  0  0  0  0
  142.4518  134.0623  152.0701 H   0  0  0  0  0  0  0  0  0  0  0  0
  141.9835  133.1976  150.1964 H   0  0  0  0  0  0  0  0  0  0  0  0
  143.7542  135.7797  150.9246 H   0  0  0  0  0  0  0  0  0  0  0  0
  145.3828  135.5078  150.3724 H   0  0  0  0  0  0  0  0  0  0  0  0
  144.6734  134.3662  148.7053 H   0  0  0  0  0  0  0  0  0  0  0  0
  145.8718  132.7032  150.0335 H   0  0  0  0  0  0  0  0  0  0  0  0
  145.3703  131.7594  151.4781 H   0  0  0  0  0  0  0  0  0  0  0  0
  151.9867  130.5108  153.9388 H   0  0  0  0  0  0  0  0  0  0  0  0
  151.1952  131.4377  155.2228 H   0  0  0  0  0  0  0  0  0  0  0  0
  152.8448  128.9015  155.4719 H   0  0  0  0  0  0  0  0  0  0  0  0
  152.6122  132.4175  155.8556 H   0  0  0  0  0  0  0  0  0  0  0  0
  152.1551  131.9655  157.4826 H   0  0  0  0  0  0  0  0  0  0  0  0
  153.7512  133.8784  157.4877 H   0  0  0  0  0  0  0  0  0  0  0  0
  154.4165  132.4944  158.3362 H   0  0  0  0  0  0  0  0  0  0  0  0
  156.5588  131.6223  155.5206 H   0  0  0  0  0  0  0  0  0  0  0  0
  156.1146  131.1250  157.1439 H   0  0  0  0  0  0  0  0  0  0  0  0
  155.0080  129.6761  155.4552 H   0  0  0  0  0  0  0  0  0  0  0  0
  154.3114  131.0674  154.6637 H   0  0  0  0  0  0  0  0  0  0  0  0
  1  2  1  0  0  0  0
  1 30  1  0  0  0  0
  1 31  1  0  0  0  0
  1 32  1  0  0  0  0
  2 23  1  0  0  0  0
  2  3  1  0  0  0  0
  2 33  1  0  0  0  0
  3  4  1  0  0  0  0
  3 34  1  0  0  0  0
  3 35  1  0  0  0  0
  4  5  1  0  0  0  0
  4 22  1  0  0  0  0
  5 10  1  0  0  0  0
  5  6  2  0  0  0  0
  6  7  1  0  0  0  0
  7  8  2  0  0  0  0
  7 36  1  0  0  0  0
  8  9  1  0  0  0  0
  9 13  1  0  0  0  0
  9 10  2  0  0  0  0
 10 11  1  0  0  0  0
 11 12  2  0  0  0  0
 12 13  1  0  0  0  0
 12 37  1  0  0  0  0
 13 14  1  0  0  0  0
 14 21  1  0  0  0  0
 14 15  1  0  0  0  0
 14 38  1  0  0  0  0
 15 16  1  0  0  0  0
 15 39  1  0  0  0  0
 15 40  1  0  0  0  0
 16 17  1  0  0  0  0
 16 19  1  0  0  0  0
 16 21  1  0  0  0  0
 17 18  1  0  0  0  0
 17 41  1  0  0  0  0
 17 42  1  0  0  0  0
 18 43  1  0  0  0  0
 19 20  1  0  0  0  0
 19 44  1  0  0  0  0
 19 45  1  0  0  0  0
 20 46  1  0  0  0  0
 21 47  1  0  0  0  0
 21 48  1  0  0  0  0
 22 23  1  0  0  0  0
 22 49  1  0  0  0  0
 22 50  1  0  0  0  0
 23 24  1  0  0  0  0
 23 51  1  0  0  0  0
 24 29  1  0  0  0  0
 24 25  1  0  0  0  0
 25 26  1  0  0  0  0
 25 52  1  0  0  0  0
 25 53  1  0  0  0  0
 26 27  1  0  0  0  0
 26 54  1  0  0  0  0
 26 55  1  0  0  0  0
 27 28  1  0  0  0  0
 28 29  1  0  0  0  0
 28 56  1  0  0  0  0
 28 57  1  0  0  0  0
 29 58  1  0  0  0  0
 29 59  1  0  0  0  0
M  END
> <s_m_source_file>
AV-unprocessed.smi

> <i_m_source_file_index>
149

> <i_lp_mmshare_version>
43012

> <i_f3d_flags>
0

> <s_epik_input>
W0NIMl0xW0NIMl1PW0NIMl1bQ0gyXU4xW0NAQEhdMltDSDJdTihbQ0gyXVtDQEhdMltDSDNdKWMobltjSF1uMyljKGMzNCluW2NIXW40W0NIXShbQ0gyXTUpW0NIMl1DNShbQ0gyXVtPSF0pW0NIMl1bT0hd

> <s_epik_cmdline>
J2VwaWtfcHl0aG9uJywgJy1waCcsICc3LjAnLCAnLXRuJywgJzgnLCAnLW1hJywgJzIwMCcsICctbWV0YWxfYmluZGluZycsICctaW1hZScsICc8aW5maWxlLm1hZT4nLCAnLW9tYWUnLCAnPG91dGZpbGUubWFlPic=

> <r_lp_tautomer_probability>
1

> <r_epik_Ionization_Penalty>
0.41918

> <r_epik_Ionization_Penalty_Charging>
0

> <r_epik_Ionization_Penalty_Neutral>
0.41918

> <r_epik_State_Penalty>
0.654916

> <r_epik_Charging_Adjusted_Penalty>
0.654916

> <i_epik_Tot_Q>
0

> <i_epik_Tot_abs_Q>
0

> <r_epik_Metal_State_Penalty>
0.653217

> <b_epik_Metal_Only>
0

> <s_lp_Force_Field>
OPLS_2005

> <r_lp_Energy>
77.678

> <b_lp_Chiralities_Consistent>
1

> <s_lp_Variant>
AV-unprocessed.smi:149-6

> <Gold.Version>
5.8.1

> <Gold.Id.Protein>
6NUR|6NUR_protein|mol2

> <Gold.PLP.Fitness>
46.8947

> <Gold.PLP.PLP>
-41.1369

> <Gold.PLP.part.hbond>
-3.5478

> <Gold.PLP.part.metal>
0.0000

> <Gold.PLP.part.buried>
-4.7862

> <Gold.PLP.part.nonpolar>
-33.1694

> <Gold.PLP.part.repulsive>
0.6697

> <Gold.PLP.ligand.clash>
0.0000

> <Gold.PLP.ligand.torsion>
1.6882

> <Gold.PLP.Chemscore.Hbond>
2.0000

> <Gold.PLP.Chemscore.CHOScore>
0.7903

> <Gold.PLP.Chemscore.Metal>
0.0000

> <Gold.Chemscore.Hbonds>
donor molecule, donor type, donor heavy atom, donor atom, acceptor molecule, acceptor atom, score
      L1  H    18    43       P1 10186  1.00
      L1  H    20    46       P1  7921  0.96
      L1  C    12    37       P1  7948  0.76

> <Gold.PLP.Chemscore.Internal.Correction>
0.7632

> <Gold.Rescore>
     Score         DG    S(hbond)    S(metal)    S(lipo)     H(rot)  DE(clash)    DE(int)     intcor
      8.21     -12.55       1.97        0.00      70.64       3.04       0.20       4.14       ----

> <Gold.Chemscore.Fitness>
8.2119

> <Gold.Chemscore.DG>
-12.5518

> <Gold.Chemscore.ZeroCoef>
-5.4800

> <Gold.Chemscore.Hbond>
1.9719

> <Gold.Chemscore.Metal>
0.0000

> <Gold.Chemscore.Lipo>
70.6449

> <Gold.Chemscore.Internal_Hbond>
0.0000

> <Gold.Chemscore.DEClash>
0.2001

> <Gold.Chemscore.DEInternal>
4.1398

> <Gold.Chemscore.Rot>
3.0390

> <Gold.Chemscore.Internal.Correction>
   9.000000E+99

> <Gold.Chemscore.Hbonds>
donor molecule, donor type, donor heavy atom, donor atom, acceptor molecule, acceptor atom, score
      L1  H    18    43       P1 10186  1.00
      L1  H    20    46       P1  7921  0.92

> <Gold.Chemscore.Hbond.Weighted>
-6.5862

> <Gold.Chemscore.Metal.Weighted>
-0.0000

> <Gold.Chemscore.Lipo.Weighted>
-8.2655

> <Gold.Chemscore.Internal_Hbond.Weighted>
0.0000

> <Gold.Chemscore.DEClash.Weighted>
0.2001

> <Gold.Chemscore.DEInternal.Weighted>
4.1398

> <Gold.Chemscore.Rot.Weighted>
7.7798

> <Gold.Chemscore.Internal.Correction.Weighted>
   9.000000E+99

> <Gold.Protein.RotatedTorsions>
[ 6907 6896 6895 6894 ] final   17.70 input  -60.11 | X-H torsion
[ 7974 7965 7964 7962 ] final  135.22 input  175.53 | X-H torsion
[ 8008 7997 7996 7995 ] final   -0.61 input   59.86 | X-H torsion
[ 10167 10162 10161 10158 ] final  129.94 input  -65.29 | X-H torsion
[ 10718 10713 10712 10709 ] final  -58.57 input   66.30 | X-H torsion
[ 10763 10752 10751 10750 ] final  -27.17 input  -60.55 | X-H torsion
[ 11005 11000 10999 10996 ] final -138.26 input  -57.11 | X-H torsion

> <Gold.Protein.ActiveResidues>
 VAL166  LYS551  ARG553  GLY616  TRP617  ASP618  TYR619  PRO620  LYS621  CYS622 
 ASP623  PHE694  ASN695  SER759  ASP760  ASP761  ALA762  ILE779  LEU786  VAL792 
 PHE793  MET794  SER795  GLU796  ALA797  LYS798  CYS799  TRP800  GLU811  SER814 

> <Gold.Protein.RotatedAtoms>
  151.8538  135.0548  160.0461 H   0  0  0  0  0  0  0  0  0  0  0  0  # atno 6907 bound_to 6896
  152.2716  133.5383  159.5451 H   0  0  0  0  0  0  0  0  0  0  0  0  # atno 6908 bound_to 6896
  150.7154  134.0606  159.3872 H   0  0  0  0  0  0  0  0  0  0  0  0  # atno 6909 bound_to 6896
  144.9685  139.4632  143.5445 H   0  0  0  0  0  0  0  0  0  0  0  0  # atno 7974 bound_to 7965
  154.6561  140.2580  155.7160 H   0  0  0  0  0  0  0  0  0  0  0  0  # atno 8008 bound_to 7997
  156.2597  140.2858  156.0935 H   0  0  0  0  0  0  0  0  0  0  0  0  # atno 8009 bound_to 7997
  155.1378  140.0380  157.2781 H   0  0  0  0  0  0  0  0  0  0  0  0  # atno 8010 bound_to 7997
  139.5454  144.6768  151.4491 H   0  0  0  0  0  0  0  0  0  0  0  0  # atno 10167 bound_to 10162
  156.1125  130.4173  150.0596 H   0  0  0  0  0  0  0  0  0  0  0  0  # atno 10718 bound_to 10713
  153.7278  135.6941  153.4997 H   0  0  0  0  0  0  0  0  0  0  0  0  # atno 10763 bound_to 10752
  153.2157  135.4387  155.0431 H   0  0  0  0  0  0  0  0  0  0  0  0  # atno 10764 bound_to 10752
  154.8263  135.3448  154.6809 H   0  0  0  0  0  0  0  0  0  0  0  0  # atno 10765 bound_to 10752
  140.8632  134.2142  157.4695 H   0  0  0  0  0  0  0  0  0  0  0  0  # atno 11005 bound_to 11000
  146.3375  139.8881  142.8813 LP  0  0  0  0  0  0  0  0  0  0  0  0  # atno 17320 bound_to 7965
  145.2594  141.0072  143.3835 LP  0  0  0  0  0  0  0  0  0  0  0  0  # atno 17321 bound_to 7965
  140.6700  143.8315  150.6987 LP  0  0  0  0  0  0  0  0  0  0  0  0  # atno 17342 bound_to 10162
  140.1736  143.4173  152.1983 LP  0  0  0  0  0  0  0  0  0  0  0  0  # atno 17343 bound_to 10162
  156.8556  130.9474  151.3622 LP  0  0  0  0  0  0  0  0  0  0  0  0  # atno 17370 bound_to 10713
  157.6307  130.8727  149.9268 LP  0  0  0  0  0  0  0  0  0  0  0  0  # atno 17371 bound_to 10713
  139.8708  134.9739  156.4828 LP  0  0  0  0  0  0  0  0  0  0  0  0  # atno 17394 bound_to 11000
  140.8658  133.8025  155.9313 LP  0  0  0  0  0  0  0  0  0  0  0  0  # atno 17395 bound_to 11000

$$$$
