AV-unprocessed.smi:2265|AV-procd|sdf|9144|dock4
  -GOLD-   2272012353D 1   1.00000     0.00000
 Structure written by MMmdl.
 36 37  0  0  0  0  0  0  0  0  1 V2000
  151.5612  139.0132  154.8056 C   0  0  0  0  0  0  0  0  0  0  0  0
  150.1539  139.6193  154.8226 C   0  0  0  0  0  0  0  0  0  0  0  0
  149.2126  138.9492  153.8131 C   0  0  0  0  0  0  0  0  0  0  0  0
  147.7860  139.4561  153.9308 C   0  0  1  0  0  0  0  0  0  0  0  0
  147.0214  139.9111  152.7161 C   0  0  0  0  0  0  0  0  0  0  0  0
  146.5977  138.6510  153.4432 C   0  0  1  0  0  0  0  0  0  0  0  0
  146.8193  137.4053  152.7708 N   0  0  0  0  0  0  0  0  0  0  0  0
  145.8968  136.5095  152.3767 C   0  0  0  0  0  0  0  0  0  0  0  0
  144.6971  136.7247  152.5478 O   0  0  0  0  0  0  0  0  0  0  0  0
  146.4173  135.4234  151.7634 N   0  0  0  0  0  0  0  0  0  0  0  0
  145.7413  134.3296  151.2093 C   0  0  0  0  0  0  0  0  0  0  0  0
  144.7504  134.4501  150.3705 N   0  0  0  0  0  0  0  0  0  0  0  0
  144.0997  133.3366  149.8392 C   0  0  0  0  0  0  0  0  0  0  0  0
  144.4741  132.0905  150.1806 C   0  0  0  0  0  0  0  0  0  0  0  0
  145.5290  131.8813  151.0799 N   0  0  0  0  0  0  0  0  0  0  0  0
  145.8976  130.5054  151.4140 C   0  0  0  0  0  0  0  0  0  0  0  0
  146.2027  132.9301  151.6256 C   0  0  0  0  0  0  0  0  0  0  0  0
  147.1393  132.7964  152.4159 O   0  0  0  0  0  0  0  0  0  0  0  0
  152.2070  139.5102  155.5296 H   0  0  0  0  0  0  0  0  0  0  0  0
  152.0224  139.1152  153.8230 H   0  0  0  0  0  0  0  0  0  0  0  0
  151.5357  137.9523  155.0557 H   0  0  0  0  0  0  0  0  0  0  0  0
  149.7373  139.5314  155.8265 H   0  0  0  0  0  0  0  0  0  0  0  0
  150.2192  140.6867  154.6080 H   0  0  0  0  0  0  0  0  0  0  0  0
  149.5804  139.1211  152.8010 H   0  0  0  0  0  0  0  0  0  0  0  0
  149.2070  137.8695  153.9669 H   0  0  0  0  0  0  0  0  0  0  0  0
  147.6102  140.0247  154.8422 H   0  0  0  0  0  0  0  0  0  0  0  0
  146.3896  140.7904  152.8236 H   0  0  0  0  0  0  0  0  0  0  0  0
  147.5034  139.8027  151.7462 H   0  0  0  0  0  0  0  0  0  0  0  0
  145.6766  138.7462  154.0163 H   0  0  0  0  0  0  0  0  0  0  0  0
  147.7731  137.2191  152.4962 H   0  0  0  0  0  0  0  0  0  0  0  0
  147.4239  135.4126  151.6867 H   0  0  0  0  0  0  0  0  0  0  0  0
  143.2915  133.5292  149.1492 H   0  0  0  0  0  0  0  0  0  0  0  0
  144.0020  131.1987  149.7950 H   0  0  0  0  0  0  0  0  0  0  0  0
  146.8964  130.2790  151.0387 H   0  0  0  0  0  0  0  0  0  0  0  0
  145.2108  129.7743  150.9862 H   0  0  0  0  0  0  0  0  0  0  0  0
  145.8983  130.3561  152.4947 H   0  0  0  0  0  0  0  0  0  0  0  0
  1  2  1  0  0  0  0
  1 19  1  0  0  0  0
  1 20  1  0  0  0  0
  1 21  1  0  0  0  0
  2  3  1  0  0  0  0
  2 22  1  0  0  0  0
  2 23  1  0  0  0  0
  3  4  1  0  0  0  0
  3 24  1  0  0  0  0
  3 25  1  0  0  0  0
  4  6  1  0  0  0  0
  4  5  1  0  0  0  0
  4 26  1  0  0  0  0
  5  6  1  0  0  0  0
  5 27  1  0  0  0  0
  5 28  1  0  0  0  0
  6  7  1  0  0  0  0
  6 29  1  0  0  0  0
  7  8  1  0  0  0  0
  7 30  1  0  0  0  0
  8  9  2  0  0  0  0
  8 10  1  0  0  0  0
 10 11  1  0  0  0  0
 10 31  1  0  0  0  0
 11 17  1  0  0  0  0
 11 12  2  0  0  0  0
 12 13  1  0  0  0  0
 13 14  2  0  0  0  0
 13 32  1  0  0  0  0
 14 15  1  0  0  0  0
 14 33  1  0  0  0  0
 15 16  1  0  0  0  0
 15 17  1  0  0  0  0
 16 34  1  0  0  0  0
 16 35  1  0  0  0  0
 16 36  1  0  0  0  0
 17 18  2  0  0  0  0
M  END
> <s_m_source_file>
AV-unprocessed.smi

> <i_m_source_file_index>
2265

> <i_lp_mmshare_version>
43012

> <i_f3d_flags>
0

> <s_epik_input>
W0NIM11bQ0gyXVtDSDJdW0NAQEhdMVtDSDJdW0NASF0xW05IXUMoPU8pW05IXWMybltjSF1bY0hdbihbQ0gzXSljMj1P

> <s_epik_cmdline>
J2VwaWtfcHl0aG9uJywgJy1waCcsICc3LjAnLCAnLXRuJywgJzgnLCAnLW1hJywgJzIwMCcsICctbWV0YWxfYmluZGluZycsICctaW1hZScsICc8aW5maWxlLm1hZT4nLCAnLW9tYWUnLCAnPG91dGZpbGUubWFlPic=

> <r_lp_tautomer_probability>
1

> <r_epik_Ionization_Penalty>
0.000728552

> <r_epik_Ionization_Penalty_Charging>
1.67739e-07

> <r_epik_Ionization_Penalty_Neutral>
0.000728385

> <r_epik_State_Penalty>
-0

> <r_epik_Charging_Adjusted_Penalty>
1.67739e-07

> <i_epik_Tot_Q>
0

> <i_epik_Tot_abs_Q>
0

> <r_epik_Metal_State_Penalty>
-0

> <b_epik_Metal_Only>
0

> <s_lp_Force_Field>
OPLS_2005

> <r_lp_Energy>
43.9495

> <b_lp_Chiralities_Consistent>
1

> <s_lp_Variant>
AV-unprocessed.smi:2265-2

> <Gold.Version>
5.8.1

> <Gold.Id.Protein>
6NUR|6NUR_protein|mol2

> <Gold.PLP.Fitness>
38.6051

> <Gold.PLP.PLP>
-30.9149

> <Gold.PLP.part.hbond>
-2.0000

> <Gold.PLP.part.metal>
0.0000

> <Gold.PLP.part.buried>
-1.0965

> <Gold.PLP.part.nonpolar>
-28.4038

> <Gold.PLP.part.repulsive>
0.9036

> <Gold.PLP.ligand.clash>
0.0000

> <Gold.PLP.ligand.torsion>
0.9416

> <Gold.PLP.Chemscore.Hbond>
2.0000

> <Gold.PLP.Chemscore.CHOScore>
1.0000

> <Gold.PLP.Chemscore.Metal>
0.0000

> <Gold.Chemscore.Hbonds>
donor molecule, donor type, donor heavy atom, donor atom, acceptor molecule, acceptor atom, score
      L1  H     7    30       P1  7948  1.00
      L1  H    10    31       P1  7948  1.00
      L1  C    13    32       P1 10186  1.00

> <Gold.PLP.Chemscore.Internal.Correction>
0.5733

> <Gold.Rescore>
     Score         DG    S(hbond)    S(metal)    S(lipo)     H(rot)  DE(clash)    DE(int)     intcor
     15.53     -16.47       1.94        0.00      70.64       1.46       0.06       0.88       ----

> <Gold.Chemscore.Fitness>
15.5329

> <Gold.Chemscore.DG>
-16.4703

> <Gold.Chemscore.ZeroCoef>
-5.4800

> <Gold.Chemscore.Hbond>
1.9353

> <Gold.Chemscore.Metal>
0.0000

> <Gold.Chemscore.Lipo>
70.6432

> <Gold.Chemscore.Internal_Hbond>
0.0000

> <Gold.Chemscore.DEClash>
0.0606

> <Gold.Chemscore.DEInternal>
0.8767

> <Gold.Chemscore.Rot>
1.4604

> <Gold.Chemscore.Internal.Correction>
   9.000000E+99

> <Gold.Chemscore.Hbonds>
donor molecule, donor type, donor heavy atom, donor atom, acceptor molecule, acceptor atom, score
      L1  H     7    30       P1  7948  0.96
      L1  H    10    31       P1  7948  0.92

> <Gold.Chemscore.Hbond.Weighted>
-6.4637

> <Gold.Chemscore.Metal.Weighted>
-0.0000

> <Gold.Chemscore.Lipo.Weighted>
-8.2653

> <Gold.Chemscore.Internal_Hbond.Weighted>
0.0000

> <Gold.Chemscore.DEClash.Weighted>
0.0606

> <Gold.Chemscore.DEInternal.Weighted>
0.8767

> <Gold.Chemscore.Rot.Weighted>
3.7387

> <Gold.Chemscore.Internal.Correction.Weighted>
   9.000000E+99

> <Gold.Protein.RotatedTorsions>
[ 6907 6896 6895 6894 ] final -146.99 input  -60.11 | X-H torsion
[ 7974 7965 7964 7962 ] final -103.92 input  175.53 | X-H torsion
[ 8008 7997 7996 7995 ] final   52.77 input   59.86 | X-H torsion
[ 10167 10162 10161 10158 ] final -115.40 input  -65.29 | X-H torsion
[ 10718 10713 10712 10709 ] final  -65.38 input   66.30 | X-H torsion
[ 10763 10752 10751 10750 ] final -150.79 input  -60.55 | X-H torsion
[ 11005 11000 10999 10996 ] final  -19.28 input  -57.11 | X-H torsion

> <Gold.Protein.ActiveResidues>
 VAL166  LYS551  ARG553  GLY616  TRP617  ASP618  TYR619  PRO620  LYS621  CYS622 
 ASP623  PHE694  ASN695  SER759  ASP760  ASP761  ALA762  ILE779  LEU786  VAL792 
 PHE793  MET794  SER795  GLU796  ALA797  LYS798  CYS799  TRP800  GLU811  SER814 

> <Gold.Protein.RotatedAtoms>
  151.1494  133.4917  159.2595 H   0  0  0  0  0  0  0  0  0  0  0  0  # atno 6907 bound_to 6896
  151.1570  135.0254  159.8703 H   0  0  0  0  0  0  0  0  0  0  0  0  # atno 6908 bound_to 6896
  152.5463  134.1372  159.8517 H   0  0  0  0  0  0  0  0  0  0  0  0  # atno 6909 bound_to 6896
  145.2497  140.9233  143.3102 H   0  0  0  0  0  0  0  0  0  0  0  0  # atno 7974 bound_to 7965
  155.4573  140.3460  155.4308 H   0  0  0  0  0  0  0  0  0  0  0  0  # atno 8008 bound_to 7997
  156.1183  140.1480  156.9271 H   0  0  0  0  0  0  0  0  0  0  0  0  # atno 8009 bound_to 7997
  154.4804  140.0871  156.7344 H   0  0  0  0  0  0  0  0  0  0  0  0  # atno 8010 bound_to 7997
  140.0905  143.4704  152.1872 H   0  0  0  0  0  0  0  0  0  0  0  0  # atno 10167 bound_to 10162
  156.0673  130.4246  150.1555 H   0  0  0  0  0  0  0  0  0  0  0  0  # atno 10718 bound_to 10713
  154.8097  135.3276  154.7336 H   0  0  0  0  0  0  0  0  0  0  0  0  # atno 10763 bound_to 10752
  153.7988  135.6905  153.4863 H   0  0  0  0  0  0  0  0  0  0  0  0  # atno 10764 bound_to 10752
  153.1868  135.4566  155.0044 H   0  0  0  0  0  0  0  0  0  0  0  0  # atno 10765 bound_to 10752
  140.8351  133.7968  155.9800 H   0  0  0  0  0  0  0  0  0  0  0  0  # atno 11005 bound_to 11000
  144.9514  139.4078  143.6400 LP  0  0  0  0  0  0  0  0  0  0  0  0  # atno 17320 bound_to 7965
  146.3306  139.8523  142.8871 LP  0  0  0  0  0  0  0  0  0  0  0  0  # atno 17321 bound_to 7965
  139.5727  144.7471  151.3847 LP  0  0  0  0  0  0  0  0  0  0  0  0  # atno 17342 bound_to 10162
  140.7031  143.7583  150.7436 LP  0  0  0  0  0  0  0  0  0  0  0  0  # atno 17343 bound_to 10162
  156.9613  130.9806  151.3478 LP  0  0  0  0  0  0  0  0  0  0  0  0  # atno 17370 bound_to 10713
  157.5723  130.8319  149.8408 LP  0  0  0  0  0  0  0  0  0  0  0  0  # atno 17371 bound_to 10713
  140.8956  134.2441  157.5070 LP  0  0  0  0  0  0  0  0  0  0  0  0  # atno 17394 bound_to 11000
  139.8704  134.9682  156.4624 LP  0  0  0  0  0  0  0  0  0  0  0  0  # atno 17395 bound_to 11000

$$$$
