AV-unprocessed.smi:1721|AV-procd|sdf|6940|dock7
  -GOLD-   22720 8143D 1   1.00000     0.00000
 Structure written by MMmdl.
 44 46  0  0  0  0  0  0  0  0  2 V2000
  151.8695  138.3233  154.5449 C   0  0  0  0  0  0  0  0  0  0  0  0
  150.5194  138.2142  154.1066 O   0  0  0  0  0  0  0  0  0  0  0  0
  149.6930  139.3148  154.2328 C   0  0  0  0  0  0  0  0  0  0  0  0
  150.2276  140.4698  154.7029 N   0  0  0  0  0  0  0  0  0  0  0  0
  149.4244  141.5453  154.8291 C   0  0  0  0  0  0  0  0  0  0  0  0
  148.0580  141.5277  154.4970 C   0  0  0  0  0  0  0  0  0  0  0  0
  147.5008  140.3314  154.0085 C   0  0  0  0  0  0  0  0  0  0  0  0
  148.3309  139.1911  153.8686 C   0  0  0  0  0  0  0  0  0  0  0  0
  147.8901  137.9233  153.3904 N   0  0  0  0  0  0  0  0  0  0  0  0
  146.7402  137.2665  153.6206 C   0  0  0  0  0  0  0  0  0  0  0  0
  145.8120  137.6632  154.3236 O   0  0  0  0  0  0  0  0  0  0  0  0
  146.7215  136.0909  152.9766 N   0  0  0  0  0  0  0  0  0  0  0  0
  145.6206  135.1322  153.0092 C   0  0  1  0  0  0  0  0  0  0  0  0
  144.2380  135.8072  153.0256 C   0  0  0  0  0  0  0  0  0  0  0  0
  143.3330  134.9061  152.1622 C   0  0  0  0  0  0  0  0  0  0  0  0
  144.1778  133.7608  151.7729 N   0  3  1  0  0  0  0  0  0  0  0  0
  143.8061  133.0372  150.5377 C   0  0  0  0  0  0  0  0  0  0  0  0
  144.7484  131.8309  150.3526 C   0  0  0  0  0  0  0  0  0  0  0  0
  146.2314  132.2512  150.3983 C   0  0  0  0  0  0  0  0  0  0  0  0
  146.5363  133.0801  151.6612 C   0  0  0  0  0  0  0  0  0  0  0  0
  145.5594  134.2651  151.7489 C   0  0  2  0  0  0  0  0  0  0  0  0
  152.3805  137.3759  154.3752 H   0  0  0  0  0  0  0  0  0  0  0  0
  151.9262  138.5429  155.6121 H   0  0  0  0  0  0  0  0  0  0  0  0
  152.4088  139.0931  153.9913 H   0  0  0  0  0  0  0  0  0  0  0  0
  149.8845  142.4461  155.2075 H   0  0  0  0  0  0  0  0  0  0  0  0
  147.4496  142.4121  154.6152 H   0  0  0  0  0  0  0  0  0  0  0  0
  146.4528  140.3254  153.7586 H   0  0  0  0  0  0  0  0  0  0  0  0
  148.5449  137.4558  152.7802 H   0  0  0  0  0  0  0  0  0  0  0  0
  147.5264  135.8432  152.4196 H   0  0  0  0  0  0  0  0  0  0  0  0
  145.6973  134.4896  153.8891 H   0  0  0  0  0  0  0  0  0  0  0  0
  143.8606  135.9061  154.0440 H   0  0  0  0  0  0  0  0  0  0  0  0
  144.2789  136.8083  152.5933 H   0  0  0  0  0  0  0  0  0  0  0  0
  142.4496  134.5657  152.7029 H   0  0  0  0  0  0  0  0  0  0  0  0
  143.0004  135.4484  151.2757 H   0  0  0  0  0  0  0  0  0  0  0  0
  142.7716  132.6997  150.6081 H   0  0  0  0  0  0  0  0  0  0  0  0
  143.8702  133.7082  149.6795 H   0  0  0  0  0  0  0  0  0  0  0  0
  144.5584  131.1016  151.1413 H   0  0  0  0  0  0  0  0  0  0  0  0
  144.5311  131.3274  149.4101 H   0  0  0  0  0  0  0  0  0  0  0  0
  146.8733  131.3705  150.3634 H   0  0  0  0  0  0  0  0  0  0  0  0
  146.4680  132.8413  149.5119 H   0  0  0  0  0  0  0  0  0  0  0  0
  146.4477  132.4523  152.5490 H   0  0  0  0  0  0  0  0  0  0  0  0
  147.5659  133.4365  151.6295 H   0  0  0  0  0  0  0  0  0  0  0  0
  145.6821  134.9018  150.8695 H   0  0  0  0  0  0  0  0  0  0  0  0
  144.1305  133.0990  152.5346 H   0  0  0  0  0  0  0  0  0  0  0  0
  1  2  1  0  0  0  0
  1 22  1  0  0  0  0
  1 23  1  0  0  0  0
  1 24  1  0  0  0  0
  2  3  1  0  0  0  0
  3  8  1  0  0  0  0
  3  4  2  0  0  0  0
  4  5  1  0  0  0  0
  5  6  2  0  0  0  0
  5 25  1  0  0  0  0
  6  7  1  0  0  0  0
  6 26  1  0  0  0  0
  7  8  2  0  0  0  0
  7 27  1  0  0  0  0
  8  9  1  0  0  0  0
  9 10  1  0  0  0  0
  9 28  1  0  0  0  0
 10 11  2  0  0  0  0
 10 12  1  0  0  0  0
 12 13  1  0  0  0  0
 12 29  1  0  0  0  0
 13 21  1  0  0  0  0
 13 14  1  0  0  0  0
 13 30  1  0  0  0  0
 14 15  1  0  0  0  0
 14 31  1  0  0  0  0
 14 32  1  0  0  0  0
 15 16  1  0  0  0  0
 15 33  1  0  0  0  0
 15 34  1  0  0  0  0
 16 21  1  0  0  0  0
 16 17  1  0  0  0  0
 16 44  1  0  0  0  0
 17 18  1  0  0  0  0
 17 35  1  0  0  0  0
 17 36  1  0  0  0  0
 18 19  1  0  0  0  0
 18 37  1  0  0  0  0
 18 38  1  0  0  0  0
 19 20  1  0  0  0  0
 19 39  1  0  0  0  0
 19 40  1  0  0  0  0
 20 21  1  0  0  0  0
 20 41  1  0  0  0  0
 20 42  1  0  0  0  0
 21 43  1  0  0  0  0
M  CHG  1  16   1
M  END
> <s_m_source_file>
AV-unprocessed.smi

> <i_m_source_file_index>
1721

> <i_lp_mmshare_version>
43012

> <i_f3d_flags>
0

> <s_epik_input>
W0NIM11PYzFuW2NIXVtjSF1bY0hdYzFbTkhdQyg9TylbTkhdW0NASF0oW0NIMl1bQ0gyXTIpW0NAQEhdKE4yMylbQ0gyXVtDSDJdW0NIMl1bQ0gyXTM=

> <s_epik_cmdline>
J2VwaWtfcHl0aG9uJywgJy1waCcsICc3LjAnLCAnLXRuJywgJzgnLCAnLW1hJywgJzIwMCcsICctbWV0YWxfYmluZGluZycsICctaW1hZScsICc8aW5maWxlLm1hZT4nLCAnLW9tYWUnLCAnPG91dGZpbGUubWFlPic=

> <r_lp_tautomer_probability>
1

> <r_epik_Ionization_Penalty>
0.00104793

> <r_epik_Ionization_Penalty_Charging>
0.000974069

> <r_epik_Ionization_Penalty_Neutral>
7.38649e-05

> <r_epik_State_Penalty>
0.000633842

> <r_epik_Charging_Adjusted_Penalty>
0.00160791

> <i_epik_Tot_Q>
1

> <i_epik_Tot_abs_Q>
1

> <r_epik_Metal_State_Penalty>
-0

> <b_epik_Metal_Only>
0

> <s_lp_Force_Field>
OPLS_2005

> <r_lp_Energy>
37.3569

> <b_lp_Chiralities_Consistent>
1

> <s_lp_Variant>
AV-unprocessed.smi:1721-6

> <Gold.Version>
5.8.1

> <Gold.Id.Protein>
6NUR|6NUR_protein|mol2

> <Gold.PLP.Fitness>
45.1678

> <Gold.PLP.PLP>
-34.5494

> <Gold.PLP.part.hbond>
-2.7909

> <Gold.PLP.part.metal>
0.0000

> <Gold.PLP.part.buried>
-2.5803

> <Gold.PLP.part.nonpolar>
-30.1942

> <Gold.PLP.part.repulsive>
0.4696

> <Gold.PLP.ligand.clash>
0.0000

> <Gold.PLP.ligand.torsion>
0.6593

> <Gold.PLP.Chemscore.Hbond>
2.9760

> <Gold.PLP.Chemscore.CHOScore>
0.9998

> <Gold.PLP.Chemscore.Metal>
0.0000

> <Gold.Chemscore.Hbonds>
donor molecule, donor type, donor heavy atom, donor atom, acceptor molecule, acceptor atom, score
      L1  H     9    28       P1  7948  1.00
      L1  H    12    29       P1  7948  1.00
      P1  H  7989  7998       L1     4  0.96
      L1  C     5    25       P1  8028  1.00

> <Gold.PLP.Chemscore.Internal.Correction>
0.0096

> <Gold.Rescore>
     Score         DG    S(hbond)    S(metal)    S(lipo)     H(rot)  DE(clash)    DE(int)     intcor
     17.43     -19.76       2.30        0.00      83.66       1.25       0.33       2.00       ----

> <Gold.Chemscore.Fitness>
17.4316

> <Gold.Chemscore.DG>
-19.7605

> <Gold.Chemscore.ZeroCoef>
-5.4800

> <Gold.Chemscore.Hbond>
2.3010

> <Gold.Chemscore.Metal>
0.0000

> <Gold.Chemscore.Lipo>
83.6627

> <Gold.Chemscore.Internal_Hbond>
0.0000

> <Gold.Chemscore.DEClash>
0.3278

> <Gold.Chemscore.DEInternal>
2.0010

> <Gold.Chemscore.Rot>
1.2474

> <Gold.Chemscore.Internal.Correction>
   9.000000E+99

> <Gold.Chemscore.Hbonds>
donor molecule, donor type, donor heavy atom, donor atom, acceptor molecule, acceptor atom, score
      L1  H     9    28       P1  7948  0.94
      L1  H    12    29       P1  7948  0.91
      P1  H  7989  7998       L1     4  0.32

> <Gold.Chemscore.Hbond.Weighted>
-7.6854

> <Gold.Chemscore.Metal.Weighted>
-0.0000

> <Gold.Chemscore.Lipo.Weighted>
-9.7885

> <Gold.Chemscore.Internal_Hbond.Weighted>
0.0000

> <Gold.Chemscore.DEClash.Weighted>
0.3278

> <Gold.Chemscore.DEInternal.Weighted>
2.0010

> <Gold.Chemscore.Rot.Weighted>
3.1934

> <Gold.Chemscore.Internal.Correction.Weighted>
   9.000000E+99

> <Gold.Protein.RotatedTorsions>
[ 6907 6896 6895 6894 ] final -173.23 input  -60.11 | X-H torsion
[ 7974 7965 7964 7962 ] final -121.67 input  175.53 | X-H torsion
[ 8008 7997 7996 7995 ] final  143.78 input   59.86 | X-H torsion
[ 10167 10162 10161 10158 ] final   81.76 input  -65.29 | X-H torsion
[ 10718 10713 10712 10709 ] final  118.57 input   66.30 | X-H torsion
[ 10763 10752 10751 10750 ] final   91.71 input  -60.55 | X-H torsion
[ 11005 11000 10999 10996 ] final  161.27 input  -57.11 | X-H torsion

> <Gold.Protein.ActiveResidues>
 VAL166  LYS551  ARG553  GLY616  TRP617  ASP618  TYR619  PRO620  LYS621  CYS622 
 ASP623  PHE694  ASN695  SER759  ASP760  ASP761  ALA762  ILE779  LEU786  VAL792 
 PHE793  MET794  SER795  GLU796  ALA797  LYS798  CYS799  TRP800  GLU811  SER814 

> <Gold.Protein.RotatedAtoms>
  151.5529  133.3415  159.2956 H   0  0  0  0  0  0  0  0  0  0  0  0  # atno 6907 bound_to 6896
  150.8468  134.7782  159.6988 H   0  0  0  0  0  0  0  0  0  0  0  0  # atno 6908 bound_to 6896
  152.4524  134.5373  159.9880 H   0  0  0  0  0  0  0  0  0  0  0  0  # atno 6909 bound_to 6896
  145.0378  140.8120  143.4284 H   0  0  0  0  0  0  0  0  0  0  0  0  # atno 7974 bound_to 7965
  156.2923  140.2253  156.4947 H   0  0  0  0  0  0  0  0  0  0  0  0  # atno 8008 bound_to 7997
  154.7741  140.0464  157.1096 H   0  0  0  0  0  0  0  0  0  0  0  0  # atno 8009 bound_to 7997
  154.9838  140.3081  155.4938 H   0  0  0  0  0  0  0  0  0  0  0  0  # atno 8010 bound_to 7997
  139.9359  144.6122  150.8299 H   0  0  0  0  0  0  0  0  0  0  0  0  # atno 10167 bound_to 10162
  157.6021  131.1049  150.7775 H   0  0  0  0  0  0  0  0  0  0  0  0  # atno 10718 bound_to 10713
  153.2112  135.4388  155.0381 H   0  0  0  0  0  0  0  0  0  0  0  0  # atno 10763 bound_to 10752
  154.8201  135.3333  154.7066 H   0  0  0  0  0  0  0  0  0  0  0  0  # atno 10764 bound_to 10752
  153.7504  135.6998  153.5003 H   0  0  0  0  0  0  0  0  0  0  0  0  # atno 10765 bound_to 10752
  140.2141  134.8245  157.3152 H   0  0  0  0  0  0  0  0  0  0  0  0  # atno 11005 bound_to 11000
  145.1687  139.2417  143.5353 LP  0  0  0  0  0  0  0  0  0  0  0  0  # atno 17320 bound_to 7965
  146.3506  140.1432  142.8594 LP  0  0  0  0  0  0  0  0  0  0  0  0  # atno 17321 bound_to 7965
  140.7624  143.3199  151.2647 LP  0  0  0  0  0  0  0  0  0  0  0  0  # atno 17342 bound_to 10162
  139.6744  143.9963  152.2772 LP  0  0  0  0  0  0  0  0  0  0  0  0  # atno 17343 bound_to 10162
  156.8172  130.4972  149.5348 LP  0  0  0  0  0  0  0  0  0  0  0  0  # atno 17370 bound_to 10713
  156.1097  130.6031  151.0027 LP  0  0  0  0  0  0  0  0  0  0  0  0  # atno 17371 bound_to 10713
  140.1919  134.4361  155.7711 LP  0  0  0  0  0  0  0  0  0  0  0  0  # atno 17394 bound_to 11000
  141.2225  133.7031  156.8041 LP  0  0  0  0  0  0  0  0  0  0  0  0  # atno 17395 bound_to 11000

$$$$
