AV-unprocessed.smi:2808|AV-procd|sdf|10824|dock5
  -GOLD-   2272015263D 1   1.00000     0.00000
 Structure written by MMmdl.
 43 44  0  0  0  0  0  0  0  0  1 V2000
  149.6198  130.1500  154.7420 C   0  0  0  0  0  0  0  0  0  0  0  0
  149.5312  131.6503  154.9526 C   0  0  0  0  0  0  0  0  0  0  0  0
  149.0866  132.5092  153.8747 C   0  0  0  0  0  0  0  0  0  0  0  0
  149.0140  133.8331  154.0774 C   0  0  0  0  0  0  0  0  0  0  0  0
  149.3573  134.4167  155.3097 N   0  0  0  0  0  0  0  0  0  0  0  0
  149.2452  135.8812  155.4149 C   0  0  0  0  0  0  0  0  0  0  0  0
  150.5392  136.5491  155.9001 C   0  0  0  0  0  0  0  0  0  0  0  0
  151.5038  135.8675  156.2478 O   0  0  0  0  0  0  0  0  0  0  0  0
  150.5424  137.8925  155.9017 N   0  0  0  0  0  0  0  0  0  0  0  0
  151.6358  138.7764  156.3189 C   0  0  0  0  0  0  0  0  0  0  0  0
  152.9024  138.3626  155.6830 C   0  0  0  0  0  0  0  0  0  0  0  0
  153.8947  138.0384  155.1837 N   0  0  0  0  0  0  0  0  0  0  0  0
  151.3068  140.1968  155.7970 C   0  0  0  0  0  0  0  0  0  0  0  0
  150.3408  141.0285  156.6598 C   0  0  0  0  0  0  0  0  0  0  0  0
  151.0718  141.8496  157.7376 C   0  0  0  0  0  0  0  0  0  0  0  0
  151.6272  141.0293  158.9127 C   0  0  0  0  0  0  0  0  0  0  0  0
  152.5525  139.8664  158.5125 C   0  0  0  0  0  0  0  0  0  0  0  0
  151.7825  138.7049  157.8621 C   0  0  0  0  0  0  0  0  0  0  0  0
  149.7880  133.6686  156.3699 C   0  0  0  0  0  0  0  0  0  0  0  0
  150.0907  134.1871  157.4465 O   0  0  0  0  0  0  0  0  0  0  0  0
  149.8638  132.2176  156.1369 C   0  0  0  0  0  0  0  0  0  0  0  0
  150.3140  131.4370  157.2441 C   0  0  0  0  0  0  0  0  0  0  0  0
  150.6860  130.8224  158.1517 N   0  0  0  0  0  0  0  0  0  0  0  0
  149.3050  129.8733  153.7355 H   0  0  0  0  0  0  0  0  0  0  0  0
  148.9791  129.6269  155.4522 H   0  0  0  0  0  0  0  0  0  0  0  0
  150.6448  129.8052  154.8826 H   0  0  0  0  0  0  0  0  0  0  0  0
  148.8194  132.0937  152.9141 H   0  0  0  0  0  0  0  0  0  0  0  0
  148.6979  134.5258  153.3109 H   0  0  0  0  0  0  0  0  0  0  0  0
  148.9805  136.3182  154.4511 H   0  0  0  0  0  0  0  0  0  0  0  0
  148.4225  136.1438  156.0831 H   0  0  0  0  0  0  0  0  0  0  0  0
  149.6996  138.3529  155.5907 H   0  0  0  0  0  0  0  0  0  0  0  0
  152.2300  140.7629  155.6648 H   0  0  0  0  0  0  0  0  0  0  0  0
  150.8960  140.1141  154.7893 H   0  0  0  0  0  0  0  0  0  0  0  0
  149.8259  141.7319  156.0046 H   0  0  0  0  0  0  0  0  0  0  0  0
  149.5606  140.4047  157.0970 H   0  0  0  0  0  0  0  0  0  0  0  0
  151.8799  142.4199  157.2778 H   0  0  0  0  0  0  0  0  0  0  0  0
  150.3812  142.5927  158.1376 H   0  0  0  0  0  0  0  0  0  0  0  0
  152.1778  141.7039  159.5691 H   0  0  0  0  0  0  0  0  0  0  0  0
  150.8006  140.6478  159.5133 H   0  0  0  0  0  0  0  0  0  0  0  0
  153.3674  140.2083  157.8737 H   0  0  0  0  0  0  0  0  0  0  0  0
  153.0240  139.4923  159.4220 H   0  0  0  0  0  0  0  0  0  0  0  0
  150.8030  138.6166  158.3351 H   0  0  0  0  0  0  0  0  0  0  0  0
  152.2974  137.7772  158.1147 H   0  0  0  0  0  0  0  0  0  0  0  0
  1  2  1  0  0  0  0
  1 24  1  0  0  0  0
  1 25  1  0  0  0  0
  1 26  1  0  0  0  0
  2 21  2  0  0  0  0
  2  3  1  0  0  0  0
  3  4  2  0  0  0  0
  3 27  1  0  0  0  0
  4  5  1  0  0  0  0
  4 28  1  0  0  0  0
  5  6  1  0  0  0  0
  5 19  1  0  0  0  0
  6  7  1  0  0  0  0
  6 29  1  0  0  0  0
  6 30  1  0  0  0  0
  7  8  2  0  0  0  0
  7  9  1  0  0  0  0
  9 10  1  0  0  0  0
  9 31  1  0  0  0  0
 10 18  1  0  0  0  0
 10 11  1  0  0  0  0
 10 13  1  0  0  0  0
 11 12  3  0  0  0  0
 13 14  1  0  0  0  0
 13 32  1  0  0  0  0
 13 33  1  0  0  0  0
 14 15  1  0  0  0  0
 14 34  1  0  0  0  0
 14 35  1  0  0  0  0
 15 16  1  0  0  0  0
 15 36  1  0  0  0  0
 15 37  1  0  0  0  0
 16 17  1  0  0  0  0
 16 38  1  0  0  0  0
 16 39  1  0  0  0  0
 17 18  1  0  0  0  0
 17 40  1  0  0  0  0
 17 41  1  0  0  0  0
 18 42  1  0  0  0  0
 18 43  1  0  0  0  0
 19 20  2  0  0  0  0
 19 21  1  0  0  0  0
 21 22  1  0  0  0  0
 22 23  3  0  0  0  0
M  END
> <s_m_source_file>
AV-unprocessed.smi

> <i_m_source_file_index>
2808

> <i_lp_mmshare_version>
43012

> <i_f3d_flags>
0

> <s_epik_input>
W0NIM11jMVtjSF1bY0hdbihjKD1PKWMxQyNOKVtDSDJdQyg9TylbTkhdQzIoQyNOKVtDSDJdW0NIMl1bQ0gyXVtDSDJdW0NIMl1bQ0gyXTI=

> <s_epik_cmdline>
J2VwaWtfcHl0aG9uJywgJy1waCcsICc3LjAnLCAnLXRuJywgJzgnLCAnLW1hJywgJzIwMCcsICctbWV0YWxfYmluZGluZycsICctaW1hZScsICc8aW5maWxlLm1hZT4nLCAnLW9tYWUnLCAnPG91dGZpbGUubWFlPic=

> <r_lp_tautomer_probability>
1

> <r_epik_Ionization_Penalty>
4.51384e-07

> <r_epik_Ionization_Penalty_Charging>
2.41788e-10

> <r_epik_Ionization_Penalty_Neutral>
4.51142e-07

> <r_epik_State_Penalty>
-0

> <r_epik_Charging_Adjusted_Penalty>
2.41788e-10

> <i_epik_Tot_Q>
0

> <i_epik_Tot_abs_Q>
0

> <r_epik_Metal_State_Penalty>
-0

> <b_epik_Metal_Only>
0

> <s_lp_Force_Field>
OPLS_2005

> <r_lp_Energy>
25.2429

> <b_lp_Chiralities_Consistent>
1

> <s_lp_Variant>
AV-unprocessed.smi:2808-1

> <Gold.Version>
5.8.1

> <Gold.Id.Protein>
6NUR|6NUR_protein|mol2

> <Gold.PLP.Fitness>
45.2322

> <Gold.PLP.PLP>
-37.6090

> <Gold.PLP.part.hbond>
-3.7697

> <Gold.PLP.part.metal>
0.0000

> <Gold.PLP.part.buried>
-4.1904

> <Gold.PLP.part.nonpolar>
-30.9875

> <Gold.PLP.part.repulsive>
0.0539

> <Gold.PLP.ligand.clash>
0.0000

> <Gold.PLP.ligand.torsion>
0.2764

> <Gold.PLP.Chemscore.Hbond>
1.7360

> <Gold.PLP.Chemscore.CHOScore>
0.9847

> <Gold.PLP.Chemscore.Metal>
0.0000

> <Gold.Chemscore.Hbonds>
donor molecule, donor type, donor heavy atom, donor atom, acceptor molecule, acceptor atom, score
      P1  H  6896  6907       L1    20  0.83
      P1  H 10752 10764       L1     8  0.89
      L1  C     4    28       P1  7948  1.00

> <Gold.PLP.Chemscore.Internal.Correction>
0.0139

> <Gold.Rescore>
     Score         DG    S(hbond)    S(metal)    S(lipo)     H(rot)  DE(clash)    DE(int)     intcor
     14.95     -16.37       1.97        0.00      70.06       1.52       0.05       1.37       ----

> <Gold.Chemscore.Fitness>
14.9537

> <Gold.Chemscore.DG>
-16.3738

> <Gold.Chemscore.ZeroCoef>
-5.4800

> <Gold.Chemscore.Hbond>
1.9749

> <Gold.Chemscore.Metal>
0.0000

> <Gold.Chemscore.Lipo>
70.0621

> <Gold.Chemscore.Internal_Hbond>
0.0000

> <Gold.Chemscore.DEClash>
0.0540

> <Gold.Chemscore.DEInternal>
1.3661

> <Gold.Chemscore.Rot>
1.5232

> <Gold.Chemscore.Internal.Correction>
   9.000000E+99

> <Gold.Chemscore.Hbonds>
donor molecule, donor type, donor heavy atom, donor atom, acceptor molecule, acceptor atom, score
      P1  H  6896  6907       L1    20  0.81
      P1  H 10752 10764       L1     8  0.83

> <Gold.Chemscore.Hbond.Weighted>
-6.5961

> <Gold.Chemscore.Metal.Weighted>
-0.0000

> <Gold.Chemscore.Lipo.Weighted>
-8.1973

> <Gold.Chemscore.Internal_Hbond.Weighted>
0.0000

> <Gold.Chemscore.DEClash.Weighted>
0.0540

> <Gold.Chemscore.DEInternal.Weighted>
1.3661

> <Gold.Chemscore.Rot.Weighted>
3.8995

> <Gold.Chemscore.Internal.Correction.Weighted>
   9.000000E+99

> <Gold.Protein.RotatedTorsions>
[ 6907 6896 6895 6894 ] final -122.11 input  -60.11 | X-H torsion
[ 7974 7965 7964 7962 ] final   69.81 input  175.53 | X-H torsion
[ 8008 7997 7996 7995 ] final -151.76 input   59.86 | X-H torsion
[ 10167 10162 10161 10158 ] final  120.64 input  -65.29 | X-H torsion
[ 10718 10713 10712 10709 ] final   22.35 input   66.30 | X-H torsion
[ 10763 10752 10751 10750 ] final  -42.84 input  -60.55 | X-H torsion
[ 11005 11000 10999 10996 ] final  -89.22 input  -57.11 | X-H torsion

> <Gold.Protein.ActiveResidues>
 VAL166  LYS551  ARG553  GLY616  TRP617  ASP618  TYR619  PRO620  LYS621  CYS622 
 ASP623  PHE694  ASN695  SER759  ASP760  ASP761  ALA762  ILE779  LEU786  VAL792 
 PHE793  MET794  SER795  GLU796  ALA797  LYS798  CYS799  TRP800  GLU811  SER814 

> <Gold.Protein.RotatedAtoms>
  150.8545  133.7736  159.3013 H   0  0  0  0  0  0  0  0  0  0  0  0  # atno 6907 bound_to 6896
  151.5397  135.1067  159.9933 H   0  0  0  0  0  0  0  0  0  0  0  0  # atno 6908 bound_to 6896
  152.4579  133.7717  159.6858 H   0  0  0  0  0  0  0  0  0  0  0  0  # atno 6909 bound_to 6896
  145.7859  139.2910  143.1239 H   0  0  0  0  0  0  0  0  0  0  0  0  # atno 7974 bound_to 7965
  155.6444  140.0705  157.2608 H   0  0  0  0  0  0  0  0  0  0  0  0  # atno 8008 bound_to 7997
  154.4176  140.1744  156.1657 H   0  0  0  0  0  0  0  0  0  0  0  0  # atno 8009 bound_to 7997
  155.9829  140.3352  155.6683 H   0  0  0  0  0  0  0  0  0  0  0  0  # atno 8010 bound_to 7997
  139.5969  144.7044  151.3154 H   0  0  0  0  0  0  0  0  0  0  0  0  # atno 10167 bound_to 10162
  157.1510  130.6675  149.6012 H   0  0  0  0  0  0  0  0  0  0  0  0  # atno 10718 bound_to 10713
  153.9856  135.6711  153.4752 H   0  0  0  0  0  0  0  0  0  0  0  0  # atno 10763 bound_to 10752
  153.0728  135.4965  154.8337 H   0  0  0  0  0  0  0  0  0  0  0  0  # atno 10764 bound_to 10752
  154.7139  135.3103  154.9116 H   0  0  0  0  0  0  0  0  0  0  0  0  # atno 10765 bound_to 10752
  141.1588  133.7617  156.9564 H   0  0  0  0  0  0  0  0  0  0  0  0  # atno 11005 bound_to 11000
  146.0027  140.8506  143.0010 LP  0  0  0  0  0  0  0  0  0  0  0  0  # atno 17320 bound_to 7965
  144.6789  140.2375  143.7348 LP  0  0  0  0  0  0  0  0  0  0  0  0  # atno 17321 bound_to 7965
  140.7219  143.7112  150.7768 LP  0  0  0  0  0  0  0  0  0  0  0  0  # atno 17342 bound_to 10162
  140.0680  143.5089  152.2594 LP  0  0  0  0  0  0  0  0  0  0  0  0  # atno 17343 bound_to 10162
  155.9770  130.4744  150.6568 LP  0  0  0  0  0  0  0  0  0  0  0  0  # atno 17370 bound_to 10713
  157.4220  131.0838  151.1122 LP  0  0  0  0  0  0  0  0  0  0  0  0  # atno 17371 bound_to 10713
  140.1222  134.9409  157.2220 LP  0  0  0  0  0  0  0  0  0  0  0  0  # atno 17394 bound_to 11000
  140.3057  134.3081  155.7279 LP  0  0  0  0  0  0  0  0  0  0  0  0  # atno 17395 bound_to 11000

$$$$
