AV-unprocessed.smi:39|AV-procd|sdf|366|dock1
  -GOLD-   2262016203D 1   1.00000     0.00000
 Structure written by MMmdl.
 31 32  0  0  0  0  0  0  0  0  4 V2000
  151.9592  137.8280  154.2610 C   0  0  0  0  0  0  0  0  0  0  0  0
  151.4330  139.0495  154.9945 C   0  0  0  0  0  0  0  0  0  0  0  0
  150.3888  139.7732  154.5331 C   0  0  0  0  0  0  0  0  0  0  0  0
  149.9091  140.8850  155.2063 N   0  0  0  0  0  0  0  0  0  0  0  0
  148.7431  141.6963  154.6763 C   0  0  2  0  0  0  0  0  0  0  0  0
  147.4761  141.4644  155.5129 C   0  0  0  0  0  0  0  0  0  0  0  0
  146.3852  141.4179  154.4558 C   0  0  1  0  0  0  0  0  0  0  0  0
  145.9172  142.7629  154.1000 N   0  0  0  0  0  0  0  0  0  0  0  0
  145.3767  143.4184  155.0006 N   0  3  0  0  0  0  0  0  0  0  0  0
  144.9728  144.1038  155.8142 N   0  5  0  0  0  0  0  0  0  0  0  0
  147.1190  140.7679  153.2766 C   0  0  2  0  0  0  0  0  0  0  0  0
  147.1589  139.2290  153.3679 C   0  0  0  0  0  0  0  0  0  0  0  0
  147.4971  138.6756  152.1143 O   0  0  0  0  0  0  0  0  0  0  0  0
  148.4413  141.3006  153.3669 O   0  0  0  0  0  0  0  0  0  0  0  0
  150.5543  141.3110  156.3974 C   0  0  0  0  0  0  0  0  0  0  0  0
  150.1344  142.3276  156.9507 O   0  0  0  0  0  0  0  0  0  0  0  0
  151.6042  140.5832  156.8740 N   0  5  0  0  0  0  0  0  0  0  0  0
  152.0764  139.4693  156.2449 C   0  0  0  0  0  0  0  0  0  0  0  0
  153.0180  138.8150  156.6919 O   0  0  0  0  0  0  0  0  0  0  0  0
  149.0840  142.7330  154.6700 H   0  0  0  0  0  0  0  0  0  0  0  0
  145.5462  140.8005  154.7824 H   0  0  0  0  0  0  0  0  0  0  0  0
  146.6587  141.0608  152.3315 H   0  0  0  0  0  0  0  0  0  0  0  0
  151.3899  137.6356  153.3513 H   0  0  0  0  0  0  0  0  0  0  0  0
  151.8907  136.9438  154.8953 H   0  0  0  0  0  0  0  0  0  0  0  0
  153.0033  137.9727  153.9820 H   0  0  0  0  0  0  0  0  0  0  0  0
  149.9264  139.4626  153.6089 H   0  0  0  0  0  0  0  0  0  0  0  0
  147.5437  140.5028  156.0242 H   0  0  0  0  0  0  0  0  0  0  0  0
  147.3463  142.2469  156.2615 H   0  0  0  0  0  0  0  0  0  0  0  0
  147.8490  138.8794  154.1352 H   0  0  0  0  0  0  0  0  0  0  0  0
  146.1732  138.8447  153.6303 H   0  0  0  0  0  0  0  0  0  0  0  0
  148.1525  138.0083  152.2480 H   0  0  0  0  0  0  0  0  0  0  0  0
  1  2  1  0  0  0  0
  1 23  1  0  0  0  0
  1 24  1  0  0  0  0
  1 25  1  0  0  0  0
  2 18  1  0  0  0  0
  2  3  2  0  0  0  0
  3  4  1  0  0  0  0
  3 26  1  0  0  0  0
  4  5  1  0  0  0  0
  4 15  1  0  0  0  0
  5 20  1  0  0  0  0
  5 14  1  0  0  0  0
  5  6  1  0  0  0  0
  6  7  1  0  0  0  0
  6 27  1  0  0  0  0
  6 28  1  0  0  0  0
  7 21  1  0  0  0  0
  7  8  1  0  0  0  0
  7 11  1  0  0  0  0
  8  9  2  0  0  0  0
  9 10  2  0  0  0  0
 11 22  1  0  0  0  0
 11 12  1  0  0  0  0
 11 14  1  0  0  0  0
 12 13  1  0  0  0  0
 12 29  1  0  0  0  0
 12 30  1  0  0  0  0
 13 31  1  0  0  0  0
 15 16  2  0  0  0  0
 15 17  1  0  0  0  0
 17 18  1  0  0  0  0
 18 19  2  0  0  0  0
M  CHG  1   9   1
M  CHG  1  10  -1
M  CHG  1  17  -1
M  END
> <s_m_source_file>
AV-unprocessed.smi

> <i_m_source_file_index>
39

> <i_lp_mmshare_version>
43012

> <i_f3d_flags>
0

> <s_epik_input>
Tz1jMVtuSF1jKD1PKW4oW2NIXWMxW0NIM10pW0NASF0yW0NIMl1bQ0BIXShOPVtOK109W04tXSlbQ0BIXShPMilbQ0gyXVtPSF0=

> <s_epik_cmdline>
J2VwaWtfcHl0aG9uJywgJy1waCcsICc3LjAnLCAnLXRuJywgJzgnLCAnLW1hJywgJzIwMCcsICctbWV0YWxfYmluZGluZycsICctaW1hZScsICc8aW5maWxlLm1hZT4nLCAnLW9tYWUnLCAnPG91dGZpbGUubWFlPic=

> <r_lp_tautomer_probability>
0.999537

> <r_epik_Ionization_Penalty>
3.6393

> <r_epik_Ionization_Penalty_Charging>
9.76484e-08

> <r_epik_Ionization_Penalty_Neutral>
3.6393

> <r_epik_State_Penalty>
3.63887

> <r_epik_Charging_Adjusted_Penalty>
3.63887

> <i_epik_Tot_Q>
-1

> <i_epik_Tot_abs_Q>
3

> <r_epik_Metal_State_Penalty>
0.225911

> <b_epik_Metal_Only>
1

> <s_epik_Chemistry_Notes>
This compound contains an acetal/aminal-like group ( X-CH(R)-Y where X, Y are N, S, or O) that may be acid/base labile, releasing an aldehyde.

> <s_lp_Force_Field>
OPLS_2005

> <r_lp_Energy>
37.4001

> <b_lp_Chiralities_Consistent>
1

> <s_lp_Variant>
AV-unprocessed.smi:39-16

> <Gold.Version>
5.8.1

> <Gold.Id.Protein>
6NUR|6NUR_protein|mol2

> <Gold.PLP.Fitness>
40.0737

> <Gold.PLP.PLP>
-29.5170

> <Gold.PLP.part.hbond>
-4.1125

> <Gold.PLP.part.metal>
0.0000

> <Gold.PLP.part.buried>
-2.7823

> <Gold.PLP.part.nonpolar>
-26.0616

> <Gold.PLP.part.repulsive>
3.1278

> <Gold.PLP.ligand.clash>
0.0000

> <Gold.PLP.ligand.torsion>
0.4690

> <Gold.PLP.Chemscore.Hbond>
2.8160

> <Gold.PLP.Chemscore.CHOScore>
1.0000

> <Gold.PLP.Chemscore.Metal>
0.0000

> <Gold.Chemscore.Hbonds>
donor molecule, donor type, donor heavy atom, donor atom, acceptor molecule, acceptor atom, score
      L1  H    13    31       P1  7948  1.00
      P1  H  7997  8008       L1    19  1.00
      P1  H  8011  8017       L1    14  0.83
      L1  C     3    26       P1  7957  1.00

> <Gold.PLP.Chemscore.Internal.Correction>
0.0467

> <Gold.Rescore>
     Score         DG    S(hbond)    S(metal)    S(lipo)     H(rot)  DE(clash)    DE(int)     intcor
      9.39     -10.60       1.99        0.00      46.27       2.72       0.75       0.46       ----

> <Gold.Chemscore.Fitness>
9.3851

> <Gold.Chemscore.DG>
-10.6029

> <Gold.Chemscore.ZeroCoef>
-5.4800

> <Gold.Chemscore.Hbond>
1.9942

> <Gold.Chemscore.Metal>
0.0000

> <Gold.Chemscore.Lipo>
46.2688

> <Gold.Chemscore.Internal_Hbond>
0.0000

> <Gold.Chemscore.DEClash>
0.7540

> <Gold.Chemscore.DEInternal>
0.4639

> <Gold.Chemscore.Rot>
2.7153

> <Gold.Chemscore.Internal.Correction>
   9.000000E+99

> <Gold.Chemscore.Hbonds>
donor molecule, donor type, donor heavy atom, donor atom, acceptor molecule, acceptor atom, score
      L1  H    13    31       P1  7948  0.95
      P1  H  7997  8008       L1    19  0.35
      P1  H  8011  8017       L1    14  0.23

> <Gold.Chemscore.Hbond.Weighted>
-6.6607

> <Gold.Chemscore.Metal.Weighted>
-0.0000

> <Gold.Chemscore.Lipo.Weighted>
-5.4135

> <Gold.Chemscore.Internal_Hbond.Weighted>
0.0000

> <Gold.Chemscore.DEClash.Weighted>
0.7540

> <Gold.Chemscore.DEInternal.Weighted>
0.4639

> <Gold.Chemscore.Rot.Weighted>
6.9512

> <Gold.Chemscore.Internal.Correction.Weighted>
   9.000000E+99

> <Gold.Protein.RotatedTorsions>
[ 6907 6896 6895 6894 ] final  -39.25 input  -60.11 | X-H torsion
[ 7974 7965 7964 7962 ] final -123.43 input  175.53 | X-H torsion
[ 8008 7997 7996 7995 ] final  -61.79 input   59.86 | X-H torsion
[ 10167 10162 10161 10158 ] final  100.00 input  -65.29 | X-H torsion
[ 10718 10713 10712 10709 ] final   86.00 input   66.30 | X-H torsion
[ 10763 10752 10751 10750 ] final   85.83 input  -60.55 | X-H torsion
[ 11005 11000 10999 10996 ] final -114.66 input  -57.11 | X-H torsion

> <Gold.Protein.ActiveResidues>
 VAL166  LYS551  ARG553  GLY616  TRP617  ASP618  TYR619  PRO620  LYS621  CYS622 
 ASP623  PHE694  ASN695  SER759  ASP760  ASP761  ALA762  ILE779  LEU786  VAL792 
 PHE793  MET794  SER795  GLU796  ALA797  LYS798  CYS799  TRP800  GLU811  SER814 

> <Gold.Protein.RotatedAtoms>
  150.9926  134.9257  159.7908 H   0  0  0  0  0  0  0  0  0  0  0  0  # atno 6907 bound_to 6896
  152.5255  134.3261  159.9176 H   0  0  0  0  0  0  0  0  0  0  0  0  # atno 6908 bound_to 6896
  151.3267  133.3976  159.2693 H   0  0  0  0  0  0  0  0  0  0  0  0  # atno 6909 bound_to 6896
  145.0187  140.7969  143.4394 H   0  0  0  0  0  0  0  0  0  0  0  0  # atno 7974 bound_to 7965
  154.4466  140.1010  156.6486 H   0  0  0  0  0  0  0  0  0  0  0  0  # atno 8008 bound_to 7997
  155.5422  140.3484  155.4431 H   0  0  0  0  0  0  0  0  0  0  0  0  # atno 8009 bound_to 7997
  156.0589  140.1321  156.9954 H   0  0  0  0  0  0  0  0  0  0  0  0  # atno 8010 bound_to 7997
  139.7566  144.6967  151.0353 H   0  0  0  0  0  0  0  0  0  0  0  0  # atno 10167 bound_to 10162
  157.6923  131.0197  150.2906 H   0  0  0  0  0  0  0  0  0  0  0  0  # atno 10718 bound_to 10713
  153.1512  135.4602  154.9640 H   0  0  0  0  0  0  0  0  0  0  0  0  # atno 10763 bound_to 10752
  154.7826  135.3193  154.7958 H   0  0  0  0  0  0  0  0  0  0  0  0  # atno 10764 bound_to 10752
  153.8463  135.6925  153.4851 H   0  0  0  0  0  0  0  0  0  0  0  0  # atno 10765 bound_to 10752
  141.0538  133.9645  157.2790 H   0  0  0  0  0  0  0  0  0  0  0  0  # atno 11005 bound_to 11000
  145.1924  139.2294  143.5235 LP  0  0  0  0  0  0  0  0  0  0  0  0  # atno 17320 bound_to 7965
  146.3482  140.1723  142.8589 LP  0  0  0  0  0  0  0  0  0  0  0  0  # atno 17321 bound_to 7965
  140.7803  143.4746  151.0100 LP  0  0  0  0  0  0  0  0  0  0  0  0  # atno 17342 bound_to 10162
  139.8433  143.7535  152.3180 LP  0  0  0  0  0  0  0  0  0  0  0  0  # atno 17343 bound_to 10162
  156.3438  130.3819  149.7387 LP  0  0  0  0  0  0  0  0  0  0  0  0  # atno 17370 bound_to 10713
  156.4887  130.8075  151.3085 LP  0  0  0  0  0  0  0  0  0  0  0  0  # atno 17371 bound_to 10713
  139.9372  135.0195  156.8595 LP  0  0  0  0  0  0  0  0  0  0  0  0  # atno 17394 bound_to 11000
  140.6004  134.0177  155.7535 LP  0  0  0  0  0  0  0  0  0  0  0  0  # atno 17395 bound_to 11000

$$$$
