AV-unprocessed.smi:1576|AV-procd|sdf|6347|dock5
  -GOLD-   22720 6563D 1   1.00000     0.00000
 Structure written by MMmdl.
 45 47  0  0  0  0  0  0  0  0  3 V2000
  155.3344  137.0528  161.2639 O   0  0  0  0  0  0  0  0  0  0  0  0
  154.4346  136.4944  160.6261 C   0  0  0  0  0  0  0  0  0  0  0  0
  153.4943  137.2216  159.9973 N   0  0  0  0  0  0  0  0  0  0  0  0
  153.3315  138.6321  159.9609 C   0  0  0  0  0  0  0  0  0  0  0  0
  152.3749  139.1617  159.0690 C   0  0  0  0  0  0  0  0  0  0  0  0
  152.1701  140.5554  159.0104 C   0  0  0  0  0  0  0  0  0  0  0  0
  152.9205  141.4010  159.8591 C   0  0  0  0  0  0  0  0  0  0  0  0
  152.7895  142.7958  159.8683 N   0  0  0  0  0  0  0  0  0  0  0  0
  152.2502  143.3210  158.6164 C   0  0  0  0  0  0  0  0  0  0  0  0
  152.2954  144.8587  158.6023 C   0  0  0  0  0  0  0  0  0  0  0  0
  151.5858  145.4404  159.8356 C   0  0  0  0  0  0  0  0  0  0  0  0
  152.1709  144.8336  161.1210 C   0  0  0  0  0  0  0  0  0  0  0  0
  152.1306  143.2961  161.0723 C   0  0  0  0  0  0  0  0  0  0  0  0
  153.8124  140.8555  160.7140 N   0  3  0  0  0  0  0  0  0  0  0  0
  154.0399  139.5266  160.7995 C   0  0  0  0  0  0  0  0  0  0  0  0
  154.2594  135.1589  160.4359 N   0  5  0  0  0  0  0  0  0  0  0  0
  155.3147  134.2204  160.0348 C   0  0  2  0  0  0  0  0  0  0  0  0
  155.8238  134.5754  158.6178 C   0  0  0  0  0  0  0  0  0  0  0  0
  154.8509  134.0218  157.5687 C   0  0  0  0  0  0  0  0  0  0  0  0
  154.2399  132.4439  158.2651 S   0  0  0  0  0  0  0  0  0  0  0  0
  152.7724  132.4041  158.1665 O   0  0  0  0  0  0  0  0  0  0  0  0
  155.0584  131.3377  157.7442 O   0  0  0  0  0  0  0  0  0  0  0  0
  154.7458  132.7883  159.9986 C   0  0  0  0  0  0  0  0  0  0  0  0
  152.8571  136.6920  159.4206 H   0  0  0  0  0  0  0  0  0  0  0  0
  151.8060  138.5059  158.4259 H   0  0  0  0  0  0  0  0  0  0  0  0
  151.4457  140.9644  158.3215 H   0  0  0  0  0  0  0  0  0  0  0  0
  152.8226  142.9265  157.7758 H   0  0  0  0  0  0  0  0  0  0  0  0
  151.2213  142.9817  158.4901 H   0  0  0  0  0  0  0  0  0  0  0  0
  153.3335  145.1934  158.5865 H   0  0  0  0  0  0  0  0  0  0  0  0
  151.8337  145.2377  157.6902 H   0  0  0  0  0  0  0  0  0  0  0  0
  151.6853  146.5262  159.8511 H   0  0  0  0  0  0  0  0  0  0  0  0
  150.5180  145.2248  159.7804 H   0  0  0  0  0  0  0  0  0  0  0  0
  153.2017  145.1679  161.2459 H   0  0  0  0  0  0  0  0  0  0  0  0
  151.6208  145.1946  161.9904 H   0  0  0  0  0  0  0  0  0  0  0  0
  151.0951  142.9533  161.0917 H   0  0  0  0  0  0  0  0  0  0  0  0
  152.6200  142.8852  161.9565 H   0  0  0  0  0  0  0  0  0  0  0  0
  154.7688  139.2344  161.5407 H   0  0  0  0  0  0  0  0  0  0  0  0
  156.1495  134.2469  160.7367 H   0  0  0  0  0  0  0  0  0  0  0  0
  155.9913  135.6454  158.4874 H   0  0  0  0  0  0  0  0  0  0  0  0
  156.7916  134.0943  158.4730 H   0  0  0  0  0  0  0  0  0  0  0  0
  153.9977  134.6882  157.4324 H   0  0  0  0  0  0  0  0  0  0  0  0
  155.3179  133.8519  156.5988 H   0  0  0  0  0  0  0  0  0  0  0  0
  155.5192  132.0673  160.2630 H   0  0  0  0  0  0  0  0  0  0  0  0
  153.9020  132.6357  160.6725 H   0  0  0  0  0  0  0  0  0  0  0  0
  154.3406  141.4768  161.3270 H   0  0  0  0  0  0  0  0  0  0  0  0
  1  2  2  0  0  0  0
  2  3  1  0  0  0  0
  2 16  1  0  0  0  0
  3  4  1  0  0  0  0
  3 24  1  0  0  0  0
  4 15  1  0  0  0  0
  4  5  2  0  0  0  0
  5  6  1  0  0  0  0
  5 25  1  0  0  0  0
  6  7  2  0  0  0  0
  6 26  1  0  0  0  0
  7  8  1  0  0  0  0
  7 14  1  0  0  0  0
  8 13  1  0  0  0  0
  8  9  1  0  0  0  0
  9 10  1  0  0  0  0
  9 27  1  0  0  0  0
  9 28  1  0  0  0  0
 10 11  1  0  0  0  0
 10 29  1  0  0  0  0
 10 30  1  0  0  0  0
 11 12  1  0  0  0  0
 11 31  1  0  0  0  0
 11 32  1  0  0  0  0
 12 13  1  0  0  0  0
 12 33  1  0  0  0  0
 12 34  1  0  0  0  0
 13 35  1  0  0  0  0
 13 36  1  0  0  0  0
 14 15  2  0  0  0  0
 14 45  1  0  0  0  0
 15 37  1  0  0  0  0
 16 17  1  0  0  0  0
 17 23  1  0  0  0  0
 17 18  1  0  0  0  0
 17 38  1  0  0  0  0
 18 19  1  0  0  0  0
 18 39  1  0  0  0  0
 18 40  1  0  0  0  0
 19 20  1  0  0  0  0
 19 41  1  0  0  0  0
 19 42  1  0  0  0  0
 20 21  2  0  0  0  0
 20 22  2  0  0  0  0
 20 23  1  0  0  0  0
 23 43  1  0  0  0  0
 23 44  1  0  0  0  0
M  CHG  1  14   1
M  CHG  1  16  -1
M  END
> <s_m_source_file>
AV-unprocessed.smi

> <i_m_source_file_index>
1576

> <i_lp_mmshare_version>
43012

> <i_f3d_flags>
0

> <s_epik_input>
Tz1TMSg9TylbQ0gyXVtDSDJdW0NASF0oW0NIMl0xKVtOSF1DKD1PKVtOSF1jMltjSF1bY0hdYyhuW2NIXTIpTjNbQ0gyXVtDSDJdW0NIMl1bQ0gyXVtDSDJdMw==

> <s_epik_cmdline>
J2VwaWtfcHl0aG9uJywgJy1waCcsICc3LjAnLCAnLXRuJywgJzgnLCAnLW1hJywgJzIwMCcsICctbWV0YWxfYmluZGluZycsICctaW1hZScsICc8aW5maWxlLm1hZT4nLCAnLW9tYWUnLCAnPG91dGZpbGUubWFlPic=

> <r_lp_tautomer_probability>
0.999994

> <r_epik_Ionization_Penalty>
8.26491

> <r_epik_Ionization_Penalty_Charging>
8.26491

> <r_epik_Ionization_Penalty_Neutral>
3.15169e-06

> <r_epik_State_Penalty>
7.8977

> <r_epik_Charging_Adjusted_Penalty>
16.1626

> <i_epik_Tot_Q>
0

> <i_epik_Tot_abs_Q>
2

> <r_epik_Metal_State_Penalty>
3.88896

> <b_epik_Metal_Only>
1

> <s_lp_Force_Field>
OPLS_2005

> <r_lp_Energy>
29.9243

> <b_lp_Chiralities_Consistent>
1

> <s_lp_Variant>
AV-unprocessed.smi:1576-5

> <Gold.Version>
5.8.1

> <Gold.Id.Protein>
6NUR|6NUR_protein|mol2

> <Gold.PLP.Fitness>
45.3001

> <Gold.PLP.PLP>
-37.9368

> <Gold.PLP.part.hbond>
-2.0000

> <Gold.PLP.part.metal>
0.0000

> <Gold.PLP.part.buried>
-6.6075

> <Gold.PLP.part.nonpolar>
-29.6341

> <Gold.PLP.part.repulsive>
0.1084

> <Gold.PLP.ligand.clash>
0.0000

> <Gold.PLP.ligand.torsion>
0.8927

> <Gold.PLP.Chemscore.Hbond>
3.0000

> <Gold.PLP.Chemscore.CHOScore>
0.0000

> <Gold.PLP.Chemscore.Metal>
0.0000

> <Gold.Chemscore.Hbonds>
donor molecule, donor type, donor heavy atom, donor atom, acceptor molecule, acceptor atom, score
      P1  H  6896  6907       L1    16  2.00
      P1  H  6896  6908       L1    21  1.00

> <Gold.PLP.Chemscore.Internal.Correction>
0.1487

> <Gold.Rescore>
     Score         DG    S(hbond)    S(metal)    S(lipo)     H(rot)  DE(clash)    DE(int)     intcor
     17.32     -19.35       1.77        0.00      94.95       1.24       0.00       2.03       ----

> <Gold.Chemscore.Fitness>
17.3165

> <Gold.Chemscore.DG>
-19.3490

> <Gold.Chemscore.ZeroCoef>
-5.4800

> <Gold.Chemscore.Hbond>
1.7742

> <Gold.Chemscore.Metal>
0.0000

> <Gold.Chemscore.Lipo>
94.9479

> <Gold.Chemscore.Internal_Hbond>
0.0000

> <Gold.Chemscore.DEClash>
0.0029

> <Gold.Chemscore.DEInternal>
2.0296

> <Gold.Chemscore.Rot>
1.2366

> <Gold.Chemscore.Internal.Correction>
   9.000000E+99

> <Gold.Chemscore.Hbonds>
donor molecule, donor type, donor heavy atom, donor atom, acceptor molecule, acceptor atom, score
      P1  H  6896  6907       L1    16  0.77
      P1  H  6896  6908       L1    21  0.96

> <Gold.Chemscore.Hbond.Weighted>
-5.9258

> <Gold.Chemscore.Metal.Weighted>
-0.0000

> <Gold.Chemscore.Lipo.Weighted>
-11.1089

> <Gold.Chemscore.Internal_Hbond.Weighted>
0.0000

> <Gold.Chemscore.DEClash.Weighted>
0.0029

> <Gold.Chemscore.DEInternal.Weighted>
2.0296

> <Gold.Chemscore.Rot.Weighted>
3.1657

> <Gold.Chemscore.Internal.Correction.Weighted>
   9.000000E+99

> <Gold.Protein.RotatedTorsions>
[ 6907 6896 6895 6894 ] final   54.18 input  -60.11 | X-H torsion
[ 7974 7965 7964 7962 ] final   40.96 input  175.53 | X-H torsion
[ 8008 7997 7996 7995 ] final   -5.88 input   59.86 | X-H torsion
[ 10167 10162 10161 10158 ] final  174.70 input  -65.29 | X-H torsion
[ 10718 10713 10712 10709 ] final  -99.83 input   66.30 | X-H torsion
[ 10763 10752 10751 10750 ] final   29.59 input  -60.55 | X-H torsion
[ 11005 11000 10999 10996 ] final -160.78 input  -57.11 | X-H torsion

> <Gold.Protein.ActiveResidues>
 VAL166  LYS551  ARG553  GLY616  TRP617  ASP618  TYR619  PRO620  LYS621  CYS622 
 ASP623  PHE694  ASN695  SER759  ASP760  ASP761  ALA762  ILE779  LEU786  VAL792 
 PHE793  MET794  SER795  GLU796  ALA797  LYS798  CYS799  TRP800  GLU811  SER814 

> <Gold.Protein.RotatedAtoms>
  152.3413  134.7131  160.0262 H   0  0  0  0  0  0  0  0  0  0  0  0  # atno 6907 bound_to 6896
  151.7515  133.3322  159.3401 H   0  0  0  0  0  0  0  0  0  0  0  0  # atno 6908 bound_to 6896
  150.7481  134.6120  159.6136 H   0  0  0  0  0  0  0  0  0  0  0  0  # atno 6909 bound_to 6896
  146.0862  139.5471  142.9505 H   0  0  0  0  0  0  0  0  0  0  0  0  # atno 7974 bound_to 7965
  154.5994  140.2447  155.7813 H   0  0  0  0  0  0  0  0  0  0  0  0  # atno 8008 bound_to 7997
  156.2301  140.2969  156.0118 H   0  0  0  0  0  0  0  0  0  0  0  0  # atno 8009 bound_to 7997
  155.2237  140.0401  157.2942 H   0  0  0  0  0  0  0  0  0  0  0  0  # atno 8010 bound_to 7997
  139.5151  144.3117  152.0285 H   0  0  0  0  0  0  0  0  0  0  0  0  # atno 10167 bound_to 10162
  156.0145  130.5300  150.6728 H   0  0  0  0  0  0  0  0  0  0  0  0  # atno 10718 bound_to 10713
  153.0421  135.6485  154.0914 H   0  0  0  0  0  0  0  0  0  0  0  0  # atno 10763 bound_to 10752
  154.0619  135.2887  155.3325 H   0  0  0  0  0  0  0  0  0  0  0  0  # atno 10764 bound_to 10752
  154.6652  135.5377  153.8133 H   0  0  0  0  0  0  0  0  0  0  0  0  # atno 10765 bound_to 10752
  140.6277  134.4683  157.5228 H   0  0  0  0  0  0  0  0  0  0  0  0  # atno 11005 bound_to 11000
  145.6125  141.0337  143.1959 LP  0  0  0  0  0  0  0  0  0  0  0  0  # atno 17320 bound_to 7965
  144.7327  139.7676  143.7341 LP  0  0  0  0  0  0  0  0  0  0  0  0  # atno 17321 bound_to 7965
  140.2561  144.4117  150.6203 LP  0  0  0  0  0  0  0  0  0  0  0  0  # atno 17342 bound_to 10162
  140.6190  143.2174  151.6732 LP  0  0  0  0  0  0  0  0  0  0  0  0  # atno 17343 bound_to 10162
  157.4447  131.0865  151.0907 LP  0  0  0  0  0  0  0  0  0  0  0  0  # atno 17370 bound_to 10713
  157.1441  130.6155  149.5563 LP  0  0  0  0  0  0  0  0  0  0  0  0  # atno 17371 bound_to 10713
  139.9128  134.8309  156.1469 LP  0  0  0  0  0  0  0  0  0  0  0  0  # atno 17394 bound_to 11000
  141.0697  133.6802  156.2116 LP  0  0  0  0  0  0  0  0  0  0  0  0  # atno 17395 bound_to 11000

$$$$
