AV-unprocessed.smi:2032|AV-procd|sdf|8245|dock7
  -GOLD-   2272010513D 1   1.00000     0.00000
 Structure written by MMmdl.
 41 42  0  0  0  0  0  0  0  0  2 V2000
  150.9183  144.5551  159.9034 C   0  0  0  0  0  0  0  0  0  0  0  0
  152.0443  144.0667  158.9759 C   0  0  2  0  0  0  0  0  0  0  0  0
  151.5459  143.1510  157.8401 C   0  0  0  0  0  0  0  0  0  0  0  0
  151.1800  141.8016  158.2857 N   0  0  0  0  0  0  0  0  0  0  0  0
  150.7301  140.9400  157.1659 C   0  0  2  0  0  0  0  0  0  0  0  0
  149.3101  141.3074  156.6632 C   0  0  0  0  0  0  0  0  0  0  0  0
  150.7683  139.4196  157.5016 C   0  0  0  0  0  0  0  0  0  0  0  0
  149.6145  138.9602  158.2717 N   0  0  0  0  0  0  0  0  0  0  0  0
  149.4848  137.7607  158.8568 C   0  0  0  0  0  0  0  0  0  0  0  0
  150.3995  136.9369  158.7812 O   0  0  0  0  0  0  0  0  0  0  0  0
  148.3009  137.5893  159.4881 N   0  5  0  0  0  0  0  0  0  0  0  0
  148.1526  136.6001  160.3841 C   0  0  0  0  0  0  0  0  0  0  0  0
  148.0389  136.8178  161.6994 N   0  0  0  0  0  0  0  0  0  0  0  0
  147.8821  135.6475  162.4442 C   0  0  0  0  0  0  0  0  0  0  0  0
  147.8670  134.5126  161.6777 C   0  0  0  0  0  0  0  0  0  0  0  0
  148.0522  134.8823  159.9869 S   0  0  0  0  0  0  0  0  0  0  0  0
  152.3248  141.2419  159.0100 C   0  0  0  0  0  0  0  0  0  0  0  0
  152.7840  142.1293  160.1812 C   0  0  1  0  0  0  0  0  0  0  0  0
  154.0321  141.5696  160.8722 C   0  0  0  0  0  0  0  0  0  0  0  0
  153.0949  143.4327  159.7013 O   0  0  0  0  0  0  0  0  0  0  0  0
  150.1876  145.1432  159.3479 H   0  0  0  0  0  0  0  0  0  0  0  0
  151.3153  145.1871  160.6978 H   0  0  0  0  0  0  0  0  0  0  0  0
  150.3821  143.7284  160.3688 H   0  0  0  0  0  0  0  0  0  0  0  0
  152.4841  144.9537  158.5193 H   0  0  0  0  0  0  0  0  0  0  0  0
  150.6989  143.6496  157.3727 H   0  0  0  0  0  0  0  0  0  0  0  0
  152.3240  143.0792  157.0784 H   0  0  0  0  0  0  0  0  0  0  0  0
  151.4120  141.0994  156.3295 H   0  0  0  0  0  0  0  0  0  0  0  0
  148.9620  140.6419  155.8740 H   0  0  0  0  0  0  0  0  0  0  0  0
  149.2701  142.3036  156.2258 H   0  0  0  0  0  0  0  0  0  0  0  0
  148.5819  141.2630  157.4733 H   0  0  0  0  0  0  0  0  0  0  0  0
  150.8068  138.8026  156.6048 H   0  0  0  0  0  0  0  0  0  0  0  0
  151.6677  139.1894  158.0733 H   0  0  0  0  0  0  0  0  0  0  0  0
  148.8415  139.6032  158.3603 H   0  0  0  0  0  0  0  0  0  0  0  0
  147.7861  135.7163  163.5175 H   0  0  0  0  0  0  0  0  0  0  0  0
  147.7574  133.4886  162.0010 H   0  0  0  0  0  0  0  0  0  0  0  0
  152.0742  140.2724  159.4349 H   0  0  0  0  0  0  0  0  0  0  0  0
  153.1551  141.0812  158.3205 H   0  0  0  0  0  0  0  0  0  0  0  0
  151.9861  142.1953  160.9213 H   0  0  0  0  0  0  0  0  0  0  0  0
  153.8446  140.5736  161.2743 H   0  0  0  0  0  0  0  0  0  0  0  0
  154.3393  142.2092  161.7000 H   0  0  0  0  0  0  0  0  0  0  0  0
  154.8693  141.4983  160.1772 H   0  0  0  0  0  0  0  0  0  0  0  0
  1  2  1  0  0  0  0
  1 21  1  0  0  0  0
  1 22  1  0  0  0  0
  1 23  1  0  0  0  0
  2 20  1  0  0  0  0
  2  3  1  0  0  0  0
  2 24  1  0  0  0  0
  3  4  1  0  0  0  0
  3 25  1  0  0  0  0
  3 26  1  0  0  0  0
  4  5  1  0  0  0  0
  4 17  1  0  0  0  0
  5  6  1  0  0  0  0
  5  7  1  0  0  0  0
  5 27  1  0  0  0  0
  6 28  1  0  0  0  0
  6 29  1  0  0  0  0
  6 30  1  0  0  0  0
  7  8  1  0  0  0  0
  7 31  1  0  0  0  0
  7 32  1  0  0  0  0
  8  9  1  0  0  0  0
  8 33  1  0  0  0  0
  9 10  2  0  0  0  0
  9 11  1  0  0  0  0
 11 12  1  0  0  0  0
 12 16  1  0  0  0  0
 12 13  2  0  0  0  0
 13 14  1  0  0  0  0
 14 15  2  0  0  0  0
 14 34  1  0  0  0  0
 15 16  1  0  0  0  0
 15 35  1  0  0  0  0
 17 18  1  0  0  0  0
 17 36  1  0  0  0  0
 17 37  1  0  0  0  0
 18 19  1  0  0  0  0
 18 20  1  0  0  0  0
 18 38  1  0  0  0  0
 19 39  1  0  0  0  0
 19 40  1  0  0  0  0
 19 41  1  0  0  0  0
M  CHG  1  11  -1
M  END
> <s_m_source_file>
AV-unprocessed.smi

> <i_m_source_file_index>
2032

> <i_lp_mmshare_version>
43012

> <i_f3d_flags>
0

> <s_epik_input>
W0NIM11bQ0BASF0xW0NIMl1OKFtDSDJdW0NASF0oTzEpW0NIM10pW0NASF0oW0NIM10pW0NIMl1bTkhdQyg9TylbTkhdYzJuW2NIXVtjSF1zMg==

> <s_epik_cmdline>
J2VwaWtfcHl0aG9uJywgJy1waCcsICc3LjAnLCAnLXRuJywgJzgnLCAnLW1hJywgJzIwMCcsICctbWV0YWxfYmluZGluZycsICctaW1hZScsICc8aW5maWxlLm1hZT4nLCAnLW9tYWUnLCAnPG91dGZpbGUubWFlPic=

> <r_lp_tautomer_probability>
0.999

> <r_epik_Ionization_Penalty>
7.22375

> <r_epik_Ionization_Penalty_Charging>
5.82415

> <r_epik_Ionization_Penalty_Neutral>
1.39959

> <r_epik_State_Penalty>
6.03347

> <r_epik_Charging_Adjusted_Penalty>
11.8576

> <i_epik_Tot_Q>
-1

> <i_epik_Tot_abs_Q>
1

> <r_epik_Metal_State_Penalty>
2.01024

> <b_epik_Metal_Only>
1

> <s_lp_Force_Field>
OPLS_2005

> <r_lp_Energy>
26.7208

> <b_lp_Chiralities_Consistent>
1

> <s_lp_Variant>
AV-unprocessed.smi:2032-15

> <Gold.Version>
5.8.1

> <Gold.Id.Protein>
6NUR|6NUR_protein|mol2

> <Gold.PLP.Fitness>
42.5821

> <Gold.PLP.PLP>
-41.1656

> <Gold.PLP.part.hbond>
-3.6034

> <Gold.PLP.part.metal>
0.0000

> <Gold.PLP.part.buried>
-6.9993

> <Gold.PLP.part.nonpolar>
-31.6271

> <Gold.PLP.part.repulsive>
0.2072

> <Gold.PLP.ligand.clash>
0.0000

> <Gold.PLP.ligand.torsion>
1.2221

> <Gold.PLP.Chemscore.Hbond>
1.2686

> <Gold.PLP.Chemscore.CHOScore>
0.0000

> <Gold.PLP.Chemscore.Metal>
0.0000

> <Gold.Chemscore.Hbonds>
donor molecule, donor type, donor heavy atom, donor atom, acceptor molecule, acceptor atom, score
      P1  H  6931  6943       L1    13  1.00
      P1  H  6934  6947       L1    11  0.15

> <Gold.PLP.Chemscore.Internal.Correction>
0.0548

> <Gold.Rescore>
     Score         DG    S(hbond)    S(metal)    S(lipo)     H(rot)  DE(clash)    DE(int)     intcor
     13.40     -15.72       0.74        0.00     100.08       1.54       1.41       0.91       ----

> <Gold.Chemscore.Fitness>
13.3985

> <Gold.Chemscore.DG>
-15.7214

> <Gold.Chemscore.ZeroCoef>
-5.4800

> <Gold.Chemscore.Hbond>
0.7433

> <Gold.Chemscore.Metal>
0.0000

> <Gold.Chemscore.Lipo>
100.0756

> <Gold.Chemscore.Internal_Hbond>
0.0000

> <Gold.Chemscore.DEClash>
1.4092

> <Gold.Chemscore.DEInternal>
0.9137

> <Gold.Chemscore.Rot>
1.5431

> <Gold.Chemscore.Internal.Correction>
   9.000000E+99

> <Gold.Chemscore.Hbonds>
donor molecule, donor type, donor heavy atom, donor atom, acceptor molecule, acceptor atom, score
      P1  H  6931  6943       L1    13  0.35

> <Gold.Chemscore.Hbond.Weighted>
-2.4828

> <Gold.Chemscore.Metal.Weighted>
-0.0000

> <Gold.Chemscore.Lipo.Weighted>
-11.7088

> <Gold.Chemscore.Internal_Hbond.Weighted>
0.0000

> <Gold.Chemscore.DEClash.Weighted>
1.4092

> <Gold.Chemscore.DEInternal.Weighted>
0.9137

> <Gold.Chemscore.Rot.Weighted>
3.9503

> <Gold.Chemscore.Internal.Correction.Weighted>
   9.000000E+99

> <Gold.Protein.RotatedTorsions>
[ 6907 6896 6895 6894 ] final   18.37 input  -60.11 | X-H torsion
[ 7974 7965 7964 7962 ] final  166.29 input  175.53 | X-H torsion
[ 8008 7997 7996 7995 ] final   17.93 input   59.86 | X-H torsion
[ 10167 10162 10161 10158 ] final  -34.56 input  -65.29 | X-H torsion
[ 10718 10713 10712 10709 ] final  103.37 input   66.30 | X-H torsion
[ 10763 10752 10751 10750 ] final   29.35 input  -60.55 | X-H torsion
[ 11005 11000 10999 10996 ] final -155.51 input  -57.11 | X-H torsion

> <Gold.Protein.ActiveResidues>
 VAL166  LYS551  ARG553  GLY616  TRP617  ASP618  TYR619  PRO620  LYS621  CYS622 
 ASP623  PHE694  ASN695  SER759  ASP760  ASP761  ALA762  ILE779  LEU786  VAL792 
 PHE793  MET794  SER795  GLU796  ALA797  LYS798  CYS799  TRP800  GLU811  SER814 

> <Gold.Protein.RotatedAtoms>
  151.8643  135.0513  160.0472 H   0  0  0  0  0  0  0  0  0  0  0  0  # atno 6907 bound_to 6896
  152.2638  133.5317  159.5406 H   0  0  0  0  0  0  0  0  0  0  0  0  # atno 6908 bound_to 6896
  150.7126  134.0708  159.3906 H   0  0  0  0  0  0  0  0  0  0  0  0  # atno 6909 bound_to 6896
  144.7468  139.8594  143.6379 H   0  0  0  0  0  0  0  0  0  0  0  0  # atno 7974 bound_to 7965
  154.8985  140.2997  155.5330 H   0  0  0  0  0  0  0  0  0  0  0  0  # atno 8008 bound_to 7997
  156.3019  140.2411  156.3945 H   0  0  0  0  0  0  0  0  0  0  0  0  # atno 8009 bound_to 7997
  154.8545  140.0408  157.1614 H   0  0  0  0  0  0  0  0  0  0  0  0  # atno 8010 bound_to 7997
  140.7183  143.3539  151.2098 H   0  0  0  0  0  0  0  0  0  0  0  0  # atno 10167 bound_to 10162
  157.6774  131.0777  150.5545 H   0  0  0  0  0  0  0  0  0  0  0  0  # atno 10718 bound_to 10713
  153.0435  135.6491  154.0878 H   0  0  0  0  0  0  0  0  0  0  0  0  # atno 10763 bound_to 10752
  154.0580  135.2890  155.3331 H   0  0  0  0  0  0  0  0  0  0  0  0  # atno 10764 bound_to 10752
  154.6676  135.5368  153.8163 H   0  0  0  0  0  0  0  0  0  0  0  0  # atno 10765 bound_to 10752
  140.6857  134.4096  157.5223 H   0  0  0  0  0  0  0  0  0  0  0  0  # atno 11005 bound_to 11000
  146.1359  139.4404  143.0139 LP  0  0  0  0  0  0  0  0  0  0  0  0  # atno 17320 bound_to 7965
  145.7092  141.0111  143.1462 LP  0  0  0  0  0  0  0  0  0  0  0  0  # atno 17321 bound_to 7965
  139.7076  143.9429  152.2934 LP  0  0  0  0  0  0  0  0  0  0  0  0  # atno 17342 bound_to 10162
  139.9143  144.6838  150.8529 LP  0  0  0  0  0  0  0  0  0  0  0  0  # atno 17343 bound_to 10162
  156.5849  130.4314  149.5961 LP  0  0  0  0  0  0  0  0  0  0  0  0  # atno 17370 bound_to 10713
  156.2631  130.6974  151.1748 LP  0  0  0  0  0  0  0  0  0  0  0  0  # atno 17371 bound_to 10713
  139.8938  134.8721  156.2205 LP  0  0  0  0  0  0  0  0  0  0  0  0  # atno 17394 bound_to 11000
  141.0282  133.7003  156.1384 LP  0  0  0  0  0  0  0  0  0  0  0  0  # atno 17395 bound_to 11000

$$$$
