AV-unprocessed.smi:72|AV-procd|sdf|715|dock4
  -GOLD-   2262017 43D 1   1.00000     0.00000
 Structure written by MMmdl.
 28 29  0  0  0  0  0  0  0  0  2 V2000
  149.5563  135.1460  158.2556 N   0  0  0  0  0  0  0  0  0  0  0  0
  149.6536  136.1215  157.4632 C   0  0  0  0  0  0  0  0  0  0  0  0
  148.7075  137.2123  157.5332 N   0  0  0  0  0  0  0  0  0  0  0  0
  148.8094  138.1574  156.6501 C   0  0  0  0  0  0  0  0  0  0  0  0
  149.8059  138.1183  155.5830 N   0  0  0  0  0  0  0  0  0  0  0  0
  149.9327  139.2465  154.5647 C   0  0  2  0  0  0  0  0  0  0  0  0
  150.8473  140.2037  155.0296 O   0  0  0  0  0  0  0  0  0  0  0  0
  150.1924  141.3868  155.4866 C   0  0  2  0  0  0  0  0  0  0  0  0
  149.8206  141.2713  156.9832 C   0  0  0  0  0  0  0  0  0  0  0  0
  149.1725  142.4506  157.4099 O   0  0  0  0  0  0  0  0  0  0  0  0
  149.0025  141.4599  154.5248 C   0  0  2  0  0  0  0  0  0  0  0  0
  147.9311  142.2405  155.0176 O   0  0  0  0  0  0  0  0  0  0  0  0
  148.6008  140.0030  154.3382 C   0  0  1  0  0  0  0  0  0  0  0  0
  148.1073  139.8230  153.0257 O   0  0  0  0  0  0  0  0  0  0  0  0
  150.7942  137.0947  155.6206 C   0  0  0  0  0  0  0  0  0  0  0  0
  151.7231  137.1484  154.8152 O   0  0  0  0  0  0  0  0  0  0  0  0
  150.6848  136.1063  156.5517 N   0  5  0  0  0  0  0  0  0  0  0  0
  150.3309  138.7624  153.6715 H   0  0  0  0  0  0  0  0  0  0  0  0
  150.8408  142.2518  155.3414 H   0  0  0  0  0  0  0  0  0  0  0  0
  149.3472  141.8815  153.5787 H   0  0  0  0  0  0  0  0  0  0  0  0
  147.8628  139.7050  155.0850 H   0  0  0  0  0  0  0  0  0  0  0  0
  148.7740  135.2411  158.8868 H   0  0  0  0  0  0  0  0  0  0  0  0
  148.1555  139.0294  156.6568 H   0  0  0  0  0  0  0  0  0  0  0  0
  149.1104  140.4599  157.1397 H   0  0  0  0  0  0  0  0  0  0  0  0
  150.6818  141.0550  157.6135 H   0  0  0  0  0  0  0  0  0  0  0  0
  149.0573  143.0167  156.6620 H   0  0  0  0  0  0  0  0  0  0  0  0
  148.2698  143.0909  155.2535 H   0  0  0  0  0  0  0  0  0  0  0  0
  148.8468  139.7041  152.4480 H   0  0  0  0  0  0  0  0  0  0  0  0
  1  2  2  0  0  0  0
  1 22  1  0  0  0  0
  2 17  1  0  0  0  0
  2  3  1  0  0  0  0
  3  4  2  0  0  0  0
  4  5  1  0  0  0  0
  4 23  1  0  0  0  0
  5  6  1  0  0  0  0
  5 15  1  0  0  0  0
  6 18  1  0  0  0  0
  6 13  1  0  0  0  0
  6  7  1  0  0  0  0
  7  8  1  0  0  0  0
  8 19  1  0  0  0  0
  8  9  1  0  0  0  0
  8 11  1  0  0  0  0
  9 10  1  0  0  0  0
  9 24  1  0  0  0  0
  9 25  1  0  0  0  0
 10 26  1  0  0  0  0
 11 20  1  0  0  0  0
 11 12  1  0  0  0  0
 11 13  1  0  0  0  0
 12 27  1  0  0  0  0
 13 21  1  0  0  0  0
 13 14  1  0  0  0  0
 14 28  1  0  0  0  0
 15 16  2  0  0  0  0
 15 17  1  0  0  0  0
M  CHG  1  17  -1
M  END
> <s_m_source_file>
AV-unprocessed.smi

> <i_m_source_file_index>
72

> <i_lp_mmshare_version>
43012

> <i_f3d_flags>
0

> <s_epik_input>
W05IMl1jMW5bY0hdbihjKD1PKW4xKVtDQEBIXTJPW0NASF0oW0NIMl1bT0hdKVtDQEBIXShbT0hdKVtDQEhdMltPSF0=

> <s_epik_cmdline>
J2VwaWtfcHl0aG9uJywgJy1waCcsICc3LjAnLCAnLXRuJywgJzgnLCAnLW1hJywgJzIwMCcsICctbWV0YWxfYmluZGluZycsICctaW1hZScsICc8aW5maWxlLm1hZT4nLCAnLW9tYWUnLCAnPG91dGZpbGUubWFlPic=

> <r_lp_tautomer_probability>
7.17554e-07

> <r_epik_Ionization_Penalty>
12.8705

> <r_epik_Ionization_Penalty_Charging>
5.64144

> <r_epik_Ionization_Penalty_Neutral>
7.22905

> <r_epik_State_Penalty>
3.30104

> <r_epik_Charging_Adjusted_Penalty>
8.94249

> <i_epik_Tot_Q>
-1

> <i_epik_Tot_abs_Q>
1

> <r_epik_Metal_State_Penalty>
0.529074

> <b_epik_Metal_Only>
1

> <s_epik_Chemistry_Notes>
This compound contains an acetal/aminal-like group ( X-CH(R)-Y where X, Y are N, S, or O) that may be acid/base labile, releasing an aldehyde.

> <s_lp_Force_Field>
OPLS_2005

> <r_lp_Energy>
34.2271

> <b_lp_Chiralities_Consistent>
1

> <s_lp_Variant>
AV-unprocessed.smi:72-53

> <Gold.Version>
5.8.1

> <Gold.Id.Protein>
6NUR|6NUR_protein|mol2

> <Gold.PLP.Fitness>
39.2710

> <Gold.PLP.PLP>
-22.6965

> <Gold.PLP.part.hbond>
-5.6349

> <Gold.PLP.part.metal>
0.0000

> <Gold.PLP.part.buried>
-4.8607

> <Gold.PLP.part.nonpolar>
-12.7601

> <Gold.PLP.part.repulsive>
0.1604

> <Gold.PLP.ligand.clash>
0.0000

> <Gold.PLP.ligand.torsion>
0.6487

> <Gold.PLP.Chemscore.Hbond>
5.9253

> <Gold.PLP.Chemscore.CHOScore>
0.0000

> <Gold.PLP.Chemscore.Metal>
0.0000

> <Gold.Chemscore.Hbonds>
donor molecule, donor type, donor heavy atom, donor atom, acceptor molecule, acceptor atom, score
      L1  H    10    26       P1  8028  1.00
      L1  H    12    27       P1  8028  1.00
      L1  H    14    28       P1  7957  0.99
      P1  H  6896  6908       L1     1  0.75
      P1  H  7989  7998       L1     7  0.95
      P1  H 10752 10764       L1    16  1.00

> <Gold.PLP.Chemscore.Internal.Correction>
0.0960

> <Gold.Rescore>
     Score         DG    S(hbond)    S(metal)    S(lipo)     H(rot)  DE(clash)    DE(int)     intcor
     13.31     -13.98       4.72        0.00      26.36       4.04       0.01       0.66       ----

> <Gold.Chemscore.Fitness>
13.3146

> <Gold.Chemscore.DG>
-13.9818

> <Gold.Chemscore.ZeroCoef>
-5.4800

> <Gold.Chemscore.Hbond>
4.7187

> <Gold.Chemscore.Metal>
0.0000

> <Gold.Chemscore.Lipo>
26.3618

> <Gold.Chemscore.Internal_Hbond>
0.0000

> <Gold.Chemscore.DEClash>
0.0093

> <Gold.Chemscore.DEInternal>
0.6579

> <Gold.Chemscore.Rot>
4.0403

> <Gold.Chemscore.Internal.Correction>
   9.000000E+99

> <Gold.Chemscore.Hbonds>
donor molecule, donor type, donor heavy atom, donor atom, acceptor molecule, acceptor atom, score
      L1  H    10    26       P1  8028  0.95
      L1  H    12    27       P1  8028  0.98
      L1  H    14    28       P1  7957  0.88
      P1  H  6896  6908       L1     1  0.09
      P1  H  7989  7998       L1     7  0.11
      P1  H 10752 10764       L1    16  0.90

> <Gold.Chemscore.Hbond.Weighted>
-15.7605

> <Gold.Chemscore.Metal.Weighted>
-0.0000

> <Gold.Chemscore.Lipo.Weighted>
-3.0843

> <Gold.Chemscore.Internal_Hbond.Weighted>
0.0000

> <Gold.Chemscore.DEClash.Weighted>
0.0093

> <Gold.Chemscore.DEInternal.Weighted>
0.6579

> <Gold.Chemscore.Rot.Weighted>
10.3431

> <Gold.Chemscore.Internal.Correction.Weighted>
   9.000000E+99

> <Gold.Protein.RotatedTorsions>
[ 6907 6896 6895 6894 ] final  156.88 input  -60.11 | X-H torsion
[ 7974 7965 7964 7962 ] final   90.26 input  175.53 | X-H torsion
[ 8008 7997 7996 7995 ] final -131.18 input   59.86 | X-H torsion
[ 10167 10162 10161 10158 ] final  -25.85 input  -65.29 | X-H torsion
[ 10718 10713 10712 10709 ] final  117.81 input   66.30 | X-H torsion
[ 10763 10752 10751 10750 ] final  -56.44 input  -60.55 | X-H torsion
[ 11005 11000 10999 10996 ] final  107.28 input  -57.11 | X-H torsion

> <Gold.Protein.ActiveResidues>
 VAL166  LYS551  ARG553  GLY616  TRP617  ASP618  TYR619  PRO620  LYS621  CYS622 
 ASP623  PHE694  ASN695  SER759  ASP760  ASP761  ALA762  ILE779  LEU786  VAL792 
 PHE793  MET794  SER795  GLU796  ALA797  LYS798  CYS799  TRP800  GLU811  SER814 

> <Gold.Protein.RotatedAtoms>
  152.0232  133.3907  159.4266 H   0  0  0  0  0  0  0  0  0  0  0  0  # atno 6907 bound_to 6896
  150.6888  134.3602  159.4956 H   0  0  0  0  0  0  0  0  0  0  0  0  # atno 6908 bound_to 6896
  152.1379  134.9085  160.0606 H   0  0  0  0  0  0  0  0  0  0  0  0  # atno 6909 bound_to 6896
  145.5213  139.2279  143.2670 H   0  0  0  0  0  0  0  0  0  0  0  0  # atno 7974 bound_to 7965
  155.3081  140.0456  157.3033 H   0  0  0  0  0  0  0  0  0  0  0  0  # atno 8008 bound_to 7997
  154.5448  140.2299  155.8547 H   0  0  0  0  0  0  0  0  0  0  0  0  # atno 8009 bound_to 7997
  156.1914  140.3049  155.9347 H   0  0  0  0  0  0  0  0  0  0  0  0  # atno 8010 bound_to 7997
  140.7285  143.4229  151.0922 H   0  0  0  0  0  0  0  0  0  0  0  0  # atno 10167 bound_to 10162
  157.6072  131.1041  150.7668 H   0  0  0  0  0  0  0  0  0  0  0  0  # atno 10718 bound_to 10713
  154.2066  135.6402  153.5103 H   0  0  0  0  0  0  0  0  0  0  0  0  # atno 10763 bound_to 10752
  152.9999  135.5464  154.6259 H   0  0  0  0  0  0  0  0  0  0  0  0  # atno 10764 bound_to 10752
  154.5685  135.2915  155.0823 H   0  0  0  0  0  0  0  0  0  0  0  0  # atno 10765 bound_to 10752
  139.8826  134.9396  156.5795 H   0  0  0  0  0  0  0  0  0  0  0  0  # atno 11005 bound_to 11000
  146.2104  140.6025  142.9062 LP  0  0  0  0  0  0  0  0  0  0  0  0  # atno 17320 bound_to 7965
  144.7674  140.5562  143.6693 LP  0  0  0  0  0  0  0  0  0  0  0  0  # atno 17321 bound_to 7965
  139.7877  143.8263  152.3147 LP  0  0  0  0  0  0  0  0  0  0  0  0  # atno 17342 bound_to 10162
  139.8236  144.7285  150.9540 LP  0  0  0  0  0  0  0  0  0  0  0  0  # atno 17343 bound_to 10162
  156.8053  130.4934  149.5363 LP  0  0  0  0  0  0  0  0  0  0  0  0  # atno 17370 bound_to 10713
  156.1162  130.6076  151.0124 LP  0  0  0  0  0  0  0  0  0  0  0  0  # atno 17371 bound_to 10713
  140.8037  133.8484  155.8749 LP  0  0  0  0  0  0  0  0  0  0  0  0  # atno 17394 bound_to 11000
  140.9569  134.1706  157.4685 LP  0  0  0  0  0  0  0  0  0  0  0  0  # atno 17395 bound_to 11000

$$$$
