AV-unprocessed.smi:177|AV-procd|sdf|1438|dock4
  -GOLD-   2262019223D 1   1.00000     0.00000
 Structure written by MMmdl.
 61 65  0  0  0  0  0  0  0  0  1 V2000
  152.2399  138.9987  156.7645 C   0  0  0  0  0  0  0  0  0  0  0  0
  153.1587  139.4900  157.7282 O   0  0  0  0  0  0  0  0  0  0  0  0
  152.6514  139.5557  159.0573 C   0  0  1  0  0  0  0  0  0  0  0  0
  153.7635  140.1297  159.9544 C   0  0  0  0  0  0  0  0  0  0  0  0
  154.0406  141.6118  159.6505 C   0  0  0  0  0  0  0  0  0  0  0  0
  152.7521  142.4418  159.7485 C   0  0  1  0  0  0  0  0  0  0  0  0
  153.0434  143.7987  159.4336 O   0  0  0  0  0  0  0  0  0  0  0  0
  151.9029  144.6322  159.6029 C   0  0  0  0  0  0  0  0  0  0  0  0
  150.7916  144.1752  158.6461 C   0  0  0  0  0  0  0  0  0  0  0  0
  150.4849  142.7613  158.8452 N   0  0  0  0  0  0  0  0  0  0  0  0
  149.4112  142.4112  158.0969 C   0  0  0  0  0  0  0  0  0  0  0  0
  149.5771  141.8857  156.8535 N   0  0  0  0  0  0  0  0  0  0  0  0
  148.5105  141.5703  156.1128 C   0  0  0  0  0  0  0  0  0  0  0  0
  147.2169  141.7092  156.4110 N   0  0  0  0  0  0  0  0  0  0  0  0
  147.0476  142.2493  157.6520 C   0  0  0  0  0  0  0  0  0  0  0  0
  148.0831  142.6201  158.5543 C   0  0  0  0  0  0  0  0  0  0  0  0
  147.5376  143.1212  159.7283 N   0  0  0  0  0  0  0  0  0  0  0  0
  146.2495  143.0507  159.5316 C   0  0  0  0  0  0  0  0  0  0  0  0
  145.8652  142.5628  158.3013 N   0  0  0  0  0  0  0  0  0  0  0  0
  144.5016  142.3904  157.8185 C   0  0  0  0  0  0  0  0  0  0  0  0
  144.0929  143.3402  156.6470 C   0  0  0  0  0  0  0  0  0  0  0  0
  144.8330  142.9601  155.3365 C   0  0  0  0  0  0  0  0  0  0  0  0
  144.4749  143.7995  154.2567 O   0  0  0  0  0  0  0  0  0  0  0  0
  142.5714  143.2774  156.3599 C   0  0  0  0  0  0  0  0  0  0  0  0
  141.7267  143.9256  157.4716 C   0  0  0  0  0  0  0  0  0  0  0  0
  142.1306  145.2755  157.6582 O   0  0  0  0  0  0  0  0  0  0  0  0
  143.4829  145.3896  158.0818 C   0  0  0  0  0  0  0  0  0  0  0  0
  144.4226  144.8106  157.0084 C   0  0  0  0  0  0  0  0  0  0  0  0
  151.6719  141.9010  158.7821 C   0  0  2  0  0  0  0  0  0  0  0  0
  151.3768  140.4244  159.1419 C   0  0  0  0  0  0  0  0  0  0  0  0
  152.7433  138.9072  155.8023 H   0  0  0  0  0  0  0  0  0  0  0  0
  151.3941  139.6716  156.6277 H   0  0  0  0  0  0  0  0  0  0  0  0
  151.8653  138.0120  157.0389 H   0  0  0  0  0  0  0  0  0  0  0  0
  152.4273  138.5449  159.4021 H   0  0  0  0  0  0  0  0  0  0  0  0
  153.4692  140.0289  160.9998 H   0  0  0  0  0  0  0  0  0  0  0  0
  154.6774  139.5468  159.8367 H   0  0  0  0  0  0  0  0  0  0  0  0
  154.7859  141.9980  160.3464 H   0  0  0  0  0  0  0  0  0  0  0  0
  154.4682  141.7109  158.6520 H   0  0  0  0  0  0  0  0  0  0  0  0
  152.3874  142.3916  160.7766 H   0  0  0  0  0  0  0  0  0  0  0  0
  151.5626  144.6019  160.6392 H   0  0  0  0  0  0  0  0  0  0  0  0
  152.1816  145.6640  159.3894 H   0  0  0  0  0  0  0  0  0  0  0  0
  149.9005  144.7840  158.8060 H   0  0  0  0  0  0  0  0  0  0  0  0
  151.1062  144.3334  157.6134 H   0  0  0  0  0  0  0  0  0  0  0  0
  148.7240  141.1514  155.1405 H   0  0  0  0  0  0  0  0  0  0  0  0
  145.5387  143.3653  160.2817 H   0  0  0  0  0  0  0  0  0  0  0  0
  144.3812  141.3450  157.5379 H   0  0  0  0  0  0  0  0  0  0  0  0
  143.8317  142.5354  158.6670 H   0  0  0  0  0  0  0  0  0  0  0  0
  145.9141  142.9995  155.4691 H   0  0  0  0  0  0  0  0  0  0  0  0
  144.6042  141.9330  155.0500 H   0  0  0  0  0  0  0  0  0  0  0  0
  143.6994  143.4470  153.8478 H   0  0  0  0  0  0  0  0  0  0  0  0
  142.3569  143.8076  155.4308 H   0  0  0  0  0  0  0  0  0  0  0  0
  142.2461  142.2514  156.1903 H   0  0  0  0  0  0  0  0  0  0  0  0
  140.6736  143.9135  157.1911 H   0  0  0  0  0  0  0  0  0  0  0  0
  141.8047  143.3786  158.4108 H   0  0  0  0  0  0  0  0  0  0  0  0
  143.7079  146.4446  158.2396 H   0  0  0  0  0  0  0  0  0  0  0  0
  143.6199  144.8961  159.0442 H   0  0  0  0  0  0  0  0  0  0  0  0
  145.4571  144.9009  157.3408 H   0  0  0  0  0  0  0  0  0  0  0  0
  144.3376  145.4326  156.1162 H   0  0  0  0  0  0  0  0  0  0  0  0
  152.0668  141.9457  157.7657 H   0  0  0  0  0  0  0  0  0  0  0  0
  150.5988  140.0035  158.5079 H   0  0  0  0  0  0  0  0  0  0  0  0
  150.9789  140.3761  160.1566 H   0  0  0  0  0  0  0  0  0  0  0  0
  1  2  1  0  0  0  0
  1 31  1  0  0  0  0
  1 32  1  0  0  0  0
  1 33  1  0  0  0  0
  2  3  1  0  0  0  0
  3 30  1  0  0  0  0
  3  4  1  0  0  0  0
  3 34  1  0  0  0  0
  4  5  1  0  0  0  0
  4 35  1  0  0  0  0
  4 36  1  0  0  0  0
  5  6  1  0  0  0  0
  5 37  1  0  0  0  0
  5 38  1  0  0  0  0
  6 29  1  0  0  0  0
  6  7  1  0  0  0  0
  6 39  1  0  0  0  0
  7  8  1  0  0  0  0
  8  9  1  0  0  0  0
  8 40  1  0  0  0  0
  8 41  1  0  0  0  0
  9 10  1  0  0  0  0
  9 42  1  0  0  0  0
  9 43  1  0  0  0  0
 10 11  1  0  0  0  0
 10 29  1  0  0  0  0
 11 16  1  0  0  0  0
 11 12  2  0  0  0  0
 12 13  1  0  0  0  0
 13 14  2  0  0  0  0
 13 44  1  0  0  0  0
 14 15  1  0  0  0  0
 15 19  1  0  0  0  0
 15 16  2  0  0  0  0
 16 17  1  0  0  0  0
 17 18  2  0  0  0  0
 18 19  1  0  0  0  0
 18 45  1  0  0  0  0
 19 20  1  0  0  0  0
 20 21  1  0  0  0  0
 20 46  1  0  0  0  0
 20 47  1  0  0  0  0
 21 28  1  0  0  0  0
 21 22  1  0  0  0  0
 21 24  1  0  0  0  0
 22 23  1  0  0  0  0
 22 48  1  0  0  0  0
 22 49  1  0  0  0  0
 23 50  1  0  0  0  0
 24 25  1  0  0  0  0
 24 51  1  0  0  0  0
 24 52  1  0  0  0  0
 25 26  1  0  0  0  0
 25 53  1  0  0  0  0
 25 54  1  0  0  0  0
 26 27  1  0  0  0  0
 27 28  1  0  0  0  0
 27 55  1  0  0  0  0
 27 56  1  0  0  0  0
 28 57  1  0  0  0  0
 28 58  1  0  0  0  0
 29 30  1  0  0  0  0
 29 59  1  0  0  0  0
 30 60  1  0  0  0  0
 30 61  1  0  0  0  0
M  END
> <s_m_source_file>
AV-unprocessed.smi

> <i_m_source_file_index>
177

> <i_lp_mmshare_version>
43012

> <i_f3d_flags>
0

> <s_epik_input>
W0NIM11PW0NASF0oW0NIMl1bQ0gyXTEpW0NIMl1bQ0BIXShbQ0BASF0xMilOKFtDSDJdW0NIMl1PMiljKG5bY0hdbjMpYyhjMzQpbltjSF1uNFtDSDJdQzUoW0NIMl1bT0hdKVtDSDJdW0NIMl1PW0NIMl1bQ0gyXTU=

> <s_epik_cmdline>
J2VwaWtfcHl0aG9uJywgJy1waCcsICc3LjAnLCAnLXRuJywgJzgnLCAnLW1hJywgJzIwMCcsICctbWV0YWxfYmluZGluZycsICctaW1hZScsICc8aW5maWxlLm1hZT4nLCAnLW9tYWUnLCAnPG91dGZpbGUubWFlPic=

> <r_lp_tautomer_probability>
1

> <r_epik_Ionization_Penalty>
0.0065899

> <r_epik_Ionization_Penalty_Charging>
0

> <r_epik_Ionization_Penalty_Neutral>
0.0065899

> <r_epik_State_Penalty>
0.00470042

> <r_epik_Charging_Adjusted_Penalty>
0.00470042

> <i_epik_Tot_Q>
0

> <i_epik_Tot_abs_Q>
0

> <r_epik_Metal_State_Penalty>
-0

> <b_epik_Metal_Only>
0

> <s_lp_Force_Field>
OPLS_2005

> <r_lp_Energy>
42.9311

> <b_lp_Chiralities_Consistent>
1

> <s_lp_Variant>
AV-unprocessed.smi:177-2

> <Gold.Version>
5.8.1

> <Gold.Id.Protein>
6NUR|6NUR_protein|mol2

> <Gold.PLP.Fitness>
46.1188

> <Gold.PLP.PLP>
-40.7731

> <Gold.PLP.part.hbond>
-2.6769

> <Gold.PLP.part.metal>
0.0000

> <Gold.PLP.part.buried>
-8.9221

> <Gold.PLP.part.nonpolar>
-31.4229

> <Gold.PLP.part.repulsive>
0.4184

> <Gold.PLP.ligand.clash>
0.0000

> <Gold.PLP.ligand.torsion>
0.8294

> <Gold.PLP.Chemscore.Hbond>
2.2800

> <Gold.PLP.Chemscore.CHOScore>
0.0000

> <Gold.PLP.Chemscore.Metal>
0.0000

> <Gold.Chemscore.Hbonds>
donor molecule, donor type, donor heavy atom, donor atom, acceptor molecule, acceptor atom, score
      L1  H    23    50       P1 10174  0.54
      P1  H  6933  6944       L1    17  0.72
      P1  H  7997  8008       L1     2  1.00

> <Gold.PLP.Chemscore.Internal.Correction>
0.1646

> <Gold.Rescore>
     Score         DG    S(hbond)    S(metal)    S(lipo)     H(rot)  DE(clash)    DE(int)     intcor
     13.99     -16.12       1.92        0.00      92.70       2.58       0.01       2.11       ----

> <Gold.Chemscore.Fitness>
13.9915

> <Gold.Chemscore.DG>
-16.1154

> <Gold.Chemscore.ZeroCoef>
-5.4800

> <Gold.Chemscore.Hbond>
1.9150

> <Gold.Chemscore.Metal>
0.0000

> <Gold.Chemscore.Lipo>
92.6963

> <Gold.Chemscore.Internal_Hbond>
0.0000

> <Gold.Chemscore.DEClash>
0.0095

> <Gold.Chemscore.DEInternal>
2.1144

> <Gold.Chemscore.Rot>
2.5806

> <Gold.Chemscore.Internal.Correction>
   9.000000E+99

> <Gold.Chemscore.Hbonds>
donor molecule, donor type, donor heavy atom, donor atom, acceptor molecule, acceptor atom, score
      L1  H    23    50       P1 10174  0.34
      P1  H  6933  6944       L1    17  0.53
      P1  H  7997  8008       L1     2  0.70

> <Gold.Chemscore.Hbond.Weighted>
-6.3962

> <Gold.Chemscore.Metal.Weighted>
-0.0000

> <Gold.Chemscore.Lipo.Weighted>
-10.8455

> <Gold.Chemscore.Internal_Hbond.Weighted>
0.0000

> <Gold.Chemscore.DEClash.Weighted>
0.0095

> <Gold.Chemscore.DEInternal.Weighted>
2.1144

> <Gold.Chemscore.Rot.Weighted>
6.6062

> <Gold.Chemscore.Internal.Correction.Weighted>
   9.000000E+99

> <Gold.Protein.RotatedTorsions>
[ 6907 6896 6895 6894 ] final   33.92 input  -60.11 | X-H torsion
[ 7974 7965 7964 7962 ] final  146.87 input  175.53 | X-H torsion
[ 8008 7997 7996 7995 ] final  -80.69 input   59.86 | X-H torsion
[ 10167 10162 10161 10158 ] final  -31.99 input  -65.29 | X-H torsion
[ 10718 10713 10712 10709 ] final -118.34 input   66.30 | X-H torsion
[ 10763 10752 10751 10750 ] final   94.39 input  -60.55 | X-H torsion
[ 11005 11000 10999 10996 ] final -155.63 input  -57.11 | X-H torsion

> <Gold.Protein.ActiveResidues>
 VAL166  LYS551  ARG553  GLY616  TRP617  ASP618  TYR619  PRO620  LYS621  CYS622 
 ASP623  PHE694  ASN695  SER759  ASP760  ASP761  ALA762  ILE779  LEU786  VAL792 
 PHE793  MET794  SER795  GLU796  ALA797  LYS798  CYS799  TRP800  GLU811  SER814 

> <Gold.Protein.RotatedAtoms>
  152.0952  134.9380  160.0570 H   0  0  0  0  0  0  0  0  0  0  0  0  # atno 6907 bound_to 6896
  152.0616  133.4060  159.4428 H   0  0  0  0  0  0  0  0  0  0  0  0  # atno 6908 bound_to 6896
  150.6838  134.3114  159.4791 H   0  0  0  0  0  0  0  0  0  0  0  0  # atno 6909 bound_to 6896
  144.8636  139.5958  143.5919 H   0  0  0  0  0  0  0  0  0  0  0  0  # atno 7974 bound_to 7965
  154.5908  140.0659  156.9236 H   0  0  0  0  0  0  0  0  0  0  0  0  # atno 8008 bound_to 7997
  155.2299  140.3336  155.4286 H   0  0  0  0  0  0  0  0  0  0  0  0  # atno 8009 bound_to 7997
  156.2254  140.1817  156.7359 H   0  0  0  0  0  0  0  0  0  0  0  0  # atno 8010 bound_to 7997
  140.7228  143.3729  151.1745 H   0  0  0  0  0  0  0  0  0  0  0  0  # atno 10167 bound_to 10162
  156.1099  130.6240  150.9279 H   0  0  0  0  0  0  0  0  0  0  0  0  # atno 10718 bound_to 10713
  153.2411  135.4291  155.0698 H   0  0  0  0  0  0  0  0  0  0  0  0  # atno 10763 bound_to 10752
  154.8341  135.3403  154.6648 H   0  0  0  0  0  0  0  0  0  0  0  0  # atno 10764 bound_to 10752
  153.7072  135.7025  153.5103 H   0  0  0  0  0  0  0  0  0  0  0  0  # atno 10765 bound_to 10752
  140.6843  134.4110  157.5224 H   0  0  0  0  0  0  0  0  0  0  0  0  # atno 11005 bound_to 11000
  146.2879  139.7056  142.9182 LP  0  0  0  0  0  0  0  0  0  0  0  0  # atno 17320 bound_to 7965
  145.4264  141.0411  143.2935 LP  0  0  0  0  0  0  0  0  0  0  0  0  # atno 17321 bound_to 7965
  139.7303  143.9083  152.3017 LP  0  0  0  0  0  0  0  0  0  0  0  0  # atno 17342 bound_to 10162
  139.8870  144.6987  150.8813 LP  0  0  0  0  0  0  0  0  0  0  0  0  # atno 17343 bound_to 10162
  157.6280  131.0924  150.8497 LP  0  0  0  0  0  0  0  0  0  0  0  0  # atno 17370 bound_to 10713
  156.8610  130.5113  149.5304 LP  0  0  0  0  0  0  0  0  0  0  0  0  # atno 17371 bound_to 10713
  139.8942  134.8712  156.2187 LP  0  0  0  0  0  0  0  0  0  0  0  0  # atno 17394 bound_to 11000
  141.0292  133.6998  156.1401 LP  0  0  0  0  0  0  0  0  0  0  0  0  # atno 17395 bound_to 11000

$$$$
