AV-unprocessed.smi:2128|AV-procd|sdf|8681|dock5
  -GOLD-   2272011433D 1   1.00000     0.00000
 Structure written by MMmdl.
 50 52  0  0  0  0  0  0  0  0  1 V2000
  153.6912  141.7851  160.5587 O   0  0  0  0  0  0  0  0  0  0  0  0
  152.8209  141.9913  159.7157 C   0  0  0  0  0  0  0  0  0  0  0  0
  152.2106  140.8019  158.9516 C   0  0  0  0  0  0  0  0  0  0  0  0
  151.2988  141.1482  157.8509 N   0  0  0  0  0  0  0  0  0  0  0  0
  150.9127  140.0962  156.9828 C   0  0  0  0  0  0  0  0  0  0  0  0
  150.9876  140.2424  155.5747 C   0  0  0  0  0  0  0  0  0  0  0  0
  150.5916  139.1767  154.7439 C   0  0  0  0  0  0  0  0  0  0  0  0
  150.1329  137.9786  155.3367 C   0  0  0  0  0  0  0  0  0  0  0  0
  149.6872  136.8428  154.6082 N   0  0  0  0  0  0  0  0  0  0  0  0
  149.2299  135.6725  155.0849 C   0  0  0  0  0  0  0  0  0  0  0  0
  149.1091  135.3897  156.2767 O   0  0  0  0  0  0  0  0  0  0  0  0
  148.8869  134.8452  154.0866 N   0  0  0  0  0  0  0  0  0  0  0  0
  148.2989  133.5174  154.2476 C   0  0  0  0  0  0  0  0  0  0  0  0
  148.2658  132.7346  152.9201 C   0  0  0  0  0  0  0  0  0  0  0  0
  146.9077  132.7362  152.2338 C   0  0  0  0  0  0  0  0  0  0  0  0
  146.2381  131.5949  151.9795 C   0  0  0  0  0  0  0  0  0  0  0  0
  144.8745  131.5349  151.3148 C   0  0  0  0  0  0  0  0  0  0  0  0
  144.1769  132.9050  151.2848 C   0  0  0  0  0  0  0  0  0  0  0  0
  145.1561  134.0167  150.8885 C   0  0  0  0  0  0  0  0  0  0  0  0
  146.3363  134.1030  151.8727 C   0  0  0  0  0  0  0  0  0  0  0  0
  150.0800  137.9274  156.7426 C   0  0  0  0  0  0  0  0  0  0  0  0
  150.4609  138.9456  157.5413 N   0  0  0  0  0  0  0  0  0  0  0  0
  151.2990  142.5201  157.3346 C   0  0  0  0  0  0  0  0  0  0  0  0
  151.3410  143.5404  158.4804 C   0  0  0  0  0  0  0  0  0  0  0  0
  152.3968  143.2330  159.4350 N   0  0  0  0  0  0  0  0  0  0  0  0
  153.0268  140.1862  158.5701 H   0  0  0  0  0  0  0  0  0  0  0  0
  151.6702  140.2070  159.6881 H   0  0  0  0  0  0  0  0  0  0  0  0
  151.3442  141.1499  155.1121 H   0  0  0  0  0  0  0  0  0  0  0  0
  150.6360  139.3065  153.6738 H   0  0  0  0  0  0  0  0  0  0  0  0
  149.6486  136.9595  153.6062 H   0  0  0  0  0  0  0  0  0  0  0  0
  149.0213  135.1670  153.1391 H   0  0  0  0  0  0  0  0  0  0  0  0
  148.9061  132.9714  154.9697 H   0  0  0  0  0  0  0  0  0  0  0  0
  147.3022  133.5799  154.6865 H   0  0  0  0  0  0  0  0  0  0  0  0
  149.0101  133.1546  152.2420 H   0  0  0  0  0  0  0  0  0  0  0  0
  148.5655  131.7004  153.0924 H   0  0  0  0  0  0  0  0  0  0  0  0
  146.6813  130.6439  152.2370 H   0  0  0  0  0  0  0  0  0  0  0  0
  145.0127  131.1606  150.3001 H   0  0  0  0  0  0  0  0  0  0  0  0
  144.2494  130.8115  151.8387 H   0  0  0  0  0  0  0  0  0  0  0  0
  143.3320  132.8786  150.5960 H   0  0  0  0  0  0  0  0  0  0  0  0
  143.7652  133.1260  152.2704 H   0  0  0  0  0  0  0  0  0  0  0  0
  145.5354  133.8187  149.8848 H   0  0  0  0  0  0  0  0  0  0  0  0
  144.6414  134.9765  150.8396 H   0  0  0  0  0  0  0  0  0  0  0  0
  146.0171  134.5876  152.7959 H   0  0  0  0  0  0  0  0  0  0  0  0
  147.1132  134.7336  151.4415 H   0  0  0  0  0  0  0  0  0  0  0  0
  149.7255  137.0400  157.2465 H   0  0  0  0  0  0  0  0  0  0  0  0
  152.1631  142.6525  156.6814 H   0  0  0  0  0  0  0  0  0  0  0  0
  150.4077  142.7181  156.7375 H   0  0  0  0  0  0  0  0  0  0  0  0
  151.4892  144.5469  158.0884 H   0  0  0  0  0  0  0  0  0  0  0  0
  150.3892  143.5434  159.0135 H   0  0  0  0  0  0  0  0  0  0  0  0
  152.8130  144.0065  159.9331 H   0  0  0  0  0  0  0  0  0  0  0  0
  1  2  2  0  0  0  0
  2 25  1  0  0  0  0
  2  3  1  0  0  0  0
  3  4  1  0  0  0  0
  3 26  1  0  0  0  0
  3 27  1  0  0  0  0
  4  5  1  0  0  0  0
  4 23  1  0  0  0  0
  5 22  1  0  0  0  0
  5  6  2  0  0  0  0
  6  7  1  0  0  0  0
  6 28  1  0  0  0  0
  7  8  2  0  0  0  0
  7 29  1  0  0  0  0
  8  9  1  0  0  0  0
  8 21  1  0  0  0  0
  9 10  1  0  0  0  0
  9 30  1  0  0  0  0
 10 11  2  0  0  0  0
 10 12  1  0  0  0  0
 12 13  1  0  0  0  0
 12 31  1  0  0  0  0
 13 14  1  0  0  0  0
 13 32  1  0  0  0  0
 13 33  1  0  0  0  0
 14 15  1  0  0  0  0
 14 34  1  0  0  0  0
 14 35  1  0  0  0  0
 15 20  1  0  0  0  0
 15 16  2  0  0  0  0
 16 17  1  0  0  0  0
 16 36  1  0  0  0  0
 17 18  1  0  0  0  0
 17 37  1  0  0  0  0
 17 38  1  0  0  0  0
 18 19  1  0  0  0  0
 18 39  1  0  0  0  0
 18 40  1  0  0  0  0
 19 20  1  0  0  0  0
 19 41  1  0  0  0  0
 19 42  1  0  0  0  0
 20 43  1  0  0  0  0
 20 44  1  0  0  0  0
 21 22  2  0  0  0  0
 21 45  1  0  0  0  0
 23 24  1  0  0  0  0
 23 46  1  0  0  0  0
 23 47  1  0  0  0  0
 24 25  1  0  0  0  0
 24 48  1  0  0  0  0
 24 49  1  0  0  0  0
 25 50  1  0  0  0  0
M  END
> <s_m_source_file>
AV-unprocessed.smi

> <i_m_source_file_index>
2128

> <i_lp_mmshare_version>
43012

> <i_f3d_flags>
0

> <s_epik_input>
Tz1DMVtDSDJdTihbQ0gyXVtDSDJdW05IXTEpYzJbY0hdW2NIXWMoW2NIXW4yKVtOSF1DKD1PKVtOSF1bQ0gyXVtDSDJdQzM9W0NIXVtDSDJdW0NIMl1bQ0gyXVtDSDJdMw==

> <s_epik_cmdline>
J2VwaWtfcHl0aG9uJywgJy1waCcsICc3LjAnLCAnLXRuJywgJzgnLCAnLW1hJywgJzIwMCcsICctbWV0YWxfYmluZGluZycsICctaW1hZScsICc8aW5maWxlLm1hZT4nLCAnLW9tYWUnLCAnPG91dGZpbGUubWFlPic=

> <r_lp_tautomer_probability>
1

> <r_epik_Ionization_Penalty>
0.0211825

> <r_epik_Ionization_Penalty_Charging>
0

> <r_epik_Ionization_Penalty_Neutral>
0.0211825

> <r_epik_State_Penalty>
0.0169697

> <r_epik_Charging_Adjusted_Penalty>
0.0169697

> <i_epik_Tot_Q>
0

> <i_epik_Tot_abs_Q>
0

> <r_epik_Metal_State_Penalty>
0.0163833

> <b_epik_Metal_Only>
0

> <s_lp_Force_Field>
OPLS_2005

> <r_lp_Energy>
24.085

> <b_lp_Chiralities_Consistent>
1

> <s_lp_Variant>
AV-unprocessed.smi:2128-1

> <Gold.Version>
5.8.1

> <Gold.Id.Protein>
6NUR|6NUR_protein|mol2

> <Gold.PLP.Fitness>
48.3174

> <Gold.PLP.PLP>
-44.0615

> <Gold.PLP.part.hbond>
-2.0000

> <Gold.PLP.part.metal>
0.0000

> <Gold.PLP.part.buried>
-6.9887

> <Gold.PLP.part.nonpolar>
-35.3070

> <Gold.PLP.part.repulsive>
0.0837

> <Gold.PLP.ligand.clash>
0.0000

> <Gold.PLP.ligand.torsion>
0.8805

> <Gold.PLP.Chemscore.Hbond>
1.9440

> <Gold.PLP.Chemscore.CHOScore>
0.0000

> <Gold.PLP.Chemscore.Metal>
0.0000

> <Gold.Chemscore.Hbonds>
donor molecule, donor type, donor heavy atom, donor atom, acceptor molecule, acceptor atom, score
      L1  H     9    30       P1  7948  0.94
      L1  H    12    31       P1  7948  1.00

> <Gold.PLP.Chemscore.Internal.Correction>
0.1849

> <Gold.Rescore>
     Score         DG    S(hbond)    S(metal)    S(lipo)     H(rot)  DE(clash)    DE(int)     intcor
     16.93     -19.25       1.83        0.00      96.20       1.41       0.02       2.29       ----

> <Gold.Chemscore.Fitness>
16.9338

> <Gold.Chemscore.DG>
-19.2488

> <Gold.Chemscore.ZeroCoef>
-5.4800

> <Gold.Chemscore.Hbond>
1.8322

> <Gold.Chemscore.Metal>
0.0000

> <Gold.Chemscore.Lipo>
96.2008

> <Gold.Chemscore.Internal_Hbond>
0.0000

> <Gold.Chemscore.DEClash>
0.0232

> <Gold.Chemscore.DEInternal>
2.2918

> <Gold.Chemscore.Rot>
1.4087

> <Gold.Chemscore.Internal.Correction>
   9.000000E+99

> <Gold.Chemscore.Hbonds>
donor molecule, donor type, donor heavy atom, donor atom, acceptor molecule, acceptor atom, score
      L1  H     9    30       P1  7948  0.66
      L1  H    12    31       P1  7948  0.25

> <Gold.Chemscore.Hbond.Weighted>
-6.1195

> <Gold.Chemscore.Metal.Weighted>
-0.0000

> <Gold.Chemscore.Lipo.Weighted>
-11.2555

> <Gold.Chemscore.Internal_Hbond.Weighted>
0.0000

> <Gold.Chemscore.DEClash.Weighted>
0.0232

> <Gold.Chemscore.DEInternal.Weighted>
2.2918

> <Gold.Chemscore.Rot.Weighted>
3.6061

> <Gold.Chemscore.Internal.Correction.Weighted>
   9.000000E+99

> <Gold.Protein.RotatedTorsions>
[ 6907 6896 6895 6894 ] final  -79.69 input  -60.11 | X-H torsion
[ 7974 7965 7964 7962 ] final   38.75 input  175.53 | X-H torsion
[ 8008 7997 7996 7995 ] final -155.72 input   59.86 | X-H torsion
[ 10167 10162 10161 10158 ] final   38.28 input  -65.29 | X-H torsion
[ 10718 10713 10712 10709 ] final   57.83 input   66.30 | X-H torsion
[ 10763 10752 10751 10750 ] final  -44.04 input  -60.55 | X-H torsion
[ 11005 11000 10999 10996 ] final  -46.30 input  -57.11 | X-H torsion

> <Gold.Protein.ActiveResidues>
 VAL166  LYS551  ARG553  GLY616  TRP617  ASP618  TYR619  PRO620  LYS621  CYS622 
 ASP623  PHE694  ASN695  SER759  ASP760  ASP761  ALA762  ILE779  LEU786  VAL792 
 PHE793  MET794  SER795  GLU796  ALA797  LYS798  CYS799  TRP800  GLU811  SER814 

> <Gold.Protein.RotatedAtoms>
  150.6944  134.4083  159.5150 H   0  0  0  0  0  0  0  0  0  0  0  0  # atno 6907 bound_to 6896
  152.1846  134.8722  160.0532 H   0  0  0  0  0  0  0  0  0  0  0  0  # atno 6908 bound_to 6896
  151.9700  133.3688  159.4104 H   0  0  0  0  0  0  0  0  0  0  0  0  # atno 6909 bound_to 6896
  146.1038  139.5734  142.9397 H   0  0  0  0  0  0  0  0  0  0  0  0  # atno 7974 bound_to 7965
  155.7061  140.0772  157.2390 H   0  0  0  0  0  0  0  0  0  0  0  0  # atno 8008 bound_to 7997
  154.4065  140.1638  156.2298 H   0  0  0  0  0  0  0  0  0  0  0  0  # atno 8009 bound_to 7997
  155.9324  140.3390  155.6263 H   0  0  0  0  0  0  0  0  0  0  0  0  # atno 8010 bound_to 7997
  140.3952  144.1798  150.6132 H   0  0  0  0  0  0  0  0  0  0  0  0  # atno 10167 bound_to 10162
  157.5546  130.8791  149.9016 H   0  0  0  0  0  0  0  0  0  0  0  0  # atno 10718 bound_to 10713
  154.0055  135.6688  153.4762 H   0  0  0  0  0  0  0  0  0  0  0  0  # atno 10763 bound_to 10752
  153.0644  135.5009  154.8162 H   0  0  0  0  0  0  0  0  0  0  0  0  # atno 10764 bound_to 10752
  154.7027  135.3082  154.9280 H   0  0  0  0  0  0  0  0  0  0  0  0  # atno 10765 bound_to 10752
  141.0570  133.6722  156.3135 H   0  0  0  0  0  0  0  0  0  0  0  0  # atno 11005 bound_to 11000
  145.5802  141.0383  143.2126 LP  0  0  0  0  0  0  0  0  0  0  0  0  # atno 17320 bound_to 7965
  144.7454  139.7335  143.7294 LP  0  0  0  0  0  0  0  0  0  0  0  0  # atno 17321 bound_to 7965
  140.4798  143.2383  151.8972 LP  0  0  0  0  0  0  0  0  0  0  0  0  # atno 17342 bound_to 10162
  139.4787  144.5282  151.8705 LP  0  0  0  0  0  0  0  0  0  0  0  0  # atno 17343 bound_to 10162
  156.0607  130.3700  150.0988 LP  0  0  0  0  0  0  0  0  0  0  0  0  # atno 17370 bound_to 10713
  156.9158  130.9667  151.3556 LP  0  0  0  0  0  0  0  0  0  0  0  0  # atno 17371 bound_to 10713
  140.5944  134.5618  157.5506 LP  0  0  0  0  0  0  0  0  0  0  0  0  # atno 17394 bound_to 11000
  139.9399  134.7807  156.0706 LP  0  0  0  0  0  0  0  0  0  0  0  0  # atno 17395 bound_to 11000

$$$$
