AV-unprocessed.smi:895|AV-procd|sdf|4076|dock6
  -GOLD-   22720 1563D 1   1.00000     0.00000
 Structure written by MMmdl.
 44 45  0  0  0  0  0  0  0  0  1 V2000
  146.5463  139.3000  154.8367 C   0  0  0  0  0  0  0  0  0  0  0  0
  147.1943  139.7895  153.5268 C   0  0  0  0  0  0  0  0  0  0  0  0
  147.0928  141.3202  153.4177 C   0  0  0  0  0  0  0  0  0  0  0  0
  148.5763  139.4943  153.5777 O   0  0  0  0  0  0  0  0  0  0  0  0
  146.6003  139.1292  152.2584 C   0  0  0  0  0  0  0  0  0  0  0  0
  146.8551  137.6934  152.1844 N   0  0  0  0  0  0  0  0  0  0  0  0
  145.9112  136.7430  152.1950 C   0  0  0  0  0  0  0  0  0  0  0  0
  144.7066  136.9688  152.3096 O   0  0  0  0  0  0  0  0  0  0  0  0
  146.4439  135.5203  152.0633 N   0  0  0  0  0  0  0  0  0  0  0  0
  145.6999  134.2612  152.0504 C   0  0  1  0  0  0  0  0  0  0  0  0
  144.6590  134.3084  150.9147 C   0  0  0  0  0  0  0  0  0  0  0  0
  143.9029  132.9781  150.7800 C   0  0  0  0  0  0  0  0  0  0  0  0
  144.8754  131.8077  150.5759 C   0  0  0  0  0  0  0  0  0  0  0  0
  145.8978  131.7380  151.7195 C   0  0  0  0  0  0  0  0  0  0  0  0
  146.6702  133.0656  151.8694 C   0  0  2  0  0  0  0  0  0  0  0  0
  147.6456  132.9817  152.9497 N   0  0  0  0  0  0  0  0  0  0  0  0
  148.5710  131.9855  153.1819 C   0  0  0  0  0  0  0  0  0  0  0  0
  149.2765  132.3337  154.2978 C   0  0  0  0  0  0  0  0  0  0  0  0
  148.7032  133.5767  154.6850 C   0  0  0  0  0  0  0  0  0  0  0  0
  147.7265  133.9602  153.8799 N   0  0  0  0  0  0  0  0  0  0  0  0
  145.4698  139.4728  154.8305 H   0  0  0  0  0  0  0  0  0  0  0  0
  146.9581  139.8232  155.7004 H   0  0  0  0  0  0  0  0  0  0  0  0
  146.7105  138.2345  155.0003 H   0  0  0  0  0  0  0  0  0  0  0  0
  146.0519  141.6434  153.3804 H   0  0  0  0  0  0  0  0  0  0  0  0
  147.5836  141.6895  152.5164 H   0  0  0  0  0  0  0  0  0  0  0  0
  147.5586  141.8138  154.2717 H   0  0  0  0  0  0  0  0  0  0  0  0
  148.9089  139.4558  152.6937 H   0  0  0  0  0  0  0  0  0  0  0  0
  145.5158  139.2425  152.2718 H   0  0  0  0  0  0  0  0  0  0  0  0
  146.9392  139.6395  151.3545 H   0  0  0  0  0  0  0  0  0  0  0  0
  147.8182  137.4073  152.0880 H   0  0  0  0  0  0  0  0  0  0  0  0
  147.4466  135.4517  151.9716 H   0  0  0  0  0  0  0  0  0  0  0  0
  145.1575  134.1293  152.9886 H   0  0  0  0  0  0  0  0  0  0  0  0
  143.9486  135.1164  151.0942 H   0  0  0  0  0  0  0  0  0  0  0  0
  145.1527  134.5368  149.9688 H   0  0  0  0  0  0  0  0  0  0  0  0
  143.3040  132.8052  151.6751 H   0  0  0  0  0  0  0  0  0  0  0  0
  143.2040  133.0309  149.9450 H   0  0  0  0  0  0  0  0  0  0  0  0
  144.3222  130.8702  150.5142 H   0  0  0  0  0  0  0  0  0  0  0  0
  145.3956  131.9244  149.6244 H   0  0  0  0  0  0  0  0  0  0  0  0
  145.3781  131.4993  152.6484 H   0  0  0  0  0  0  0  0  0  0  0  0
  146.5955  130.9199  151.5381 H   0  0  0  0  0  0  0  0  0  0  0  0
  147.2311  133.2239  150.9465 H   0  0  0  0  0  0  0  0  0  0  0  0
  148.6515  131.1219  152.5385 H   0  0  0  0  0  0  0  0  0  0  0  0
  150.0803  131.7847  154.7651 H   0  0  0  0  0  0  0  0  0  0  0  0
  148.9653  134.2071  155.5218 H   0  0  0  0  0  0  0  0  0  0  0  0
  1  2  1  0  0  0  0
  1 21  1  0  0  0  0
  1 22  1  0  0  0  0
  1 23  1  0  0  0  0
  2  3  1  0  0  0  0
  2  4  1  0  0  0  0
  2  5  1  0  0  0  0
  3 24  1  0  0  0  0
  3 25  1  0  0  0  0
  3 26  1  0  0  0  0
  4 27  1  0  0  0  0
  5  6  1  0  0  0  0
  5 28  1  0  0  0  0
  5 29  1  0  0  0  0
  6  7  1  0  0  0  0
  6 30  1  0  0  0  0
  7  8  2  0  0  0  0
  7  9  1  0  0  0  0
  9 10  1  0  0  0  0
  9 31  1  0  0  0  0
 10 15  1  0  0  0  0
 10 11  1  0  0  0  0
 10 32  1  0  0  0  0
 11 12  1  0  0  0  0
 11 33  1  0  0  0  0
 11 34  1  0  0  0  0
 12 13  1  0  0  0  0
 12 35  1  0  0  0  0
 12 36  1  0  0  0  0
 13 14  1  0  0  0  0
 13 37  1  0  0  0  0
 13 38  1  0  0  0  0
 14 15  1  0  0  0  0
 14 39  1  0  0  0  0
 14 40  1  0  0  0  0
 15 16  1  0  0  0  0
 15 41  1  0  0  0  0
 16 20  1  0  0  0  0
 16 17  1  0  0  0  0
 17 18  2  0  0  0  0
 17 42  1  0  0  0  0
 18 19  1  0  0  0  0
 18 43  1  0  0  0  0
 19 20  2  0  0  0  0
 19 44  1  0  0  0  0
M  END
> <s_m_source_file>
AV-unprocessed.smi

> <i_m_source_file_index>
895

> <i_lp_mmshare_version>
43012

> <i_f3d_flags>
0

> <s_epik_input>
W0NIM11DKFtDSDNdKShbT0hdKVtDSDJdW05IXUMoPU8pW05IXVtDQEBIXTFbQ0gyXVtDSDJdW0NIMl1bQ0gyXVtDQEhdMW4yW2NIXVtjSF1bY0hdbjI=

> <s_epik_cmdline>
J2VwaWtfcHl0aG9uJywgJy1waCcsICc3LjAnLCAnLXRuJywgJzgnLCAnLW1hJywgJzIwMCcsICctbWV0YWxfYmluZGluZycsICctaW1hZScsICc8aW5maWxlLm1hZT4nLCAnLW9tYWUnLCAnPG91dGZpbGUubWFlPic=

> <r_lp_tautomer_probability>
1

> <r_epik_Ionization_Penalty>
0.000440451

> <r_epik_Ionization_Penalty_Charging>
0

> <r_epik_Ionization_Penalty_Neutral>
0.000440451

> <r_epik_State_Penalty>
-0

> <r_epik_Charging_Adjusted_Penalty>
0

> <i_epik_Tot_Q>
0

> <i_epik_Tot_abs_Q>
0

> <r_epik_Metal_State_Penalty>
-0

> <b_epik_Metal_Only>
0

> <s_lp_Force_Field>
OPLS_2005

> <r_lp_Energy>
11.0588

> <b_lp_Chiralities_Consistent>
1

> <s_lp_Variant>
AV-unprocessed.smi:895-4

> <Gold.Version>
5.8.1

> <Gold.Id.Protein>
6NUR|6NUR_protein|mol2

> <Gold.PLP.Fitness>
48.8232

> <Gold.PLP.PLP>
-37.2030

> <Gold.PLP.part.hbond>
-3.0000

> <Gold.PLP.part.metal>
0.0000

> <Gold.PLP.part.buried>
-4.6190

> <Gold.PLP.part.nonpolar>
-31.0192

> <Gold.PLP.part.repulsive>
0.7623

> <Gold.PLP.ligand.clash>
0.0000

> <Gold.PLP.ligand.torsion>
0.2153

> <Gold.PLP.Chemscore.Hbond>
3.0000

> <Gold.PLP.Chemscore.CHOScore>
1.0000

> <Gold.PLP.Chemscore.Metal>
0.0000

> <Gold.Chemscore.Hbonds>
donor molecule, donor type, donor heavy atom, donor atom, acceptor molecule, acceptor atom, score
      L1  H     4    27       P1  7957  1.00
      L1  H     6    30       P1  7948  1.00
      L1  H     9    31       P1  7948  0.99
      L1  C    17    42       P1 10747  1.00

> <Gold.PLP.Chemscore.Internal.Correction>
0.0509

> <Gold.Rescore>
     Score         DG    S(hbond)    S(metal)    S(lipo)     H(rot)  DE(clash)    DE(int)     intcor
     17.41     -19.10       2.92        0.00      81.05       2.19       0.22       1.48       ----

> <Gold.Chemscore.Fitness>
17.4052

> <Gold.Chemscore.DG>
-19.1024

> <Gold.Chemscore.ZeroCoef>
-5.4800

> <Gold.Chemscore.Hbond>
2.9194

> <Gold.Chemscore.Metal>
0.0000

> <Gold.Chemscore.Lipo>
81.0503

> <Gold.Chemscore.Internal_Hbond>
0.0000

> <Gold.Chemscore.DEClash>
0.2155

> <Gold.Chemscore.DEInternal>
1.4817

> <Gold.Chemscore.Rot>
2.1919

> <Gold.Chemscore.Internal.Correction>
   9.000000E+99

> <Gold.Chemscore.Hbonds>
donor molecule, donor type, donor heavy atom, donor atom, acceptor molecule, acceptor atom, score
      L1  H     4    27       P1  7957  0.99
      L1  H     6    30       P1  7948  0.95
      L1  H     9    31       P1  7948  0.94

> <Gold.Chemscore.Hbond.Weighted>
-9.7508

> <Gold.Chemscore.Metal.Weighted>
-0.0000

> <Gold.Chemscore.Lipo.Weighted>
-9.4829

> <Gold.Chemscore.Internal_Hbond.Weighted>
0.0000

> <Gold.Chemscore.DEClash.Weighted>
0.2155

> <Gold.Chemscore.DEInternal.Weighted>
1.4817

> <Gold.Chemscore.Rot.Weighted>
5.6113

> <Gold.Chemscore.Internal.Correction.Weighted>
   9.000000E+99

> <Gold.Protein.RotatedTorsions>
[ 6907 6896 6895 6894 ] final   13.42 input  -60.11 | X-H torsion
[ 7974 7965 7964 7962 ] final  122.85 input  175.53 | X-H torsion
[ 8008 7997 7996 7995 ] final  -95.94 input   59.86 | X-H torsion
[ 10167 10162 10161 10158 ] final  141.34 input  -65.29 | X-H torsion
[ 10718 10713 10712 10709 ] final  -50.33 input   66.30 | X-H torsion
[ 10763 10752 10751 10750 ] final  128.33 input  -60.55 | X-H torsion
[ 11005 11000 10999 10996 ] final  179.43 input  -57.11 | X-H torsion

> <Gold.Protein.ActiveResidues>
 VAL166  LYS551  ARG553  GLY616  TRP617  ASP618  TYR619  PRO620  LYS621  CYS622 
 ASP623  PHE694  ASN695  SER759  ASP760  ASP761  ALA762  ILE779  LEU786  VAL792 
 PHE793  MET794  SER795  GLU796  ALA797  LYS798  CYS799  TRP800  GLU811  SER814 

> <Gold.Protein.RotatedAtoms>
  151.7860  135.0749  160.0380 H   0  0  0  0  0  0  0  0  0  0  0  0  # atno 6907 bound_to 6896
  152.3190  133.5829  159.5740 H   0  0  0  0  0  0  0  0  0  0  0  0  # atno 6908 bound_to 6896
  150.7359  133.9956  159.3663 H   0  0  0  0  0  0  0  0  0  0  0  0  # atno 6909 bound_to 6896
  145.1027  139.3507  143.4803 H   0  0  0  0  0  0  0  0  0  0  0  0  # atno 7974 bound_to 7965
  154.7679  140.0475  157.1027 H   0  0  0  0  0  0  0  0  0  0  0  0  # atno 8008 bound_to 7997
  154.9856  140.3107  155.4908 H   0  0  0  0  0  0  0  0  0  0  0  0  # atno 8009 bound_to 7997
  156.2916  140.2228  156.4958 H   0  0  0  0  0  0  0  0  0  0  0  0  # atno 8010 bound_to 7997
  139.5023  144.6178  151.6124 H   0  0  0  0  0  0  0  0  0  0  0  0  # atno 10167 bound_to 10162
  156.1811  130.4150  149.9506 H   0  0  0  0  0  0  0  0  0  0  0  0  # atno 10718 bound_to 10713
  153.7238  135.3249  155.3272 H   0  0  0  0  0  0  0  0  0  0  0  0  # atno 10763 bound_to 10752
  154.8348  135.4506  154.1191 H   0  0  0  0  0  0  0  0  0  0  0  0  # atno 10764 bound_to 10752
  153.2319  135.6961  153.7961 H   0  0  0  0  0  0  0  0  0  0  0  0  # atno 10765 bound_to 10752
  140.4061  134.6733  157.4589 H   0  0  0  0  0  0  0  0  0  0  0  0  # atno 11005 bound_to 11000
  146.3529  140.0912  142.8612 LP  0  0  0  0  0  0  0  0  0  0  0  0  # atno 17320 bound_to 7965
  145.0937  140.9301  143.4754 LP  0  0  0  0  0  0  0  0  0  0  0  0  # atno 17321 bound_to 7965
  140.5871  143.9845  150.6302 LP  0  0  0  0  0  0  0  0  0  0  0  0  # atno 17342 bound_to 10162
  140.3014  143.3258  152.0968 LP  0  0  0  0  0  0  0  0  0  0  0  0  # atno 17343 bound_to 10162
  156.7276  130.9031  151.3623 LP  0  0  0  0  0  0  0  0  0  0  0  0  # atno 17370 bound_to 10713
  157.6868  130.9194  150.0409 LP  0  0  0  0  0  0  0  0  0  0  0  0  # atno 17371 bound_to 10713
  140.0301  134.6419  155.9119 LP  0  0  0  0  0  0  0  0  0  0  0  0  # atno 17394 bound_to 11000
  141.1838  133.6551  156.5133 LP  0  0  0  0  0  0  0  0  0  0  0  0  # atno 17395 bound_to 11000

$$$$
