AV-unprocessed.smi:677|AV-procd|sdf|3312|dock7
  -GOLD-   22720 0273D 1   1.00000     0.00000
 Structure written by MMmdl.
 44 45  0  0  0  0  0  0  0  0  2 V2000
  150.7661  145.1563  160.3281 C   0  0  0  0  0  0  0  0  0  0  0  0
  151.7180  144.0082  160.5890 C   0  0  0  0  0  0  0  0  0  0  0  0
  152.1753  143.6850  161.8846 C   0  0  0  0  0  0  0  0  0  0  0  0
  153.0621  142.6011  162.0516 C   0  0  0  0  0  0  0  0  0  0  0  0
  153.4743  141.8619  160.9205 C   0  0  0  0  0  0  0  0  0  0  0  0
  154.4348  140.6955  161.0654 C   0  0  0  0  0  0  0  0  0  0  0  0
  154.7012  140.0649  159.6987 C   0  0  0  0  0  0  0  0  0  0  0  0
  155.7201  140.3624  159.0754 O   0  0  0  0  0  0  0  0  0  0  0  0
  153.7922  139.1810  159.2585 N   0  0  0  0  0  0  0  0  0  0  0  0
  153.8723  138.4375  158.0047 C   0  0  0  0  0  0  0  0  0  0  0  0
  152.5289  138.4231  157.2463 C   0  0  0  0  0  0  0  0  0  0  0  0
  152.6343  137.8428  155.8223 C   0  0  0  0  0  0  0  0  0  0  0  0
  151.2894  137.9341  155.0794 C   0  0  0  0  0  0  0  0  0  0  0  0
  150.8374  139.3235  155.0061 N   0  0  0  0  0  0  0  0  0  0  0  0
  149.5965  139.3743  154.2399 C   0  0  0  0  0  0  0  0  0  0  0  0
  148.9667  140.7053  154.2688 C   0  0  0  0  0  0  0  0  0  0  0  0
  148.4720  141.7511  154.2922 N   0  0  0  0  0  0  0  0  0  0  0  0
  150.6168  139.8415  156.3582 C   0  0  0  0  0  0  0  0  0  0  0  0
  151.9358  139.8385  157.1497 C   0  0  0  0  0  0  0  0  0  0  0  0
  152.9836  142.2318  159.6494 C   0  0  0  0  0  0  0  0  0  0  0  0
  152.1360  143.2769  159.5316 N   0  3  0  0  0  0  0  0  0  0  0  0
  150.5010  145.6661  161.2547 H   0  0  0  0  0  0  0  0  0  0  0  0
  149.8485  144.7914  159.8656 H   0  0  0  0  0  0  0  0  0  0  0  0
  151.2245  145.8842  159.6580 H   0  0  0  0  0  0  0  0  0  0  0  0
  151.8533  144.2590  162.7413 H   0  0  0  0  0  0  0  0  0  0  0  0
  153.4233  142.3437  163.0368 H   0  0  0  0  0  0  0  0  0  0  0  0
  155.3659  141.0341  161.5232 H   0  0  0  0  0  0  0  0  0  0  0  0
  154.0098  139.9443  161.7323 H   0  0  0  0  0  0  0  0  0  0  0  0
  152.9849  139.0032  159.8386 H   0  0  0  0  0  0  0  0  0  0  0  0
  154.6326  138.9201  157.3899 H   0  0  0  0  0  0  0  0  0  0  0  0
  154.2253  137.4185  158.1731 H   0  0  0  0  0  0  0  0  0  0  0  0
  151.8289  137.8057  157.8116 H   0  0  0  0  0  0  0  0  0  0  0  0
  153.4012  138.3757  155.2584 H   0  0  0  0  0  0  0  0  0  0  0  0
  152.9470  136.7991  155.8587 H   0  0  0  0  0  0  0  0  0  0  0  0
  151.4071  137.5385  154.0701 H   0  0  0  0  0  0  0  0  0  0  0  0
  150.5368  137.3208  155.5775 H   0  0  0  0  0  0  0  0  0  0  0  0
  149.7974  139.1445  153.1929 H   0  0  0  0  0  0  0  0  0  0  0  0
  148.8790  138.6384  154.6058 H   0  0  0  0  0  0  0  0  0  0  0  0
  150.2350  140.8613  156.3074 H   0  0  0  0  0  0  0  0  0  0  0  0
  149.8626  139.2435  156.8723 H   0  0  0  0  0  0  0  0  0  0  0  0
  151.7618  140.2386  158.1491 H   0  0  0  0  0  0  0  0  0  0  0  0
  152.6492  140.5099  156.6690 H   0  0  0  0  0  0  0  0  0  0  0  0
  153.2465  141.7308  158.7289 H   0  0  0  0  0  0  0  0  0  0  0  0
  151.7976  143.5266  158.6021 H   0  0  0  0  0  0  0  0  0  0  0  0
  1  2  1  0  0  0  0
  1 22  1  0  0  0  0
  1 23  1  0  0  0  0
  1 24  1  0  0  0  0
  2 21  1  0  0  0  0
  2  3  2  0  0  0  0
  3  4  1  0  0  0  0
  3 25  1  0  0  0  0
  4  5  2  0  0  0  0
  4 26  1  0  0  0  0
  5  6  1  0  0  0  0
  5 20  1  0  0  0  0
  6  7  1  0  0  0  0
  6 27  1  0  0  0  0
  6 28  1  0  0  0  0
  7  8  2  0  0  0  0
  7  9  1  0  0  0  0
  9 10  1  0  0  0  0
  9 29  1  0  0  0  0
 10 11  1  0  0  0  0
 10 30  1  0  0  0  0
 10 31  1  0  0  0  0
 11 19  1  0  0  0  0
 11 12  1  0  0  0  0
 11 32  1  0  0  0  0
 12 13  1  0  0  0  0
 12 33  1  0  0  0  0
 12 34  1  0  0  0  0
 13 14  1  0  0  0  0
 13 35  1  0  0  0  0
 13 36  1  0  0  0  0
 14 15  1  0  0  0  0
 14 18  1  0  0  0  0
 15 16  1  0  0  0  0
 15 37  1  0  0  0  0
 15 38  1  0  0  0  0
 16 17  3  0  0  0  0
 18 19  1  0  0  0  0
 18 39  1  0  0  0  0
 18 40  1  0  0  0  0
 19 41  1  0  0  0  0
 19 42  1  0  0  0  0
 20 21  2  0  0  0  0
 20 43  1  0  0  0  0
 21 44  1  0  0  0  0
M  CHG  1  21   1
M  END
> <s_m_source_file>
AV-unprocessed.smi

> <i_m_source_file_index>
677

> <i_lp_mmshare_version>
43012

> <i_f3d_flags>
0

> <s_epik_input>
W0NIM11jMVtjSF1bY0hdYyhbY0hdbjEpW0NIMl1DKD1PKVtOSF1bQ0gyXVtDSF0yW0NIMl1bQ0gyXU4oW0NIMl1DI04pW0NIMl1bQ0gyXTI=

> <s_epik_cmdline>
J2VwaWtfcHl0aG9uJywgJy1waCcsICc3LjAnLCAnLXRuJywgJzgnLCAnLW1hJywgJzIwMCcsICctbWV0YWxfYmluZGluZycsICctaW1hZScsICc8aW5maWxlLm1hZT4nLCAnLW9tYWUnLCAnPG91dGZpbGUubWFlPic=

> <r_epik_Ionization_Penalty>
2.12868

> <r_epik_Ionization_Penalty_Charging>
2.12771

> <r_epik_Ionization_Penalty_Neutral>
0.000970756

> <r_epik_State_Penalty>
2.26584

> <r_epik_Charging_Adjusted_Penalty>
4.39355

> <i_epik_Tot_Q>
1

> <i_epik_Tot_abs_Q>
1

> <r_epik_Metal_State_Penalty>
2.28211

> <b_epik_Metal_Only>
0

> <s_lp_Force_Field>
OPLS_2005

> <r_lp_Energy>
22.0212

> <b_lp_Chiralities_Consistent>
1

> <s_lp_Variant>
AV-unprocessed.smi:677-2

> <Gold.Version>
5.8.1

> <Gold.Id.Protein>
6NUR|6NUR_protein|mol2

> <Gold.PLP.Fitness>
46.9524

> <Gold.PLP.PLP>
-43.8766

> <Gold.PLP.part.hbond>
-2.0443

> <Gold.PLP.part.metal>
0.0000

> <Gold.PLP.part.buried>
-3.9119

> <Gold.PLP.part.nonpolar>
-37.3278

> <Gold.PLP.part.repulsive>
0.4514

> <Gold.PLP.ligand.clash>
0.0000

> <Gold.PLP.ligand.torsion>
0.5006

> <Gold.PLP.Chemscore.Hbond>
1.3536

> <Gold.PLP.Chemscore.CHOScore>
0.0000

> <Gold.PLP.Chemscore.Metal>
0.0000

> <Gold.Chemscore.Hbonds>
donor molecule, donor type, donor heavy atom, donor atom, acceptor molecule, acceptor atom, score
      P1  H  7989  7998       L1    14  0.10
      P1  H  7997  8009       L1     8  0.80

> <Gold.PLP.Chemscore.Internal.Correction>
0.0163

> <Gold.Rescore>
     Score         DG    S(hbond)    S(metal)    S(lipo)     H(rot)  DE(clash)    DE(int)     intcor
     16.62     -17.42       0.92        0.00     116.43       1.86       0.19       0.60       ----

> <Gold.Chemscore.Fitness>
16.6227

> <Gold.Chemscore.DG>
-17.4189

> <Gold.Chemscore.ZeroCoef>
-5.4800

> <Gold.Chemscore.Hbond>
0.9212

> <Gold.Chemscore.Metal>
0.0000

> <Gold.Chemscore.Lipo>
116.4317

> <Gold.Chemscore.Internal_Hbond>
0.0000

> <Gold.Chemscore.DEClash>
0.1948

> <Gold.Chemscore.DEInternal>
0.6013

> <Gold.Chemscore.Rot>
1.8595

> <Gold.Chemscore.Internal.Correction>
   9.000000E+99

> <Gold.Chemscore.Hbonds>
donor molecule, donor type, donor heavy atom, donor atom, acceptor molecule, acceptor atom, score
      P1  H  7997  8009       L1     8  0.74

> <Gold.Chemscore.Hbond.Weighted>
-3.0767

> <Gold.Chemscore.Metal.Weighted>
-0.0000

> <Gold.Chemscore.Lipo.Weighted>
-13.6225

> <Gold.Chemscore.Internal_Hbond.Weighted>
0.0000

> <Gold.Chemscore.DEClash.Weighted>
0.1948

> <Gold.Chemscore.DEInternal.Weighted>
0.6013

> <Gold.Chemscore.Rot.Weighted>
4.7603

> <Gold.Chemscore.Internal.Correction.Weighted>
   9.000000E+99

> <Gold.Protein.RotatedTorsions>
[ 6907 6896 6895 6894 ] final  -31.06 input  -60.11 | X-H torsion
[ 7974 7965 7964 7962 ] final   52.84 input  175.53 | X-H torsion
[ 8008 7997 7996 7995 ] final   87.81 input   59.86 | X-H torsion
[ 10167 10162 10161 10158 ] final  -59.75 input  -65.29 | X-H torsion
[ 10718 10713 10712 10709 ] final    5.68 input   66.30 | X-H torsion
[ 10763 10752 10751 10750 ] final   51.84 input  -60.55 | X-H torsion
[ 11005 11000 10999 10996 ] final   15.77 input  -57.11 | X-H torsion

> <Gold.Protein.ActiveResidues>
 VAL166  LYS551  ARG553  GLY616  TRP617  ASP618  TYR619  PRO620  LYS621  CYS622 
 ASP623  PHE694  ASN695  SER759  ASP760  ASP761  ALA762  ILE779  LEU786  VAL792 
 PHE793  MET794  SER795  GLU796  ALA797  LYS798  CYS799  TRP800  GLU811  SER814 

> <Gold.Protein.RotatedAtoms>
  151.0971  134.9950  159.8430 H   0  0  0  0  0  0  0  0  0  0  0  0  # atno 6907 bound_to 6896
  152.5434  134.1995  159.8716 H   0  0  0  0  0  0  0  0  0  0  0  0  # atno 6908 bound_to 6896
  151.2035  133.4553  159.2630 H   0  0  0  0  0  0  0  0  0  0  0  0  # atno 6909 bound_to 6896
  145.9772  139.4206  143.0154 H   0  0  0  0  0  0  0  0  0  0  0  0  # atno 7974 bound_to 7965
  155.9800  140.3378  155.6654 H   0  0  0  0  0  0  0  0  0  0  0  0  # atno 8008 bound_to 7997
  155.6561  140.0711  157.2588 H   0  0  0  0  0  0  0  0  0  0  0  0  # atno 8009 bound_to 7997
  154.4189  140.1717  156.1714 H   0  0  0  0  0  0  0  0  0  0  0  0  # atno 8010 bound_to 7997
  140.6115  143.2389  151.5697 H   0  0  0  0  0  0  0  0  0  0  0  0  # atno 10167 bound_to 10162
  156.9110  130.5756  149.5647 H   0  0  0  0  0  0  0  0  0  0  0  0  # atno 10718 bound_to 10713
  152.9786  135.5832  154.4482 H   0  0  0  0  0  0  0  0  0  0  0  0  # atno 10763 bound_to 10752
  154.4074  135.2769  155.2060 H   0  0  0  0  0  0  0  0  0  0  0  0  # atno 10764 bound_to 10752
  154.3865  135.6135  153.5873 H   0  0  0  0  0  0  0  0  0  0  0  0  # atno 10765 bound_to 10752
  140.4545  134.1190  155.7707 H   0  0  0  0  0  0  0  0  0  0  0  0  # atno 11005 bound_to 11000
  145.7821  140.9851  143.1093 LP  0  0  0  0  0  0  0  0  0  0  0  0  # atno 17320 bound_to 7965
  144.6852  139.9578  143.7479 LP  0  0  0  0  0  0  0  0  0  0  0  0  # atno 17321 bound_to 7965
  139.5365  144.2766  152.1262 LP  0  0  0  0  0  0  0  0  0  0  0  0  # atno 17342 bound_to 10162
  140.1967  144.4699  150.6452 LP  0  0  0  0  0  0  0  0  0  0  0  0  # atno 17343 bound_to 10162
  156.0536  130.5601  150.9043 LP  0  0  0  0  0  0  0  0  0  0  0  0  # atno 17370 bound_to 10713
  157.5968  131.0943  150.9028 LP  0  0  0  0  0  0  0  0  0  0  0  0  # atno 17371 bound_to 10713
  141.1649  133.8722  157.1743 LP  0  0  0  0  0  0  0  0  0  0  0  0  # atno 17394 bound_to 11000
  139.9985  135.0037  157.0136 LP  0  0  0  0  0  0  0  0  0  0  0  0  # atno 17395 bound_to 11000

$$$$
