AV-unprocessed.smi:743|AV-procd|sdf|3560|dock6
  -GOLD-   22720 0553D 1   1.00000     0.00000
 Structure written by MMmdl.
 29 30  0  0  0  0  0  0  0  0  2 V2000
  145.3705  137.8105  153.0717 C   0  0  0  0  0  0  0  0  0  0  0  0
  145.1909  136.6122  152.2803 N   0  0  0  0  0  0  0  0  0  0  0  0
  144.4106  135.5100  152.5522 C   0  0  0  0  0  0  0  0  0  0  0  0
  144.5654  134.6262  151.5183 C   0  0  0  0  0  0  0  0  0  0  0  0
  143.9469  133.2573  151.3149 C   0  0  2  0  0  0  0  0  0  0  0  0
  144.4764  132.2971  152.2870 N   0  0  0  0  0  0  0  0  0  0  0  0
  145.4659  131.4081  152.0796 C   0  0  0  0  0  0  0  0  0  0  0  0
  145.9163  130.7272  152.9972 O   0  0  0  0  0  0  0  0  0  0  0  0
  146.0075  131.2041  150.6544 C   0  0  0  0  0  0  0  0  0  0  0  0
  145.5924  132.2974  149.6529 C   0  0  0  0  0  0  0  0  0  0  0  0
  144.1354  132.7258  149.8731 C   0  0  2  0  0  0  0  0  0  0  0  0
  143.6874  133.6893  148.8502 N   0  3  0  0  0  0  0  0  0  0  0  0
  145.4653  135.3059  150.6466 C   0  0  0  0  0  0  0  0  0  0  0  0
  145.8427  136.4862  151.1072 N   0  0  0  0  0  0  0  0  0  0  0  0
  143.5075  131.8418  149.7508 H   0  0  0  0  0  0  0  0  0  0  0  0
  144.7946  137.7392  153.9947 H   0  0  0  0  0  0  0  0  0  0  0  0
  145.0301  138.6798  152.5082 H   0  0  0  0  0  0  0  0  0  0  0  0
  146.4248  137.9345  153.3212 H   0  0  0  0  0  0  0  0  0  0  0  0
  143.8196  135.4430  153.4542 H   0  0  0  0  0  0  0  0  0  0  0  0
  142.8750  133.3191  151.5074 H   0  0  0  0  0  0  0  0  0  0  0  0
  144.1146  132.3686  153.2275 H   0  0  0  0  0  0  0  0  0  0  0  0
  147.0941  131.1189  150.6853 H   0  0  0  0  0  0  0  0  0  0  0  0
  145.6334  130.2408  150.3064 H   0  0  0  0  0  0  0  0  0  0  0  0
  146.2590  133.1558  149.7474 H   0  0  0  0  0  0  0  0  0  0  0  0
  145.7231  131.9226  148.6372 H   0  0  0  0  0  0  0  0  0  0  0  0
  144.4420  134.3260  148.6366 H   0  0  0  0  0  0  0  0  0  0  0  0
  142.8962  134.2107  149.1997 H   0  0  0  0  0  0  0  0  0  0  0  0
  145.8595  134.9724  149.6979 H   0  0  0  0  0  0  0  0  0  0  0  0
  143.4193  133.1925  148.0126 H   0  0  0  0  0  0  0  0  0  0  0  0
  1  2  1  0  0  0  0
  1 16  1  0  0  0  0
  1 17  1  0  0  0  0
  1 18  1  0  0  0  0
  2 14  1  0  0  0  0
  2  3  1  0  0  0  0
  3  4  2  0  0  0  0
  3 19  1  0  0  0  0
  4  5  1  0  0  0  0
  4 13  1  0  0  0  0
  5 11  1  0  0  0  0
  5  6  1  0  0  0  0
  5 20  1  0  0  0  0
  6  7  1  0  0  0  0
  6 21  1  0  0  0  0
  7  8  2  0  0  0  0
  7  9  1  0  0  0  0
  9 10  1  0  0  0  0
  9 22  1  0  0  0  0
  9 23  1  0  0  0  0
 10 11  1  0  0  0  0
 10 24  1  0  0  0  0
 10 25  1  0  0  0  0
 11 15  1  0  0  0  0
 11 12  1  0  0  0  0
 12 26  1  0  0  0  0
 12 27  1  0  0  0  0
 12 29  1  0  0  0  0
 13 14  2  0  0  0  0
 13 28  1  0  0  0  0
M  CHG  1  12   1
M  END
> <s_m_source_file>
AV-unprocessed.smi

> <i_m_source_file_index>
743

> <i_lp_mmshare_version>
43012

> <i_f3d_flags>
0

> <s_epik_input>
W0NIM11uMVtjSF1jKFtjSF1uMSlbQ0BASF0yW05IXUMoPU8pW0NIMl1bQ0gyXVtDQEBIXTJbTkgyXQ==

> <s_epik_cmdline>
J2VwaWtfcHl0aG9uJywgJy1waCcsICc3LjAnLCAnLXRuJywgJzgnLCAnLW1hJywgJzIwMCcsICctbWV0YWxfYmluZGluZycsICctaW1hZScsICc8aW5maWxlLm1hZT4nLCAnLW9tYWUnLCAnPG91dGZpbGUubWFlPic=

> <r_lp_tautomer_probability>
1

> <r_epik_Ionization_Penalty>
0.00878543

> <r_epik_Ionization_Penalty_Charging>
0.00874185

> <r_epik_Ionization_Penalty_Neutral>
4.35793e-05

> <r_epik_State_Penalty>
0.00660351

> <r_epik_Charging_Adjusted_Penalty>
0.0153454

> <i_epik_Tot_Q>
1

> <i_epik_Tot_abs_Q>
1

> <r_epik_Metal_State_Penalty>
0.00660727

> <b_epik_Metal_Only>
0

> <s_lp_Force_Field>
OPLS_2005

> <r_lp_Energy>
11.1602

> <b_lp_Chiralities_Consistent>
1

> <s_lp_Variant>
AV-unprocessed.smi:743-1

> <Gold.Version>
5.8.1

> <Gold.Id.Protein>
6NUR|6NUR_protein|mol2

> <Gold.PLP.Fitness>
36.8421

> <Gold.PLP.PLP>
-23.9354

> <Gold.PLP.part.hbond>
-2.7324

> <Gold.PLP.part.metal>
0.0000

> <Gold.PLP.part.buried>
-2.2778

> <Gold.PLP.part.nonpolar>
-19.8778

> <Gold.PLP.part.repulsive>
0.6178

> <Gold.PLP.ligand.clash>
0.0000

> <Gold.PLP.ligand.torsion>
0.2090

> <Gold.PLP.Chemscore.Hbond>
3.4352

> <Gold.PLP.Chemscore.CHOScore>
1.0000

> <Gold.PLP.Chemscore.Metal>
0.0000

> <Gold.Chemscore.Hbonds>
donor molecule, donor type, donor heavy atom, donor atom, acceptor molecule, acceptor atom, score
      L1  H     6    21       P1 10957  0.42
      L1  H    12    26       P1  7921  1.00
      L1  H    12    27       P1 10186  2.00
      L1  C    13    28       P1  7921  1.00

> <Gold.PLP.Chemscore.Internal.Correction>
0.0189

> <Gold.Rescore>
     Score         DG    S(hbond)    S(metal)    S(lipo)     H(rot)  DE(clash)    DE(int)     intcor
     14.63     -16.64       2.02        0.00      59.59       1.00       0.77       1.24       ----

> <Gold.Chemscore.Fitness>
14.6297

> <Gold.Chemscore.DG>
-16.6409

> <Gold.Chemscore.ZeroCoef>
-5.4800

> <Gold.Chemscore.Hbond>
2.0206

> <Gold.Chemscore.Metal>
0.0000

> <Gold.Chemscore.Lipo>
59.5901

> <Gold.Chemscore.Internal_Hbond>
0.0000

> <Gold.Chemscore.DEClash>
0.7712

> <Gold.Chemscore.DEInternal>
1.2400

> <Gold.Chemscore.Rot>
1.0000

> <Gold.Chemscore.Internal.Correction>
   9.000000E+99

> <Gold.Chemscore.Hbonds>
donor molecule, donor type, donor heavy atom, donor atom, acceptor molecule, acceptor atom, score
      L1  H     6    21       P1 10957  0.04
      L1  H    12    26       P1  7921  0.90
      L1  H    12    27       P1 10186  0.96

> <Gold.Chemscore.Hbond.Weighted>
-6.7488

> <Gold.Chemscore.Metal.Weighted>
-0.0000

> <Gold.Chemscore.Lipo.Weighted>
-6.9720

> <Gold.Chemscore.Internal_Hbond.Weighted>
0.0000

> <Gold.Chemscore.DEClash.Weighted>
0.7712

> <Gold.Chemscore.DEInternal.Weighted>
1.2400

> <Gold.Chemscore.Rot.Weighted>
2.5600

> <Gold.Chemscore.Internal.Correction.Weighted>
   9.000000E+99

> <Gold.Protein.RotatedTorsions>
[ 6907 6896 6895 6894 ] final  -70.49 input  -60.11 | X-H torsion
[ 7974 7965 7964 7962 ] final -102.33 input  175.53 | X-H torsion
[ 8008 7997 7996 7995 ] final  127.65 input   59.86 | X-H torsion
[ 10167 10162 10161 10158 ] final   -8.60 input  -65.29 | X-H torsion
[ 10718 10713 10712 10709 ] final  177.48 input   66.30 | X-H torsion
[ 10763 10752 10751 10750 ] final    1.70 input  -60.55 | X-H torsion
[ 11005 11000 10999 10996 ] final  -61.68 input  -57.11 | X-H torsion

> <Gold.Protein.ActiveResidues>
 VAL166  LYS551  ARG553  GLY616  TRP617  ASP618  TYR619  PRO620  LYS621  CYS622 
 ASP623  PHE694  ASN695  SER759  ASP760  ASP761  ALA762  ILE779  LEU786  VAL792 
 PHE793  MET794  SER795  GLU796  ALA797  LYS798  CYS799  TRP800  GLU811  SER814 

> <Gold.Protein.RotatedAtoms>
  150.7255  134.5445  159.5763 H   0  0  0  0  0  0  0  0  0  0  0  0  # atno 6907 bound_to 6896
  152.2947  134.7677  160.0379 H   0  0  0  0  0  0  0  0  0  0  0  0  # atno 6908 bound_to 6896
  151.8279  133.3368  159.3641 H   0  0  0  0  0  0  0  0  0  0  0  0  # atno 6909 bound_to 6896
  145.2701  140.9296  143.2991 H   0  0  0  0  0  0  0  0  0  0  0  0  # atno 7974 bound_to 7965
  156.2896  140.2664  156.2307 H   0  0  0  0  0  0  0  0  0  0  0  0  # atno 8008 bound_to 7997
  155.0075  140.0387  157.2404 H   0  0  0  0  0  0  0  0  0  0  0  0  # atno 8009 bound_to 7997
  154.7547  140.2749  155.6268 H   0  0  0  0  0  0  0  0  0  0  0  0  # atno 8010 bound_to 7997
  140.7063  143.5951  150.8854 H   0  0  0  0  0  0  0  0  0  0  0  0  # atno 10167 bound_to 10162
  156.9047  130.9890  151.3030 H   0  0  0  0  0  0  0  0  0  0  0  0  # atno 10718 bound_to 10713
  153.3047  135.6958  153.7170 H   0  0  0  0  0  0  0  0  0  0  0  0  # atno 10763 bound_to 10752
  153.6071  135.3451  155.2966 H   0  0  0  0  0  0  0  0  0  0  0  0  # atno 10764 bound_to 10752
  154.8560  135.4354  154.2168 H   0  0  0  0  0  0  0  0  0  0  0  0  # atno 10765 bound_to 10752
  141.1333  133.6632  156.5413 H   0  0  0  0  0  0  0  0  0  0  0  0  # atno 11005 bound_to 11000
  144.9342  139.4263  143.6480 LP  0  0  0  0  0  0  0  0  0  0  0  0  # atno 17320 bound_to 7965
  146.3249  139.8269  142.8916 LP  0  0  0  0  0  0  0  0  0  0  0  0  # atno 17321 bound_to 7965
  139.9676  143.6093  152.2983 LP  0  0  0  0  0  0  0  0  0  0  0  0  # atno 17342 bound_to 10162
  139.6668  144.7662  151.1858 LP  0  0  0  0  0  0  0  0  0  0  0  0  # atno 17343 bound_to 10162
  157.6005  130.8509  149.8794 LP  0  0  0  0  0  0  0  0  0  0  0  0  # atno 17370 bound_to 10713
  156.0565  130.3707  150.1080 LP  0  0  0  0  0  0  0  0  0  0  0  0  # atno 17371 bound_to 10713
  140.4137  134.7249  157.4851 LP  0  0  0  0  0  0  0  0  0  0  0  0  # atno 17394 bound_to 11000
  140.0409  134.6269  155.8983 LP  0  0  0  0  0  0  0  0  0  0  0  0  # atno 17395 bound_to 11000

$$$$
