AV-unprocessed.smi:608|AV-procd|sdf|3044|dock3
  -GOLD-   2262023563D 1   1.00000     0.00000
 Structure written by MMmdl.
 40 41  0  0  0  0  0  0  0  0  1 V2000
  141.6890  147.1335  154.9042 C   0  0  0  0  0  0  0  0  0  0  0  0
  143.1048  147.0034  155.4768 C   0  0  0  0  0  0  0  0  0  0  0  0
  143.9216  145.9569  154.7926 C   0  0  0  0  0  0  0  0  0  0  0  0
  144.3548  145.9520  153.4895 C   0  0  0  0  0  0  0  0  0  0  0  0
  145.0978  144.8205  153.1450 N   0  0  0  0  0  0  0  0  0  0  0  0
  145.2221  143.9636  154.1612 C   0  0  0  0  0  0  0  0  0  0  0  0
  145.9820  142.6825  154.0715 C   0  0  0  0  0  0  0  0  0  0  0  0
  146.3088  142.0904  155.4485 C   0  0  0  0  0  0  0  0  0  0  0  0
  147.7497  142.0550  155.6560 N   0  0  0  0  0  0  0  0  0  0  0  0
  148.4918  140.9361  155.6937 C   0  0  0  0  0  0  0  0  0  0  0  0
  147.9945  139.8187  155.5472 O   0  0  0  0  0  0  0  0  0  0  0  0
  149.8193  141.1401  155.8995 N   0  0  0  0  0  0  0  0  0  0  0  0
  150.4256  142.3608  156.4490 C   0  0  0  0  0  0  0  0  0  0  0  0
  150.5180  142.2315  157.9800 C   0  0  0  0  0  0  0  0  0  0  0  0
  151.7033  141.4826  158.3853 N   0  0  0  0  0  0  0  0  0  0  0  0
  152.0323  140.2287  158.0241 C   0  0  0  0  0  0  0  0  0  0  0  0
  153.0819  139.7180  158.4085 O   0  0  0  0  0  0  0  0  0  0  0  0
  151.0786  139.4052  157.1393 C   0  0  0  0  0  0  0  0  0  0  0  0
  150.7920  140.0485  155.7653 C   0  0  0  0  0  0  0  0  0  0  0  0
  144.4489  144.5243  155.6387 S   0  0  0  0  0  0  0  0  0  0  0  0
  141.1301  147.9135  155.4215 H   0  0  0  0  0  0  0  0  0  0  0  0
  141.1331  146.2014  155.0103 H   0  0  0  0  0  0  0  0  0  0  0  0
  141.7155  147.3893  153.8446 H   0  0  0  0  0  0  0  0  0  0  0  0
  143.6109  147.9665  155.4036 H   0  0  0  0  0  0  0  0  0  0  0  0
  143.0441  146.7755  156.5413 H   0  0  0  0  0  0  0  0  0  0  0  0
  144.1789  146.7096  152.7400 H   0  0  0  0  0  0  0  0  0  0  0  0
  145.3933  141.9735  153.4882 H   0  0  0  0  0  0  0  0  0  0  0  0
  146.9014  142.8597  153.5114 H   0  0  0  0  0  0  0  0  0  0  0  0
  145.8420  142.6873  156.2340 H   0  0  0  0  0  0  0  0  0  0  0  0
  145.9075  141.0787  155.5279 H   0  0  0  0  0  0  0  0  0  0  0  0
  148.2179  142.9407  155.7802 H   0  0  0  0  0  0  0  0  0  0  0  0
  151.4116  142.5389  156.0163 H   0  0  0  0  0  0  0  0  0  0  0  0
  149.8522  143.2503  156.1868 H   0  0  0  0  0  0  0  0  0  0  0  0
  150.6059  143.2261  158.4177 H   0  0  0  0  0  0  0  0  0  0  0  0
  149.6186  141.7854  158.4078 H   0  0  0  0  0  0  0  0  0  0  0  0
  152.3555  141.9718  158.9813 H   0  0  0  0  0  0  0  0  0  0  0  0
  151.5341  138.4275  156.9770 H   0  0  0  0  0  0  0  0  0  0  0  0
  150.1511  139.2158  157.6812 H   0  0  0  0  0  0  0  0  0  0  0  0
  150.4354  139.2839  155.0737 H   0  0  0  0  0  0  0  0  0  0  0  0
  151.7158  140.4165  155.3162 H   0  0  0  0  0  0  0  0  0  0  0  0
  1  2  1  0  0  0  0
  1 21  1  0  0  0  0
  1 22  1  0  0  0  0
  1 23  1  0  0  0  0
  2  3  1  0  0  0  0
  2 24  1  0  0  0  0
  2 25  1  0  0  0  0
  3 20  1  0  0  0  0
  3  4  2  0  0  0  0
  4  5  1  0  0  0  0
  4 26  1  0  0  0  0
  5  6  2  0  0  0  0
  6  7  1  0  0  0  0
  6 20  1  0  0  0  0
  7  8  1  0  0  0  0
  7 27  1  0  0  0  0
  7 28  1  0  0  0  0
  8  9  1  0  0  0  0
  8 29  1  0  0  0  0
  8 30  1  0  0  0  0
  9 10  1  0  0  0  0
  9 31  1  0  0  0  0
 10 11  2  0  0  0  0
 10 12  1  0  0  0  0
 12 19  1  0  0  0  0
 12 13  1  0  0  0  0
 13 14  1  0  0  0  0
 13 32  1  0  0  0  0
 13 33  1  0  0  0  0
 14 15  1  0  0  0  0
 14 34  1  0  0  0  0
 14 35  1  0  0  0  0
 15 16  1  0  0  0  0
 15 36  1  0  0  0  0
 16 17  2  0  0  0  0
 16 18  1  0  0  0  0
 18 19  1  0  0  0  0
 18 37  1  0  0  0  0
 18 38  1  0  0  0  0
 19 39  1  0  0  0  0
 19 40  1  0  0  0  0
M  END
> <s_m_source_file>
AV-unprocessed.smi

> <i_m_source_file_index>
608

> <i_lp_mmshare_version>
43012

> <i_f3d_flags>
0

> <s_epik_input>
W0NIM11bQ0gyXWMxW2NIXW5jKHMxKVtDSDJdW0NIMl1bTkhdQyg9TylOMltDSDJdW0NIMl1bTkhdQyg9TylbQ0gyXVtDSDJdMg==

> <s_epik_cmdline>
J2VwaWtfcHl0aG9uJywgJy1waCcsICc3LjAnLCAnLXRuJywgJzgnLCAnLW1hJywgJzIwMCcsICctbWV0YWxfYmluZGluZycsICctaW1hZScsICc8aW5maWxlLm1hZT4nLCAnLW9tYWUnLCAnPG91dGZpbGUubWFlPic=

> <r_epik_Ionization_Penalty>
0.000937608

> <r_epik_Ionization_Penalty_Charging>
0

> <r_epik_Ionization_Penalty_Neutral>
0.000937608

> <r_epik_State_Penalty>
0.000579253

> <r_epik_Charging_Adjusted_Penalty>
0.000579253

> <i_epik_Tot_Q>
0

> <i_epik_Tot_abs_Q>
0

> <r_epik_Metal_State_Penalty>
-0

> <b_epik_Metal_Only>
0

> <s_lp_Force_Field>
OPLS_2005

> <r_lp_Energy>
19.2261

> <b_lp_Chiralities_Consistent>
1

> <s_lp_Variant>
AV-unprocessed.smi:608-1

> <Gold.Version>
5.8.1

> <Gold.Id.Protein>
6NUR|6NUR_protein|mol2

> <Gold.PLP.Fitness>
42.3453

> <Gold.PLP.PLP>
-37.7551

> <Gold.PLP.part.hbond>
-2.9620

> <Gold.PLP.part.metal>
0.0000

> <Gold.PLP.part.buried>
-4.5727

> <Gold.PLP.part.nonpolar>
-30.2671

> <Gold.PLP.part.repulsive>
0.4344

> <Gold.PLP.ligand.clash>
0.0000

> <Gold.PLP.ligand.torsion>
0.7341

> <Gold.PLP.Chemscore.Hbond>
2.0000

> <Gold.PLP.Chemscore.CHOScore>
0.0000

> <Gold.PLP.Chemscore.Metal>
0.0000

> <Gold.Chemscore.Hbonds>
donor molecule, donor type, donor heavy atom, donor atom, acceptor molecule, acceptor atom, score
      L1  H     9    31       P1  8028  1.00
      P1  H  7997  8010       L1    17  0.78

> <Gold.PLP.Chemscore.Internal.Correction>
0.0584

> <Gold.Rescore>
     Score         DG    S(hbond)    S(metal)    S(lipo)     H(rot)  DE(clash)    DE(int)     intcor
     15.58     -16.59       1.71        0.00      81.32       1.61       0.20       0.80       ----

> <Gold.Chemscore.Fitness>
15.5832

> <Gold.Chemscore.DG>
-16.5906

> <Gold.Chemscore.ZeroCoef>
-5.4800

> <Gold.Chemscore.Hbond>
1.7134

> <Gold.Chemscore.Metal>
0.0000

> <Gold.Chemscore.Lipo>
81.3215

> <Gold.Chemscore.Internal_Hbond>
0.0000

> <Gold.Chemscore.DEClash>
0.2028

> <Gold.Chemscore.DEInternal>
0.8045

> <Gold.Chemscore.Rot>
1.6120

> <Gold.Chemscore.Internal.Correction>
   9.000000E+99

> <Gold.Chemscore.Hbonds>
donor molecule, donor type, donor heavy atom, donor atom, acceptor molecule, acceptor atom, score
      L1  H     9    31       P1  8028  0.90
      P1  H  7997  8010       L1    17  0.69

> <Gold.Chemscore.Hbond.Weighted>
-5.7226

> <Gold.Chemscore.Metal.Weighted>
-0.0000

> <Gold.Chemscore.Lipo.Weighted>
-9.5146

> <Gold.Chemscore.Internal_Hbond.Weighted>
0.0000

> <Gold.Chemscore.DEClash.Weighted>
0.2028

> <Gold.Chemscore.DEInternal.Weighted>
0.8045

> <Gold.Chemscore.Rot.Weighted>
4.1267

> <Gold.Chemscore.Internal.Correction.Weighted>
   9.000000E+99

> <Gold.Protein.RotatedTorsions>
[ 6907 6896 6895 6894 ] final  117.81 input  -60.11 | X-H torsion
[ 7974 7965 7964 7962 ] final   36.94 input  175.53 | X-H torsion
[ 8008 7997 7996 7995 ] final   18.26 input   59.86 | X-H torsion
[ 10167 10162 10161 10158 ] final  -11.13 input  -65.29 | X-H torsion
[ 10718 10713 10712 10709 ] final -172.91 input   66.30 | X-H torsion
[ 10763 10752 10751 10750 ] final -146.13 input  -60.55 | X-H torsion
[ 11005 11000 10999 10996 ] final  142.80 input  -57.11 | X-H torsion

> <Gold.Protein.ActiveResidues>
 VAL166  LYS551  ARG553  GLY616  TRP617  ASP618  TYR619  PRO620  LYS621  CYS622 
 ASP623  PHE694  ASN695  SER759  ASP760  ASP761  ALA762  ILE779  LEU786  VAL792 
 PHE793  MET794  SER795  GLU796  ALA797  LYS798  CYS799  TRP800  GLU811  SER814 

> <Gold.Protein.RotatedAtoms>
  152.4586  133.7775  159.6832 H   0  0  0  0  0  0  0  0  0  0  0  0  # atno 6907 bound_to 6896
  150.8521  133.7761  159.3028 H   0  0  0  0  0  0  0  0  0  0  0  0  # atno 6908 bound_to 6896
  151.5353  135.1071  159.9964 H   0  0  0  0  0  0  0  0  0  0  0  0  # atno 6909 bound_to 6896
  146.1174  139.5955  142.9312 H   0  0  0  0  0  0  0  0  0  0  0  0  # atno 7974 bound_to 7965
  154.9034  140.3004  155.5305 H   0  0  0  0  0  0  0  0  0  0  0  0  # atno 8008 bound_to 7997
  156.3018  140.2402  156.3999 H   0  0  0  0  0  0  0  0  0  0  0  0  # atno 8009 bound_to 7997
  154.8498  140.0410  157.1586 H   0  0  0  0  0  0  0  0  0  0  0  0  # atno 8010 bound_to 7997
  140.7131  143.5673  150.9130 H   0  0  0  0  0  0  0  0  0  0  0  0  # atno 10167 bound_to 10162
  156.7625  130.9419  151.3118 H   0  0  0  0  0  0  0  0  0  0  0  0  # atno 10718 bound_to 10713
  154.8351  135.3394  154.6613 H   0  0  0  0  0  0  0  0  0  0  0  0  # atno 10763 bound_to 10752
  153.7229  135.6957  153.5013 H   0  0  0  0  0  0  0  0  0  0  0  0  # atno 10764 bound_to 10752
  153.2368  135.4398  155.0608 H   0  0  0  0  0  0  0  0  0  0  0  0  # atno 10765 bound_to 10752
  140.0504  134.9258  157.1007 H   0  0  0  0  0  0  0  0  0  0  0  0  # atno 11005 bound_to 11000
  145.5537  141.0411  143.2264 LP  0  0  0  0  0  0  0  0  0  0  0  0  # atno 17320 bound_to 7965
  144.7566  139.7060  143.7251 LP  0  0  0  0  0  0  0  0  0  0  0  0  # atno 17321 bound_to 7965
  139.9399  143.6394  152.3056 LP  0  0  0  0  0  0  0  0  0  0  0  0  # atno 17342 bound_to 10162
  139.6875  144.7650  151.1498 LP  0  0  0  0  0  0  0  0  0  0  0  0  # atno 17343 bound_to 10162
  157.6728  130.9067  150.0080 LP  0  0  0  0  0  0  0  0  0  0  0  0  # atno 17370 bound_to 10713
  156.1330  130.3643  149.9702 LP  0  0  0  0  0  0  0  0  0  0  0  0  # atno 17371 bound_to 10713
  140.3926  134.2168  155.7165 LP  0  0  0  0  0  0  0  0  0  0  0  0  # atno 17394 bound_to 11000
  141.1927  133.8166  157.0826 LP  0  0  0  0  0  0  0  0  0  0  0  0  # atno 17395 bound_to 11000

$$$$
