AV-unprocessed.smi:2165|AV-procd|sdf|8813|dock9
  -GOLD-   2272012 03D 1   1.00000     0.00000
 Structure written by MMmdl.
 36 37  0  0  0  0  0  0  0  0  1 V2000
  153.6638  141.2670  160.3342 C   0  0  0  0  0  0  0  0  0  0  0  0
  152.6837  141.9906  159.5516 N   0  0  0  0  0  0  0  0  0  0  0  0
  152.1611  143.2074  160.0531 C   0  0  0  0  0  0  0  0  0  0  0  0
  152.5083  143.6852  161.1334 O   0  0  0  0  0  0  0  0  0  0  0  0
  151.1751  143.8422  159.1865 C   0  0  0  0  0  0  0  0  0  0  0  0
  150.8153  143.2774  158.0132 C   0  0  0  0  0  0  0  0  0  0  0  0
  151.3374  142.0835  157.5499 N   0  0  0  0  0  0  0  0  0  0  0  0
  150.8758  141.5344  156.2685 C   0  0  0  0  0  0  0  0  0  0  0  0
  149.4303  141.0219  156.3220 C   0  0  0  0  0  0  0  0  0  0  0  0
  149.1912  139.8136  156.3472 O   0  0  0  0  0  0  0  0  0  0  0  0
  148.4735  141.9613  156.3550 N   0  0  0  0  0  0  0  0  0  0  0  0
  147.0399  141.6962  156.3846 C   0  0  0  0  0  0  0  0  0  0  0  0
  146.2334  142.8992  155.8677 C   0  0  1  0  0  0  0  0  0  0  0  0
  146.2760  143.0607  154.3494 C   0  0  0  0  0  0  0  0  0  0  0  0
  145.0037  143.8340  154.0911 C   0  0  0  0  0  0  0  0  0  0  0  0
  144.0445  143.1964  155.0919 C   0  0  0  0  0  0  0  0  0  0  0  0
  144.8501  142.7487  156.1796 O   0  0  0  0  0  0  0  0  0  0  0  0
  152.2986  141.4024  158.3269 C   0  0  0  0  0  0  0  0  0  0  0  0
  152.7755  140.3312  157.9429 O   0  0  0  0  0  0  0  0  0  0  0  0
  153.9888  141.8471  161.1973 H   0  0  0  0  0  0  0  0  0  0  0  0
  154.5226  141.0738  159.6890 H   0  0  0  0  0  0  0  0  0  0  0  0
  153.1909  140.3380  160.6567 H   0  0  0  0  0  0  0  0  0  0  0  0
  150.7249  144.7760  159.4901 H   0  0  0  0  0  0  0  0  0  0  0  0
  150.0770  143.7852  157.4097 H   0  0  0  0  0  0  0  0  0  0  0  0
  150.9368  142.2978  155.4919 H   0  0  0  0  0  0  0  0  0  0  0  0
  151.5418  140.7315  155.9464 H   0  0  0  0  0  0  0  0  0  0  0  0
  148.7573  142.9300  156.3316 H   0  0  0  0  0  0  0  0  0  0  0  0
  146.8154  140.8071  155.7932 H   0  0  0  0  0  0  0  0  0  0  0  0
  146.7528  141.4661  157.4110 H   0  0  0  0  0  0  0  0  0  0  0  0
  146.5835  143.8243  156.3289 H   0  0  0  0  0  0  0  0  0  0  0  0
  147.1702  143.5785  154.0018 H   0  0  0  0  0  0  0  0  0  0  0  0
  146.2277  142.0891  153.8553 H   0  0  0  0  0  0  0  0  0  0  0  0
  145.1517  144.8882  154.3300 H   0  0  0  0  0  0  0  0  0  0  0  0
  144.6566  143.7612  153.0601 H   0  0  0  0  0  0  0  0  0  0  0  0
  143.2730  143.8900  155.4264 H   0  0  0  0  0  0  0  0  0  0  0  0
  143.5520  142.3301  154.6489 H   0  0  0  0  0  0  0  0  0  0  0  0
  1  2  1  0  0  0  0
  1 20  1  0  0  0  0
  1 21  1  0  0  0  0
  1 22  1  0  0  0  0
  2 18  1  0  0  0  0
  2  3  1  0  0  0  0
  3  4  2  0  0  0  0
  3  5  1  0  0  0  0
  5  6  2  0  0  0  0
  5 23  1  0  0  0  0
  6  7  1  0  0  0  0
  6 24  1  0  0  0  0
  7  8  1  0  0  0  0
  7 18  1  0  0  0  0
  8  9  1  0  0  0  0
  8 25  1  0  0  0  0
  8 26  1  0  0  0  0
  9 10  2  0  0  0  0
  9 11  1  0  0  0  0
 11 12  1  0  0  0  0
 11 27  1  0  0  0  0
 12 13  1  0  0  0  0
 12 28  1  0  0  0  0
 12 29  1  0  0  0  0
 13 17  1  0  0  0  0
 13 14  1  0  0  0  0
 13 30  1  0  0  0  0
 14 15  1  0  0  0  0
 14 31  1  0  0  0  0
 14 32  1  0  0  0  0
 15 16  1  0  0  0  0
 15 33  1  0  0  0  0
 15 34  1  0  0  0  0
 16 17  1  0  0  0  0
 16 35  1  0  0  0  0
 16 36  1  0  0  0  0
 18 19  2  0  0  0  0
M  END
> <s_m_source_file>
AV-unprocessed.smi

> <i_m_source_file_index>
2165

> <i_lp_mmshare_version>
43012

> <i_f3d_flags>
0

> <s_epik_input>
W0NIM11uMWMoPU8pW2NIXVtjSF1uKGMxPU8pW0NIMl1DKD1PKVtOSF1bQ0gyXVtDQEBIXTJbQ0gyXVtDSDJdW0NIMl1PMg==

> <s_epik_cmdline>
J2VwaWtfcHl0aG9uJywgJy1waCcsICc3LjAnLCAnLXRuJywgJzgnLCAnLW1hJywgJzIwMCcsICctbWV0YWxfYmluZGluZycsICctaW1hZScsICc8aW5maWxlLm1hZT4nLCAnLW9tYWUnLCAnPG91dGZpbGUubWFlPic=

> <r_lp_tautomer_probability>
1

> <r_epik_Ionization_Penalty>
3.89869e-08

> <r_epik_Ionization_Penalty_Charging>
1.21279e-08

> <r_epik_Ionization_Penalty_Neutral>
2.6859e-08

> <r_epik_State_Penalty>
-0

> <r_epik_Charging_Adjusted_Penalty>
1.21279e-08

> <i_epik_Tot_Q>
0

> <i_epik_Tot_abs_Q>
0

> <r_epik_Metal_State_Penalty>
-0

> <b_epik_Metal_Only>
0

> <s_lp_Force_Field>
OPLS_2005

> <r_lp_Energy>
24.234

> <b_lp_Chiralities_Consistent>
1

> <s_lp_Variant>
AV-unprocessed.smi:2165-2

> <Gold.Version>
5.8.1

> <Gold.Id.Protein>
6NUR|6NUR_protein|mol2

> <Gold.PLP.Fitness>
42.5901

> <Gold.PLP.PLP>
-34.8646

> <Gold.PLP.part.hbond>
-2.0000

> <Gold.PLP.part.metal>
0.0000

> <Gold.PLP.part.buried>
-3.9304

> <Gold.PLP.part.nonpolar>
-28.8162

> <Gold.PLP.part.repulsive>
0.2067

> <Gold.PLP.ligand.clash>
0.0000

> <Gold.PLP.ligand.torsion>
0.5312

> <Gold.PLP.Chemscore.Hbond>
1.9280

> <Gold.PLP.Chemscore.CHOScore>
1.0000

> <Gold.PLP.Chemscore.Metal>
0.0000

> <Gold.Chemscore.Hbonds>
donor molecule, donor type, donor heavy atom, donor atom, acceptor molecule, acceptor atom, score
      L1  H    11    27       P1  8028  1.00
      P1  H  7997  8009       L1    19  0.93
      L1  C     6    24       P1  8028  1.00

> <Gold.PLP.Chemscore.Internal.Correction>
0.0040

> <Gold.Rescore>
     Score         DG    S(hbond)    S(metal)    S(lipo)     H(rot)  DE(clash)    DE(int)     intcor
     13.38     -14.03       1.89        0.00      60.04       1.87       0.09       0.56       ----

> <Gold.Chemscore.Fitness>
13.3802

> <Gold.Chemscore.DG>
-14.0326

> <Gold.Chemscore.ZeroCoef>
-5.4800

> <Gold.Chemscore.Hbond>
1.8894

> <Gold.Chemscore.Metal>
0.0000

> <Gold.Chemscore.Lipo>
60.0358

> <Gold.Chemscore.Internal_Hbond>
0.0000

> <Gold.Chemscore.DEClash>
0.0889

> <Gold.Chemscore.DEInternal>
0.5635

> <Gold.Chemscore.Rot>
1.8681

> <Gold.Chemscore.Internal.Correction>
   9.000000E+99

> <Gold.Chemscore.Hbonds>
donor molecule, donor type, donor heavy atom, donor atom, acceptor molecule, acceptor atom, score
      L1  H    11    27       P1  8028  0.97
      P1  H  7997  8009       L1    19  0.85

> <Gold.Chemscore.Hbond.Weighted>
-6.3106

> <Gold.Chemscore.Metal.Weighted>
-0.0000

> <Gold.Chemscore.Lipo.Weighted>
-7.0242

> <Gold.Chemscore.Internal_Hbond.Weighted>
0.0000

> <Gold.Chemscore.DEClash.Weighted>
0.0889

> <Gold.Chemscore.DEInternal.Weighted>
0.5635

> <Gold.Chemscore.Rot.Weighted>
4.7822

> <Gold.Chemscore.Internal.Correction.Weighted>
   9.000000E+99

> <Gold.Protein.RotatedTorsions>
[ 6907 6896 6895 6894 ] final   77.05 input  -60.11 | X-H torsion
[ 7974 7965 7964 7962 ] final -121.01 input  175.53 | X-H torsion
[ 8008 7997 7996 7995 ] final  165.41 input   59.86 | X-H torsion
[ 10167 10162 10161 10158 ] final   79.55 input  -65.29 | X-H torsion
[ 10718 10713 10712 10709 ] final  -18.23 input   66.30 | X-H torsion
[ 10763 10752 10751 10750 ] final  120.69 input  -60.55 | X-H torsion
[ 11005 11000 10999 10996 ] final  104.46 input  -57.11 | X-H torsion

> <Gold.Protein.ActiveResidues>
 VAL166  LYS551  ARG553  GLY616  TRP617  ASP618  TYR619  PRO620  LYS621  CYS622 
 ASP623  PHE694  ASN695  SER759  ASP760  ASP761  ALA762  ILE779  LEU786  VAL792 
 PHE793  MET794  SER795  GLU796  ALA797  LYS798  CYS799  TRP800  GLU811  SER814 

> <Gold.Protein.RotatedAtoms>
  152.5100  134.3876  159.9372 H   0  0  0  0  0  0  0  0  0  0  0  0  # atno 6907 bound_to 6896
  151.3835  133.3807  159.2720 H   0  0  0  0  0  0  0  0  0  0  0  0  # atno 6908 bound_to 6896
  150.9487  134.8909  159.7717 H   0  0  0  0  0  0  0  0  0  0  0  0  # atno 6909 bound_to 6896
  145.0451  140.8175  143.4243 H   0  0  0  0  0  0  0  0  0  0  0  0  # atno 7974 bound_to 7965
  156.1802  140.1670  156.8288 H   0  0  0  0  0  0  0  0  0  0  0  0  # atno 8008 bound_to 7997
  154.5352  140.0748  156.8448 H   0  0  0  0  0  0  0  0  0  0  0  0  # atno 8009 bound_to 7997
  155.3326  140.3380  155.4241 H   0  0  0  0  0  0  0  0  0  0  0  0  # atno 8010 bound_to 7997
  139.9592  144.5973  150.8088 H   0  0  0  0  0  0  0  0  0  0  0  0  # atno 10167 bound_to 10162
  156.5624  130.4729  149.6400 H   0  0  0  0  0  0  0  0  0  0  0  0  # atno 10718 bound_to 10713
  153.6025  135.3445  155.2950 H   0  0  0  0  0  0  0  0  0  0  0  0  # atno 10763 bound_to 10752
  154.8633  135.4231  154.2398 H   0  0  0  0  0  0  0  0  0  0  0  0  # atno 10764 bound_to 10752
  153.3229  135.7039  153.7086 H   0  0  0  0  0  0  0  0  0  0  0  0  # atno 10765 bound_to 10752
  139.8792  134.9301  156.5364 H   0  0  0  0  0  0  0  0  0  0  0  0  # atno 11005 bound_to 11000
  145.1598  139.2465  143.5397 LP  0  0  0  0  0  0  0  0  0  0  0  0  # atno 17320 bound_to 7965
  146.3513  140.1322  142.8597 LP  0  0  0  0  0  0  0  0  0  0  0  0  # atno 17321 bound_to 7965
  140.7559  143.3055  151.2974 LP  0  0  0  0  0  0  0  0  0  0  0  0  # atno 17342 bound_to 10162
  139.6568  144.0262  152.2665 LP  0  0  0  0  0  0  0  0  0  0  0  0  # atno 17343 bound_to 10162
  156.2787  130.7058  151.1876 LP  0  0  0  0  0  0  0  0  0  0  0  0  # atno 17370 bound_to 10713
  157.7365  131.0561  150.5406 LP  0  0  0  0  0  0  0  0  0  0  0  0  # atno 17371 bound_to 10713
  140.8342  133.8255  155.9013 LP  0  0  0  0  0  0  0  0  0  0  0  0  # atno 17394 bound_to 11000
  140.9299  134.2035  157.4871 LP  0  0  0  0  0  0  0  0  0  0  0  0  # atno 17395 bound_to 11000

$$$$
