AV-unprocessed.smi:278|AV-procd|sdf|2092|dock9
  -GOLD-   2262021373D 1   1.00000     0.00000
 Structure written by MMmdl.
 50 54  0  0  0  0  0  0  0  0  1 V2000
  153.0561  138.9394  156.2950 O   0  0  0  0  0  0  0  0  0  0  0  0
  151.5960  139.0201  156.4512 S   0  0  0  0  0  0  0  0  0  0  0  0
  150.8213  137.8483  156.8885 O   0  0  0  0  0  0  0  0  0  0  0  0
  151.1909  140.4438  157.5357 C   0  0  0  0  0  0  0  0  0  0  0  0
  150.7123  141.5688  156.6083 C   0  0  0  0  0  0  0  0  0  0  0  0
  150.0708  140.9498  155.3532 C   0  0  2  0  0  0  0  0  0  0  0  0
  148.6724  140.3698  155.5901 C   0  0  0  0  0  0  0  0  0  0  0  0
  148.5404  139.2885  154.6238 N   0  0  0  0  0  0  0  0  0  0  0  0
  147.4808  138.4387  154.6636 C   0  0  0  0  0  0  0  0  0  0  0  0
  147.0793  137.9439  155.8650 N   0  0  0  0  0  0  0  0  0  0  0  0
  146.0473  137.0991  155.9419 C   0  0  0  0  0  0  0  0  0  0  0  0
  145.2801  136.6281  154.9580 N   0  0  0  0  0  0  0  0  0  0  0  0
  145.6646  137.1311  153.7508 C   0  0  0  0  0  0  0  0  0  0  0  0
  146.7398  138.0352  153.5137 C   0  0  0  0  0  0  0  0  0  0  0  0
  146.8109  138.3291  152.1557 N   0  0  0  0  0  0  0  0  0  0  0  0
  145.8481  137.6289  151.6218 C   0  0  0  0  0  0  0  0  0  0  0  0
  145.1158  136.8732  152.5078 N   0  0  0  0  0  0  0  0  0  0  0  0
  144.0080  135.9911  152.1903 C   0  0  0  0  0  0  0  0  0  0  0  0
  144.2382  134.5393  152.6623 C   0  0  1  0  0  0  0  0  0  0  0  0
  142.9680  133.9773  152.9239 O   0  0  0  0  0  0  0  0  0  0  0  0
  144.9880  133.6489  151.6455 C   0  0  2  0  0  0  0  0  0  0  0  0
  144.2671  133.4600  150.3100 C   0  0  0  0  0  0  0  0  0  0  0  0
  144.8828  132.1848  149.7599 C   0  0  0  0  0  0  0  0  0  0  0  0
  145.4370  131.4809  151.0013 C   0  0  0  0  0  0  0  0  0  0  0  0
  145.0657  132.3046  152.0979 O   0  0  0  0  0  0  0  0  0  0  0  0
  149.8566  138.7985  154.2341 C   0  0  0  0  0  0  0  0  0  0  0  0
  150.8757  139.7279  154.9088 C   0  0  2  0  0  0  0  0  0  0  0  0
  150.0199  141.6773  154.5420 H   0  0  0  0  0  0  0  0  0  0  0  0
  151.6975  139.9967  154.2445 H   0  0  0  0  0  0  0  0  0  0  0  0
  150.3943  140.1339  158.2121 H   0  0  0  0  0  0  0  0  0  0  0  0
  152.0601  140.7240  158.1309 H   0  0  0  0  0  0  0  0  0  0  0  0
  150.0334  142.2525  157.1189 H   0  0  0  0  0  0  0  0  0  0  0  0
  151.5775  142.1565  156.2989 H   0  0  0  0  0  0  0  0  0  0  0  0
  148.5807  139.9667  156.5997 H   0  0  0  0  0  0  0  0  0  0  0  0
  147.8981  141.1253  155.4527 H   0  0  0  0  0  0  0  0  0  0  0  0
  145.8023  136.7489  156.9337 H   0  0  0  0  0  0  0  0  0  0  0  0
  145.6528  137.6360  150.5591 H   0  0  0  0  0  0  0  0  0  0  0  0
  143.1059  136.3998  152.6477 H   0  0  0  0  0  0  0  0  0  0  0  0
  143.8490  136.0156  151.1112 H   0  0  0  0  0  0  0  0  0  0  0  0
  144.7898  134.5487  153.6032 H   0  0  0  0  0  0  0  0  0  0  0  0
  143.0757  133.2668  153.5376 H   0  0  0  0  0  0  0  0  0  0  0  0
  145.9967  134.0295  151.4730 H   0  0  0  0  0  0  0  0  0  0  0  0
  143.1997  133.3081  150.4781 H   0  0  0  0  0  0  0  0  0  0  0  0
  144.3860  134.3099  149.6376 H   0  0  0  0  0  0  0  0  0  0  0  0
  144.1454  131.5773  149.2343 H   0  0  0  0  0  0  0  0  0  0  0  0
  145.6905  132.4125  149.0634 H   0  0  0  0  0  0  0  0  0  0  0  0
  145.0341  130.4757  151.1259 H   0  0  0  0  0  0  0  0  0  0  0  0
  146.5243  131.4089  150.9525 H   0  0  0  0  0  0  0  0  0  0  0  0
  150.0105  137.7544  154.5081 H   0  0  0  0  0  0  0  0  0  0  0  0
  149.9442  138.8727  153.1497 H   0  0  0  0  0  0  0  0  0  0  0  0
  1  2  2  0  0  0  0
  2 27  1  0  0  0  0
  2  3  2  0  0  0  0
  2  4  1  0  0  0  0
  4  5  1  0  0  0  0
  4 30  1  0  0  0  0
  4 31  1  0  0  0  0
  5  6  1  0  0  0  0
  5 32  1  0  0  0  0
  5 33  1  0  0  0  0
  6 28  1  0  0  0  0
  6 27  1  0  0  0  0
  6  7  1  0  0  0  0
  7  8  1  0  0  0  0
  7 34  1  0  0  0  0
  7 35  1  0  0  0  0
  8  9  1  0  0  0  0
  8 26  1  0  0  0  0
  9 14  1  0  0  0  0
  9 10  2  0  0  0  0
 10 11  1  0  0  0  0
 11 12  2  0  0  0  0
 11 36  1  0  0  0  0
 12 13  1  0  0  0  0
 13 17  1  0  0  0  0
 13 14  2  0  0  0  0
 14 15  1  0  0  0  0
 15 16  2  0  0  0  0
 16 17  1  0  0  0  0
 16 37  1  0  0  0  0
 17 18  1  0  0  0  0
 18 19  1  0  0  0  0
 18 38  1  0  0  0  0
 18 39  1  0  0  0  0
 19 20  1  0  0  0  0
 19 21  1  0  0  0  0
 19 40  1  0  0  0  0
 20 41  1  0  0  0  0
 21 25  1  0  0  0  0
 21 22  1  0  0  0  0
 21 42  1  0  0  0  0
 22 23  1  0  0  0  0
 22 43  1  0  0  0  0
 22 44  1  0  0  0  0
 23 24  1  0  0  0  0
 23 45  1  0  0  0  0
 23 46  1  0  0  0  0
 24 25  1  0  0  0  0
 24 47  1  0  0  0  0
 24 48  1  0  0  0  0
 26 27  1  0  0  0  0
 26 49  1  0  0  0  0
 26 50  1  0  0  0  0
 27 29  1  0  0  0  0
M  END
> <s_m_source_file>
AV-unprocessed.smi

> <i_m_source_file_index>
278

> <i_lp_mmshare_version>
43012

> <i_f3d_flags>
0

> <s_epik_input>
W0NIMl0xW0NIMl1TKD1PKSg9TylbQ0BASF0oW0NAQEhdMTIpW0NIMl1OKFtDSDJdMiljKG5bY0hdbjMpYyhjMzQpbltjSF1uNFtDSDJdW0NASF0oW09IXSlbQ0BASF01W0NIMl1bQ0gyXVtDSDJdTzU=

> <s_epik_cmdline>
J2VwaWtfcHl0aG9uJywgJy1waCcsICc3LjAnLCAnLXRuJywgJzgnLCAnLW1hJywgJzIwMCcsICctbWV0YWxfYmluZGluZycsICctaW1hZScsICc8aW5maWxlLm1hZT4nLCAnLW9tYWUnLCAnPG91dGZpbGUubWFlPic=

> <r_lp_tautomer_probability>
1

> <r_epik_Ionization_Penalty>
0.000636766

> <r_epik_Ionization_Penalty_Charging>
0

> <r_epik_Ionization_Penalty_Neutral>
0.000636766

> <r_epik_State_Penalty>
0.000329976

> <r_epik_Charging_Adjusted_Penalty>
0.000329976

> <i_epik_Tot_Q>
0

> <i_epik_Tot_abs_Q>
0

> <r_epik_Metal_State_Penalty>
-0

> <b_epik_Metal_Only>
0

> <s_lp_Force_Field>
OPLS_2005

> <r_lp_Energy>
49.0353

> <b_lp_Chiralities_Consistent>
1

> <s_lp_Variant>
AV-unprocessed.smi:278-6

> <Gold.Version>
5.8.1

> <Gold.Id.Protein>
6NUR|6NUR_protein|mol2

> <Gold.PLP.Fitness>
41.7641

> <Gold.PLP.PLP>
-35.7368

> <Gold.PLP.part.hbond>
-1.9983

> <Gold.PLP.part.metal>
0.0000

> <Gold.PLP.part.buried>
-1.2408

> <Gold.PLP.part.nonpolar>
-33.7043

> <Gold.PLP.part.repulsive>
0.9037

> <Gold.PLP.ligand.clash>
0.0000

> <Gold.PLP.ligand.torsion>
1.4546

> <Gold.PLP.Chemscore.Hbond>
2.0000

> <Gold.PLP.Chemscore.CHOScore>
0.8775

> <Gold.PLP.Chemscore.Metal>
0.0000

> <Gold.Chemscore.Hbonds>
donor molecule, donor type, donor heavy atom, donor atom, acceptor molecule, acceptor atom, score
      L1  H    20    41       P1 10957  1.00
      P1  H  7997  8008       L1     1  0.86
      L1  C    16    37       P1 10171  0.81

> <Gold.PLP.Chemscore.Internal.Correction>
0.3038

> <Gold.Rescore>
     Score         DG    S(hbond)    S(metal)    S(lipo)     H(rot)  DE(clash)    DE(int)     intcor
     13.01     -14.56       1.78        0.00      73.40       2.13       0.05       1.50       ----

> <Gold.Chemscore.Fitness>
13.0066

> <Gold.Chemscore.DG>
-14.5580

> <Gold.Chemscore.ZeroCoef>
-5.4800

> <Gold.Chemscore.Hbond>
1.7830

> <Gold.Chemscore.Metal>
0.0000

> <Gold.Chemscore.Lipo>
73.3971

> <Gold.Chemscore.Internal_Hbond>
0.0000

> <Gold.Chemscore.DEClash>
0.0517

> <Gold.Chemscore.DEInternal>
1.4997

> <Gold.Chemscore.Rot>
2.1346

> <Gold.Chemscore.Internal.Correction>
   9.000000E+99

> <Gold.Chemscore.Hbonds>
donor molecule, donor type, donor heavy atom, donor atom, acceptor molecule, acceptor atom, score
      L1  H    20    41       P1 10957  0.95
      P1  H  7997  8008       L1     1  0.87

> <Gold.Chemscore.Hbond.Weighted>
-5.9552

> <Gold.Chemscore.Metal.Weighted>
-0.0000

> <Gold.Chemscore.Lipo.Weighted>
-8.5875

> <Gold.Chemscore.Internal_Hbond.Weighted>
0.0000

> <Gold.Chemscore.DEClash.Weighted>
0.0517

> <Gold.Chemscore.DEInternal.Weighted>
1.4997

> <Gold.Chemscore.Rot.Weighted>
5.4646

> <Gold.Chemscore.Internal.Correction.Weighted>
   9.000000E+99

> <Gold.Protein.RotatedTorsions>
[ 6907 6896 6895 6894 ] final -165.78 input  -60.11 | X-H torsion
[ 7974 7965 7964 7962 ] final   30.29 input  175.53 | X-H torsion
[ 8008 7997 7996 7995 ] final  -23.82 input   59.86 | X-H torsion
[ 10167 10162 10161 10158 ] final    1.12 input  -65.29 | X-H torsion
[ 10718 10713 10712 10709 ] final -179.31 input   66.30 | X-H torsion
[ 10763 10752 10751 10750 ] final    6.83 input  -60.55 | X-H torsion
[ 11005 11000 10999 10996 ] final  -85.65 input  -57.11 | X-H torsion

> <Gold.Protein.ActiveResidues>
 VAL166  LYS551  ARG553  GLY616  TRP617  ASP618  TYR619  PRO620  LYS621  CYS622 
 ASP623  PHE694  ASN695  SER759  ASP760  ASP761  ALA762  ILE779  LEU786  VAL792 
 PHE793  MET794  SER795  GLU796  ALA797  LYS798  CYS799  TRP800  GLU811  SER814 

> <Gold.Protein.RotatedAtoms>
  151.4332  133.3664  159.2771 H   0  0  0  0  0  0  0  0  0  0  0  0  # atno 6907 bound_to 6896
  150.9210  134.8629  159.7500 H   0  0  0  0  0  0  0  0  0  0  0  0  # atno 6908 bound_to 6896
  152.4982  134.4269  159.9551 H   0  0  0  0  0  0  0  0  0  0  0  0  # atno 6909 bound_to 6896
  146.1621  139.6808  142.9027 H   0  0  0  0  0  0  0  0  0  0  0  0  # atno 7974 bound_to 7965
  154.4563  140.1970  156.0369 H   0  0  0  0  0  0  0  0  0  0  0  0  # atno 8008 bound_to 7997
  156.0753  140.3279  155.7598 H   0  0  0  0  0  0  0  0  0  0  0  0  # atno 8009 bound_to 7997
  155.5198  140.0569  157.2899 H   0  0  0  0  0  0  0  0  0  0  0  0  # atno 8010 bound_to 7997
  140.6697  143.7081  150.7898 H   0  0  0  0  0  0  0  0  0  0  0  0  # atno 10167 bound_to 10162
  156.8572  130.9739  151.3087 H   0  0  0  0  0  0  0  0  0  0  0  0  # atno 10718 bound_to 10713
  153.2433  135.6906  153.7759 H   0  0  0  0  0  0  0  0  0  0  0  0  # atno 10763 bound_to 10752
  153.6881  135.3317  155.3196 H   0  0  0  0  0  0  0  0  0  0  0  0  # atno 10764 bound_to 10752
  154.8364  135.4538  154.1363 H   0  0  0  0  0  0  0  0  0  0  0  0  # atno 10765 bound_to 10752
  141.1639  133.7411  156.9045 H   0  0  0  0  0  0  0  0  0  0  0  0  # atno 11005 bound_to 11000
  145.4563  141.0431  143.2776 LP  0  0  0  0  0  0  0  0  0  0  0  0  # atno 17320 bound_to 7965
  144.8041  139.6085  143.7059 LP  0  0  0  0  0  0  0  0  0  0  0  0  # atno 17321 bound_to 7965
  140.0765  143.5010  152.2553 LP  0  0  0  0  0  0  0  0  0  0  0  0  # atno 17342 bound_to 10162
  139.5961  144.7567  151.3284 LP  0  0  0  0  0  0  0  0  0  0  0  0  # atno 17343 bound_to 10162
  157.6270  130.8699  149.9207 LP  0  0  0  0  0  0  0  0  0  0  0  0  # atno 17370 bound_to 10713
  156.0796  130.3674  150.0607 LP  0  0  0  0  0  0  0  0  0  0  0  0  # atno 17371 bound_to 10713
  140.1559  134.9198  157.2653 LP  0  0  0  0  0  0  0  0  0  0  0  0  # atno 17394 bound_to 11000
  140.2668  134.3507  155.7387 LP  0  0  0  0  0  0  0  0  0  0  0  0  # atno 17395 bound_to 11000

$$$$
