AV-unprocessed.smi:2319|AV-procd|sdf|9278|dock3
  -GOLD-   2272012503D 1   1.00000     0.00000
 Structure written by MMmdl.
 46 47  0  0  0  0  0  0  0  0  1 V2000
  147.5007  141.2340  154.1416 C   0  0  0  0  0  0  0  0  0  0  0  0
  147.9444  139.7692  154.2139 C   0  0  0  0  0  0  0  0  0  0  0  0
  149.4068  139.6127  154.4726 C   0  0  0  0  0  0  0  0  0  0  0  0
  150.1085  140.7392  154.7653 O   0  0  0  0  0  0  0  0  0  0  0  0
  151.4513  140.3947  154.9839 N   0  0  0  0  0  0  0  0  0  0  0  0
  151.5383  139.0822  154.8250 C   0  0  0  0  0  0  0  0  0  0  0  0
  152.8595  138.4044  155.0591 C   0  0  0  0  0  0  0  0  0  0  0  0
  150.2629  138.5513  154.4720 C   0  0  0  0  0  0  0  0  0  0  0  0
  149.8811  137.2076  154.2337 N   0  0  0  0  0  0  0  0  0  0  0  0
  150.4291  136.1097  154.7752 C   0  0  0  0  0  0  0  0  0  0  0  0
  151.3698  136.1108  155.5685 O   0  0  0  0  0  0  0  0  0  0  0  0
  149.8415  134.9958  154.3184 N   0  0  0  0  0  0  0  0  0  0  0  0
  150.2399  133.6330  154.6645 C   0  0  1  0  0  0  0  0  0  0  0  0
  150.6354  133.5195  156.1234 C   0  0  0  0  0  0  0  0  0  0  0  0
  150.4221  132.0312  156.4273 C   0  0  0  0  0  0  0  0  0  0  0  0
  151.6912  131.2031  156.1636 C   0  0  0  0  0  0  0  0  0  0  0  0
  149.8981  131.7968  157.8526 C   0  0  0  0  0  0  0  0  0  0  0  0
  149.4294  131.5913  155.5014 O   0  0  0  0  0  0  0  0  0  0  0  0
  149.0973  132.6008  154.5493 C   0  0  0  0  0  0  0  0  0  0  0  0
  147.7086  133.1421  154.9500 C   0  0  0  0  0  0  0  0  0  0  0  0
  149.0429  131.9410  153.1624 C   0  0  0  0  0  0  0  0  0  0  0  0
  146.4310  141.3077  153.9456 H   0  0  0  0  0  0  0  0  0  0  0  0
  148.0234  141.7638  153.3446 H   0  0  0  0  0  0  0  0  0  0  0  0
  147.7037  141.7538  155.0787 H   0  0  0  0  0  0  0  0  0  0  0  0
  147.3846  139.2596  154.9985 H   0  0  0  0  0  0  0  0  0  0  0  0
  147.6828  139.2688  153.2812 H   0  0  0  0  0  0  0  0  0  0  0  0
  152.7234  137.4118  155.4887 H   0  0  0  0  0  0  0  0  0  0  0  0
  153.4840  138.9737  155.7483 H   0  0  0  0  0  0  0  0  0  0  0  0
  153.4135  138.2951  154.1268 H   0  0  0  0  0  0  0  0  0  0  0  0
  149.1994  137.0626  153.5036 H   0  0  0  0  0  0  0  0  0  0  0  0
  149.0778  135.0933  153.6658 H   0  0  0  0  0  0  0  0  0  0  0  0
  151.0925  133.3196  154.0585 H   0  0  0  0  0  0  0  0  0  0  0  0
  151.6558  133.8549  156.3134 H   0  0  0  0  0  0  0  0  0  0  0  0
  149.9723  134.1304  156.7380 H   0  0  0  0  0  0  0  0  0  0  0  0
  152.5006  131.4975  156.8322 H   0  0  0  0  0  0  0  0  0  0  0  0
  152.0447  131.3273  155.1396 H   0  0  0  0  0  0  0  0  0  0  0  0
  151.5051  130.1397  156.3175 H   0  0  0  0  0  0  0  0  0  0  0  0
  150.6172  132.1377  158.5980 H   0  0  0  0  0  0  0  0  0  0  0  0
  149.7078  130.7386  158.0332 H   0  0  0  0  0  0  0  0  0  0  0  0
  148.9625  132.3308  158.0228 H   0  0  0  0  0  0  0  0  0  0  0  0
  147.3522  133.8956  154.2470 H   0  0  0  0  0  0  0  0  0  0  0  0
  147.7223  133.5923  155.9426 H   0  0  0  0  0  0  0  0  0  0  0  0
  146.9694  132.3409  154.9680 H   0  0  0  0  0  0  0  0  0  0  0  0
  148.7905  132.6661  152.3885 H   0  0  0  0  0  0  0  0  0  0  0  0
  148.2926  131.1506  153.1315 H   0  0  0  0  0  0  0  0  0  0  0  0
  150.0016  131.4934  152.8993 H   0  0  0  0  0  0  0  0  0  0  0  0
  1  2  1  0  0  0  0
  1 22  1  0  0  0  0
  1 23  1  0  0  0  0
  1 24  1  0  0  0  0
  2  3  1  0  0  0  0
  2 25  1  0  0  0  0
  2 26  1  0  0  0  0
  3  8  2  0  0  0  0
  3  4  1  0  0  0  0
  4  5  1  0  0  0  0
  5  6  2  0  0  0  0
  6  7  1  0  0  0  0
  6  8  1  0  0  0  0
  7 27  1  0  0  0  0
  7 28  1  0  0  0  0
  7 29  1  0  0  0  0
  8  9  1  0  0  0  0
  9 10  1  0  0  0  0
  9 30  1  0  0  0  0
 10 11  2  0  0  0  0
 10 12  1  0  0  0  0
 12 13  1  0  0  0  0
 12 31  1  0  0  0  0
 13 19  1  0  0  0  0
 13 14  1  0  0  0  0
 13 32  1  0  0  0  0
 14 15  1  0  0  0  0
 14 33  1  0  0  0  0
 14 34  1  0  0  0  0
 15 16  1  0  0  0  0
 15 17  1  0  0  0  0
 15 18  1  0  0  0  0
 16 35  1  0  0  0  0
 16 36  1  0  0  0  0
 16 37  1  0  0  0  0
 17 38  1  0  0  0  0
 17 39  1  0  0  0  0
 17 40  1  0  0  0  0
 18 19  1  0  0  0  0
 19 20  1  0  0  0  0
 19 21  1  0  0  0  0
 20 41  1  0  0  0  0
 20 42  1  0  0  0  0
 20 43  1  0  0  0  0
 21 44  1  0  0  0  0
 21 45  1  0  0  0  0
 21 46  1  0  0  0  0
M  END
> <s_m_source_file>
AV-unprocessed.smi

> <i_m_source_file_index>
2319

> <i_lp_mmshare_version>
43012

> <i_f3d_flags>
0

> <s_epik_input>
W0NIM11bQ0gyXWMxb25jKFtDSDNdKWMxW05IXUMoPU8pW05IXVtDQEBIXShDKE8yKShbQ0gzXSlbQ0gzXSlbQ0gyXUMyKFtDSDNdKVtDSDNd

> <s_epik_cmdline>
J2VwaWtfcHl0aG9uJywgJy1waCcsICc3LjAnLCAnLXRuJywgJzgnLCAnLW1hJywgJzIwMCcsICctbWV0YWxfYmluZGluZycsICctaW1hZScsICc8aW5maWxlLm1hZT4nLCAnLW9tYWUnLCAnPG91dGZpbGUubWFlPic=

> <r_lp_tautomer_probability>
1

> <r_epik_Ionization_Penalty>
3.17207e-05

> <r_epik_Ionization_Penalty_Charging>
0

> <r_epik_Ionization_Penalty_Neutral>
3.17207e-05

> <r_epik_State_Penalty>
-0

> <r_epik_Charging_Adjusted_Penalty>
0

> <i_epik_Tot_Q>
0

> <i_epik_Tot_abs_Q>
0

> <r_epik_Metal_State_Penalty>
-0

> <b_epik_Metal_Only>
0

> <s_lp_Force_Field>
OPLS_2005

> <r_lp_Energy>
19.7342

> <b_lp_Chiralities_Consistent>
1

> <s_lp_Variant>
AV-unprocessed.smi:2319-2

> <Gold.Version>
5.8.1

> <Gold.Id.Protein>
6NUR|6NUR_protein|mol2

> <Gold.PLP.Fitness>
40.2661

> <Gold.PLP.PLP>
-34.0025

> <Gold.PLP.part.hbond>
-4.9348

> <Gold.PLP.part.metal>
0.0000

> <Gold.PLP.part.buried>
-2.9576

> <Gold.PLP.part.nonpolar>
-26.3187

> <Gold.PLP.part.repulsive>
0.3051

> <Gold.PLP.ligand.clash>
0.0010

> <Gold.PLP.ligand.torsion>
0.5936

> <Gold.PLP.Chemscore.Hbond>
2.3926

> <Gold.PLP.Chemscore.CHOScore>
0.0000

> <Gold.PLP.Chemscore.Metal>
0.0000

> <Gold.Chemscore.Hbonds>
donor molecule, donor type, donor heavy atom, donor atom, acceptor molecule, acceptor atom, score
      L1  H     9    30       P1  7948  0.83
      L1  H    12    31       P1  7948  0.48
      P1  H  7989  7998       L1     5  0.20
      P1  H 10752 10764       L1    11  1.00

> <Gold.PLP.Chemscore.Internal.Correction>
0.2740

> <Gold.Rescore>
     Score         DG    S(hbond)    S(metal)    S(lipo)     H(rot)  DE(clash)    DE(int)     intcor
     14.82     -18.47       1.94        0.00      81.01       1.16       0.20       3.45       ----

> <Gold.Chemscore.Fitness>
14.8210

> <Gold.Chemscore.DG>
-18.4722

> <Gold.Chemscore.ZeroCoef>
-5.4800

> <Gold.Chemscore.Hbond>
1.9403

> <Gold.Chemscore.Metal>
0.0000

> <Gold.Chemscore.Lipo>
81.0131

> <Gold.Chemscore.Internal_Hbond>
0.0000

> <Gold.Chemscore.DEClash>
0.2045

> <Gold.Chemscore.DEInternal>
3.4467

> <Gold.Chemscore.Rot>
1.1590

> <Gold.Chemscore.Internal.Correction>
   9.000000E+99

> <Gold.Chemscore.Hbonds>
donor molecule, donor type, donor heavy atom, donor atom, acceptor molecule, acceptor atom, score
      L1  H     9    30       P1  7948  0.81
      L1  H    12    31       P1  7948  0.19
      P1  H 10752 10764       L1    11  0.91

> <Gold.Chemscore.Hbond.Weighted>
-6.4808

> <Gold.Chemscore.Metal.Weighted>
-0.0000

> <Gold.Chemscore.Lipo.Weighted>
-9.4785

> <Gold.Chemscore.Internal_Hbond.Weighted>
0.0000

> <Gold.Chemscore.DEClash.Weighted>
0.2045

> <Gold.Chemscore.DEInternal.Weighted>
3.4467

> <Gold.Chemscore.Rot.Weighted>
2.9671

> <Gold.Chemscore.Internal.Correction.Weighted>
   9.000000E+99

> <Gold.Protein.RotatedTorsions>
[ 6907 6896 6895 6894 ] final  169.13 input  -60.11 | X-H torsion
[ 7974 7965 7964 7962 ] final  125.39 input  175.53 | X-H torsion
[ 8008 7997 7996 7995 ] final   25.56 input   59.86 | X-H torsion
[ 10167 10162 10161 10158 ] final -102.69 input  -65.29 | X-H torsion
[ 10718 10713 10712 10709 ] final   25.87 input   66.30 | X-H torsion
[ 10763 10752 10751 10750 ] final  -43.50 input  -60.55 | X-H torsion
[ 11005 11000 10999 10996 ] final  -20.24 input  -57.11 | X-H torsion

> <Gold.Protein.ActiveResidues>
 VAL166  LYS551  ARG553  GLY616  TRP617  ASP618  TYR619  PRO620  LYS621  CYS622 
 ASP623  PHE694  ASN695  SER759  ASP760  ASP761  ALA762  ILE779  LEU786  VAL792 
 PHE793  MET794  SER795  GLU796  ALA797  LYS798  CYS799  TRP800  GLU811  SER814 

> <Gold.Protein.RotatedAtoms>
  151.8367  133.3417  159.3630 H   0  0  0  0  0  0  0  0  0  0  0  0  # atno 6907 bound_to 6896
  150.7247  134.5431  159.5766 H   0  0  0  0  0  0  0  0  0  0  0  0  # atno 6908 bound_to 6896
  152.2895  134.7738  160.0432 H   0  0  0  0  0  0  0  0  0  0  0  0  # atno 6909 bound_to 6896
  145.0736  139.3711  143.4945 H   0  0  0  0  0  0  0  0  0  0  0  0  # atno 7974 bound_to 7965
  155.0136  140.3139  155.4820 H   0  0  0  0  0  0  0  0  0  0  0  0  # atno 8008 bound_to 7997
  156.2904  140.2210  156.5193 H   0  0  0  0  0  0  0  0  0  0  0  0  # atno 8009 bound_to 7997
  154.7513  140.0466  157.0883 H   0  0  0  0  0  0  0  0  0  0  0  0  # atno 8010 bound_to 7997
  140.2280  143.3627  152.0912 H   0  0  0  0  0  0  0  0  0  0  0  0  # atno 10167 bound_to 10162
  157.1992  130.6882  149.6181 H   0  0  0  0  0  0  0  0  0  0  0  0  # atno 10718 bound_to 10713
  153.9966  135.6699  153.4757 H   0  0  0  0  0  0  0  0  0  0  0  0  # atno 10763 bound_to 10752
  153.0681  135.4989  154.8241 H   0  0  0  0  0  0  0  0  0  0  0  0  # atno 10764 bound_to 10752
  154.7078  135.3091  154.9207 H   0  0  0  0  0  0  0  0  0  0  0  0  # atno 10765 bound_to 10752
  140.8445  133.7902  155.9897 H   0  0  0  0  0  0  0  0  0  0  0  0  # atno 11005 bound_to 11000
  146.3529  140.0492  142.8637 LP  0  0  0  0  0  0  0  0  0  0  0  0  # atno 17320 bound_to 7965
  145.1263  140.9492  143.4571 LP  0  0  0  0  0  0  0  0  0  0  0  0  # atno 17321 bound_to 7965
  139.5120  144.6910  151.5760 LP  0  0  0  0  0  0  0  0  0  0  0  0  # atno 17342 bound_to 10162
  140.6206  143.9265  150.6523 LP  0  0  0  0  0  0  0  0  0  0  0  0  # atno 17343 bound_to 10162
  155.9702  130.4588  150.6014 LP  0  0  0  0  0  0  0  0  0  0  0  0  # atno 17370 bound_to 10713
  157.3784  131.0777  151.1498 LP  0  0  0  0  0  0  0  0  0  0  0  0  # atno 17371 bound_to 10713
  140.8858  134.2555  157.5120 LP  0  0  0  0  0  0  0  0  0  0  0  0  # atno 17394 bound_to 11000
  139.8703  134.9637  156.4472 LP  0  0  0  0  0  0  0  0  0  0  0  0  # atno 17395 bound_to 11000

$$$$
