AV-unprocessed.smi:301|AV-procd|sdf|2271|dock1
  -GOLD-   2262022163D 1   1.00000     0.00000
 Structure written by MMmdl.
 32 33  0  0  0  0  0  0  0  0  1 V2000
  147.1203  138.8983  153.0095 C   0  0  0  0  0  0  0  0  0  0  0  0
  148.0309  139.8300  153.7330 C   0  0  0  0  0  0  0  0  0  0  0  0
  149.1281  139.4333  154.3825 N   0  0  0  0  0  0  0  0  0  0  0  0
  149.8096  140.4935  154.9897 C   0  0  0  0  0  0  0  0  0  0  0  0
  151.0676  140.2288  155.7680 C   0  0  0  0  0  0  0  0  0  0  0  0
  150.9363  140.7024  157.2204 C   0  0  0  0  0  0  0  0  0  0  0  0
  149.8335  140.7635  157.7661 O   0  0  0  0  0  0  0  0  0  0  0  0
  152.0795  141.0319  157.8412 N   0  0  0  0  0  0  0  0  0  0  0  0
  152.1779  141.5180  159.2126 C   0  0  0  0  0  0  0  0  0  0  0  0
  152.6289  142.9872  159.2587 C   0  0  1  0  0  0  0  0  0  0  0  0
  151.8779  143.8906  158.2817 C   0  0  0  0  0  0  0  0  0  0  0  0
  152.0149  145.2399  158.9482 C   0  0  0  0  0  0  0  0  0  0  0  0
  151.8663  144.8719  160.4210 C   0  0  0  0  0  0  0  0  0  0  0  0
  152.3799  143.5482  160.5468 O   0  0  0  0  0  0  0  0  0  0  0  0
  149.2106  141.7112  154.7779 C   0  0  0  0  0  0  0  0  0  0  0  0
  147.7619  141.5662  153.8210 S   0  0  0  0  0  0  0  0  0  0  0  0
  147.6262  137.9557  152.7979 H   0  0  0  0  0  0  0  0  0  0  0  0
  146.8027  139.3423  152.0658 H   0  0  0  0  0  0  0  0  0  0  0  0
  146.2383  138.6945  153.6167 H   0  0  0  0  0  0  0  0  0  0  0  0
  151.3040  139.1641  155.7732 H   0  0  0  0  0  0  0  0  0  0  0  0
  151.9126  140.7294  155.2927 H   0  0  0  0  0  0  0  0  0  0  0  0
  152.9426  140.9543  157.3227 H   0  0  0  0  0  0  0  0  0  0  0  0
  151.2178  141.4012  159.7180 H   0  0  0  0  0  0  0  0  0  0  0  0
  152.8886  140.8904  159.7508 H   0  0  0  0  0  0  0  0  0  0  0  0
  153.6988  143.0670  159.0585 H   0  0  0  0  0  0  0  0  0  0  0  0
  152.2937  143.8661  157.2741 H   0  0  0  0  0  0  0  0  0  0  0  0
  150.8255  143.6088  158.2248 H   0  0  0  0  0  0  0  0  0  0  0  0
  153.0078  145.6511  158.7606 H   0  0  0  0  0  0  0  0  0  0  0  0
  151.2733  145.9646  158.6113 H   0  0  0  0  0  0  0  0  0  0  0  0
  152.3884  145.5674  161.0785 H   0  0  0  0  0  0  0  0  0  0  0  0
  150.8137  144.8615  160.7064 H   0  0  0  0  0  0  0  0  0  0  0  0
  149.5299  142.6805  155.1316 H   0  0  0  0  0  0  0  0  0  0  0  0
  1  2  1  0  0  0  0
  1 17  1  0  0  0  0
  1 18  1  0  0  0  0
  1 19  1  0  0  0  0
  2 16  1  0  0  0  0
  2  3  2  0  0  0  0
  3  4  1  0  0  0  0
  4  5  1  0  0  0  0
  4 15  2  0  0  0  0
  5  6  1  0  0  0  0
  5 20  1  0  0  0  0
  5 21  1  0  0  0  0
  6  7  2  0  0  0  0
  6  8  1  0  0  0  0
  8  9  1  0  0  0  0
  8 22  1  0  0  0  0
  9 10  1  0  0  0  0
  9 23  1  0  0  0  0
  9 24  1  0  0  0  0
 10 14  1  0  0  0  0
 10 11  1  0  0  0  0
 10 25  1  0  0  0  0
 11 12  1  0  0  0  0
 11 26  1  0  0  0  0
 11 27  1  0  0  0  0
 12 13  1  0  0  0  0
 12 28  1  0  0  0  0
 12 29  1  0  0  0  0
 13 14  1  0  0  0  0
 13 30  1  0  0  0  0
 13 31  1  0  0  0  0
 15 16  1  0  0  0  0
 15 32  1  0  0  0  0
M  END
> <s_m_source_file>
AV-unprocessed.smi

> <i_m_source_file_index>
301

> <i_lp_mmshare_version>
43012

> <i_f3d_flags>
0

> <s_epik_input>
W0NIM11jMW5jKFtjSF1zMSlbQ0gyXUMoPU8pW05IXVtDSDJdW0NAQEhdMltDSDJdW0NIMl1bQ0gyXU8y

> <s_epik_cmdline>
J2VwaWtfcHl0aG9uJywgJy1waCcsICc3LjAnLCAnLXRuJywgJzgnLCAnLW1hJywgJzIwMCcsICctbWV0YWxfYmluZGluZycsICctaW1hZScsICc8aW5maWxlLm1hZT4nLCAnLW9tYWUnLCAnPG91dGZpbGUubWFlPic=

> <r_lp_tautomer_probability>
1

> <r_epik_Ionization_Penalty>
6.06873e-05

> <r_epik_Ionization_Penalty_Charging>
0

> <r_epik_Ionization_Penalty_Neutral>
6.06873e-05

> <r_epik_State_Penalty>
-0

> <r_epik_Charging_Adjusted_Penalty>
0

> <i_epik_Tot_Q>
0

> <i_epik_Tot_abs_Q>
0

> <r_epik_Metal_State_Penalty>
-0

> <b_epik_Metal_Only>
0

> <s_lp_Force_Field>
OPLS_2005

> <r_lp_Energy>
16.0562

> <b_lp_Chiralities_Consistent>
1

> <s_lp_Variant>
AV-unprocessed.smi:301-2

> <Gold.Version>
5.8.1

> <Gold.Id.Protein>
6NUR|6NUR_protein|mol2

> <Gold.PLP.Fitness>
39.1710

> <Gold.PLP.PLP>
-37.1524

> <Gold.PLP.part.hbond>
0.0000

> <Gold.PLP.part.metal>
0.0000

> <Gold.PLP.part.buried>
-2.8685

> <Gold.PLP.part.nonpolar>
-34.6034

> <Gold.PLP.part.repulsive>
0.2907

> <Gold.PLP.ligand.clash>
0.0000

> <Gold.PLP.ligand.torsion>
0.4963

> <Gold.PLP.Chemscore.Hbond>
0.0000

> <Gold.PLP.Chemscore.CHOScore>
1.0000

> <Gold.PLP.Chemscore.Metal>
0.0000

> <Gold.Chemscore.Hbonds>
donor molecule, donor type, donor heavy atom, donor atom, acceptor molecule, acceptor atom, score
      L1  C    15    32       P1  8028  1.00

> <Gold.PLP.Chemscore.Internal.Correction>
0.0113

> <Gold.Rescore>
     Score         DG    S(hbond)    S(metal)    S(lipo)     H(rot)  DE(clash)    DE(int)     intcor
     13.07     -13.59       0.00        0.00     102.33       1.51       0.10       0.42       ----

> <Gold.Chemscore.Fitness>
13.0655

> <Gold.Chemscore.DG>
-13.5854

> <Gold.Chemscore.ZeroCoef>
-5.4800

> <Gold.Chemscore.Hbond>
0.0000

> <Gold.Chemscore.Metal>
0.0000

> <Gold.Chemscore.Lipo>
102.3281

> <Gold.Chemscore.Internal_Hbond>
0.0000

> <Gold.Chemscore.DEClash>
0.1027

> <Gold.Chemscore.DEInternal>
0.4172

> <Gold.Chemscore.Rot>
1.5106

> <Gold.Chemscore.Internal.Correction>
   9.000000E+99

> <Gold.Chemscore.Hbond.Weighted>
-0.0000

> <Gold.Chemscore.Metal.Weighted>
-0.0000

> <Gold.Chemscore.Lipo.Weighted>
-11.9724

> <Gold.Chemscore.Internal_Hbond.Weighted>
0.0000

> <Gold.Chemscore.DEClash.Weighted>
0.1027

> <Gold.Chemscore.DEInternal.Weighted>
0.4172

> <Gold.Chemscore.Rot.Weighted>
3.8670

> <Gold.Chemscore.Internal.Correction.Weighted>
   9.000000E+99

> <Gold.Protein.RotatedTorsions>
[ 6907 6896 6895 6894 ] final  172.82 input  -60.11 | X-H torsion
[ 7974 7965 7964 7962 ] final   73.95 input  175.53 | X-H torsion
[ 8008 7997 7996 7995 ] final   43.83 input   59.86 | X-H torsion
[ 10167 10162 10161 10158 ] final  -88.35 input  -65.29 | X-H torsion
[ 10718 10713 10712 10709 ] final  -57.53 input   66.30 | X-H torsion
[ 10763 10752 10751 10750 ] final    9.32 input  -60.55 | X-H torsion
[ 11005 11000 10999 10996 ] final  -26.87 input  -57.11 | X-H torsion

> <Gold.Protein.ActiveResidues>
 VAL166  LYS551  ARG553  GLY616  TRP617  ASP618  TYR619  PRO620  LYS621  CYS622 
 ASP623  PHE694  ASN695  SER759  ASP760  ASP761  ALA762  ILE779  LEU786  VAL792 
 PHE793  MET794  SER795  GLU796  ALA797  LYS798  CYS799  TRP800  GLU811  SER814 

> <Gold.Protein.RotatedAtoms>
  151.7781  133.3347  159.3463 H   0  0  0  0  0  0  0  0  0  0  0  0  # atno 6907 bound_to 6896
  150.7436  134.5956  159.6019 H   0  0  0  0  0  0  0  0  0  0  0  0  # atno 6908 bound_to 6896
  152.3295  134.7280  160.0344 H   0  0  0  0  0  0  0  0  0  0  0  0  # atno 6909 bound_to 6896
  145.7344  139.2696  143.1522 H   0  0  0  0  0  0  0  0  0  0  0  0  # atno 7974 bound_to 7965
  155.3092  140.3390  155.4244 H   0  0  0  0  0  0  0  0  0  0  0  0  # atno 8008 bound_to 7997
  156.1964  140.1716  156.8028 H   0  0  0  0  0  0  0  0  0  0  0  0  # atno 8009 bound_to 7997
  154.5504  140.0707  156.8641 H   0  0  0  0  0  0  0  0  0  0  0  0  # atno 8010 bound_to 7997
  140.3756  143.2773  151.9447 H   0  0  0  0  0  0  0  0  0  0  0  0  # atno 10167 bound_to 10162
  156.1204  130.4167  150.0453 H   0  0  0  0  0  0  0  0  0  0  0  0  # atno 10718 bound_to 10713
  153.2153  135.6874  153.8065 H   0  0  0  0  0  0  0  0  0  0  0  0  # atno 10763 bound_to 10752
  153.7283  135.3256  155.3282 H   0  0  0  0  0  0  0  0  0  0  0  0  # atno 10764 bound_to 10752
  154.8242  135.4629  154.0977 H   0  0  0  0  0  0  0  0  0  0  0  0  # atno 10765 bound_to 10752
  140.9068  133.7487  156.0617 H   0  0  0  0  0  0  0  0  0  0  0  0  # atno 11005 bound_to 11000
  146.0507  140.8072  142.9783 LP  0  0  0  0  0  0  0  0  0  0  0  0  # atno 17320 bound_to 7965
  144.6885  140.3049  143.7257 LP  0  0  0  0  0  0  0  0  0  0  0  0  # atno 17321 bound_to 7965
  139.4800  144.5867  151.7842 LP  0  0  0  0  0  0  0  0  0  0  0  0  # atno 17342 bound_to 10162
  140.4990  144.1198  150.5966 LP  0  0  0  0  0  0  0  0  0  0  0  0  # atno 17343 bound_to 10162
  156.8393  130.9420  151.3633 LP  0  0  0  0  0  0  0  0  0  0  0  0  # atno 17370 bound_to 10713
  157.6387  130.8788  149.9407 LP  0  0  0  0  0  0  0  0  0  0  0  0  # atno 17371 bound_to 10713
  140.8161  134.3343  157.5397 LP  0  0  0  0  0  0  0  0  0  0  0  0  # atno 17394 bound_to 11000
  139.8751  134.9282  156.3445 LP  0  0  0  0  0  0  0  0  0  0  0  0  # atno 17395 bound_to 11000

$$$$
