AV-unprocessed.smi:101|AV-procd|sdf|916|dock2
  -GOLD-   2262017413D 1   1.00000     0.00000
 Structure written by MMmdl.
 44 46  0  0  0  0  0  0  0  0  1 V2000
  146.6546  142.9631  157.5455 C   0  0  0  0  0  0  0  0  0  0  0  0
  146.7407  142.2344  156.2146 C   0  0  0  0  0  0  0  0  0  0  0  0
  147.8831  141.6410  155.7830 C   0  0  0  0  0  0  0  0  0  0  0  0
  147.9916  140.9691  154.5718 N   0  0  0  0  0  0  0  0  0  0  0  0
  149.2830  140.3131  154.1217 C   0  0  1  0  0  0  0  0  0  0  0  0
  150.3318  140.7323  154.9477 O   0  0  0  0  0  0  0  0  0  0  0  0
  150.8137  139.6331  155.7126 C   0  0  2  0  0  0  0  0  0  0  0  0
  152.2686  139.8736  156.1387 C   0  0  0  0  0  0  0  0  0  0  0  0
  152.3117  140.4105  157.4515 O   0  0  0  0  0  0  0  0  0  0  0  0
  151.7337  141.5966  157.7176 C   0  0  0  0  0  0  0  0  0  0  0  0
  151.0067  142.1958  156.9226 O   0  0  0  0  0  0  0  0  0  0  0  0
  152.0675  142.1099  159.0774 C   0  0  0  0  0  0  0  0  0  0  0  0
  151.5703  143.3703  159.4840 C   0  0  0  0  0  0  0  0  0  0  0  0
  151.8710  143.8816  160.7614 C   0  0  0  0  0  0  0  0  0  0  0  0
  152.6726  143.1393  161.6479 C   0  0  0  0  0  0  0  0  0  0  0  0
  153.1734  141.8843  161.2557 C   0  0  0  0  0  0  0  0  0  0  0  0
  152.8735  141.3707  159.9787 C   0  0  0  0  0  0  0  0  0  0  0  0
  150.5794  138.4303  154.8003 C   0  0  1  0  0  0  0  0  0  0  0  0
  150.5961  137.1968  155.4943 O   0  0  0  0  0  0  0  0  0  0  0  0
  149.2287  138.7656  154.1761 C   0  0  1  0  0  0  0  0  0  0  0  0
  148.1449  138.2637  154.9451 O   0  0  0  0  0  0  0  0  0  0  0  0
  146.8622  140.8706  153.7339 C   0  0  0  0  0  0  0  0  0  0  0  0
  146.8803  140.2693  152.6606 O   0  0  0  0  0  0  0  0  0  0  0  0
  145.6905  141.4823  154.1746 N   0  0  0  0  0  0  0  0  0  0  0  0
  145.5391  142.1762  155.3775 C   0  0  0  0  0  0  0  0  0  0  0  0
  144.4509  142.6761  155.6576 O   0  0  0  0  0  0  0  0  0  0  0  0
  144.8804  141.4156  153.5759 H   0  0  0  0  0  0  0  0  0  0  0  0
  147.5994  142.9275  158.0883 H   0  0  0  0  0  0  0  0  0  0  0  0
  145.8891  142.5135  158.1788 H   0  0  0  0  0  0  0  0  0  0  0  0
  146.3984  144.0117  157.3894 H   0  0  0  0  0  0  0  0  0  0  0  0
  148.7463  141.6988  156.4280 H   0  0  0  0  0  0  0  0  0  0  0  0
  149.4908  140.7025  153.1232 H   0  0  0  0  0  0  0  0  0  0  0  0
  150.1891  139.5398  156.6026 H   0  0  0  0  0  0  0  0  0  0  0  0
  152.8254  138.9363  156.1060 H   0  0  0  0  0  0  0  0  0  0  0  0
  152.7490  140.5642  155.4440 H   0  0  0  0  0  0  0  0  0  0  0  0
  150.9529  143.9589  158.8208 H   0  0  0  0  0  0  0  0  0  0  0  0
  151.4857  144.8451  161.0606 H   0  0  0  0  0  0  0  0  0  0  0  0
  152.9028  143.5321  162.6274 H   0  0  0  0  0  0  0  0  0  0  0  0
  153.7894  141.3137  161.9351 H   0  0  0  0  0  0  0  0  0  0  0  0
  153.2741  140.4044  159.7094 H   0  0  0  0  0  0  0  0  0  0  0  0
  151.3328  138.4024  154.0122 H   0  0  0  0  0  0  0  0  0  0  0  0
  149.9651  136.6184  155.0936 H   0  0  0  0  0  0  0  0  0  0  0  0
  149.1435  138.3676  153.1644 H   0  0  0  0  0  0  0  0  0  0  0  0
  148.3410  137.3721  155.1896 H   0  0  0  0  0  0  0  0  0  0  0  0
  1  2  1  0  0  0  0
  1 28  1  0  0  0  0
  1 29  1  0  0  0  0
  1 30  1  0  0  0  0
  2 25  1  0  0  0  0
  2  3  2  0  0  0  0
  3  4  1  0  0  0  0
  3 31  1  0  0  0  0
  4  5  1  0  0  0  0
  4 22  1  0  0  0  0
  5 20  1  0  0  0  0
  5  6  1  0  0  0  0
  5 32  1  0  0  0  0
  6  7  1  0  0  0  0
  7  8  1  0  0  0  0
  7 18  1  0  0  0  0
  7 33  1  0  0  0  0
  8  9  1  0  0  0  0
  8 34  1  0  0  0  0
  8 35  1  0  0  0  0
  9 10  1  0  0  0  0
 10 11  2  0  0  0  0
 10 12  1  0  0  0  0
 12 17  1  0  0  0  0
 12 13  2  0  0  0  0
 13 14  1  0  0  0  0
 13 36  1  0  0  0  0
 14 15  2  0  0  0  0
 14 37  1  0  0  0  0
 15 16  1  0  0  0  0
 15 38  1  0  0  0  0
 16 17  2  0  0  0  0
 16 39  1  0  0  0  0
 17 40  1  0  0  0  0
 18 19  1  0  0  0  0
 18 20  1  0  0  0  0
 18 41  1  0  0  0  0
 19 42  1  0  0  0  0
 20 21  1  0  0  0  0
 20 43  1  0  0  0  0
 21 44  1  0  0  0  0
 22 23  2  0  0  0  0
 22 24  1  0  0  0  0
 24 27  1  0  0  0  0
 24 25  1  0  0  0  0
 25 26  2  0  0  0  0
M  END
> <s_m_source_file>
AV-unprocessed.smi

> <i_m_source_file_index>
101

> <i_lp_mmshare_version>
43012

> <i_f3d_flags>
0

> <s_epik_input>
Tz1jMVtuSF1jKD1PKW4oW2NIXWMxW0NIM10pW0NAQEhdMk9bQ0BIXShbQ0BASF0oW09IXSlbQ0BIXTJbT0hdKVtDSDJdT0MoPU8pYzNbY0hdW2NIXVtjSF1bY0hdW2NIXTM=

> <s_epik_cmdline>
J2VwaWtfcHl0aG9uJywgJy1waCcsICc3LjAnLCAnLXRuJywgJzgnLCAnLW1hJywgJzIwMCcsICctbWV0YWxfYmluZGluZycsICctaW1hZScsICc8aW5maWxlLm1hZT4nLCAnLW9tYWUnLCAnPG91dGZpbGUubWFlPic=

> <r_lp_tautomer_probability>
0.999537

> <r_epik_Ionization_Penalty>
0.00263537

> <r_epik_Ionization_Penalty_Charging>
0.00263428

> <r_epik_Ionization_Penalty_Neutral>
1.09111e-06

> <r_epik_State_Penalty>
0.00183335

> <r_epik_Charging_Adjusted_Penalty>
0.00446763

> <i_epik_Tot_Q>
0

> <i_epik_Tot_abs_Q>
0

> <r_epik_Metal_State_Penalty>
1.00528

> <b_epik_Metal_Only>
0

> <s_epik_Chemistry_Notes>
This compound has an ester and may undergo hydrolysis at high or low pH. This compound contains an acetal/aminal-like group ( X-CH(R)-Y where X, Y are N, S, or O) that may be acid/base labile, releasing an aldehyde.

> <s_lp_Force_Field>
OPLS_2005

> <r_lp_Energy>
40.9392

> <b_lp_Chiralities_Consistent>
1

> <s_lp_Variant>
AV-unprocessed.smi:101-4

> <Gold.Version>
5.8.1

> <Gold.Id.Protein>
6NUR|6NUR_protein|mol2

> <Gold.PLP.Fitness>
46.4376

> <Gold.PLP.PLP>
-42.7896

> <Gold.PLP.part.hbond>
-2.8914

> <Gold.PLP.part.metal>
0.0000

> <Gold.PLP.part.buried>
-3.6489

> <Gold.PLP.part.nonpolar>
-36.7303

> <Gold.PLP.part.repulsive>
0.5298

> <Gold.PLP.ligand.clash>
0.0000

> <Gold.PLP.ligand.torsion>
0.7952

> <Gold.PLP.Chemscore.Hbond>
1.7040

> <Gold.PLP.Chemscore.CHOScore>
0.0000

> <Gold.PLP.Chemscore.Metal>
0.0000

> <Gold.Chemscore.Hbonds>
donor molecule, donor type, donor heavy atom, donor atom, acceptor molecule, acceptor atom, score
      L1  H    24    27       P1 10175  0.85
      P1  H  7989  7998       L1     6  0.65

> <Gold.PLP.Chemscore.Internal.Correction>
0.1264

> <Gold.Rescore>
     Score         DG    S(hbond)    S(metal)    S(lipo)     H(rot)  DE(clash)    DE(int)     intcor
      8.70     -12.74       1.36        0.00      95.82       3.32       0.19       3.85       ----

> <Gold.Chemscore.Fitness>
8.7042

> <Gold.Chemscore.DG>
-12.7444

> <Gold.Chemscore.ZeroCoef>
-5.4800

> <Gold.Chemscore.Hbond>
1.3611

> <Gold.Chemscore.Metal>
0.0000

> <Gold.Chemscore.Lipo>
95.8152

> <Gold.Chemscore.Internal_Hbond>
0.0000

> <Gold.Chemscore.DEClash>
0.1860

> <Gold.Chemscore.DEInternal>
3.8542

> <Gold.Chemscore.Rot>
3.3172

> <Gold.Chemscore.Internal.Correction>
   9.000000E+99

> <Gold.Chemscore.Hbonds>
donor molecule, donor type, donor heavy atom, donor atom, acceptor molecule, acceptor atom, score
      L1  H    24    27       P1 10175  0.14
      P1  H  7989  7998       L1     6  0.04

> <Gold.Chemscore.Hbond.Weighted>
-4.5460

> <Gold.Chemscore.Metal.Weighted>
-0.0000

> <Gold.Chemscore.Lipo.Weighted>
-11.2104

> <Gold.Chemscore.Internal_Hbond.Weighted>
0.0000

> <Gold.Chemscore.DEClash.Weighted>
0.1860

> <Gold.Chemscore.DEInternal.Weighted>
3.8542

> <Gold.Chemscore.Rot.Weighted>
8.4920

> <Gold.Chemscore.Internal.Correction.Weighted>
   9.000000E+99

> <Gold.Protein.RotatedTorsions>
[ 6907 6896 6895 6894 ] final  157.17 input  -60.11 | X-H torsion
[ 7974 7965 7964 7962 ] final  -66.36 input  175.53 | X-H torsion
[ 8008 7997 7996 7995 ] final  155.26 input   59.86 | X-H torsion
[ 10167 10162 10161 10158 ] final -151.65 input  -65.29 | X-H torsion
[ 10718 10713 10712 10709 ] final  -98.41 input   66.30 | X-H torsion
[ 10763 10752 10751 10750 ] final  -69.22 input  -60.55 | X-H torsion
[ 11005 11000 10999 10996 ] final -171.91 input  -57.11 | X-H torsion

> <Gold.Protein.ActiveResidues>
 VAL166  LYS551  ARG553  GLY616  TRP617  ASP618  TYR619  PRO620  LYS621  CYS622 
 ASP623  PHE694  ASN695  SER759  ASP760  ASP761  ALA762  ILE779  LEU786  VAL792 
 PHE793  MET794  SER795  GLU796  ALA797  LYS798  CYS799  TRP800  GLU811  SER814 

> <Gold.Protein.RotatedAtoms>
  152.0191  133.3891  159.4250 H   0  0  0  0  0  0  0  0  0  0  0  0  # atno 6907 bound_to 6896
  150.6892  134.3646  159.4974 H   0  0  0  0  0  0  0  0  0  0  0  0  # atno 6908 bound_to 6896
  152.1417  134.9057  160.0604 H   0  0  0  0  0  0  0  0  0  0  0  0  # atno 6909 bound_to 6896
  145.7428  140.8945  143.0521 H   0  0  0  0  0  0  0  0  0  0  0  0  # atno 7974 bound_to 7965
  156.2487  140.1944  156.6774 H   0  0  0  0  0  0  0  0  0  0  0  0  # atno 8008 bound_to 7997
  154.6347  140.0591  156.9800 H   0  0  0  0  0  0  0  0  0  0  0  0  # atno 8009 bound_to 7997
  155.1655  140.3263  155.4405 H   0  0  0  0  0  0  0  0  0  0  0  0  # atno 8010 bound_to 7997
  139.7249  143.8898  152.2516 H   0  0  0  0  0  0  0  0  0  0  0  0  # atno 10167 bound_to 10162
  156.0107  130.5237  150.6518 H   0  0  0  0  0  0  0  0  0  0  0  0  # atno 10718 bound_to 10713
  154.4002  135.6032  153.5893 H   0  0  0  0  0  0  0  0  0  0  0  0  # atno 10763 bound_to 10752
  152.9788  135.5905  154.4193 H   0  0  0  0  0  0  0  0  0  0  0  0  # atno 10764 bound_to 10752
  154.3990  135.2842  155.2086 H   0  0  0  0  0  0  0  0  0  0  0  0  # atno 10765 bound_to 10752
  140.5029  134.5876  157.4994 H   0  0  0  0  0  0  0  0  0  0  0  0  # atno 11005 bound_to 11000
  144.6867  139.9484  143.7477 LP  0  0  0  0  0  0  0  0  0  0  0  0  # atno 17320 bound_to 7965
  146.0432  139.3441  143.0685 LP  0  0  0  0  0  0  0  0  0  0  0  0  # atno 17321 bound_to 7965
  139.8805  144.7020  150.8883 LP  0  0  0  0  0  0  0  0  0  0  0  0  # atno 17342 bound_to 10162
  140.7761  143.3665  151.1729 LP  0  0  0  0  0  0  0  0  0  0  0  0  # atno 17343 bound_to 10162
  157.4278  131.0845  151.1068 LP  0  0  0  0  0  0  0  0  0  0  0  0  # atno 17370 bound_to 10713
  157.1650  130.6242  149.5622 LP  0  0  0  0  0  0  0  0  0  0  0  0  # atno 17371 bound_to 10713
  139.9703  134.7305  156.0056 LP  0  0  0  0  0  0  0  0  0  0  0  0  # atno 17394 bound_to 11000
  141.1426  133.6562  156.3773 LP  0  0  0  0  0  0  0  0  0  0  0  0  # atno 17395 bound_to 11000

$$$$
