AV-unprocessed.smi:2368|AV-procd|sdf|9432|dock1
  -GOLD-   2272013 63D 1   1.00000     0.00000
 Structure written by MMmdl.
 36 37  0  0  0  0  0  0  0  0  2 V2000
  150.6800  141.2428  155.6250 C   0  0  0  0  0  0  0  0  0  0  0  0
  149.3925  140.9874  154.8655 C   0  0  0  0  0  0  0  0  0  0  0  0
  148.5486  142.0281  154.6914 N   0  3  0  0  0  0  0  0  0  0  0  0
  147.3717  141.9193  154.0406 C   0  0  0  0  0  0  0  0  0  0  0  0
  146.9793  140.6789  153.5011 C   0  0  0  0  0  0  0  0  0  0  0  0
  147.8352  139.5565  153.6387 C   0  0  0  0  0  0  0  0  0  0  0  0
  147.5089  138.2647  153.1381 N   0  0  0  0  0  0  0  0  0  0  0  0
  146.3207  137.6368  153.1517 C   0  0  0  0  0  0  0  0  0  0  0  0
  145.2820  138.0913  153.6305 O   0  0  0  0  0  0  0  0  0  0  0  0
  146.3974  136.4387  152.5556 N   0  0  0  0  0  0  0  0  0  0  0  0
  145.2804  135.5128  152.4032 C   0  0  1  0  0  0  0  0  0  0  0  0
  144.6474  135.6656  151.0476 C   0  0  0  0  0  0  0  0  0  0  0  0
  144.5921  134.5187  150.3741 C   0  0  0  0  0  0  0  0  0  0  0  0
  145.1851  133.3626  151.1360 C   0  0  1  0  0  0  0  0  0  0  0  0
  146.2576  132.6224  150.3195 C   0  0  0  0  0  0  0  0  0  0  0  0
  146.8229  131.5810  151.0868 O   0  0  0  0  0  0  0  0  0  0  0  0
  145.7248  134.0267  152.4300 C   0  0  0  0  0  0  0  0  0  0  0  0
  149.0533  139.7160  154.3453 C   0  0  0  0  0  0  0  0  0  0  0  0
  150.1246  138.3736  154.5670 Cl  0  0  0  0  0  0  0  0  0  0  0  0
  144.5185  135.7065  153.1604 H   0  0  0  0  0  0  0  0  0  0  0  0
  144.3697  132.6802  151.3791 H   0  0  0  0  0  0  0  0  0  0  0  0
  151.5426  141.0325  154.9921 H   0  0  0  0  0  0  0  0  0  0  0  0
  150.7342  140.6021  156.5055 H   0  0  0  0  0  0  0  0  0  0  0  0
  150.7485  142.2793  155.9571 H   0  0  0  0  0  0  0  0  0  0  0  0
  146.7797  142.8206  153.9767 H   0  0  0  0  0  0  0  0  0  0  0  0
  146.0238  140.6101  153.0038 H   0  0  0  0  0  0  0  0  0  0  0  0
  148.2493  137.7976  152.6349 H   0  0  0  0  0  0  0  0  0  0  0  0
  147.2879  136.1419  152.1840 H   0  0  0  0  0  0  0  0  0  0  0  0
  144.2697  136.6128  150.6917 H   0  0  0  0  0  0  0  0  0  0  0  0
  144.1644  134.3981  149.3896 H   0  0  0  0  0  0  0  0  0  0  0  0
  145.8187  132.1885  149.4204 H   0  0  0  0  0  0  0  0  0  0  0  0
  147.0457  133.3046  149.9985 H   0  0  0  0  0  0  0  0  0  0  0  0
  147.6987  131.4163  150.7720 H   0  0  0  0  0  0  0  0  0  0  0  0
  146.8123  133.9475  152.4750 H   0  0  0  0  0  0  0  0  0  0  0  0
  145.3401  133.5218  153.3168 H   0  0  0  0  0  0  0  0  0  0  0  0
  148.8105  142.9369  155.0744 H   0  0  0  0  0  0  0  0  0  0  0  0
  1  2  1  0  0  0  0
  1 22  1  0  0  0  0
  1 23  1  0  0  0  0
  1 24  1  0  0  0  0
  2 18  1  0  0  0  0
  2  3  2  0  0  0  0
  3  4  1  0  0  0  0
  3 36  1  0  0  0  0
  4  5  2  0  0  0  0
  4 25  1  0  0  0  0
  5  6  1  0  0  0  0
  5 26  1  0  0  0  0
  6  7  1  0  0  0  0
  6 18  2  0  0  0  0
  7  8  1  0  0  0  0
  7 27  1  0  0  0  0
  8  9  2  0  0  0  0
  8 10  1  0  0  0  0
 10 11  1  0  0  0  0
 10 28  1  0  0  0  0
 11 20  1  0  0  0  0
 11 17  1  0  0  0  0
 11 12  1  0  0  0  0
 12 13  2  0  0  0  0
 12 29  1  0  0  0  0
 13 14  1  0  0  0  0
 13 30  1  0  0  0  0
 14 21  1  0  0  0  0
 14 15  1  0  0  0  0
 14 17  1  0  0  0  0
 15 16  1  0  0  0  0
 15 31  1  0  0  0  0
 15 32  1  0  0  0  0
 16 33  1  0  0  0  0
 17 34  1  0  0  0  0
 17 35  1  0  0  0  0
 18 19  1  0  0  0  0
M  CHG  1   3   1
M  END
> <s_m_source_file>
AV-unprocessed.smi

> <i_m_source_file_index>
2368

> <i_lp_mmshare_version>
43012

> <i_f3d_flags>
0

> <s_epik_input>
W0NIM11jMW5bY0hdW2NIXWMoYzFDbClbTkhdQyg9TylbTkhdW0NAQEhdMltDSF09W0NIXVtDQEBIXShbQ0gyXTIpW0NIMl1bT0hd

> <s_epik_cmdline>
J2VwaWtfcHl0aG9uJywgJy1waCcsICc3LjAnLCAnLXRuJywgJzgnLCAnLW1hJywgJzIwMCcsICctbWV0YWxfYmluZGluZycsICctaW1hZScsICc8aW5maWxlLm1hZT4nLCAnLW9tYWUnLCAnPG91dGZpbGUubWFlPic=

> <r_epik_Ionization_Penalty>
2.4467

> <r_epik_Ionization_Penalty_Charging>
2.44668

> <r_epik_Ionization_Penalty_Neutral>
1.95078e-05

> <r_epik_State_Penalty>
2.60786

> <r_epik_Charging_Adjusted_Penalty>
5.05454

> <i_epik_Tot_Q>
1

> <i_epik_Tot_abs_Q>
1

> <r_epik_Metal_State_Penalty>
2.61736

> <b_epik_Metal_Only>
0

> <s_lp_Force_Field>
OPLS_2005

> <r_lp_Energy>
25.3195

> <b_lp_Chiralities_Consistent>
1

> <s_lp_Variant>
AV-unprocessed.smi:2368-8

> <Gold.Version>
5.8.1

> <Gold.Id.Protein>
6NUR|6NUR_protein|mol2

> <Gold.PLP.Fitness>
48.8482

> <Gold.PLP.PLP>
-35.1786

> <Gold.PLP.part.hbond>
-3.7677

> <Gold.PLP.part.metal>
0.0000

> <Gold.PLP.part.buried>
-3.1476

> <Gold.PLP.part.nonpolar>
-28.7293

> <Gold.PLP.part.repulsive>
0.8143

> <Gold.PLP.ligand.clash>
0.0000

> <Gold.PLP.ligand.torsion>
0.6763

> <Gold.PLP.Chemscore.Hbond>
5.0000

> <Gold.PLP.Chemscore.CHOScore>
0.0000

> <Gold.PLP.Chemscore.Metal>
0.0000

> <Gold.Chemscore.Hbonds>
donor molecule, donor type, donor heavy atom, donor atom, acceptor molecule, acceptor atom, score
      L1  H     3    36       P1  8028  2.00
      L1  H     7    27       P1  7948  1.00
      L1  H    10    28       P1  7948  1.00
      L1  H    16    33       P1 10747  0.88

> <Gold.PLP.Chemscore.Internal.Correction>
0.0222

> <Gold.Rescore>
     Score         DG    S(hbond)    S(metal)    S(lipo)     H(rot)  DE(clash)    DE(int)     intcor
     22.37     -23.66       3.94        0.00      82.60       1.81       0.13       1.17       ----

> <Gold.Chemscore.Fitness>
22.3706

> <Gold.Chemscore.DG>
-23.6647

> <Gold.Chemscore.ZeroCoef>
-5.4800

> <Gold.Chemscore.Hbond>
3.9352

> <Gold.Chemscore.Metal>
0.0000

> <Gold.Chemscore.Lipo>
82.6048

> <Gold.Chemscore.Internal_Hbond>
0.0000

> <Gold.Chemscore.DEClash>
0.1251

> <Gold.Chemscore.DEInternal>
1.1691

> <Gold.Chemscore.Rot>
1.8061

> <Gold.Chemscore.Internal.Correction>
   9.000000E+99

> <Gold.Chemscore.Hbonds>
donor molecule, donor type, donor heavy atom, donor atom, acceptor molecule, acceptor atom, score
      L1  H     3    36       P1  8028  1.00
      L1  H     7    27       P1  7948  0.95
      L1  H    10    28       P1  7948  0.99
      L1  H    16    33       P1 10747  0.86

> <Gold.Chemscore.Hbond.Weighted>
-13.1436

> <Gold.Chemscore.Metal.Weighted>
-0.0000

> <Gold.Chemscore.Lipo.Weighted>
-9.6648

> <Gold.Chemscore.Internal_Hbond.Weighted>
0.0000

> <Gold.Chemscore.DEClash.Weighted>
0.1251

> <Gold.Chemscore.DEInternal.Weighted>
1.1691

> <Gold.Chemscore.Rot.Weighted>
4.6237

> <Gold.Chemscore.Internal.Correction.Weighted>
   9.000000E+99

> <Gold.Protein.RotatedTorsions>
[ 6907 6896 6895 6894 ] final  -51.14 input  -60.11 | X-H torsion
[ 7974 7965 7964 7962 ] final  157.08 input  175.53 | X-H torsion
[ 8008 7997 7996 7995 ] final  126.12 input   59.86 | X-H torsion
[ 10167 10162 10161 10158 ] final   33.18 input  -65.29 | X-H torsion
[ 10718 10713 10712 10709 ] final   -5.83 input   66.30 | X-H torsion
[ 10763 10752 10751 10750 ] final  152.45 input  -60.55 | X-H torsion
[ 11005 11000 10999 10996 ] final   60.77 input  -57.11 | X-H torsion

> <Gold.Protein.ActiveResidues>
 VAL166  LYS551  ARG553  GLY616  TRP617  ASP618  TYR619  PRO620  LYS621  CYS622 
 ASP623  PHE694  ASN695  SER759  ASP760  ASP761  ALA762  ILE779  LEU786  VAL792 
 PHE793  MET794  SER795  GLU796  ALA797  LYS798  CYS799  TRP800  GLU811  SER814 

> <Gold.Protein.RotatedAtoms>
  150.8640  134.7999  159.7104 H   0  0  0  0  0  0  0  0  0  0  0  0  # atno 6907 bound_to 6896
  152.4667  134.5054  159.9747 H   0  0  0  0  0  0  0  0  0  0  0  0  # atno 6908 bound_to 6896
  151.5153  133.3438  159.2927 H   0  0  0  0  0  0  0  0  0  0  0  0  # atno 6909 bound_to 6896
  144.7924  139.7291  143.6215 H   0  0  0  0  0  0  0  0  0  0  0  0  # atno 7974 bound_to 7965
  156.2854  140.2700  156.2059 H   0  0  0  0  0  0  0  0  0  0  0  0  # atno 8008 bound_to 7997
  155.0313  140.0386  157.2493 H   0  0  0  0  0  0  0  0  0  0  0  0  # atno 8009 bound_to 7997
  154.7352  140.2714  155.6426 H   0  0  0  0  0  0  0  0  0  0  0  0  # atno 8010 bound_to 7997
  140.4431  144.1159  150.6177 H   0  0  0  0  0  0  0  0  0  0  0  0  # atno 10167 bound_to 10162
  156.7407  130.5209  149.5825 H   0  0  0  0  0  0  0  0  0  0  0  0  # atno 10718 bound_to 10713
  154.1203  135.2833  155.3210 H   0  0  0  0  0  0  0  0  0  0  0  0  # atno 10763 bound_to 10752
  154.6428  135.5396  153.7812 H   0  0  0  0  0  0  0  0  0  0  0  0  # atno 10764 bound_to 10752
  153.0315  135.6490  154.1357 H   0  0  0  0  0  0  0  0  0  0  0  0  # atno 10765 bound_to 10752
  140.0208  134.6156  155.9642 H   0  0  0  0  0  0  0  0  0  0  0  0  # atno 11005 bound_to 11000
  146.2181  139.5586  142.9636 LP  0  0  0  0  0  0  0  0  0  0  0  0  # atno 17320 bound_to 7965
  145.5759  141.0388  143.2148 LP  0  0  0  0  0  0  0  0  0  0  0  0  # atno 17321 bound_to 7965
  140.4295  143.2574  151.9613 LP  0  0  0  0  0  0  0  0  0  0  0  0  # atno 17342 bound_to 10162
  139.4791  144.5757  151.8016 LP  0  0  0  0  0  0  0  0  0  0  0  0  # atno 17343 bound_to 10162
  156.1466  130.6281  151.0540 LP  0  0  0  0  0  0  0  0  0  0  0  0  # atno 17370 bound_to 10713
  157.6819  131.0835  150.7346 LP  0  0  0  0  0  0  0  0  0  0  0  0  # atno 17371 bound_to 10713
  141.1772  133.6542  156.4877 LP  0  0  0  0  0  0  0  0  0  0  0  0  # atno 17394 bound_to 11000
  140.4391  134.7032  157.4982 LP  0  0  0  0  0  0  0  0  0  0  0  0  # atno 17395 bound_to 11000

$$$$
