AV-unprocessed.smi:2079|AV-procd|sdf|8475|dock1
  -GOLD-   2272011173D 1   1.00000     0.00000
 Structure written by MMmdl.
 42 43  0  0  0  0  0  0  0  0  2 V2000
  153.7851  137.5539  156.9171 C   0  0  0  0  0  0  0  0  0  0  0  0
  152.7123  138.0411  156.0048 C   0  0  0  0  0  0  0  0  0  0  0  0
  151.6734  137.4172  155.3731 C   0  0  0  0  0  0  0  0  0  0  0  0
  151.0433  138.4785  154.6701 C   0  0  0  0  0  0  0  0  0  0  0  0
  149.8909  138.2450  153.8770 N   0  0  0  0  0  0  0  0  0  0  0  0
  148.6972  138.8550  153.9727 C   0  0  0  0  0  0  0  0  0  0  0  0
  148.4197  139.7522  154.7693 O   0  0  0  0  0  0  0  0  0  0  0  0
  147.8221  138.3669  153.0811 N   0  0  0  0  0  0  0  0  0  0  0  0
  146.4355  138.8032  152.9576 C   0  0  0  0  0  0  0  0  0  0  0  0
  145.6139  138.4460  154.2148 C   0  0  0  0  0  0  0  0  0  0  0  0
  144.1620  138.2390  153.9400 N   0  3  2  0  0  0  0  0  0  0  0  0
  143.3172  138.5519  155.1298 C   0  0  0  0  0  0  0  0  0  0  0  0
  141.8173  138.4626  154.8148 C   0  0  0  0  0  0  0  0  0  0  0  0
  141.4620  137.0768  154.2786 C   0  0  0  0  0  0  0  0  0  0  0  0
  142.3300  136.7726  153.0560 C   0  0  0  0  0  0  0  0  0  0  0  0
  143.8372  136.8866  153.3747 C   0  0  1  0  0  0  0  0  0  0  0  0
  144.6354  136.5462  152.0983 C   0  0  0  0  0  0  0  0  0  0  0  0
  151.6454  139.6436  154.8528 N   0  0  0  0  0  0  0  0  0  0  0  0
  152.7178  139.3695  155.7097 O   0  0  0  0  0  0  0  0  0  0  0  0
  153.8211  136.4645  156.9298 H   0  0  0  0  0  0  0  0  0  0  0  0
  153.6096  137.8987  157.9360 H   0  0  0  0  0  0  0  0  0  0  0  0
  154.7611  137.9207  156.5987 H   0  0  0  0  0  0  0  0  0  0  0  0
  151.4085  136.3709  155.4127 H   0  0  0  0  0  0  0  0  0  0  0  0
  149.9817  137.5270  153.1737 H   0  0  0  0  0  0  0  0  0  0  0  0
  148.1290  137.6309  152.4616 H   0  0  0  0  0  0  0  0  0  0  0  0
  146.4660  139.8798  152.7974 H   0  0  0  0  0  0  0  0  0  0  0  0
  145.9853  138.3638  152.0656 H   0  0  0  0  0  0  0  0  0  0  0  0
  146.0472  137.5350  154.6194 H   0  0  0  0  0  0  0  0  0  0  0  0
  145.7364  139.2132  154.9808 H   0  0  0  0  0  0  0  0  0  0  0  0
  143.5693  137.8707  155.9442 H   0  0  0  0  0  0  0  0  0  0  0  0
  143.5123  139.5598  155.4909 H   0  0  0  0  0  0  0  0  0  0  0  0
  141.2346  138.6750  155.7116 H   0  0  0  0  0  0  0  0  0  0  0  0
  141.5477  139.2243  154.0819 H   0  0  0  0  0  0  0  0  0  0  0  0
  141.6265  136.3233  155.0501 H   0  0  0  0  0  0  0  0  0  0  0  0
  140.4051  137.0327  154.0142 H   0  0  0  0  0  0  0  0  0  0  0  0
  142.0977  135.7704  152.6936 H   0  0  0  0  0  0  0  0  0  0  0  0
  142.0710  137.4581  152.2475 H   0  0  0  0  0  0  0  0  0  0  0  0
  144.0814  136.1403  154.1327 H   0  0  0  0  0  0  0  0  0  0  0  0
  144.2506  135.6403  151.6292 H   0  0  0  0  0  0  0  0  0  0  0  0
  145.6872  136.3502  152.3040 H   0  0  0  0  0  0  0  0  0  0  0  0
  144.5720  137.3482  151.3619 H   0  0  0  0  0  0  0  0  0  0  0  0
  143.9129  138.9072  153.2244 H   0  0  0  0  0  0  0  0  0  0  0  0
  1  2  1  0  0  0  0
  1 20  1  0  0  0  0
  1 21  1  0  0  0  0
  1 22  1  0  0  0  0
  2 19  1  0  0  0  0
  2  3  2  0  0  0  0
  3  4  1  0  0  0  0
  3 23  1  0  0  0  0
  4  5  1  0  0  0  0
  4 18  2  0  0  0  0
  5  6  1  0  0  0  0
  5 24  1  0  0  0  0
  6  7  2  0  0  0  0
  6  8  1  0  0  0  0
  8  9  1  0  0  0  0
  8 25  1  0  0  0  0
  9 10  1  0  0  0  0
  9 26  1  0  0  0  0
  9 27  1  0  0  0  0
 10 11  1  0  0  0  0
 10 28  1  0  0  0  0
 10 29  1  0  0  0  0
 11 16  1  0  0  0  0
 11 12  1  0  0  0  0
 11 42  1  0  0  0  0
 12 13  1  0  0  0  0
 12 30  1  0  0  0  0
 12 31  1  0  0  0  0
 13 14  1  0  0  0  0
 13 32  1  0  0  0  0
 13 33  1  0  0  0  0
 14 15  1  0  0  0  0
 14 34  1  0  0  0  0
 14 35  1  0  0  0  0
 15 16  1  0  0  0  0
 15 36  1  0  0  0  0
 15 37  1  0  0  0  0
 16 17  1  0  0  0  0
 16 38  1  0  0  0  0
 17 39  1  0  0  0  0
 17 40  1  0  0  0  0
 17 41  1  0  0  0  0
 18 19  1  0  0  0  0
M  CHG  1  11   1
M  END
> <s_m_source_file>
AV-unprocessed.smi

> <i_m_source_file_index>
2079

> <i_lp_mmshare_version>
43012

> <i_f3d_flags>
0

> <s_epik_input>
W0NIM11jMVtjSF1jKG5vMSlbTkhdQyg9TylbTkhdW0NIMl1bQ0gyXU4yW0NIMl1bQ0gyXVtDSDJdW0NIMl1bQ0BIXTJbQ0gzXQ==

> <s_epik_cmdline>
J2VwaWtfcHl0aG9uJywgJy1waCcsICc3LjAnLCAnLXRuJywgJzgnLCAnLW1hJywgJzIwMCcsICctbWV0YWxfYmluZGluZycsICctaW1hZScsICc8aW5maWxlLm1hZT4nLCAnLW9tYWUnLCAnPG91dGZpbGUubWFlPic=

> <r_epik_Ionization_Penalty>
0.00265971

> <r_epik_Ionization_Penalty_Charging>
0.00262393

> <r_epik_Ionization_Penalty_Neutral>
3.57846e-05

> <r_epik_State_Penalty>
0.00182566

> <r_epik_Charging_Adjusted_Penalty>
0.00444959

> <i_epik_Tot_Q>
1

> <i_epik_Tot_abs_Q>
1

> <r_epik_Metal_State_Penalty>
0.0216344

> <b_epik_Metal_Only>
0

> <s_lp_Force_Field>
OPLS_2005

> <r_lp_Energy>
17.1717

> <b_lp_Chiralities_Consistent>
1

> <s_lp_Variant>
AV-unprocessed.smi:2079-1

> <Gold.Version>
5.8.1

> <Gold.Id.Protein>
6NUR|6NUR_protein|mol2

> <Gold.PLP.Fitness>
40.7607

> <Gold.PLP.PLP>
-24.7865

> <Gold.PLP.part.hbond>
-6.4278

> <Gold.PLP.part.metal>
0.0000

> <Gold.PLP.part.buried>
-1.8732

> <Gold.PLP.part.nonpolar>
-17.6640

> <Gold.PLP.part.repulsive>
0.2578

> <Gold.PLP.ligand.clash>
0.0000

> <Gold.PLP.ligand.torsion>
0.9498

> <Gold.PLP.Chemscore.Hbond>
5.9516

> <Gold.PLP.Chemscore.CHOScore>
0.0000

> <Gold.PLP.Chemscore.Metal>
0.0000

> <Gold.Chemscore.Hbonds>
donor molecule, donor type, donor heavy atom, donor atom, acceptor molecule, acceptor atom, score
      L1  H     5    24       P1  7948  0.86
      L1  H     8    25       P1  7948  1.00
      L1  H    11    42       P1 10175  2.00
      P1  H  7989  7998       L1    18  1.00
      P1  H  7997  8010       L1    19  1.00

> <Gold.PLP.Chemscore.Internal.Correction>
0.0191

> <Gold.Rescore>
     Score         DG    S(hbond)    S(metal)    S(lipo)     H(rot)  DE(clash)    DE(int)     intcor
     19.16     -20.26       4.22        0.00      40.03       1.57       0.06       1.03       ----

> <Gold.Chemscore.Fitness>
19.1624

> <Gold.Chemscore.DG>
-20.2552

> <Gold.Chemscore.ZeroCoef>
-5.4800

> <Gold.Chemscore.Hbond>
4.2248

> <Gold.Chemscore.Metal>
0.0000

> <Gold.Chemscore.Lipo>
40.0254

> <Gold.Chemscore.Internal_Hbond>
0.0000

> <Gold.Chemscore.DEClash>
0.0639

> <Gold.Chemscore.DEInternal>
1.0290

> <Gold.Chemscore.Rot>
1.5697

> <Gold.Chemscore.Internal.Correction>
   9.000000E+99

> <Gold.Chemscore.Hbonds>
donor molecule, donor type, donor heavy atom, donor atom, acceptor molecule, acceptor atom, score
      L1  H     5    24       P1  7948  0.24
      L1  H     8    25       P1  7948  1.00
      L1  H    11    42       P1 10175  0.99
      P1  H  7989  7998       L1    18  0.95
      P1  H  7997  8010       L1    19  0.78

> <Gold.Chemscore.Hbond.Weighted>
-14.1107

> <Gold.Chemscore.Metal.Weighted>
-0.0000

> <Gold.Chemscore.Lipo.Weighted>
-4.6830

> <Gold.Chemscore.Internal_Hbond.Weighted>
0.0000

> <Gold.Chemscore.DEClash.Weighted>
0.0639

> <Gold.Chemscore.DEInternal.Weighted>
1.0290

> <Gold.Chemscore.Rot.Weighted>
4.0185

> <Gold.Chemscore.Internal.Correction.Weighted>
   9.000000E+99

> <Gold.Protein.RotatedTorsions>
[ 6907 6896 6895 6894 ] final  -91.60 input  -60.11 | X-H torsion
[ 7974 7965 7964 7962 ] final  166.17 input  175.53 | X-H torsion
[ 8008 7997 7996 7995 ] final   88.83 input   59.86 | X-H torsion
[ 10167 10162 10161 10158 ] final   11.13 input  -65.29 | X-H torsion
[ 10718 10713 10712 10709 ] final -177.78 input   66.30 | X-H torsion
[ 10763 10752 10751 10750 ] final   54.44 input  -60.55 | X-H torsion
[ 11005 11000 10999 10996 ] final  -38.52 input  -57.11 | X-H torsion

> <Gold.Protein.ActiveResidues>
 VAL166  LYS551  ARG553  GLY616  TRP617  ASP618  TYR619  PRO620  LYS621  CYS622 
 ASP623  PHE694  ASN695  SER759  ASP760  ASP761  ALA762  ILE779  LEU786  VAL792 
 PHE793  MET794  SER795  GLU796  ALA797  LYS798  CYS799  TRP800  GLU811  SER814 

> <Gold.Protein.RotatedAtoms>
  150.6894  134.2252  159.4412 H   0  0  0  0  0  0  0  0  0  0  0  0  # atno 6907 bound_to 6896
  152.0206  134.9822  160.0580 H   0  0  0  0  0  0  0  0  0  0  0  0  # atno 6908 bound_to 6896
  152.1400  133.4424  159.4799 H   0  0  0  0  0  0  0  0  0  0  0  0  # atno 6909 bound_to 6896
  144.7473  139.8577  143.6378 H   0  0  0  0  0  0  0  0  0  0  0  0  # atno 7974 bound_to 7965
  155.9925  140.3367  155.6767 H   0  0  0  0  0  0  0  0  0  0  0  0  # atno 8008 bound_to 7997
  155.6400  140.0694  157.2639 H   0  0  0  0  0  0  0  0  0  0  0  0  # atno 8009 bound_to 7997
  154.4224  140.1744  156.1551 H   0  0  0  0  0  0  0  0  0  0  0  0  # atno 8010 bound_to 7997
  140.6151  143.8325  150.7109 H   0  0  0  0  0  0  0  0  0  0  0  0  # atno 10167 bound_to 10162
  156.8345  130.9665  151.3104 H   0  0  0  0  0  0  0  0  0  0  0  0  # atno 10718 bound_to 10713
  152.9805  135.5745  154.4904 H   0  0  0  0  0  0  0  0  0  0  0  0  # atno 10763 bound_to 10752
  154.4439  135.2776  155.1830 H   0  0  0  0  0  0  0  0  0  0  0  0  # atno 10764 bound_to 10752
  154.3486  135.6214  153.5685 H   0  0  0  0  0  0  0  0  0  0  0  0  # atno 10765 bound_to 10752
  141.0034  133.6944  156.2065 H   0  0  0  0  0  0  0  0  0  0  0  0  # atno 11005 bound_to 11000
  146.1371  139.4419  143.0132 LP  0  0  0  0  0  0  0  0  0  0  0  0  # atno 17320 bound_to 7965
  145.7075  141.0116  143.1471 LP  0  0  0  0  0  0  0  0  0  0  0  0  # atno 17321 bound_to 7965
  140.1902  143.4043  152.1869 LP  0  0  0  0  0  0  0  0  0  0  0  0  # atno 17342 bound_to 10162
  139.5392  144.7240  151.4790 LP  0  0  0  0  0  0  0  0  0  0  0  0  # atno 17343 bound_to 10162
  157.6389  130.8789  149.9411 LP  0  0  0  0  0  0  0  0  0  0  0  0  # atno 17370 bound_to 10713
  156.0915  130.3663  150.0386 LP  0  0  0  0  0  0  0  0  0  0  0  0  # atno 17371 bound_to 10713
  140.6852  134.4724  157.5589 LP  0  0  0  0  0  0  0  0  0  0  0  0  # atno 17394 bound_to 11000
  139.9050  134.8469  156.1740 LP  0  0  0  0  0  0  0  0  0  0  0  0  # atno 17395 bound_to 11000

$$$$
