AV-unprocessed.smi:1813|AV-procd|sdf|7342|dock2
  -GOLD-   22720 9 03D 1   1.00000     0.00000
 Structure written by MMmdl.
 40 41  0  0  0  0  0  0  0  0  2 V2000
  148.8625  132.7531  153.3484 C   0  0  0  0  0  0  0  0  0  0  0  0
  148.5670  134.1139  153.7709 N   0  0  0  0  0  0  0  0  0  0  0  0
  148.3932  134.4859  155.0468 C   0  0  0  0  0  0  0  0  0  0  0  0
  148.4620  133.7019  155.9941 O   0  0  0  0  0  0  0  0  0  0  0  0
  148.0761  135.9659  155.2846 C   0  0  0  0  0  0  0  0  0  0  0  0
  149.1050  136.8778  154.7215 N   0  3  2  0  0  0  0  0  0  0  0  0
  150.4454  136.6614  155.3230 C   0  0  0  0  0  0  0  0  0  0  0  0
  151.5179  137.5111  154.6165 C   0  0  0  0  0  0  0  0  0  0  0  0
  151.1581  139.0073  154.6047 C   0  0  2  0  0  0  0  0  0  0  0  0
  151.3008  139.5804  155.9432 N   0  0  0  0  0  0  0  0  0  0  0  0
  151.0948  140.8678  156.2588 C   0  0  0  0  0  0  0  0  0  0  0  0
  150.7449  141.7176  155.4395 O   0  0  0  0  0  0  0  0  0  0  0  0
  151.3167  141.0918  157.5659 N   0  0  0  0  0  0  0  0  0  0  0  0
  151.1893  142.3124  158.2798 C   0  0  0  0  0  0  0  0  0  0  0  0
  150.2198  143.2109  158.0708 N   0  0  0  0  0  0  0  0  0  0  0  0
  150.3377  144.3160  158.9175 C   0  0  0  0  0  0  0  0  0  0  0  0
  151.4101  144.2414  159.7712 C   0  0  0  0  0  0  0  0  0  0  0  0
  152.3212  142.7725  159.5433 S   0  0  0  0  0  0  0  0  0  0  0  0
  149.7330  139.1951  154.0460 C   0  0  0  0  0  0  0  0  0  0  0  0
  148.7073  138.3099  154.7745 C   0  0  0  0  0  0  0  0  0  0  0  0
  149.0492  132.7292  152.2750 H   0  0  0  0  0  0  0  0  0  0  0  0
  148.0229  132.0910  153.5633 H   0  0  0  0  0  0  0  0  0  0  0  0
  149.7482  132.3684  153.8556 H   0  0  0  0  0  0  0  0  0  0  0  0
  148.4865  134.8134  153.0466 H   0  0  0  0  0  0  0  0  0  0  0  0
  147.0925  136.2179  154.8846 H   0  0  0  0  0  0  0  0  0  0  0  0
  148.0185  136.1002  156.3655 H   0  0  0  0  0  0  0  0  0  0  0  0
  150.4105  136.8983  156.3874 H   0  0  0  0  0  0  0  0  0  0  0  0
  150.7188  135.6087  155.2428 H   0  0  0  0  0  0  0  0  0  0  0  0
  152.4893  137.3583  155.0885 H   0  0  0  0  0  0  0  0  0  0  0  0
  151.6242  137.1629  153.5882 H   0  0  0  0  0  0  0  0  0  0  0  0
  151.8640  139.5182  153.9471 H   0  0  0  0  0  0  0  0  0  0  0  0
  151.5940  138.9550  156.6792 H   0  0  0  0  0  0  0  0  0  0  0  0
  151.6053  140.2974  158.1172 H   0  0  0  0  0  0  0  0  0  0  0  0
  149.6118  145.1121  158.8449 H   0  0  0  0  0  0  0  0  0  0  0  0
  151.7178  144.9592  160.5170 H   0  0  0  0  0  0  0  0  0  0  0  0
  149.4304  140.2413  154.1014 H   0  0  0  0  0  0  0  0  0  0  0  0
  149.7295  138.9396  152.9856 H   0  0  0  0  0  0  0  0  0  0  0  0
  147.7299  138.4460  154.3111 H   0  0  0  0  0  0  0  0  0  0  0  0
  148.6064  138.6247  155.8144 H   0  0  0  0  0  0  0  0  0  0  0  0
  149.1899  136.6328  153.7449 H   0  0  0  0  0  0  0  0  0  0  0  0
  1  2  1  0  0  0  0
  1 21  1  0  0  0  0
  1 22  1  0  0  0  0
  1 23  1  0  0  0  0
  2  3  1  0  0  0  0
  2 24  1  0  0  0  0
  3  4  2  0  0  0  0
  3  5  1  0  0  0  0
  5  6  1  0  0  0  0
  5 25  1  0  0  0  0
  5 26  1  0  0  0  0
  6 20  1  0  0  0  0
  6  7  1  0  0  0  0
  6 40  1  0  0  0  0
  7  8  1  0  0  0  0
  7 27  1  0  0  0  0
  7 28  1  0  0  0  0
  8  9  1  0  0  0  0
  8 29  1  0  0  0  0
  8 30  1  0  0  0  0
  9 10  1  0  0  0  0
  9 19  1  0  0  0  0
  9 31  1  0  0  0  0
 10 11  1  0  0  0  0
 10 32  1  0  0  0  0
 11 12  2  0  0  0  0
 11 13  1  0  0  0  0
 13 14  1  0  0  0  0
 13 33  1  0  0  0  0
 14 18  1  0  0  0  0
 14 15  2  0  0  0  0
 15 16  1  0  0  0  0
 16 17  2  0  0  0  0
 16 34  1  0  0  0  0
 17 18  1  0  0  0  0
 17 35  1  0  0  0  0
 19 20  1  0  0  0  0
 19 36  1  0  0  0  0
 19 37  1  0  0  0  0
 20 38  1  0  0  0  0
 20 39  1  0  0  0  0
M  CHG  1   6   1
M  END
> <s_m_source_file>
AV-unprocessed.smi

> <i_m_source_file_index>
1813

> <i_lp_mmshare_version>
43012

> <i_f3d_flags>
0

> <s_epik_input>
W0NIM11bTkhdQyg9TylbQ0gyXU4xW0NIMl1bQ0gyXVtDSF0oW0NIMl1bQ0gyXTEpW05IXUMoPU8pW05IXWMybltjSF1bY0hdczI=

> <s_epik_cmdline>
J2VwaWtfcHl0aG9uJywgJy1waCcsICc3LjAnLCAnLXRuJywgJzgnLCAnLW1hJywgJzIwMCcsICctbWV0YWxfYmluZGluZycsICctaW1hZScsICc8aW5maWxlLm1hZT4nLCAnLW9tYWUnLCAnPG91dGZpbGUubWFlPic=

> <r_lp_tautomer_probability>
0.999

> <r_epik_Ionization_Penalty>
0.862509

> <r_epik_Ionization_Penalty_Charging>
0.862349

> <r_epik_Ionization_Penalty_Neutral>
0.000159522

> <r_epik_State_Penalty>
0.898939

> <r_epik_Charging_Adjusted_Penalty>
1.76129

> <i_epik_Tot_Q>
1

> <i_epik_Tot_abs_Q>
1

> <r_epik_Metal_State_Penalty>
0.936827

> <b_epik_Metal_Only>
0

> <s_lp_Force_Field>
OPLS_2005

> <r_lp_Energy>
11.766

> <b_lp_Chiralities_Consistent>
1

> <s_lp_Variant>
AV-unprocessed.smi:1813-3

> <Gold.Version>
5.8.1

> <Gold.Id.Protein>
6NUR|6NUR_protein|mol2

> <Gold.PLP.Fitness>
42.4428

> <Gold.PLP.PLP>
-30.4750

> <Gold.PLP.part.hbond>
-3.0000

> <Gold.PLP.part.metal>
0.0000

> <Gold.PLP.part.buried>
-0.2398

> <Gold.PLP.part.nonpolar>
-27.8960

> <Gold.PLP.part.repulsive>
0.5057

> <Gold.PLP.ligand.clash>
0.0000

> <Gold.PLP.ligand.torsion>
0.3260

> <Gold.PLP.Chemscore.Hbond>
3.1966

> <Gold.PLP.Chemscore.CHOScore>
0.9983

> <Gold.PLP.Chemscore.Metal>
0.0000

> <Gold.Chemscore.Hbonds>
donor molecule, donor type, donor heavy atom, donor atom, acceptor molecule, acceptor atom, score
      L1  H     2    24       P1  7948  1.00
      L1  H     6    40       P1  7948  2.00
      P1  H  7989  7998       L1    12  0.15
      L1  C    16    34       P1  8029  1.00

> <Gold.PLP.Chemscore.Internal.Correction>
0.0351

> <Gold.Rescore>
     Score         DG    S(hbond)    S(metal)    S(lipo)     H(rot)  DE(clash)    DE(int)     intcor
     13.72     -15.37       1.94        0.00      68.22       1.79       0.21       1.44       ----

> <Gold.Chemscore.Fitness>
13.7166

> <Gold.Chemscore.DG>
-15.3679

> <Gold.Chemscore.ZeroCoef>
-5.4800

> <Gold.Chemscore.Hbond>
1.9397

> <Gold.Chemscore.Metal>
0.0000

> <Gold.Chemscore.Lipo>
68.2229

> <Gold.Chemscore.Internal_Hbond>
0.0000

> <Gold.Chemscore.DEClash>
0.2141

> <Gold.Chemscore.DEInternal>
1.4372

> <Gold.Chemscore.Rot>
1.7862

> <Gold.Chemscore.Internal.Correction>
   9.000000E+99

> <Gold.Chemscore.Hbonds>
donor molecule, donor type, donor heavy atom, donor atom, acceptor molecule, acceptor atom, score
      L1  H     2    24       P1  7948  0.55
      L1  H     6    40       P1  7948  0.97
      P1  H  7989  7998       L1    12  0.05

> <Gold.Chemscore.Hbond.Weighted>
-6.4785

> <Gold.Chemscore.Metal.Weighted>
-0.0000

> <Gold.Chemscore.Lipo.Weighted>
-7.9821

> <Gold.Chemscore.Internal_Hbond.Weighted>
0.0000

> <Gold.Chemscore.DEClash.Weighted>
0.2141

> <Gold.Chemscore.DEInternal.Weighted>
1.4372

> <Gold.Chemscore.Rot.Weighted>
4.5726

> <Gold.Chemscore.Internal.Correction.Weighted>
   9.000000E+99

> <Gold.Protein.RotatedTorsions>
[ 6907 6896 6895 6894 ] final  -73.65 input  -60.11 | X-H torsion
[ 7974 7965 7964 7962 ] final   75.31 input  175.53 | X-H torsion
[ 8008 7997 7996 7995 ] final  -59.29 input   59.86 | X-H torsion
[ 10167 10162 10161 10158 ] final -106.07 input  -65.29 | X-H torsion
[ 10718 10713 10712 10709 ] final   98.05 input   66.30 | X-H torsion
[ 10763 10752 10751 10750 ] final -127.51 input  -60.55 | X-H torsion
[ 11005 11000 10999 10996 ] final -108.56 input  -57.11 | X-H torsion

> <Gold.Protein.ActiveResidues>
 VAL166  LYS551  ARG553  GLY616  TRP617  ASP618  TYR619  PRO620  LYS621  CYS622 
 ASP623  PHE694  ASN695  SER759  ASP760  ASP761  ALA762  ILE779  LEU786  VAL792 
 PHE793  MET794  SER795  GLU796  ALA797  LYS798  CYS799  TRP800  GLU811  SER814 

> <Gold.Protein.RotatedAtoms>
  150.7122  134.4985  159.5549 H   0  0  0  0  0  0  0  0  0  0  0  0  # atno 6907 bound_to 6896
  152.2587  134.8054  160.0443 H   0  0  0  0  0  0  0  0  0  0  0  0  # atno 6908 bound_to 6896
  151.8775  133.3453  159.3792 H   0  0  0  0  0  0  0  0  0  0  0  0  # atno 6909 bound_to 6896
  145.7172  139.2635  143.1617 H   0  0  0  0  0  0  0  0  0  0  0  0  # atno 7974 bound_to 7965
  154.4346  140.1065  156.6093 H   0  0  0  0  0  0  0  0  0  0  0  0  # atno 8008 bound_to 7997
  155.5827  140.3491  155.4526 H   0  0  0  0  0  0  0  0  0  0  0  0  # atno 8009 bound_to 7997
  156.0306  140.1260  157.0251 H   0  0  0  0  0  0  0  0  0  0  0  0  # atno 8010 bound_to 7997
  140.1917  143.3887  152.1201 H   0  0  0  0  0  0  0  0  0  0  0  0  # atno 10167 bound_to 10162
  157.6902  131.0628  150.4737 H   0  0  0  0  0  0  0  0  0  0  0  0  # atno 10718 bound_to 10713
  154.8752  135.3959  154.3605 H   0  0  0  0  0  0  0  0  0  0  0  0  # atno 10763 bound_to 10752
  153.4378  135.7026  153.6194 H   0  0  0  0  0  0  0  0  0  0  0  0  # atno 10764 bound_to 10752
  153.4787  135.3774  155.2400 H   0  0  0  0  0  0  0  0  0  0  0  0  # atno 10765 bound_to 10752
  141.0895  133.9080  157.2109 H   0  0  0  0  0  0  0  0  0  0  0  0  # atno 11005 bound_to 11000
  146.0659  140.7921  142.9712 LP  0  0  0  0  0  0  0  0  0  0  0  0  # atno 17320 bound_to 7965
  144.6926  140.3268  143.7223 LP  0  0  0  0  0  0  0  0  0  0  0  0  # atno 17321 bound_to 7965
  139.5253  144.7094  151.5252 LP  0  0  0  0  0  0  0  0  0  0  0  0  # atno 17342 bound_to 10162
  140.6451  143.8810  150.6729 LP  0  0  0  0  0  0  0  0  0  0  0  0  # atno 17343 bound_to 10162
  156.5074  130.4131  149.6320 LP  0  0  0  0  0  0  0  0  0  0  0  0  # atno 17370 bound_to 10713
  156.3272  130.7312  151.2235 LP  0  0  0  0  0  0  0  0  0  0  0  0  # atno 17371 bound_to 10713
  139.9718  135.0126  156.9531 LP  0  0  0  0  0  0  0  0  0  0  0  0  # atno 17394 bound_to 11000
  140.5286  134.0836  155.7310 LP  0  0  0  0  0  0  0  0  0  0  0  0  # atno 17395 bound_to 11000

$$$$
