AV-unprocessed.smi:249|AV-procd|sdf|1925|dock2
  -GOLD-   2262021 33D 1   1.00000     0.00000
 Structure written by MMmdl.
 64 67  0  0  0  0  0  0  0  0  2 V2000
  151.7543  145.8963  160.0175 C   0  0  0  0  0  0  0  0  0  0  0  0
  152.6695  144.6596  160.0736 C   0  0  0  0  0  0  0  0  0  0  0  0
  152.0863  143.4351  159.4557 N   0  3  1  0  0  0  0  0  0  0  0  0
  151.3249  143.7389  158.2138 C   0  0  0  0  0  0  0  0  0  0  0  0
  150.5112  142.5255  157.7439 C   0  0  0  0  0  0  0  0  0  0  0  0
  151.4363  141.3123  157.5314 C   0  0  2  0  0  0  0  0  0  0  0  0
  150.7543  140.1327  156.9794 N   0  0  0  0  0  0  0  0  0  0  0  0
  149.6785  140.3595  156.0202 C   0  0  0  0  0  0  0  0  0  0  0  0
  150.6292  138.9696  157.6729 C   0  0  0  0  0  0  0  0  0  0  0  0
  151.7319  138.3174  158.1257 N   0  0  0  0  0  0  0  0  0  0  0  0
  151.6118  137.1865  158.8268 C   0  0  0  0  0  0  0  0  0  0  0  0
  150.5004  136.5446  159.1891 N   0  0  0  0  0  0  0  0  0  0  0  0
  149.3877  137.1951  158.7447 C   0  0  0  0  0  0  0  0  0  0  0  0
  149.3621  138.3991  157.9852 C   0  0  0  0  0  0  0  0  0  0  0  0
  148.0472  138.7492  157.7016 N   0  0  0  0  0  0  0  0  0  0  0  0
  147.3369  137.8115  158.2662 C   0  0  0  0  0  0  0  0  0  0  0  0
  148.0610  136.8495  158.9338 N   0  0  0  0  0  0  0  0  0  0  0  0
  147.5293  135.6968  159.6394 C   0  0  0  0  0  0  0  0  0  0  0  0
  146.7793  136.0248  160.9612 C   0  0  2  0  0  0  0  0  0  0  0  0
  147.8147  136.3893  162.0527 C   0  0  0  0  0  0  0  0  0  0  0  0
  147.6134  137.7018  162.5361 O   0  0  0  0  0  0  0  0  0  0  0  0
  145.8357  134.8770  161.4315 C   0  0  1  0  0  0  0  0  0  0  0  0
  146.5311  133.5657  161.7684 C   0  0  0  0  0  0  0  0  0  0  0  0
  145.4829  132.8454  162.6030 C   0  0  0  0  0  0  0  0  0  0  0  0
  144.8922  133.8700  163.3858 O   0  0  0  0  0  0  0  0  0  0  0  0
  145.0779  135.1301  162.7471 C   0  0  0  0  0  0  0  0  0  0  0  0
  152.2452  141.0314  158.8142 C   0  0  0  0  0  0  0  0  0  0  0  0
  153.0228  142.2801  159.2816 C   0  0  2  0  0  0  0  0  0  0  0  0
  153.8038  141.9435  160.5674 C   0  0  0  0  0  0  0  0  0  0  0  0
  152.2377  146.7463  160.4993 H   0  0  0  0  0  0  0  0  0  0  0  0
  150.8103  145.7282  160.5351 H   0  0  0  0  0  0  0  0  0  0  0  0
  151.5302  146.1934  158.9933 H   0  0  0  0  0  0  0  0  0  0  0  0
  153.6264  144.8872  159.6050 H   0  0  0  0  0  0  0  0  0  0  0  0
  152.9124  144.4428  161.1145 H   0  0  0  0  0  0  0  0  0  0  0  0
  150.6469  144.5747  158.3902 H   0  0  0  0  0  0  0  0  0  0  0  0
  152.0095  144.0483  157.4234 H   0  0  0  0  0  0  0  0  0  0  0  0
  149.7393  142.3101  158.4816 H   0  0  0  0  0  0  0  0  0  0  0  0
  149.9920  142.7738  156.8179 H   0  0  0  0  0  0  0  0  0  0  0  0
  152.1646  141.5990  156.7712 H   0  0  0  0  0  0  0  0  0  0  0  0
  149.8626  139.8068  155.0988 H   0  0  0  0  0  0  0  0  0  0  0  0
  149.5978  141.4151  155.7583 H   0  0  0  0  0  0  0  0  0  0  0  0
  148.7163  140.0435  156.4262 H   0  0  0  0  0  0  0  0  0  0  0  0
  152.5381  136.7328  159.1467 H   0  0  0  0  0  0  0  0  0  0  0  0
  146.2575  137.8029  158.2202 H   0  0  0  0  0  0  0  0  0  0  0  0
  146.8675  135.1526  158.9644 H   0  0  0  0  0  0  0  0  0  0  0  0
  148.3735  135.0343  159.8325 H   0  0  0  0  0  0  0  0  0  0  0  0
  146.1640  136.9110  160.8014 H   0  0  0  0  0  0  0  0  0  0  0  0
  147.7355  135.7306  162.9162 H   0  0  0  0  0  0  0  0  0  0  0  0
  148.8315  136.2959  161.6702 H   0  0  0  0  0  0  0  0  0  0  0  0
  147.6160  137.6782  163.4809 H   0  0  0  0  0  0  0  0  0  0  0  0
  145.1067  134.6719  160.6458 H   0  0  0  0  0  0  0  0  0  0  0  0
  146.8175  132.9894  160.8883 H   0  0  0  0  0  0  0  0  0  0  0  0
  147.4245  133.7482  162.3678 H   0  0  0  0  0  0  0  0  0  0  0  0
  144.7192  132.4045  161.9607 H   0  0  0  0  0  0  0  0  0  0  0  0
  145.9058  132.0559  163.2248 H   0  0  0  0  0  0  0  0  0  0  0  0
  145.6540  135.7642  163.4217 H   0  0  0  0  0  0  0  0  0  0  0  0
  144.1114  135.6038  162.5799 H   0  0  0  0  0  0  0  0  0  0  0  0
  151.5960  140.7033  159.6252 H   0  0  0  0  0  0  0  0  0  0  0  0
  152.9415  140.2121  158.6293 H   0  0  0  0  0  0  0  0  0  0  0  0
  153.7435  142.5376  158.5040 H   0  0  0  0  0  0  0  0  0  0  0  0
  154.4072  141.0457  160.4304 H   0  0  0  0  0  0  0  0  0  0  0  0
  153.1308  141.7615  161.4061 H   0  0  0  0  0  0  0  0  0  0  0  0
  154.4925  142.7385  160.8519 H   0  0  0  0  0  0  0  0  0  0  0  0
  151.3934  143.1175  160.1186 H   0  0  0  0  0  0  0  0  0  0  0  0
  1  2  1  0  0  0  0
  1 30  1  0  0  0  0
  1 31  1  0  0  0  0
  1 32  1  0  0  0  0
  2  3  1  0  0  0  0
  2 33  1  0  0  0  0
  2 34  1  0  0  0  0
  3 28  1  0  0  0  0
  3  4  1  0  0  0  0
  3 64  1  0  0  0  0
  4  5  1  0  0  0  0
  4 35  1  0  0  0  0
  4 36  1  0  0  0  0
  5  6  1  0  0  0  0
  5 37  1  0  0  0  0
  5 38  1  0  0  0  0
  6  7  1  0  0  0  0
  6 27  1  0  0  0  0
  6 39  1  0  0  0  0
  7  8  1  0  0  0  0
  7  9  1  0  0  0  0
  8 40  1  0  0  0  0
  8 41  1  0  0  0  0
  8 42  1  0  0  0  0
  9 14  1  0  0  0  0
  9 10  2  0  0  0  0
 10 11  1  0  0  0  0
 11 12  2  0  0  0  0
 11 43  1  0  0  0  0
 12 13  1  0  0  0  0
 13 17  1  0  0  0  0
 13 14  2  0  0  0  0
 14 15  1  0  0  0  0
 15 16  2  0  0  0  0
 16 17  1  0  0  0  0
 16 44  1  0  0  0  0
 17 18  1  0  0  0  0
 18 19  1  0  0  0  0
 18 45  1  0  0  0  0
 18 46  1  0  0  0  0
 19 20  1  0  0  0  0
 19 22  1  0  0  0  0
 19 47  1  0  0  0  0
 20 21  1  0  0  0  0
 20 48  1  0  0  0  0
 20 49  1  0  0  0  0
 21 50  1  0  0  0  0
 22 26  1  0  0  0  0
 22 23  1  0  0  0  0
 22 51  1  0  0  0  0
 23 24  1  0  0  0  0
 23 52  1  0  0  0  0
 23 53  1  0  0  0  0
 24 25  1  0  0  0  0
 24 54  1  0  0  0  0
 24 55  1  0  0  0  0
 25 26  1  0  0  0  0
 26 56  1  0  0  0  0
 26 57  1  0  0  0  0
 27 28  1  0  0  0  0
 27 58  1  0  0  0  0
 27 59  1  0  0  0  0
 28 29  1  0  0  0  0
 28 60  1  0  0  0  0
 29 61  1  0  0  0  0
 29 62  1  0  0  0  0
 29 63  1  0  0  0  0
M  CHG  1   3   1
M  END
> <s_m_source_file>
AV-unprocessed.smi

> <i_m_source_file_index>
249

> <i_lp_mmshare_version>
43012

> <i_f3d_flags>
0

> <s_epik_input>
W0NIM11bQ0gyXU4xW0NIMl1bQ0gyXVtDQEhdKFtDSDJdW0NASF0xW0NIM10pTihbQ0gzXSljKG5bY0hdbjIpYyhjMjMpbltjSF1uM1tDSDJdW0NASF0oW0NIMl1bT0hdKVtDQEBIXTRbQ0gyXVtDSDJdT1tDSDJdNA==

> <s_epik_cmdline>
J2VwaWtfcHl0aG9uJywgJy1waCcsICc3LjAnLCAnLXRuJywgJzgnLCAnLW1hJywgJzIwMCcsICctbWV0YWxfYmluZGluZycsICctaW1hZScsICc8aW5maWxlLm1hZT4nLCAnLW9tYWUnLCAnPG91dGZpbGUubWFlPic=

> <r_lp_tautomer_probability>
1

> <r_epik_Ionization_Penalty>
0.00294688

> <r_epik_Ionization_Penalty_Charging>
0.00169971

> <r_epik_Ionization_Penalty_Neutral>
0.00124717

> <r_epik_State_Penalty>
-0

> <r_epik_Charging_Adjusted_Penalty>
0.00169971

> <i_epik_Tot_Q>
1

> <i_epik_Tot_abs_Q>
1

> <r_epik_Metal_State_Penalty>
-0

> <b_epik_Metal_Only>
0

> <s_lp_Force_Field>
OPLS_2005

> <r_lp_Energy>
53.7488

> <b_lp_Chiralities_Consistent>
1

> <s_lp_Variant>
AV-unprocessed.smi:249-28

> <Gold.Version>
5.8.1

> <Gold.Id.Protein>
6NUR|6NUR_protein|mol2

> <Gold.PLP.Fitness>
50.1082

> <Gold.PLP.PLP>
-47.1323

> <Gold.PLP.part.hbond>
-3.7781

> <Gold.PLP.part.metal>
0.0000

> <Gold.PLP.part.buried>
-5.2100

> <Gold.PLP.part.nonpolar>
-37.4036

> <Gold.PLP.part.repulsive>
0.1316

> <Gold.PLP.ligand.clash>
0.0000

> <Gold.PLP.ligand.torsion>
2.2007

> <Gold.PLP.Chemscore.Hbond>
2.0640

> <Gold.PLP.Chemscore.CHOScore>
0.0000

> <Gold.PLP.Chemscore.Metal>
0.0000

> <Gold.Chemscore.Hbonds>
donor molecule, donor type, donor heavy atom, donor atom, acceptor molecule, acceptor atom, score
      P1  H  6896  6908       L1    12  1.00
      P1  H  6931  6943       L1    21  0.42
      P1  H  6934  6947       L1    21  0.27

> <Gold.PLP.Chemscore.Internal.Correction>
1.1855

> <Gold.Rescore>
     Score         DG    S(hbond)    S(metal)    S(lipo)     H(rot)  DE(clash)    DE(int)     intcor
     13.71     -19.03       1.62        0.00     127.54       2.65       0.33       4.98       ----

> <Gold.Chemscore.Fitness>
13.7124

> <Gold.Chemscore.DG>
-19.0251

> <Gold.Chemscore.ZeroCoef>
-5.4800

> <Gold.Chemscore.Hbond>
1.6202

> <Gold.Chemscore.Metal>
0.0000

> <Gold.Chemscore.Lipo>
127.5361

> <Gold.Chemscore.Internal_Hbond>
0.0000

> <Gold.Chemscore.DEClash>
0.3342

> <Gold.Chemscore.DEInternal>
4.9784

> <Gold.Chemscore.Rot>
2.6515

> <Gold.Chemscore.Internal.Correction>
   9.000000E+99

> <Gold.Chemscore.Hbonds>
donor molecule, donor type, donor heavy atom, donor atom, acceptor molecule, acceptor atom, score
      P1  H  6896  6908       L1    12  0.73
      P1  H  6931  6943       L1    21  0.04
      P1  H  6934  6947       L1    21  0.22

> <Gold.Chemscore.Hbond.Weighted>
-5.4113

> <Gold.Chemscore.Metal.Weighted>
-0.0000

> <Gold.Chemscore.Lipo.Weighted>
-14.9217

> <Gold.Chemscore.Internal_Hbond.Weighted>
0.0000

> <Gold.Chemscore.DEClash.Weighted>
0.3342

> <Gold.Chemscore.DEInternal.Weighted>
4.9784

> <Gold.Chemscore.Rot.Weighted>
6.7880

> <Gold.Chemscore.Internal.Correction.Weighted>
   9.000000E+99

> <Gold.Protein.RotatedTorsions>
[ 6907 6896 6895 6894 ] final -166.68 input  -60.11 | X-H torsion
[ 7974 7965 7964 7962 ] final  -86.18 input  175.53 | X-H torsion
[ 8008 7997 7996 7995 ] final  -57.85 input   59.86 | X-H torsion
[ 10167 10162 10161 10158 ] final  169.42 input  -65.29 | X-H torsion
[ 10718 10713 10712 10709 ] final   20.54 input   66.30 | X-H torsion
[ 10763 10752 10751 10750 ] final -114.58 input  -60.55 | X-H torsion
[ 11005 11000 10999 10996 ] final -142.53 input  -57.11 | X-H torsion

> <Gold.Protein.ActiveResidues>
 VAL166  LYS551  ARG553  GLY616  TRP617  ASP618  TYR619  PRO620  LYS621  CYS622 
 ASP623  PHE694  ASN695  SER759  ASP760  ASP761  ALA762  ILE779  LEU786  VAL792 
 PHE793  MET794  SER795  GLU796  ALA797  LYS798  CYS799  TRP800  GLU811  SER814 

> <Gold.Protein.RotatedAtoms>
  151.4475  133.3626  159.2790 H   0  0  0  0  0  0  0  0  0  0  0  0  # atno 6907 bound_to 6896
  150.9114  134.8533  159.7439 H   0  0  0  0  0  0  0  0  0  0  0  0  # atno 6908 bound_to 6896
  152.4934  134.4405  159.9594 H   0  0  0  0  0  0  0  0  0  0  0  0  # atno 6909 bound_to 6896
  145.4833  140.9556  143.1852 H   0  0  0  0  0  0  0  0  0  0  0  0  # atno 7974 bound_to 7965
  154.4285  140.1097  156.5864 H   0  0  0  0  0  0  0  0  0  0  0  0  # atno 8008 bound_to 7997
  155.6058  140.3494  155.4588 H   0  0  0  0  0  0  0  0  0  0  0  0  # atno 8009 bound_to 7997
  156.0137  140.1225  157.0417 H   0  0  0  0  0  0  0  0  0  0  0  0  # atno 8010 bound_to 7997
  139.4992  144.3708  151.9727 H   0  0  0  0  0  0  0  0  0  0  0  0  # atno 10167 bound_to 10162
  157.1260  130.6570  149.5937 H   0  0  0  0  0  0  0  0  0  0  0  0  # atno 10718 bound_to 10713
  154.8446  135.4413  154.1528 H   0  0  0  0  0  0  0  0  0  0  0  0  # atno 10763 bound_to 10752
  153.2684  135.6943  153.7511 H   0  0  0  0  0  0  0  0  0  0  0  0  # atno 10764 bound_to 10752
  153.6761  135.3410  155.3141 H   0  0  0  0  0  0  0  0  0  0  0  0  # atno 10765 bound_to 10752
  140.8216  134.2624  157.4898 H   0  0  0  0  0  0  0  0  0  0  0  0  # atno 11005 bound_to 11000
  144.7876  139.6395  143.7127 LP  0  0  0  0  0  0  0  0  0  0  0  0  # atno 17320 bound_to 7965
  146.2328  139.5846  142.9544 LP  0  0  0  0  0  0  0  0  0  0  0  0  # atno 17321 bound_to 7965
  140.3144  144.3501  150.6025 LP  0  0  0  0  0  0  0  0  0  0  0  0  # atno 17342 bound_to 10162
  140.5773  143.2175  151.7492 LP  0  0  0  0  0  0  0  0  0  0  0  0  # atno 17343 bound_to 10162
  155.9818  130.4828  150.6848 LP  0  0  0  0  0  0  0  0  0  0  0  0  # atno 17370 bound_to 10713
  157.4435  131.0864  151.0920 LP  0  0  0  0  0  0  0  0  0  0  0  0  # atno 17371 bound_to 10713
  139.8708  134.9538  156.4157 LP  0  0  0  0  0  0  0  0  0  0  0  0  # atno 17394 bound_to 11000
  140.9093  133.7723  155.9772 LP  0  0  0  0  0  0  0  0  0  0  0  0  # atno 17395 bound_to 11000

$$$$
