AV-unprocessed.smi:3045|AV-procd|sdf|11610|dock4
  -GOLD-   2272016593D 1   1.00000     0.00000
 Structure written by MMmdl.
 35 36  0  0  0  0  0  0  0  0  1 V2000
  151.8520  145.8759  160.1657 C   0  0  0  0  0  0  0  0  0  0  0  0
  152.2795  144.4906  160.0266 N   0  0  0  0  0  0  0  0  0  0  0  0
  152.4728  143.8920  158.7167 C   0  0  0  0  0  0  0  0  0  0  0  0
  152.7551  142.3967  158.9837 C   0  0  2  0  0  0  0  0  0  0  0  0
  151.5984  141.4867  158.5432 C   0  0  0  0  0  0  0  0  0  0  0  0
  151.6268  140.2822  158.7982 O   0  0  0  0  0  0  0  0  0  0  0  0
  150.6003  142.0747  157.8644 N   0  0  0  0  0  0  0  0  0  0  0  0
  149.4490  141.3876  157.2842 C   0  0  0  0  0  0  0  0  0  0  0  0
  149.5941  141.1912  155.7622 C   0  0  0  0  0  0  0  0  0  0  0  0
  150.5569  140.0803  155.3792 C   0  0  0  0  0  0  0  0  0  0  0  0
  150.1242  138.9707  154.6234 C   0  0  0  0  0  0  0  0  0  0  0  0
  151.0633  137.9835  154.2690 C   0  0  0  0  0  0  0  0  0  0  0  0
  152.3983  138.1466  154.6892 C   0  0  0  0  0  0  0  0  0  0  0  0
  152.8230  139.2012  155.4178 N   0  0  0  0  0  0  0  0  0  0  0  0
  151.9163  140.1442  155.7521 C   0  0  0  0  0  0  0  0  0  0  0  0
  152.9885  142.2966  160.5050 C   0  0  0  0  0  0  0  0  0  0  0  0
  152.5843  143.6634  161.0305 C   0  0  0  0  0  0  0  0  0  0  0  0
  152.5477  143.9335  162.2298 O   0  0  0  0  0  0  0  0  0  0  0  0
  152.6755  146.4922  160.5283 H   0  0  0  0  0  0  0  0  0  0  0  0
  151.0253  145.9558  160.8727 H   0  0  0  0  0  0  0  0  0  0  0  0
  151.5184  146.2826  159.2105 H   0  0  0  0  0  0  0  0  0  0  0  0
  151.5981  144.0579  158.0852 H   0  0  0  0  0  0  0  0  0  0  0  0
  153.3250  144.3651  158.2268 H   0  0  0  0  0  0  0  0  0  0  0  0
  153.6610  142.1002  158.4519 H   0  0  0  0  0  0  0  0  0  0  0  0
  150.6613  143.0699  157.7050 H   0  0  0  0  0  0  0  0  0  0  0  0
  149.2884  140.4253  157.7732 H   0  0  0  0  0  0  0  0  0  0  0  0
  148.5591  141.9823  157.4911 H   0  0  0  0  0  0  0  0  0  0  0  0
  148.6187  140.9702  155.3276 H   0  0  0  0  0  0  0  0  0  0  0  0
  149.9252  142.1234  155.3029 H   0  0  0  0  0  0  0  0  0  0  0  0
  149.0944  138.8810  154.3104 H   0  0  0  0  0  0  0  0  0  0  0  0
  150.7691  137.1235  153.6858 H   0  0  0  0  0  0  0  0  0  0  0  0
  153.1450  137.4095  154.4337 H   0  0  0  0  0  0  0  0  0  0  0  0
  152.2887  140.9805  156.3253 H   0  0  0  0  0  0  0  0  0  0  0  0
  152.4007  141.5151  160.9895 H   0  0  0  0  0  0  0  0  0  0  0  0
  154.0399  142.1153  160.7306 H   0  0  0  0  0  0  0  0  0  0  0  0
  1  2  1  0  0  0  0
  1 19  1  0  0  0  0
  1 20  1  0  0  0  0
  1 21  1  0  0  0  0
  2 17  1  0  0  0  0
  2  3  1  0  0  0  0
  3  4  1  0  0  0  0
  3 22  1  0  0  0  0
  3 23  1  0  0  0  0
  4  5  1  0  0  0  0
  4 16  1  0  0  0  0
  4 24  1  0  0  0  0
  5  6  2  0  0  0  0
  5  7  1  0  0  0  0
  7  8  1  0  0  0  0
  7 25  1  0  0  0  0
  8  9  1  0  0  0  0
  8 26  1  0  0  0  0
  8 27  1  0  0  0  0
  9 10  1  0  0  0  0
  9 28  1  0  0  0  0
  9 29  1  0  0  0  0
 10 15  1  0  0  0  0
 10 11  2  0  0  0  0
 11 12  1  0  0  0  0
 11 30  1  0  0  0  0
 12 13  2  0  0  0  0
 12 31  1  0  0  0  0
 13 14  1  0  0  0  0
 13 32  1  0  0  0  0
 14 15  2  0  0  0  0
 15 33  1  0  0  0  0
 16 17  1  0  0  0  0
 16 34  1  0  0  0  0
 16 35  1  0  0  0  0
 17 18  2  0  0  0  0
M  END
> <s_m_source_file>
AV-unprocessed.smi

> <i_m_source_file_index>
3045

> <i_lp_mmshare_version>
43012

> <i_f3d_flags>
0

> <s_epik_input>
W0NIM11OMVtDSDJdW0NASF0oW0NIMl1DMT1PKUMoPU8pW05IXVtDSDJdW0NIMl1jMltjSF1bY0hdW2NIXW5bY0hdMg==

> <s_epik_cmdline>
J2VwaWtfcHl0aG9uJywgJy1waCcsICc3LjAnLCAnLXRuJywgJzgnLCAnLW1hJywgJzIwMCcsICctbWV0YWxfYmluZGluZycsICctaW1hZScsICc8aW5maWxlLm1hZT4nLCAnLW9tYWUnLCAnPG91dGZpbGUubWFlPic=

> <r_epik_Ionization_Penalty>
0.0130932

> <r_epik_Ionization_Penalty_Charging>
0

> <r_epik_Ionization_Penalty_Neutral>
0.0130932

> <r_epik_State_Penalty>
0.0101714

> <r_epik_Charging_Adjusted_Penalty>
0.0101714

> <i_epik_Tot_Q>
0

> <i_epik_Tot_abs_Q>
0

> <r_epik_Metal_State_Penalty>
0.00995082

> <b_epik_Metal_Only>
0

> <s_lp_Force_Field>
OPLS_2005

> <r_lp_Energy>
10.4335

> <b_lp_Chiralities_Consistent>
1

> <s_lp_Variant>
AV-unprocessed.smi:3045-2

> <Gold.Version>
5.8.1

> <Gold.Id.Protein>
6NUR|6NUR_protein|mol2

> <Gold.PLP.Fitness>
48.0333

> <Gold.PLP.PLP>
-45.7206

> <Gold.PLP.part.hbond>
-1.0000

> <Gold.PLP.part.metal>
0.0000

> <Gold.PLP.part.buried>
-3.3097

> <Gold.PLP.part.nonpolar>
-39.8662

> <Gold.PLP.part.repulsive>
0.2130

> <Gold.PLP.ligand.clash>
0.1782

> <Gold.PLP.ligand.torsion>
0.2532

> <Gold.PLP.Chemscore.Hbond>
0.9913

> <Gold.PLP.Chemscore.CHOScore>
0.0000

> <Gold.PLP.Chemscore.Metal>
0.0000

> <Gold.Chemscore.Hbonds>
donor molecule, donor type, donor heavy atom, donor atom, acceptor molecule, acceptor atom, score
      P1  H  7997  8010       L1    14  0.98

> <Gold.PLP.Chemscore.Internal.Correction>
0.0235

> <Gold.Rescore>
     Score         DG    S(hbond)    S(metal)    S(lipo)     H(rot)  DE(clash)    DE(int)     intcor
     14.79     -15.08       0.77        0.00      95.61       1.62       0.05       0.23       ----

> <Gold.Chemscore.Fitness>
14.7904

> <Gold.Chemscore.DG>
-15.0762

> <Gold.Chemscore.ZeroCoef>
-5.4800

> <Gold.Chemscore.Hbond>
0.7665

> <Gold.Chemscore.Metal>
0.0000

> <Gold.Chemscore.Lipo>
95.6059

> <Gold.Chemscore.Internal_Hbond>
0.0000

> <Gold.Chemscore.DEClash>
0.0540

> <Gold.Chemscore.DEInternal>
0.2318

> <Gold.Chemscore.Rot>
1.6210

> <Gold.Chemscore.Internal.Correction>
   9.000000E+99

> <Gold.Chemscore.Hbonds>
donor molecule, donor type, donor heavy atom, donor atom, acceptor molecule, acceptor atom, score
      P1  H  7997  8010       L1    14  0.26

> <Gold.Chemscore.Hbond.Weighted>
-2.5601

> <Gold.Chemscore.Metal.Weighted>
-0.0000

> <Gold.Chemscore.Lipo.Weighted>
-11.1859

> <Gold.Chemscore.Internal_Hbond.Weighted>
0.0000

> <Gold.Chemscore.DEClash.Weighted>
0.0540

> <Gold.Chemscore.DEInternal.Weighted>
0.2318

> <Gold.Chemscore.Rot.Weighted>
4.1498

> <Gold.Chemscore.Internal.Correction.Weighted>
   9.000000E+99

> <Gold.Protein.RotatedTorsions>
[ 6907 6896 6895 6894 ] final   70.80 input  -60.11 | X-H torsion
[ 7974 7965 7964 7962 ] final  176.11 input  175.53 | X-H torsion
[ 8008 7997 7996 7995 ] final  115.04 input   59.86 | X-H torsion
[ 10167 10162 10161 10158 ] final   90.77 input  -65.29 | X-H torsion
[ 10718 10713 10712 10709 ] final  106.47 input   66.30 | X-H torsion
[ 10763 10752 10751 10750 ] final   29.37 input  -60.55 | X-H torsion
[ 11005 11000 10999 10996 ] final  -95.62 input  -57.11 | X-H torsion

> <Gold.Protein.ActiveResidues>
 VAL166  LYS551  ARG553  GLY616  TRP617  ASP618  TYR619  PRO620  LYS621  CYS622 
 ASP623  PHE694  ASN695  SER759  ASP760  ASP761  ALA762  ILE779  LEU786  VAL792 
 PHE793  MET794  SER795  GLU796  ALA797  LYS798  CYS799  TRP800  GLU811  SER814 

> <Gold.Protein.RotatedAtoms>
  152.4772  134.4814  159.9666 H   0  0  0  0  0  0  0  0  0  0  0  0  # atno 6907 bound_to 6896
  151.4828  133.3536  159.2848 H   0  0  0  0  0  0  0  0  0  0  0  0  # atno 6908 bound_to 6896
  150.8818  134.8237  159.7292 H   0  0  0  0  0  0  0  0  0  0  0  0  # atno 6909 bound_to 6896
  144.7190  140.0048  143.6440 H   0  0  0  0  0  0  0  0  0  0  0  0  # atno 7974 bound_to 7965
  156.2358  140.2947  156.0308 H   0  0  0  0  0  0  0  0  0  0  0  0  # atno 8008 bound_to 7997
  155.2097  140.0412  157.2948 H   0  0  0  0  0  0  0  0  0  0  0  0  # atno 8009 bound_to 7997
  154.6076  140.2443  155.7718 H   0  0  0  0  0  0  0  0  0  0  0  0  # atno 8010 bound_to 7997
  139.8440  144.6627  150.9249 H   0  0  0  0  0  0  0  0  0  0  0  0  # atno 10167 bound_to 10162
  157.6667  131.0851  150.6011 H   0  0  0  0  0  0  0  0  0  0  0  0  # atno 10718 bound_to 10713
  153.0434  135.6490  154.0881 H   0  0  0  0  0  0  0  0  0  0  0  0  # atno 10763 bound_to 10752
  154.0583  135.2890  155.3330 H   0  0  0  0  0  0  0  0  0  0  0  0  # atno 10764 bound_to 10752
  154.6674  135.5369  153.8160 H   0  0  0  0  0  0  0  0  0  0  0  0  # atno 10765 bound_to 10752
  141.1436  133.8039  157.0460 H   0  0  0  0  0  0  0  0  0  0  0  0  # atno 11005 bound_to 11000
  146.0306  139.3331  143.0757 LP  0  0  0  0  0  0  0  0  0  0  0  0  # atno 17320 bound_to 7965
  145.8457  140.9556  143.0776 LP  0  0  0  0  0  0  0  0  0  0  0  0  # atno 17321 bound_to 7965
  140.7795  143.3886  151.1349 LP  0  0  0  0  0  0  0  0  0  0  0  0  # atno 17342 bound_to 10162
  139.7530  143.8749  152.3081 LP  0  0  0  0  0  0  0  0  0  0  0  0  # atno 17343 bound_to 10162
  156.6312  130.4432  149.5786 LP  0  0  0  0  0  0  0  0  0  0  0  0  # atno 17370 bound_to 10713
  156.2280  130.6777  151.1436 LP  0  0  0  0  0  0  0  0  0  0  0  0  # atno 17371 bound_to 10713
  140.0662  134.9727  157.1390 LP  0  0  0  0  0  0  0  0  0  0  0  0  # atno 17394 bound_to 11000
  140.3776  134.2322  155.7173 LP  0  0  0  0  0  0  0  0  0  0  0  0  # atno 17395 bound_to 11000

$$$$
