AV-unprocessed.smi:3298|AV-procd|sdf|12643|dock2
  -GOLD-   2272018573D 1   1.00000     0.00000
 Structure written by MMmdl.
 35 36  0  0  0  0  0  0  0  0  1 V2000
  151.6602  140.0802  155.7342 C   0  0  0  0  0  0  0  0  0  0  0  0
  150.2940  140.1814  155.0885 C   0  0  0  0  0  0  0  0  0  0  0  0
  149.7001  139.0601  154.4719 C   0  0  0  0  0  0  0  0  0  0  0  0
  148.4312  139.2054  153.8736 C   0  0  0  0  0  0  0  0  0  0  0  0
  147.8472  138.0559  153.2759 N   0  0  0  0  0  0  0  0  0  0  0  0
  146.5478  137.7226  153.1874 C   0  0  0  0  0  0  0  0  0  0  0  0
  145.6051  138.4101  153.5806 O   0  0  0  0  0  0  0  0  0  0  0  0
  146.3933  136.5323  152.5907 N   0  0  0  0  0  0  0  0  0  0  0  0
  145.1119  135.8781  152.3519 C   0  0  1  0  0  0  0  0  0  0  0  0
  144.8658  135.7359  150.8737 C   0  0  0  0  0  0  0  0  0  0  0  0
  144.7082  134.4689  150.4968 C   0  0  0  0  0  0  0  0  0  0  0  0
  144.8283  133.5026  151.6468 C   0  0  1  0  0  0  0  0  0  0  0  0
  145.9107  132.4290  151.4231 C   0  0  0  0  0  0  0  0  0  0  0  0
  147.1610  133.0046  151.0971 O   0  0  0  0  0  0  0  0  0  0  0  0
  145.0807  134.4164  152.8736 C   0  0  0  0  0  0  0  0  0  0  0  0
  147.8025  140.4718  153.9425 C   0  0  0  0  0  0  0  0  0  0  0  0
  148.4820  141.5272  154.5825 C   0  0  0  0  0  0  0  0  0  0  0  0
  149.7027  141.3943  155.1431 N   0  0  0  0  0  0  0  0  0  0  0  0
  144.3013  136.4654  152.7866 H   0  0  0  0  0  0  0  0  0  0  0  0
  143.8627  133.0083  151.7607 H   0  0  0  0  0  0  0  0  0  0  0  0
  151.9904  139.0431  155.8001 H   0  0  0  0  0  0  0  0  0  0  0  0
  151.6382  140.4930  156.7433 H   0  0  0  0  0  0  0  0  0  0  0  0
  152.3948  140.6362  155.1510 H   0  0  0  0  0  0  0  0  0  0  0  0
  150.2113  138.1084  154.4537 H   0  0  0  0  0  0  0  0  0  0  0  0
  148.4964  137.4267  152.8274 H   0  0  0  0  0  0  0  0  0  0  0  0
  147.2200  136.0334  152.2962 H   0  0  0  0  0  0  0  0  0  0  0  0
  144.8172  136.5898  150.2142 H   0  0  0  0  0  0  0  0  0  0  0  0
  144.5152  134.1400  149.4865 H   0  0  0  0  0  0  0  0  0  0  0  0
  146.0271  131.8188  152.3192 H   0  0  0  0  0  0  0  0  0  0  0  0
  145.6149  131.7572  150.6164 H   0  0  0  0  0  0  0  0  0  0  0  0
  147.6618  132.3742  150.6020 H   0  0  0  0  0  0  0  0  0  0  0  0
  146.0054  134.1486  153.3875 H   0  0  0  0  0  0  0  0  0  0  0  0
  144.2792  134.2967  153.6036 H   0  0  0  0  0  0  0  0  0  0  0  0
  146.8199  140.6509  153.5346 H   0  0  0  0  0  0  0  0  0  0  0  0
  148.0285  142.5048  154.6513 H   0  0  0  0  0  0  0  0  0  0  0  0
  1  2  1  0  0  0  0
  1 21  1  0  0  0  0
  1 22  1  0  0  0  0
  1 23  1  0  0  0  0
  2 18  1  0  0  0  0
  2  3  2  0  0  0  0
  3  4  1  0  0  0  0
  3 24  1  0  0  0  0
  4  5  1  0  0  0  0
  4 16  2  0  0  0  0
  5  6  1  0  0  0  0
  5 25  1  0  0  0  0
  6  7  2  0  0  0  0
  6  8  1  0  0  0  0
  8  9  1  0  0  0  0
  8 26  1  0  0  0  0
  9 19  1  0  0  0  0
  9 15  1  0  0  0  0
  9 10  1  0  0  0  0
 10 11  2  0  0  0  0
 10 27  1  0  0  0  0
 11 12  1  0  0  0  0
 11 28  1  0  0  0  0
 12 20  1  0  0  0  0
 12 13  1  0  0  0  0
 12 15  1  0  0  0  0
 13 14  1  0  0  0  0
 13 29  1  0  0  0  0
 13 30  1  0  0  0  0
 14 31  1  0  0  0  0
 15 32  1  0  0  0  0
 15 33  1  0  0  0  0
 16 17  1  0  0  0  0
 16 34  1  0  0  0  0
 17 18  2  0  0  0  0
 17 35  1  0  0  0  0
M  END
> <s_m_source_file>
AV-unprocessed.smi

> <i_m_source_file_index>
3298

> <i_lp_mmshare_version>
43012

> <i_f3d_flags>
0

> <s_epik_input>
W0NIM11jMVtjSF1jKFtjSF1bY0hdbjEpW05IXUMoPU8pW05IXVtDQEBIXTJbQ0hdPVtDSF1bQ0BASF0oW0NIMl0yKVtDSDJdW09IXQ==

> <s_epik_cmdline>
J2VwaWtfcHl0aG9uJywgJy1waCcsICc3LjAnLCAnLXRuJywgJzgnLCAnLW1hJywgJzIwMCcsICctbWV0YWxfYmluZGluZycsICctaW1hZScsICc8aW5maWxlLm1hZT4nLCAnLW9tYWUnLCAnPG91dGZpbGUubWFlPic=

> <r_epik_Ionization_Penalty>
0.379275

> <r_epik_Ionization_Penalty_Charging>
0

> <r_epik_Ionization_Penalty_Neutral>
0.379275

> <r_epik_State_Penalty>
0.377195

> <r_epik_Charging_Adjusted_Penalty>
0.377195

> <i_epik_Tot_Q>
0

> <i_epik_Tot_abs_Q>
0

> <r_epik_Metal_State_Penalty>
0.22815

> <b_epik_Metal_Only>
0

> <s_lp_Force_Field>
OPLS_2005

> <r_lp_Energy>
21.2721

> <b_lp_Chiralities_Consistent>
1

> <s_lp_Variant>
AV-unprocessed.smi:3298-4

> <Gold.Version>
5.8.1

> <Gold.Id.Protein>
6NUR|6NUR_protein|mol2

> <Gold.PLP.Fitness>
40.8616

> <Gold.PLP.PLP>
-29.8542

> <Gold.PLP.part.hbond>
-3.3203

> <Gold.PLP.part.metal>
0.0000

> <Gold.PLP.part.buried>
-0.6238

> <Gold.PLP.part.nonpolar>
-26.0112

> <Gold.PLP.part.repulsive>
1.0377

> <Gold.PLP.ligand.clash>
0.0000

> <Gold.PLP.ligand.torsion>
0.2655

> <Gold.PLP.Chemscore.Hbond>
2.8960

> <Gold.PLP.Chemscore.CHOScore>
0.9457

> <Gold.PLP.Chemscore.Metal>
0.0000

> <Gold.Chemscore.Hbonds>
donor molecule, donor type, donor heavy atom, donor atom, acceptor molecule, acceptor atom, score
      L1  H     5    25       P1  7948  1.00
      L1  H     8    26       P1  7948  0.90
      L1  H    14    31       P1 10747  1.00
      L1  C    17    35       P1  8028  0.95

> <Gold.PLP.Chemscore.Internal.Correction>
0.0134

> <Gold.Rescore>
     Score         DG    S(hbond)    S(metal)    S(lipo)     H(rot)  DE(clash)    DE(int)     intcor
     17.27     -18.76       2.88        0.00      70.16       1.78       0.45       1.04       ----

> <Gold.Chemscore.Fitness>
17.2735

> <Gold.Chemscore.DG>
-18.7610

> <Gold.Chemscore.ZeroCoef>
-5.4800

> <Gold.Chemscore.Hbond>
2.8826

> <Gold.Chemscore.Metal>
0.0000

> <Gold.Chemscore.Lipo>
70.1625

> <Gold.Chemscore.Internal_Hbond>
0.0000

> <Gold.Chemscore.DEClash>
0.4509

> <Gold.Chemscore.DEInternal>
1.0366

> <Gold.Chemscore.Rot>
1.7796

> <Gold.Chemscore.Internal.Correction>
   9.000000E+99

> <Gold.Chemscore.Hbonds>
donor molecule, donor type, donor heavy atom, donor atom, acceptor molecule, acceptor atom, score
      L1  H     5    25       P1  7948  0.97
      L1  H     8    26       P1  7948  0.87
      L1  H    14    31       P1 10747  0.93

> <Gold.Chemscore.Hbond.Weighted>
-9.6278

> <Gold.Chemscore.Metal.Weighted>
-0.0000

> <Gold.Chemscore.Lipo.Weighted>
-8.2090

> <Gold.Chemscore.Internal_Hbond.Weighted>
0.0000

> <Gold.Chemscore.DEClash.Weighted>
0.4509

> <Gold.Chemscore.DEInternal.Weighted>
1.0366

> <Gold.Chemscore.Rot.Weighted>
4.5558

> <Gold.Chemscore.Internal.Correction.Weighted>
   9.000000E+99

> <Gold.Protein.RotatedTorsions>
[ 6907 6896 6895 6894 ] final  -17.43 input  -60.11 | X-H torsion
[ 7974 7965 7964 7962 ] final  -40.14 input  175.53 | X-H torsion
[ 8008 7997 7996 7995 ] final  -30.58 input   59.86 | X-H torsion
[ 10167 10162 10161 10158 ] final  141.76 input  -65.29 | X-H torsion
[ 10718 10713 10712 10709 ] final  -13.84 input   66.30 | X-H torsion
[ 10763 10752 10751 10750 ] final   97.27 input  -60.55 | X-H torsion
[ 11005 11000 10999 10996 ] final -101.65 input  -57.11 | X-H torsion

> <Gold.Protein.ActiveResidues>
 VAL166  LYS551  ARG553  GLY616  TRP617  ASP618  TYR619  PRO620  LYS621  CYS622 
 ASP623  PHE694  ASN695  SER759  ASP760  ASP761  ALA762  ILE779  LEU786  VAL792 
 PHE793  MET794  SER795  GLU796  ALA797  LYS798  CYS799  TRP800  GLU811  SER814 

> <Gold.Protein.RotatedAtoms>
  151.2935  135.0748  159.9212 H   0  0  0  0  0  0  0  0  0  0  0  0  # atno 6907 bound_to 6896
  152.5312  133.9907  159.7859 H   0  0  0  0  0  0  0  0  0  0  0  0  # atno 6908 bound_to 6896
  151.0181  133.5851  159.2705 H   0  0  0  0  0  0  0  0  0  0  0  0  # atno 6909 bound_to 6896
  146.0332  140.6705  142.9123 H   0  0  0  0  0  0  0  0  0  0  0  0  # atno 7974 bound_to 7965
  154.4245  140.1787  156.1430 H   0  0  0  0  0  0  0  0  0  0  0  0  # atno 8008 bound_to 7997
  155.9977  140.3363  155.6789 H   0  0  0  0  0  0  0  0  0  0  0  0  # atno 8009 bound_to 7997
  155.6286  140.0667  157.2646 H   0  0  0  0  0  0  0  0  0  0  0  0  # atno 8010 bound_to 7997
  139.5012  144.6151  151.6182 H   0  0  0  0  0  0  0  0  0  0  0  0  # atno 10167 bound_to 10162
  156.6245  130.4884  149.6152 H   0  0  0  0  0  0  0  0  0  0  0  0  # atno 10718 bound_to 10713
  153.2749  135.4189  155.1023 H   0  0  0  0  0  0  0  0  0  0  0  0  # atno 10763 bound_to 10752
  154.8469  135.3481  154.6192 H   0  0  0  0  0  0  0  0  0  0  0  0  # atno 10764 bound_to 10752
  153.6612  135.7048  153.5234 H   0  0  0  0  0  0  0  0  0  0  0  0  # atno 10765 bound_to 10752
  141.1222  133.8495  157.1259 H   0  0  0  0  0  0  0  0  0  0  0  0  # atno 11005 bound_to 11000
  144.7040  140.3773  143.7133 LP  0  0  0  0  0  0  0  0  0  0  0  0  # atno 17320 bound_to 7965
  145.7007  139.1660  143.2594 LP  0  0  0  0  0  0  0  0  0  0  0  0  # atno 17321 bound_to 7965
  140.5837  143.9902  150.6283 LP  0  0  0  0  0  0  0  0  0  0  0  0  # atno 17342 bound_to 10162
  140.3059  143.3229  152.0926 LP  0  0  0  0  0  0  0  0  0  0  0  0  # atno 17343 bound_to 10162
  156.2284  130.6780  151.1439 LP  0  0  0  0  0  0  0  0  0  0  0  0  # atno 17370 bound_to 10713
  157.7218  131.0676  150.6104 LP  0  0  0  0  0  0  0  0  0  0  0  0  # atno 17371 bound_to 10713
  140.0189  134.9955  157.0550 LP  0  0  0  0  0  0  0  0  0  0  0  0  # atno 17394 bound_to 11000
  140.4473  134.1618  155.7178 LP  0  0  0  0  0  0  0  0  0  0  0  0  # atno 17395 bound_to 11000

$$$$
