AV-unprocessed.smi:2492|AV-procd|sdf|9818|dock3
  -GOLD-   2272013443D 1   1.00000     0.00000
 Structure written by MMmdl.
 32 33  0  0  0  0  0  0  0  0  2 V2000
  147.3877  129.6405  154.6631 C   0  0  0  0  0  0  0  0  0  0  0  0
  148.8781  129.8345  153.6503 S   0  0  0  0  0  0  0  0  0  0  0  0
  148.8991  131.6399  153.4556 C   0  0  1  0  0  0  0  0  0  0  0  0
  147.5880  132.1843  152.8941 C   0  0  0  0  0  0  0  0  0  0  0  0
  147.6034  133.6690  153.2639 C   0  0  0  0  0  0  0  0  0  0  0  0
  148.4418  133.7820  154.5521 C   0  0  2  0  0  0  0  0  0  0  0  0
  149.4695  134.8119  154.4122 N   0  0  0  0  0  0  0  0  0  0  0  0
  150.4538  135.0663  155.2866 C   0  0  0  0  0  0  0  0  0  0  0  0
  150.5517  134.3932  156.3154 O   0  0  0  0  0  0  0  0  0  0  0  0
  151.2633  136.0834  154.9137 N   0  5  0  0  0  0  0  0  0  0  0  0
  150.7431  137.2952  154.6589 C   0  0  0  0  0  0  0  0  0  0  0  0
  149.4464  137.6074  154.6598 N   0  0  0  0  0  0  0  0  0  0  0  0
  149.4768  138.9278  154.3363 C   0  0  0  0  0  0  0  0  0  0  0  0
  148.2464  139.7592  154.2099 C   0  0  0  0  0  0  0  0  0  0  0  0
  150.6790  139.4435  154.1271 N   0  0  0  0  0  0  0  0  0  0  0  0
  151.5339  138.3526  154.3387 O   0  0  0  0  0  0  0  0  0  0  0  0
  149.0634  132.3901  154.7797 C   0  0  0  0  0  0  0  0  0  0  0  0
  147.2396  128.5902  154.9143 H   0  0  0  0  0  0  0  0  0  0  0  0
  146.5083  129.9918  154.1238 H   0  0  0  0  0  0  0  0  0  0  0  0
  147.4793  130.2082  155.5890 H   0  0  0  0  0  0  0  0  0  0  0  0
  149.7117  131.9148  152.7816 H   0  0  0  0  0  0  0  0  0  0  0  0
  147.4918  132.0221  151.8201 H   0  0  0  0  0  0  0  0  0  0  0  0
  146.7423  131.6974  153.3817 H   0  0  0  0  0  0  0  0  0  0  0  0
  148.0645  134.2338  152.4519 H   0  0  0  0  0  0  0  0  0  0  0  0
  146.5952  134.0631  153.3956 H   0  0  0  0  0  0  0  0  0  0  0  0
  147.7886  134.0327  155.3901 H   0  0  0  0  0  0  0  0  0  0  0  0
  149.4288  135.3863  153.5830 H   0  0  0  0  0  0  0  0  0  0  0  0
  148.0049  139.9146  153.1582 H   0  0  0  0  0  0  0  0  0  0  0  0
  148.3925  140.7313  154.6817 H   0  0  0  0  0  0  0  0  0  0  0  0
  147.3999  139.2679  154.6907 H   0  0  0  0  0  0  0  0  0  0  0  0
  148.5046  131.8779  155.5643 H   0  0  0  0  0  0  0  0  0  0  0  0
  150.1042  132.4293  155.1036 H   0  0  0  0  0  0  0  0  0  0  0  0
  1  2  1  0  0  0  0
  1 18  1  0  0  0  0
  1 19  1  0  0  0  0
  1 20  1  0  0  0  0
  2  3  1  0  0  0  0
  3 17  1  0  0  0  0
  3  4  1  0  0  0  0
  3 21  1  0  0  0  0
  4  5  1  0  0  0  0
  4 22  1  0  0  0  0
  4 23  1  0  0  0  0
  5  6  1  0  0  0  0
  5 24  1  0  0  0  0
  5 25  1  0  0  0  0
  6  7  1  0  0  0  0
  6 17  1  0  0  0  0
  6 26  1  0  0  0  0
  7  8  1  0  0  0  0
  7 27  1  0  0  0  0
  8  9  2  0  0  0  0
  8 10  1  0  0  0  0
 10 11  1  0  0  0  0
 11 16  1  0  0  0  0
 11 12  2  0  0  0  0
 12 13  1  0  0  0  0
 13 14  1  0  0  0  0
 13 15  2  0  0  0  0
 14 28  1  0  0  0  0
 14 29  1  0  0  0  0
 14 30  1  0  0  0  0
 15 16  1  0  0  0  0
 17 31  1  0  0  0  0
 17 32  1  0  0  0  0
M  CHG  1  10  -1
M  END
> <s_m_source_file>
AV-unprocessed.smi

> <i_m_source_file_index>
2492

> <i_lp_mmshare_version>
43012

> <i_f3d_flags>
0

> <s_epik_input>
W0NIM11TW0NAQEhdMVtDSDJdW0NIMl1bQ0BIXShbQ0gyXTEpW05IXUMoPU8pW05IXWMybmMoW0NIM10pbm8y

> <s_epik_cmdline>
J2VwaWtfcHl0aG9uJywgJy1waCcsICc3LjAnLCAnLXRuJywgJzgnLCAnLW1hJywgJzIwMCcsICctbWV0YWxfYmluZGluZycsICctaW1hZScsICc8aW5maWxlLm1hZT4nLCAnLW9tYWUnLCAnPG91dGZpbGUubWFlPic=

> <r_lp_tautomer_probability>
1

> <r_epik_Ionization_Penalty>
6.26454

> <r_epik_Ionization_Penalty_Charging>
6.26445

> <r_epik_Ionization_Penalty_Neutral>
9.05726e-05

> <r_epik_State_Penalty>
6.26444

> <r_epik_Charging_Adjusted_Penalty>
12.5289

> <i_epik_Tot_Q>
-1

> <i_epik_Tot_abs_Q>
1

> <r_epik_Metal_State_Penalty>
2.20125

> <b_epik_Metal_Only>
1

> <s_lp_Force_Field>
OPLS_2005

> <r_lp_Energy>
10.5143

> <b_lp_Chiralities_Consistent>
1

> <s_lp_Variant>
AV-unprocessed.smi:2492-8

> <Gold.Version>
5.8.1

> <Gold.Id.Protein>
6NUR|6NUR_protein|mol2

> <Gold.PLP.Fitness>
34.7763

> <Gold.PLP.PLP>
-24.0565

> <Gold.PLP.part.hbond>
-3.0000

> <Gold.PLP.part.metal>
0.0000

> <Gold.PLP.part.buried>
-3.0575

> <Gold.PLP.part.nonpolar>
-19.2252

> <Gold.PLP.part.repulsive>
0.6828

> <Gold.PLP.ligand.clash>
0.0000

> <Gold.PLP.ligand.torsion>
0.5778

> <Gold.PLP.Chemscore.Hbond>
3.9500

> <Gold.PLP.Chemscore.CHOScore>
0.0000

> <Gold.PLP.Chemscore.Metal>
0.0000

> <Gold.Chemscore.Hbonds>
donor molecule, donor type, donor heavy atom, donor atom, acceptor molecule, acceptor atom, score
      L1  H     7    27       P1  7948  0.90
      P1  H  7989  7998       L1    15  1.00
      P1  H 10752 10763       L1    10  2.00

> <Gold.PLP.Chemscore.Internal.Correction>
0.0255

> <Gold.Rescore>
     Score         DG    S(hbond)    S(metal)    S(lipo)     H(rot)  DE(clash)    DE(int)     intcor
     10.99     -13.97       2.15        0.00      39.01       1.27       0.00       2.99       ----

> <Gold.Chemscore.Fitness>
10.9867

> <Gold.Chemscore.DG>
-13.9743

> <Gold.Chemscore.ZeroCoef>
-5.4800

> <Gold.Chemscore.Hbond>
2.1510

> <Gold.Chemscore.Metal>
0.0000

> <Gold.Chemscore.Lipo>
39.0103

> <Gold.Chemscore.Internal_Hbond>
0.0000

> <Gold.Chemscore.DEClash>
0.0004

> <Gold.Chemscore.DEInternal>
2.9872

> <Gold.Chemscore.Rot>
1.2712

> <Gold.Chemscore.Internal.Correction>
   9.000000E+99

> <Gold.Chemscore.Hbonds>
donor molecule, donor type, donor heavy atom, donor atom, acceptor molecule, acceptor atom, score
      L1  H     7    27       P1  7948  0.18
      P1  H  7989  7998       L1    15  0.74
      P1  H 10752 10763       L1    10  0.88

> <Gold.Chemscore.Hbond.Weighted>
-7.1843

> <Gold.Chemscore.Metal.Weighted>
-0.0000

> <Gold.Chemscore.Lipo.Weighted>
-4.5642

> <Gold.Chemscore.Internal_Hbond.Weighted>
0.0000

> <Gold.Chemscore.DEClash.Weighted>
0.0004

> <Gold.Chemscore.DEInternal.Weighted>
2.9872

> <Gold.Chemscore.Rot.Weighted>
3.2542

> <Gold.Chemscore.Internal.Correction.Weighted>
   9.000000E+99

> <Gold.Protein.RotatedTorsions>
[ 6907 6896 6895 6894 ] final  -14.39 input  -60.11 | X-H torsion
[ 7974 7965 7964 7962 ] final -168.05 input  175.53 | X-H torsion
[ 8008 7997 7996 7995 ] final   70.85 input   59.86 | X-H torsion
[ 10167 10162 10161 10158 ] final  103.31 input  -65.29 | X-H torsion
[ 10718 10713 10712 10709 ] final   -0.83 input   66.30 | X-H torsion
[ 10763 10752 10751 10750 ] final   59.08 input  -60.55 | X-H torsion
[ 11005 11000 10999 10996 ] final  -83.85 input  -57.11 | X-H torsion

> <Gold.Protein.ActiveResidues>
 VAL166  LYS551  ARG553  GLY616  TRP617  ASP618  TYR619  PRO620  LYS621  CYS622 
 ASP623  PHE694  ASN695  SER759  ASP760  ASP761  ALA762  ILE779  LEU786  VAL792 
 PHE793  MET794  SER795  GLU796  ALA797  LYS798  CYS799  TRP800  GLU811  SER814 

> <Gold.Protein.RotatedAtoms>
  151.3401  135.0861  159.9367 H   0  0  0  0  0  0  0  0  0  0  0  0  # atno 6907 bound_to 6896
  152.5213  133.9456  159.7657 H   0  0  0  0  0  0  0  0  0  0  0  0  # atno 6908 bound_to 6896
  150.9811  133.6191  159.2752 H   0  0  0  0  0  0  0  0  0  0  0  0  # atno 6909 bound_to 6896
  144.7210  140.2428  143.6289 H   0  0  0  0  0  0  0  0  0  0  0  0  # atno 7974 bound_to 7965
  155.7451  140.3489  155.5123 H   0  0  0  0  0  0  0  0  0  0  0  0  # atno 8008 bound_to 7997
  155.9058  140.1042  157.1338 H   0  0  0  0  0  0  0  0  0  0  0  0  # atno 8009 bound_to 7997
  154.4049  140.1277  156.4481 H   0  0  0  0  0  0  0  0  0  0  0  0  # atno 8010 bound_to 7997
  139.7274  144.7044  151.0776 H   0  0  0  0  0  0  0  0  0  0  0  0  # atno 10167 bound_to 10162
  156.8146  130.5436  149.5704 H   0  0  0  0  0  0  0  0  0  0  0  0  # atno 10718 bound_to 10713
  152.9886  135.5584  154.5656 H   0  0  0  0  0  0  0  0  0  0  0  0  # atno 10763 bound_to 10752
  154.5066  135.2800  155.1379 H   0  0  0  0  0  0  0  0  0  0  0  0  # atno 10764 bound_to 10752
  154.2788  135.6349  153.5392 H   0  0  0  0  0  0  0  0  0  0  0  0  # atno 10765 bound_to 10752
  141.1655  133.7315  156.8781 H   0  0  0  0  0  0  0  0  0  0  0  0  # atno 11005 bound_to 11000
  145.8304  139.2083  143.1886 LP  0  0  0  0  0  0  0  0  0  0  0  0  # atno 17320 bound_to 7965
  146.0436  140.8140  142.9816 LP  0  0  0  0  0  0  0  0  0  0  0  0  # atno 17321 bound_to 7965
  140.7765  143.5087  150.9679 LP  0  0  0  0  0  0  0  0  0  0  0  0  # atno 17342 bound_to 10162
  139.8775  143.7114  152.3160 LP  0  0  0  0  0  0  0  0  0  0  0  0  # atno 17343 bound_to 10162
  156.1024  130.5979  150.9916 LP  0  0  0  0  0  0  0  0  0  0  0  0  # atno 17370 bound_to 10713
  157.6488  131.0900  150.8095 LP  0  0  0  0  0  0  0  0  0  0  0  0  # atno 17371 bound_to 10713
  140.1734  134.9084  157.2861 LP  0  0  0  0  0  0  0  0  0  0  0  0  # atno 17394 bound_to 11000
  140.2476  134.3721  155.7455 LP  0  0  0  0  0  0  0  0  0  0  0  0  # atno 17395 bound_to 11000

$$$$
