AV-unprocessed.smi:81|AV-procd|sdf|792|dock4
  -GOLD-   2262017163D 1   1.00000     0.00000
 Structure written by MMmdl.
 64 67  0  0  0  0  0  0  0  0  2 V2000
  150.6959  141.9170  157.8947 C   0  0  0  0  0  0  0  0  0  0  0  0
  150.8089  141.7606  156.3693 C   0  0  0  0  0  0  0  0  0  0  0  0
  149.4151  141.7439  155.7266 C   0  0  0  0  0  0  0  0  0  0  0  0
  151.5951  140.4875  155.9790 C   0  0  0  0  0  0  0  0  0  0  0  0
  150.8202  139.2444  156.0628 N   0  0  0  0  0  0  0  0  0  0  0  0
  150.9718  138.5318  157.2056 C   0  0  0  0  0  0  0  0  0  0  0  0
  149.8429  138.1349  157.8444 N   0  0  0  0  0  0  0  0  0  0  0  0
  149.9236  137.4628  158.9960 C   0  0  0  0  0  0  0  0  0  0  0  0
  151.0133  137.0953  159.6722 N   0  0  0  0  0  0  0  0  0  0  0  0
  152.1511  137.5016  159.0401 C   0  0  0  0  0  0  0  0  0  0  0  0
  152.2219  138.2223  157.8146 C   0  0  0  0  0  0  0  0  0  0  0  0
  153.5506  138.4600  157.4837 N   0  0  0  0  0  0  0  0  0  0  0  0
  154.2256  137.9129  158.4570 C   0  0  0  0  0  0  0  0  0  0  0  0
  153.4644  137.3068  159.4304 N   0  0  0  0  0  0  0  0  0  0  0  0
  153.9568  136.6226  160.6158 C   0  0  0  0  0  0  0  0  0  0  0  0
  154.8454  135.3958  160.2985 C   0  0  1  0  0  0  0  0  0  0  0  0
  154.0968  134.4853  159.5079 O   0  0  0  0  0  0  0  0  0  0  0  0
  156.1003  135.7739  159.5264 C   0  0  0  0  0  0  0  0  0  0  0  0
  157.0493  134.6287  159.8548 C   0  0  0  0  0  0  0  0  0  0  0  0
  156.7796  134.3306  161.2169 O   0  0  0  0  0  0  0  0  0  0  0  0
  155.4383  134.6913  161.5436 C   0  0  2  0  0  0  0  0  0  0  0  0
  154.6766  133.4675  162.0796 C   0  0  0  0  0  0  0  0  0  0  0  0
  150.6050  138.5114  154.8039 C   0  0  2  0  0  0  0  0  0  0  0  0
  149.1322  138.3871  154.3446 C   0  0  0  0  0  0  0  0  0  0  0  0
  148.4071  137.1354  154.8757 C   0  0  0  0  0  0  0  0  0  0  0  0
  149.1881  135.9104  154.5892 N   0  3  2  0  0  0  0  0  0  0  0  0
  148.4448  134.6758  154.9197 C   0  0  0  0  0  0  0  0  0  0  0  0
  150.5237  135.9580  155.2279 C   0  0  0  0  0  0  0  0  0  0  0  0
  151.3422  137.1537  154.7071 C   0  0  0  0  0  0  0  0  0  0  0  0
  150.1853  141.0644  158.3435 H   0  0  0  0  0  0  0  0  0  0  0  0
  150.1360  142.8154  158.1564 H   0  0  0  0  0  0  0  0  0  0  0  0
  151.6773  142.0001  158.3616 H   0  0  0  0  0  0  0  0  0  0  0  0
  151.3228  142.6389  155.9778 H   0  0  0  0  0  0  0  0  0  0  0  0
  148.8303  140.8900  156.0700 H   0  0  0  0  0  0  0  0  0  0  0  0
  149.4841  141.6847  154.6399 H   0  0  0  0  0  0  0  0  0  0  0  0
  148.8579  142.6488  155.9707 H   0  0  0  0  0  0  0  0  0  0  0  0
  151.9609  140.6040  154.9583 H   0  0  0  0  0  0  0  0  0  0  0  0
  152.4861  140.4018  156.5997 H   0  0  0  0  0  0  0  0  0  0  0  0
  148.9802  137.1818  159.4404 H   0  0  0  0  0  0  0  0  0  0  0  0
  155.3055  137.9306  158.4902 H   0  0  0  0  0  0  0  0  0  0  0  0
  154.5126  137.3432  161.2176 H   0  0  0  0  0  0  0  0  0  0  0  0
  153.0984  136.3227  161.2183 H   0  0  0  0  0  0  0  0  0  0  0  0
  154.2690  134.6696  158.5969 H   0  0  0  0  0  0  0  0  0  0  0  0
  155.9362  135.9020  158.4553 H   0  0  0  0  0  0  0  0  0  0  0  0
  156.5172  136.7051  159.9132 H   0  0  0  0  0  0  0  0  0  0  0  0
  156.8225  133.7521  159.2464 H   0  0  0  0  0  0  0  0  0  0  0  0
  158.0965  134.8895  159.7004 H   0  0  0  0  0  0  0  0  0  0  0  0
  155.5289  135.4198  162.3496 H   0  0  0  0  0  0  0  0  0  0  0  0
  153.6437  133.7157  162.3218 H   0  0  0  0  0  0  0  0  0  0  0  0
  155.1479  133.0927  162.9884 H   0  0  0  0  0  0  0  0  0  0  0  0
  154.6666  132.6516  161.3568 H   0  0  0  0  0  0  0  0  0  0  0  0
  151.0745  139.1577  154.0611 H   0  0  0  0  0  0  0  0  0  0  0  0
  148.5728  139.2911  154.5873 H   0  0  0  0  0  0  0  0  0  0  0  0
  149.1276  138.3283  153.2556 H   0  0  0  0  0  0  0  0  0  0  0  0
  148.2234  137.2029  155.9475 H   0  0  0  0  0  0  0  0  0  0  0  0
  147.4287  137.0630  154.3991 H   0  0  0  0  0  0  0  0  0  0  0  0
  148.2297  134.6224  155.9865 H   0  0  0  0  0  0  0  0  0  0  0  0
  149.0203  133.7923  154.6411 H   0  0  0  0  0  0  0  0  0  0  0  0
  147.4986  134.6394  154.3786 H   0  0  0  0  0  0  0  0  0  0  0  0
  150.4065  135.9986  156.3092 H   0  0  0  0  0  0  0  0  0  0  0  0
  151.0633  135.0355  155.0105 H   0  0  0  0  0  0  0  0  0  0  0  0
  151.5637  136.9673  153.6555 H   0  0  0  0  0  0  0  0  0  0  0  0
  152.3113  137.1930  155.2044 H   0  0  0  0  0  0  0  0  0  0  0  0
  149.3433  135.8907  153.5913 H   0  0  0  0  0  0  0  0  0  0  0  0
  1  2  1  0  0  0  0
  1 30  1  0  0  0  0
  1 31  1  0  0  0  0
  1 32  1  0  0  0  0
  2  3  1  0  0  0  0
  2  4  1  0  0  0  0
  2 33  1  0  0  0  0
  3 34  1  0  0  0  0
  3 35  1  0  0  0  0
  3 36  1  0  0  0  0
  4  5  1  0  0  0  0
  4 37  1  0  0  0  0
  4 38  1  0  0  0  0
  5  6  1  0  0  0  0
  5 23  1  0  0  0  0
  6 11  1  0  0  0  0
  6  7  2  0  0  0  0
  7  8  1  0  0  0  0
  8  9  2  0  0  0  0
  8 39  1  0  0  0  0
  9 10  1  0  0  0  0
 10 14  1  0  0  0  0
 10 11  2  0  0  0  0
 11 12  1  0  0  0  0
 12 13  2  0  0  0  0
 13 14  1  0  0  0  0
 13 40  1  0  0  0  0
 14 15  1  0  0  0  0
 15 16  1  0  0  0  0
 15 41  1  0  0  0  0
 15 42  1  0  0  0  0
 16 21  1  0  0  0  0
 16 17  1  0  0  0  0
 16 18  1  0  0  0  0
 17 43  1  0  0  0  0
 18 19  1  0  0  0  0
 18 44  1  0  0  0  0
 18 45  1  0  0  0  0
 19 20  1  0  0  0  0
 19 46  1  0  0  0  0
 19 47  1  0  0  0  0
 20 21  1  0  0  0  0
 21 22  1  0  0  0  0
 21 48  1  0  0  0  0
 22 49  1  0  0  0  0
 22 50  1  0  0  0  0
 22 51  1  0  0  0  0
 23 29  1  0  0  0  0
 23 24  1  0  0  0  0
 23 52  1  0  0  0  0
 24 25  1  0  0  0  0
 24 53  1  0  0  0  0
 24 54  1  0  0  0  0
 25 26  1  0  0  0  0
 25 55  1  0  0  0  0
 25 56  1  0  0  0  0
 26 27  1  0  0  0  0
 26 28  1  0  0  0  0
 26 64  1  0  0  0  0
 27 57  1  0  0  0  0
 27 58  1  0  0  0  0
 27 59  1  0  0  0  0
 28 29  1  0  0  0  0
 28 60  1  0  0  0  0
 28 61  1  0  0  0  0
 29 62  1  0  0  0  0
 29 63  1  0  0  0  0
M  CHG  1  26   1
M  END
> <s_m_source_file>
AV-unprocessed.smi

> <i_m_source_file_index>
81

> <i_lp_mmshare_version>
43012

> <i_f3d_flags>
0

> <s_epik_input>
W0NIMl0xW0NIMl1OKFtDSDNdKVtDSDJdW0NIMl1bQ0hdMU4oW0NIMl1bQ0hdKFtDSDNdKVtDSDNdKWMobltjSF1uMiljKGMyMyluW2NIXW4zW0NIMl1bQ0BAXTQoW09IXSlbQ0gyXVtDSDJdT1tDQEhdNFtDSDNd

> <s_epik_cmdline>
J2VwaWtfcHl0aG9uJywgJy1waCcsICc3LjAnLCAnLXRuJywgJzgnLCAnLW1hJywgJzIwMCcsICctbWV0YWxfYmluZGluZycsICctaW1hZScsICc8aW5maWxlLm1hZT4nLCAnLW9tYWUnLCAnPG91dGZpbGUubWFlPic=

> <r_lp_tautomer_probability>
1

> <r_epik_Ionization_Penalty>
0.00272708

> <r_epik_Ionization_Penalty_Charging>
0.00158983

> <r_epik_Ionization_Penalty_Neutral>
0.00113725

> <r_epik_State_Penalty>
-0

> <r_epik_Charging_Adjusted_Penalty>
0.00158983

> <i_epik_Tot_Q>
1

> <i_epik_Tot_abs_Q>
1

> <r_epik_Metal_State_Penalty>
-0

> <b_epik_Metal_Only>
0

> <s_lp_Force_Field>
OPLS_2005

> <r_lp_Energy>
48.65

> <b_lp_Chiralities_Consistent>
1

> <s_lp_Variant>
AV-unprocessed.smi:81-7

> <Gold.Version>
5.8.1

> <Gold.Id.Protein>
6NUR|6NUR_protein|mol2

> <Gold.PLP.Fitness>
46.3795

> <Gold.PLP.PLP>
-33.6914

> <Gold.PLP.part.hbond>
-3.9882

> <Gold.PLP.part.metal>
0.0000

> <Gold.PLP.part.buried>
-2.7764

> <Gold.PLP.part.nonpolar>
-26.8141

> <Gold.PLP.part.repulsive>
0.0101

> <Gold.PLP.ligand.clash>
0.0000

> <Gold.PLP.ligand.torsion>
1.8507

> <Gold.PLP.Chemscore.Hbond>
4.9920

> <Gold.PLP.Chemscore.CHOScore>
0.0000

> <Gold.PLP.Chemscore.Metal>
0.0000

> <Gold.Chemscore.Hbonds>
donor molecule, donor type, donor heavy atom, donor atom, acceptor molecule, acceptor atom, score
      L1  H    26    64       P1  7948  2.00
      P1  H  6896  6907       L1     9  1.00
      P1  H  6896  6908       L1    17  1.00
      P1  H  7997  8008       L1    12  1.00

> <Gold.PLP.Chemscore.Internal.Correction>
1.4136

> <Gold.Rescore>
     Score         DG    S(hbond)    S(metal)    S(lipo)     H(rot)  DE(clash)    DE(int)     intcor
     17.85     -19.86       3.50        0.00      73.73       2.32       0.09       1.91       ----

> <Gold.Chemscore.Fitness>
17.8548

> <Gold.Chemscore.DG>
-19.8570

> <Gold.Chemscore.ZeroCoef>
-5.4800

> <Gold.Chemscore.Hbond>
3.4971

> <Gold.Chemscore.Metal>
0.0000

> <Gold.Chemscore.Lipo>
73.7299

> <Gold.Chemscore.Internal_Hbond>
0.0000

> <Gold.Chemscore.DEClash>
0.0918

> <Gold.Chemscore.DEInternal>
1.9104

> <Gold.Chemscore.Rot>
2.3163

> <Gold.Chemscore.Internal.Correction>
   9.000000E+99

> <Gold.Chemscore.Hbonds>
donor molecule, donor type, donor heavy atom, donor atom, acceptor molecule, acceptor atom, score
      L1  H    26    64       P1  7948  0.60
      P1  H  6896  6907       L1     9  0.33
      P1  H  6896  6908       L1    17  0.77
      P1  H  7997  8008       L1    12  0.67

> <Gold.Chemscore.Hbond.Weighted>
-11.6803

> <Gold.Chemscore.Metal.Weighted>
-0.0000

> <Gold.Chemscore.Lipo.Weighted>
-8.6264

> <Gold.Chemscore.Internal_Hbond.Weighted>
0.0000

> <Gold.Chemscore.DEClash.Weighted>
0.0918

> <Gold.Chemscore.DEInternal.Weighted>
1.9104

> <Gold.Chemscore.Rot.Weighted>
5.9297

> <Gold.Chemscore.Internal.Correction.Weighted>
   9.000000E+99

> <Gold.Protein.RotatedTorsions>
[ 6907 6896 6895 6894 ] final  -12.56 input  -60.11 | X-H torsion
[ 7974 7965 7964 7962 ] final -139.83 input  175.53 | X-H torsion
[ 8008 7997 7996 7995 ] final  -74.19 input   59.86 | X-H torsion
[ 10167 10162 10161 10158 ] final  -92.25 input  -65.29 | X-H torsion
[ 10718 10713 10712 10709 ] final  178.54 input   66.30 | X-H torsion
[ 10763 10752 10751 10750 ] final -101.59 input  -60.55 | X-H torsion
[ 11005 11000 10999 10996 ] final   77.21 input  -57.11 | X-H torsion

> <Gold.Protein.ActiveResidues>
 VAL166  LYS551  ARG553  GLY616  TRP617  ASP618  TYR619  PRO620  LYS621  CYS622 
 ASP623  PHE694  ASN695  SER759  ASP760  ASP761  ALA762  ILE779  LEU786  VAL792 
 PHE793  MET794  SER795  GLU796  ALA797  LYS798  CYS799  TRP800  GLU811  SER814 

> <Gold.Protein.RotatedAtoms>
  151.3686  135.0918  159.9457 H   0  0  0  0  0  0  0  0  0  0  0  0  # atno 6907 bound_to 6896
  152.5142  133.9187  159.7534 H   0  0  0  0  0  0  0  0  0  0  0  0  # atno 6908 bound_to 6896
  150.9596  133.6405  159.2786 H   0  0  0  0  0  0  0  0  0  0  0  0  # atno 6909 bound_to 6896
  144.8646  140.6273  143.5306 H   0  0  0  0  0  0  0  0  0  0  0  0  # atno 7974 bound_to 7965
  154.5310  140.0766  156.8344 H   0  0  0  0  0  0  0  0  0  0  0  0  # atno 8008 bound_to 7997
  155.3376  140.3405  155.4221 H   0  0  0  0  0  0  0  0  0  0  0  0  # atno 8009 bound_to 7997
  156.1780  140.1642  156.8313 H   0  0  0  0  0  0  0  0  0  0  0  0  # atno 8010 bound_to 7997
  140.3367  143.2964  151.9881 H   0  0  0  0  0  0  0  0  0  0  0  0  # atno 10167 bound_to 10162
  156.8890  130.9841  151.3052 H   0  0  0  0  0  0  0  0  0  0  0  0  # atno 10718 bound_to 10713
  154.7669  135.4892  153.9573 H   0  0  0  0  0  0  0  0  0  0  0  0  # atno 10763 bound_to 10752
  153.1319  135.6754  153.9171 H   0  0  0  0  0  0  0  0  0  0  0  0  # atno 10764 bound_to 10752
  153.8872  135.3125  155.3425 H   0  0  0  0  0  0  0  0  0  0  0  0  # atno 10765 bound_to 10752
  139.9264  134.7664  156.1492 H   0  0  0  0  0  0  0  0  0  0  0  0  # atno 11005 bound_to 11000
  145.4247  139.1558  143.4055 LP  0  0  0  0  0  0  0  0  0  0  0  0  # atno 17320 bound_to 7965
  146.2886  140.4359  142.8748 LP  0  0  0  0  0  0  0  0  0  0  0  0  # atno 17321 bound_to 7965
  139.4847  144.6190  151.7291 LP  0  0  0  0  0  0  0  0  0  0  0  0  # atno 17342 bound_to 10162
  140.5347  144.0675  150.6066 LP  0  0  0  0  0  0  0  0  0  0  0  0  # atno 17343 bound_to 10162
  157.6095  130.8572  149.8929 LP  0  0  0  0  0  0  0  0  0  0  0  0  # atno 17370 bound_to 10713
  156.0639  130.3695  150.0922 LP  0  0  0  0  0  0  0  0  0  0  0  0  # atno 17371 bound_to 10713
  141.0825  133.6748  156.2366 LP  0  0  0  0  0  0  0  0  0  0  0  0  # atno 17394 bound_to 11000
  140.6323  134.5251  157.5561 LP  0  0  0  0  0  0  0  0  0  0  0  0  # atno 17395 bound_to 11000

$$$$
