AV-unprocessed.smi:1419|AV-procd|sdf|5784|dock4
  -GOLD-   22720 5433D 1   1.00000     0.00000
 Structure written by MMmdl.
 41 42  0  0  0  0  0  0  0  0  1 V2000
  148.1800  141.4567  154.6348 C   0  0  0  0  0  0  0  0  0  0  0  0
  148.0546  141.6860  156.1471 C   0  0  2  0  0  0  0  0  0  0  0  0
  146.8578  142.6039  156.4755 C   0  0  0  0  0  0  0  0  0  0  0  0
  146.4632  142.5409  157.8713 N   0  0  0  0  0  0  0  0  0  0  0  0
  146.5944  143.5395  158.8276 C   0  0  0  0  0  0  0  0  0  0  0  0
  146.0812  143.0318  159.9995 C   0  0  0  0  0  0  0  0  0  0  0  0
  145.6476  141.7242  159.7937 N   0  0  0  0  0  0  0  0  0  0  0  0
  145.9130  141.5015  158.5133 C   0  0  0  0  0  0  0  0  0  0  0  0
  149.3047  142.2601  156.6434 N   0  0  0  0  0  0  0  0  0  0  0  0
  150.1705  141.6672  157.4845 C   0  0  0  0  0  0  0  0  0  0  0  0
  149.9865  140.5326  157.9267 O   0  0  0  0  0  0  0  0  0  0  0  0
  151.2394  142.4292  157.8235 N   0  0  0  0  0  0  0  0  0  0  0  0
  151.4395  143.8554  157.5328 C   0  0  0  0  0  0  0  0  0  0  0  0
  151.4121  144.6484  158.8558 C   0  0  1  0  0  0  0  0  0  0  0  0
  150.0178  144.7355  159.5009 C   0  0  0  0  0  0  0  0  0  0  0  0
  152.3754  144.1050  159.7646 O   0  0  0  0  0  0  0  0  0  0  0  0
  152.2753  142.6993  160.0102 C   0  0  2  0  0  0  0  0  0  0  0  0
  153.4218  142.3001  160.9453 C   0  0  0  0  0  0  0  0  0  0  0  0
  152.3259  141.9364  158.6720 C   0  0  0  0  0  0  0  0  0  0  0  0
  147.2755  141.0003  154.2319 H   0  0  0  0  0  0  0  0  0  0  0  0
  149.0133  140.7918  154.4049 H   0  0  0  0  0  0  0  0  0  0  0  0
  148.3443  142.3943  154.1023 H   0  0  0  0  0  0  0  0  0  0  0  0
  147.8865  140.7102  156.6060 H   0  0  0  0  0  0  0  0  0  0  0  0
  147.0889  143.6391  156.2192 H   0  0  0  0  0  0  0  0  0  0  0  0
  145.9925  142.3195  155.8752 H   0  0  0  0  0  0  0  0  0  0  0  0
  147.0191  144.5056  158.5984 H   0  0  0  0  0  0  0  0  0  0  0  0
  145.9955  143.5018  160.9681 H   0  0  0  0  0  0  0  0  0  0  0  0
  145.6968  140.5603  158.0299 H   0  0  0  0  0  0  0  0  0  0  0  0
  149.5261  143.1945  156.3318 H   0  0  0  0  0  0  0  0  0  0  0  0
  152.4113  143.9788  157.0524 H   0  0  0  0  0  0  0  0  0  0  0  0
  150.7193  144.2739  156.8300 H   0  0  0  0  0  0  0  0  0  0  0  0
  151.7315  145.6687  158.6421 H   0  0  0  0  0  0  0  0  0  0  0  0
  149.3097  145.2227  158.8303 H   0  0  0  0  0  0  0  0  0  0  0  0
  150.0527  145.3158  160.4230 H   0  0  0  0  0  0  0  0  0  0  0  0
  149.6137  143.7538  159.7426 H   0  0  0  0  0  0  0  0  0  0  0  0
  151.3343  142.4838  160.5175 H   0  0  0  0  0  0  0  0  0  0  0  0
  153.3888  141.2346  161.1742 H   0  0  0  0  0  0  0  0  0  0  0  0
  153.3625  142.8442  161.8882 H   0  0  0  0  0  0  0  0  0  0  0  0
  154.3915  142.5164  160.4961 H   0  0  0  0  0  0  0  0  0  0  0  0
  152.2652  140.8626  158.8546 H   0  0  0  0  0  0  0  0  0  0  0  0
  153.2818  142.1025  158.1729 H   0  0  0  0  0  0  0  0  0  0  0  0
  1  2  1  0  0  0  0
  1 20  1  0  0  0  0
  1 21  1  0  0  0  0
  1 22  1  0  0  0  0
  2  3  1  0  0  0  0
  2  9  1  0  0  0  0
  2 23  1  0  0  0  0
  3  4  1  0  0  0  0
  3 24  1  0  0  0  0
  3 25  1  0  0  0  0
  4  8  1  0  0  0  0
  4  5  1  0  0  0  0
  5  6  2  0  0  0  0
  5 26  1  0  0  0  0
  6  7  1  0  0  0  0
  6 27  1  0  0  0  0
  7  8  2  0  0  0  0
  8 28  1  0  0  0  0
  9 10  1  0  0  0  0
  9 29  1  0  0  0  0
 10 11  2  0  0  0  0
 10 12  1  0  0  0  0
 12 19  1  0  0  0  0
 12 13  1  0  0  0  0
 13 14  1  0  0  0  0
 13 30  1  0  0  0  0
 13 31  1  0  0  0  0
 14 15  1  0  0  0  0
 14 16  1  0  0  0  0
 14 32  1  0  0  0  0
 15 33  1  0  0  0  0
 15 34  1  0  0  0  0
 15 35  1  0  0  0  0
 16 17  1  0  0  0  0
 17 18  1  0  0  0  0
 17 19  1  0  0  0  0
 17 36  1  0  0  0  0
 18 37  1  0  0  0  0
 18 38  1  0  0  0  0
 18 39  1  0  0  0  0
 19 40  1  0  0  0  0
 19 41  1  0  0  0  0
M  END
> <s_m_source_file>
AV-unprocessed.smi

> <i_m_source_file_index>
1419

> <i_lp_mmshare_version>
43012

> <i_f3d_flags>
0

> <s_epik_input>
W2NIXTFuW2NIXVtjSF1uMVtDSDJdW0NAQEhdKFtDSDNdKVtOSF1DKD1PKU4yW0NIMl1bQ0BASF0oW0NIM10pT1tDQEBIXShbQ0gzXSlbQ0gyXTI=

> <s_epik_cmdline>
J2VwaWtfcHl0aG9uJywgJy1waCcsICc3LjAnLCAnLXRuJywgJzgnLCAnLW1hJywgJzIwMCcsICctbWV0YWxfYmluZGluZycsICctaW1hZScsICc8aW5maWxlLm1hZT4nLCAnLW9tYWUnLCAnPG91dGZpbGUubWFlPic=

> <r_lp_tautomer_probability>
1

> <r_epik_Ionization_Penalty>
0.625124

> <r_epik_Ionization_Penalty_Charging>
0.625093

> <r_epik_Ionization_Penalty_Neutral>
3.17415e-05

> <r_epik_State_Penalty>
0.641455

> <r_epik_Charging_Adjusted_Penalty>
1.26655

> <i_epik_Tot_Q>
0

> <i_epik_Tot_abs_Q>
0

> <r_epik_Metal_State_Penalty>
0.307717

> <b_epik_Metal_Only>
0

> <s_lp_Force_Field>
OPLS_2005

> <r_lp_Energy>
30.2714

> <b_lp_Chiralities_Consistent>
1

> <s_lp_Variant>
AV-unprocessed.smi:1419-11

> <Gold.Version>
5.8.1

> <Gold.Id.Protein>
6NUR|6NUR_protein|mol2

> <Gold.PLP.Fitness>
40.4970

> <Gold.PLP.PLP>
-32.1892

> <Gold.PLP.part.hbond>
-2.0000

> <Gold.PLP.part.metal>
0.0000

> <Gold.PLP.part.buried>
-2.0260

> <Gold.PLP.part.nonpolar>
-27.9481

> <Gold.PLP.part.repulsive>
0.0429

> <Gold.PLP.ligand.clash>
0.0000

> <Gold.PLP.ligand.torsion>
0.2466

> <Gold.PLP.Chemscore.Hbond>
1.9280

> <Gold.PLP.Chemscore.CHOScore>
1.0000

> <Gold.PLP.Chemscore.Metal>
0.0000

> <Gold.Chemscore.Hbonds>
donor molecule, donor type, donor heavy atom, donor atom, acceptor molecule, acceptor atom, score
      L1  H     9    29       P1  8028  0.93
      P1  H  6934  6946       L1     7  1.00
      L1  C     5    26       P1  8029  1.00

> <Gold.PLP.Chemscore.Internal.Correction>
0.0170

> <Gold.Rescore>
     Score         DG    S(hbond)    S(metal)    S(lipo)     H(rot)  DE(clash)    DE(int)     intcor
     15.01     -15.41       1.30        0.00      82.41       1.58       0.22       0.19       ----

> <Gold.Chemscore.Fitness>
15.0090

> <Gold.Chemscore.DG>
-15.4111

> <Gold.Chemscore.ZeroCoef>
-5.4800

> <Gold.Chemscore.Hbond>
1.2954

> <Gold.Chemscore.Metal>
0.0000

> <Gold.Chemscore.Lipo>
82.4056

> <Gold.Chemscore.Internal_Hbond>
0.0000

> <Gold.Chemscore.DEClash>
0.2162

> <Gold.Chemscore.DEInternal>
0.1859

> <Gold.Chemscore.Rot>
1.5769

> <Gold.Chemscore.Internal.Correction>
   9.000000E+99

> <Gold.Chemscore.Hbonds>
donor molecule, donor type, donor heavy atom, donor atom, acceptor molecule, acceptor atom, score
      L1  H     9    29       P1  8028  0.90
      P1  H  6934  6946       L1     7  0.14

> <Gold.Chemscore.Hbond.Weighted>
-4.3265

> <Gold.Chemscore.Metal.Weighted>
-0.0000

> <Gold.Chemscore.Lipo.Weighted>
-9.6415

> <Gold.Chemscore.Internal_Hbond.Weighted>
0.0000

> <Gold.Chemscore.DEClash.Weighted>
0.2162

> <Gold.Chemscore.DEInternal.Weighted>
0.1859

> <Gold.Chemscore.Rot.Weighted>
4.0369

> <Gold.Chemscore.Internal.Correction.Weighted>
   9.000000E+99

> <Gold.Protein.RotatedTorsions>
[ 6907 6896 6895 6894 ] final    9.43 input  -60.11 | X-H torsion
[ 7974 7965 7964 7962 ] final -163.55 input  175.53 | X-H torsion
[ 8008 7997 7996 7995 ] final -170.75 input   59.86 | X-H torsion
[ 10167 10162 10161 10158 ] final   -9.06 input  -65.29 | X-H torsion
[ 10718 10713 10712 10709 ] final   28.37 input   66.30 | X-H torsion
[ 10763 10752 10751 10750 ] final  171.36 input  -60.55 | X-H torsion
[ 11005 11000 10999 10996 ] final  133.29 input  -57.11 | X-H torsion

> <Gold.Protein.ActiveResidues>
 VAL166  LYS551  ARG553  GLY616  TRP617  ASP618  TYR619  PRO620  LYS621  CYS622 
 ASP623  PHE694  ASN695  SER759  ASP760  ASP761  ALA762  ILE779  LEU786  VAL792 
 PHE793  MET794  SER795  GLU796  ALA797  LYS798  CYS799  TRP800  GLU811  SER814 

> <Gold.Protein.RotatedAtoms>
  151.7220  135.0892  160.0285 H   0  0  0  0  0  0  0  0  0  0  0  0  # atno 6907 bound_to 6896
  152.3596  133.6275  159.6013 H   0  0  0  0  0  0  0  0  0  0  0  0  # atno 6908 bound_to 6896
  150.7595  133.9362  159.3483 H   0  0  0  0  0  0  0  0  0  0  0  0  # atno 6909 bound_to 6896
  144.7322  140.3090  143.6191 H   0  0  0  0  0  0  0  0  0  0  0  0  # atno 7974 bound_to 7965
  155.9225  140.1076  157.1196 H   0  0  0  0  0  0  0  0  0  0  0  0  # atno 8008 bound_to 7997
  154.4056  140.1253  156.4763 H   0  0  0  0  0  0  0  0  0  0  0  0  # atno 8009 bound_to 7997
  155.7178  140.3470  155.5005 H   0  0  0  0  0  0  0  0  0  0  0  0  # atno 8010 bound_to 7997
  140.7077  143.5900  150.8904 H   0  0  0  0  0  0  0  0  0  0  0  0  # atno 10167 bound_to 10162
  157.2326  130.7031  149.6320 H   0  0  0  0  0  0  0  0  0  0  0  0  # atno 10718 bound_to 10713
  154.4108  135.2756  155.2038 H   0  0  0  0  0  0  0  0  0  0  0  0  # atno 10763 bound_to 10752
  154.4024  135.6041  153.5908 H   0  0  0  0  0  0  0  0  0  0  0  0  # atno 10764 bound_to 10752
  152.9831  135.5929  154.4389 H   0  0  0  0  0  0  0  0  0  0  0  0  # atno 10765 bound_to 10752
  139.9842  134.9538  156.9703 H   0  0  0  0  0  0  0  0  0  0  0  0  # atno 11005 bound_to 11000
  145.7684  139.1848  143.2227 LP  0  0  0  0  0  0  0  0  0  0  0  0  # atno 17320 bound_to 7965
  146.0931  140.7633  142.9586 LP  0  0  0  0  0  0  0  0  0  0  0  0  # atno 17321 bound_to 7965
  139.9625  143.6147  152.2998 LP  0  0  0  0  0  0  0  0  0  0  0  0  # atno 17342 bound_to 10162
  139.6705  144.7661  151.1792 LP  0  0  0  0  0  0  0  0  0  0  0  0  # atno 17343 bound_to 10162
  155.9674  130.4484  150.5618 LP  0  0  0  0  0  0  0  0  0  0  0  0  # atno 17370 bound_to 10713
  157.3463  131.0725  151.1749 LP  0  0  0  0  0  0  0  0  0  0  0  0  # atno 17371 bound_to 10713
  140.5035  134.1073  155.7255 LP  0  0  0  0  0  0  0  0  0  0  0  0  # atno 17394 bound_to 11000
  141.1510  133.8969  157.2098 LP  0  0  0  0  0  0  0  0  0  0  0  0  # atno 17395 bound_to 11000

$$$$
