AV-unprocessed.smi:3188|AV-procd|sdf|12186|dock3
  -GOLD-   2272018 23D 1   1.00000     0.00000
 Structure written by MMmdl.
 40 41  0  0  0  0  0  0  0  0  2 V2000
  152.9237  140.5660  158.7563 C   0  0  0  0  0  0  0  0  0  0  0  0
  152.6738  141.7806  159.6348 C   0  0  0  0  0  0  0  0  0  0  0  0
  152.9575  141.7471  160.9520 C   0  0  0  0  0  0  0  0  0  0  0  0
  152.7878  142.9169  161.9051 C   0  0  0  0  0  0  0  0  0  0  0  0
  152.0611  144.1124  161.2681 C   0  0  0  0  0  0  0  0  0  0  0  0
  152.4752  144.3018  159.7990 C   0  0  2  0  0  0  0  0  0  0  0  0
  151.9533  145.6271  159.2173 C   0  0  0  0  0  0  0  0  0  0  0  0
  152.1252  143.0431  158.9549 C   0  0  2  0  0  0  0  0  0  0  0  0
  150.6110  142.9230  158.6402 C   0  0  0  0  0  0  0  0  0  0  0  0
  150.3333  142.8736  157.1919 N   0  3  0  0  0  0  0  0  0  0  0  0
  149.8605  141.5614  156.7062 C   0  0  0  0  0  0  0  0  0  0  0  0
  149.5054  141.6059  155.2115 C   0  0  0  0  0  0  0  0  0  0  0  0
  148.2812  140.8818  154.9203 N   0  0  0  0  0  0  0  0  0  0  0  0
  147.6928  140.6465  153.6954 C   0  0  0  0  0  0  0  0  0  0  0  0
  146.5645  139.9467  154.0149 C   0  0  0  0  0  0  0  0  0  0  0  0
  146.5145  139.7878  155.3987 N   0  0  0  0  0  0  0  0  0  0  0  0
  147.5543  140.3480  155.9310 N   0  0  0  0  0  0  0  0  0  0  0  0
  153.4381  140.8521  157.8388 H   0  0  0  0  0  0  0  0  0  0  0  0
  151.9919  140.0674  158.4962 H   0  0  0  0  0  0  0  0  0  0  0  0
  153.5468  139.8332  159.2699 H   0  0  0  0  0  0  0  0  0  0  0  0
  153.3624  140.8452  161.3881 H   0  0  0  0  0  0  0  0  0  0  0  0
  152.2562  142.5860  162.7976 H   0  0  0  0  0  0  0  0  0  0  0  0
  153.7838  143.2223  162.2272 H   0  0  0  0  0  0  0  0  0  0  0  0
  150.9830  143.9633  161.3309 H   0  0  0  0  0  0  0  0  0  0  0  0
  152.2746  145.0126  161.8455 H   0  0  0  0  0  0  0  0  0  0  0  0
  153.5633  144.3879  159.7892 H   0  0  0  0  0  0  0  0  0  0  0  0
  150.8718  145.7200  159.3146 H   0  0  0  0  0  0  0  0  0  0  0  0
  152.2100  145.7253  158.1622 H   0  0  0  0  0  0  0  0  0  0  0  0
  152.3940  146.4761  159.7405 H   0  0  0  0  0  0  0  0  0  0  0  0
  152.6544  143.1517  158.0068 H   0  0  0  0  0  0  0  0  0  0  0  0
  150.2014  142.0297  159.1131 H   0  0  0  0  0  0  0  0  0  0  0  0
  150.0598  143.7745  159.0365 H   0  0  0  0  0  0  0  0  0  0  0  0
  149.6388  143.5732  156.9717 H   0  0  0  0  0  0  0  0  0  0  0  0
  150.6296  140.8085  156.8843 H   0  0  0  0  0  0  0  0  0  0  0  0
  148.9834  141.2648  157.2821 H   0  0  0  0  0  0  0  0  0  0  0  0
  149.3705  142.6401  154.8926 H   0  0  0  0  0  0  0  0  0  0  0  0
  150.3195  141.1979  154.6100 H   0  0  0  0  0  0  0  0  0  0  0  0
  148.1036  140.9811  152.7543 H   0  0  0  0  0  0  0  0  0  0  0  0
  145.7921  139.5502  153.3721 H   0  0  0  0  0  0  0  0  0  0  0  0
  151.1862  143.1023  156.7010 H   0  0  0  0  0  0  0  0  0  0  0  0
  1  2  1  0  0  0  0
  1 18  1  0  0  0  0
  1 19  1  0  0  0  0
  1 20  1  0  0  0  0
  2  8  1  0  0  0  0
  2  3  2  0  0  0  0
  3  4  1  0  0  0  0
  3 21  1  0  0  0  0
  4  5  1  0  0  0  0
  4 22  1  0  0  0  0
  4 23  1  0  0  0  0
  5  6  1  0  0  0  0
  5 24  1  0  0  0  0
  5 25  1  0  0  0  0
  6  7  1  0  0  0  0
  6  8  1  0  0  0  0
  6 26  1  0  0  0  0
  7 27  1  0  0  0  0
  7 28  1  0  0  0  0
  7 29  1  0  0  0  0
  8  9  1  0  0  0  0
  8 30  1  0  0  0  0
  9 10  1  0  0  0  0
  9 31  1  0  0  0  0
  9 32  1  0  0  0  0
 10 11  1  0  0  0  0
 10 33  1  0  0  0  0
 10 40  1  0  0  0  0
 11 12  1  0  0  0  0
 11 34  1  0  0  0  0
 11 35  1  0  0  0  0
 12 13  1  0  0  0  0
 12 36  1  0  0  0  0
 12 37  1  0  0  0  0
 13 17  1  0  0  0  0
 13 14  1  0  0  0  0
 14 15  2  0  0  0  0
 14 38  1  0  0  0  0
 15 16  1  0  0  0  0
 15 39  1  0  0  0  0
 16 17  2  0  0  0  0
M  CHG  1  10   1
M  END
> <s_m_source_file>
AV-unprocessed.smi

> <i_m_source_file_index>
3188

> <i_lp_mmshare_version>
43012

> <i_f3d_flags>
0

> <s_epik_input>
W0NIM11DMT1bQ0hdW0NIMl1bQ0gyXVtDQEBIXShbQ0gzXSlbQ0BIXTFbQ0gyXVtOSF1bQ0gyXVtDSDJdbjJbY0hdW2NIXW5uMg==

> <s_epik_cmdline>
J2VwaWtfcHl0aG9uJywgJy1waCcsICc3LjAnLCAnLXRuJywgJzgnLCAnLW1hJywgJzIwMCcsICctbWV0YWxfYmluZGluZycsICctaW1hZScsICc8aW5maWxlLm1hZT4nLCAnLW9tYWUnLCAnPG91dGZpbGUubWFlPic=

> <r_lp_tautomer_probability>
1

> <r_epik_Ionization_Penalty>
0.007268

> <r_epik_Ionization_Penalty_Charging>
0.00726786

> <r_epik_Ionization_Penalty_Neutral>
1.34882e-07

> <r_epik_State_Penalty>
0.00542069

> <r_epik_Charging_Adjusted_Penalty>
0.0126886

> <i_epik_Tot_Q>
1

> <i_epik_Tot_abs_Q>
1

> <r_epik_Metal_State_Penalty>
-0

> <b_epik_Metal_Only>
0

> <s_lp_Force_Field>
OPLS_2005

> <r_lp_Energy>
14.4229

> <b_lp_Chiralities_Consistent>
1

> <s_lp_Variant>
AV-unprocessed.smi:3188-4

> <Gold.Version>
5.8.1

> <Gold.Id.Protein>
6NUR|6NUR_protein|mol2

> <Gold.PLP.Fitness>
49.1447

> <Gold.PLP.PLP>
-39.8671

> <Gold.PLP.part.hbond>
-1.0000

> <Gold.PLP.part.metal>
0.0000

> <Gold.PLP.part.buried>
-1.0854

> <Gold.PLP.part.nonpolar>
-37.5339

> <Gold.PLP.part.repulsive>
0.0890

> <Gold.PLP.ligand.clash>
0.0000

> <Gold.PLP.ligand.torsion>
1.4029

> <Gold.PLP.Chemscore.Hbond>
2.0000

> <Gold.PLP.Chemscore.CHOScore>
2.0000

> <Gold.PLP.Chemscore.Metal>
0.0000

> <Gold.Chemscore.Hbonds>
donor molecule, donor type, donor heavy atom, donor atom, acceptor molecule, acceptor atom, score
      L1  H    10    33       P1  8028  1.92
      L1  C    14    38       P1  7957  1.00
      L1  C    15    39       P1 10175  1.00

> <Gold.PLP.Chemscore.Internal.Correction>
0.0834

> <Gold.Rescore>
     Score         DG    S(hbond)    S(metal)    S(lipo)     H(rot)  DE(clash)    DE(int)     intcor
     17.33     -18.85       1.00        0.00     124.75       1.78       0.11       1.40       ----

> <Gold.Chemscore.Fitness>
17.3337

> <Gold.Chemscore.DG>
-18.8489

> <Gold.Chemscore.ZeroCoef>
-5.4800

> <Gold.Chemscore.Hbond>
0.9978

> <Gold.Chemscore.Metal>
0.0000

> <Gold.Chemscore.Lipo>
124.7464

> <Gold.Chemscore.Internal_Hbond>
0.0000

> <Gold.Chemscore.DEClash>
0.1117

> <Gold.Chemscore.DEInternal>
1.4035

> <Gold.Chemscore.Rot>
1.7809

> <Gold.Chemscore.Internal.Correction>
   9.000000E+99

> <Gold.Chemscore.Hbonds>
donor molecule, donor type, donor heavy atom, donor atom, acceptor molecule, acceptor atom, score
      L1  H    10    33       P1  8028  0.89

> <Gold.Chemscore.Hbond.Weighted>
-3.3326

> <Gold.Chemscore.Metal.Weighted>
-0.0000

> <Gold.Chemscore.Lipo.Weighted>
-14.5953

> <Gold.Chemscore.Internal_Hbond.Weighted>
0.0000

> <Gold.Chemscore.DEClash.Weighted>
0.1117

> <Gold.Chemscore.DEInternal.Weighted>
1.4035

> <Gold.Chemscore.Rot.Weighted>
4.5590

> <Gold.Chemscore.Internal.Correction.Weighted>
   9.000000E+99

> <Gold.Protein.RotatedTorsions>
[ 6907 6896 6895 6894 ] final   90.55 input  -60.11 | X-H torsion
[ 7974 7965 7964 7962 ] final   16.29 input  175.53 | X-H torsion
[ 8008 7997 7996 7995 ] final  159.79 input   59.86 | X-H torsion
[ 10167 10162 10161 10158 ] final   24.78 input  -65.29 | X-H torsion
[ 10718 10713 10712 10709 ] final  140.60 input   66.30 | X-H torsion
[ 10763 10752 10751 10750 ] final   40.18 input  -60.55 | X-H torsion
[ 11005 11000 10999 10996 ] final  155.55 input  -57.11 | X-H torsion

> <Gold.Protein.ActiveResidues>
 VAL166  LYS551  ARG553  GLY616  TRP617  ASP618  TYR619  PRO620  LYS621  CYS622 
 ASP623  PHE694  ASN695  SER759  ASP760  ASP761  ALA762  ILE779  LEU786  VAL792 
 PHE793  MET794  SER795  GLU796  ALA797  LYS798  CYS799  TRP800  GLU811  SER814 

> <Gold.Protein.RotatedAtoms>
  152.5445  134.1794  159.8629 H   0  0  0  0  0  0  0  0  0  0  0  0  # atno 6907 bound_to 6896
  151.1798  133.4725  159.2601 H   0  0  0  0  0  0  0  0  0  0  0  0  # atno 6908 bound_to 6896
  151.1190  135.0080  159.8585 H   0  0  0  0  0  0  0  0  0  0  0  0  # atno 6909 bound_to 6896
  146.2254  139.8769  142.8577 H   0  0  0  0  0  0  0  0  0  0  0  0  # atno 7974 bound_to 7965
  156.2216  140.1822  156.7464 H   0  0  0  0  0  0  0  0  0  0  0  0  # atno 8008 bound_to 7997
  154.5874  140.0656  156.9219 H   0  0  0  0  0  0  0  0  0  0  0  0  # atno 8009 bound_to 7997
  155.2396  140.3321  155.4296 H   0  0  0  0  0  0  0  0  0  0  0  0  # atno 8010 bound_to 7997
  140.5160  144.0082  150.6394 H   0  0  0  0  0  0  0  0  0  0  0  0  # atno 10167 bound_to 10162
  157.4015  131.1017  151.0547 H   0  0  0  0  0  0  0  0  0  0  0  0  # atno 10718 bound_to 10713
  152.9944  135.6199  154.2585 H   0  0  0  0  0  0  0  0  0  0  0  0  # atno 10763 bound_to 10752
  154.2322  135.2791  155.2887 H   0  0  0  0  0  0  0  0  0  0  0  0  # atno 10764 bound_to 10752
  154.5440  135.5752  153.6922 H   0  0  0  0  0  0  0  0  0  0  0  0  # atno 10765 bound_to 10752
  140.1592  134.8621  157.2552 H   0  0  0  0  0  0  0  0  0  0  0  0  # atno 11005 bound_to 11000
  145.2551  141.0058  143.3858 LP  0  0  0  0  0  0  0  0  0  0  0  0  # atno 17320 bound_to 7965
  144.9343  139.4262  143.6480 LP  0  0  0  0  0  0  0  0  0  0  0  0  # atno 17321 bound_to 7965
  140.3417  143.3015  152.0581 LP  0  0  0  0  0  0  0  0  0  0  0  0  # atno 17342 bound_to 10162
  139.4909  144.6437  151.6823 LP  0  0  0  0  0  0  0  0  0  0  0  0  # atno 17343 bound_to 10162
  157.1544  130.6198  149.5592 LP  0  0  0  0  0  0  0  0  0  0  0  0  # atno 17370 bound_to 10713
  155.9824  130.4838  150.6882 LP  0  0  0  0  0  0  0  0  0  0  0  0  # atno 17371 bound_to 10713
  140.2510  134.3682  155.7442 LP  0  0  0  0  0  0  0  0  0  0  0  0  # atno 17394 bound_to 11000
  141.2207  133.7317  156.8936 LP  0  0  0  0  0  0  0  0  0  0  0  0  # atno 17395 bound_to 11000

$$$$
