AV-unprocessed.smi:747|AV-procd|sdf|3581|dock7
  -GOLD-   22720 0573D 1   1.00000     0.00000
 Structure written by MMmdl.
 48 49  0  0  0  0  0  0  0  0  1 V2000
  150.1737  134.4203  155.3363 C   0  0  0  0  0  0  0  0  0  0  0  0
  150.4545  135.5422  156.2076 N   0  0  0  0  0  0  0  0  0  0  0  0
  149.8474  135.5958  157.4859 C   0  0  0  0  0  0  0  0  0  0  0  0
  149.0783  134.7253  157.8944 O   0  0  0  0  0  0  0  0  0  0  0  0
  150.2096  136.7666  158.2763 C   0  0  0  0  0  0  0  0  0  0  0  0
  151.0595  137.6976  157.7903 C   0  0  0  0  0  0  0  0  0  0  0  0
  151.6393  137.6198  156.5371 N   0  0  0  0  0  0  0  0  0  0  0  0
  152.5697  138.6658  156.0960 C   0  0  0  0  0  0  0  0  0  0  0  0
  151.8832  140.0313  155.9820 C   0  0  0  0  0  0  0  0  0  0  0  0
  151.5547  140.4690  154.8791 O   0  0  0  0  0  0  0  0  0  0  0  0
  151.6818  140.6896  157.1345 N   0  0  0  0  0  0  0  0  0  0  0  0
  150.9798  141.9683  157.2892 C   0  0  1  0  0  0  0  0  0  0  0  0
  149.5329  141.6993  157.7855 C   0  0  0  0  0  0  0  0  0  0  0  0
  148.5899  141.1334  156.7137 C   0  0  0  0  0  0  0  0  0  0  0  0
  148.3149  141.9176  155.6686 N   0  0  0  0  0  0  0  0  0  0  0  0
  148.1178  140.0039  156.8254 O   0  0  0  0  0  0  0  0  0  0  0  0
  151.7918  142.9064  158.2283 C   0  0  0  0  0  0  0  0  0  0  0  0
  152.0836  142.2606  159.6054 C   0  0  0  0  0  0  0  0  0  0  0  0
  152.8707  143.1961  160.5374 C   0  0  0  0  0  0  0  0  0  0  0  0
  152.1470  144.5343  160.7295 C   0  0  0  0  0  0  0  0  0  0  0  0
  151.8772  145.2015  159.3755 C   0  0  0  0  0  0  0  0  0  0  0  0
  151.0862  144.2705  158.4430 C   0  0  0  0  0  0  0  0  0  0  0  0
  151.3412  136.5191  155.7050 C   0  0  0  0  0  0  0  0  0  0  0  0
  151.8433  136.4227  154.5818 O   0  0  0  0  0  0  0  0  0  0  0  0
  149.4688  133.7273  155.7939 H   0  0  0  0  0  0  0  0  0  0  0  0
  151.1223  133.9142  155.1477 H   0  0  0  0  0  0  0  0  0  0  0  0
  149.7477  134.8239  154.4160 H   0  0  0  0  0  0  0  0  0  0  0  0
  149.7935  136.8881  159.2657 H   0  0  0  0  0  0  0  0  0  0  0  0
  151.3000  138.5436  158.4177 H   0  0  0  0  0  0  0  0  0  0  0  0
  153.4203  138.7215  156.7783 H   0  0  0  0  0  0  0  0  0  0  0  0
  152.9885  138.4121  155.1214 H   0  0  0  0  0  0  0  0  0  0  0  0
  152.0020  140.2482  157.9843 H   0  0  0  0  0  0  0  0  0  0  0  0
  150.9085  142.4672  156.3208 H   0  0  0  0  0  0  0  0  0  0  0  0
  149.5586  141.0246  158.6427 H   0  0  0  0  0  0  0  0  0  0  0  0
  149.0708  142.6216  158.1338 H   0  0  0  0  0  0  0  0  0  0  0  0
  147.7069  141.5875  154.9335 H   0  0  0  0  0  0  0  0  0  0  0  0
  148.7255  142.8387  155.6144 H   0  0  0  0  0  0  0  0  0  0  0  0
  152.7513  143.1062  157.7483 H   0  0  0  0  0  0  0  0  0  0  0  0
  151.1456  141.9755  160.0837 H   0  0  0  0  0  0  0  0  0  0  0  0
  152.6623  141.3456  159.4893 H   0  0  0  0  0  0  0  0  0  0  0  0
  153.0217  142.7150  161.5042 H   0  0  0  0  0  0  0  0  0  0  0  0
  153.8638  143.3733  160.1225 H   0  0  0  0  0  0  0  0  0  0  0  0
  151.2047  144.3711  161.2541 H   0  0  0  0  0  0  0  0  0  0  0  0
  152.7440  145.1944  161.3590 H   0  0  0  0  0  0  0  0  0  0  0  0
  151.3277  146.1316  159.5236 H   0  0  0  0  0  0  0  0  0  0  0  0
  152.8234  145.4725  158.9052 H   0  0  0  0  0  0  0  0  0  0  0  0
  150.9414  144.7866  157.4941 H   0  0  0  0  0  0  0  0  0  0  0  0
  150.0900  144.1051  158.8556 H   0  0  0  0  0  0  0  0  0  0  0  0
  1  2  1  0  0  0  0
  1 25  1  0  0  0  0
  1 26  1  0  0  0  0
  1 27  1  0  0  0  0
  2 23  1  0  0  0  0
  2  3  1  0  0  0  0
  3  4  2  0  0  0  0
  3  5  1  0  0  0  0
  5  6  2  0  0  0  0
  5 28  1  0  0  0  0
  6  7  1  0  0  0  0
  6 29  1  0  0  0  0
  7  8  1  0  0  0  0
  7 23  1  0  0  0  0
  8  9  1  0  0  0  0
  8 30  1  0  0  0  0
  8 31  1  0  0  0  0
  9 10  2  0  0  0  0
  9 11  1  0  0  0  0
 11 12  1  0  0  0  0
 11 32  1  0  0  0  0
 12 13  1  0  0  0  0
 12 17  1  0  0  0  0
 12 33  1  0  0  0  0
 13 14  1  0  0  0  0
 13 34  1  0  0  0  0
 13 35  1  0  0  0  0
 14 15  1  0  0  0  0
 14 16  2  0  0  0  0
 15 36  1  0  0  0  0
 15 37  1  0  0  0  0
 17 22  1  0  0  0  0
 17 18  1  0  0  0  0
 17 38  1  0  0  0  0
 18 19  1  0  0  0  0
 18 39  1  0  0  0  0
 18 40  1  0  0  0  0
 19 20  1  0  0  0  0
 19 41  1  0  0  0  0
 19 42  1  0  0  0  0
 20 21  1  0  0  0  0
 20 43  1  0  0  0  0
 20 44  1  0  0  0  0
 21 22  1  0  0  0  0
 21 45  1  0  0  0  0
 21 46  1  0  0  0  0
 22 47  1  0  0  0  0
 22 48  1  0  0  0  0
 23 24  2  0  0  0  0
M  END
> <s_m_source_file>
AV-unprocessed.smi

> <i_m_source_file_index>
747

> <i_lp_mmshare_version>
43012

> <i_f3d_flags>
0

> <s_epik_input>
W0NIM11uMWMoPU8pW2NIXVtjSF1uKGMxPU8pW0NIMl1DKD1PKVtOSF1bQ0BIXShbQ0gyXUMoPU8pW05IMl0pW0NIXTJbQ0gyXVtDSDJdW0NIMl1bQ0gyXVtDSDJdMg==

> <s_epik_cmdline>
J2VwaWtfcHl0aG9uJywgJy1waCcsICc3LjAnLCAnLXRuJywgJzgnLCAnLW1hJywgJzIwMCcsICctbWV0YWxfYmluZGluZycsICctaW1hZScsICc8aW5maWxlLm1hZT4nLCAnLW9tYWUnLCAnPG91dGZpbGUubWFlPic=

> <r_lp_tautomer_probability>
1

> <r_epik_Ionization_Penalty>
6.11221e-08

> <r_epik_Ionization_Penalty_Charging>
1.14855e-08

> <r_epik_Ionization_Penalty_Neutral>
4.96365e-08

> <r_epik_State_Penalty>
-0

> <r_epik_Charging_Adjusted_Penalty>
1.14855e-08

> <i_epik_Tot_Q>
0

> <i_epik_Tot_abs_Q>
0

> <r_epik_Metal_State_Penalty>
-0

> <b_epik_Metal_Only>
0

> <s_lp_Force_Field>
OPLS_2005

> <r_lp_Energy>
16.3445

> <b_lp_Chiralities_Consistent>
1

> <s_lp_Variant>
AV-unprocessed.smi:747-2

> <Gold.Version>
5.8.1

> <Gold.Id.Protein>
6NUR|6NUR_protein|mol2

> <Gold.PLP.Fitness>
48.3230

> <Gold.PLP.PLP>
-40.6378

> <Gold.PLP.part.hbond>
-2.6924

> <Gold.PLP.part.metal>
0.0000

> <Gold.PLP.part.buried>
-7.0247

> <Gold.PLP.part.nonpolar>
-32.0670

> <Gold.PLP.part.repulsive>
0.4113

> <Gold.PLP.ligand.clash>
0.0000

> <Gold.PLP.ligand.torsion>
0.6487

> <Gold.PLP.Chemscore.Hbond>
2.9516

> <Gold.PLP.Chemscore.CHOScore>
0.0000

> <Gold.PLP.Chemscore.Metal>
0.0000

> <Gold.Chemscore.Hbonds>
donor molecule, donor type, donor heavy atom, donor atom, acceptor molecule, acceptor atom, score
      L1  H    15    37       P1  8028  1.00
      P1  H  6896  6909       L1     4  0.03
      P1  H  7989  7998       L1    10  0.68
      P1  H 10752 10764       L1    24  0.57

> <Gold.PLP.Chemscore.Internal.Correction>
0.1277

> <Gold.Rescore>
     Score         DG    S(hbond)    S(metal)    S(lipo)     H(rot)  DE(clash)    DE(int)     intcor
     18.36     -19.13       2.98        0.00      95.39       2.91       0.02       0.75       ----

> <Gold.Chemscore.Fitness>
18.3559

> <Gold.Chemscore.DG>
-19.1323

> <Gold.Chemscore.ZeroCoef>
-5.4800

> <Gold.Chemscore.Hbond>
2.9780

> <Gold.Chemscore.Metal>
0.0000

> <Gold.Chemscore.Lipo>
95.3938

> <Gold.Chemscore.Internal_Hbond>
0.0000

> <Gold.Chemscore.DEClash>
0.0249

> <Gold.Chemscore.DEInternal>
0.7515

> <Gold.Chemscore.Rot>
2.9122

> <Gold.Chemscore.Internal.Correction>
   9.000000E+99

> <Gold.Chemscore.Hbonds>
donor molecule, donor type, donor heavy atom, donor atom, acceptor molecule, acceptor atom, score
      L1  H    15    37       P1  8028  0.99
      P1  H  7989  7998       L1    10  0.67
      P1  H 10752 10764       L1    24  0.50

> <Gold.Chemscore.Hbond.Weighted>
-9.9465

> <Gold.Chemscore.Metal.Weighted>
-0.0000

> <Gold.Chemscore.Lipo.Weighted>
-11.1611

> <Gold.Chemscore.Internal_Hbond.Weighted>
0.0000

> <Gold.Chemscore.DEClash.Weighted>
0.0249

> <Gold.Chemscore.DEInternal.Weighted>
0.7515

> <Gold.Chemscore.Rot.Weighted>
7.4553

> <Gold.Chemscore.Internal.Correction.Weighted>
   9.000000E+99

> <Gold.Protein.RotatedTorsions>
[ 6907 6896 6895 6894 ] final   49.46 input  -60.11 | X-H torsion
[ 7974 7965 7964 7962 ] final  -26.90 input  175.53 | X-H torsion
[ 8008 7997 7996 7995 ] final   81.50 input   59.86 | X-H torsion
[ 10167 10162 10161 10158 ] final   12.12 input  -65.29 | X-H torsion
[ 10718 10713 10712 10709 ] final   22.49 input   66.30 | X-H torsion
[ 10763 10752 10751 10750 ] final  -63.29 input  -60.55 | X-H torsion
[ 11005 11000 10999 10996 ] final   29.72 input  -57.11 | X-H torsion

> <Gold.Protein.ActiveResidues>
 VAL166  LYS551  ARG553  GLY616  TRP617  ASP618  TYR619  PRO620  LYS621  CYS622 
 ASP623  PHE694  ASN695  SER759  ASP760  ASP761  ALA762  ILE779  LEU786  VAL792 
 PHE793  MET794  SER795  GLU796  ALA797  LYS798  CYS799  TRP800  GLU811  SER814 

> <Gold.Protein.RotatedAtoms>
  152.2910  134.7721  160.0377 H   0  0  0  0  0  0  0  0  0  0  0  0  # atno 6907 bound_to 6896
  151.8267  133.3397  159.3609 H   0  0  0  0  0  0  0  0  0  0  0  0  # atno 6908 bound_to 6896
  150.7230  134.5451  159.5811 H   0  0  0  0  0  0  0  0  0  0  0  0  # atno 6909 bound_to 6896
  146.1394  140.5081  142.8658 H   0  0  0  0  0  0  0  0  0  0  0  0  # atno 7974 bound_to 7965
  155.8980  140.3435  155.6005 H   0  0  0  0  0  0  0  0  0  0  0  0  # atno 8008 bound_to 7997
  155.7533  140.0823  157.2209 H   0  0  0  0  0  0  0  0  0  0  0  0  # atno 8009 bound_to 7997
  154.4040  140.1549  156.2736 H   0  0  0  0  0  0  0  0  0  0  0  0  # atno 8010 bound_to 7997
  140.6088  143.8451  150.7043 H   0  0  0  0  0  0  0  0  0  0  0  0  # atno 10167 bound_to 10162
  157.1530  130.6683  149.6018 H   0  0  0  0  0  0  0  0  0  0  0  0  # atno 10718 bound_to 10713
  154.3128  135.6212  153.5473 H   0  0  0  0  0  0  0  0  0  0  0  0  # atno 10763 bound_to 10752
  152.9828  135.5705  154.5158 H   0  0  0  0  0  0  0  0  0  0  0  0  # atno 10764 bound_to 10752
  154.4811  135.2863  155.1546 H   0  0  0  0  0  0  0  0  0  0  0  0  # atno 10765 bound_to 10752
  140.3020  134.2746  155.7752 H   0  0  0  0  0  0  0  0  0  0  0  0  # atno 11005 bound_to 11000
  144.7775  140.5771  143.6628 LP  0  0  0  0  0  0  0  0  0  0  0  0  # atno 17320 bound_to 7965
  145.5082  139.1480  143.3619 LP  0  0  0  0  0  0  0  0  0  0  0  0  # atno 17321 bound_to 7965
  140.2015  143.3956  152.1788 LP  0  0  0  0  0  0  0  0  0  0  0  0  # atno 17342 bound_to 10162
  139.5345  144.7195  151.4940 LP  0  0  0  0  0  0  0  0  0  0  0  0  # atno 17343 bound_to 10162
  155.9767  130.4738  150.6546 LP  0  0  0  0  0  0  0  0  0  0  0  0  # atno 17370 bound_to 10713
  157.4203  131.0836  151.1137 LP  0  0  0  0  0  0  0  0  0  0  0  0  # atno 17371 bound_to 10713
  141.2126  133.7652  156.9780 LP  0  0  0  0  0  0  0  0  0  0  0  0  # atno 17394 bound_to 11000
  140.1101  134.9482  157.2053 LP  0  0  0  0  0  0  0  0  0  0  0  0  # atno 17395 bound_to 11000

$$$$
