AV-unprocessed.smi:1071|AV-procd|sdf|4677|dock1
  -GOLD-   22720 3193D 1   1.00000     0.00000
 Structure written by MMmdl.
 47 48  0  0  0  0  0  0  0  0  2 V2000
  154.3707  138.8462  161.2720 C   0  0  0  0  0  0  0  0  0  0  0  0
  155.4146  139.7315  160.9058 O   0  0  0  0  0  0  0  0  0  0  0  0
  154.9983  140.6949  159.9525 C   0  0  0  0  0  0  0  0  0  0  0  0
  153.9978  141.6498  160.6092 C   0  0  0  0  0  0  0  0  0  0  0  0
  153.6573  142.6678  159.6729 O   0  0  0  0  0  0  0  0  0  0  0  0
  152.4698  142.5547  158.9794 C   0  0  0  0  0  0  0  0  0  0  0  0
  151.8822  141.2807  158.8539 C   0  0  0  0  0  0  0  0  0  0  0  0
  150.6697  141.1601  158.1497 C   0  0  0  0  0  0  0  0  0  0  0  0
  150.0740  142.3128  157.5994 C   0  0  0  0  0  0  0  0  0  0  0  0
  148.8538  142.1485  156.8885 N   0  0  0  0  0  0  0  0  0  0  0  0
  148.1519  141.0221  156.6532 C   0  0  0  0  0  0  0  0  0  0  0  0
  148.3882  139.9379  157.1833 O   0  0  0  0  0  0  0  0  0  0  0  0
  147.0722  141.2395  155.8625 N   0  0  0  0  0  0  0  0  0  0  0  0
  147.2055  142.0453  154.6392 C   0  0  0  0  0  0  0  0  0  0  0  0
  147.5342  141.1141  153.4545 C   0  0  0  0  0  0  0  0  0  0  0  0
  146.5201  140.0369  153.3100 N   0  3  1  0  0  0  0  0  0  0  0  0
  146.8287  139.1165  152.1951 C   0  0  0  0  0  0  0  0  0  0  0  0
  146.2368  139.3167  154.5794 C   0  0  0  0  0  0  0  0  0  0  0  0
  145.9356  140.3067  155.7238 C   0  0  1  0  0  0  0  0  0  0  0  0
  145.5061  139.5977  157.0256 C   0  0  0  0  0  0  0  0  0  0  0  0
  150.7500  143.5465  157.7683 C   0  0  0  0  0  0  0  0  0  0  0  0
  151.9135  143.6683  158.4418 N   0  0  0  0  0  0  0  0  0  0  0  0
  154.7403  138.1258  162.0018 H   0  0  0  0  0  0  0  0  0  0  0  0
  154.0030  138.2913  160.4080 H   0  0  0  0  0  0  0  0  0  0  0  0
  153.5363  139.3850  161.7233 H   0  0  0  0  0  0  0  0  0  0  0  0
  155.8599  141.2543  159.5841 H   0  0  0  0  0  0  0  0  0  0  0  0
  154.5352  140.1999  159.0974 H   0  0  0  0  0  0  0  0  0  0  0  0
  153.1055  141.0980  160.9099 H   0  0  0  0  0  0  0  0  0  0  0  0
  154.4428  142.0889  161.5038 H   0  0  0  0  0  0  0  0  0  0  0  0
  152.3529  140.4120  159.2904 H   0  0  0  0  0  0  0  0  0  0  0  0
  150.2023  140.1924  158.0398 H   0  0  0  0  0  0  0  0  0  0  0  0
  148.5275  142.9721  156.4042 H   0  0  0  0  0  0  0  0  0  0  0  0
  146.2738  142.5802  154.4503 H   0  0  0  0  0  0  0  0  0  0  0  0
  147.9721  142.8174  154.7177 H   0  0  0  0  0  0  0  0  0  0  0  0
  147.5836  141.6925  152.5314 H   0  0  0  0  0  0  0  0  0  0  0  0
  148.5181  140.6649  153.5998 H   0  0  0  0  0  0  0  0  0  0  0  0
  147.7495  138.5643  152.3869 H   0  0  0  0  0  0  0  0  0  0  0  0
  146.9486  139.6686  151.2626 H   0  0  0  0  0  0  0  0  0  0  0  0
  146.0207  138.3975  152.0551 H   0  0  0  0  0  0  0  0  0  0  0  0
  145.3863  138.6504  154.4297 H   0  0  0  0  0  0  0  0  0  0  0  0
  147.0898  138.6879  154.8403 H   0  0  0  0  0  0  0  0  0  0  0  0
  145.0720  140.9046  155.4269 H   0  0  0  0  0  0  0  0  0  0  0  0
  144.5467  139.0983  156.8877 H   0  0  0  0  0  0  0  0  0  0  0  0
  145.3863  140.3091  157.8433 H   0  0  0  0  0  0  0  0  0  0  0  0
  146.2150  138.8326  157.3408 H   0  0  0  0  0  0  0  0  0  0  0  0
  150.3806  144.4692  157.3504 H   0  0  0  0  0  0  0  0  0  0  0  0
  145.6591  140.5035  153.0625 H   0  0  0  0  0  0  0  0  0  0  0  0
  1  2  1  0  0  0  0
  1 23  1  0  0  0  0
  1 24  1  0  0  0  0
  1 25  1  0  0  0  0
  2  3  1  0  0  0  0
  3  4  1  0  0  0  0
  3 26  1  0  0  0  0
  3 27  1  0  0  0  0
  4  5  1  0  0  0  0
  4 28  1  0  0  0  0
  4 29  1  0  0  0  0
  5  6  1  0  0  0  0
  6 22  1  0  0  0  0
  6  7  2  0  0  0  0
  7  8  1  0  0  0  0
  7 30  1  0  0  0  0
  8  9  2  0  0  0  0
  8 31  1  0  0  0  0
  9 10  1  0  0  0  0
  9 21  1  0  0  0  0
 10 11  1  0  0  0  0
 10 32  1  0  0  0  0
 11 12  2  0  0  0  0
 11 13  1  0  0  0  0
 13 19  1  0  0  0  0
 13 14  1  0  0  0  0
 14 15  1  0  0  0  0
 14 33  1  0  0  0  0
 14 34  1  0  0  0  0
 15 16  1  0  0  0  0
 15 35  1  0  0  0  0
 15 36  1  0  0  0  0
 16 17  1  0  0  0  0
 16 18  1  0  0  0  0
 16 47  1  0  0  0  0
 17 37  1  0  0  0  0
 17 38  1  0  0  0  0
 17 39  1  0  0  0  0
 18 19  1  0  0  0  0
 18 40  1  0  0  0  0
 18 41  1  0  0  0  0
 19 20  1  0  0  0  0
 19 42  1  0  0  0  0
 20 43  1  0  0  0  0
 20 44  1  0  0  0  0
 20 45  1  0  0  0  0
 21 22  2  0  0  0  0
 21 46  1  0  0  0  0
M  CHG  1  16   1
M  END
> <s_m_source_file>
AV-unprocessed.smi

> <i_m_source_file_index>
1071

> <i_lp_mmshare_version>
43012

> <i_f3d_flags>
0

> <s_epik_input>
W0NIM11PW0NIMl1bQ0gyXU9jMVtjSF1bY0hdYyhbY0hdbjEpW05IXUMoPU8pTjJbQ0gyXVtDSDJdTihbQ0gzXSlbQ0gyXVtDQEhdMltDSDNd

> <s_epik_cmdline>
J2VwaWtfcHl0aG9uJywgJy1waCcsICc3LjAnLCAnLXRuJywgJzgnLCAnLW1hJywgJzIwMCcsICctbWV0YWxfYmluZGluZycsICctaW1hZScsICc8aW5maWxlLm1hZT4nLCAnLW9tYWUnLCAnPG91dGZpbGUubWFlPic=

> <r_lp_tautomer_probability>
1

> <r_epik_Ionization_Penalty>
0.25455

> <r_epik_Ionization_Penalty_Charging>
0.254506

> <r_epik_Ionization_Penalty_Neutral>
4.43365e-05

> <r_epik_State_Penalty>
0.245983

> <r_epik_Charging_Adjusted_Penalty>
0.500488

> <i_epik_Tot_Q>
1

> <i_epik_Tot_abs_Q>
1

> <r_epik_Metal_State_Penalty>
0.245987

> <b_epik_Metal_Only>
0

> <s_lp_Force_Field>
OPLS_2005

> <r_lp_Energy>
54.998

> <b_lp_Chiralities_Consistent>
1

> <s_lp_Variant>
AV-unprocessed.smi:1071-1

> <Gold.Version>
5.8.1

> <Gold.Id.Protein>
6NUR|6NUR_protein|mol2

> <Gold.PLP.Fitness>
43.4264

> <Gold.PLP.PLP>
-32.7895

> <Gold.PLP.part.hbond>
-2.0000

> <Gold.PLP.part.metal>
0.0000

> <Gold.PLP.part.buried>
-3.9952

> <Gold.PLP.part.nonpolar>
-27.2811

> <Gold.PLP.part.repulsive>
0.0587

> <Gold.PLP.ligand.clash>
0.0000

> <Gold.PLP.ligand.torsion>
1.0103

> <Gold.PLP.Chemscore.Hbond>
2.9825

> <Gold.PLP.Chemscore.CHOScore>
1.0000

> <Gold.PLP.Chemscore.Metal>
0.0000

> <Gold.Chemscore.Hbonds>
donor molecule, donor type, donor heavy atom, donor atom, acceptor molecule, acceptor atom, score
      L1  H    10    32       P1  8028  1.00
      L1  H    16    47       P1 10175  1.85
      L1  C    21    46       P1  8028  0.98

> <Gold.PLP.Chemscore.Internal.Correction>
0.7100

> <Gold.Rescore>
     Score         DG    S(hbond)    S(metal)    S(lipo)     H(rot)  DE(clash)    DE(int)     intcor
     12.54     -16.45       1.77        0.00      78.37       1.60       0.32       3.60       ----

> <Gold.Chemscore.Fitness>
12.5359

> <Gold.Chemscore.DG>
-16.4537

> <Gold.Chemscore.ZeroCoef>
-5.4800

> <Gold.Chemscore.Hbond>
1.7702

> <Gold.Chemscore.Metal>
0.0000

> <Gold.Chemscore.Lipo>
78.3667

> <Gold.Chemscore.Internal_Hbond>
0.0000

> <Gold.Chemscore.DEClash>
0.3153

> <Gold.Chemscore.DEInternal>
3.6025

> <Gold.Chemscore.Rot>
1.6045

> <Gold.Chemscore.Internal.Correction>
   9.000000E+99

> <Gold.Chemscore.Hbonds>
donor molecule, donor type, donor heavy atom, donor atom, acceptor molecule, acceptor atom, score
      L1  H    10    32       P1  8028  0.83
      L1  H    16    47       P1 10175  0.73

> <Gold.Chemscore.Hbond.Weighted>
-5.9123

> <Gold.Chemscore.Metal.Weighted>
-0.0000

> <Gold.Chemscore.Lipo.Weighted>
-9.1689

> <Gold.Chemscore.Internal_Hbond.Weighted>
0.0000

> <Gold.Chemscore.DEClash.Weighted>
0.3153

> <Gold.Chemscore.DEInternal.Weighted>
3.6025

> <Gold.Chemscore.Rot.Weighted>
4.1075

> <Gold.Chemscore.Internal.Correction.Weighted>
   9.000000E+99

> <Gold.Protein.RotatedTorsions>
[ 6907 6896 6895 6894 ] final  -90.13 input  -60.11 | X-H torsion
[ 7974 7965 7964 7962 ] final -178.86 input  175.53 | X-H torsion
[ 8008 7997 7996 7995 ] final -133.50 input   59.86 | X-H torsion
[ 10167 10162 10161 10158 ] final  160.29 input  -65.29 | X-H torsion
[ 10718 10713 10712 10709 ] final   92.87 input   66.30 | X-H torsion
[ 10763 10752 10751 10750 ] final -124.15 input  -60.55 | X-H torsion
[ 11005 11000 10999 10996 ] final -136.81 input  -57.11 | X-H torsion

> <Gold.Protein.ActiveResidues>
 VAL166  LYS551  ARG553  GLY616  TRP617  ASP618  TYR619  PRO620  LYS621  CYS622 
 ASP623  PHE694  ASN695  SER759  ASP760  ASP761  ALA762  ILE779  LEU786  VAL792 
 PHE793  MET794  SER795  GLU796  ALA797  LYS798  CYS799  TRP800  GLU811  SER814 

> <Gold.Protein.RotatedAtoms>
  150.6879  134.2480  159.4498 H   0  0  0  0  0  0  0  0  0  0  0  0  # atno 6907 bound_to 6896
  152.0419  134.9703  160.0583 H   0  0  0  0  0  0  0  0  0  0  0  0  # atno 6908 bound_to 6896
  152.1202  133.4314  159.4709 H   0  0  0  0  0  0  0  0  0  0  0  0  # atno 6909 bound_to 6896
  144.7133  140.0804  143.6426 H   0  0  0  0  0  0  0  0  0  0  0  0  # atno 7974 bound_to 7965
  155.3465  140.0475  157.3045 H   0  0  0  0  0  0  0  0  0  0  0  0  # atno 8008 bound_to 7997
  154.5250  140.2238  155.8872 H   0  0  0  0  0  0  0  0  0  0  0  0  # atno 8009 bound_to 7997
  156.1729  140.3091  155.9013 H   0  0  0  0  0  0  0  0  0  0  0  0  # atno 8010 bound_to 7997
  139.4839  144.4648  151.8656 H   0  0  0  0  0  0  0  0  0  0  0  0  # atno 10167 bound_to 10162
  157.6957  131.0458  150.3947 H   0  0  0  0  0  0  0  0  0  0  0  0  # atno 10718 bound_to 10713
  154.8719  135.4074  154.3058 H   0  0  0  0  0  0  0  0  0  0  0  0  # atno 10763 bound_to 10752
  153.3910  135.7015  153.6500 H   0  0  0  0  0  0  0  0  0  0  0  0  # atno 10764 bound_to 10752
  153.5283  135.3673  155.2635 H   0  0  0  0  0  0  0  0  0  0  0  0  # atno 10765 bound_to 10752
  140.8770  134.1979  157.4615 H   0  0  0  0  0  0  0  0  0  0  0  0  # atno 11005 bound_to 11000
  145.9707  139.2867  143.1100 LP  0  0  0  0  0  0  0  0  0  0  0  0  # atno 17320 bound_to 7965
  145.9120  140.9174  143.0449 LP  0  0  0  0  0  0  0  0  0  0  0  0  # atno 17321 bound_to 7965
  140.4113  144.2365  150.5889 LP  0  0  0  0  0  0  0  0  0  0  0  0  # atno 17342 bound_to 10162
  140.4964  143.2331  151.8744 LP  0  0  0  0  0  0  0  0  0  0  0  0  # atno 17343 bound_to 10162
  156.4347  130.3979  149.6737 LP  0  0  0  0  0  0  0  0  0  0  0  0  # atno 17370 bound_to 10713
  156.3942  130.7642  151.2645 LP  0  0  0  0  0  0  0  0  0  0  0  0  # atno 17371 bound_to 10713
  139.8716  134.9800  156.5059 LP  0  0  0  0  0  0  0  0  0  0  0  0  # atno 17394 bound_to 11000
  140.8506  133.8135  155.9165 LP  0  0  0  0  0  0  0  0  0  0  0  0  # atno 17395 bound_to 11000

$$$$
