AV-unprocessed.smi:404|AV-procd|sdf|2497|dock3
  -GOLD-   2262022443D 1   1.00000     0.00000
 Structure written by MMmdl.
 44 45  0  0  0  0  0  0  0  0  1 V2000
  153.6742  140.9594  161.0381 C   0  0  0  0  0  0  0  0  0  0  0  0
  152.8512  141.7615  160.0707 C   0  0  0  0  0  0  0  0  0  0  0  0
  152.9531  143.0803  160.0701 N   0  0  0  0  0  0  0  0  0  0  0  0
  152.0984  143.4912  159.1120 N   0  0  0  0  0  0  0  0  0  0  0  0
  151.9572  144.9094  158.8448 C   0  0  0  0  0  0  0  0  0  0  0  0
  151.4530  142.4300  158.5081 C   0  0  0  0  0  0  0  0  0  0  0  0
  150.4478  142.6254  157.4192 C   0  0  0  0  0  0  0  0  0  0  0  0
  151.9173  141.2871  159.1031 C   0  0  0  0  0  0  0  0  0  0  0  0
  151.5364  139.8565  158.8192 C   0  0  0  0  0  0  0  0  0  0  0  0
  151.8052  139.5370  157.3490 C   0  0  0  0  0  0  0  0  0  0  0  0
  152.9186  139.7479  156.8683 O   0  0  0  0  0  0  0  0  0  0  0  0
  150.7773  139.0316  156.6492 N   0  0  0  0  0  0  0  0  0  0  0  0
  150.8016  138.6853  155.2311 C   0  0  0  0  0  0  0  0  0  0  0  0
  149.7382  139.4505  154.4152 C   0  0  0  0  0  0  0  0  0  0  0  0
  149.4238  140.8482  154.9960 C   0  0  0  0  0  0  0  0  0  0  0  0
  148.3393  141.5761  154.1847 C   0  0  0  0  0  0  0  0  0  0  0  0
  147.0600  140.7335  154.0757 C   0  0  0  0  0  0  0  0  0  0  0  0
  147.3634  139.3488  153.4857 C   0  0  0  0  0  0  0  0  0  0  0  0
  148.4419  138.6212  154.3043 C   0  0  0  0  0  0  0  0  0  0  0  0
  153.0436  140.5154  161.8082 H   0  0  0  0  0  0  0  0  0  0  0  0
  154.4248  141.5733  161.5376 H   0  0  0  0  0  0  0  0  0  0  0  0
  154.1970  140.1500  160.5288 H   0  0  0  0  0  0  0  0  0  0  0  0
  152.0894  145.0982  157.7791 H   0  0  0  0  0  0  0  0  0  0  0  0
  152.7029  145.4821  159.3982 H   0  0  0  0  0  0  0  0  0  0  0  0
  150.9625  145.2401  159.1452 H   0  0  0  0  0  0  0  0  0  0  0  0
  149.9726  141.6837  157.1451 H   0  0  0  0  0  0  0  0  0  0  0  0
  150.9198  143.0355  156.5261 H   0  0  0  0  0  0  0  0  0  0  0  0
  149.6631  143.3132  157.7350 H   0  0  0  0  0  0  0  0  0  0  0  0
  152.1037  139.1618  159.4393 H   0  0  0  0  0  0  0  0  0  0  0  0
  150.4865  139.6695  159.0482 H   0  0  0  0  0  0  0  0  0  0  0  0
  149.9023  138.8928  157.1336 H   0  0  0  0  0  0  0  0  0  0  0  0
  151.7955  138.9356  154.8591 H   0  0  0  0  0  0  0  0  0  0  0  0
  150.6903  137.6090  155.0876 H   0  0  0  0  0  0  0  0  0  0  0  0
  150.1290  139.5874  153.4056 H   0  0  0  0  0  0  0  0  0  0  0  0
  149.0988  140.7503  156.0327 H   0  0  0  0  0  0  0  0  0  0  0  0
  150.3216  141.4657  155.0120 H   0  0  0  0  0  0  0  0  0  0  0  0
  148.1122  142.5368  154.6475 H   0  0  0  0  0  0  0  0  0  0  0  0
  148.7174  141.7961  153.1856 H   0  0  0  0  0  0  0  0  0  0  0  0
  146.6102  140.6209  155.0630 H   0  0  0  0  0  0  0  0  0  0  0  0
  146.3253  141.2495  153.4570 H   0  0  0  0  0  0  0  0  0  0  0  0
  146.4525  138.7502  153.4558 H   0  0  0  0  0  0  0  0  0  0  0  0
  147.6973  139.4557  152.4530 H   0  0  0  0  0  0  0  0  0  0  0  0
  148.6548  137.6562  153.8433 H   0  0  0  0  0  0  0  0  0  0  0  0
  148.0557  138.4068  155.3019 H   0  0  0  0  0  0  0  0  0  0  0  0
  1  2  1  0  0  0  0
  1 20  1  0  0  0  0
  1 21  1  0  0  0  0
  1 22  1  0  0  0  0
  2  8  1  0  0  0  0
  2  3  2  0  0  0  0
  3  4  1  0  0  0  0
  4  5  1  0  0  0  0
  4  6  1  0  0  0  0
  5 23  1  0  0  0  0
  5 24  1  0  0  0  0
  5 25  1  0  0  0  0
  6  7  1  0  0  0  0
  6  8  2  0  0  0  0
  7 26  1  0  0  0  0
  7 27  1  0  0  0  0
  7 28  1  0  0  0  0
  8  9  1  0  0  0  0
  9 10  1  0  0  0  0
  9 29  1  0  0  0  0
  9 30  1  0  0  0  0
 10 11  2  0  0  0  0
 10 12  1  0  0  0  0
 12 13  1  0  0  0  0
 12 31  1  0  0  0  0
 13 14  1  0  0  0  0
 13 32  1  0  0  0  0
 13 33  1  0  0  0  0
 14 19  1  0  0  0  0
 14 15  1  0  0  0  0
 14 34  1  0  0  0  0
 15 16  1  0  0  0  0
 15 35  1  0  0  0  0
 15 36  1  0  0  0  0
 16 17  1  0  0  0  0
 16 37  1  0  0  0  0
 16 38  1  0  0  0  0
 17 18  1  0  0  0  0
 17 39  1  0  0  0  0
 17 40  1  0  0  0  0
 18 19  1  0  0  0  0
 18 41  1  0  0  0  0
 18 42  1  0  0  0  0
 19 43  1  0  0  0  0
 19 44  1  0  0  0  0
M  END
> <s_m_source_file>
AV-unprocessed.smi

> <i_m_source_file_index>
404

> <i_lp_mmshare_version>
43012

> <i_f3d_flags>
0

> <s_epik_input>
W0NIM11jMW5uKFtDSDNdKWMoW0NIM10pYzFbQ0gyXUMoPU8pW05IXVtDSDJdW0NIXTJbQ0gyXVtDSDJdW0NIMl1bQ0gyXVtDSDJdMg==

> <s_epik_cmdline>
J2VwaWtfcHl0aG9uJywgJy1waCcsICc3LjAnLCAnLXRuJywgJzgnLCAnLW1hJywgJzIwMCcsICctbWV0YWxfYmluZGluZycsICctaW1hZScsICc8aW5maWxlLm1hZT4nLCAnLW9tYWUnLCAnPG91dGZpbGUubWFlPic=

> <r_lp_tautomer_probability>
1

> <r_epik_Ionization_Penalty>
0.00317479

> <r_epik_Ionization_Penalty_Charging>
0

> <r_epik_Ionization_Penalty_Neutral>
0.00317479

> <r_epik_State_Penalty>
0.00223767

> <r_epik_Charging_Adjusted_Penalty>
0.00223767

> <i_epik_Tot_Q>
0

> <i_epik_Tot_abs_Q>
0

> <r_epik_Metal_State_Penalty>
-0

> <b_epik_Metal_Only>
0

> <s_lp_Force_Field>
OPLS_2005

> <r_lp_Energy>
5.4513

> <b_lp_Chiralities_Consistent>
1

> <s_lp_Variant>
AV-unprocessed.smi:404-1

> <Gold.Version>
5.8.1

> <Gold.Id.Protein>
6NUR|6NUR_protein|mol2

> <Gold.PLP.Fitness>
43.2507

> <Gold.PLP.PLP>
-41.1383

> <Gold.PLP.part.hbond>
-0.9581

> <Gold.PLP.part.metal>
0.0000

> <Gold.PLP.part.buried>
-2.4585

> <Gold.PLP.part.nonpolar>
-38.3396

> <Gold.PLP.part.repulsive>
0.0236

> <Gold.PLP.ligand.clash>
0.0000

> <Gold.PLP.ligand.torsion>
0.4489

> <Gold.PLP.Chemscore.Hbond>
1.0000

> <Gold.PLP.Chemscore.CHOScore>
0.0000

> <Gold.PLP.Chemscore.Metal>
0.0000

> <Gold.Chemscore.Hbonds>
donor molecule, donor type, donor heavy atom, donor atom, acceptor molecule, acceptor atom, score
      P1  H  7997  8009       L1    11  0.98

> <Gold.PLP.Chemscore.Internal.Correction>
0.0102

> <Gold.Rescore>
     Score         DG    S(hbond)    S(metal)    S(lipo)     H(rot)  DE(clash)    DE(int)     intcor
     17.51     -18.10       0.97        0.00     110.37       1.38       0.02       0.57       ----

> <Gold.Chemscore.Fitness>
17.5083

> <Gold.Chemscore.DG>
-18.0976

> <Gold.Chemscore.ZeroCoef>
-5.4800

> <Gold.Chemscore.Hbond>
0.9666

> <Gold.Chemscore.Metal>
0.0000

> <Gold.Chemscore.Lipo>
110.3723

> <Gold.Chemscore.Internal_Hbond>
0.0000

> <Gold.Chemscore.DEClash>
0.0187

> <Gold.Chemscore.DEInternal>
0.5705

> <Gold.Chemscore.Rot>
1.3768

> <Gold.Chemscore.Internal.Correction>
   9.000000E+99

> <Gold.Chemscore.Hbonds>
donor molecule, donor type, donor heavy atom, donor atom, acceptor molecule, acceptor atom, score
      P1  H  7997  8009       L1    11  0.92

> <Gold.Chemscore.Hbond.Weighted>
-3.2285

> <Gold.Chemscore.Metal.Weighted>
-0.0000

> <Gold.Chemscore.Lipo.Weighted>
-12.9136

> <Gold.Chemscore.Internal_Hbond.Weighted>
0.0000

> <Gold.Chemscore.DEClash.Weighted>
0.0187

> <Gold.Chemscore.DEInternal.Weighted>
0.5705

> <Gold.Chemscore.Rot.Weighted>
3.5245

> <Gold.Chemscore.Internal.Correction.Weighted>
   9.000000E+99

> <Gold.Protein.RotatedTorsions>
[ 6907 6896 6895 6894 ] final -163.29 input  -60.11 | X-H torsion
[ 7974 7965 7964 7962 ] final  154.91 input  175.53 | X-H torsion
[ 8008 7997 7996 7995 ] final -168.41 input   59.86 | X-H torsion
[ 10167 10162 10161 10158 ] final  112.33 input  -65.29 | X-H torsion
[ 10718 10713 10712 10709 ] final  -97.56 input   66.30 | X-H torsion
[ 10763 10752 10751 10750 ] final  162.81 input  -60.55 | X-H torsion
[ 11005 11000 10999 10996 ] final -160.20 input  -57.11 | X-H torsion

> <Gold.Protein.ActiveResidues>
 VAL166  LYS551  ARG553  GLY616  TRP617  ASP618  TYR619  PRO620  LYS621  CYS622 
 ASP623  PHE694  ASN695  SER759  ASP760  ASP761  ALA762  ILE779  LEU786  VAL792 
 PHE793  MET794  SER795  GLU796  ALA797  LYS798  CYS799  TRP800  GLU811  SER814 

> <Gold.Protein.RotatedAtoms>
  151.3937  133.3780  159.2723 H   0  0  0  0  0  0  0  0  0  0  0  0  # atno 6907 bound_to 6896
  150.9486  134.8889  159.7668 H   0  0  0  0  0  0  0  0  0  0  0  0  # atno 6908 bound_to 6896
  152.5102  134.3891  159.9430 H   0  0  0  0  0  0  0  0  0  0  0  0  # atno 6909 bound_to 6896
  144.8058  139.6997  143.6162 H   0  0  0  0  0  0  0  0  0  0  0  0  # atno 7974 bound_to 7965
  155.8910  140.1025  157.1419 H   0  0  0  0  0  0  0  0  0  0  0  0  # atno 8008 bound_to 7997
  154.4015  140.1311  156.4379 H   0  0  0  0  0  0  0  0  0  0  0  0  # atno 8009 bound_to 7997
  155.7534  140.3464  155.5164 H   0  0  0  0  0  0  0  0  0  0  0  0  # atno 8010 bound_to 7997
  139.6544  144.7129  151.1986 H   0  0  0  0  0  0  0  0  0  0  0  0  # atno 10167 bound_to 10162
  156.0086  130.5199  150.6392 H   0  0  0  0  0  0  0  0  0  0  0  0  # atno 10718 bound_to 10713
  154.2840  135.2762  155.2684 H   0  0  0  0  0  0  0  0  0  0  0  0  # atno 10763 bound_to 10752
  154.5193  135.5761  153.6671 H   0  0  0  0  0  0  0  0  0  0  0  0  # atno 10764 bound_to 10752
  152.9924  135.6200  154.3001 H   0  0  0  0  0  0  0  0  0  0  0  0  # atno 10765 bound_to 10752
  140.6341  134.4620  157.5231 H   0  0  0  0  0  0  0  0  0  0  0  0  # atno 11005 bound_to 11000
  146.2349  139.5886  142.9530 LP  0  0  0  0  0  0  0  0  0  0  0  0  # atno 17320 bound_to 7965
  145.5441  141.0418  143.2314 LP  0  0  0  0  0  0  0  0  0  0  0  0  # atno 17321 bound_to 7965
  140.7552  143.6097  150.8618 LP  0  0  0  0  0  0  0  0  0  0  0  0  # atno 17342 bound_to 10162
  139.9748  143.6016  152.2962 LP  0  0  0  0  0  0  0  0  0  0  0  0  # atno 17343 bound_to 10162
  157.4175  131.0832  151.1162 LP  0  0  0  0  0  0  0  0  0  0  0  0  # atno 17370 bound_to 10713
  157.1774  130.6294  149.5660 LP  0  0  0  0  0  0  0  0  0  0  0  0  # atno 17371 bound_to 10713
  139.9105  134.8356  156.1547 LP  0  0  0  0  0  0  0  0  0  0  0  0  # atno 17394 bound_to 11000
  141.0654  133.6821  156.2034 LP  0  0  0  0  0  0  0  0  0  0  0  0  # atno 17395 bound_to 11000

$$$$
