AV-unprocessed.smi:551|AV-procd|sdf|2900|dock5
  -GOLD-   2262023393D 1   1.00000     0.00000
 Structure written by MMmdl.
 38 39  0  0  0  0  0  0  0  0  1 V2000
  152.5204  137.5725  159.4435 C   0  0  0  0  0  0  0  0  0  0  0  0
  151.9368  138.5382  158.3974 C   0  0  2  0  0  0  0  0  0  0  0  0
  152.4536  138.2373  156.9717 C   0  0  0  0  0  0  0  0  0  0  0  0
  151.5053  138.6218  155.9425 N   0  0  0  0  0  0  0  0  0  0  0  0
  150.9658  137.8082  154.9547 C   0  0  0  0  0  0  0  0  0  0  0  0
  150.1217  138.6006  154.2103 C   0  0  0  0  0  0  0  0  0  0  0  0
  150.1241  139.8967  154.7210 N   0  0  0  0  0  0  0  0  0  0  0  0
  150.9640  139.8317  155.7461 C   0  0  0  0  0  0  0  0  0  0  0  0
  152.1323  139.9364  158.7919 N   0  0  0  0  0  0  0  0  0  0  0  0
  153.2965  140.5972  158.9135 C   0  0  0  0  0  0  0  0  0  0  0  0
  154.3968  140.0817  158.7151 O   0  0  0  0  0  0  0  0  0  0  0  0
  153.1989  142.0752  159.3130 C   0  0  0  0  0  0  0  0  0  0  0  0
  152.8697  142.2161  160.8146 C   0  0  0  0  0  0  0  0  0  0  0  0
  152.7548  143.6931  161.2259 C   0  0  0  0  0  0  0  0  0  0  0  0
  151.7146  144.4311  160.3685 C   0  0  0  0  0  0  0  0  0  0  0  0
  152.0287  144.2914  158.8708 C   0  0  0  0  0  0  0  0  0  0  0  0
  152.1441  142.8140  158.4612 C   0  0  0  0  0  0  0  0  0  0  0  0
  152.2619  136.5404  159.2063 H   0  0  0  0  0  0  0  0  0  0  0  0
  152.1304  137.7874  160.4388 H   0  0  0  0  0  0  0  0  0  0  0  0
  153.6078  137.6343  159.4909 H   0  0  0  0  0  0  0  0  0  0  0  0
  150.8567  138.3858  158.3940 H   0  0  0  0  0  0  0  0  0  0  0  0
  153.4023  138.7388  156.7790 H   0  0  0  0  0  0  0  0  0  0  0  0
  152.6486  137.1692  156.8658 H   0  0  0  0  0  0  0  0  0  0  0  0
  151.2242  136.7630  154.8639 H   0  0  0  0  0  0  0  0  0  0  0  0
  149.5180  138.3396  153.3537 H   0  0  0  0  0  0  0  0  0  0  0  0
  151.1934  140.6855  156.3667 H   0  0  0  0  0  0  0  0  0  0  0  0
  151.2900  140.4617  158.9761 H   0  0  0  0  0  0  0  0  0  0  0  0
  154.1679  142.5444  159.1322 H   0  0  0  0  0  0  0  0  0  0  0  0
  151.9328  141.7055  161.0442 H   0  0  0  0  0  0  0  0  0  0  0  0
  153.6397  141.7298  161.4155 H   0  0  0  0  0  0  0  0  0  0  0  0
  152.4861  143.7656  162.2802 H   0  0  0  0  0  0  0  0  0  0  0  0
  153.7260  144.1782  161.1204 H   0  0  0  0  0  0  0  0  0  0  0  0
  150.7217  144.0284  160.5723 H   0  0  0  0  0  0  0  0  0  0  0  0
  151.6834  145.4853  160.6452 H   0  0  0  0  0  0  0  0  0  0  0  0
  151.2526  144.7809  158.2817 H   0  0  0  0  0  0  0  0  0  0  0  0
  152.9616  144.8080  158.6427 H   0  0  0  0  0  0  0  0  0  0  0  0
  152.4025  142.7485  157.4035 H   0  0  0  0  0  0  0  0  0  0  0  0
  151.1692  142.3360  158.5705 H   0  0  0  0  0  0  0  0  0  0  0  0
  1  2  1  0  0  0  0
  1 18  1  0  0  0  0
  1 19  1  0  0  0  0
  1 20  1  0  0  0  0
  2  3  1  0  0  0  0
  2  9  1  0  0  0  0
  2 21  1  0  0  0  0
  3  4  1  0  0  0  0
  3 22  1  0  0  0  0
  3 23  1  0  0  0  0
  4  8  1  0  0  0  0
  4  5  1  0  0  0  0
  5  6  2  0  0  0  0
  5 24  1  0  0  0  0
  6  7  1  0  0  0  0
  6 25  1  0  0  0  0
  7  8  2  0  0  0  0
  8 26  1  0  0  0  0
  9 10  1  0  0  0  0
  9 27  1  0  0  0  0
 10 11  2  0  0  0  0
 10 12  1  0  0  0  0
 12 17  1  0  0  0  0
 12 13  1  0  0  0  0
 12 28  1  0  0  0  0
 13 14  1  0  0  0  0
 13 29  1  0  0  0  0
 13 30  1  0  0  0  0
 14 15  1  0  0  0  0
 14 31  1  0  0  0  0
 14 32  1  0  0  0  0
 15 16  1  0  0  0  0
 15 33  1  0  0  0  0
 15 34  1  0  0  0  0
 16 17  1  0  0  0  0
 16 35  1  0  0  0  0
 16 36  1  0  0  0  0
 17 37  1  0  0  0  0
 17 38  1  0  0  0  0
M  END
> <s_m_source_file>
AV-unprocessed.smi

> <i_m_source_file_index>
551

> <i_lp_mmshare_version>
43012

> <i_f3d_flags>
0

> <s_epik_input>
W2NIXTFuW2NIXVtjSF1uMVtDSDJdW0NAQEhdKFtDSDNdKVtOSF1DKD1PKVtDSF0yW0NIMl1bQ0gyXVtDSDJdW0NIMl1bQ0gyXTI=

> <s_epik_cmdline>
J2VwaWtfcHl0aG9uJywgJy1waCcsICc3LjAnLCAnLXRuJywgJzgnLCAnLW1hJywgJzIwMCcsICctbWV0YWxfYmluZGluZycsICctaW1hZScsICc8aW5maWxlLm1hZT4nLCAnLW9tYWUnLCAnPG91dGZpbGUubWFlPic=

> <r_lp_tautomer_probability>
1

> <r_epik_Ionization_Penalty>
0.642614

> <r_epik_Ionization_Penalty_Charging>
0.642614

> <r_epik_Ionization_Penalty_Neutral>
3.29891e-08

> <r_epik_State_Penalty>
0.660429

> <r_epik_Charging_Adjusted_Penalty>
1.30304

> <i_epik_Tot_Q>
0

> <i_epik_Tot_abs_Q>
0

> <r_epik_Metal_State_Penalty>
0.31224

> <b_epik_Metal_Only>
0

> <s_lp_Force_Field>
OPLS_2005

> <r_lp_Energy>
12.8339

> <b_lp_Chiralities_Consistent>
1

> <s_lp_Variant>
AV-unprocessed.smi:551-3

> <Gold.Version>
5.8.1

> <Gold.Id.Protein>
6NUR|6NUR_protein|mol2

> <Gold.PLP.Fitness>
48.5001

> <Gold.PLP.PLP>
-38.4407

> <Gold.PLP.part.hbond>
-2.0000

> <Gold.PLP.part.metal>
0.0000

> <Gold.PLP.part.buried>
-5.0602

> <Gold.PLP.part.nonpolar>
-31.5103

> <Gold.PLP.part.repulsive>
0.2371

> <Gold.PLP.ligand.clash>
0.0000

> <Gold.PLP.ligand.torsion>
0.6415

> <Gold.PLP.Chemscore.Hbond>
2.0000

> <Gold.PLP.Chemscore.CHOScore>
1.7619

> <Gold.PLP.Chemscore.Metal>
0.0000

> <Gold.Chemscore.Hbonds>
donor molecule, donor type, donor heavy atom, donor atom, acceptor molecule, acceptor atom, score
      P1  H  7989  7998       L1     7  0.39
      P1  H  7997  8008       L1    11  0.93
      L1  C     6    25       P1  7948  0.81
      L1  C     6    25       P1  7957  0.32

> <Gold.PLP.Chemscore.Internal.Correction>
0.0567

> <Gold.Rescore>
     Score         DG    S(hbond)    S(metal)    S(lipo)     H(rot)  DE(clash)    DE(int)     intcor
     17.46     -18.26       1.72        0.00      97.95       1.73       0.02       0.78       ----

> <Gold.Chemscore.Fitness>
17.4592

> <Gold.Chemscore.DG>
-18.2617

> <Gold.Chemscore.ZeroCoef>
-5.4800

> <Gold.Chemscore.Hbond>
1.7230

> <Gold.Chemscore.Metal>
0.0000

> <Gold.Chemscore.Lipo>
97.9532

> <Gold.Chemscore.Internal_Hbond>
0.0000

> <Gold.Chemscore.DEClash>
0.0202

> <Gold.Chemscore.DEInternal>
0.7822

> <Gold.Chemscore.Rot>
1.7319

> <Gold.Chemscore.Internal.Correction>
   9.000000E+99

> <Gold.Chemscore.Hbonds>
donor molecule, donor type, donor heavy atom, donor atom, acceptor molecule, acceptor atom, score
      P1  H  7989  7998       L1     7  0.01
      P1  H  7997  8008       L1    11  0.79

> <Gold.Chemscore.Hbond.Weighted>
-5.7549

> <Gold.Chemscore.Metal.Weighted>
-0.0000

> <Gold.Chemscore.Lipo.Weighted>
-11.4605

> <Gold.Chemscore.Internal_Hbond.Weighted>
0.0000

> <Gold.Chemscore.DEClash.Weighted>
0.0202

> <Gold.Chemscore.DEInternal.Weighted>
0.7822

> <Gold.Chemscore.Rot.Weighted>
4.4338

> <Gold.Chemscore.Internal.Correction.Weighted>
   9.000000E+99

> <Gold.Protein.RotatedTorsions>
[ 6907 6896 6895 6894 ] final   28.77 input  -60.11 | X-H torsion
[ 7974 7965 7964 7962 ] final  -13.43 input  175.53 | X-H torsion
[ 8008 7997 7996 7995 ] final -102.92 input   59.86 | X-H torsion
[ 10167 10162 10161 10158 ] final  127.41 input  -65.29 | X-H torsion
[ 10718 10713 10712 10709 ] final  -71.09 input   66.30 | X-H torsion
[ 10763 10752 10751 10750 ] final  -32.44 input  -60.55 | X-H torsion
[ 11005 11000 10999 10996 ] final  -10.53 input  -57.11 | X-H torsion

> <Gold.Protein.ActiveResidues>
 VAL166  LYS551  ARG553  GLY616  TRP617  ASP618  TYR619  PRO620  LYS621  CYS622 
 ASP623  PHE694  ASN695  SER759  ASP760  ASP761  ALA762  ILE779  LEU786  VAL792 
 PHE793  MET794  SER795  GLU796  ALA797  LYS798  CYS799  TRP800  GLU811  SER814 

> <Gold.Protein.RotatedAtoms>
  152.0219  134.9818  160.0570 H   0  0  0  0  0  0  0  0  0  0  0  0  # atno 6907 bound_to 6896
  152.1329  133.4413  159.4738 H   0  0  0  0  0  0  0  0  0  0  0  0  # atno 6908 bound_to 6896
  150.6858  134.2317  159.4480 H   0  0  0  0  0  0  0  0  0  0  0  0  # atno 6909 bound_to 6896
  146.2114  140.3202  142.8390 H   0  0  0  0  0  0  0  0  0  0  0  0  # atno 7974 bound_to 7965
  154.8635  140.0425  157.1680 H   0  0  0  0  0  0  0  0  0  0  0  0  # atno 8008 bound_to 7997
  154.8814  140.2973  155.5402 H   0  0  0  0  0  0  0  0  0  0  0  0  # atno 8009 bound_to 7997
  156.2999  140.2410  156.3818 H   0  0  0  0  0  0  0  0  0  0  0  0  # atno 8010 bound_to 7997
  139.5580  144.6862  151.4127 H   0  0  0  0  0  0  0  0  0  0  0  0  # atno 10167 bound_to 10162
  156.0378  130.4344  150.2392 H   0  0  0  0  0  0  0  0  0  0  0  0  # atno 10718 bound_to 10713
  153.8138  135.6880  153.4837 H   0  0  0  0  0  0  0  0  0  0  0  0  # atno 10763 bound_to 10752
  153.1612  135.4579  154.9772 H   0  0  0  0  0  0  0  0  0  0  0  0  # atno 10764 bound_to 10752
  154.7956  135.3318  154.7616 H   0  0  0  0  0  0  0  0  0  0  0  0  # atno 10765 bound_to 10752
  140.7457  133.8634  155.9003 H   0  0  0  0  0  0  0  0  0  0  0  0  # atno 11005 bound_to 11000
  144.8925  140.7542  143.5917 LP  0  0  0  0  0  0  0  0  0  0  0  0  # atno 17320 bound_to 7965
  145.3125  139.1814  143.4631 LP  0  0  0  0  0  0  0  0  0  0  0  0  # atno 17321 bound_to 7965
  140.6855  143.7983  150.7181 LP  0  0  0  0  0  0  0  0  0  0  0  0  # atno 17342 bound_to 10162
  140.1449  143.4408  152.2169 LP  0  0  0  0  0  0  0  0  0  0  0  0  # atno 17343 bound_to 10162
  157.0489  131.0057  151.3260 LP  0  0  0  0  0  0  0  0  0  0  0  0  # atno 17370 bound_to 10713
  157.5155  130.7965  149.7751 LP  0  0  0  0  0  0  0  0  0  0  0  0  # atno 17371 bound_to 10713
  140.9797  134.1422  157.4505 LP  0  0  0  0  0  0  0  0  0  0  0  0  # atno 17394 bound_to 11000
  139.8797  135.0006  156.6020 LP  0  0  0  0  0  0  0  0  0  0  0  0  # atno 17395 bound_to 11000

$$$$
