AV-unprocessed.smi:290|AV-procd|sdf|2244|dock3
  -GOLD-   2262022123D 1   1.00000     0.00000
 Structure written by MMmdl.
 59 62  0  0  0  0  0  0  0  0  2 V2000
  146.5877  136.5604  159.4000 C   0  0  0  0  0  0  0  0  0  0  0  0
  147.4786  136.1029  160.5685 C   0  0  1  0  0  0  0  0  0  0  0  0
  147.7152  137.1901  161.4619 O   0  0  0  0  0  0  0  0  0  0  0  0
  147.2552  136.8601  162.7642 C   0  0  0  0  0  0  0  0  0  0  0  0
  147.3735  135.3433  162.8274 C   0  0  0  0  0  0  0  0  0  0  0  0
  146.9582  134.9216  161.4264 C   0  0  1  0  0  0  0  0  0  0  0  0
  145.5414  134.8546  161.3898 O   0  0  0  0  0  0  0  0  0  0  0  0
  147.5275  133.5370  161.0322 C   0  0  0  0  0  0  0  0  0  0  0  0
  147.6667  133.3571  159.5958 N   0  0  0  0  0  0  0  0  0  0  0  0
  148.6351  133.9074  158.7891 C   0  0  0  0  0  0  0  0  0  0  0  0
  148.5589  133.5782  157.5297 N   0  0  0  0  0  0  0  0  0  0  0  0
  147.4478  132.7445  157.4531 C   0  0  0  0  0  0  0  0  0  0  0  0
  146.8007  132.0279  156.4010 C   0  0  0  0  0  0  0  0  0  0  0  0
  147.2158  132.0085  155.1046 N   0  0  0  0  0  0  0  0  0  0  0  0
  148.5008  132.5729  154.7040 C   0  0  0  0  0  0  0  0  0  0  0  0
  148.4628  132.6579  153.1722 C   0  0  0  0  0  0  0  0  0  0  0  0
  147.2605  131.7836  152.7746 C   0  0  2  0  0  0  0  0  0  0  0  0
  146.6558  132.0700  151.4394 N   0  3  2  0  0  0  0  0  0  0  0  0
  146.7232  133.5146  151.0988 C   0  0  0  0  0  0  0  0  0  0  0  0
  145.2791  131.5297  151.2609 C   0  0  0  0  0  0  0  0  0  0  0  0
  144.6486  131.9695  149.9281 C   0  0  0  0  0  0  0  0  0  0  0  0
  143.3385  131.4528  149.8233 O   0  0  0  0  0  0  0  0  0  0  0  0
  146.3047  131.9939  153.9680 C   0  0  2  0  0  0  0  0  0  0  0  0
  145.4904  133.3080  153.8899 C   0  0  0  0  0  0  0  0  0  0  0  0
  145.6853  131.3233  156.7298 N   0  0  0  0  0  0  0  0  0  0  0  0
  145.2420  131.2944  157.9892 C   0  0  0  0  0  0  0  0  0  0  0  0
  145.7535  131.8918  159.0652 N   0  0  0  0  0  0  0  0  0  0  0  0
  146.8646  132.6141  158.7474 C   0  0  0  0  0  0  0  0  0  0  0  0
  147.5936  130.7435  152.7780 H   0  0  0  0  0  0  0  0  0  0  0  0
  145.6330  131.1397  154.0335 H   0  0  0  0  0  0  0  0  0  0  0  0
  146.3871  135.7437  158.7070 H   0  0  0  0  0  0  0  0  0  0  0  0
  147.0737  137.3568  158.8363 H   0  0  0  0  0  0  0  0  0  0  0  0
  145.6312  136.9476  159.7521 H   0  0  0  0  0  0  0  0  0  0  0  0
  148.4598  135.8436  160.1706 H   0  0  0  0  0  0  0  0  0  0  0  0
  147.8394  137.3624  163.5354 H   0  0  0  0  0  0  0  0  0  0  0  0
  146.2146  137.1711  162.8662 H   0  0  0  0  0  0  0  0  0  0  0  0
  148.4144  135.0738  163.0117 H   0  0  0  0  0  0  0  0  0  0  0  0
  146.7685  134.8978  163.6183 H   0  0  0  0  0  0  0  0  0  0  0  0
  145.1968  135.5476  161.9319 H   0  0  0  0  0  0  0  0  0  0  0  0
  148.5048  133.3857  161.4921 H   0  0  0  0  0  0  0  0  0  0  0  0
  146.8860  132.7423  161.4152 H   0  0  0  0  0  0  0  0  0  0  0  0
  149.4108  134.5565  159.1690 H   0  0  0  0  0  0  0  0  0  0  0  0
  148.6684  133.5570  155.1438 H   0  0  0  0  0  0  0  0  0  0  0  0
  149.3006  131.9090  155.0342 H   0  0  0  0  0  0  0  0  0  0  0  0
  148.3028  133.6924  152.8649 H   0  0  0  0  0  0  0  0  0  0  0  0
  149.4009  132.3185  152.7320 H   0  0  0  0  0  0  0  0  0  0  0  0
  146.1306  134.1063  151.7978 H   0  0  0  0  0  0  0  0  0  0  0  0
  146.3504  133.7087  150.0944 H   0  0  0  0  0  0  0  0  0  0  0  0
  147.7453  133.8900  151.1275 H   0  0  0  0  0  0  0  0  0  0  0  0
  145.2653  130.4417  151.2751 H   0  0  0  0  0  0  0  0  0  0  0  0
  144.6545  131.8441  152.0983 H   0  0  0  0  0  0  0  0  0  0  0  0
  144.5892  133.0576  149.8901 H   0  0  0  0  0  0  0  0  0  0  0  0
  145.2363  131.6573  149.0656 H   0  0  0  0  0  0  0  0  0  0  0  0
  142.8179  131.8024  150.5312 H   0  0  0  0  0  0  0  0  0  0  0  0
  144.8138  133.3147  153.0361 H   0  0  0  0  0  0  0  0  0  0  0  0
  146.1352  134.1829  153.8057 H   0  0  0  0  0  0  0  0  0  0  0  0
  144.8740  133.4467  154.7779 H   0  0  0  0  0  0  0  0  0  0  0  0
  144.3526  130.7057  158.1588 H   0  0  0  0  0  0  0  0  0  0  0  0
  147.2310  131.5791  150.7694 H   0  0  0  0  0  0  0  0  0  0  0  0
  1  2  1  0  0  0  0
  1 31  1  0  0  0  0
  1 32  1  0  0  0  0
  1 33  1  0  0  0  0
  2  6  1  0  0  0  0
  2  3  1  0  0  0  0
  2 34  1  0  0  0  0
  3  4  1  0  0  0  0
  4  5  1  0  0  0  0
  4 35  1  0  0  0  0
  4 36  1  0  0  0  0
  5  6  1  0  0  0  0
  5 37  1  0  0  0  0
  5 38  1  0  0  0  0
  6  7  1  0  0  0  0
  6  8  1  0  0  0  0
  7 39  1  0  0  0  0
  8  9  1  0  0  0  0
  8 40  1  0  0  0  0
  8 41  1  0  0  0  0
  9 28  1  0  0  0  0
  9 10  1  0  0  0  0
 10 11  2  0  0  0  0
 10 42  1  0  0  0  0
 11 12  1  0  0  0  0
 12 28  2  0  0  0  0
 12 13  1  0  0  0  0
 13 14  1  0  0  0  0
 13 25  2  0  0  0  0
 14 23  1  0  0  0  0
 14 15  1  0  0  0  0
 15 16  1  0  0  0  0
 15 43  1  0  0  0  0
 15 44  1  0  0  0  0
 16 17  1  0  0  0  0
 16 45  1  0  0  0  0
 16 46  1  0  0  0  0
 17 29  1  0  0  0  0
 17 18  1  0  0  0  0
 17 23  1  0  0  0  0
 18 19  1  0  0  0  0
 18 20  1  0  0  0  0
 18 59  1  0  0  0  0
 19 47  1  0  0  0  0
 19 48  1  0  0  0  0
 19 49  1  0  0  0  0
 20 21  1  0  0  0  0
 20 50  1  0  0  0  0
 20 51  1  0  0  0  0
 21 22  1  0  0  0  0
 21 52  1  0  0  0  0
 21 53  1  0  0  0  0
 22 54  1  0  0  0  0
 23 30  1  0  0  0  0
 23 24  1  0  0  0  0
 24 55  1  0  0  0  0
 24 56  1  0  0  0  0
 24 57  1  0  0  0  0
 25 26  1  0  0  0  0
 26 27  2  0  0  0  0
 26 58  1  0  0  0  0
 27 28  1  0  0  0  0
M  CHG  1  18   1
M  END
> <s_m_source_file>
AV-unprocessed.smi

> <i_m_source_file_index>
290

> <i_lp_mmshare_version>
43012

> <i_f3d_flags>
0

> <s_epik_input>
W0NIMl0xW0NIMl1PW0NAQEhdKFtDSDNdKVtDQEBdMShbT0hdKVtDSDJdbihbY0hdbjIpYyhjMjMpbltjSF1uYzNONFtDSDJdW0NIMl1bQ0BIXShbQ0BIXTRbQ0gzXSlOKFtDSDNdKVtDSDJdW0NIMl1bT0hd

> <s_epik_cmdline>
J2VwaWtfcHl0aG9uJywgJy1waCcsICc3LjAnLCAnLXRuJywgJzgnLCAnLW1hJywgJzIwMCcsICctbWV0YWxfYmluZGluZycsICctaW1hZScsICc8aW5maWxlLm1hZT4nLCAnLW9tYWUnLCAnPG91dGZpbGUubWFlPic=

> <r_lp_tautomer_probability>
1

> <r_epik_Ionization_Penalty>
0.0036983

> <r_epik_Ionization_Penalty_Charging>
0.0032725

> <r_epik_Ionization_Penalty_Neutral>
0.000425798

> <r_epik_State_Penalty>
-0

> <r_epik_Charging_Adjusted_Penalty>
0.0032725

> <i_epik_Tot_Q>
1

> <i_epik_Tot_abs_Q>
1

> <r_epik_Metal_State_Penalty>
-0

> <b_epik_Metal_Only>
0

> <s_lp_Force_Field>
OPLS_2005

> <r_lp_Energy>
62.044

> <b_lp_Chiralities_Consistent>
1

> <s_lp_Variant>
AV-unprocessed.smi:290-30

> <Gold.Version>
5.8.1

> <Gold.Id.Protein>
6NUR|6NUR_protein|mol2

> <Gold.PLP.Fitness>
49.3003

> <Gold.PLP.PLP>
-40.5280

> <Gold.PLP.part.hbond>
-5.0000

> <Gold.PLP.part.metal>
0.0000

> <Gold.PLP.part.buried>
-3.8240

> <Gold.PLP.part.nonpolar>
-30.5785

> <Gold.PLP.part.repulsive>
0.1821

> <Gold.PLP.ligand.clash>
0.0000

> <Gold.PLP.ligand.torsion>
1.3596

> <Gold.PLP.Chemscore.Hbond>
3.7120

> <Gold.PLP.Chemscore.CHOScore>
0.0000

> <Gold.PLP.Chemscore.Metal>
0.0000

> <Gold.Chemscore.Hbonds>
donor molecule, donor type, donor heavy atom, donor atom, acceptor molecule, acceptor atom, score
      L1  H    18    59       P1 10747  0.99
      P1  H  6931  6943       L1     3  0.95
      P1  H  6934  6947       L1     3  0.77
      P1  H 10785 10796       L1    22  1.00

> <Gold.PLP.Chemscore.Internal.Correction>
0.3555

> <Gold.Rescore>
     Score         DG    S(hbond)    S(metal)    S(lipo)     H(rot)  DE(clash)    DE(int)     intcor
     16.08     -18.65       3.28        0.00      92.23       3.35       0.25       2.32       ----

> <Gold.Chemscore.Fitness>
16.0832

> <Gold.Chemscore.DG>
-18.6502

> <Gold.Chemscore.ZeroCoef>
-5.4800

> <Gold.Chemscore.Hbond>
3.2813

> <Gold.Chemscore.Metal>
0.0000

> <Gold.Chemscore.Lipo>
92.2329

> <Gold.Chemscore.Internal_Hbond>
0.0000

> <Gold.Chemscore.DEClash>
0.2451

> <Gold.Chemscore.DEInternal>
2.3219

> <Gold.Chemscore.Rot>
3.3518

> <Gold.Chemscore.Internal.Correction>
   9.000000E+99

> <Gold.Chemscore.Hbonds>
donor molecule, donor type, donor heavy atom, donor atom, acceptor molecule, acceptor atom, score
      L1  H    18    59       P1 10747  0.92
      P1  H  6931  6943       L1     3  0.20
      P1  H  6934  6947       L1     3  0.61
      P1  H 10785 10796       L1    22  0.85

> <Gold.Chemscore.Hbond.Weighted>
-10.9595

> <Gold.Chemscore.Metal.Weighted>
-0.0000

> <Gold.Chemscore.Lipo.Weighted>
-10.7912

> <Gold.Chemscore.Internal_Hbond.Weighted>
0.0000

> <Gold.Chemscore.DEClash.Weighted>
0.2451

> <Gold.Chemscore.DEInternal.Weighted>
2.3219

> <Gold.Chemscore.Rot.Weighted>
8.5806

> <Gold.Chemscore.Internal.Correction.Weighted>
   9.000000E+99

> <Gold.Protein.RotatedTorsions>
[ 6907 6896 6895 6894 ] final -130.62 input  -60.11 | X-H torsion
[ 7974 7965 7964 7962 ] final  154.66 input  175.53 | X-H torsion
[ 8008 7997 7996 7995 ] final  -48.37 input   59.86 | X-H torsion
[ 10167 10162 10161 10158 ] final   26.43 input  -65.29 | X-H torsion
[ 10718 10713 10712 10709 ] final    5.28 input   66.30 | X-H torsion
[ 10763 10752 10751 10750 ] final   91.78 input  -60.55 | X-H torsion
[ 11005 11000 10999 10996 ] final  124.66 input  -57.11 | X-H torsion

> <Gold.Protein.ActiveResidues>
 VAL166  LYS551  ARG553  GLY616  TRP617  ASP618  TYR619  PRO620  LYS621  CYS622 
 ASP623  PHE694  ASN695  SER759  ASP760  ASP761  ALA762  ILE779  LEU786  VAL792 
 PHE793  MET794  SER795  GLU796  ALA797  LYS798  CYS799  TRP800  GLU811  SER814 

> <Gold.Protein.RotatedAtoms>
  150.9418  133.6648  159.2788 H   0  0  0  0  0  0  0  0  0  0  0  0  # atno 6907 bound_to 6896
  151.4034  135.0973  159.9572 H   0  0  0  0  0  0  0  0  0  0  0  0  # atno 6908 bound_to 6896
  152.5073  133.8907  159.7447 H   0  0  0  0  0  0  0  0  0  0  0  0  # atno 6909 bound_to 6896
  144.8074  139.6964  143.6156 H   0  0  0  0  0  0  0  0  0  0  0  0  # atno 7974 bound_to 7965
  154.4028  140.1323  156.4327 H   0  0  0  0  0  0  0  0  0  0  0  0  # atno 8008 bound_to 7997
  155.7535  140.3487  155.5142 H   0  0  0  0  0  0  0  0  0  0  0  0  # atno 8009 bound_to 7997
  155.8927  140.1006  157.1397 H   0  0  0  0  0  0  0  0  0  0  0  0  # atno 8010 bound_to 7997
  140.5023  144.0294  150.6338 H   0  0  0  0  0  0  0  0  0  0  0  0  # atno 10167 bound_to 10162
  156.9051  130.5736  149.5647 H   0  0  0  0  0  0  0  0  0  0  0  0  # atno 10718 bound_to 10713
  153.2119  135.4385  155.0390 H   0  0  0  0  0  0  0  0  0  0  0  0  # atno 10763 bound_to 10752
  154.8205  135.3335  154.7055 H   0  0  0  0  0  0  0  0  0  0  0  0  # atno 10764 bound_to 10752
  153.7493  135.6999  153.5005 H   0  0  0  0  0  0  0  0  0  0  0  0  # atno 10765 bound_to 10752
  139.9369  134.9639  156.8443 H   0  0  0  0  0  0  0  0  0  0  0  0  # atno 11005 bound_to 11000
  146.2368  139.5920  142.9518 LP  0  0  0  0  0  0  0  0  0  0  0  0  # atno 17320 bound_to 7965
  145.5405  141.0421  143.2333 LP  0  0  0  0  0  0  0  0  0  0  0  0  # atno 17321 bound_to 7965
  140.3594  143.2917  152.0400 LP  0  0  0  0  0  0  0  0  0  0  0  0  # atno 17342 bound_to 10162
  139.4875  144.6314  151.7062 LP  0  0  0  0  0  0  0  0  0  0  0  0  # atno 17343 bound_to 10162
  156.0563  130.5624  150.9098 LP  0  0  0  0  0  0  0  0  0  0  0  0  # atno 17370 bound_to 10713
  157.6002  131.0941  150.8973 LP  0  0  0  0  0  0  0  0  0  0  0  0  # atno 17371 bound_to 10713
  140.6052  134.0134  155.7553 LP  0  0  0  0  0  0  0  0  0  0  0  0  # atno 17394 bound_to 11000
  141.0987  133.9802  157.3116 LP  0  0  0  0  0  0  0  0  0  0  0  0  # atno 17395 bound_to 11000

$$$$
