AV-unprocessed.smi:2752|AV-procd|sdf|10608|dock2
  -GOLD-   2272015 63D 1   1.00000     0.00000
 Structure written by MMmdl.
 34 35  0  0  0  0  0  0  0  0  1 V2000
  149.2445  138.8917  154.2106 C   0  0  0  0  0  0  0  0  0  0  0  0
  149.9682  140.1072  154.1030 O   0  0  0  0  0  0  0  0  0  0  0  0
  149.2021  141.2600  154.4255 C   0  0  1  0  0  0  0  0  0  0  0  0
  147.9746  141.4093  153.5159 C   0  0  0  0  0  0  0  0  0  0  0  0
  146.9311  142.0910  154.3930 C   0  0  0  0  0  0  0  0  0  0  0  0
  147.1406  141.4597  155.7680 C   0  0  0  0  0  0  0  0  0  0  0  0
  148.6472  141.1451  155.8621 C   0  0  2  0  0  0  0  0  0  0  0  0
  149.3283  142.0820  156.7524 N   0  0  0  0  0  0  0  0  0  0  0  0
  150.0226  141.7402  157.8470 C   0  0  0  0  0  0  0  0  0  0  0  0
  150.1554  140.5777  158.2307 O   0  0  0  0  0  0  0  0  0  0  0  0
  150.5399  142.8241  158.4516 N   0  0  0  0  0  0  0  0  0  0  0  0
  151.3154  142.8808  159.6401 C   0  0  0  0  0  0  0  0  0  0  0  0
  152.2619  141.8411  159.7868 C   0  0  0  0  0  0  0  0  0  0  0  0
  153.0833  141.8078  160.9307 C   0  0  0  0  0  0  0  0  0  0  0  0
  152.9360  142.8176  161.8978 C   0  0  0  0  0  0  0  0  0  0  0  0
  153.7030  142.8272  163.0138 F   0  0  0  0  0  0  0  0  0  0  0  0
  151.9709  143.8171  161.6761 C   0  0  0  0  0  0  0  0  0  0  0  0
  151.1825  143.8497  160.5806 N   0  0  0  0  0  0  0  0  0  0  0  0
  149.8908  138.0585  153.9356 H   0  0  0  0  0  0  0  0  0  0  0  0
  148.3854  138.8843  153.5389 H   0  0  0  0  0  0  0  0  0  0  0  0
  148.8946  138.7196  155.2289 H   0  0  0  0  0  0  0  0  0  0  0  0
  149.8198  142.1569  154.3409 H   0  0  0  0  0  0  0  0  0  0  0  0
  148.1898  141.9710  152.6066 H   0  0  0  0  0  0  0  0  0  0  0  0
  147.6082  140.4248  153.2207 H   0  0  0  0  0  0  0  0  0  0  0  0
  147.1335  143.1616  154.4432 H   0  0  0  0  0  0  0  0  0  0  0  0
  145.9153  141.9583  154.0202 H   0  0  0  0  0  0  0  0  0  0  0  0
  146.7750  142.0991  156.5726 H   0  0  0  0  0  0  0  0  0  0  0  0
  146.5777  140.5269  155.8221 H   0  0  0  0  0  0  0  0  0  0  0  0
  148.7803  140.1274  156.2348 H   0  0  0  0  0  0  0  0  0  0  0  0
  149.2706  143.0600  156.5102 H   0  0  0  0  0  0  0  0  0  0  0  0
  150.3524  143.7133  158.0129 H   0  0  0  0  0  0  0  0  0  0  0  0
  152.3611  141.0739  159.0327 H   0  0  0  0  0  0  0  0  0  0  0  0
  153.8123  141.0220  161.0620 H   0  0  0  0  0  0  0  0  0  0  0  0
  151.8273  144.6106  162.3945 H   0  0  0  0  0  0  0  0  0  0  0  0
  1  2  1  0  0  0  0
  1 19  1  0  0  0  0
  1 20  1  0  0  0  0
  1 21  1  0  0  0  0
  2  3  1  0  0  0  0
  3  7  1  0  0  0  0
  3  4  1  0  0  0  0
  3 22  1  0  0  0  0
  4  5  1  0  0  0  0
  4 23  1  0  0  0  0
  4 24  1  0  0  0  0
  5  6  1  0  0  0  0
  5 25  1  0  0  0  0
  5 26  1  0  0  0  0
  6  7  1  0  0  0  0
  6 27  1  0  0  0  0
  6 28  1  0  0  0  0
  7  8  1  0  0  0  0
  7 29  1  0  0  0  0
  8  9  1  0  0  0  0
  8 30  1  0  0  0  0
  9 10  2  0  0  0  0
  9 11  1  0  0  0  0
 11 12  1  0  0  0  0
 11 31  1  0  0  0  0
 12 18  1  0  0  0  0
 12 13  2  0  0  0  0
 13 14  1  0  0  0  0
 13 32  1  0  0  0  0
 14 15  2  0  0  0  0
 14 33  1  0  0  0  0
 15 16  1  0  0  0  0
 15 17  1  0  0  0  0
 17 18  2  0  0  0  0
 17 34  1  0  0  0  0
M  END
> <s_m_source_file>
AV-unprocessed.smi

> <i_m_source_file_index>
2752

> <i_lp_mmshare_version>
43012

> <i_f3d_flags>
0

> <s_epik_input>
W0NIM11PW0NAQEhdMVtDSDJdW0NIMl1bQ0gyXVtDQEhdMVtOSF1DKD1PKVtOSF1jMltjSF1bY0hdYyhGKVtjSF1uMg==

> <s_epik_cmdline>
J2VwaWtfcHl0aG9uJywgJy1waCcsICc3LjAnLCAnLXRuJywgJzgnLCAnLW1hJywgJzIwMCcsICctbWV0YWxfYmluZGluZycsICctaW1hZScsICc8aW5maWxlLm1hZT4nLCAnLW9tYWUnLCAnPG91dGZpbGUubWFlPic=

> <r_lp_tautomer_probability>
1

> <r_epik_Ionization_Penalty>
3.49853e-05

> <r_epik_Ionization_Penalty_Charging>
0

> <r_epik_Ionization_Penalty_Neutral>
3.49853e-05

> <r_epik_State_Penalty>
-0

> <r_epik_Charging_Adjusted_Penalty>
0

> <i_epik_Tot_Q>
0

> <i_epik_Tot_abs_Q>
0

> <r_epik_Metal_State_Penalty>
-0

> <b_epik_Metal_Only>
0

> <s_lp_Force_Field>
OPLS_2005

> <r_lp_Energy>
21.736

> <b_lp_Chiralities_Consistent>
1

> <s_lp_Variant>
AV-unprocessed.smi:2752-4

> <Gold.Version>
5.8.1

> <Gold.Id.Protein>
6NUR|6NUR_protein|mol2

> <Gold.PLP.Fitness>
41.6700

> <Gold.PLP.PLP>
-36.5315

> <Gold.PLP.part.hbond>
-2.2347

> <Gold.PLP.part.metal>
0.0000

> <Gold.PLP.part.buried>
-2.8728

> <Gold.PLP.part.nonpolar>
-31.2384

> <Gold.PLP.part.repulsive>
1.3919

> <Gold.PLP.ligand.clash>
0.0000

> <Gold.PLP.ligand.torsion>
0.3023

> <Gold.PLP.Chemscore.Hbond>
1.9120

> <Gold.PLP.Chemscore.CHOScore>
0.0000

> <Gold.PLP.Chemscore.Metal>
0.0000

> <Gold.Chemscore.Hbonds>
donor molecule, donor type, donor heavy atom, donor atom, acceptor molecule, acceptor atom, score
      L1  H     8    30       P1  8028  1.00
      P1  H  7989  7998       L1     2  0.91

> <Gold.PLP.Chemscore.Internal.Correction>
0.0072

> <Gold.Rescore>
     Score         DG    S(hbond)    S(metal)    S(lipo)     H(rot)  DE(clash)    DE(int)     intcor
     14.75     -16.67       1.49        0.00      81.24       1.28       0.36       1.55       ----

> <Gold.Chemscore.Fitness>
14.7541

> <Gold.Chemscore.DG>
-16.6708

> <Gold.Chemscore.ZeroCoef>
-5.4800

> <Gold.Chemscore.Hbond>
1.4873

> <Gold.Chemscore.Metal>
0.0000

> <Gold.Chemscore.Lipo>
81.2428

> <Gold.Chemscore.Internal_Hbond>
0.0000

> <Gold.Chemscore.DEClash>
0.3642

> <Gold.Chemscore.DEInternal>
1.5524

> <Gold.Chemscore.Rot>
1.2821

> <Gold.Chemscore.Internal.Correction>
   9.000000E+99

> <Gold.Chemscore.Hbonds>
donor molecule, donor type, donor heavy atom, donor atom, acceptor molecule, acceptor atom, score
      L1  H     8    30       P1  8028  1.00
      P1  H  7989  7998       L1     2  0.30

> <Gold.Chemscore.Hbond.Weighted>
-4.9675

> <Gold.Chemscore.Metal.Weighted>
-0.0000

> <Gold.Chemscore.Lipo.Weighted>
-9.5054

> <Gold.Chemscore.Internal_Hbond.Weighted>
0.0000

> <Gold.Chemscore.DEClash.Weighted>
0.3642

> <Gold.Chemscore.DEInternal.Weighted>
1.5524

> <Gold.Chemscore.Rot.Weighted>
3.2822

> <Gold.Chemscore.Internal.Correction.Weighted>
   9.000000E+99

> <Gold.Protein.RotatedTorsions>
[ 6907 6896 6895 6894 ] final  -72.90 input  -60.11 | X-H torsion
[ 7974 7965 7964 7962 ] final -143.33 input  175.53 | X-H torsion
[ 8008 7997 7996 7995 ] final  -95.76 input   59.86 | X-H torsion
[ 10167 10162 10161 10158 ] final  153.06 input  -65.29 | X-H torsion
[ 10718 10713 10712 10709 ] final  -67.32 input   66.30 | X-H torsion
[ 10763 10752 10751 10750 ] final   51.90 input  -60.55 | X-H torsion
[ 11005 11000 10999 10996 ] final   94.03 input  -57.11 | X-H torsion

> <Gold.Protein.ActiveResidues>
 VAL166  LYS551  ARG553  GLY616  TRP617  ASP618  TYR619  PRO620  LYS621  CYS622 
 ASP623  PHE694  ASN695  SER759  ASP760  ASP761  ALA762  ILE779  LEU786  VAL792 
 PHE793  MET794  SER795  GLU796  ALA797  LYS798  CYS799  TRP800  GLU811  SER814 

> <Gold.Protein.RotatedAtoms>
  150.7151  134.5096  159.5600 H   0  0  0  0  0  0  0  0  0  0  0  0  # atno 6907 bound_to 6896
  152.2675  134.7965  160.0429 H   0  0  0  0  0  0  0  0  0  0  0  0  # atno 6908 bound_to 6896
  151.8657  133.3430  159.3755 H   0  0  0  0  0  0  0  0  0  0  0  0  # atno 6909 bound_to 6896
  144.8378  140.5848  143.5473 H   0  0  0  0  0  0  0  0  0  0  0  0  # atno 7974 bound_to 7965
  154.7656  140.0477  157.1009 H   0  0  0  0  0  0  0  0  0  0  0  0  # atno 8008 bound_to 7997
  154.9884  140.3110  155.4897 H   0  0  0  0  0  0  0  0  0  0  0  0  # atno 8009 bound_to 7997
  156.2912  140.2223  156.4987 H   0  0  0  0  0  0  0  0  0  0  0  0  # atno 8010 bound_to 7997
  139.4829  144.5305  151.7730 H   0  0  0  0  0  0  0  0  0  0  0  0  # atno 10167 bound_to 10162
  156.0564  130.4276  150.1837 H   0  0  0  0  0  0  0  0  0  0  0  0  # atno 10718 bound_to 10713
  152.9786  135.5830  154.4491 H   0  0  0  0  0  0  0  0  0  0  0  0  # atno 10763 bound_to 10752
  154.4083  135.2769  155.2055 H   0  0  0  0  0  0  0  0  0  0  0  0  # atno 10764 bound_to 10752
  154.3856  135.6137  153.5869 H   0  0  0  0  0  0  0  0  0  0  0  0  # atno 10765 bound_to 10752
  139.8803  134.8823  156.3805 H   0  0  0  0  0  0  0  0  0  0  0  0  # atno 11005 bound_to 11000
  145.4759  139.1499  143.3789 LP  0  0  0  0  0  0  0  0  0  0  0  0  # atno 17320 bound_to 7965
  146.2674  140.4893  142.8828 LP  0  0  0  0  0  0  0  0  0  0  0  0  # atno 17321 bound_to 7965
  140.4830  144.1421  150.5936 LP  0  0  0  0  0  0  0  0  0  0  0  0  # atno 17342 bound_to 10162
  140.4256  143.2591  151.9660 LP  0  0  0  0  0  0  0  0  0  0  0  0  # atno 17343 bound_to 10162
  156.9913  130.9894  151.3414 LP  0  0  0  0  0  0  0  0  0  0  0  0  # atno 17370 bound_to 10713
  157.5537  130.8199  149.8177 LP  0  0  0  0  0  0  0  0  0  0  0  0  # atno 17371 bound_to 10713
  140.9402  133.7520  156.0136 LP  0  0  0  0  0  0  0  0  0  0  0  0  # atno 17394 bound_to 11000
  140.8228  134.3269  157.5376 LP  0  0  0  0  0  0  0  0  0  0  0  0  # atno 17395 bound_to 11000

$$$$
