AV-unprocessed.smi:232|AV-procd|sdf|1771|dock7
  -GOLD-   2262020313D 1   1.00000     0.00000
 Structure written by MMmdl.
 52 55  0  0  0  0  0  0  0  0  1 V2000
  146.9454  136.8987  162.6257 C   0  0  0  0  0  0  0  0  0  0  0  0
  147.5940  136.1342  161.4643 C   0  0  0  0  0  0  0  0  0  0  0  0
  147.8702  137.0233  160.2359 C   0  0  2  0  0  0  0  0  0  0  0  0
  146.5956  137.2764  159.3988 C   0  0  0  0  0  0  0  0  0  0  0  0
  146.8568  136.6221  158.0382 C   0  0  0  0  0  0  0  0  0  0  0  0
  148.0385  135.6967  158.3194 C   0  0  1  0  0  0  0  0  0  0  0  0
  148.8012  135.2268  157.0657 C   0  0  0  0  0  0  0  0  0  0  0  0
  148.8332  136.3950  159.3287 N   0  0  0  0  0  0  0  0  0  0  0  0
  149.8327  137.1952  158.8805 C   0  0  0  0  0  0  0  0  0  0  0  0
  151.1358  136.8496  159.0606 N   0  0  0  0  0  0  0  0  0  0  0  0
  152.1083  137.6604  158.6327 C   0  0  0  0  0  0  0  0  0  0  0  0
  152.0013  138.8395  158.0155 N   0  0  0  0  0  0  0  0  0  0  0  0
  150.6949  139.1873  157.8352 C   0  0  0  0  0  0  0  0  0  0  0  0
  149.5592  138.4291  158.2337 C   0  0  0  0  0  0  0  0  0  0  0  0
  148.3921  139.0990  157.8891 N   0  0  0  0  0  0  0  0  0  0  0  0
  148.8143  140.1954  157.3198 C   0  0  0  0  0  0  0  0  0  0  0  0
  150.1825  140.3304  157.2479 N   0  0  0  0  0  0  0  0  0  0  0  0
  150.9128  141.4470  156.6741 C   0  0  0  0  0  0  0  0  0  0  0  0
  150.8699  142.6999  157.5708 C   0  0  1  0  0  0  0  0  0  0  0  0
  149.5318  143.1431  157.6905 O   0  0  0  0  0  0  0  0  0  0  0  0
  151.4306  142.4273  158.9787 C   0  0  2  0  0  0  0  0  0  0  0  0
  151.7209  143.6830  159.8038 C   0  0  0  0  0  0  0  0  0  0  0  0
  152.8124  143.2410  160.7669 C   0  0  0  0  0  0  0  0  0  0  0  0
  153.3030  141.9110  160.1896 C   0  0  0  0  0  0  0  0  0  0  0  0
  152.7163  141.8311  158.8986 O   0  0  0  0  0  0  0  0  0  0  0  0
  146.7403  136.2306  163.4622 H   0  0  0  0  0  0  0  0  0  0  0  0
  146.0010  137.3498  162.3206 H   0  0  0  0  0  0  0  0  0  0  0  0
  147.5948  137.6949  162.9911 H   0  0  0  0  0  0  0  0  0  0  0  0
  148.5152  135.6616  161.8068 H   0  0  0  0  0  0  0  0  0  0  0  0
  146.9266  135.3223  161.1737 H   0  0  0  0  0  0  0  0  0  0  0  0
  148.2493  137.9806  160.5981 H   0  0  0  0  0  0  0  0  0  0  0  0
  145.7168  136.8361  159.8717 H   0  0  0  0  0  0  0  0  0  0  0  0
  146.4000  138.3430  159.2838 H   0  0  0  0  0  0  0  0  0  0  0  0
  145.9886  136.0874  157.6525 H   0  0  0  0  0  0  0  0  0  0  0  0
  147.1341  137.3832  157.3075 H   0  0  0  0  0  0  0  0  0  0  0  0
  147.6543  134.8012  158.8095 H   0  0  0  0  0  0  0  0  0  0  0  0
  148.1451  134.6536  156.4105 H   0  0  0  0  0  0  0  0  0  0  0  0
  149.6401  134.5838  157.3334 H   0  0  0  0  0  0  0  0  0  0  0  0
  149.1890  136.0644  156.4846 H   0  0  0  0  0  0  0  0  0  0  0  0
  153.1162  137.3168  158.8127 H   0  0  0  0  0  0  0  0  0  0  0  0
  148.1349  140.9429  156.9363 H   0  0  0  0  0  0  0  0  0  0  0  0
  151.9434  141.1387  156.4925 H   0  0  0  0  0  0  0  0  0  0  0  0
  150.4788  141.6663  155.6980 H   0  0  0  0  0  0  0  0  0  0  0  0
  151.4471  143.4980  157.1017 H   0  0  0  0  0  0  0  0  0  0  0  0
  149.3272  143.6836  156.9428 H   0  0  0  0  0  0  0  0  0  0  0  0
  150.7664  141.7616  159.5339 H   0  0  0  0  0  0  0  0  0  0  0  0
  152.1035  144.4775  159.1615 H   0  0  0  0  0  0  0  0  0  0  0  0
  150.8352  144.0627  160.3138 H   0  0  0  0  0  0  0  0  0  0  0  0
  153.6126  143.9805  160.8106 H   0  0  0  0  0  0  0  0  0  0  0  0
  152.4257  143.1038  161.7773 H   0  0  0  0  0  0  0  0  0  0  0  0
  154.3900  141.8539  160.1319 H   0  0  0  0  0  0  0  0  0  0  0  0
  152.9494  141.0760  160.7960 H   0  0  0  0  0  0  0  0  0  0  0  0
  1  2  1  0  0  0  0
  1 26  1  0  0  0  0
  1 27  1  0  0  0  0
  1 28  1  0  0  0  0
  2  3  1  0  0  0  0
  2 29  1  0  0  0  0
  2 30  1  0  0  0  0
  3  8  1  0  0  0  0
  3  4  1  0  0  0  0
  3 31  1  0  0  0  0
  4  5  1  0  0  0  0
  4 32  1  0  0  0  0
  4 33  1  0  0  0  0
  5  6  1  0  0  0  0
  5 34  1  0  0  0  0
  5 35  1  0  0  0  0
  6  7  1  0  0  0  0
  6  8  1  0  0  0  0
  6 36  1  0  0  0  0
  7 37  1  0  0  0  0
  7 38  1  0  0  0  0
  7 39  1  0  0  0  0
  8  9  1  0  0  0  0
  9 14  1  0  0  0  0
  9 10  2  0  0  0  0
 10 11  1  0  0  0  0
 11 12  2  0  0  0  0
 11 40  1  0  0  0  0
 12 13  1  0  0  0  0
 13 17  1  0  0  0  0
 13 14  2  0  0  0  0
 14 15  1  0  0  0  0
 15 16  2  0  0  0  0
 16 17  1  0  0  0  0
 16 41  1  0  0  0  0
 17 18  1  0  0  0  0
 18 19  1  0  0  0  0
 18 42  1  0  0  0  0
 18 43  1  0  0  0  0
 19 20  1  0  0  0  0
 19 21  1  0  0  0  0
 19 44  1  0  0  0  0
 20 45  1  0  0  0  0
 21 25  1  0  0  0  0
 21 22  1  0  0  0  0
 21 46  1  0  0  0  0
 22 23  1  0  0  0  0
 22 47  1  0  0  0  0
 22 48  1  0  0  0  0
 23 24  1  0  0  0  0
 23 49  1  0  0  0  0
 23 50  1  0  0  0  0
 24 25  1  0  0  0  0
 24 51  1  0  0  0  0
 24 52  1  0  0  0  0
M  END
> <s_m_source_file>
AV-unprocessed.smi

> <i_m_source_file_index>
232

> <i_lp_mmshare_version>
43012

> <i_f3d_flags>
0

> <s_epik_input>
W0NIM11bQ0gyXVtDQEBIXTFbQ0gyXVtDSDJdW0NAQEhdKFtDSDNdKU4xYyhuW2NIXW4yKWMoYzIzKW5bY0hdbjNbQ0gyXVtDQEhdKFtPSF0pW0NAQEhdNFtDSDJdW0NIMl1bQ0gyXU80

> <s_epik_cmdline>
J2VwaWtfcHl0aG9uJywgJy1waCcsICc3LjAnLCAnLXRuJywgJzgnLCAnLW1hJywgJzIwMCcsICctbWV0YWxfYmluZGluZycsICctaW1hZScsICc8aW5maWxlLm1hZT4nLCAnLW9tYWUnLCAnPG91dGZpbGUubWFlPic=

> <r_lp_tautomer_probability>
1

> <r_epik_Ionization_Penalty>
0.00258048

> <r_epik_Ionization_Penalty_Charging>
0

> <r_epik_Ionization_Penalty_Neutral>
0.00258048

> <r_epik_State_Penalty>
0.00168551

> <r_epik_Charging_Adjusted_Penalty>
0.00168551

> <i_epik_Tot_Q>
0

> <i_epik_Tot_abs_Q>
0

> <r_epik_Metal_State_Penalty>
-0

> <b_epik_Metal_Only>
0

> <s_lp_Force_Field>
OPLS_2005

> <r_lp_Energy>
56.5001

> <b_lp_Chiralities_Consistent>
1

> <s_lp_Variant>
AV-unprocessed.smi:232-5

> <Gold.Version>
5.8.1

> <Gold.Id.Protein>
6NUR|6NUR_protein|mol2

> <Gold.PLP.Fitness>
43.3973

> <Gold.PLP.PLP>
-38.5730

> <Gold.PLP.part.hbond>
-2.0904

> <Gold.PLP.part.metal>
0.0000

> <Gold.PLP.part.buried>
-5.6044

> <Gold.PLP.part.nonpolar>
-30.7885

> <Gold.PLP.part.repulsive>
0.0000

> <Gold.PLP.ligand.clash>
0.0000

> <Gold.PLP.ligand.torsion>
0.5719

> <Gold.PLP.Chemscore.Hbond>
1.9600

> <Gold.PLP.Chemscore.CHOScore>
0.0000

> <Gold.PLP.Chemscore.Metal>
0.0000

> <Gold.Chemscore.Hbonds>
donor molecule, donor type, donor heavy atom, donor atom, acceptor molecule, acceptor atom, score
      L1  H    20    45       P1  8028  1.00
      P1  H  6896  6907       L1    10  1.00

> <Gold.PLP.Chemscore.Internal.Correction>
0.0881

> <Gold.Rescore>
     Score         DG    S(hbond)    S(metal)    S(lipo)     H(rot)  DE(clash)    DE(int)     intcor
     12.24     -15.20       1.87        0.00      82.82       2.43       0.04       2.92       ----

> <Gold.Chemscore.Fitness>
12.2389

> <Gold.Chemscore.DG>
-15.1966

> <Gold.Chemscore.ZeroCoef>
-5.4800

> <Gold.Chemscore.Hbond>
1.8673

> <Gold.Chemscore.Metal>
0.0000

> <Gold.Chemscore.Lipo>
82.8242

> <Gold.Chemscore.Internal_Hbond>
0.0000

> <Gold.Chemscore.DEClash>
0.0402

> <Gold.Chemscore.DEInternal>
2.9174

> <Gold.Chemscore.Rot>
2.4260

> <Gold.Chemscore.Internal.Correction>
   9.000000E+99

> <Gold.Chemscore.Hbonds>
donor molecule, donor type, donor heavy atom, donor atom, acceptor molecule, acceptor atom, score
      L1  H    20    45       P1  8028  0.82
      P1  H  6896  6907       L1    10  0.58

> <Gold.Chemscore.Hbond.Weighted>
-6.2368

> <Gold.Chemscore.Metal.Weighted>
-0.0000

> <Gold.Chemscore.Lipo.Weighted>
-9.6904

> <Gold.Chemscore.Internal_Hbond.Weighted>
0.0000

> <Gold.Chemscore.DEClash.Weighted>
0.0402

> <Gold.Chemscore.DEInternal.Weighted>
2.9174

> <Gold.Chemscore.Rot.Weighted>
6.2107

> <Gold.Chemscore.Internal.Correction.Weighted>
   9.000000E+99

> <Gold.Protein.RotatedTorsions>
[ 6907 6896 6895 6894 ] final  -26.56 input  -60.11 | X-H torsion
[ 7974 7965 7964 7962 ] final  -69.39 input  175.53 | X-H torsion
[ 8008 7997 7996 7995 ] final  160.13 input   59.86 | X-H torsion
[ 10167 10162 10161 10158 ] final  178.09 input  -65.29 | X-H torsion
[ 10718 10713 10712 10709 ] final   46.05 input   66.30 | X-H torsion
[ 10763 10752 10751 10750 ] final   13.91 input  -60.55 | X-H torsion
[ 11005 11000 10999 10996 ] final  145.18 input  -57.11 | X-H torsion

> <Gold.Protein.ActiveResidues>
 VAL166  LYS551  ARG553  GLY616  TRP617  ASP618  TYR619  PRO620  LYS621  CYS622 
 ASP623  PHE694  ASN695  SER759  ASP760  ASP761  ALA762  ILE779  LEU786  VAL792 
 PHE793  MET794  SER795  GLU796  ALA797  LYS798  CYS799  TRP800  GLU811  SER814 

> <Gold.Protein.RotatedAtoms>
  151.1593  135.0265  159.8702 H   0  0  0  0  0  0  0  0  0  0  0  0  # atno 6907 bound_to 6896
  152.5452  134.1298  159.8444 H   0  0  0  0  0  0  0  0  0  0  0  0  # atno 6908 bound_to 6896
  151.1391  133.4937  159.2630 H   0  0  0  0  0  0  0  0  0  0  0  0  # atno 6909 bound_to 6896
  145.7043  140.9104  143.0714 H   0  0  0  0  0  0  0  0  0  0  0  0  # atno 7974 bound_to 7965
  156.2193  140.1812  156.7515 H   0  0  0  0  0  0  0  0  0  0  0  0  # atno 8008 bound_to 7997
  154.5840  140.0661  156.9173 H   0  0  0  0  0  0  0  0  0  0  0  0  # atno 8009 bound_to 7997
  155.2452  140.3325  155.4290 H   0  0  0  0  0  0  0  0  0  0  0  0  # atno 8010 bound_to 7997
  139.5280  144.2721  152.0619 H   0  0  0  0  0  0  0  0  0  0  0  0  # atno 10167 bound_to 10162
  157.4440  130.8098  149.7722 H   0  0  0  0  0  0  0  0  0  0  0  0  # atno 10718 bound_to 10713
  153.1674  135.6806  153.8656 H   0  0  0  0  0  0  0  0  0  0  0  0  # atno 10763 bound_to 10752
  153.8031  135.3153  155.3393 H   0  0  0  0  0  0  0  0  0  0  0  0  # atno 10764 bound_to 10752
  154.7975  135.4798  154.0286 H   0  0  0  0  0  0  0  0  0  0  0  0  # atno 10765 bound_to 10752
  140.0691  134.9161  157.1315 H   0  0  0  0  0  0  0  0  0  0  0  0  # atno 11005 bound_to 11000
  144.6959  139.8990  143.7457 LP  0  0  0  0  0  0  0  0  0  0  0  0  # atno 17320 bound_to 7965
  146.0769  139.3757  143.0488 LP  0  0  0  0  0  0  0  0  0  0  0  0  # atno 17321 bound_to 7965
  140.2180  144.4495  150.6355 LP  0  0  0  0  0  0  0  0  0  0  0  0  # atno 17342 bound_to 10162
  140.6437  143.2209  151.6233 LP  0  0  0  0  0  0  0  0  0  0  0  0  # atno 17343 bound_to 10162
  155.9960  130.3908  150.2796 LP  0  0  0  0  0  0  0  0  0  0  0  0  # atno 17370 bound_to 10713
  157.0963  131.0183  151.3102 LP  0  0  0  0  0  0  0  0  0  0  0  0  # atno 17371 bound_to 10713
  140.3653  134.2449  155.7183 LP  0  0  0  0  0  0  0  0  0  0  0  0  # atno 17394 bound_to 11000
  141.2005  133.7986  157.0487 LP  0  0  0  0  0  0  0  0  0  0  0  0  # atno 17395 bound_to 11000

$$$$
