AV-unprocessed.smi:3078|AV-procd|sdf|11731|dock7
  -GOLD-   2272017123D 1   1.00000     0.00000
 Structure written by MMmdl.
 23 23  0  0  0  0  0  0  0  0  2 V2000
  150.6870  141.8899  156.3507 C   0  0  0  0  0  0  0  0  0  0  0  0
  149.8516  141.1843  155.4026 N   0  0  0  0  0  0  0  0  0  0  0  0
  148.5618  141.4707  155.0109 C   0  0  0  0  0  0  0  0  0  0  0  0
  148.1901  140.5255  154.0941 C   0  0  0  0  0  0  0  0  0  0  0  0
  146.8835  140.3657  153.3625 C   0  0  2  0  0  0  0  0  0  0  0  0
  145.7856  140.2393  154.3045 N   0  0  0  0  0  0  0  0  0  0  0  0
  146.9127  139.1177  152.4617 C   0  0  0  0  0  0  0  0  0  0  0  0
  145.5562  138.6743  152.0965 N   0  3  0  0  0  0  0  0  0  0  0  0
  149.3416  139.6921  153.9989 C   0  0  0  0  0  0  0  0  0  0  0  0
  150.3325  140.0895  154.7797 N   0  0  0  0  0  0  0  0  0  0  0  0
  150.1224  142.6957  156.8206 H   0  0  0  0  0  0  0  0  0  0  0  0
  151.5500  142.3135  155.8367 H   0  0  0  0  0  0  0  0  0  0  0  0
  151.0320  141.2020  157.1236 H   0  0  0  0  0  0  0  0  0  0  0  0
  148.0192  142.3138  155.4131 H   0  0  0  0  0  0  0  0  0  0  0  0
  146.6912  141.2465  152.7481 H   0  0  0  0  0  0  0  0  0  0  0  0
  144.9275  140.0618  153.8011 H   0  0  0  0  0  0  0  0  0  0  0  0
  145.9363  139.4374  154.9004 H   0  0  0  0  0  0  0  0  0  0  0  0
  147.4449  139.3407  151.5361 H   0  0  0  0  0  0  0  0  0  0  0  0
  147.4462  138.2972  152.9441 H   0  0  0  0  0  0  0  0  0  0  0  0
  145.4135  137.7266  152.4147 H   0  0  0  0  0  0  0  0  0  0  0  0
  145.4462  138.7148  151.0934 H   0  0  0  0  0  0  0  0  0  0  0  0
  149.4855  138.8135  153.3874 H   0  0  0  0  0  0  0  0  0  0  0  0
  144.8799  139.2833  152.5349 H   0  0  0  0  0  0  0  0  0  0  0  0
  1  2  1  0  0  0  0
  1 11  1  0  0  0  0
  1 12  1  0  0  0  0
  1 13  1  0  0  0  0
  2 10  1  0  0  0  0
  2  3  1  0  0  0  0
  3  4  2  0  0  0  0
  3 14  1  0  0  0  0
  4  5  1  0  0  0  0
  4  9  1  0  0  0  0
  5  6  1  0  0  0  0
  5  7  1  0  0  0  0
  5 15  1  0  0  0  0
  6 16  1  0  0  0  0
  6 17  1  0  0  0  0
  7  8  1  0  0  0  0
  7 18  1  0  0  0  0
  7 19  1  0  0  0  0
  8 20  1  0  0  0  0
  8 21  1  0  0  0  0
  8 23  1  0  0  0  0
  9 10  2  0  0  0  0
  9 22  1  0  0  0  0
M  CHG  1   8   1
M  END
> <s_m_source_file>
AV-unprocessed.smi

> <i_m_source_file_index>
3078

> <i_lp_mmshare_version>
43012

> <i_f3d_flags>
0

> <s_epik_input>
W0NIM11uMVtjSF1jKFtjSF1uMSlbQ0BIXShbTkgyXSlbQ0gyXVtOSDJd

> <s_epik_cmdline>
J2VwaWtfcHl0aG9uJywgJy1waCcsICc3LjAnLCAnLXRuJywgJzgnLCAnLW1hJywgJzIwMCcsICctbWV0YWxfYmluZGluZycsICctaW1hZScsICc8aW5maWxlLm1hZT4nLCAnLW9tYWUnLCAnPG91dGZpbGUubWFlPic=

> <r_lp_tautomer_probability>
1

> <r_epik_Ionization_Penalty>
0.0498714

> <r_epik_Ionization_Penalty_Charging>
0.00651912

> <r_epik_Ionization_Penalty_Neutral>
0.0433523

> <r_epik_State_Penalty>
0.141593

> <r_epik_Charging_Adjusted_Penalty>
0.148112

> <i_epik_Tot_Q>
1

> <i_epik_Tot_abs_Q>
1

> <r_epik_Metal_State_Penalty>
0.141584

> <b_epik_Metal_Only>
0

> <s_lp_Force_Field>
OPLS_2005

> <r_lp_Energy>
-1.23343

> <b_lp_Chiralities_Consistent>
1

> <s_lp_Variant>
AV-unprocessed.smi:3078-1

> <Gold.Version>
5.8.1

> <Gold.Id.Protein>
6NUR|6NUR_protein|mol2

> <Gold.PLP.Fitness>
38.9323

> <Gold.PLP.PLP>
-21.1523

> <Gold.PLP.part.hbond>
-4.0000

> <Gold.PLP.part.metal>
0.0000

> <Gold.PLP.part.buried>
1.1610

> <Gold.PLP.part.nonpolar>
-18.5773

> <Gold.PLP.part.repulsive>
0.0991

> <Gold.PLP.ligand.clash>
0.0000

> <Gold.PLP.ligand.torsion>
0.1973

> <Gold.PLP.Chemscore.Hbond>
4.7613

> <Gold.PLP.Chemscore.CHOScore>
1.2961

> <Gold.PLP.Chemscore.Metal>
0.0000

> <Gold.Chemscore.Hbonds>
donor molecule, donor type, donor heavy atom, donor atom, acceptor molecule, acceptor atom, score
      L1  H     6    16       P1 10175  1.00
      L1  H     8    21       P1 10171  0.72
      L1  H     8    23       P1 10175  2.00
      P1  H  7989  7998       L1    10  1.00
      L1  C     3    14       P1  8028  0.90
      L1  C     9    22       P1  7957  0.34

> <Gold.PLP.Chemscore.Internal.Correction>
0.0025

> <Gold.Rescore>
     Score         DG    S(hbond)    S(metal)    S(lipo)     H(rot)  DE(clash)    DE(int)     intcor
     15.91     -16.43       2.78        0.00      45.16       1.41       0.28       0.25       ----

> <Gold.Chemscore.Fitness>
15.9092

> <Gold.Chemscore.DG>
-16.4308

> <Gold.Chemscore.ZeroCoef>
-5.4800

> <Gold.Chemscore.Hbond>
2.7791

> <Gold.Chemscore.Metal>
0.0000

> <Gold.Chemscore.Lipo>
45.1628

> <Gold.Chemscore.Internal_Hbond>
0.0000

> <Gold.Chemscore.DEClash>
0.2751

> <Gold.Chemscore.DEInternal>
0.2465

> <Gold.Chemscore.Rot>
1.4123

> <Gold.Chemscore.Internal.Correction>
   9.000000E+99

> <Gold.Chemscore.Hbonds>
donor molecule, donor type, donor heavy atom, donor atom, acceptor molecule, acceptor atom, score
      L1  H     6    16       P1 10175  0.96
      L1  H     8    21       P1 10171  0.68
      L1  H     8    23       P1 10175  0.95
      P1  H  7989  7998       L1    10  0.13

> <Gold.Chemscore.Hbond.Weighted>
-9.2822

> <Gold.Chemscore.Metal.Weighted>
-0.0000

> <Gold.Chemscore.Lipo.Weighted>
-5.2840

> <Gold.Chemscore.Internal_Hbond.Weighted>
0.0000

> <Gold.Chemscore.DEClash.Weighted>
0.2751

> <Gold.Chemscore.DEInternal.Weighted>
0.2465

> <Gold.Chemscore.Rot.Weighted>
3.6154

> <Gold.Chemscore.Internal.Correction.Weighted>
   9.000000E+99

> <Gold.Protein.RotatedTorsions>
[ 6907 6896 6895 6894 ] final   93.98 input  -60.11 | X-H torsion
[ 7974 7965 7964 7962 ] final    5.91 input  175.53 | X-H torsion
[ 8008 7997 7996 7995 ] final   82.70 input   59.86 | X-H torsion
[ 10167 10162 10161 10158 ] final  145.56 input  -65.29 | X-H torsion
[ 10718 10713 10712 10709 ] final  139.40 input   66.30 | X-H torsion
[ 10763 10752 10751 10750 ] final  144.23 input  -60.55 | X-H torsion
[ 11005 11000 10999 10996 ] final -153.55 input  -57.11 | X-H torsion

> <Gold.Protein.ActiveResidues>
 VAL166  LYS551  ARG553  GLY616  TRP617  ASP618  TYR619  PRO620  LYS621  CYS622 
 ASP623  PHE694  ASN695  SER759  ASP760  ASP761  ALA762  ILE779  LEU786  VAL792 
 PHE793  MET794  SER795  GLU796  ALA797  LYS798  CYS799  TRP800  GLU811  SER814 

> <Gold.Protein.RotatedAtoms>
  152.5451  134.1264  159.8420 H   0  0  0  0  0  0  0  0  0  0  0  0  # atno 6907 bound_to 6896
  151.1315  133.5027  159.2606 H   0  0  0  0  0  0  0  0  0  0  0  0  # atno 6908 bound_to 6896
  151.1670  135.0310  159.8790 H   0  0  0  0  0  0  0  0  0  0  0  0  # atno 6909 bound_to 6896
  146.2438  140.0312  142.8389 H   0  0  0  0  0  0  0  0  0  0  0  0  # atno 7974 bound_to 7965
  155.9141  140.3425  155.6122 H   0  0  0  0  0  0  0  0  0  0  0  0  # atno 8008 bound_to 7997
  155.7352  140.0800  157.2290 H   0  0  0  0  0  0  0  0  0  0  0  0  # atno 8009 bound_to 7997
  154.4060  140.1581  156.2541 H   0  0  0  0  0  0  0  0  0  0  0  0  # atno 8010 bound_to 7997
  139.4924  144.5893  151.6713 H   0  0  0  0  0  0  0  0  0  0  0  0  # atno 10167 bound_to 10162
  157.4148  131.1032  151.0416 H   0  0  0  0  0  0  0  0  0  0  0  0  # atno 10718 bound_to 10713
  153.9854  135.2937  155.3416 H   0  0  0  0  0  0  0  0  0  0  0  0  # atno 10763 bound_to 10752
  154.7245  135.5095  153.8867 H   0  0  0  0  0  0  0  0  0  0  0  0  # atno 10764 bound_to 10752
  153.0834  135.6686  154.0113 H   0  0  0  0  0  0  0  0  0  0  0  0  # atno 10765 bound_to 10752
  140.7069  134.3875  157.5203 H   0  0  0  0  0  0  0  0  0  0  0  0  # atno 11005 bound_to 11000
  145.1153  140.9430  143.4632 LP  0  0  0  0  0  0  0  0  0  0  0  0  # atno 17320 bound_to 7965
  145.0535  139.3162  143.5916 LP  0  0  0  0  0  0  0  0  0  0  0  0  # atno 17321 bound_to 7965
  140.5516  144.0415  150.6129 LP  0  0  0  0  0  0  0  0  0  0  0  0  # atno 17342 bound_to 10162
  140.3471  143.2985  152.0526 LP  0  0  0  0  0  0  0  0  0  0  0  0  # atno 17343 bound_to 10162
  157.1368  130.6126  149.5544 LP  0  0  0  0  0  0  0  0  0  0  0  0  # atno 17370 bound_to 10713
  155.9862  130.4895  150.7066 LP  0  0  0  0  0  0  0  0  0  0  0  0  # atno 17371 bound_to 10713
  139.8882  134.8863  156.2489 LP  0  0  0  0  0  0  0  0  0  0  0  0  # atno 17394 bound_to 11000
  141.0117  133.7092  156.1122 LP  0  0  0  0  0  0  0  0  0  0  0  0  # atno 17395 bound_to 11000

$$$$
