AV-unprocessed.smi:533|AV-procd|sdf|2855|dock2
  -GOLD-   2262023343D 1   1.00000     0.00000
 Structure written by MMmdl.
 35 36  0  0  0  0  0  0  0  0  2 V2000
  151.4513  144.9339  159.6959 C   0  0  0  0  0  0  0  0  0  0  0  0
  151.8879  143.4663  159.7141 C   0  0  0  0  0  0  0  0  0  0  0  0
  151.5111  142.7821  158.4927 N   0  0  0  0  0  0  0  0  0  0  0  0
  151.9258  141.5759  157.9417 C   0  0  0  0  0  0  0  0  0  0  0  0
  152.8302  140.7661  158.4941 N   0  0  0  0  0  0  0  0  0  0  0  0
  152.9019  139.7271  157.5766 C   0  0  0  0  0  0  0  0  0  0  0  0
  152.0640  139.9327  156.5247 C   0  0  0  0  0  0  0  0  0  0  0  0
  151.9344  139.0007  155.3834 C   0  0  0  0  0  0  0  0  0  0  0  0
  151.1700  139.2382  154.4505 O   0  0  0  0  0  0  0  0  0  0  0  0
  152.7471  137.9048  155.5183 N   0  5  0  0  0  0  0  0  0  0  0  0
  153.6061  137.6543  156.5672 C   0  0  0  0  0  0  0  0  0  0  0  0
  154.3000  136.6379  156.6017 O   0  0  0  0  0  0  0  0  0  0  0  0
  153.6976  138.5511  157.6015 N   0  0  0  0  0  0  0  0  0  0  0  0
  154.5862  138.3581  158.7517 C   0  0  0  0  0  0  0  0  0  0  0  0
  151.4117  141.1464  156.7628 N   0  0  0  0  0  0  0  0  0  0  0  0
  150.4099  141.8239  155.9429 C   0  0  0  0  0  0  0  0  0  0  0  0
  149.2379  140.9011  155.5770 C   0  0  0  0  0  0  0  0  0  0  0  0
  148.4538  141.4925  154.5541 O   0  0  0  0  0  0  0  0  0  0  0  0
  147.1738  140.8994  154.4343 C   0  0  0  0  0  0  0  0  0  0  0  0
  151.7400  145.4339  160.6207 H   0  0  0  0  0  0  0  0  0  0  0  0
  150.3693  145.0221  159.5949 H   0  0  0  0  0  0  0  0  0  0  0  0
  151.9130  145.4733  158.8682 H   0  0  0  0  0  0  0  0  0  0  0  0
  152.9691  143.3970  159.8372 H   0  0  0  0  0  0  0  0  0  0  0  0
  151.4348  142.9505  160.5613 H   0  0  0  0  0  0  0  0  0  0  0  0
  150.8268  143.2797  157.9421 H   0  0  0  0  0  0  0  0  0  0  0  0
  155.1602  137.4315  158.7280 H   0  0  0  0  0  0  0  0  0  0  0  0
  154.0039  138.3540  159.6737 H   0  0  0  0  0  0  0  0  0  0  0  0
  155.2997  139.1804  158.8102 H   0  0  0  0  0  0  0  0  0  0  0  0
  150.0525  142.7129  156.4593 H   0  0  0  0  0  0  0  0  0  0  0  0
  150.8865  142.1939  155.0349 H   0  0  0  0  0  0  0  0  0  0  0  0
  149.6207  139.9358  155.2429 H   0  0  0  0  0  0  0  0  0  0  0  0
  148.6202  140.7183  156.4577 H   0  0  0  0  0  0  0  0  0  0  0  0
  146.6185  141.3883  153.6340 H   0  0  0  0  0  0  0  0  0  0  0  0
  146.6013  141.0078  155.3564 H   0  0  0  0  0  0  0  0  0  0  0  0
  147.2514  139.8389  154.1914 H   0  0  0  0  0  0  0  0  0  0  0  0
  1  2  1  0  0  0  0
  1 20  1  0  0  0  0
  1 21  1  0  0  0  0
  1 22  1  0  0  0  0
  2  3  1  0  0  0  0
  2 23  1  0  0  0  0
  2 24  1  0  0  0  0
  3  4  1  0  0  0  0
  3 25  1  0  0  0  0
  4 15  1  0  0  0  0
  4  5  2  0  0  0  0
  5  6  1  0  0  0  0
  6 13  1  0  0  0  0
  6  7  2  0  0  0  0
  7  8  1  0  0  0  0
  7 15  1  0  0  0  0
  8  9  2  0  0  0  0
  8 10  1  0  0  0  0
 10 11  1  0  0  0  0
 11 12  2  0  0  0  0
 11 13  1  0  0  0  0
 13 14  1  0  0  0  0
 14 26  1  0  0  0  0
 14 27  1  0  0  0  0
 14 28  1  0  0  0  0
 15 16  1  0  0  0  0
 16 17  1  0  0  0  0
 16 29  1  0  0  0  0
 16 30  1  0  0  0  0
 17 18  1  0  0  0  0
 17 31  1  0  0  0  0
 17 32  1  0  0  0  0
 18 19  1  0  0  0  0
 19 33  1  0  0  0  0
 19 34  1  0  0  0  0
 19 35  1  0  0  0  0
M  CHG  1  10  -1
M  END
> <s_m_source_file>
AV-unprocessed.smi

> <i_m_source_file_index>
533

> <i_lp_mmshare_version>
43012

> <i_f3d_flags>
0

> <s_epik_input>
W0NIM11bQ0gyXVtOSF1jKG4xKW4oW0NIMl1bQ0gyXU9bQ0gzXSljKGMxMiljKD1PKVtuSF1jKD1PKW4yW0NIM10=

> <s_epik_cmdline>
J2VwaWtfcHl0aG9uJywgJy1waCcsICc3LjAnLCAnLXRuJywgJzgnLCAnLW1hJywgJzIwMCcsICctbWV0YWxfYmluZGluZycsICctaW1hZScsICc8aW5maWxlLm1hZT4nLCAnLW9tYWUnLCAnPG91dGZpbGUubWFlPic=

> <r_lp_tautomer_probability>
1

> <r_epik_Ionization_Penalty>
5.85583

> <r_epik_Ionization_Penalty_Charging>
1.37787e-08

> <r_epik_Ionization_Penalty_Neutral>
5.85583

> <r_epik_State_Penalty>
5.8557

> <r_epik_Charging_Adjusted_Penalty>
5.8557

> <i_epik_Tot_Q>
-1

> <i_epik_Tot_abs_Q>
1

> <r_epik_Metal_State_Penalty>
1.82051

> <b_epik_Metal_Only>
1

> <s_lp_Force_Field>
OPLS_2005

> <r_lp_Energy>
24.2596

> <b_lp_Chiralities_Consistent>
1

> <s_lp_Variant>
AV-unprocessed.smi:533-2

> <Gold.Version>
5.8.1

> <Gold.Id.Protein>
6NUR|6NUR_protein|mol2

> <Gold.PLP.Fitness>
39.1272

> <Gold.PLP.PLP>
-32.3794

> <Gold.PLP.part.hbond>
-3.3292

> <Gold.PLP.part.metal>
0.0000

> <Gold.PLP.part.buried>
-5.2031

> <Gold.PLP.part.nonpolar>
-22.8768

> <Gold.PLP.part.repulsive>
0.3898

> <Gold.PLP.ligand.clash>
0.0000

> <Gold.PLP.ligand.torsion>
0.2753

> <Gold.PLP.Chemscore.Hbond>
2.4320

> <Gold.PLP.Chemscore.CHOScore>
0.0000

> <Gold.PLP.Chemscore.Metal>
0.0000

> <Gold.Chemscore.Hbonds>
donor molecule, donor type, donor heavy atom, donor atom, acceptor molecule, acceptor atom, score
      P1  H  7989  7998       L1     9  1.00
      P1  H 10752 10763       L1    12  0.77

> <Gold.PLP.Chemscore.Internal.Correction>
0.0023

> <Gold.Rescore>
     Score         DG    S(hbond)    S(metal)    S(lipo)     H(rot)  DE(clash)    DE(int)     intcor
     12.92     -14.74       2.29        0.00      53.72       1.83       0.20       1.62       ----

> <Gold.Chemscore.Fitness>
12.9167

> <Gold.Chemscore.DG>
-14.7350

> <Gold.Chemscore.ZeroCoef>
-5.4800

> <Gold.Chemscore.Hbond>
2.2949

> <Gold.Chemscore.Metal>
0.0000

> <Gold.Chemscore.Lipo>
53.7237

> <Gold.Chemscore.Internal_Hbond>
0.0000

> <Gold.Chemscore.DEClash>
0.1971

> <Gold.Chemscore.DEInternal>
1.6212

> <Gold.Chemscore.Rot>
1.8342

> <Gold.Chemscore.Internal.Correction>
   9.000000E+99

> <Gold.Chemscore.Hbonds>
donor molecule, donor type, donor heavy atom, donor atom, acceptor molecule, acceptor atom, score
      P1  H  7989  7998       L1     9  0.85
      P1  H 10752 10763       L1    12  0.69

> <Gold.Chemscore.Hbond.Weighted>
-7.6650

> <Gold.Chemscore.Metal.Weighted>
-0.0000

> <Gold.Chemscore.Lipo.Weighted>
-6.2857

> <Gold.Chemscore.Internal_Hbond.Weighted>
0.0000

> <Gold.Chemscore.DEClash.Weighted>
0.1971

> <Gold.Chemscore.DEInternal.Weighted>
1.6212

> <Gold.Chemscore.Rot.Weighted>
4.6957

> <Gold.Chemscore.Internal.Correction.Weighted>
   9.000000E+99

> <Gold.Protein.RotatedTorsions>
[ 6907 6896 6895 6894 ] final -134.34 input  -60.11 | X-H torsion
[ 7974 7965 7964 7962 ] final  107.26 input  175.53 | X-H torsion
[ 8008 7997 7996 7995 ] final  166.13 input   59.86 | X-H torsion
[ 10167 10162 10161 10158 ] final -142.77 input  -65.29 | X-H torsion
[ 10718 10713 10712 10709 ] final   89.71 input   66.30 | X-H torsion
[ 10763 10752 10751 10750 ] final  135.01 input  -60.55 | X-H torsion
[ 11005 11000 10999 10996 ] final   66.34 input  -57.11 | X-H torsion

> <Gold.Protein.ActiveResidues>
 VAL166  LYS551  ARG553  GLY616  TRP617  ASP618  TYR619  PRO620  LYS621  CYS622 
 ASP623  PHE694  ASN695  SER759  ASP760  ASP761  ALA762  ILE779  LEU786  VAL792 
 PHE793  MET794  SER795  GLU796  ALA797  LYS798  CYS799  TRP800  GLU811  SER814 

> <Gold.Protein.RotatedAtoms>
  150.9847  133.6209  159.2716 H   0  0  0  0  0  0  0  0  0  0  0  0  # atno 6907 bound_to 6896
  151.3451  135.0871  159.9394 H   0  0  0  0  0  0  0  0  0  0  0  0  # atno 6908 bound_to 6896
  152.5227  133.9451  159.7699 H   0  0  0  0  0  0  0  0  0  0  0  0  # atno 6909 bound_to 6896
  145.2959  139.2585  143.3840 H   0  0  0  0  0  0  0  0  0  0  0  0  # atno 7974 bound_to 7965
  156.1744  140.1651  156.8390 H   0  0  0  0  0  0  0  0  0  0  0  0  # atno 8008 bound_to 7997
  154.5291  140.0761  156.8346 H   0  0  0  0  0  0  0  0  0  0  0  0  # atno 8009 bound_to 7997
  155.3445  140.3386  155.4241 H   0  0  0  0  0  0  0  0  0  0  0  0  # atno 8010 bound_to 7997
  139.8057  143.7772  152.2661 H   0  0  0  0  0  0  0  0  0  0  0  0  # atno 10167 bound_to 10162
  157.6956  131.0343  150.3467 H   0  0  0  0  0  0  0  0  0  0  0  0  # atno 10718 bound_to 10713
  153.8329  135.3101  155.3420 H   0  0  0  0  0  0  0  0  0  0  0  0  # atno 10763 bound_to 10752
  154.7965  135.4752  154.0177 H   0  0  0  0  0  0  0  0  0  0  0  0  # atno 10764 bound_to 10752
  153.1623  135.6863  153.8816 H   0  0  0  0  0  0  0  0  0  0  0  0  # atno 10765 bound_to 10752
  139.9838  134.6701  156.0214 H   0  0  0  0  0  0  0  0  0  0  0  0  # atno 11005 bound_to 11000
  146.3169  140.3462  142.8652 LP  0  0  0  0  0  0  0  0  0  0  0  0  # atno 17320 bound_to 7965
  144.9134  140.7783  143.5793 LP  0  0  0  0  0  0  0  0  0  0  0  0  # atno 17321 bound_to 7965
  139.7906  144.7412  150.9961 LP  0  0  0  0  0  0  0  0  0  0  0  0  # atno 17342 bound_to 10162
  140.7819  143.4446  151.0501 LP  0  0  0  0  0  0  0  0  0  0  0  0  # atno 17343 bound_to 10162
  156.3920  130.3900  149.7022 LP  0  0  0  0  0  0  0  0  0  0  0  0  # atno 17370 bound_to 10713
  156.4369  130.7842  151.2863 LP  0  0  0  0  0  0  0  0  0  0  0  0  # atno 17371 bound_to 10713
  141.1506  133.6549  156.4002 LP  0  0  0  0  0  0  0  0  0  0  0  0  # atno 17394 bound_to 11000
  140.5043  134.6455  157.5260 LP  0  0  0  0  0  0  0  0  0  0  0  0  # atno 17395 bound_to 11000

$$$$
