AV-unprocessed.smi:1364|AV-procd|sdf|5567|dock2
  -GOLD-   22720 5163D 1   1.00000     0.00000
 Structure written by MMmdl.
 40 41  0  0  0  0  0  0  0  0  1 V2000
  155.0859  135.4671  162.8992 C   0  0  0  0  0  0  0  0  0  0  0  0
  155.1565  135.5362  161.3594 C   0  0  0  0  0  0  0  0  0  0  0  0
  156.6246  135.7428  160.9321 C   0  0  0  0  0  0  0  0  0  0  0  0
  154.6512  134.1953  160.7749 C   0  0  0  0  0  0  0  0  0  0  0  0
  154.3239  136.7512  160.8783 C   0  0  0  0  0  0  0  0  0  0  0  0
  153.3439  136.5547  160.1587 O   0  0  0  0  0  0  0  0  0  0  0  0
  154.7310  137.9791  161.2573 N   0  0  0  0  0  0  0  0  0  0  0  0
  154.1491  139.2412  160.9611 C   0  0  0  0  0  0  0  0  0  0  0  0
  154.5474  140.4618  161.5530 C   0  0  0  0  0  0  0  0  0  0  0  0
  153.9057  141.6519  161.1599 C   0  0  0  0  0  0  0  0  0  0  0  0
  152.8859  141.5994  160.1803 C   0  0  0  0  0  0  0  0  0  0  0  0
  152.2281  142.7812  159.7740 N   0  0  0  0  0  0  0  0  0  0  0  0
  153.0419  143.8705  159.2368 C   0  0  0  0  0  0  0  0  0  0  0  0
  152.2098  145.1595  159.1294 C   0  0  0  0  0  0  0  0  0  0  0  0
  151.0419  144.9125  158.3538 O   0  0  0  0  0  0  0  0  0  0  0  0
  150.2076  143.9270  158.9535 C   0  0  0  0  0  0  0  0  0  0  0  0
  150.9678  142.5935  159.0589 C   0  0  0  0  0  0  0  0  0  0  0  0
  152.5228  140.4293  159.5998 N   0  0  0  0  0  0  0  0  0  0  0  0
  153.1397  139.2911  159.9799 C   0  0  0  0  0  0  0  0  0  0  0  0
  155.6680  134.6290  163.2839 H   0  0  0  0  0  0  0  0  0  0  0  0
  154.0596  135.3366  163.2453 H   0  0  0  0  0  0  0  0  0  0  0  0
  155.4782  136.3718  163.3662 H   0  0  0  0  0  0  0  0  0  0  0  0
  157.0496  136.6522  161.3595 H   0  0  0  0  0  0  0  0  0  0  0  0
  156.7179  135.8138  159.8476 H   0  0  0  0  0  0  0  0  0  0  0  0
  157.2511  134.9118  161.2583 H   0  0  0  0  0  0  0  0  0  0  0  0
  155.2589  133.3616  161.1282 H   0  0  0  0  0  0  0  0  0  0  0  0
  154.6978  134.1843  159.6849 H   0  0  0  0  0  0  0  0  0  0  0  0
  153.6219  133.9862  161.0698 H   0  0  0  0  0  0  0  0  0  0  0  0
  155.5999  138.0134  161.7708 H   0  0  0  0  0  0  0  0  0  0  0  0
  155.3397  140.5133  162.2831 H   0  0  0  0  0  0  0  0  0  0  0  0
  154.2166  142.5878  161.5989 H   0  0  0  0  0  0  0  0  0  0  0  0
  153.9040  144.0514  159.8801 H   0  0  0  0  0  0  0  0  0  0  0  0
  153.4203  143.5873  158.2536 H   0  0  0  0  0  0  0  0  0  0  0  0
  151.9322  145.5273  160.1185 H   0  0  0  0  0  0  0  0  0  0  0  0
  152.7949  145.9450  158.6508 H   0  0  0  0  0  0  0  0  0  0  0  0
  149.8766  144.2644  159.9371 H   0  0  0  0  0  0  0  0  0  0  0  0
  149.3134  143.8006  158.3432 H   0  0  0  0  0  0  0  0  0  0  0  0
  151.1846  142.2088  158.0617 H   0  0  0  0  0  0  0  0  0  0  0  0
  150.3286  141.8605  159.5485 H   0  0  0  0  0  0  0  0  0  0  0  0
  152.8109  138.3888  159.4853 H   0  0  0  0  0  0  0  0  0  0  0  0
  1  2  1  0  0  0  0
  1 20  1  0  0  0  0
  1 21  1  0  0  0  0
  1 22  1  0  0  0  0
  2  3  1  0  0  0  0
  2  4  1  0  0  0  0
  2  5  1  0  0  0  0
  3 23  1  0  0  0  0
  3 24  1  0  0  0  0
  3 25  1  0  0  0  0
  4 26  1  0  0  0  0
  4 27  1  0  0  0  0
  4 28  1  0  0  0  0
  5  6  2  0  0  0  0
  5  7  1  0  0  0  0
  7  8  1  0  0  0  0
  7 29  1  0  0  0  0
  8 19  1  0  0  0  0
  8  9  2  0  0  0  0
  9 10  1  0  0  0  0
  9 30  1  0  0  0  0
 10 11  2  0  0  0  0
 10 31  1  0  0  0  0
 11 12  1  0  0  0  0
 11 18  1  0  0  0  0
 12 17  1  0  0  0  0
 12 13  1  0  0  0  0
 13 14  1  0  0  0  0
 13 32  1  0  0  0  0
 13 33  1  0  0  0  0
 14 15  1  0  0  0  0
 14 34  1  0  0  0  0
 14 35  1  0  0  0  0
 15 16  1  0  0  0  0
 16 17  1  0  0  0  0
 16 36  1  0  0  0  0
 16 37  1  0  0  0  0
 17 38  1  0  0  0  0
 17 39  1  0  0  0  0
 18 19  2  0  0  0  0
 19 40  1  0  0  0  0
M  END
> <s_m_source_file>
AV-unprocessed.smi

> <i_m_source_file_index>
1364

> <i_lp_mmshare_version>
43012

> <i_f3d_flags>
0

> <s_epik_input>
W0NIM11DKFtDSDNdKShbQ0gzXSlDKD1PKVtOSF1jMVtjSF1bY0hdYyhuW2NIXTEpTjJbQ0gyXVtDSDJdT1tDSDJdW0NIMl0y

> <s_epik_cmdline>
J2VwaWtfcHl0aG9uJywgJy1waCcsICc3LjAnLCAnLXRuJywgJzgnLCAnLW1hJywgJzIwMCcsICctbWV0YWxfYmluZGluZycsICctaW1hZScsICc8aW5maWxlLm1hZT4nLCAnLW9tYWUnLCAnPG91dGZpbGUubWFlPic=

> <r_lp_tautomer_probability>
1

> <r_epik_Ionization_Penalty>
0.000770434

> <r_epik_Ionization_Penalty_Charging>
0

> <r_epik_Ionization_Penalty_Neutral>
0.000770434

> <r_epik_State_Penalty>
0.00047801

> <r_epik_Charging_Adjusted_Penalty>
0.00047801

> <i_epik_Tot_Q>
0

> <i_epik_Tot_abs_Q>
0

> <r_epik_Metal_State_Penalty>
-0

> <b_epik_Metal_Only>
0

> <s_lp_Force_Field>
OPLS_2005

> <r_lp_Energy>
28.9923

> <b_lp_Chiralities_Consistent>
1

> <s_lp_Variant>
AV-unprocessed.smi:1364-1

> <Gold.Version>
5.8.1

> <Gold.Id.Protein>
6NUR|6NUR_protein|mol2

> <Gold.PLP.Fitness>
35.9737

> <Gold.PLP.PLP>
-33.2392

> <Gold.PLP.part.hbond>
-0.9490

> <Gold.PLP.part.metal>
0.0000

> <Gold.PLP.part.buried>
-5.3575

> <Gold.PLP.part.nonpolar>
-27.2431

> <Gold.PLP.part.repulsive>
0.1752

> <Gold.PLP.ligand.clash>
0.0058

> <Gold.PLP.ligand.torsion>
0.2925

> <Gold.PLP.Chemscore.Hbond>
0.9913

> <Gold.PLP.Chemscore.CHOScore>
0.0000

> <Gold.PLP.Chemscore.Metal>
0.0000

> <Gold.Chemscore.Hbonds>
donor molecule, donor type, donor heavy atom, donor atom, acceptor molecule, acceptor atom, score
      P1  H  6896  6908       L1     6  1.00

> <Gold.PLP.Chemscore.Internal.Correction>
0.3515

> <Gold.Rescore>
     Score         DG    S(hbond)    S(metal)    S(lipo)     H(rot)  DE(clash)    DE(int)     intcor
     15.14     -16.82       1.00        0.00      93.90       1.17       0.02       1.65       ----

> <Gold.Chemscore.Fitness>
15.1407

> <Gold.Chemscore.DG>
-16.8152

> <Gold.Chemscore.ZeroCoef>
-5.4800

> <Gold.Chemscore.Hbond>
0.9992

> <Gold.Chemscore.Metal>
0.0000

> <Gold.Chemscore.Lipo>
93.9020

> <Gold.Chemscore.Internal_Hbond>
0.0000

> <Gold.Chemscore.DEClash>
0.0247

> <Gold.Chemscore.DEInternal>
1.6498

> <Gold.Chemscore.Rot>
1.1675

> <Gold.Chemscore.Internal.Correction>
   9.000000E+99

> <Gold.Chemscore.Hbonds>
donor molecule, donor type, donor heavy atom, donor atom, acceptor molecule, acceptor atom, score
      P1  H  6896  6908       L1     6  0.98

> <Gold.Chemscore.Hbond.Weighted>
-3.3374

> <Gold.Chemscore.Metal.Weighted>
-0.0000

> <Gold.Chemscore.Lipo.Weighted>
-10.9865

> <Gold.Chemscore.Internal_Hbond.Weighted>
0.0000

> <Gold.Chemscore.DEClash.Weighted>
0.0247

> <Gold.Chemscore.DEInternal.Weighted>
1.6498

> <Gold.Chemscore.Rot.Weighted>
2.9888

> <Gold.Chemscore.Internal.Correction.Weighted>
   9.000000E+99

> <Gold.Protein.RotatedTorsions>
[ 6907 6896 6895 6894 ] final  -80.62 input  -60.11 | X-H torsion
[ 7974 7965 7964 7962 ] final  159.33 input  175.53 | X-H torsion
[ 8008 7997 7996 7995 ] final   -3.32 input   59.86 | X-H torsion
[ 10167 10162 10161 10158 ] final -174.16 input  -65.29 | X-H torsion
[ 10718 10713 10712 10709 ] final  106.29 input   66.30 | X-H torsion
[ 10763 10752 10751 10750 ] final  176.51 input  -60.55 | X-H torsion
[ 11005 11000 10999 10996 ] final   48.08 input  -57.11 | X-H torsion

> <Gold.Protein.ActiveResidues>
 VAL166  LYS551  ARG553  GLY616  TRP617  ASP618  TYR619  PRO620  LYS621  CYS622 
 ASP623  PHE694  ASN695  SER759  ASP760  ASP761  ALA762  ILE779  LEU786  VAL792 
 PHE793  MET794  SER795  GLU796  ALA797  LYS798  CYS799  TRP800  GLU811  SER814 

> <Gold.Protein.RotatedAtoms>
  150.6926  134.3942  159.5089 H   0  0  0  0  0  0  0  0  0  0  0  0  # atno 6907 bound_to 6896
  152.1726  134.8819  160.0542 H   0  0  0  0  0  0  0  0  0  0  0  0  # atno 6908 bound_to 6896
  151.9839  133.3732  159.4155 H   0  0  0  0  0  0  0  0  0  0  0  0  # atno 6909 bound_to 6896
  144.7796  139.7602  143.6265 H   0  0  0  0  0  0  0  0  0  0  0  0  # atno 7974 bound_to 7965
  154.6261  140.2512  155.7490 H   0  0  0  0  0  0  0  0  0  0  0  0  # atno 8008 bound_to 7997
  156.2454  140.2916  156.0511 H   0  0  0  0  0  0  0  0  0  0  0  0  # atno 8009 bound_to 7997
  155.1819  140.0389  157.2874 H   0  0  0  0  0  0  0  0  0  0  0  0  # atno 8010 bound_to 7997
  139.5649  144.1780  152.1296 H   0  0  0  0  0  0  0  0  0  0  0  0  # atno 10167 bound_to 10162
  157.6674  131.0847  150.5984 H   0  0  0  0  0  0  0  0  0  0  0  0  # atno 10718 bound_to 10713
  154.4821  135.2775  155.1562 H   0  0  0  0  0  0  0  0  0  0  0  0  # atno 10763 bound_to 10752
  154.3268  135.6198  153.5536 H   0  0  0  0  0  0  0  0  0  0  0  0  # atno 10764 bound_to 10752
  152.9876  135.5756  154.5224 H   0  0  0  0  0  0  0  0  0  0  0  0  # atno 10765 bound_to 10752
  140.1222  134.4815  155.8588 H   0  0  0  0  0  0  0  0  0  0  0  0  # atno 11005 bound_to 11000
  146.1997  139.5284  142.9751 LP  0  0  0  0  0  0  0  0  0  0  0  0  # atno 17320 bound_to 7965
  145.6087  141.0343  143.1978 LP  0  0  0  0  0  0  0  0  0  0  0  0  # atno 17321 bound_to 7965
  140.1301  144.5296  150.6808 LP  0  0  0  0  0  0  0  0  0  0  0  0  # atno 17342 bound_to 10162
  140.6931  143.2388  151.5075 LP  0  0  0  0  0  0  0  0  0  0  0  0  # atno 17343 bound_to 10162
  156.6285  130.4425  149.5795 LP  0  0  0  0  0  0  0  0  0  0  0  0  # atno 17370 bound_to 10713
  156.2300  130.6789  151.1454 LP  0  0  0  0  0  0  0  0  0  0  0  0  # atno 17371 bound_to 10713
  141.2154  133.6765  156.6910 LP  0  0  0  0  0  0  0  0  0  0  0  0  # atno 17394 bound_to 11000
  140.2950  134.8210  157.4049 LP  0  0  0  0  0  0  0  0  0  0  0  0  # atno 17395 bound_to 11000

$$$$
