AV-unprocessed.smi:1039|AV-procd|sdf|4522|dock1
  -GOLD-   22720 2533D 1   1.00000     0.00000
 Structure written by MMmdl.
 40 41  0  0  0  0  0  0  0  0  1 V2000
  145.1247  143.7225  154.1141 C   0  0  0  0  0  0  0  0  0  0  0  0
  145.6949  142.3209  154.3703 C   0  0  0  0  0  0  0  0  0  0  0  0
  146.1760  142.1577  155.8285 C   0  0  0  0  0  0  0  0  0  0  0  0
  146.8426  140.7873  156.0463 C   0  0  0  0  0  0  0  0  0  0  0  0
  147.9532  140.6426  155.0891 N   0  0  0  0  0  0  0  0  0  0  0  0
  149.2726  140.7784  155.3746 C   0  0  0  0  0  0  0  0  0  0  0  0
  150.1383  140.9499  154.5153 O   0  0  0  0  0  0  0  0  0  0  0  0
  149.5748  140.6631  156.6768 N   0  0  0  0  0  0  0  0  0  0  0  0
  150.9094  140.8003  157.2459 C   0  0  0  0  0  0  0  0  0  0  0  0
  151.0173  142.0405  158.1510 C   0  0  0  0  0  0  0  0  0  0  0  0
  152.0841  141.9303  159.2016 C   0  0  0  0  0  0  0  0  0  0  0  0
  152.7464  140.8052  159.4531 N   0  0  0  0  0  0  0  0  0  0  0  0
  153.6452  141.1381  160.4594 C   0  0  0  0  0  0  0  0  0  0  0  0
  153.4904  142.4627  160.7875 C   0  0  0  0  0  0  0  0  0  0  0  0
  152.4758  142.9617  159.9781 N   0  0  0  0  0  0  0  0  0  0  0  0
  151.9630  144.3231  159.9821 C   0  0  0  0  0  0  0  0  0  0  0  0
  152.1308  144.8932  158.7885 F   0  0  0  0  0  0  0  0  0  0  0  0
  150.6688  144.3261  160.2981 F   0  0  0  0  0  0  0  0  0  0  0  0
  147.4595  140.6122  153.7070 C   0  0  0  0  0  0  0  0  0  0  0  0
  146.8220  141.9734  153.3739 C   0  0  0  0  0  0  0  0  0  0  0  0
  145.8841  144.4916  154.2581 H   0  0  0  0  0  0  0  0  0  0  0  0
  144.2983  143.9397  154.7913 H   0  0  0  0  0  0  0  0  0  0  0  0
  144.7487  143.8125  153.0946 H   0  0  0  0  0  0  0  0  0  0  0  0
  144.8875  141.6045  154.2117 H   0  0  0  0  0  0  0  0  0  0  0  0
  146.8872  142.9474  156.0753 H   0  0  0  0  0  0  0  0  0  0  0  0
  145.3363  142.2735  156.5146 H   0  0  0  0  0  0  0  0  0  0  0  0
  147.1403  140.6905  157.0901 H   0  0  0  0  0  0  0  0  0  0  0  0
  146.1176  139.9895  155.8779 H   0  0  0  0  0  0  0  0  0  0  0  0
  148.8172  140.5004  157.3241 H   0  0  0  0  0  0  0  0  0  0  0  0
  151.1793  139.9046  157.8072 H   0  0  0  0  0  0  0  0  0  0  0  0
  151.6198  140.8865  156.4225 H   0  0  0  0  0  0  0  0  0  0  0  0
  151.1959  142.9212  157.5354 H   0  0  0  0  0  0  0  0  0  0  0  0
  150.0615  142.2136  158.6464 H   0  0  0  0  0  0  0  0  0  0  0  0
  154.3284  140.4066  160.8649 H   0  0  0  0  0  0  0  0  0  0  0  0
  154.0049  143.0726  161.5155 H   0  0  0  0  0  0  0  0  0  0  0  0
  152.5018  144.9271  160.7123 H   0  0  0  0  0  0  0  0  0  0  0  0
  148.2450  140.3794  152.9868 H   0  0  0  0  0  0  0  0  0  0  0  0
  146.7205  139.8165  153.6041 H   0  0  0  0  0  0  0  0  0  0  0  0
  146.4300  141.9589  152.3565 H   0  0  0  0  0  0  0  0  0  0  0  0
  147.5903  142.7477  153.3984 H   0  0  0  0  0  0  0  0  0  0  0  0
  1  2  1  0  0  0  0
  1 21  1  0  0  0  0
  1 22  1  0  0  0  0
  1 23  1  0  0  0  0
  2 20  1  0  0  0  0
  2  3  1  0  0  0  0
  2 24  1  0  0  0  0
  3  4  1  0  0  0  0
  3 25  1  0  0  0  0
  3 26  1  0  0  0  0
  4  5  1  0  0  0  0
  4 27  1  0  0  0  0
  4 28  1  0  0  0  0
  5  6  1  0  0  0  0
  5 19  1  0  0  0  0
  6  7  2  0  0  0  0
  6  8  1  0  0  0  0
  8  9  1  0  0  0  0
  8 29  1  0  0  0  0
  9 10  1  0  0  0  0
  9 30  1  0  0  0  0
  9 31  1  0  0  0  0
 10 11  1  0  0  0  0
 10 32  1  0  0  0  0
 10 33  1  0  0  0  0
 11 15  1  0  0  0  0
 11 12  2  0  0  0  0
 12 13  1  0  0  0  0
 13 14  2  0  0  0  0
 13 34  1  0  0  0  0
 14 15  1  0  0  0  0
 14 35  1  0  0  0  0
 15 16  1  0  0  0  0
 16 17  1  0  0  0  0
 16 18  1  0  0  0  0
 16 36  1  0  0  0  0
 19 20  1  0  0  0  0
 19 37  1  0  0  0  0
 19 38  1  0  0  0  0
 20 39  1  0  0  0  0
 20 40  1  0  0  0  0
M  END
> <s_m_source_file>
AV-unprocessed.smi

> <i_m_source_file_index>
1039

> <i_lp_mmshare_version>
43012

> <i_f3d_flags>
0

> <s_epik_input>
W0NIM11bQ0hdMVtDSDJdW0NIMl1OKFtDSDJdW0NIMl0xKUMoPU8pW05IXVtDSDJdW0NIMl1jMm5bY0hdW2NIXW4yW0NIXShGKUY=

> <s_epik_cmdline>
J2VwaWtfcHl0aG9uJywgJy1waCcsICc3LjAnLCAnLXRuJywgJzgnLCAnLW1hJywgJzIwMCcsICctbWV0YWxfYmluZGluZycsICctaW1hZScsICc8aW5maWxlLm1hZT4nLCAnLW9tYWUnLCAnPG91dGZpbGUubWFlPic=

> <r_lp_tautomer_probability>
1

> <r_epik_Ionization_Penalty>
0.101783

> <r_epik_Ionization_Penalty_Charging>
0.101715

> <r_epik_Ionization_Penalty_Neutral>
6.87123e-05

> <r_epik_State_Penalty>
0.091697

> <r_epik_Charging_Adjusted_Penalty>
0.193412

> <i_epik_Tot_Q>
0

> <i_epik_Tot_abs_Q>
0

> <r_epik_Metal_State_Penalty>
0.0781553

> <b_epik_Metal_Only>
0

> <s_lp_Force_Field>
OPLS_2005

> <r_lp_Energy>
33.8957

> <b_lp_Chiralities_Consistent>
1

> <s_lp_Variant>
AV-unprocessed.smi:1039-1

> <Gold.Version>
5.8.1

> <Gold.Id.Protein>
6NUR|6NUR_protein|mol2

> <Gold.PLP.Fitness>
47.8655

> <Gold.PLP.PLP>
-45.9226

> <Gold.PLP.part.hbond>
-1.0000

> <Gold.PLP.part.metal>
0.0000

> <Gold.PLP.part.buried>
-7.6183

> <Gold.PLP.part.nonpolar>
-37.4821

> <Gold.PLP.part.repulsive>
0.1349

> <Gold.PLP.ligand.clash>
0.0000

> <Gold.PLP.ligand.torsion>
0.3268

> <Gold.PLP.Chemscore.Hbond>
0.8320

> <Gold.PLP.Chemscore.CHOScore>
0.0000

> <Gold.PLP.Chemscore.Metal>
0.0000

> <Gold.Chemscore.Hbonds>
donor molecule, donor type, donor heavy atom, donor atom, acceptor molecule, acceptor atom, score
      P1  H  7989  7998       L1     7  0.66

> <Gold.PLP.Chemscore.Internal.Correction>
0.1005

> <Gold.Rescore>
     Score         DG    S(hbond)    S(metal)    S(lipo)     H(rot)  DE(clash)    DE(int)     intcor
     13.04     -13.62       0.88        0.00      78.56       1.56       0.36       0.22       ----

> <Gold.Chemscore.Fitness>
13.0376

> <Gold.Chemscore.DG>
-13.6215

> <Gold.Chemscore.ZeroCoef>
-5.4800

> <Gold.Chemscore.Hbond>
0.8832

> <Gold.Chemscore.Metal>
0.0000

> <Gold.Chemscore.Lipo>
78.5629

> <Gold.Chemscore.Internal_Hbond>
0.0000

> <Gold.Chemscore.DEClash>
0.3600

> <Gold.Chemscore.DEInternal>
0.2239

> <Gold.Chemscore.Rot>
1.5626

> <Gold.Chemscore.Internal.Correction>
   9.000000E+99

> <Gold.Chemscore.Hbonds>
donor molecule, donor type, donor heavy atom, donor atom, acceptor molecule, acceptor atom, score
      P1  H  7989  7998       L1     7  0.66

> <Gold.Chemscore.Hbond.Weighted>
-2.9500

> <Gold.Chemscore.Metal.Weighted>
-0.0000

> <Gold.Chemscore.Lipo.Weighted>
-9.1919

> <Gold.Chemscore.Internal_Hbond.Weighted>
0.0000

> <Gold.Chemscore.DEClash.Weighted>
0.3600

> <Gold.Chemscore.DEInternal.Weighted>
0.2239

> <Gold.Chemscore.Rot.Weighted>
4.0004

> <Gold.Chemscore.Internal.Correction.Weighted>
   9.000000E+99

> <Gold.Protein.RotatedTorsions>
[ 6907 6896 6895 6894 ] final   57.45 input  -60.11 | X-H torsion
[ 7974 7965 7964 7962 ] final  -54.26 input  175.53 | X-H torsion
[ 8008 7997 7996 7995 ] final  -32.33 input   59.86 | X-H torsion
[ 10167 10162 10161 10158 ] final   88.21 input  -65.29 | X-H torsion
[ 10718 10713 10712 10709 ] final   -9.47 input   66.30 | X-H torsion
[ 10763 10752 10751 10750 ] final -155.30 input  -60.55 | X-H torsion
[ 11005 11000 10999 10996 ] final   -4.47 input  -57.11 | X-H torsion

> <Gold.Protein.ActiveResidues>
 VAL166  LYS551  ARG553  GLY616  TRP617  ASP618  TYR619  PRO620  LYS621  CYS622 
 ASP623  PHE694  ASN695  SER759  ASP760  ASP761  ALA762  ILE779  LEU786  VAL792 
 PHE793  MET794  SER795  GLU796  ALA797  LYS798  CYS799  TRP800  GLU811  SER814 

> <Gold.Protein.RotatedAtoms>
  152.3733  134.6702  160.0168 H   0  0  0  0  0  0  0  0  0  0  0  0  # atno 6907 bound_to 6896
  151.6988  133.3305  159.3269 H   0  0  0  0  0  0  0  0  0  0  0  0  # atno 6908 bound_to 6896
  150.7690  134.6569  159.6363 H   0  0  0  0  0  0  0  0  0  0  0  0  # atno 6909 bound_to 6896
  145.8876  140.8096  142.9808 H   0  0  0  0  0  0  0  0  0  0  0  0  # atno 7974 bound_to 7965
  154.4183  140.1740  156.1710 H   0  0  0  0  0  0  0  0  0  0  0  0  # atno 8008 bound_to 7997
  155.9760  140.3381  155.6595 H   0  0  0  0  0  0  0  0  0  0  0  0  # atno 8009 bound_to 7997
  155.6562  140.0696  157.2560 H   0  0  0  0  0  0  0  0  0  0  0  0  # atno 8010 bound_to 7997
  139.8696  144.6500  150.8964 H   0  0  0  0  0  0  0  0  0  0  0  0  # atno 10167 bound_to 10162
  156.6875  130.5055  149.5953 H   0  0  0  0  0  0  0  0  0  0  0  0  # atno 10718 bound_to 10713
  154.7797  135.3171  154.8017 H   0  0  0  0  0  0  0  0  0  0  0  0  # atno 10763 bound_to 10752
  153.8731  135.6842  153.4777 H   0  0  0  0  0  0  0  0  0  0  0  0  # atno 10764 bound_to 10752
  153.1430  135.4731  154.9461 H   0  0  0  0  0  0  0  0  0  0  0  0  # atno 10765 bound_to 10752
  140.6806  133.9157  155.8553 H   0  0  0  0  0  0  0  0  0  0  0  0  # atno 11005 bound_to 11000
  144.6729  140.1479  143.7432 LP  0  0  0  0  0  0  0  0  0  0  0  0  # atno 17320 bound_to 7965
  145.8948  139.2396  143.1528 LP  0  0  0  0  0  0  0  0  0  0  0  0  # atno 17321 bound_to 7965
  140.7763  143.3675  151.1711 LP  0  0  0  0  0  0  0  0  0  0  0  0  # atno 17342 bound_to 10162
  139.7296  143.9093  152.3015 LP  0  0  0  0  0  0  0  0  0  0  0  0  # atno 17343 bound_to 10162
  156.1822  130.6506  151.0964 LP  0  0  0  0  0  0  0  0  0  0  0  0  # atno 17370 bound_to 10713
  157.7021  131.0772  150.6787 LP  0  0  0  0  0  0  0  0  0  0  0  0  # atno 17371 bound_to 10713
  141.0321  134.0742  157.4002 LP  0  0  0  0  0  0  0  0  0  0  0  0  # atno 17394 bound_to 11000
  139.8953  135.0140  156.6994 LP  0  0  0  0  0  0  0  0  0  0  0  0  # atno 17395 bound_to 11000

$$$$
