AV-unprocessed.smi:1552|AV-procd|sdf|6237|dock4
  -GOLD-   22720 6423D 1   1.00000     0.00000
 Structure written by MMmdl.
 49 50  0  0  0  0  0  0  0  0  3 V2000
  148.4722  132.9544  152.7984 C   0  0  0  0  0  0  0  0  0  0  0  0
  148.0720  134.1386  153.5921 N   0  3  0  0  0  0  0  0  0  0  0  0
  149.0958  134.4738  154.6131 C   0  0  0  0  0  0  0  0  0  0  0  0
  146.6561  134.0627  154.0735 C   0  0  1  0  0  0  0  0  0  0  0  0
  146.2623  135.2236  155.0226 C   0  0  0  0  0  0  0  0  0  0  0  0
  145.9939  134.7504  156.3752 N   0  0  0  0  0  0  0  0  0  0  0  0
  146.5517  135.2054  157.5084 C   0  0  0  0  0  0  0  0  0  0  0  0
  147.4018  136.0935  157.4742 O   0  0  0  0  0  0  0  0  0  0  0  0
  146.1406  134.5778  158.8553 C   0  0  0  0  0  0  0  0  0  0  0  0
  146.7252  135.2709  160.0143 N   0  0  0  0  0  0  0  0  0  0  0  0
  147.4073  134.4949  160.9677 C   0  0  0  0  0  0  0  0  0  0  0  0
  147.9733  135.0461  162.0583 C   0  0  0  0  0  0  0  0  0  0  0  0
  147.8649  136.4887  162.2383 C   0  0  0  0  0  0  0  0  0  0  0  0
  148.3708  137.0082  163.2311 O   0  0  0  0  0  0  0  0  0  0  0  0
  147.1976  137.1992  161.2824 N   0  5  0  0  0  0  0  0  0  0  0  0
  146.6292  136.6254  160.1768 C   0  0  0  0  0  0  0  0  0  0  0  0
  146.0327  137.2847  159.3239 O   0  0  0  0  0  0  0  0  0  0  0  0
  145.6633  133.8220  152.8992 C   0  0  0  0  0  0  0  0  0  0  0  0
  145.5501  132.3259  152.5297 C   0  0  0  0  0  0  0  0  0  0  0  0
  144.4811  132.0878  151.4503 C   0  0  0  0  0  0  0  0  0  0  0  0
  144.7470  132.9420  150.2014 C   0  0  0  0  0  0  0  0  0  0  0  0
  144.8577  134.4314  150.5623 C   0  0  0  0  0  0  0  0  0  0  0  0
  145.9357  134.6644  151.6329 C   0  0  0  0  0  0  0  0  0  0  0  0
  148.4565  132.0515  153.4101 H   0  0  0  0  0  0  0  0  0  0  0  0
  149.4791  133.0790  152.3987 H   0  0  0  0  0  0  0  0  0  0  0  0
  147.8009  132.8089  151.9514 H   0  0  0  0  0  0  0  0  0  0  0  0
  149.2627  133.6416  155.2982 H   0  0  0  0  0  0  0  0  0  0  0  0
  148.8190  135.3474  155.2011 H   0  0  0  0  0  0  0  0  0  0  0  0
  150.0471  134.6978  154.1295 H   0  0  0  0  0  0  0  0  0  0  0  0
  146.5786  133.1606  154.6835 H   0  0  0  0  0  0  0  0  0  0  0  0
  147.0753  135.9499  155.0677 H   0  0  0  0  0  0  0  0  0  0  0  0
  145.3792  135.7474  154.6555 H   0  0  0  0  0  0  0  0  0  0  0  0
  145.3245  133.9996  156.4657 H   0  0  0  0  0  0  0  0  0  0  0  0
  145.0559  134.5615  158.9661 H   0  0  0  0  0  0  0  0  0  0  0  0
  146.4433  133.5297  158.8459 H   0  0  0  0  0  0  0  0  0  0  0  0
  147.4468  133.4363  160.7566 H   0  0  0  0  0  0  0  0  0  0  0  0
  148.4966  134.4365  162.7803 H   0  0  0  0  0  0  0  0  0  0  0  0
  144.6743  134.1119  153.2563 H   0  0  0  0  0  0  0  0  0  0  0  0
  146.5097  131.9535  152.1697 H   0  0  0  0  0  0  0  0  0  0  0  0
  145.3038  131.7381  153.4146 H   0  0  0  0  0  0  0  0  0  0  0  0
  144.4554  131.0319  151.1792 H   0  0  0  0  0  0  0  0  0  0  0  0
  143.4957  132.3267  151.8524 H   0  0  0  0  0  0  0  0  0  0  0  0
  145.6694  132.6121  149.7217 H   0  0  0  0  0  0  0  0  0  0  0  0
  143.9496  132.7934  149.4729 H   0  0  0  0  0  0  0  0  0  0  0  0
  145.0884  135.0129  149.6692 H   0  0  0  0  0  0  0  0  0  0  0  0
  143.8950  134.7935  150.9256 H   0  0  0  0  0  0  0  0  0  0  0  0
  145.9727  135.7258  151.8783 H   0  0  0  0  0  0  0  0  0  0  0  0
  146.9050  134.4037  151.2086 H   0  0  0  0  0  0  0  0  0  0  0  0
  148.0804  134.9058  152.9350 H   0  0  0  0  0  0  0  0  0  0  0  0
  1  2  1  0  0  0  0
  1 24  1  0  0  0  0
  1 25  1  0  0  0  0
  1 26  1  0  0  0  0
  2  3  1  0  0  0  0
  2  4  1  0  0  0  0
  2 49  1  0  0  0  0
  3 27  1  0  0  0  0
  3 28  1  0  0  0  0
  3 29  1  0  0  0  0
  4  5  1  0  0  0  0
  4 18  1  0  0  0  0
  4 30  1  0  0  0  0
  5  6  1  0  0  0  0
  5 31  1  0  0  0  0
  5 32  1  0  0  0  0
  6  7  1  0  0  0  0
  6 33  1  0  0  0  0
  7  8  2  0  0  0  0
  7  9  1  0  0  0  0
  9 10  1  0  0  0  0
  9 34  1  0  0  0  0
  9 35  1  0  0  0  0
 10 16  1  0  0  0  0
 10 11  1  0  0  0  0
 11 12  2  0  0  0  0
 11 36  1  0  0  0  0
 12 13  1  0  0  0  0
 12 37  1  0  0  0  0
 13 14  2  0  0  0  0
 13 15  1  0  0  0  0
 15 16  1  0  0  0  0
 16 17  2  0  0  0  0
 18 23  1  0  0  0  0
 18 19  1  0  0  0  0
 18 38  1  0  0  0  0
 19 20  1  0  0  0  0
 19 39  1  0  0  0  0
 19 40  1  0  0  0  0
 20 21  1  0  0  0  0
 20 41  1  0  0  0  0
 20 42  1  0  0  0  0
 21 22  1  0  0  0  0
 21 43  1  0  0  0  0
 21 44  1  0  0  0  0
 22 23  1  0  0  0  0
 22 45  1  0  0  0  0
 22 46  1  0  0  0  0
 23 47  1  0  0  0  0
 23 48  1  0  0  0  0
M  CHG  1   2   1
M  CHG  1  15  -1
M  END
> <s_m_source_file>
AV-unprocessed.smi

> <i_m_source_file_index>
1552

> <i_lp_mmshare_version>
43012

> <i_f3d_flags>
0

> <s_epik_input>
W0NIMl0xW0NIMl1bQ0gyXVtDSDJdW0NIMl1bQ0hdMVtDQEhdKE4oW0NIM10pW0NIM10pW0NIMl1bTkhdQyg9TylbQ0gyXW4yW2NIXVtjSF1jKD1PKVtuSF1jMj1P

> <s_epik_cmdline>
J2VwaWtfcHl0aG9uJywgJy1waCcsICc3LjAnLCAnLXRuJywgJzgnLCAnLW1hJywgJzIwMCcsICctbWV0YWxfYmluZGluZycsICctaW1hZScsICc8aW5maWxlLm1hZT4nLCAnLW9tYWUnLCAnPG91dGZpbGUubWFlPic=

> <r_lp_tautomer_probability>
1

> <r_epik_Ionization_Penalty>
2.93575

> <r_epik_Ionization_Penalty_Charging>
0.00331645

> <r_epik_Ionization_Penalty_Neutral>
2.93244

> <r_epik_State_Penalty>
2.92822

> <r_epik_Charging_Adjusted_Penalty>
2.93154

> <i_epik_Tot_Q>
0

> <i_epik_Tot_abs_Q>
2

> <r_epik_Metal_State_Penalty>
0.448509

> <b_epik_Metal_Only>
1

> <s_lp_Force_Field>
OPLS_2005

> <r_lp_Energy>
36.4882

> <b_lp_Chiralities_Consistent>
1

> <s_lp_Variant>
AV-unprocessed.smi:1552-4

> <Gold.Version>
5.8.1

> <Gold.Id.Protein>
6NUR|6NUR_protein|mol2

> <Gold.PLP.Fitness>
42.1072

> <Gold.PLP.PLP>
-32.1588

> <Gold.PLP.part.hbond>
-3.3738

> <Gold.PLP.part.metal>
0.0000

> <Gold.PLP.part.buried>
-4.3632

> <Gold.PLP.part.nonpolar>
-23.6743

> <Gold.PLP.part.repulsive>
0.0300

> <Gold.PLP.ligand.clash>
0.0000

> <Gold.PLP.ligand.torsion>
1.5388

> <Gold.PLP.Chemscore.Hbond>
4.1520

> <Gold.PLP.Chemscore.CHOScore>
0.0000

> <Gold.PLP.Chemscore.Metal>
0.0000

> <Gold.Chemscore.Hbonds>
donor molecule, donor type, donor heavy atom, donor atom, acceptor molecule, acceptor atom, score
      L1  H     2    49       P1  7948  2.00
      P1  H  6931  6943       L1    14  0.13
      P1  H  6934  6947       L1    15  2.00

> <Gold.PLP.Chemscore.Internal.Correction>
0.5700

> <Gold.Rescore>
     Score         DG    S(hbond)    S(metal)    S(lipo)     H(rot)  DE(clash)    DE(int)     intcor
      6.55     -12.52       1.62        0.00      66.98       2.43       0.24       5.72       ----

> <Gold.Chemscore.Fitness>
6.5533

> <Gold.Chemscore.DG>
-12.5176

> <Gold.Chemscore.ZeroCoef>
-5.4800

> <Gold.Chemscore.Hbond>
1.6238

> <Gold.Chemscore.Metal>
0.0000

> <Gold.Chemscore.Lipo>
66.9752

> <Gold.Chemscore.Internal_Hbond>
0.0000

> <Gold.Chemscore.DEClash>
0.2412

> <Gold.Chemscore.DEInternal>
5.7231

> <Gold.Chemscore.Rot>
2.4305

> <Gold.Chemscore.Internal.Correction>
   9.000000E+99

> <Gold.Chemscore.Hbonds>
donor molecule, donor type, donor heavy atom, donor atom, acceptor molecule, acceptor atom, score
      L1  H     2    49       P1  7948  0.88
      P1  H  6934  6947       L1    15  0.48

> <Gold.Chemscore.Hbond.Weighted>
-5.4235

> <Gold.Chemscore.Metal.Weighted>
-0.0000

> <Gold.Chemscore.Lipo.Weighted>
-7.8361

> <Gold.Chemscore.Internal_Hbond.Weighted>
0.0000

> <Gold.Chemscore.DEClash.Weighted>
0.2412

> <Gold.Chemscore.DEInternal.Weighted>
5.7231

> <Gold.Chemscore.Rot.Weighted>
6.2220

> <Gold.Chemscore.Internal.Correction.Weighted>
   9.000000E+99

> <Gold.Protein.RotatedTorsions>
[ 6907 6896 6895 6894 ] final -100.28 input  -60.11 | X-H torsion
[ 7974 7965 7964 7962 ] final  150.50 input  175.53 | X-H torsion
[ 8008 7997 7996 7995 ] final  108.96 input   59.86 | X-H torsion
[ 10167 10162 10161 10158 ] final  -71.73 input  -65.29 | X-H torsion
[ 10718 10713 10712 10709 ] final   44.04 input   66.30 | X-H torsion
[ 10763 10752 10751 10750 ] final -164.86 input  -60.55 | X-H torsion
[ 11005 11000 10999 10996 ] final   46.17 input  -57.11 | X-H torsion

> <Gold.Protein.ActiveResidues>
 VAL166  LYS551  ARG553  GLY616  TRP617  ASP618  TYR619  PRO620  LYS621  CYS622 
 ASP623  PHE694  ASN695  SER759  ASP760  ASP761  ALA762  ILE779  LEU786  VAL792 
 PHE793  MET794  SER795  GLU796  ALA797  LYS798  CYS799  TRP800  GLU811  SER814 

> <Gold.Protein.RotatedAtoms>
  150.7110  134.0911  159.3931 H   0  0  0  0  0  0  0  0  0  0  0  0  # atno 6907 bound_to 6896
  151.8896  135.0419  160.0506 H   0  0  0  0  0  0  0  0  0  0  0  0  # atno 6908 bound_to 6896
  152.2502  133.5173  159.5357 H   0  0  0  0  0  0  0  0  0  0  0  0  # atno 6909 bound_to 6896
  144.8359  139.6417  143.6038 H   0  0  0  0  0  0  0  0  0  0  0  0  # atno 7974 bound_to 7965
  156.1943  140.3067  155.9395 H   0  0  0  0  0  0  0  0  0  0  0  0  # atno 8008 bound_to 7997
  155.3103  140.0450  157.3051 H   0  0  0  0  0  0  0  0  0  0  0  0  # atno 8009 bound_to 7997
  154.5490  140.2285  155.8525 H   0  0  0  0  0  0  0  0  0  0  0  0  # atno 8010 bound_to 7997
  140.5249  143.2327  151.7364 H   0  0  0  0  0  0  0  0  0  0  0  0  # atno 10167 bound_to 10162
  157.4225  130.7977  149.7528 H   0  0  0  0  0  0  0  0  0  0  0  0  # atno 10718 bound_to 10713
  154.6988  135.2984  154.9372 H   0  0  0  0  0  0  0  0  0  0  0  0  # atno 10763 bound_to 10752
  154.0311  135.6670  153.4785 H   0  0  0  0  0  0  0  0  0  0  0  0  # atno 10764 bound_to 10752
  153.0666  135.5085  154.8120 H   0  0  0  0  0  0  0  0  0  0  0  0  # atno 10765 bound_to 10752
  140.1393  134.4603  155.8461 H   0  0  0  0  0  0  0  0  0  0  0  0  # atno 11005 bound_to 11000
  146.2658  139.6517  142.9330 LP  0  0  0  0  0  0  0  0  0  0  0  0  # atno 17320 bound_to 7965
  145.4795  141.0437  143.2654 LP  0  0  0  0  0  0  0  0  0  0  0  0  # atno 17321 bound_to 7965
  139.4935  144.4200  151.9988 LP  0  0  0  0  0  0  0  0  0  0  0  0  # atno 17342 bound_to 10162
  140.3299  144.3329  150.5990 LP  0  0  0  0  0  0  0  0  0  0  0  0  # atno 17343 bound_to 10162
  155.9885  130.3958  150.3114 LP  0  0  0  0  0  0  0  0  0  0  0  0  # atno 17370 bound_to 10713
  157.1263  131.0260  151.2988 LP  0  0  0  0  0  0  0  0  0  0  0  0  # atno 17371 bound_to 10713
  141.2183  133.6827  156.7217 LP  0  0  0  0  0  0  0  0  0  0  0  0  # atno 17394 bound_to 11000
  140.2742  134.8368  157.3875 LP  0  0  0  0  0  0  0  0  0  0  0  0  # atno 17395 bound_to 11000

$$$$
