AV-unprocessed.smi:834|AV-procd|sdf|3885|dock8
  -GOLD-   22720 1343D 1   1.00000     0.00000
 Structure written by MMmdl.
 38 39  0  0  0  0  0  0  0  0  2 V2000
  145.3330  133.4106  163.0894 C   0  0  0  0  0  0  0  0  0  0  0  0
  146.1877  134.2355  162.1897 C   0  0  0  0  0  0  0  0  0  0  0  0
  146.6159  133.8020  161.0016 N   0  0  0  0  0  0  0  0  0  0  0  0
  147.3957  134.7467  160.3506 N   0  0  0  0  0  0  0  0  0  0  0  0
  147.5566  135.8739  161.0581 C   0  0  0  0  0  0  0  0  0  0  0  0
  148.2745  136.9137  160.6025 N   0  5  0  0  0  0  0  0  0  0  0  0
  149.0743  136.7622  159.5223 C   0  0  0  0  0  0  0  0  0  0  0  0
  149.3401  135.7009  158.9532 O   0  0  0  0  0  0  0  0  0  0  0  0
  149.6029  137.9111  159.0771 N   0  0  0  0  0  0  0  0  0  0  0  0
  150.5079  138.0532  157.9412 C   0  0  0  0  0  0  0  0  0  0  0  0
  150.8088  139.5354  157.6433 C   0  0  0  0  0  0  0  0  0  0  0  0
  151.8887  140.1396  158.5466 C   0  0  0  0  0  0  0  0  0  0  0  0
  152.7668  139.4361  159.0479 O   0  0  0  0  0  0  0  0  0  0  0  0
  151.8123  141.4652  158.7400 N   0  0  0  0  0  0  0  0  0  0  0  0
  152.7330  142.2511  159.5573 C   0  0  0  0  0  0  0  0  0  0  0  0
  152.7322  141.7552  161.0163 C   0  0  0  0  0  0  0  0  0  0  0  0
  152.6069  143.0055  161.8887 C   0  0  0  0  0  0  0  0  0  0  0  0
  151.8124  143.9846  161.0309 C   0  0  0  0  0  0  0  0  0  0  0  0
  152.3220  143.7371  159.6108 C   0  0  0  0  0  0  0  0  0  0  0  0
  146.7173  135.8559  162.6090 S   0  0  0  0  0  0  0  0  0  0  0  0
  145.9526  132.7161  163.6566 H   0  0  0  0  0  0  0  0  0  0  0  0
  144.6082  132.8415  162.5067 H   0  0  0  0  0  0  0  0  0  0  0  0
  144.7926  134.0498  163.7877 H   0  0  0  0  0  0  0  0  0  0  0  0
  149.3567  138.7556  159.5720 H   0  0  0  0  0  0  0  0  0  0  0  0
  151.4296  137.4982  158.1255 H   0  0  0  0  0  0  0  0  0  0  0  0
  150.0299  137.5858  157.0798 H   0  0  0  0  0  0  0  0  0  0  0  0
  151.1304  139.6441  156.6067 H   0  0  0  0  0  0  0  0  0  0  0  0
  149.8988  140.1271  157.7524 H   0  0  0  0  0  0  0  0  0  0  0  0
  151.0589  141.9655  158.2908 H   0  0  0  0  0  0  0  0  0  0  0  0
  153.7418  142.1679  159.1480 H   0  0  0  0  0  0  0  0  0  0  0  0
  151.8730  141.1085  161.2014 H   0  0  0  0  0  0  0  0  0  0  0  0
  153.6261  141.1784  161.2562 H   0  0  0  0  0  0  0  0  0  0  0  0
  152.1292  142.8029  162.8477 H   0  0  0  0  0  0  0  0  0  0  0  0
  153.5979  143.4149  162.0894 H   0  0  0  0  0  0  0  0  0  0  0  0
  150.7498  143.7451  161.0876 H   0  0  0  0  0  0  0  0  0  0  0  0
  151.9388  145.0204  161.3472 H   0  0  0  0  0  0  0  0  0  0  0  0
  153.2013  144.3570  159.4314 H   0  0  0  0  0  0  0  0  0  0  0  0
  151.5801  144.0126  158.8599 H   0  0  0  0  0  0  0  0  0  0  0  0
  1  2  1  0  0  0  0
  1 21  1  0  0  0  0
  1 22  1  0  0  0  0
  1 23  1  0  0  0  0
  2 20  1  0  0  0  0
  2  3  2  0  0  0  0
  3  4  1  0  0  0  0
  4  5  2  0  0  0  0
  5  6  1  0  0  0  0
  5 20  1  0  0  0  0
  6  7  1  0  0  0  0
  7  8  2  0  0  0  0
  7  9  1  0  0  0  0
  9 10  1  0  0  0  0
  9 24  1  0  0  0  0
 10 11  1  0  0  0  0
 10 25  1  0  0  0  0
 10 26  1  0  0  0  0
 11 12  1  0  0  0  0
 11 27  1  0  0  0  0
 11 28  1  0  0  0  0
 12 13  2  0  0  0  0
 12 14  1  0  0  0  0
 14 15  1  0  0  0  0
 14 29  1  0  0  0  0
 15 19  1  0  0  0  0
 15 16  1  0  0  0  0
 15 30  1  0  0  0  0
 16 17  1  0  0  0  0
 16 31  1  0  0  0  0
 16 32  1  0  0  0  0
 17 18  1  0  0  0  0
 17 33  1  0  0  0  0
 17 34  1  0  0  0  0
 18 19  1  0  0  0  0
 18 35  1  0  0  0  0
 18 36  1  0  0  0  0
 19 37  1  0  0  0  0
 19 38  1  0  0  0  0
M  CHG  1   6  -1
M  END
> <s_m_source_file>
AV-unprocessed.smi

> <i_m_source_file_index>
834

> <i_lp_mmshare_version>
43012

> <i_f3d_flags>
0

> <s_epik_input>
W0NIM11jMW5uYyhzMSlbTkhdQyg9TylbTkhdW0NIMl1bQ0gyXUMoPU8pW05IXVtDSF0yW0NIMl1bQ0gyXVtDSDJdW0NIMl0y

> <s_epik_cmdline>
J2VwaWtfcHl0aG9uJywgJy1waCcsICc3LjAnLCAnLXRuJywgJzgnLCAnLW1hJywgJzIwMCcsICctbWV0YWxfYmluZGluZycsICctaW1hZScsICc8aW5maWxlLm1hZT4nLCAnLW9tYWUnLCAnPG91dGZpbGUubWFlPic=

> <r_lp_tautomer_probability>
1

> <r_epik_Ionization_Penalty>
3.40129

> <r_epik_Ionization_Penalty_Charging>
3.26946

> <r_epik_Ionization_Penalty_Neutral>
0.131835

> <r_epik_State_Penalty>
3.26707

> <r_epik_Charging_Adjusted_Penalty>
6.53653

> <i_epik_Tot_Q>
-1

> <i_epik_Tot_abs_Q>
1

> <r_epik_Metal_State_Penalty>
0.478667

> <b_epik_Metal_Only>
1

> <s_lp_Force_Field>
OPLS_2005

> <r_lp_Energy>
15.9775

> <b_lp_Chiralities_Consistent>
1

> <s_lp_Variant>
AV-unprocessed.smi:834-2

> <Gold.Version>
5.8.1

> <Gold.Id.Protein>
6NUR|6NUR_protein|mol2

> <Gold.PLP.Fitness>
48.7510

> <Gold.PLP.PLP>
-39.0415

> <Gold.PLP.part.hbond>
-3.0000

> <Gold.PLP.part.metal>
0.0000

> <Gold.PLP.part.buried>
-5.8442

> <Gold.PLP.part.nonpolar>
-31.0937

> <Gold.PLP.part.repulsive>
0.3309

> <Gold.PLP.ligand.clash>
0.0000

> <Gold.PLP.ligand.torsion>
0.5332

> <Gold.PLP.Chemscore.Hbond>
3.5538

> <Gold.PLP.Chemscore.CHOScore>
0.0000

> <Gold.PLP.Chemscore.Metal>
0.0000

> <Gold.Chemscore.Hbonds>
donor molecule, donor type, donor heavy atom, donor atom, acceptor molecule, acceptor atom, score
      P1  H  6896  6907       L1     8  1.00
      P1  H  6931  6943       L1     6  1.79
      P1  H  6934  6947       L1     6  0.13

> <Gold.PLP.Chemscore.Internal.Correction>
0.1143

> <Gold.Rescore>
     Score         DG    S(hbond)    S(metal)    S(lipo)     H(rot)  DE(clash)    DE(int)     intcor
     13.51     -17.01       1.79        0.00      89.91       1.95       0.03       3.47       ----

> <Gold.Chemscore.Fitness>
13.5128

> <Gold.Chemscore.DG>
-17.0063

> <Gold.Chemscore.ZeroCoef>
-5.4800

> <Gold.Chemscore.Hbond>
1.7924

> <Gold.Chemscore.Metal>
0.0000

> <Gold.Chemscore.Lipo>
89.9149

> <Gold.Chemscore.Internal_Hbond>
0.0000

> <Gold.Chemscore.DEClash>
0.0276

> <Gold.Chemscore.DEInternal>
3.4659

> <Gold.Chemscore.Rot>
1.9455

> <Gold.Chemscore.Internal.Correction>
   9.000000E+99

> <Gold.Chemscore.Hbonds>
donor molecule, donor type, donor heavy atom, donor atom, acceptor molecule, acceptor atom, score
      P1  H  6896  6907       L1     8  0.94
      P1  H  6931  6943       L1     6  0.64
      P1  H  6934  6947       L1     6  0.08

> <Gold.Chemscore.Hbond.Weighted>
-5.9868

> <Gold.Chemscore.Metal.Weighted>
-0.0000

> <Gold.Chemscore.Lipo.Weighted>
-10.5200

> <Gold.Chemscore.Internal_Hbond.Weighted>
0.0000

> <Gold.Chemscore.DEClash.Weighted>
0.0276

> <Gold.Chemscore.DEInternal.Weighted>
3.4659

> <Gold.Chemscore.Rot.Weighted>
4.9805

> <Gold.Chemscore.Internal.Correction.Weighted>
   9.000000E+99

> <Gold.Protein.RotatedTorsions>
[ 6907 6896 6895 6894 ] final  -59.57 input  -60.11 | X-H torsion
[ 7974 7965 7964 7962 ] final  124.19 input  175.53 | X-H torsion
[ 8008 7997 7996 7995 ] final  141.86 input   59.86 | X-H torsion
[ 10167 10162 10161 10158 ] final    6.10 input  -65.29 | X-H torsion
[ 10718 10713 10712 10709 ] final   12.14 input   66.30 | X-H torsion
[ 10763 10752 10751 10750 ] final -144.45 input  -60.55 | X-H torsion
[ 11005 11000 10999 10996 ] final  -44.51 input  -57.11 | X-H torsion

> <Gold.Protein.ActiveResidues>
 VAL166  LYS551  ARG553  GLY616  TRP617  ASP618  TYR619  PRO620  LYS621  CYS622 
 ASP623  PHE694  ASN695  SER759  ASP760  ASP761  ALA762  ILE779  LEU786  VAL792 
 PHE793  MET794  SER795  GLU796  ALA797  LYS798  CYS799  TRP800  GLU811  SER814 

> <Gold.Protein.RotatedAtoms>
  150.7921  134.6952  159.6518 H   0  0  0  0  0  0  0  0  0  0  0  0  # atno 6907 bound_to 6896
  152.4027  134.6255  160.0072 H   0  0  0  0  0  0  0  0  0  0  0  0  # atno 6908 bound_to 6896
  151.6521  133.3283  159.3190 H   0  0  0  0  0  0  0  0  0  0  0  0  # atno 6909 bound_to 6896
  145.0872  139.3613  143.4879 H   0  0  0  0  0  0  0  0  0  0  0  0  # atno 7974 bound_to 7965
  156.2959  140.2304  156.4634 H   0  0  0  0  0  0  0  0  0  0  0  0  # atno 8008 bound_to 7997
  154.7998  140.0449  157.1285 H   0  0  0  0  0  0  0  0  0  0  0  0  # atno 8009 bound_to 7997
  154.9546  140.3046  155.5062 H   0  0  0  0  0  0  0  0  0  0  0  0  # atno 8010 bound_to 7997
  140.6446  143.7693  150.7479 H   0  0  0  0  0  0  0  0  0  0  0  0  # atno 10167 bound_to 10162
  157.0058  130.6097  149.5702 H   0  0  0  0  0  0  0  0  0  0  0  0  # atno 10718 bound_to 10713
  154.8427  135.3440  154.6348 H   0  0  0  0  0  0  0  0  0  0  0  0  # atno 10763 bound_to 10752
  153.6959  135.6972  153.5081 H   0  0  0  0  0  0  0  0  0  0  0  0  # atno 10764 bound_to 10752
  153.2560  135.4338  155.0800 H   0  0  0  0  0  0  0  0  0  0  0  0  # atno 10765 bound_to 10752
  141.0455  133.6763  156.2883 H   0  0  0  0  0  0  0  0  0  0  0  0  # atno 11005 bound_to 11000
  146.3531  140.0690  142.8624 LP  0  0  0  0  0  0  0  0  0  0  0  0  # atno 17320 bound_to 7965
  145.1108  140.9404  143.4657 LP  0  0  0  0  0  0  0  0  0  0  0  0  # atno 17321 bound_to 7965
  140.1331  143.4508  152.2241 LP  0  0  0  0  0  0  0  0  0  0  0  0  # atno 17342 bound_to 10162
  139.5656  144.7433  151.4032 LP  0  0  0  0  0  0  0  0  0  0  0  0  # atno 17343 bound_to 10162
  156.0154  130.5248  150.8118 LP  0  0  0  0  0  0  0  0  0  0  0  0  # atno 17370 bound_to 10713
  157.5357  131.0938  150.9896 LP  0  0  0  0  0  0  0  0  0  0  0  0  # atno 17371 bound_to 10713
  140.6154  134.5415  157.5540 LP  0  0  0  0  0  0  0  0  0  0  0  0  # atno 17394 bound_to 11000
  139.9308  134.7967  156.0935 LP  0  0  0  0  0  0  0  0  0  0  0  0  # atno 17395 bound_to 11000

$$$$
