AV-unprocessed.smi:1844|AV-procd|sdf|7511|dock5
  -GOLD-   22720 9213D 1   1.00000     0.00000
 Structure written by MMmdl.
 45 46  0  0  0  0  0  0  0  0  1 V2000
  146.5167  138.7520  151.9281 C   0  0  0  0  0  0  0  0  0  0  0  0
  147.7345  138.8142  152.7222 N   0  0  0  0  0  0  0  0  0  0  0  0
  147.9453  139.6817  153.7258 C   0  0  0  0  0  0  0  0  0  0  0  0
  147.0949  140.5110  154.0533 O   0  0  0  0  0  0  0  0  0  0  0  0
  149.2550  139.5390  154.3664 C   0  0  0  0  0  0  0  0  0  0  0  0
  150.0010  138.2893  154.3856 C   0  0  0  0  0  0  0  0  0  0  0  0
  151.2149  138.2245  154.9669 C   0  0  0  0  0  0  0  0  0  0  0  0
  151.8319  139.3941  155.5992 C   0  0  0  0  0  0  0  0  0  0  0  0
  152.9515  139.3463  156.1085 O   0  0  0  0  0  0  0  0  0  0  0  0
  151.0881  140.5414  155.5788 N   0  0  0  0  0  0  0  0  0  0  0  0
  151.6033  141.7903  156.1691 C   0  0  0  0  0  0  0  0  0  0  0  0
  151.2607  141.9853  157.6565 C   0  0  0  0  0  0  0  0  0  0  0  0
  150.0833  141.9397  158.0105 O   0  0  0  0  0  0  0  0  0  0  0  0
  152.2715  142.2076  158.5137 N   0  0  0  0  0  0  0  0  0  0  0  0
  152.1436  142.4636  159.9448 C   0  0  1  0  0  0  0  0  0  0  0  0
  153.1898  141.6386  160.7234 C   0  0  0  0  0  0  0  0  0  0  0  0
  153.1291  141.9278  162.2302 C   0  0  0  0  0  0  0  0  0  0  0  0
  153.2944  143.4277  162.5114 C   0  0  0  0  0  0  0  0  0  0  0  0
  152.2479  144.2515  161.7458 C   0  0  0  0  0  0  0  0  0  0  0  0
  152.3012  143.9782  160.2291 C   0  0  2  0  0  0  0  0  0  0  0  0
  151.2582  144.8324  159.4851 C   0  0  0  0  0  0  0  0  0  0  0  0
  149.8227  140.6051  154.9633 C   0  0  0  0  0  0  0  0  0  0  0  0
  146.5928  137.9499  151.1939 H   0  0  0  0  0  0  0  0  0  0  0  0
  146.3533  139.6891  151.3942 H   0  0  0  0  0  0  0  0  0  0  0  0
  145.6497  138.5545  152.5599 H   0  0  0  0  0  0  0  0  0  0  0  0
  148.4659  138.1553  152.4970 H   0  0  0  0  0  0  0  0  0  0  0  0
  149.6032  137.3901  153.9390 H   0  0  0  0  0  0  0  0  0  0  0  0
  151.7494  137.2860  154.9682 H   0  0  0  0  0  0  0  0  0  0  0  0
  152.6889  141.8237  156.0666 H   0  0  0  0  0  0  0  0  0  0  0  0
  151.2446  142.6594  155.6148 H   0  0  0  0  0  0  0  0  0  0  0  0
  153.2080  142.2267  158.1371 H   0  0  0  0  0  0  0  0  0  0  0  0
  151.1464  142.1590  160.2691 H   0  0  0  0  0  0  0  0  0  0  0  0
  153.0332  140.5729  160.5528 H   0  0  0  0  0  0  0  0  0  0  0  0
  154.1900  141.8658  160.3516 H   0  0  0  0  0  0  0  0  0  0  0  0
  152.1752  141.5824  162.6304 H   0  0  0  0  0  0  0  0  0  0  0  0
  153.9046  141.3636  162.7488 H   0  0  0  0  0  0  0  0  0  0  0  0
  153.2058  143.6174  163.5815 H   0  0  0  0  0  0  0  0  0  0  0  0
  154.2964  143.7467  162.2223 H   0  0  0  0  0  0  0  0  0  0  0  0
  151.2530  144.0174  162.1270 H   0  0  0  0  0  0  0  0  0  0  0  0
  152.4090  145.3125  161.9400 H   0  0  0  0  0  0  0  0  0  0  0  0
  153.2858  144.2874  159.8744 H   0  0  0  0  0  0  0  0  0  0  0  0
  150.2434  144.5507  159.7674 H   0  0  0  0  0  0  0  0  0  0  0  0
  151.3446  144.7265  158.4033 H   0  0  0  0  0  0  0  0  0  0  0  0
  151.3843  145.8907  159.7147 H   0  0  0  0  0  0  0  0  0  0  0  0
  149.3614  141.5825  154.9996 H   0  0  0  0  0  0  0  0  0  0  0  0
  1  2  1  0  0  0  0
  1 23  1  0  0  0  0
  1 24  1  0  0  0  0
  1 25  1  0  0  0  0
  2  3  1  0  0  0  0
  2 26  1  0  0  0  0
  3  4  2  0  0  0  0
  3  5  1  0  0  0  0
  5 22  2  0  0  0  0
  5  6  1  0  0  0  0
  6  7  2  0  0  0  0
  6 27  1  0  0  0  0
  7  8  1  0  0  0  0
  7 28  1  0  0  0  0
  8  9  2  0  0  0  0
  8 10  1  0  0  0  0
 10 11  1  0  0  0  0
 10 22  1  0  0  0  0
 11 12  1  0  0  0  0
 11 29  1  0  0  0  0
 11 30  1  0  0  0  0
 12 13  2  0  0  0  0
 12 14  1  0  0  0  0
 14 15  1  0  0  0  0
 14 31  1  0  0  0  0
 15 20  1  0  0  0  0
 15 16  1  0  0  0  0
 15 32  1  0  0  0  0
 16 17  1  0  0  0  0
 16 33  1  0  0  0  0
 16 34  1  0  0  0  0
 17 18  1  0  0  0  0
 17 35  1  0  0  0  0
 17 36  1  0  0  0  0
 18 19  1  0  0  0  0
 18 37  1  0  0  0  0
 18 38  1  0  0  0  0
 19 20  1  0  0  0  0
 19 39  1  0  0  0  0
 19 40  1  0  0  0  0
 20 21  1  0  0  0  0
 20 41  1  0  0  0  0
 21 42  1  0  0  0  0
 21 43  1  0  0  0  0
 21 44  1  0  0  0  0
 22 45  1  0  0  0  0
M  END
> <s_m_source_file>
AV-unprocessed.smi

> <i_m_source_file_index>
1844

> <i_lp_mmshare_version>
43012

> <i_f3d_flags>
0

> <s_epik_input>
W0NIM11bTkhdQyg9TyljMVtjSF1bY0hdYyg9TyluKFtjSF0xKVtDSDJdQyg9TylbTkhdW0NAQEhdMltDSDJdW0NIMl1bQ0gyXVtDSDJdW0NASF0yW0NIM10=

> <s_epik_cmdline>
J2VwaWtfcHl0aG9uJywgJy1waCcsICc3LjAnLCAnLXRuJywgJzgnLCAnLW1hJywgJzIwMCcsICctbWV0YWxfYmluZGluZycsICctaW1hZScsICc8aW5maWxlLm1hZT4nLCAnLW9tYWUnLCAnPG91dGZpbGUubWFlPic=

> <r_lp_tautomer_probability>
1

> <r_epik_Ionization_Penalty>
3.66612e-07

> <r_epik_Ionization_Penalty_Charging>
5.18929e-08

> <r_epik_Ionization_Penalty_Neutral>
3.14719e-07

> <r_epik_State_Penalty>
-0

> <r_epik_Charging_Adjusted_Penalty>
5.18929e-08

> <i_epik_Tot_Q>
0

> <i_epik_Tot_abs_Q>
0

> <r_epik_Metal_State_Penalty>
-0

> <b_epik_Metal_Only>
0

> <s_lp_Force_Field>
OPLS_2005

> <r_lp_Energy>
22.567

> <b_lp_Chiralities_Consistent>
1

> <s_lp_Variant>
AV-unprocessed.smi:1844-4

> <Gold.Version>
5.8.1

> <Gold.Id.Protein>
6NUR|6NUR_protein|mol2

> <Gold.PLP.Fitness>
52.9085

> <Gold.PLP.PLP>
-48.9346

> <Gold.PLP.part.hbond>
-3.0000

> <Gold.PLP.part.metal>
0.0000

> <Gold.PLP.part.buried>
-4.9580

> <Gold.PLP.part.nonpolar>
-41.0279

> <Gold.PLP.part.repulsive>
0.3256

> <Gold.PLP.ligand.clash>
0.0000

> <Gold.PLP.ligand.torsion>
0.9237

> <Gold.PLP.Chemscore.Hbond>
1.9280

> <Gold.PLP.Chemscore.CHOScore>
0.0000

> <Gold.PLP.Chemscore.Metal>
0.0000

> <Gold.Chemscore.Hbonds>
donor molecule, donor type, donor heavy atom, donor atom, acceptor molecule, acceptor atom, score
      L1  H     2    26       P1  7948  0.90
      P1  H  7997  8010       L1     9  1.00

> <Gold.PLP.Chemscore.Internal.Correction>
0.0373

> <Gold.Rescore>
     Score         DG    S(hbond)    S(metal)    S(lipo)     H(rot)  DE(clash)    DE(int)     intcor
     19.69     -21.33       1.89        0.00     114.10       1.49       0.56       1.07       ----

> <Gold.Chemscore.Fitness>
19.6871

> <Gold.Chemscore.DG>
-21.3264

> <Gold.Chemscore.ZeroCoef>
-5.4800

> <Gold.Chemscore.Hbond>
1.8915

> <Gold.Chemscore.Metal>
0.0000

> <Gold.Chemscore.Lipo>
114.0951

> <Gold.Chemscore.Internal_Hbond>
0.0000

> <Gold.Chemscore.DEClash>
0.5647

> <Gold.Chemscore.DEInternal>
1.0746

> <Gold.Chemscore.Rot>
1.4923

> <Gold.Chemscore.Internal.Correction>
   9.000000E+99

> <Gold.Chemscore.Hbonds>
donor molecule, donor type, donor heavy atom, donor atom, acceptor molecule, acceptor atom, score
      L1  H     2    26       P1  7948  0.83
      P1  H  7997  8010       L1     9  0.99

> <Gold.Chemscore.Hbond.Weighted>
-6.3177

> <Gold.Chemscore.Metal.Weighted>
-0.0000

> <Gold.Chemscore.Lipo.Weighted>
-13.3491

> <Gold.Chemscore.Internal_Hbond.Weighted>
0.0000

> <Gold.Chemscore.DEClash.Weighted>
0.5647

> <Gold.Chemscore.DEInternal.Weighted>
1.0746

> <Gold.Chemscore.Rot.Weighted>
3.8204

> <Gold.Chemscore.Internal.Correction.Weighted>
   9.000000E+99

> <Gold.Protein.RotatedTorsions>
[ 6907 6896 6895 6894 ] final  135.34 input  -60.11 | X-H torsion
[ 7974 7965 7964 7962 ] final -114.24 input  175.53 | X-H torsion
[ 8008 7997 7996 7995 ] final   67.44 input   59.86 | X-H torsion
[ 10167 10162 10161 10158 ] final  -98.29 input  -65.29 | X-H torsion
[ 10718 10713 10712 10709 ] final   19.93 input   66.30 | X-H torsion
[ 10763 10752 10751 10750 ] final  -18.93 input  -60.55 | X-H torsion
[ 11005 11000 10999 10996 ] final  -81.14 input  -57.11 | X-H torsion

> <Gold.Protein.ActiveResidues>
 VAL166  LYS551  ARG553  GLY616  TRP617  ASP618  TYR619  PRO620  LYS621  CYS622 
 ASP623  PHE694  ASN695  SER759  ASP760  ASP761  ALA762  ILE779  LEU786  VAL792 
 PHE793  MET794  SER795  GLU796  ALA797  LYS798  CYS799  TRP800  GLU811  SER814 

> <Gold.Protein.RotatedAtoms>
  152.3015  133.5660  159.5621 H   0  0  0  0  0  0  0  0  0  0  0  0  # atno 6907 bound_to 6896
  150.7280  134.0284  159.3734 H   0  0  0  0  0  0  0  0  0  0  0  0  # atno 6908 bound_to 6896
  151.8183  135.0660  160.0472 H   0  0  0  0  0  0  0  0  0  0  0  0  # atno 6909 bound_to 6896
  145.1225  140.8677  143.3805 H   0  0  0  0  0  0  0  0  0  0  0  0  # atno 7974 bound_to 7965
  155.6928  140.3496  155.4901 H   0  0  0  0  0  0  0  0  0  0  0  0  # atno 8008 bound_to 7997
  155.9509  140.1119  157.1000 H   0  0  0  0  0  0  0  0  0  0  0  0  # atno 8009 bound_to 7997
  154.4122  140.1194  156.5037 H   0  0  0  0  0  0  0  0  0  0  0  0  # atno 8010 bound_to 7997
  140.2745  143.3322  152.0502 H   0  0  0  0  0  0  0  0  0  0  0  0  # atno 10167 bound_to 10162
  157.1174  130.6535  149.5914 H   0  0  0  0  0  0  0  0  0  0  0  0  # atno 10718 bound_to 10713
  153.5969  135.7000  153.5400 H   0  0  0  0  0  0  0  0  0  0  0  0  # atno 10763 bound_to 10752
  153.3130  135.4095  155.1352 H   0  0  0  0  0  0  0  0  0  0  0  0  # atno 10764 bound_to 10752
  154.8590  135.3677  154.5503 H   0  0  0  0  0  0  0  0  0  0  0  0  # atno 10765 bound_to 10752
  141.1667  133.7182  156.8378 H   0  0  0  0  0  0  0  0  0  0  0  0  # atno 11005 bound_to 11000
  145.0725  139.3021  143.5825 LP  0  0  0  0  0  0  0  0  0  0  0  0  # atno 17320 bound_to 7965
  146.3520  140.0204  142.8659 LP  0  0  0  0  0  0  0  0  0  0  0  0  # atno 17321 bound_to 7965
  139.4979  144.6634  151.6412 LP  0  0  0  0  0  0  0  0  0  0  0  0  # atno 17342 bound_to 10162
  140.5863  143.9859  150.6297 LP  0  0  0  0  0  0  0  0  0  0  0  0  # atno 17343 bound_to 10162
  155.9836  130.4857  150.6942 LP  0  0  0  0  0  0  0  0  0  0  0  0  # atno 17370 bound_to 10713
  157.4506  131.0872  151.0850 LP  0  0  0  0  0  0  0  0  0  0  0  0  # atno 17371 bound_to 10713
  140.2005  134.8900  157.3163 LP  0  0  0  0  0  0  0  0  0  0  0  0  # atno 17394 bound_to 11000
  140.2193  134.4043  155.7574 LP  0  0  0  0  0  0  0  0  0  0  0  0  # atno 17395 bound_to 11000

$$$$
