AV-unprocessed.smi:110|AV-procd|sdf|1069|dock2
  -GOLD-   2262018153D 1   1.00000     0.00000
 Structure written by MMmdl.
 46 50  0  0  0  0  0  0  0  0  1 V2000
  146.6949  137.0959  153.2913 O   0  0  0  0  0  0  0  0  0  0  0  0
  146.6758  137.4211  154.6649 C   0  0  0  0  0  0  0  0  0  0  0  0
  147.3649  138.7745  154.8968 C   0  0  1  0  0  0  0  0  0  0  0  0
  148.7038  138.7154  154.4284 O   0  0  0  0  0  0  0  0  0  0  0  0
  149.1594  139.9985  154.1445 C   0  0  2  0  0  0  0  0  0  0  0  0
  149.8878  140.5236  155.3533 N   0  0  0  0  0  0  0  0  0  0  0  0
  149.5663  141.6713  156.0433 C   0  0  0  0  0  0  0  0  0  0  0  0
  150.3412  141.9635  157.0498 N   0  0  0  0  0  0  0  0  0  0  0  0
  151.3012  140.9610  157.0431 C   0  0  0  0  0  0  0  0  0  0  0  0
  152.4370  140.6684  157.8521 C   0  0  0  0  0  0  0  0  0  0  0  0
  152.8381  141.4067  158.9130 N   0  0  0  0  0  0  0  0  0  0  0  0
  153.3625  140.7024  160.0926 C   0  0  0  0  0  0  0  0  0  0  0  0
  153.1944  141.6332  161.3085 C   0  0  0  0  0  0  0  0  0  0  0  0
  152.6459  142.8596  160.6546 C   0  0  0  0  0  0  0  0  0  0  0  0
  152.3365  144.0869  161.2664 C   0  0  0  0  0  0  0  0  0  0  0  0
  151.8415  145.1291  160.4533 C   0  0  0  0  0  0  0  0  0  0  0  0
  151.6740  144.9327  159.0627 C   0  0  0  0  0  0  0  0  0  0  0  0
  151.9930  143.6912  158.4698 C   0  0  0  0  0  0  0  0  0  0  0  0
  152.4686  142.6485  159.2912 C   0  0  0  0  0  0  0  0  0  0  0  0
  153.1375  139.5415  157.5718 N   0  0  0  0  0  0  0  0  0  0  0  0
  152.7788  138.7697  156.5441 C   0  0  0  0  0  0  0  0  0  0  0  0
  151.7601  138.9303  155.6990 N   0  0  0  0  0  0  0  0  0  0  0  0
  151.0259  140.0452  155.9854 C   0  0  0  0  0  0  0  0  0  0  0  0
  147.9360  140.8388  153.7402 C   0  0  1  0  0  0  0  0  0  0  0  0
  147.9566  141.1330  152.3576 O   0  0  0  0  0  0  0  0  0  0  0  0
  146.7556  139.9185  154.0695 C   0  0  2  0  0  0  0  0  0  0  0  0
  145.7837  140.6048  154.8329 O   0  0  0  0  0  0  0  0  0  0  0  0
  147.3659  139.0238  155.9581 H   0  0  0  0  0  0  0  0  0  0  0  0
  149.9304  139.9613  153.3738 H   0  0  0  0  0  0  0  0  0  0  0  0
  147.9177  141.7839  154.2821 H   0  0  0  0  0  0  0  0  0  0  0  0
  146.3018  139.5265  153.1574 H   0  0  0  0  0  0  0  0  0  0  0  0
  147.5461  136.7455  153.0774 H   0  0  0  0  0  0  0  0  0  0  0  0
  145.6522  137.4266  155.0406 H   0  0  0  0  0  0  0  0  0  0  0  0
  147.2121  136.6328  155.1941 H   0  0  0  0  0  0  0  0  0  0  0  0
  148.7237  142.2923  155.7763 H   0  0  0  0  0  0  0  0  0  0  0  0
  152.8343  139.7605  160.2487 H   0  0  0  0  0  0  0  0  0  0  0  0
  154.4157  140.4693  159.9320 H   0  0  0  0  0  0  0  0  0  0  0  0
  152.4823  141.2358  162.0323 H   0  0  0  0  0  0  0  0  0  0  0  0
  154.1418  141.8407  161.8061 H   0  0  0  0  0  0  0  0  0  0  0  0
  152.4759  144.2302  162.3277 H   0  0  0  0  0  0  0  0  0  0  0  0
  151.5948  146.0836  160.8945 H   0  0  0  0  0  0  0  0  0  0  0  0
  151.3022  145.7390  158.4479 H   0  0  0  0  0  0  0  0  0  0  0  0
  151.8742  143.5506  157.4056 H   0  0  0  0  0  0  0  0  0  0  0  0
  153.3940  137.8982  156.3760 H   0  0  0  0  0  0  0  0  0  0  0  0
  148.2517  140.3652  151.8924 H   0  0  0  0  0  0  0  0  0  0  0  0
  144.9438  140.4945  154.4129 H   0  0  0  0  0  0  0  0  0  0  0  0
  1  2  1  0  0  0  0
  1 32  1  0  0  0  0
  2  3  1  0  0  0  0
  2 33  1  0  0  0  0
  2 34  1  0  0  0  0
  3 28  1  0  0  0  0
  3 26  1  0  0  0  0
  3  4  1  0  0  0  0
  4  5  1  0  0  0  0
  5 29  1  0  0  0  0
  5  6  1  0  0  0  0
  5 24  1  0  0  0  0
  6 23  1  0  0  0  0
  6  7  1  0  0  0  0
  7  8  2  0  0  0  0
  7 35  1  0  0  0  0
  8  9  1  0  0  0  0
  9 23  2  0  0  0  0
  9 10  1  0  0  0  0
 10 11  1  0  0  0  0
 10 20  2  0  0  0  0
 11 19  1  0  0  0  0
 11 12  1  0  0  0  0
 12 13  1  0  0  0  0
 12 36  1  0  0  0  0
 12 37  1  0  0  0  0
 13 14  1  0  0  0  0
 13 38  1  0  0  0  0
 13 39  1  0  0  0  0
 14 19  2  0  0  0  0
 14 15  1  0  0  0  0
 15 16  2  0  0  0  0
 15 40  1  0  0  0  0
 16 17  1  0  0  0  0
 16 41  1  0  0  0  0
 17 18  2  0  0  0  0
 17 42  1  0  0  0  0
 18 19  1  0  0  0  0
 18 43  1  0  0  0  0
 20 21  1  0  0  0  0
 21 22  2  0  0  0  0
 21 44  1  0  0  0  0
 22 23  1  0  0  0  0
 24 30  1  0  0  0  0
 24 25  1  0  0  0  0
 24 26  1  0  0  0  0
 25 45  1  0  0  0  0
 26 31  1  0  0  0  0
 26 27  1  0  0  0  0
 27 46  1  0  0  0  0
M  END
> <s_m_source_file>
AV-unprocessed.smi

> <i_m_source_file_index>
110

> <i_lp_mmshare_version>
43012

> <i_f3d_flags>
0

> <s_epik_input>
W09IXVtDSDJdW0NASF0xT1tDQEhdKFtDQEhdKFtPSF0pW0NAQEhdMVtPSF0pbihbY0hdbjIpYyhjMjMpbltjSF1uYzNOKFtDSDJdW0NIMl00KWMoYzQ1KVtjSF1bY0hdW2NIXVtjSF01

> <s_epik_cmdline>
J2VwaWtfcHl0aG9uJywgJy1waCcsICc3LjAnLCAnLXRuJywgJzgnLCAnLW1hJywgJzIwMCcsICctbWV0YWxfYmluZGluZycsICctaW1hZScsICc8aW5maWxlLm1hZT4nLCAnLW9tYWUnLCAnPG91dGZpbGUubWFlPic=

> <r_lp_tautomer_probability>
1

> <r_epik_Ionization_Penalty>
0.00068475

> <r_epik_Ionization_Penalty_Charging>
0

> <r_epik_Ionization_Penalty_Neutral>
0.00068475

> <r_epik_State_Penalty>
0.000417442

> <r_epik_Charging_Adjusted_Penalty>
0.000417442

> <i_epik_Tot_Q>
0

> <i_epik_Tot_abs_Q>
0

> <r_epik_Metal_State_Penalty>
-0

> <b_epik_Metal_Only>
0

> <s_epik_Chemistry_Notes>
This compound contains an acetal/aminal-like group ( X-CH(R)-Y where X, Y are N, S, or O) that may be acid/base labile, releasing an aldehyde.

> <s_lp_Force_Field>
OPLS_2005

> <r_lp_Energy>
55.3724

> <b_lp_Chiralities_Consistent>
1

> <s_lp_Variant>
AV-unprocessed.smi:110-7

> <Gold.Version>
5.8.1

> <Gold.Id.Protein>
6NUR|6NUR_protein|mol2

> <Gold.PLP.Fitness>
60.2675

> <Gold.PLP.PLP>
-47.6300

> <Gold.PLP.part.hbond>
-3.7253

> <Gold.PLP.part.metal>
0.0000

> <Gold.PLP.part.buried>
2.2589

> <Gold.PLP.part.nonpolar>
-45.2018

> <Gold.PLP.part.repulsive>
0.2588

> <Gold.PLP.ligand.clash>
0.0000

> <Gold.PLP.ligand.torsion>
0.3181

> <Gold.PLP.Chemscore.Hbond>
3.4790

> <Gold.PLP.Chemscore.CHOScore>
0.8897

> <Gold.PLP.Chemscore.Metal>
0.0000

> <Gold.Chemscore.Hbonds>
donor molecule, donor type, donor heavy atom, donor atom, acceptor molecule, acceptor atom, score
      L1  H     1    32       P1  7948  1.00
      L1  H    25    45       P1  7957  0.64
      L1  H    27    46       P1 10175  0.32
      P1  H  7997  8008       L1    20  1.00
      P1  H  8011  8017       L1    25  0.38
      L1  C     7    35       P1  8028  0.86

> <Gold.PLP.Chemscore.Internal.Correction>
0.1676

> <Gold.Rescore>
     Score         DG    S(hbond)    S(metal)    S(lipo)     H(rot)  DE(clash)    DE(int)     intcor
     13.80     -17.52       2.49        0.00     105.82       3.38       1.98       1.74       ----

> <Gold.Chemscore.Fitness>
13.8016

> <Gold.Chemscore.DG>
-17.5247

> <Gold.Chemscore.ZeroCoef>
-5.4800

> <Gold.Chemscore.Hbond>
2.4928

> <Gold.Chemscore.Metal>
0.0000

> <Gold.Chemscore.Lipo>
105.8184

> <Gold.Chemscore.Internal_Hbond>
0.0000

> <Gold.Chemscore.DEClash>
1.9807

> <Gold.Chemscore.DEInternal>
1.7423

> <Gold.Chemscore.Rot>
3.3837

> <Gold.Chemscore.Internal.Correction>
   9.000000E+99

> <Gold.Chemscore.Hbonds>
donor molecule, donor type, donor heavy atom, donor atom, acceptor molecule, acceptor atom, score
      L1  H     1    32       P1  7948  0.97
      L1  H    25    45       P1  7957  0.61
      L1  H    27    46       P1 10175  0.31
      P1  H  7997  8008       L1    20  0.17
      P1  H  8011  8017       L1    25  0.03

> <Gold.Chemscore.Hbond.Weighted>
-8.3261

> <Gold.Chemscore.Metal.Weighted>
-0.0000

> <Gold.Chemscore.Lipo.Weighted>
-12.3808

> <Gold.Chemscore.Internal_Hbond.Weighted>
0.0000

> <Gold.Chemscore.DEClash.Weighted>
1.9807

> <Gold.Chemscore.DEInternal.Weighted>
1.7423

> <Gold.Chemscore.Rot.Weighted>
8.6622

> <Gold.Chemscore.Internal.Correction.Weighted>
   9.000000E+99

> <Gold.Protein.RotatedTorsions>
[ 6907 6896 6895 6894 ] final  -17.49 input  -60.11 | X-H torsion
[ 7974 7965 7964 7962 ] final  -22.21 input  175.53 | X-H torsion
[ 8008 7997 7996 7995 ] final  -91.55 input   59.86 | X-H torsion
[ 10167 10162 10161 10158 ] final   94.27 input  -65.29 | X-H torsion
[ 10718 10713 10712 10709 ] final  151.02 input   66.30 | X-H torsion
[ 10763 10752 10751 10750 ] final  -37.64 input  -60.55 | X-H torsion
[ 11005 11000 10999 10996 ] final   67.34 input  -57.11 | X-H torsion

> <Gold.Protein.ActiveResidues>
 VAL166  LYS551  ARG553  GLY616  TRP617  ASP618  TYR619  PRO620  LYS621  CYS622 
 ASP623  PHE694  ASN695  SER759  ASP760  ASP761  ALA762  ILE779  LEU786  VAL792 
 PHE793  MET794  SER795  GLU796  ALA797  LYS798  CYS799  TRP800  GLU811  SER814 

> <Gold.Protein.RotatedAtoms>
  151.2926  135.0746  159.9209 H   0  0  0  0  0  0  0  0  0  0  0  0  # atno 6907 bound_to 6896
  152.5313  133.9916  159.7863 H   0  0  0  0  0  0  0  0  0  0  0  0  # atno 6908 bound_to 6896
  151.0188  133.5844  159.2704 H   0  0  0  0  0  0  0  0  0  0  0  0  # atno 6909 bound_to 6896
  146.1688  140.4448  142.8541 H   0  0  0  0  0  0  0  0  0  0  0  0  # atno 7974 bound_to 7965
  154.7121  140.0518  157.0560 H   0  0  0  0  0  0  0  0  0  0  0  0  # atno 8008 bound_to 7997
  155.0540  140.3182  155.4663 H   0  0  0  0  0  0  0  0  0  0  0  0  # atno 8009 bound_to 7997
  156.2792  140.2110  156.5666 H   0  0  0  0  0  0  0  0  0  0  0  0  # atno 8010 bound_to 7997
  139.8100  144.6777  150.9653 H   0  0  0  0  0  0  0  0  0  0  0  0  # atno 10167 bound_to 10162
  157.2760  131.0826  151.1566 H   0  0  0  0  0  0  0  0  0  0  0  0  # atno 10718 bound_to 10713
  153.8996  135.6804  153.4756 H   0  0  0  0  0  0  0  0  0  0  0  0  # atno 10763 bound_to 10752
  153.1137  135.4771  154.9076 H   0  0  0  0  0  0  0  0  0  0  0  0  # atno 10764 bound_to 10752
  154.7582  135.3203  154.8383 H   0  0  0  0  0  0  0  0  0  0  0  0  # atno 10765 bound_to 10752
  139.9776  134.6796  156.0323 H   0  0  0  0  0  0  0  0  0  0  0  0  # atno 11005 bound_to 11000
  144.8133  140.6423  143.6401 LP  0  0  0  0  0  0  0  0  0  0  0  0  # atno 17320 bound_to 7965
  145.4395  139.1537  143.3978 LP  0  0  0  0  0  0  0  0  0  0  0  0  # atno 17321 bound_to 7965
  140.7818  143.4195  151.0864 LP  0  0  0  0  0  0  0  0  0  0  0  0  # atno 17342 bound_to 10162
  139.7862  143.8284  152.3145 LP  0  0  0  0  0  0  0  0  0  0  0  0  # atno 17343 bound_to 10162
  157.3019  130.6847  149.6168 LP  0  0  0  0  0  0  0  0  0  0  0  0  # atno 17370 bound_to 10713
  155.9663  130.4389  150.5238 LP  0  0  0  0  0  0  0  0  0  0  0  0  # atno 17371 bound_to 10713
  141.1452  133.6557  156.3846 LP  0  0  0  0  0  0  0  0  0  0  0  0  # atno 17394 bound_to 11000
  140.5162  134.6348  157.5302 LP  0  0  0  0  0  0  0  0  0  0  0  0  # atno 17395 bound_to 11000

$$$$
