AV-unprocessed.smi:2928|AV-procd|sdf|11233|dock1
  -GOLD-   2272016123D 1   1.00000     0.00000
 Structure written by MMmdl.
 55 58  0  0  0  0  0  0  0  0  2 V2000
  144.1373  135.8971  162.5394 C   0  0  0  0  0  0  0  0  0  0  0  0
  145.4254  136.0520  161.8222 N   0  3  2  0  0  0  0  0  0  0  0  0
  145.3922  135.6655  160.3906 C   0  0  2  0  0  0  0  0  0  0  0  0
  145.2470  134.1314  160.2239 C   0  0  0  0  0  0  0  0  0  0  0  0
  146.2775  133.3132  161.0256 C   0  0  0  0  0  0  0  0  0  0  0  0
  146.5098  133.8805  162.4389 C   0  0  0  0  0  0  0  0  0  0  0  0
  146.5921  135.4273  162.4921 C   0  0  1  0  0  0  0  0  0  0  0  0
  147.8887  136.0278  161.9010 C   0  0  0  0  0  0  0  0  0  0  0  0
  147.9763  135.9704  160.3539 C   0  0  2  0  0  0  0  0  0  0  0  0
  148.9778  136.9161  159.8659 N   0  0  0  0  0  0  0  0  0  0  0  0
  149.5484  136.8826  158.6528 C   0  0  0  0  0  0  0  0  0  0  0  0
  149.3108  136.0135  157.8144 O   0  0  0  0  0  0  0  0  0  0  0  0
  150.4106  137.9007  158.4950 N   0  0  0  0  0  0  0  0  0  0  0  0
  151.2215  138.2093  157.3656 C   0  0  0  0  0  0  0  0  0  0  0  0
  151.1053  137.4992  156.1450 C   0  0  0  0  0  0  0  0  0  0  0  0
  151.8823  137.8917  155.0415 C   0  0  0  0  0  0  0  0  0  0  0  0
  152.7394  138.9942  155.1906 C   0  0  0  0  0  0  0  0  0  0  0  0
  152.8517  139.6894  156.3398 N   0  0  0  0  0  0  0  0  0  0  0  0
  152.1192  139.3140  157.4172 C   0  0  0  0  0  0  0  0  0  0  0  0
  152.2880  140.0684  158.6005 N   0  0  0  0  0  0  0  0  0  0  0  0
  153.4810  139.8126  159.4027 C   0  0  0  0  0  0  0  0  0  0  0  0
  153.9068  141.1623  159.9921 C   0  0  0  0  0  0  0  0  0  0  0  0
  152.6471  142.0175  159.8925 C   0  0  0  0  0  0  0  0  0  0  0  0
  152.0049  141.4994  158.6095 C   0  0  0  0  0  0  0  0  0  0  0  0
  146.6189  136.2819  159.6787 C   0  0  0  0  0  0  0  0  0  0  0  0
  143.8184  134.8572  162.6000 H   0  0  0  0  0  0  0  0  0  0  0  0
  143.3524  136.4615  162.0351 H   0  0  0  0  0  0  0  0  0  0  0  0
  144.2195  136.2842  163.5554 H   0  0  0  0  0  0  0  0  0  0  0  0
  144.5105  136.1252  159.9416 H   0  0  0  0  0  0  0  0  0  0  0  0
  144.2482  133.8361  160.5461 H   0  0  0  0  0  0  0  0  0  0  0  0
  145.3012  133.8612  159.1688 H   0  0  0  0  0  0  0  0  0  0  0  0
  145.9405  132.2788  161.1004 H   0  0  0  0  0  0  0  0  0  0  0  0
  147.2172  133.2517  160.4834 H   0  0  0  0  0  0  0  0  0  0  0  0
  145.6927  133.5502  163.0807 H   0  0  0  0  0  0  0  0  0  0  0  0
  147.4102  133.4409  162.8693 H   0  0  0  0  0  0  0  0  0  0  0  0
  146.5681  135.7174  163.5436 H   0  0  0  0  0  0  0  0  0  0  0  0
  147.9378  137.0728  162.2127 H   0  0  0  0  0  0  0  0  0  0  0  0
  148.7607  135.5470  162.3462 H   0  0  0  0  0  0  0  0  0  0  0  0
  148.2988  134.9791  160.0446 H   0  0  0  0  0  0  0  0  0  0  0  0
  149.2398  137.6651  160.4901 H   0  0  0  0  0  0  0  0  0  0  0  0
  150.5697  138.4797  159.3065 H   0  0  0  0  0  0  0  0  0  0  0  0
  150.4174  136.6762  156.0268 H   0  0  0  0  0  0  0  0  0  0  0  0
  151.8121  137.3683  154.0995 H   0  0  0  0  0  0  0  0  0  0  0  0
  153.3469  139.3316  154.3639 H   0  0  0  0  0  0  0  0  0  0  0  0
  153.2259  139.1210  160.2057 H   0  0  0  0  0  0  0  0  0  0  0  0
  154.2830  139.3655  158.8132 H   0  0  0  0  0  0  0  0  0  0  0  0
  154.2853  141.0796  161.0111 H   0  0  0  0  0  0  0  0  0  0  0  0
  154.6936  141.5994  159.3758 H   0  0  0  0  0  0  0  0  0  0  0  0
  151.9941  141.8210  160.7439 H   0  0  0  0  0  0  0  0  0  0  0  0
  152.8558  143.0872  159.8626 H   0  0  0  0  0  0  0  0  0  0  0  0
  152.4645  141.9911  157.7512 H   0  0  0  0  0  0  0  0  0  0  0  0
  150.9324  141.6942  158.5838 H   0  0  0  0  0  0  0  0  0  0  0  0
  146.6426  135.9750  158.6324 H   0  0  0  0  0  0  0  0  0  0  0  0
  146.4773  137.3641  159.6657 H   0  0  0  0  0  0  0  0  0  0  0  0
  145.6046  137.0461  161.8330 H   0  0  0  0  0  0  0  0  0  0  0  0
  1  2  1  0  0  0  0
  1 26  1  0  0  0  0
  1 27  1  0  0  0  0
  1 28  1  0  0  0  0
  2  7  1  0  0  0  0
  2  3  1  0  0  0  0
  2 55  1  0  0  0  0
  3 25  1  0  0  0  0
  3  4  1  0  0  0  0
  3 29  1  0  0  0  0
  4  5  1  0  0  0  0
  4 30  1  0  0  0  0
  4 31  1  0  0  0  0
  5  6  1  0  0  0  0
  5 32  1  0  0  0  0
  5 33  1  0  0  0  0
  6  7  1  0  0  0  0
  6 34  1  0  0  0  0
  6 35  1  0  0  0  0
  7  8  1  0  0  0  0
  7 36  1  0  0  0  0
  8  9  1  0  0  0  0
  8 37  1  0  0  0  0
  8 38  1  0  0  0  0
  9 10  1  0  0  0  0
  9 25  1  0  0  0  0
  9 39  1  0  0  0  0
 10 11  1  0  0  0  0
 10 40  1  0  0  0  0
 11 12  2  0  0  0  0
 11 13  1  0  0  0  0
 13 14  1  0  0  0  0
 13 41  1  0  0  0  0
 14 19  1  0  0  0  0
 14 15  2  0  0  0  0
 15 16  1  0  0  0  0
 15 42  1  0  0  0  0
 16 17  2  0  0  0  0
 16 43  1  0  0  0  0
 17 18  1  0  0  0  0
 17 44  1  0  0  0  0
 18 19  2  0  0  0  0
 19 20  1  0  0  0  0
 20 24  1  0  0  0  0
 20 21  1  0  0  0  0
 21 22  1  0  0  0  0
 21 45  1  0  0  0  0
 21 46  1  0  0  0  0
 22 23  1  0  0  0  0
 22 47  1  0  0  0  0
 22 48  1  0  0  0  0
 23 24  1  0  0  0  0
 23 49  1  0  0  0  0
 23 50  1  0  0  0  0
 24 51  1  0  0  0  0
 24 52  1  0  0  0  0
 25 53  1  0  0  0  0
 25 54  1  0  0  0  0
M  CHG  1   2   1
M  END
> <s_m_source_file>
AV-unprocessed.smi

> <i_m_source_file_index>
2928

> <i_lp_mmshare_version>
43012

> <i_f3d_flags>
0

> <s_epik_input>
W0NIMl0xW0NIMl1bQ0gyXVtDQEhdKE4oW0NIM10pW0NIXTEyKVtDSDJdW0NASF0oW0NIMl0yKVtOSF1DKD1PKVtOSF1jM1tjSF1bY0hdW2NIXW5jM040W0NIMl1bQ0gyXVtDSDJdW0NIMl00

> <s_epik_cmdline>
J2VwaWtfcHl0aG9uJywgJy1waCcsICc3LjAnLCAnLXRuJywgJzgnLCAnLW1hJywgJzIwMCcsICctbWV0YWxfYmluZGluZycsICctaW1hZScsICc8aW5maWxlLm1hZT4nLCAnLW9tYWUnLCAnPG91dGZpbGUubWFlPic=

> <r_lp_tautomer_probability>
1

> <r_epik_Ionization_Penalty>
0.07954

> <r_epik_Ionization_Penalty_Charging>
0.00089841

> <r_epik_Ionization_Penalty_Neutral>
0.0786416

> <r_epik_State_Penalty>
0.0689917

> <r_epik_Charging_Adjusted_Penalty>
0.0698901

> <i_epik_Tot_Q>
1

> <i_epik_Tot_abs_Q>
1

> <r_epik_Metal_State_Penalty>
0.0608947

> <b_epik_Metal_Only>
0

> <s_lp_Force_Field>
OPLS_2005

> <r_lp_Energy>
63.7088

> <b_lp_Chiralities_Consistent>
1

> <s_lp_Variant>
AV-unprocessed.smi:2928-3

> <Gold.Version>
5.8.1

> <Gold.Id.Protein>
6NUR|6NUR_protein|mol2

> <Gold.PLP.Fitness>
41.5168

> <Gold.PLP.PLP>
-39.1484

> <Gold.PLP.part.hbond>
-1.0000

> <Gold.PLP.part.metal>
0.0000

> <Gold.PLP.part.buried>
-5.7407

> <Gold.PLP.part.nonpolar>
-32.7723

> <Gold.PLP.part.repulsive>
0.3942

> <Gold.PLP.ligand.clash>
0.0000

> <Gold.PLP.ligand.torsion>
0.4658

> <Gold.PLP.Chemscore.Hbond>
1.0000

> <Gold.PLP.Chemscore.CHOScore>
0.0000

> <Gold.PLP.Chemscore.Metal>
0.0000

> <Gold.Chemscore.Hbonds>
donor molecule, donor type, donor heavy atom, donor atom, acceptor molecule, acceptor atom, score
      P1  H  7997  8010       L1    18  1.00

> <Gold.PLP.Chemscore.Internal.Correction>
0.3000

> <Gold.Rescore>
     Score         DG    S(hbond)    S(metal)    S(lipo)     H(rot)  DE(clash)    DE(int)     intcor
     16.37     -18.04       0.94        0.00     106.41       1.18       0.05       1.62       ----

> <Gold.Chemscore.Fitness>
16.3682

> <Gold.Chemscore.DG>
-18.0416

> <Gold.Chemscore.ZeroCoef>
-5.4800

> <Gold.Chemscore.Hbond>
0.9360

> <Gold.Chemscore.Metal>
0.0000

> <Gold.Chemscore.Lipo>
106.4102

> <Gold.Chemscore.Internal_Hbond>
0.0000

> <Gold.Chemscore.DEClash>
0.0485

> <Gold.Chemscore.DEInternal>
1.6249

> <Gold.Chemscore.Rot>
1.1776

> <Gold.Chemscore.Internal.Correction>
   9.000000E+99

> <Gold.Chemscore.Hbonds>
donor molecule, donor type, donor heavy atom, donor atom, acceptor molecule, acceptor atom, score
      P1  H  7997  8010       L1    18  0.25

> <Gold.Chemscore.Hbond.Weighted>
-3.1263

> <Gold.Chemscore.Metal.Weighted>
-0.0000

> <Gold.Chemscore.Lipo.Weighted>
-12.4500

> <Gold.Chemscore.Internal_Hbond.Weighted>
0.0000

> <Gold.Chemscore.DEClash.Weighted>
0.0485

> <Gold.Chemscore.DEInternal.Weighted>
1.6249

> <Gold.Chemscore.Rot.Weighted>
3.0147

> <Gold.Chemscore.Internal.Correction.Weighted>
   9.000000E+99

> <Gold.Protein.RotatedTorsions>
[ 6907 6896 6895 6894 ] final -162.69 input  -60.11 | X-H torsion
[ 7974 7965 7964 7962 ] final   14.47 input  175.53 | X-H torsion
[ 8008 7997 7996 7995 ] final   83.19 input   59.86 | X-H torsion
[ 10167 10162 10161 10158 ] final  111.40 input  -65.29 | X-H torsion
[ 10718 10713 10712 10709 ] final -106.60 input   66.30 | X-H torsion
[ 10763 10752 10751 10750 ] final  164.27 input  -60.55 | X-H torsion
[ 11005 11000 10999 10996 ] final  -30.55 input  -57.11 | X-H torsion

> <Gold.Protein.ActiveResidues>
 VAL166  LYS551  ARG553  GLY616  TRP617  ASP618  TYR619  PRO620  LYS621  CYS622 
 ASP623  PHE694  ASN695  SER759  ASP760  ASP761  ALA762  ILE779  LEU786  VAL792 
 PHE793  MET794  SER795  GLU796  ALA797  LYS798  CYS799  TRP800  GLU811  SER814 

> <Gold.Protein.RotatedAtoms>
  151.3843  133.3810  159.2713 H   0  0  0  0  0  0  0  0  0  0  0  0  # atno 6907 bound_to 6896
  150.9553  134.8950  159.7708 H   0  0  0  0  0  0  0  0  0  0  0  0  # atno 6908 bound_to 6896
  152.5128  134.3800  159.9400 H   0  0  0  0  0  0  0  0  0  0  0  0  # atno 6909 bound_to 6896
  146.2304  139.9036  142.8535 H   0  0  0  0  0  0  0  0  0  0  0  0  # atno 7974 bound_to 7965
  155.9206  140.3421  155.6170 H   0  0  0  0  0  0  0  0  0  0  0  0  # atno 8008 bound_to 7997
  155.7278  140.0791  157.2321 H   0  0  0  0  0  0  0  0  0  0  0  0  # atno 8009 bound_to 7997
  154.4069  140.1593  156.2461 H   0  0  0  0  0  0  0  0  0  0  0  0  # atno 8010 bound_to 7997
  139.6614  144.7128  151.1858 H   0  0  0  0  0  0  0  0  0  0  0  0  # atno 10167 bound_to 10162
  156.0398  130.5621  150.7704 H   0  0  0  0  0  0  0  0  0  0  0  0  # atno 10718 bound_to 10713
  154.3064  135.2758  155.2587 H   0  0  0  0  0  0  0  0  0  0  0  0  # atno 10763 bound_to 10752
  154.5001  135.5810  153.6528 H   0  0  0  0  0  0  0  0  0  0  0  0  # atno 10764 bound_to 10752
  152.9894  135.6156  154.3238 H   0  0  0  0  0  0  0  0  0  0  0  0  # atno 10765 bound_to 10752
  140.9392  133.7289  156.1050 H   0  0  0  0  0  0  0  0  0  0  0  0  # atno 11005 bound_to 11000
  145.2299  140.9969  143.3997 LP  0  0  0  0  0  0  0  0  0  0  0  0  # atno 17320 bound_to 7965
  144.9539  139.4052  143.6389 LP  0  0  0  0  0  0  0  0  0  0  0  0  # atno 17321 bound_to 7965
  140.7581  143.5989  150.8720 LP  0  0  0  0  0  0  0  0  0  0  0  0  # atno 17342 bound_to 10162
  139.9646  143.6125  152.2992 LP  0  0  0  0  0  0  0  0  0  0  0  0  # atno 17343 bound_to 10162
  157.5199  131.0931  151.0091 LP  0  0  0  0  0  0  0  0  0  0  0  0  # atno 17370 bound_to 10713
  157.0425  130.5754  149.5358 LP  0  0  0  0  0  0  0  0  0  0  0  0  # atno 17371 bound_to 10713
  140.7757  134.3782  157.5498 LP  0  0  0  0  0  0  0  0  0  0  0  0  # atno 17394 bound_to 11000
  139.8816  134.9050  156.2890 LP  0  0  0  0  0  0  0  0  0  0  0  0  # atno 17395 bound_to 11000

$$$$
