AV-unprocessed.smi:1464|AV-procd|sdf|5937|dock5
  -GOLD-   22720 6 23D 1   1.00000     0.00000
 Structure written by MMmdl.
 40 41  0  0  0  0  0  0  0  0  2 V2000
  153.4601  142.1877  161.0542 C   0  0  0  0  0  0  0  0  0  0  0  0
  153.0848  142.5239  159.5990 C   0  0  2  0  0  0  0  0  0  0  0  0
  152.7913  144.0331  159.4798 C   0  0  0  0  0  0  0  0  0  0  0  0
  152.4454  144.4349  158.0422 C   0  0  0  0  0  0  0  0  0  0  0  0
  151.2469  143.6295  157.5326 C   0  0  0  0  0  0  0  0  0  0  0  0
  151.5112  142.1145  157.6210 C   0  0  2  0  0  0  0  0  0  0  0  0
  150.3261  141.3927  157.1599 N   0  0  0  0  0  0  0  0  0  0  0  0
  150.2813  140.5548  156.1127 C   0  0  0  0  0  0  0  0  0  0  0  0
  151.2613  140.3058  155.4084 O   0  0  0  0  0  0  0  0  0  0  0  0
  148.9125  139.9113  155.8386 C   0  0  0  0  0  0  0  0  0  0  0  0
  147.8826  140.8535  155.3764 N   0  0  0  0  0  0  0  0  0  0  0  0
  146.6784  140.8623  156.2027 N   0  5  0  0  0  0  0  0  0  0  0  0
  145.6471  141.6801  155.8621 C   0  0  0  0  0  0  0  0  0  0  0  0
  144.5974  141.7298  156.4991 O   0  0  0  0  0  0  0  0  0  0  0  0
  145.8056  142.5311  154.6945 C   0  0  0  0  0  0  0  0  0  0  0  0
  146.9374  142.5183  153.9630 C   0  0  0  0  0  0  0  0  0  0  0  0
  148.0660  141.6546  154.2880 C   0  0  0  0  0  0  0  0  0  0  0  0
  149.1062  141.6445  153.6294 O   0  0  0  0  0  0  0  0  0  0  0  0
  151.8957  141.6770  159.0609 C   0  0  1  0  0  0  0  0  0  0  0  0
  152.1911  140.1617  159.1178 C   0  0  0  0  0  0  0  0  0  0  0  0
  152.6031  142.2947  161.7199 H   0  0  0  0  0  0  0  0  0  0  0  0
  154.2453  142.8506  161.4184 H   0  0  0  0  0  0  0  0  0  0  0  0
  153.8398  141.1714  161.1533 H   0  0  0  0  0  0  0  0  0  0  0  0
  153.9574  142.3102  158.9797 H   0  0  0  0  0  0  0  0  0  0  0  0
  151.9663  144.3027  160.1405 H   0  0  0  0  0  0  0  0  0  0  0  0
  153.6543  144.6095  159.8152 H   0  0  0  0  0  0  0  0  0  0  0  0
  152.2236  145.5014  157.9958 H   0  0  0  0  0  0  0  0  0  0  0  0
  153.3061  144.2676  157.3932 H   0  0  0  0  0  0  0  0  0  0  0  0
  150.3624  143.8867  158.1172 H   0  0  0  0  0  0  0  0  0  0  0  0
  151.0299  143.9145  156.5022 H   0  0  0  0  0  0  0  0  0  0  0  0
  152.3516  141.8735  156.9666 H   0  0  0  0  0  0  0  0  0  0  0  0
  149.4745  141.5362  157.6827 H   0  0  0  0  0  0  0  0  0  0  0  0
  149.0516  139.1159  155.1038 H   0  0  0  0  0  0  0  0  0  0  0  0
  148.5716  139.4108  156.7466 H   0  0  0  0  0  0  0  0  0  0  0  0
  144.9987  143.1895  154.4084 H   0  0  0  0  0  0  0  0  0  0  0  0
  147.0114  143.1680  153.1036 H   0  0  0  0  0  0  0  0  0  0  0  0
  151.0359  141.8662  159.7059 H   0  0  0  0  0  0  0  0  0  0  0  0
  153.0678  139.9086  158.5208 H   0  0  0  0  0  0  0  0  0  0  0  0
  151.3566  139.5705  158.7414 H   0  0  0  0  0  0  0  0  0  0  0  0
  152.3684  139.8186  160.1361 H   0  0  0  0  0  0  0  0  0  0  0  0
  1  2  1  0  0  0  0
  1 21  1  0  0  0  0
  1 22  1  0  0  0  0
  1 23  1  0  0  0  0
  2 19  1  0  0  0  0
  2  3  1  0  0  0  0
  2 24  1  0  0  0  0
  3  4  1  0  0  0  0
  3 25  1  0  0  0  0
  3 26  1  0  0  0  0
  4  5  1  0  0  0  0
  4 27  1  0  0  0  0
  4 28  1  0  0  0  0
  5  6  1  0  0  0  0
  5 29  1  0  0  0  0
  5 30  1  0  0  0  0
  6  7  1  0  0  0  0
  6 19  1  0  0  0  0
  6 31  1  0  0  0  0
  7  8  1  0  0  0  0
  7 32  1  0  0  0  0
  8  9  2  0  0  0  0
  8 10  1  0  0  0  0
 10 33  1  0  0  0  0
 10 34  1  0  0  0  0
 10 11  1  0  0  0  0
 11 12  1  0  0  0  0
 11 17  1  0  0  0  0
 12 13  1  0  0  0  0
 13 14  2  0  0  0  0
 13 15  1  0  0  0  0
 15 35  1  0  0  0  0
 15 16  2  0  0  0  0
 16 36  1  0  0  0  0
 16 17  1  0  0  0  0
 17 18  2  0  0  0  0
 19 20  1  0  0  0  0
 19 37  1  0  0  0  0
 20 38  1  0  0  0  0
 20 39  1  0  0  0  0
 20 40  1  0  0  0  0
M  CHG  1  12  -1
M  END
> <s_m_source_file>
AV-unprocessed.smi

> <i_m_source_file_index>
1464

> <i_lp_mmshare_version>
43012

> <i_f3d_flags>
0

> <s_epik_input>
W0NIM11bQ0BASF0xW0NIMl1bQ0gyXVtDSDJdW0NASF0oW0NASF0xW0NIM10pW05IXUMoPU8pW0NIMl1uMltuSF1jKD1PKVtjSF1bY0hdYzI9Tw==

> <s_epik_cmdline>
J2VwaWtfcHl0aG9uJywgJy1waCcsICc3LjAnLCAnLXRuJywgJzgnLCAnLW1hJywgJzIwMCcsICctbWV0YWxfYmluZGluZycsICctaW1hZScsICc8aW5maWxlLm1hZT4nLCAnLW9tYWUnLCAnPG91dGZpbGUubWFlPic=

> <r_lp_tautomer_probability>
1

> <r_epik_Ionization_Penalty>
0.101366

> <r_epik_Ionization_Penalty_Charging>
0.101366

> <r_epik_Ionization_Penalty_Neutral>
1.90469e-08

> <r_epik_State_Penalty>
0.035861

> <r_epik_Charging_Adjusted_Penalty>
0.137227

> <i_epik_Tot_Q>
-1

> <i_epik_Tot_abs_Q>
1

> <r_epik_Metal_State_Penalty>
0.035861

> <b_epik_Metal_Only>
0

> <s_lp_Force_Field>
OPLS_2005

> <r_lp_Energy>
28.4396

> <b_lp_Chiralities_Consistent>
1

> <s_lp_Variant>
AV-unprocessed.smi:1464-3

> <Gold.Version>
5.8.1

> <Gold.Id.Protein>
6NUR|6NUR_protein|mol2

> <Gold.PLP.Fitness>
45.9015

> <Gold.PLP.PLP>
-40.9279

> <Gold.PLP.part.hbond>
-2.6314

> <Gold.PLP.part.metal>
0.0000

> <Gold.PLP.part.buried>
-4.0161

> <Gold.PLP.part.nonpolar>
-34.3022

> <Gold.PLP.part.repulsive>
1.5046

> <Gold.PLP.ligand.clash>
0.0000

> <Gold.PLP.ligand.torsion>
0.0857

> <Gold.PLP.Chemscore.Hbond>
1.7120

> <Gold.PLP.Chemscore.CHOScore>
0.0000

> <Gold.PLP.Chemscore.Metal>
0.0000

> <Gold.Chemscore.Hbonds>
donor molecule, donor type, donor heavy atom, donor atom, acceptor molecule, acceptor atom, score
      P1  H  7989  7998       L1     9  0.99
      P1  H  8011  8017       L1    18  0.72

> <Gold.PLP.Chemscore.Internal.Correction>
0.0090

> <Gold.Rescore>
     Score         DG    S(hbond)    S(metal)    S(lipo)     H(rot)  DE(clash)    DE(int)     intcor
     17.72     -18.30       1.66        0.00      98.18       1.64       0.53       0.06       ----

> <Gold.Chemscore.Fitness>
17.7212

> <Gold.Chemscore.DG>
-18.3045

> <Gold.Chemscore.ZeroCoef>
-5.4800

> <Gold.Chemscore.Hbond>
1.6603

> <Gold.Chemscore.Metal>
0.0000

> <Gold.Chemscore.Lipo>
98.1800

> <Gold.Chemscore.Internal_Hbond>
0.0000

> <Gold.Chemscore.DEClash>
0.5283

> <Gold.Chemscore.DEInternal>
0.0551

> <Gold.Chemscore.Rot>
1.6438

> <Gold.Chemscore.Internal.Correction>
   9.000000E+99

> <Gold.Chemscore.Hbonds>
donor molecule, donor type, donor heavy atom, donor atom, acceptor molecule, acceptor atom, score
      P1  H  7989  7998       L1     9  0.88
      P1  H  8011  8017       L1    18  0.72

> <Gold.Chemscore.Hbond.Weighted>
-5.5455

> <Gold.Chemscore.Metal.Weighted>
-0.0000

> <Gold.Chemscore.Lipo.Weighted>
-11.4871

> <Gold.Chemscore.Internal_Hbond.Weighted>
0.0000

> <Gold.Chemscore.DEClash.Weighted>
0.5283

> <Gold.Chemscore.DEInternal.Weighted>
0.0551

> <Gold.Chemscore.Rot.Weighted>
4.2080

> <Gold.Chemscore.Internal.Correction.Weighted>
   9.000000E+99

> <Gold.Protein.RotatedTorsions>
[ 6907 6896 6895 6894 ] final -101.13 input  -60.11 | X-H torsion
[ 7974 7965 7964 7962 ] final   30.04 input  175.53 | X-H torsion
[ 8008 7997 7996 7995 ] final    6.28 input   59.86 | X-H torsion
[ 10167 10162 10161 10158 ] final  -47.43 input  -65.29 | X-H torsion
[ 10718 10713 10712 10709 ] final  -52.12 input   66.30 | X-H torsion
[ 10763 10752 10751 10750 ] final  -38.58 input  -60.55 | X-H torsion
[ 11005 11000 10999 10996 ] final  101.29 input  -57.11 | X-H torsion

> <Gold.Protein.ActiveResidues>
 VAL166  LYS551  ARG553  GLY616  TRP617  ASP618  TYR619  PRO620  LYS621  CYS622 
 ASP623  PHE694  ASN695  SER759  ASP760  ASP761  ALA762  ILE779  LEU786  VAL792 
 PHE793  MET794  SER795  GLU796  ALA797  LYS798  CYS799  TRP800  GLU811  SER814 

> <Gold.Protein.RotatedAtoms>
  150.7142  134.0781  159.3887 H   0  0  0  0  0  0  0  0  0  0  0  0  # atno 6907 bound_to 6896
  151.8765  135.0468  160.0494 H   0  0  0  0  0  0  0  0  0  0  0  0  # atno 6908 bound_to 6896
  152.2602  133.5255  159.5414 H   0  0  0  0  0  0  0  0  0  0  0  0  # atno 6909 bound_to 6896
  146.1635  139.6841  142.9017 H   0  0  0  0  0  0  0  0  0  0  0  0  # atno 7974 bound_to 7965
  154.7391  140.2745  155.6389 H   0  0  0  0  0  0  0  0  0  0  0  0  # atno 8008 bound_to 7997
  156.2869  140.2700  156.2039 H   0  0  0  0  0  0  0  0  0  0  0  0  # atno 8009 bound_to 7997
  155.0282  140.0371  157.2453 H   0  0  0  0  0  0  0  0  0  0  0  0  # atno 8010 bound_to 7997
  140.6775  143.2785  151.3925 H   0  0  0  0  0  0  0  0  0  0  0  0  # atno 10167 bound_to 10162
  156.1649  130.4149  149.9735 H   0  0  0  0  0  0  0  0  0  0  0  0  # atno 10718 bound_to 10713
  153.9152  135.6788  153.4749 H   0  0  0  0  0  0  0  0  0  0  0  0  # atno 10763 bound_to 10752
  153.1057  135.4806  154.8945 H   0  0  0  0  0  0  0  0  0  0  0  0  # atno 10764 bound_to 10752
  154.7507  135.3184  154.8519 H   0  0  0  0  0  0  0  0  0  0  0  0  # atno 10765 bound_to 10752
  139.8773  134.9177  156.4884 H   0  0  0  0  0  0  0  0  0  0  0  0  # atno 11005 bound_to 11000
  145.4526  141.0429  143.2796 LP  0  0  0  0  0  0  0  0  0  0  0  0  # atno 17320 bound_to 7965
  144.8060  139.6050  143.7050 LP  0  0  0  0  0  0  0  0  0  0  0  0  # atno 17321 bound_to 7965
  139.6077  144.1163  152.2266 LP  0  0  0  0  0  0  0  0  0  0  0  0  # atno 17342 bound_to 10162
  140.0567  144.5889  150.7294 LP  0  0  0  0  0  0  0  0  0  0  0  0  # atno 17343 bound_to 10162
  156.7553  130.9130  151.3639 LP  0  0  0  0  0  0  0  0  0  0  0  0  # atno 17370 bound_to 10713
  157.6761  130.9095  150.0153 LP  0  0  0  0  0  0  0  0  0  0  0  0  # atno 17371 bound_to 10713
  140.8676  133.8012  155.9330 LP  0  0  0  0  0  0  0  0  0  0  0  0  # atno 17394 bound_to 11000
  140.8985  134.2407  157.5055 LP  0  0  0  0  0  0  0  0  0  0  0  0  # atno 17395 bound_to 11000

$$$$
