AV-unprocessed.smi:2631|AV-procd|sdf|10248|dock6
  -GOLD-   2272014253D 1   1.00000     0.00000
 Structure written by MMmdl.
 35 36  0  0  0  0  0  0  0  0  1 V2000
  145.8150  142.9117  154.9691 C   0  0  0  0  0  0  0  0  0  0  0  0
  146.2313  142.4666  156.2473 O   0  0  0  0  0  0  0  0  0  0  0  0
  145.6764  141.2083  156.5939 C   0  0  0  0  0  0  0  0  0  0  0  0
  146.6703  140.4359  157.4773 C   0  0  0  0  0  0  0  0  0  0  0  0
  148.0119  140.4094  156.9296 N   0  0  0  0  0  0  0  0  0  0  0  0
  148.8690  141.5130  156.9189 C   0  0  0  0  0  0  0  0  0  0  0  0
  148.4381  142.7077  157.4699 N   0  0  0  0  0  0  0  0  0  0  0  0
  150.1051  141.4327  156.3612 C   0  0  0  0  0  0  0  0  0  0  0  0
  151.2744  142.7667  156.2580 S   0  0  0  0  0  0  0  0  0  0  0  0
  151.7284  142.9479  157.9521 C   0  0  0  0  0  0  0  0  0  0  0  0
  151.6529  144.2124  158.5698 C   0  0  0  0  0  0  0  0  0  0  0  0
  152.0251  144.3570  159.9205 C   0  0  0  0  0  0  0  0  0  0  0  0
  152.4710  143.2384  160.6525 C   0  0  0  0  0  0  0  0  0  0  0  0
  152.9287  143.4165  162.3064 Cl  0  0  0  0  0  0  0  0  0  0  0  0
  152.5442  141.9744  160.0335 C   0  0  0  0  0  0  0  0  0  0  0  0
  152.1725  141.8284  158.6828 C   0  0  0  0  0  0  0  0  0  0  0  0
  150.6108  140.2014  155.7504 C   0  0  0  0  0  0  0  0  0  0  0  0
  151.7167  140.0354  155.2363 O   0  0  0  0  0  0  0  0  0  0  0  0
  149.7008  139.1452  155.7816 N   0  0  0  0  0  0  0  0  0  0  0  0
  148.4212  139.1900  156.3324 C   0  0  0  0  0  0  0  0  0  0  0  0
  147.7057  138.1892  156.2775 O   0  0  0  0  0  0  0  0  0  0  0  0
  149.9928  138.2733  155.3647 H   0  0  0  0  0  0  0  0  0  0  0  0
  146.2661  143.8804  154.7547 H   0  0  0  0  0  0  0  0  0  0  0  0
  144.7314  143.0266  154.9253 H   0  0  0  0  0  0  0  0  0  0  0  0
  146.1256  142.2159  154.1886 H   0  0  0  0  0  0  0  0  0  0  0  0
  144.7450  141.3602  157.1411 H   0  0  0  0  0  0  0  0  0  0  0  0
  145.4340  140.6374  155.6963 H   0  0  0  0  0  0  0  0  0  0  0  0
  146.7317  140.8631  158.4774 H   0  0  0  0  0  0  0  0  0  0  0  0
  146.3573  139.4013  157.6287 H   0  0  0  0  0  0  0  0  0  0  0  0
  147.5199  142.8027  157.8795 H   0  0  0  0  0  0  0  0  0  0  0  0
  149.0524  143.5048  157.5572 H   0  0  0  0  0  0  0  0  0  0  0  0
  151.3145  145.0727  158.0112 H   0  0  0  0  0  0  0  0  0  0  0  0
  151.9691  145.3267  160.3931 H   0  0  0  0  0  0  0  0  0  0  0  0
  152.8867  141.1163  160.5929 H   0  0  0  0  0  0  0  0  0  0  0  0
  152.2331  140.8594  158.2093 H   0  0  0  0  0  0  0  0  0  0  0  0
  1  2  1  0  0  0  0
  1 23  1  0  0  0  0
  1 24  1  0  0  0  0
  1 25  1  0  0  0  0
  2  3  1  0  0  0  0
  3  4  1  0  0  0  0
  3 26  1  0  0  0  0
  3 27  1  0  0  0  0
  4  5  1  0  0  0  0
  4 28  1  0  0  0  0
  4 29  1  0  0  0  0
  5 20  1  0  0  0  0
  5  6  1  0  0  0  0
  6  7  1  0  0  0  0
  6  8  2  0  0  0  0
  7 30  1  0  0  0  0
  7 31  1  0  0  0  0
  8  9  1  0  0  0  0
  8 17  1  0  0  0  0
  9 10  1  0  0  0  0
 10 16  1  0  0  0  0
 10 11  2  0  0  0  0
 11 12  1  0  0  0  0
 11 32  1  0  0  0  0
 12 13  2  0  0  0  0
 12 33  1  0  0  0  0
 13 14  1  0  0  0  0
 13 15  1  0  0  0  0
 15 16  2  0  0  0  0
 15 34  1  0  0  0  0
 16 35  1  0  0  0  0
 17 18  2  0  0  0  0
 17 19  1  0  0  0  0
 19 22  1  0  0  0  0
 19 20  1  0  0  0  0
 20 21  2  0  0  0  0
M  END
> <s_m_source_file>
AV-unprocessed.smi

> <i_m_source_file_index>
2631

> <i_lp_mmshare_version>
43012

> <i_f3d_flags>
0

> <s_epik_input>
W0NIM11PW0NIMl1bQ0gyXW4xYyhbTkgyXSljKGMoPU8pW25IXWMxPU8pU2MyW2NIXVtjSF1jKENsKVtjSF1bY0hdMg==

> <s_epik_cmdline>
J2VwaWtfcHl0aG9uJywgJy1waCcsICc3LjAnLCAnLXRuJywgJzgnLCAnLW1hJywgJzIwMCcsICctbWV0YWxfYmluZGluZycsICctaW1hZScsICc8aW5maWxlLm1hZT4nLCAnLW9tYWUnLCAnPG91dGZpbGUubWFlPic=

> <r_lp_tautomer_probability>
1

> <r_epik_Ionization_Penalty>
9.0495e-05

> <r_epik_Ionization_Penalty_Charging>
7.40646e-05

> <r_epik_Ionization_Penalty_Neutral>
1.64304e-05

> <r_epik_State_Penalty>
-0

> <r_epik_Charging_Adjusted_Penalty>
7.40646e-05

> <i_epik_Tot_Q>
0

> <i_epik_Tot_abs_Q>
0

> <r_epik_Metal_State_Penalty>
0.0697747

> <b_epik_Metal_Only>
0

> <s_epik_Chemistry_Notes>
This compound has an imine and may undergo hydrolysis.

> <s_lp_Force_Field>
OPLS_2005

> <r_lp_Energy>
18.0154

> <b_lp_Chiralities_Consistent>
1

> <s_lp_Variant>
AV-unprocessed.smi:2631-1

> <Gold.Version>
5.8.1

> <Gold.Id.Protein>
6NUR|6NUR_protein|mol2

> <Gold.PLP.Fitness>
36.9613

> <Gold.PLP.PLP>
-34.9978

> <Gold.PLP.part.hbond>
-2.2256

> <Gold.PLP.part.metal>
0.0000

> <Gold.PLP.part.buried>
-5.1388

> <Gold.PLP.part.nonpolar>
-28.0708

> <Gold.PLP.part.repulsive>
0.2314

> <Gold.PLP.ligand.clash>
0.0000

> <Gold.PLP.ligand.torsion>
0.5485

> <Gold.PLP.Chemscore.Hbond>
1.0086

> <Gold.PLP.Chemscore.CHOScore>
0.0000

> <Gold.PLP.Chemscore.Metal>
0.0000

> <Gold.Chemscore.Hbonds>
donor molecule, donor type, donor heavy atom, donor atom, acceptor molecule, acceptor atom, score
      L1  H     7    31       P1  8028  0.08
      P1  H  7989  7998       L1    18  0.96

> <Gold.PLP.Chemscore.Internal.Correction>
0.0347

> <Gold.Rescore>
     Score         DG    S(hbond)    S(metal)    S(lipo)     H(rot)  DE(clash)    DE(int)     intcor
     12.33     -14.30       0.99        0.00      92.49       2.07       0.29       1.68       ----

> <Gold.Chemscore.Fitness>
12.3324

> <Gold.Chemscore.DG>
-14.3039

> <Gold.Chemscore.ZeroCoef>
-5.4800

> <Gold.Chemscore.Hbond>
0.9872

> <Gold.Chemscore.Metal>
0.0000

> <Gold.Chemscore.Lipo>
92.4855

> <Gold.Chemscore.Internal_Hbond>
0.0000

> <Gold.Chemscore.DEClash>
0.2931

> <Gold.Chemscore.DEInternal>
1.6783

> <Gold.Chemscore.Rot>
2.0680

> <Gold.Chemscore.Internal.Correction>
   9.000000E+99

> <Gold.Chemscore.Hbonds>
donor molecule, donor type, donor heavy atom, donor atom, acceptor molecule, acceptor atom, score
      L1  H     7    31       P1  8028  0.02
      P1  H  7989  7998       L1    18  0.55

> <Gold.Chemscore.Hbond.Weighted>
-3.2972

> <Gold.Chemscore.Metal.Weighted>
-0.0000

> <Gold.Chemscore.Lipo.Weighted>
-10.8208

> <Gold.Chemscore.Internal_Hbond.Weighted>
0.0000

> <Gold.Chemscore.DEClash.Weighted>
0.2931

> <Gold.Chemscore.DEInternal.Weighted>
1.6783

> <Gold.Chemscore.Rot.Weighted>
5.2941

> <Gold.Chemscore.Internal.Correction.Weighted>
   9.000000E+99

> <Gold.Protein.RotatedTorsions>
[ 6907 6896 6895 6894 ] final -158.30 input  -60.11 | X-H torsion
[ 7974 7965 7964 7962 ] final -125.09 input  175.53 | X-H torsion
[ 8008 7997 7996 7995 ] final  142.27 input   59.86 | X-H torsion
[ 10167 10162 10161 10158 ] final  179.45 input  -65.29 | X-H torsion
[ 10718 10713 10712 10709 ] final  -93.41 input   66.30 | X-H torsion
[ 10763 10752 10751 10750 ] final  149.53 input  -60.55 | X-H torsion
[ 11005 11000 10999 10996 ] final -102.18 input  -57.11 | X-H torsion

> <Gold.Protein.ActiveResidues>
 VAL166  LYS551  ARG553  GLY616  TRP617  ASP618  TYR619  PRO620  LYS621  CYS622 
 ASP623  PHE694  ASN695  SER759  ASP760  ASP761  ALA762  ILE779  LEU786  VAL792 
 PHE793  MET794  SER795  GLU796  ALA797  LYS798  CYS799  TRP800  GLU811  SER814 

> <Gold.Protein.RotatedAtoms>
  151.3160  133.4060  159.2650 H   0  0  0  0  0  0  0  0  0  0  0  0  # atno 6907 bound_to 6896
  151.0074  134.9370  159.7998 H   0  0  0  0  0  0  0  0  0  0  0  0  # atno 6908 bound_to 6896
  152.5291  134.3125  159.9171 H   0  0  0  0  0  0  0  0  0  0  0  0  # atno 6909 bound_to 6896
  145.0012  140.7822  143.4495 H   0  0  0  0  0  0  0  0  0  0  0  0  # atno 7974 bound_to 7965
  156.2952  140.2293  156.4700 H   0  0  0  0  0  0  0  0  0  0  0  0  # atno 8008 bound_to 7997
  154.7943  140.0452  157.1246 H   0  0  0  0  0  0  0  0  0  0  0  0  # atno 8009 bound_to 7997
  154.9608  140.3054  155.5035 H   0  0  0  0  0  0  0  0  0  0  0  0  # atno 8010 bound_to 7997
  139.5337  144.2560  152.0746 H   0  0  0  0  0  0  0  0  0  0  0  0  # atno 10167 bound_to 10162
  156.0013  130.5026  150.5772 H   0  0  0  0  0  0  0  0  0  0  0  0  # atno 10718 bound_to 10713
  154.0726  135.2865  155.3305 H   0  0  0  0  0  0  0  0  0  0  0  0  # atno 10763 bound_to 10752
  154.6736  135.5290  153.8174 H   0  0  0  0  0  0  0  0  0  0  0  0  # atno 10764 bound_to 10752
  153.0479  135.6564  154.0907 H   0  0  0  0  0  0  0  0  0  0  0  0  # atno 10765 bound_to 10752
  141.1200  133.8538  157.1327 H   0  0  0  0  0  0  0  0  0  0  0  0  # atno 11005 bound_to 11000
  145.2151  139.2186  143.5122 LP  0  0  0  0  0  0  0  0  0  0  0  0  # atno 17320 bound_to 7965
  146.3452  140.1997  142.8589 LP  0  0  0  0  0  0  0  0  0  0  0  0  # atno 17321 bound_to 7965
  140.2027  144.4642  150.6423 LP  0  0  0  0  0  0  0  0  0  0  0  0  # atno 17342 bound_to 10162
  140.6531  143.2230  151.6032 LP  0  0  0  0  0  0  0  0  0  0  0  0  # atno 17343 bound_to 10162
  157.3658  131.0757  151.1599 LP  0  0  0  0  0  0  0  0  0  0  0  0  # atno 17370 bound_to 10713
  157.2369  130.6551  149.5873 LP  0  0  0  0  0  0  0  0  0  0  0  0  # atno 17371 bound_to 10713
  140.0150  134.9971  157.0474 LP  0  0  0  0  0  0  0  0  0  0  0  0  # atno 17394 bound_to 11000
  140.4535  134.1557  155.7184 LP  0  0  0  0  0  0  0  0  0  0  0  0  # atno 17395 bound_to 11000

$$$$
