AV-unprocessed.smi:1222|AV-procd|sdf|5123|dock1
  -GOLD-   22720 4183D 1   1.00000     0.00000
 Structure written by MMmdl.
 36 38  0  0  0  0  0  0  0  0  3 V2000
  149.2001  135.0440  156.0029 O   0  0  0  0  0  0  0  0  0  0  0  0
  149.9969  134.9681  155.0649 C   0  0  0  0  0  0  0  0  0  0  0  0
  151.0994  135.7294  154.8845 N   0  5  0  0  0  0  0  0  0  0  0  0
  150.9927  137.0677  154.8472 C   0  0  0  0  0  0  0  0  0  0  0  0
  150.0914  137.7063  154.0922 N   0  0  0  0  0  0  0  0  0  0  0  0
  150.1533  139.0959  154.2104 C   0  0  0  0  0  0  0  0  0  0  0  0
  151.1190  139.5253  155.0817 C   0  0  0  0  0  0  0  0  0  0  0  0
  151.9837  138.1886  155.7854 S   0  0  0  0  0  0  0  0  0  0  0  0
  149.8070  134.0593  154.0978 N   0  0  0  0  0  0  0  0  0  0  0  0
  148.7086  133.1006  154.0257 C   0  0  2  0  0  0  0  0  0  0  0  0
  149.2392  131.6547  154.0620 C   0  0  0  0  0  0  0  0  0  0  0  0
  148.0998  130.6408  153.8720 C   0  0  0  0  0  0  0  0  0  0  0  0
  147.3632  130.8995  152.6101 N   0  3  1  0  0  0  0  0  0  0  0  0
  146.3370  129.8688  152.3416 C   0  0  0  0  0  0  0  0  0  0  0  0
  146.6992  128.4985  152.8654 C   0  0  0  0  0  0  0  0  0  0  0  0
  146.7933  128.7921  151.3845 C   0  0  0  0  0  0  0  0  0  0  0  0
  146.8003  132.2719  152.5748 C   0  0  0  0  0  0  0  0  0  0  0  0
  147.9085  133.3257  152.7322 C   0  0  0  0  0  0  0  0  0  0  0  0
  149.4705  139.7039  153.6356 H   0  0  0  0  0  0  0  0  0  0  0  0
  151.3728  140.5389  155.3521 H   0  0  0  0  0  0  0  0  0  0  0  0
  150.4845  134.0372  153.3498 H   0  0  0  0  0  0  0  0  0  0  0  0
  148.0395  133.2587  154.8738 H   0  0  0  0  0  0  0  0  0  0  0  0
  149.9850  131.5133  153.2780 H   0  0  0  0  0  0  0  0  0  0  0  0
  149.7460  131.4607  155.0080 H   0  0  0  0  0  0  0  0  0  0  0  0
  148.5114  129.6311  153.8558 H   0  0  0  0  0  0  0  0  0  0  0  0
  147.4094  130.6888  154.7155 H   0  0  0  0  0  0  0  0  0  0  0  0
  145.3016  130.2051  152.3430 H   0  0  0  0  0  0  0  0  0  0  0  0
  147.6321  128.3860  153.4152 H   0  0  0  0  0  0  0  0  0  0  0  0
  145.8852  127.8560  153.1953 H   0  0  0  0  0  0  0  0  0  0  0  0
  146.0420  128.3420  150.7387 H   0  0  0  0  0  0  0  0  0  0  0  0
  147.7888  128.8750  150.9516 H   0  0  0  0  0  0  0  0  0  0  0  0
  146.2804  132.4303  151.6294 H   0  0  0  0  0  0  0  0  0  0  0  0
  146.0586  132.3843  153.3674 H   0  0  0  0  0  0  0  0  0  0  0  0
  147.4709  134.3247  152.7319 H   0  0  0  0  0  0  0  0  0  0  0  0
  148.5758  133.2801  151.8698 H   0  0  0  0  0  0  0  0  0  0  0  0
  148.0387  130.8410  151.8614 H   0  0  0  0  0  0  0  0  0  0  0  0
  1  2  2  0  0  0  0
  2  3  1  0  0  0  0
  2  9  1  0  0  0  0
  3  4  1  0  0  0  0
  4  8  1  0  0  0  0
  4  5  2  0  0  0  0
  5  6  1  0  0  0  0
  6  7  2  0  0  0  0
  6 19  1  0  0  0  0
  7  8  1  0  0  0  0
  7 20  1  0  0  0  0
  9 10  1  0  0  0  0
  9 21  1  0  0  0  0
 10 18  1  0  0  0  0
 10 11  1  0  0  0  0
 10 22  1  0  0  0  0
 11 12  1  0  0  0  0
 11 23  1  0  0  0  0
 11 24  1  0  0  0  0
 12 13  1  0  0  0  0
 12 25  1  0  0  0  0
 12 26  1  0  0  0  0
 13 14  1  0  0  0  0
 13 17  1  0  0  0  0
 13 36  1  0  0  0  0
 14 16  1  0  0  0  0
 14 15  1  0  0  0  0
 14 27  1  0  0  0  0
 15 16  1  0  0  0  0
 15 28  1  0  0  0  0
 15 29  1  0  0  0  0
 16 30  1  0  0  0  0
 16 31  1  0  0  0  0
 17 18  1  0  0  0  0
 17 32  1  0  0  0  0
 17 33  1  0  0  0  0
 18 34  1  0  0  0  0
 18 35  1  0  0  0  0
M  CHG  1   3  -1
M  CHG  1  13   1
M  END
> <s_m_source_file>
AV-unprocessed.smi

> <i_m_source_file_index>
1222

> <i_lp_mmshare_version>
43012

> <i_f3d_flags>
0

> <s_epik_input>
czFbY0hdW2NIXW5jMVtOSF1DKD1PKVtOSF1bQ0hdMltDSDJdW0NIMl1OKFtDSDJdW0NIMl0yKVtDSF0zW0NIMl1bQ0gyXTM=

> <s_epik_cmdline>
J2VwaWtfcHl0aG9uJywgJy1waCcsICc3LjAnLCAnLXRuJywgJzgnLCAnLW1hJywgJzIwMCcsICctbWV0YWxfYmluZGluZycsICctaW1hZScsICc8aW5maWxlLm1hZT4nLCAnLW9tYWUnLCAnPG91dGZpbGUubWFlPic=

> <r_lp_tautomer_probability>
0.999

> <r_epik_Ionization_Penalty>
6.4609

> <r_epik_Ionization_Penalty_Charging>
5.58663

> <r_epik_Ionization_Penalty_Neutral>
0.874262

> <r_epik_State_Penalty>
5.57752

> <r_epik_Charging_Adjusted_Penalty>
11.1642

> <i_epik_Tot_Q>
0

> <i_epik_Tot_abs_Q>
2

> <r_epik_Metal_State_Penalty>
1.58738

> <b_epik_Metal_Only>
1

> <s_lp_Force_Field>
OPLS_2005

> <r_lp_Energy>
15.8934

> <b_lp_Chiralities_Consistent>
1

> <s_lp_Variant>
AV-unprocessed.smi:1222-4

> <Gold.Version>
5.8.1

> <Gold.Id.Protein>
6NUR|6NUR_protein|mol2

> <Gold.PLP.Fitness>
41.1367

> <Gold.PLP.PLP>
-31.8320

> <Gold.PLP.part.hbond>
-2.4866

> <Gold.PLP.part.metal>
0.0000

> <Gold.PLP.part.buried>
-1.5858

> <Gold.PLP.part.nonpolar>
-29.3721

> <Gold.PLP.part.repulsive>
2.0232

> <Gold.PLP.ligand.clash>
0.0000

> <Gold.PLP.ligand.torsion>
1.8121

> <Gold.PLP.Chemscore.Hbond>
3.0000

> <Gold.PLP.Chemscore.CHOScore>
0.8776

> <Gold.PLP.Chemscore.Metal>
0.0000

> <Gold.Chemscore.Hbonds>
donor molecule, donor type, donor heavy atom, donor atom, acceptor molecule, acceptor atom, score
      L1  H    13    36       P1 10747  1.00
      P1  H 10752 10763       L1     3  2.00
      L1  C     6    19       P1  7957  0.89

> <Gold.PLP.Chemscore.Internal.Correction>
1.2959

> <Gold.Rescore>
     Score         DG    S(hbond)    S(metal)    S(lipo)     H(rot)  DE(clash)    DE(int)     intcor
     14.72     -16.58       1.65        0.00      75.07       1.25       0.12       1.74       ----

> <Gold.Chemscore.Fitness>
14.7191

> <Gold.Chemscore.DG>
-16.5838

> <Gold.Chemscore.ZeroCoef>
-5.4800

> <Gold.Chemscore.Hbond>
1.6508

> <Gold.Chemscore.Metal>
0.0000

> <Gold.Chemscore.Lipo>
75.0652

> <Gold.Chemscore.Internal_Hbond>
0.0000

> <Gold.Chemscore.DEClash>
0.1204

> <Gold.Chemscore.DEInternal>
1.7443

> <Gold.Chemscore.Rot>
1.2470

> <Gold.Chemscore.Internal.Correction>
   9.000000E+99

> <Gold.Chemscore.Hbonds>
donor molecule, donor type, donor heavy atom, donor atom, acceptor molecule, acceptor atom, score
      L1  H    13    36       P1 10747  1.00
      P1  H 10752 10763       L1     3  0.26

> <Gold.Chemscore.Hbond.Weighted>
-5.5136

> <Gold.Chemscore.Metal.Weighted>
-0.0000

> <Gold.Chemscore.Lipo.Weighted>
-8.7826

> <Gold.Chemscore.Internal_Hbond.Weighted>
0.0000

> <Gold.Chemscore.DEClash.Weighted>
0.1204

> <Gold.Chemscore.DEInternal.Weighted>
1.7443

> <Gold.Chemscore.Rot.Weighted>
3.1924

> <Gold.Chemscore.Internal.Correction.Weighted>
   9.000000E+99

> <Gold.Protein.RotatedTorsions>
[ 6907 6896 6895 6894 ] final   29.74 input  -60.11 | X-H torsion
[ 7974 7965 7964 7962 ] final   55.49 input  175.53 | X-H torsion
[ 8008 7997 7996 7995 ] final   98.00 input   59.86 | X-H torsion
[ 10167 10162 10161 10158 ] final  -30.16 input  -65.29 | X-H torsion
[ 10718 10713 10712 10709 ] final -158.76 input   66.30 | X-H torsion
[ 10763 10752 10751 10750 ] final   63.17 input  -60.55 | X-H torsion
[ 11005 11000 10999 10996 ] final  -99.19 input  -57.11 | X-H torsion

> <Gold.Protein.ActiveResidues>
 VAL166  LYS551  ARG553  GLY616  TRP617  ASP618  TYR619  PRO620  LYS621  CYS622 
 ASP623  PHE694  ASN695  SER759  ASP760  ASP761  ALA762  ILE779  LEU786  VAL792 
 PHE793  MET794  SER795  GLU796  ALA797  LYS798  CYS799  TRP800  GLU811  SER814 

> <Gold.Protein.RotatedAtoms>
  152.0359  134.9740  160.0573 H   0  0  0  0  0  0  0  0  0  0  0  0  # atno 6907 bound_to 6896
  152.1198  133.4342  159.4678 H   0  0  0  0  0  0  0  0  0  0  0  0  # atno 6908 bound_to 6896
  150.6848  134.2467  159.4537 H   0  0  0  0  0  0  0  0  0  0  0  0  # atno 6909 bound_to 6896
  145.9499  139.3962  143.0312 H   0  0  0  0  0  0  0  0  0  0  0  0  # atno 7974 bound_to 7965
  156.0960  140.3250  155.7878 H   0  0  0  0  0  0  0  0  0  0  0  0  # atno 8008 bound_to 7997
  155.4917  140.0562  157.2970 H   0  0  0  0  0  0  0  0  0  0  0  0  # atno 8009 bound_to 7997
  154.4666  140.1992  156.0117 H   0  0  0  0  0  0  0  0  0  0  0  0  # atno 8010 bound_to 7997
  140.7252  143.3871  151.1496 H   0  0  0  0  0  0  0  0  0  0  0  0  # atno 10167 bound_to 10162
  156.5586  130.8637  151.2802 H   0  0  0  0  0  0  0  0  0  0  0  0  # atno 10718 bound_to 10713
  153.0008  135.5438  154.6310 H   0  0  0  0  0  0  0  0  0  0  0  0  # atno 10763 bound_to 10752
  154.5587  135.2832  155.0942 H   0  0  0  0  0  0  0  0  0  0  0  0  # atno 10764 bound_to 10752
  154.2153  135.6460  153.5180 H   0  0  0  0  0  0  0  0  0  0  0  0  # atno 10765 bound_to 10752
  141.1317  133.8303  157.0939 H   0  0  0  0  0  0  0  0  0  0  0  0  # atno 11005 bound_to 11000
  145.8186  140.9690  143.0911 LP  0  0  0  0  0  0  0  0  0  0  0  0  # atno 17320 bound_to 7965
  144.6794  140.0012  143.7484 LP  0  0  0  0  0  0  0  0  0  0  0  0  # atno 17321 bound_to 7965
  139.7469  143.8837  152.3066 LP  0  0  0  0  0  0  0  0  0  0  0  0  # atno 17342 bound_to 10162
  139.8678  144.7084  150.9023 LP  0  0  0  0  0  0  0  0  0  0  0  0  # atno 17343 bound_to 10162
  157.7373  130.9793  150.2185 LP  0  0  0  0  0  0  0  0  0  0  0  0  # atno 17370 bound_to 10713
  156.2819  130.3734  149.7927 LP  0  0  0  0  0  0  0  0  0  0  0  0  # atno 17371 bound_to 10713
  140.0375  134.9871  157.0898 LP  0  0  0  0  0  0  0  0  0  0  0  0  # atno 17394 bound_to 11000
  140.4188  134.1903  155.7164 LP  0  0  0  0  0  0  0  0  0  0  0  0  # atno 17395 bound_to 11000

$$$$
