AV-unprocessed.smi:3287|AV-procd|sdf|12604|dock5
  -GOLD-   2272018533D 1   1.00000     0.00000
 Structure written by MMmdl.
 43 44  0  0  0  0  0  0  0  0  2 V2000
  151.9125  144.0114  161.3106 C   0  0  0  0  0  0  0  0  0  0  0  0
  152.7972  143.9220  160.0507 C   0  0  2  0  0  0  0  0  0  0  0  0
  152.3813  144.9630  158.9911 C   0  0  0  0  0  0  0  0  0  0  0  0
  151.0646  144.5935  158.2860 C   0  0  0  0  0  0  0  0  0  0  0  0
  151.1404  143.1884  157.6539 C   0  0  2  0  0  0  0  0  0  0  0  0
  149.8625  142.7981  157.0176 N   0  3  0  0  0  0  0  0  0  0  0  0
  149.9572  141.7137  156.0162 C   0  0  0  0  0  0  0  0  0  0  0  0
  150.0357  140.3315  156.6872 C   0  0  1  0  0  0  0  0  0  0  0  0
  148.7244  139.8886  156.9789 O   0  0  0  0  0  0  0  0  0  0  0  0
  150.7849  139.3424  155.8080 C   0  0  0  0  0  0  0  0  0  0  0  0
  150.1268  138.2378  155.2245 C   0  0  0  0  0  0  0  0  0  0  0  0
  150.8717  137.3643  154.4073 C   0  0  0  0  0  0  0  0  0  0  0  0
  152.1866  137.5309  154.1501 N   0  0  0  0  0  0  0  0  0  0  0  0
  152.8109  138.5893  154.7094 C   0  0  0  0  0  0  0  0  0  0  0  0
  152.1584  139.5213  155.5414 C   0  0  0  0  0  0  0  0  0  0  0  0
  151.5347  142.1427  158.7136 C   0  0  0  0  0  0  0  0  0  0  0  0
  152.8585  142.5095  159.4142 C   0  0  2  0  0  0  0  0  0  0  0  0
  153.3046  141.4158  160.3986 C   0  0  0  0  0  0  0  0  0  0  0  0
  150.8821  143.7181  161.1130 H   0  0  0  0  0  0  0  0  0  0  0  0
  151.8941  145.0302  161.6988 H   0  0  0  0  0  0  0  0  0  0  0  0
  152.2910  143.3762  162.1111 H   0  0  0  0  0  0  0  0  0  0  0  0
  153.8083  144.1802  160.3689 H   0  0  0  0  0  0  0  0  0  0  0  0
  152.2957  145.9508  159.4457 H   0  0  0  0  0  0  0  0  0  0  0  0
  153.1709  145.0457  158.2428 H   0  0  0  0  0  0  0  0  0  0  0  0
  150.2377  144.6397  158.9954 H   0  0  0  0  0  0  0  0  0  0  0  0
  150.8560  145.3456  157.5252 H   0  0  0  0  0  0  0  0  0  0  0  0
  151.9125  143.1900  156.8829 H   0  0  0  0  0  0  0  0  0  0  0  0
  149.2443  142.4775  157.7489 H   0  0  0  0  0  0  0  0  0  0  0  0
  149.1032  141.7519  155.3395 H   0  0  0  0  0  0  0  0  0  0  0  0
  150.8521  141.8731  155.4130 H   0  0  0  0  0  0  0  0  0  0  0  0
  150.5673  140.4214  157.6358 H   0  0  0  0  0  0  0  0  0  0  0  0
  148.7514  138.9568  157.1374 H   0  0  0  0  0  0  0  0  0  0  0  0
  149.0746  138.0606  155.3936 H   0  0  0  0  0  0  0  0  0  0  0  0
  150.3972  136.5110  153.9455 H   0  0  0  0  0  0  0  0  0  0  0  0
  153.8617  138.6992  154.4855 H   0  0  0  0  0  0  0  0  0  0  0  0
  152.7053  140.3533  155.9607 H   0  0  0  0  0  0  0  0  0  0  0  0
  150.7385  142.0399  159.4520 H   0  0  0  0  0  0  0  0  0  0  0  0
  151.6348  141.1659  158.2385 H   0  0  0  0  0  0  0  0  0  0  0  0
  153.6256  142.5491  158.6389 H   0  0  0  0  0  0  0  0  0  0  0  0
  152.5574  141.2369  161.1719 H   0  0  0  0  0  0  0  0  0  0  0  0
  154.2397  141.6857  160.8900 H   0  0  0  0  0  0  0  0  0  0  0  0
  153.4681  140.4703  159.8808 H   0  0  0  0  0  0  0  0  0  0  0  0
  149.4470  143.6100  156.5830 H   0  0  0  0  0  0  0  0  0  0  0  0
  1  2  1  0  0  0  0
  1 19  1  0  0  0  0
  1 20  1  0  0  0  0
  1 21  1  0  0  0  0
  2 17  1  0  0  0  0
  2  3  1  0  0  0  0
  2 22  1  0  0  0  0
  3  4  1  0  0  0  0
  3 23  1  0  0  0  0
  3 24  1  0  0  0  0
  4  5  1  0  0  0  0
  4 25  1  0  0  0  0
  4 26  1  0  0  0  0
  5  6  1  0  0  0  0
  5 16  1  0  0  0  0
  5 27  1  0  0  0  0
  6  7  1  0  0  0  0
  6 28  1  0  0  0  0
  6 43  1  0  0  0  0
  7  8  1  0  0  0  0
  7 29  1  0  0  0  0
  7 30  1  0  0  0  0
  8  9  1  0  0  0  0
  8 10  1  0  0  0  0
  8 31  1  0  0  0  0
  9 32  1  0  0  0  0
 10 15  1  0  0  0  0
 10 11  2  0  0  0  0
 11 12  1  0  0  0  0
 11 33  1  0  0  0  0
 12 13  2  0  0  0  0
 12 34  1  0  0  0  0
 13 14  1  0  0  0  0
 14 15  2  0  0  0  0
 14 35  1  0  0  0  0
 15 36  1  0  0  0  0
 16 17  1  0  0  0  0
 16 37  1  0  0  0  0
 16 38  1  0  0  0  0
 17 18  1  0  0  0  0
 17 39  1  0  0  0  0
 18 40  1  0  0  0  0
 18 41  1  0  0  0  0
 18 42  1  0  0  0  0
M  CHG  1   6   1
M  END
> <s_m_source_file>
AV-unprocessed.smi

> <i_m_source_file_index>
3287

> <i_lp_mmshare_version>
43012

> <i_f3d_flags>
0

> <s_epik_input>
W0NIM11bQ0BASF0xW0NIMl1bQ0gyXVtDQEhdKFtDSDJdW0NASF0xW0NIM10pW05IXVtDSDJdW0NASF0oW09IXSljMltjSF1bY0hdbltjSF1bY0hdMg==

> <s_epik_cmdline>
J2VwaWtfcHl0aG9uJywgJy1waCcsICc3LjAnLCAnLXRuJywgJzgnLCAnLW1hJywgJzIwMCcsICctbWV0YWxfYmluZGluZycsICctaW1hZScsICc8aW5maWxlLm1hZT4nLCAnLW9tYWUnLCAnPG91dGZpbGUubWFlPic=

> <r_lp_tautomer_probability>
1

> <r_epik_Ionization_Penalty>
0.00537262

> <r_epik_Ionization_Penalty_Charging>
0.00321624

> <r_epik_Ionization_Penalty_Neutral>
0.00215638

> <r_epik_State_Penalty>
-0

> <r_epik_Charging_Adjusted_Penalty>
0.00321624

> <i_epik_Tot_Q>
1

> <i_epik_Tot_abs_Q>
1

> <r_epik_Metal_State_Penalty>
-0

> <b_epik_Metal_Only>
0

> <s_lp_Force_Field>
OPLS_2005

> <r_lp_Energy>
17.5476

> <b_lp_Chiralities_Consistent>
1

> <s_lp_Variant>
AV-unprocessed.smi:3287-15

> <Gold.Version>
5.8.1

> <Gold.Id.Protein>
6NUR|6NUR_protein|mol2

> <Gold.PLP.Fitness>
54.5136

> <Gold.PLP.PLP>
-44.8601

> <Gold.PLP.part.hbond>
-2.0000

> <Gold.PLP.part.metal>
0.0000

> <Gold.PLP.part.buried>
-4.7376

> <Gold.PLP.part.nonpolar>
-39.3908

> <Gold.PLP.part.repulsive>
0.1571

> <Gold.PLP.ligand.clash>
0.0000

> <Gold.PLP.ligand.torsion>
0.6538

> <Gold.PLP.Chemscore.Hbond>
2.7680

> <Gold.PLP.Chemscore.CHOScore>
0.8798

> <Gold.PLP.Chemscore.Metal>
0.0000

> <Gold.Chemscore.Hbonds>
donor molecule, donor type, donor heavy atom, donor atom, acceptor molecule, acceptor atom, score
      L1  H     6    43       P1  8028  2.00
      P1  H 10752 10763       L1    13  0.82
      L1  C    12    34       P1  7948  0.65
      L1  C    12    34       P1  7949  0.21

> <Gold.PLP.Chemscore.Internal.Correction>
0.0176

> <Gold.Rescore>
     Score         DG    S(hbond)    S(metal)    S(lipo)     H(rot)  DE(clash)    DE(int)     intcor
     21.73     -22.37       1.80        0.00     134.51       1.90       0.04       0.60       ----

> <Gold.Chemscore.Fitness>
21.7321

> <Gold.Chemscore.DG>
-22.3718

> <Gold.Chemscore.ZeroCoef>
-5.4800

> <Gold.Chemscore.Hbond>
1.8044

> <Gold.Chemscore.Metal>
0.0000

> <Gold.Chemscore.Lipo>
134.5131

> <Gold.Chemscore.Internal_Hbond>
0.0000

> <Gold.Chemscore.DEClash>
0.0354

> <Gold.Chemscore.DEInternal>
0.6044

> <Gold.Chemscore.Rot>
1.9035

> <Gold.Chemscore.Internal.Correction>
   9.000000E+99

> <Gold.Chemscore.Hbonds>
donor molecule, donor type, donor heavy atom, donor atom, acceptor molecule, acceptor atom, score
      L1  H     6    43       P1  8028  0.94
      P1  H 10752 10763       L1    13  0.43

> <Gold.Chemscore.Hbond.Weighted>
-6.0267

> <Gold.Chemscore.Metal.Weighted>
-0.0000

> <Gold.Chemscore.Lipo.Weighted>
-15.7380

> <Gold.Chemscore.Internal_Hbond.Weighted>
0.0000

> <Gold.Chemscore.DEClash.Weighted>
0.0354

> <Gold.Chemscore.DEInternal.Weighted>
0.6044

> <Gold.Chemscore.Rot.Weighted>
4.8729

> <Gold.Chemscore.Internal.Correction.Weighted>
   9.000000E+99

> <Gold.Protein.RotatedTorsions>
[ 6907 6896 6895 6894 ] final  -29.50 input  -60.11 | X-H torsion
[ 7974 7965 7964 7962 ] final  171.43 input  175.53 | X-H torsion
[ 8008 7997 7996 7995 ] final  -76.27 input   59.86 | X-H torsion
[ 10167 10162 10161 10158 ] final  -15.96 input  -65.29 | X-H torsion
[ 10718 10713 10712 10709 ] final  -19.14 input   66.30 | X-H torsion
[ 10763 10752 10751 10750 ] final   35.05 input  -60.55 | X-H torsion
[ 11005 11000 10999 10996 ] final -109.87 input  -57.11 | X-H torsion

> <Gold.Protein.ActiveResidues>
 VAL166  LYS551  ARG553  GLY616  TRP617  ASP618  TYR619  PRO620  LYS621  CYS622 
 ASP623  PHE694  ASN695  SER759  ASP760  ASP761  ALA762  ILE779  LEU786  VAL792 
 PHE793  MET794  SER795  GLU796  ALA797  LYS798  CYS799  TRP800  GLU811  SER814 

> <Gold.Protein.RotatedAtoms>
  151.1183  135.0065  159.8526 H   0  0  0  0  0  0  0  0  0  0  0  0  # atno 6907 bound_to 6896
  152.5446  134.1753  159.8623 H   0  0  0  0  0  0  0  0  0  0  0  0  # atno 6908 bound_to 6896
  151.1809  133.4681  159.2627 H   0  0  0  0  0  0  0  0  0  0  0  0  # atno 6909 bound_to 6896
  144.7295  139.9349  143.6426 H   0  0  0  0  0  0  0  0  0  0  0  0  # atno 7974 bound_to 7965
  154.5490  140.0730  156.8636 H   0  0  0  0  0  0  0  0  0  0  0  0  # atno 8008 bound_to 7997
  155.3030  140.3385  155.4228 H   0  0  0  0  0  0  0  0  0  0  0  0  # atno 8009 bound_to 7997
  156.1944  140.1698  156.8013 H   0  0  0  0  0  0  0  0  0  0  0  0  # atno 8010 bound_to 7997
  140.7226  143.5164  150.9686 H   0  0  0  0  0  0  0  0  0  0  0  0  # atno 10167 bound_to 10162
  156.5498  130.4699  149.6457 H   0  0  0  0  0  0  0  0  0  0  0  0  # atno 10718 bound_to 10713
  153.0136  135.6344  154.1765 H   0  0  0  0  0  0  0  0  0  0  0  0  # atno 10763 bound_to 10752
  154.1506  135.2829  155.3138 H   0  0  0  0  0  0  0  0  0  0  0  0  # atno 10764 bound_to 10752
  154.6056  135.5573  153.7480 H   0  0  0  0  0  0  0  0  0  0  0  0  # atno 10765 bound_to 10752
  141.0824  133.9197  157.2260 H   0  0  0  0  0  0  0  0  0  0  0  0  # atno 11005 bound_to 11000
  146.0829  139.3817  143.0453 LP  0  0  0  0  0  0  0  0  0  0  0  0  # atno 17320 bound_to 7965
  145.7817  140.9853  143.1096 LP  0  0  0  0  0  0  0  0  0  0  0  0  # atno 17321 bound_to 7965
  139.8880  143.6989  152.3149 LP  0  0  0  0  0  0  0  0  0  0  0  0  # atno 17342 bound_to 10162
  139.7294  144.7585  151.0826 LP  0  0  0  0  0  0  0  0  0  0  0  0  # atno 17343 bound_to 10162
  156.2895  130.7116  151.1961 LP  0  0  0  0  0  0  0  0  0  0  0  0  # atno 17370 bound_to 10713
  157.7389  131.0535  150.5262 LP  0  0  0  0  0  0  0  0  0  0  0  0  # atno 17371 bound_to 10713
  139.9639  135.0147  156.9334 LP  0  0  0  0  0  0  0  0  0  0  0  0  # atno 17394 bound_to 11000
  140.5439  134.0693  155.7349 LP  0  0  0  0  0  0  0  0  0  0  0  0  # atno 17395 bound_to 11000

$$$$
