AV-unprocessed.smi:1920|AV-procd|sdf|7780|dock2
  -GOLD-   22720 9523D 1   1.00000     0.00000
 Structure written by MMmdl.
 37 38  0  0  0  0  0  0  0  0  2 V2000
  151.9719  139.4349  155.5447 C   0  0  0  0  0  0  0  0  0  0  0  0
  150.7636  140.3267  155.2291 C   0  0  1  0  0  0  0  0  0  0  0  0
  149.4545  139.5091  155.2167 C   0  0  0  0  0  0  0  0  0  0  0  0
  148.3250  140.2440  154.6370 N   0  0  0  0  0  0  0  0  0  0  0  0
  148.2365  141.5959  154.4235 C   0  0  0  0  0  0  0  0  0  0  0  0
  147.0036  141.8242  153.8688 C   0  0  0  0  0  0  0  0  0  0  0  0
  146.3958  140.6024  153.7591 N   0  3  0  0  0  0  0  0  0  0  0  0
  147.2020  139.6424  154.2236 C   0  0  0  0  0  0  0  0  0  0  0  0
  150.7000  141.4039  156.2162 N   0  0  0  0  0  0  0  0  0  0  0  0
  150.9023  141.2730  157.5371 C   0  0  0  0  0  0  0  0  0  0  0  0
  151.1800  140.2012  158.0757 O   0  0  0  0  0  0  0  0  0  0  0  0
  150.7768  142.5540  158.3705 C   0  0  0  0  0  0  0  0  0  0  0  0
  152.1109  143.0613  158.9635 C   0  0  1  0  0  0  0  0  0  0  0  0
  151.9978  144.3923  159.6672 C   0  0  0  0  0  0  0  0  0  0  0  0
  152.4411  144.3527  160.9213 C   0  0  0  0  0  0  0  0  0  0  0  0
  152.9391  142.9898  161.3127 C   0  0  0  0  0  0  0  0  0  0  0  0
  152.6812  142.1238  160.0591 C   0  0  0  0  0  0  0  0  0  0  0  0
  152.0718  138.6354  154.8100 H   0  0  0  0  0  0  0  0  0  0  0  0
  151.8799  138.9726  156.5283 H   0  0  0  0  0  0  0  0  0  0  0  0
  152.8989  140.0094  155.5311 H   0  0  0  0  0  0  0  0  0  0  0  0
  150.9272  140.7458  154.2347 H   0  0  0  0  0  0  0  0  0  0  0  0
  149.5812  138.6038  154.6215 H   0  0  0  0  0  0  0  0  0  0  0  0
  149.1860  139.1882  156.2248 H   0  0  0  0  0  0  0  0  0  0  0  0
  149.0338  142.2775  154.6825 H   0  0  0  0  0  0  0  0  0  0  0  0
  146.5270  142.7403  153.5516 H   0  0  0  0  0  0  0  0  0  0  0  0
  146.9834  138.5901  154.2644 H   0  0  0  0  0  0  0  0  0  0  0  0
  150.4712  142.3236  155.8670 H   0  0  0  0  0  0  0  0  0  0  0  0
  150.3332  143.3377  157.7540 H   0  0  0  0  0  0  0  0  0  0  0  0
  150.0694  142.3610  159.1776 H   0  0  0  0  0  0  0  0  0  0  0  0
  152.8485  143.1717  158.1671 H   0  0  0  0  0  0  0  0  0  0  0  0
  151.6140  145.2731  159.1757 H   0  0  0  0  0  0  0  0  0  0  0  0
  152.4645  145.1914  161.6013 H   0  0  0  0  0  0  0  0  0  0  0  0
  154.0000  143.0351  161.5604 H   0  0  0  0  0  0  0  0  0  0  0  0
  152.3932  142.6194  162.1810 H   0  0  0  0  0  0  0  0  0  0  0  0
  151.9794  141.3238  160.2994 H   0  0  0  0  0  0  0  0  0  0  0  0
  153.6009  141.6451  159.7205 H   0  0  0  0  0  0  0  0  0  0  0  0
  145.4694  140.4453  153.3822 H   0  0  0  0  0  0  0  0  0  0  0  0
  1  2  1  0  0  0  0
  1 18  1  0  0  0  0
  1 19  1  0  0  0  0
  1 20  1  0  0  0  0
  2  3  1  0  0  0  0
  2  9  1  0  0  0  0
  2 21  1  0  0  0  0
  3  4  1  0  0  0  0
  3 22  1  0  0  0  0
  3 23  1  0  0  0  0
  4  8  1  0  0  0  0
  4  5  1  0  0  0  0
  5  6  2  0  0  0  0
  5 24  1  0  0  0  0
  6  7  1  0  0  0  0
  6 25  1  0  0  0  0
  7  8  2  0  0  0  0
  7 37  1  0  0  0  0
  8 26  1  0  0  0  0
  9 10  1  0  0  0  0
  9 27  1  0  0  0  0
 10 11  2  0  0  0  0
 10 12  1  0  0  0  0
 12 13  1  0  0  0  0
 12 28  1  0  0  0  0
 12 29  1  0  0  0  0
 13 17  1  0  0  0  0
 13 14  1  0  0  0  0
 13 30  1  0  0  0  0
 14 15  2  0  0  0  0
 14 31  1  0  0  0  0
 15 16  1  0  0  0  0
 15 32  1  0  0  0  0
 16 17  1  0  0  0  0
 16 33  1  0  0  0  0
 16 34  1  0  0  0  0
 17 35  1  0  0  0  0
 17 36  1  0  0  0  0
M  CHG  1   7   1
M  END
> <s_m_source_file>
AV-unprocessed.smi

> <i_m_source_file_index>
1920

> <i_lp_mmshare_version>
43012

> <i_f3d_flags>
0

> <s_epik_input>
W2NIXTFuW2NIXVtjSF1uMVtDSDJdW0NAQEhdKFtDSDNdKVtOSF1DKD1PKVtDSDJdW0NAQEhdMltDSF09W0NIXVtDSDJdW0NIMl0y

> <s_epik_cmdline>
J2VwaWtfcHl0aG9uJywgJy1waCcsICc3LjAnLCAnLXRuJywgJzgnLCAnLW1hJywgJzIwMCcsICctbWV0YWxfYmluZGluZycsICctaW1hZScsICc8aW5maWxlLm1hZT4nLCAnLW9tYWUnLCAnPG91dGZpbGUubWFlPic=

> <r_lp_tautomer_probability>
1

> <r_epik_Ionization_Penalty>
0.24816

> <r_epik_Ionization_Penalty_Charging>
0

> <r_epik_Ionization_Penalty_Neutral>
0.24816

> <r_epik_State_Penalty>
0.2394

> <r_epik_Charging_Adjusted_Penalty>
0.2394

> <i_epik_Tot_Q>
1

> <i_epik_Tot_abs_Q>
1

> <r_epik_Metal_State_Penalty>
0.531457

> <b_epik_Metal_Only>
0

> <s_lp_Force_Field>
OPLS_2005

> <r_lp_Energy>
19.5873

> <b_lp_Chiralities_Consistent>
1

> <s_lp_Variant>
AV-unprocessed.smi:1920-4

> <Gold.Version>
5.8.1

> <Gold.Id.Protein>
6NUR|6NUR_protein|mol2

> <Gold.PLP.Fitness>
47.3299

> <Gold.PLP.PLP>
-39.5585

> <Gold.PLP.part.hbond>
-0.9871

> <Gold.PLP.part.metal>
0.0000

> <Gold.PLP.part.buried>
-3.9782

> <Gold.PLP.part.nonpolar>
-34.8578

> <Gold.PLP.part.repulsive>
0.1202

> <Gold.PLP.ligand.clash>
0.0000

> <Gold.PLP.ligand.torsion>
0.6552

> <Gold.PLP.Chemscore.Hbond>
2.0000

> <Gold.PLP.Chemscore.CHOScore>
1.0000

> <Gold.PLP.Chemscore.Metal>
0.0000

> <Gold.Chemscore.Hbonds>
donor molecule, donor type, donor heavy atom, donor atom, acceptor molecule, acceptor atom, score
      L1  H     7    37       P1 10175  2.00
      L1  C     5    24       P1  8028  0.76

> <Gold.PLP.Chemscore.Internal.Correction>
0.0818

> <Gold.Rescore>
     Score         DG    S(hbond)    S(metal)    S(lipo)     H(rot)  DE(clash)    DE(int)     intcor
     12.91     -15.19       0.97        0.00      99.27       2.01       0.35       1.93       ----

> <Gold.Chemscore.Fitness>
12.9093

> <Gold.Chemscore.DG>
-15.1932

> <Gold.Chemscore.ZeroCoef>
-5.4800

> <Gold.Chemscore.Hbond>
0.9736

> <Gold.Chemscore.Metal>
0.0000

> <Gold.Chemscore.Lipo>
99.2709

> <Gold.Chemscore.Internal_Hbond>
0.0000

> <Gold.Chemscore.DEClash>
0.3513

> <Gold.Chemscore.DEInternal>
1.9326

> <Gold.Chemscore.Rot>
2.0130

> <Gold.Chemscore.Internal.Correction>
   9.000000E+99

> <Gold.Chemscore.Hbonds>
donor molecule, donor type, donor heavy atom, donor atom, acceptor molecule, acceptor atom, score
      L1  H     7    37       P1 10175  0.94

> <Gold.Chemscore.Hbond.Weighted>
-3.2517

> <Gold.Chemscore.Metal.Weighted>
-0.0000

> <Gold.Chemscore.Lipo.Weighted>
-11.6147

> <Gold.Chemscore.Internal_Hbond.Weighted>
0.0000

> <Gold.Chemscore.DEClash.Weighted>
0.3513

> <Gold.Chemscore.DEInternal.Weighted>
1.9326

> <Gold.Chemscore.Rot.Weighted>
5.1533

> <Gold.Chemscore.Internal.Correction.Weighted>
   9.000000E+99

> <Gold.Protein.RotatedTorsions>
[ 6907 6896 6895 6894 ] final  -52.26 input  -60.11 | X-H torsion
[ 7974 7965 7964 7962 ] final   46.81 input  175.53 | X-H torsion
[ 8008 7997 7996 7995 ] final -160.77 input   59.86 | X-H torsion
[ 10167 10162 10161 10158 ] final   13.52 input  -65.29 | X-H torsion
[ 10718 10713 10712 10709 ] final -138.31 input   66.30 | X-H torsion
[ 10763 10752 10751 10750 ] final  175.08 input  -60.55 | X-H torsion
[ 11005 11000 10999 10996 ] final -143.13 input  -57.11 | X-H torsion

> <Gold.Protein.ActiveResidues>
 VAL166  LYS551  ARG553  GLY616  TRP617  ASP618  TYR619  PRO620  LYS621  CYS622 
 ASP623  PHE694  ASN695  SER759  ASP760  ASP761  ALA762  ILE779  LEU786  VAL792 
 PHE793  MET794  SER795  GLU796  ALA797  LYS798  CYS799  TRP800  GLU811  SER814 

> <Gold.Protein.RotatedAtoms>
  150.8534  134.7866  159.7026 H   0  0  0  0  0  0  0  0  0  0  0  0  # atno 6907 bound_to 6896
  152.4592  134.5218  159.9795 H   0  0  0  0  0  0  0  0  0  0  0  0  # atno 6908 bound_to 6896
  151.5335  133.3407  159.2958 H   0  0  0  0  0  0  0  0  0  0  0  0  # atno 6909 bound_to 6896
  146.0355  139.4816  142.9811 H   0  0  0  0  0  0  0  0  0  0  0  0  # atno 7974 bound_to 7965
  155.7824  140.0867  157.2052 H   0  0  0  0  0  0  0  0  0  0  0  0  # atno 8008 bound_to 7997
  154.3989  140.1505  156.3125 H   0  0  0  0  0  0  0  0  0  0  0  0  # atno 8009 bound_to 7997
  155.8640  140.3429  155.5778 H   0  0  0  0  0  0  0  0  0  0  0  0  # atno 8010 bound_to 7997
  140.5997  143.8630  150.6953 H   0  0  0  0  0  0  0  0  0  0  0  0  # atno 10167 bound_to 10162
  156.2979  130.7412  151.1455 H   0  0  0  0  0  0  0  0  0  0  0  0  # atno 10718 bound_to 10713
  154.4628  135.2768  155.1700 H   0  0  0  0  0  0  0  0  0  0  0  0  # atno 10763 bound_to 10752
  154.3481  135.6156  153.5633 H   0  0  0  0  0  0  0  0  0  0  0  0  # atno 10764 bound_to 10752
  152.9856  135.5805  154.4993 H   0  0  0  0  0  0  0  0  0  0  0  0  # atno 10765 bound_to 10752
  140.8156  134.2692  157.4922 H   0  0  0  0  0  0  0  0  0  0  0  0  # atno 11005 bound_to 11000
  145.6970  141.0147  143.1524 LP  0  0  0  0  0  0  0  0  0  0  0  0  # atno 17320 bound_to 7965
  144.7050  139.8600  143.7433 LP  0  0  0  0  0  0  0  0  0  0  0  0  # atno 17321 bound_to 7965
  140.2173  143.3836  152.1671 LP  0  0  0  0  0  0  0  0  0  0  0  0  # atno 17342 bound_to 10162
  139.5282  144.7128  151.5151 LP  0  0  0  0  0  0  0  0  0  0  0  0  # atno 17343 bound_to 10162
  157.7360  131.0566  150.5438 LP  0  0  0  0  0  0  0  0  0  0  0  0  # atno 17370 bound_to 10713
  156.5562  130.4244  149.6084 LP  0  0  0  0  0  0  0  0  0  0  0  0  # atno 17371 bound_to 10713
  139.8711  134.9507  156.4063 LP  0  0  0  0  0  0  0  0  0  0  0  0  # atno 17394 bound_to 11000
  140.9153  133.7683  155.9840 LP  0  0  0  0  0  0  0  0  0  0  0  0  # atno 17395 bound_to 11000

$$$$
