AV-unprocessed.smi:2892|AV-procd|sdf|11118|dock10
  -GOLD-   2272015593D 1   1.00000     0.00000
 Structure written by MMmdl.
 42 42  0  0  0  0  0  0  0  0  2 V2000
  161.9650  141.4466  161.3199 C   0  0  0  0  0  0  0  0  0  0  0  0
  160.7902  141.5729  160.3383 C   0  0  0  0  0  0  0  0  0  0  0  0
  160.1241  140.2246  159.9594 C   0  0  2  0  0  0  0  0  0  0  0  0
  161.0611  139.4155  159.0317 C   0  0  0  0  0  0  0  0  0  0  0  0
  158.7114  140.4422  159.3317 C   0  0  2  0  0  0  0  0  0  0  0  0
  157.8142  141.0109  160.3399 N   0  0  0  0  0  0  0  0  0  0  0  0
  156.5461  141.4003  160.1340 C   0  0  0  0  0  0  0  0  0  0  0  0
  155.9928  141.3428  159.0345 O   0  0  0  0  0  0  0  0  0  0  0  0
  155.8076  141.9294  161.3698 C   0  0  0  0  0  0  0  0  0  0  0  0
  154.4814  142.5517  161.0152 C   0  0  0  0  0  0  0  0  0  0  0  0
  153.3252  142.6885  161.8359 C   0  0  0  0  0  0  0  0  0  0  0  0
  152.4229  143.3231  161.0317 C   0  0  0  0  0  0  0  0  0  0  0  0
  153.0316  143.5303  159.8119 N   0  0  0  0  0  0  0  0  0  0  0  0
  152.4816  144.1757  158.6291 C   0  0  0  0  0  0  0  0  0  0  0  0
  151.0825  144.7486  158.9074 C   0  0  0  0  0  0  0  0  0  0  0  0
  152.4804  143.2188  157.4261 C   0  0  0  0  0  0  0  0  0  0  0  0
  154.2946  143.0496  159.8015 N   0  0  0  0  0  0  0  0  0  0  0  0
  158.1077  139.1037  158.8643 C   0  0  0  0  0  0  0  0  0  0  0  0
  158.1691  138.8501  157.6415 O   0  0  0  0  0  0  0  0  0  0  0  0
  157.6022  138.3577  159.7334 O   0  5  0  0  0  0  0  0  0  0  0  0
  162.3225  142.4328  161.6163 H   0  0  0  0  0  0  0  0  0  0  0  0
  162.8101  140.9163  160.8824 H   0  0  0  0  0  0  0  0  0  0  0  0
  161.6659  140.9187  162.2259 H   0  0  0  0  0  0  0  0  0  0  0  0
  160.0632  142.2365  160.8053 H   0  0  0  0  0  0  0  0  0  0  0  0
  161.1205  142.0882  159.4354 H   0  0  0  0  0  0  0  0  0  0  0  0
  159.9978  139.6511  160.8797 H   0  0  0  0  0  0  0  0  0  0  0  0
  161.2194  139.9338  158.0856 H   0  0  0  0  0  0  0  0  0  0  0  0
  160.6660  138.4257  158.8040 H   0  0  0  0  0  0  0  0  0  0  0  0
  162.0371  139.2502  159.4858 H   0  0  0  0  0  0  0  0  0  0  0  0
  158.7968  141.1191  158.4790 H   0  0  0  0  0  0  0  0  0  0  0  0
  158.1815  141.0771  161.2776 H   0  0  0  0  0  0  0  0  0  0  0  0
  155.6734  141.1050  162.0720 H   0  0  0  0  0  0  0  0  0  0  0  0
  156.4369  142.6648  161.8725 H   0  0  0  0  0  0  0  0  0  0  0  0
  153.1853  142.3761  162.8600 H   0  0  0  0  0  0  0  0  0  0  0  0
  151.4095  143.6421  161.2257 H   0  0  0  0  0  0  0  0  0  0  0  0
  153.1392  145.0115  158.3860 H   0  0  0  0  0  0  0  0  0  0  0  0
  150.7068  145.2987  158.0444 H   0  0  0  0  0  0  0  0  0  0  0  0
  151.1017  145.4363  159.7533 H   0  0  0  0  0  0  0  0  0  0  0  0
  150.3640  143.9603  159.1350 H   0  0  0  0  0  0  0  0  0  0  0  0
  152.1392  143.7257  156.5233 H   0  0  0  0  0  0  0  0  0  0  0  0
  151.8233  142.3647  157.5939 H   0  0  0  0  0  0  0  0  0  0  0  0
  153.4816  142.8341  157.2299 H   0  0  0  0  0  0  0  0  0  0  0  0
  1  2  1  0  0  0  0
  1 21  1  0  0  0  0
  1 22  1  0  0  0  0
  1 23  1  0  0  0  0
  2  3  1  0  0  0  0
  2 24  1  0  0  0  0
  2 25  1  0  0  0  0
  3  4  1  0  0  0  0
  3  5  1  0  0  0  0
  3 26  1  0  0  0  0
  4 27  1  0  0  0  0
  4 28  1  0  0  0  0
  4 29  1  0  0  0  0
  5  6  1  0  0  0  0
  5 18  1  0  0  0  0
  5 30  1  0  0  0  0
  6  7  1  0  0  0  0
  6 31  1  0  0  0  0
  7  8  2  0  0  0  0
  7  9  1  0  0  0  0
  9 10  1  0  0  0  0
  9 32  1  0  0  0  0
  9 33  1  0  0  0  0
 10 17  2  0  0  0  0
 10 11  1  0  0  0  0
 11 12  2  0  0  0  0
 11 34  1  0  0  0  0
 12 13  1  0  0  0  0
 12 35  1  0  0  0  0
 13 14  1  0  0  0  0
 13 17  1  0  0  0  0
 14 15  1  0  0  0  0
 14 16  1  0  0  0  0
 14 36  1  0  0  0  0
 15 37  1  0  0  0  0
 15 38  1  0  0  0  0
 15 39  1  0  0  0  0
 16 40  1  0  0  0  0
 16 41  1  0  0  0  0
 16 42  1  0  0  0  0
 18 19  2  0  0  0  0
 18 20  1  0  0  0  0
M  CHG  1  20  -1
M  END
> <s_m_source_file>
AV-unprocessed.smi

> <i_m_source_file_index>
2892

> <i_lp_mmshare_version>
43012

> <i_f3d_flags>
0

> <s_epik_input>
W0NIM11bQ0gyXVtDQEhdKFtDSDNdKVtDQEBIXShDKD1PKVtPSF0pW05IXUMoPU8pW0NIMl1jMVtjSF1bY0hdbihuMSlbQ0hdKFtDSDNdKVtDSDNd

> <s_epik_cmdline>
J2VwaWtfcHl0aG9uJywgJy1waCcsICc3LjAnLCAnLXRuJywgJzgnLCAnLW1hJywgJzIwMCcsICctbWV0YWxfYmluZGluZycsICctaW1hZScsICc8aW5maWxlLm1hZT4nLCAnLW9tYWUnLCAnPG91dGZpbGUubWFlPic=

> <r_lp_tautomer_probability>
1

> <r_epik_Ionization_Penalty>
0.000286846

> <r_epik_Ionization_Penalty_Charging>
0.000224481

> <r_epik_Ionization_Penalty_Neutral>
6.23655e-05

> <r_epik_State_Penalty>
-0

> <r_epik_Charging_Adjusted_Penalty>
0.000224481

> <i_epik_Tot_Q>
-1

> <i_epik_Tot_abs_Q>
1

> <r_epik_Metal_State_Penalty>
-0

> <b_epik_Metal_Only>
0

> <s_lp_Force_Field>
OPLS_2005

> <r_lp_Energy>
15.4928

> <b_lp_Chiralities_Consistent>
1

> <s_lp_Variant>
AV-unprocessed.smi:2892-1

> <Gold.Version>
5.8.1

> <Gold.Id.Protein>
6NUR|6NUR_protein|mol2

> <Gold.PLP.Fitness>
51.2838

> <Gold.PLP.PLP>
-38.4807

> <Gold.PLP.part.hbond>
-3.0000

> <Gold.PLP.part.metal>
0.0000

> <Gold.PLP.part.buried>
-5.2491

> <Gold.PLP.part.nonpolar>
-31.1898

> <Gold.PLP.part.repulsive>
0.0688

> <Gold.PLP.ligand.clash>
0.0000

> <Gold.PLP.ligand.torsion>
1.1599

> <Gold.PLP.Chemscore.Hbond>
5.0000

> <Gold.PLP.Chemscore.CHOScore>
0.0000

> <Gold.PLP.Chemscore.Metal>
0.0000

> <Gold.PLP.Chemscore.Internal.Correction>
0.1229

> <Gold.Rescore>
     Score         DG    S(hbond)    S(metal)    S(lipo)     H(rot)  DE(clash)    DE(int)     intcor
     13.35     -18.38       2.67        0.00      86.23       2.39       1.58       3.45       ----

> <Gold.Chemscore.Fitness>
13.3511

> <Gold.Chemscore.DG>
-18.3848

> <Gold.Chemscore.ZeroCoef>
-5.4800

> <Gold.Chemscore.Hbond>
2.6723

> <Gold.Chemscore.Metal>
0.0000

> <Gold.Chemscore.Lipo>
86.2282

> <Gold.Chemscore.Internal_Hbond>
0.0000

> <Gold.Chemscore.DEClash>
1.5839

> <Gold.Chemscore.DEInternal>
3.4499

> <Gold.Chemscore.Rot>
2.3865

> <Gold.Chemscore.Internal.Correction>
   9.000000E+99

> <Gold.Chemscore.Hbonds>
donor molecule, donor type, donor heavy atom, donor atom, acceptor molecule, acceptor atom, score
      P1  H  7997  8009       L1    19  0.02

> <Gold.Chemscore.Hbond.Weighted>
-8.9255

> <Gold.Chemscore.Metal.Weighted>
-0.0000

> <Gold.Chemscore.Lipo.Weighted>
-10.0887

> <Gold.Chemscore.Internal_Hbond.Weighted>
0.0000

> <Gold.Chemscore.DEClash.Weighted>
1.5839

> <Gold.Chemscore.DEInternal.Weighted>
3.4499

> <Gold.Chemscore.Rot.Weighted>
6.1093

> <Gold.Chemscore.Internal.Correction.Weighted>
   9.000000E+99

> <Gold.Protein.RotatedTorsions>
[ 6907 6896 6895 6894 ] final   41.57 input  -60.11 | X-H torsion
[ 7974 7965 7964 7962 ] final  118.06 input  175.53 | X-H torsion
[ 8008 7997 7996 7995 ] final   38.38 input   59.86 | X-H torsion
[ 10167 10162 10161 10158 ] final  118.66 input  -65.29 | X-H torsion
[ 10718 10713 10712 10709 ] final  -71.51 input   66.30 | X-H torsion
[ 10763 10752 10751 10750 ] final    5.29 input  -60.55 | X-H torsion
[ 11005 11000 10999 10996 ] final   90.57 input  -57.11 | X-H torsion

> <Gold.Protein.ActiveResidues>
 VAL166  LYS551  ARG553  GLY616  TRP617  ASP618  TYR619  PRO620  LYS621  CYS622 
 ASP623  PHE694  ASN695  SER759  ASP760  ASP761  ALA762  ILE779  LEU786  VAL792 
 PHE793  MET794  SER795  GLU796  ALA797  LYS798  CYS799  TRP800  GLU811  SER814 

> <Gold.Protein.RotatedAtoms>
  152.1969  134.8622  160.0511 H   0  0  0  0  0  0  0  0  0  0  0  0  # atno 6907 bound_to 6896
  151.9490  133.3655  159.4001 H   0  0  0  0  0  0  0  0  0  0  0  0  # atno 6908 bound_to 6896
  150.6946  134.4284  159.5281 H   0  0  0  0  0  0  0  0  0  0  0  0  # atno 6909 bound_to 6896
  145.1598  139.3161  143.4523 H   0  0  0  0  0  0  0  0  0  0  0  0  # atno 7974 bound_to 7965
  155.2192  140.3329  155.4318 H   0  0  0  0  0  0  0  0  0  0  0  0  # atno 8008 bound_to 7997
  156.2340  140.1863  156.7216 H   0  0  0  0  0  0  0  0  0  0  0  0  # atno 8009 bound_to 7997
  154.6026  140.0621  156.9375 H   0  0  0  0  0  0  0  0  0  0  0  0  # atno 8010 bound_to 7997
  139.6097  144.7079  151.2872 H   0  0  0  0  0  0  0  0  0  0  0  0  # atno 10167 bound_to 10162
  156.0359  130.4353  150.2455 H   0  0  0  0  0  0  0  0  0  0  0  0  # atno 10718 bound_to 10713
  153.2612  135.6923  153.7577 H   0  0  0  0  0  0  0  0  0  0  0  0  # atno 10763 bound_to 10752
  153.6635  135.3356  155.3134 H   0  0  0  0  0  0  0  0  0  0  0  0  # atno 10764 bound_to 10752
  154.8431  135.4483  154.1602 H   0  0  0  0  0  0  0  0  0  0  0  0  # atno 10765 bound_to 10752
  139.8854  134.8621  156.3303 H   0  0  0  0  0  0  0  0  0  0  0  0  # atno 11005 bound_to 11000
  146.3484  140.1704  142.8589 LP  0  0  0  0  0  0  0  0  0  0  0  0  # atno 17320 bound_to 7965
  145.0343  140.8895  143.5091 LP  0  0  0  0  0  0  0  0  0  0  0  0  # atno 17321 bound_to 7965
  140.7310  143.6863  150.7959 LP  0  0  0  0  0  0  0  0  0  0  0  0  # atno 17342 bound_to 10162
  140.0456  143.5302  152.2698 LP  0  0  0  0  0  0  0  0  0  0  0  0  # atno 17343 bound_to 10162
  157.0554  131.0075  151.3240 LP  0  0  0  0  0  0  0  0  0  0  0  0  # atno 17370 bound_to 10713
  157.5109  130.7938  149.7704 LP  0  0  0  0  0  0  0  0  0  0  0  0  # atno 17371 bound_to 10713
  140.9727  133.7317  156.0558 LP  0  0  0  0  0  0  0  0  0  0  0  0  # atno 17394 bound_to 11000
  140.7850  134.3682  157.5478 LP  0  0  0  0  0  0  0  0  0  0  0  0  # atno 17395 bound_to 11000

$$$$
