AV-unprocessed.smi:2131|AV-procd|sdf|8689|dock6
  -GOLD-   2272011443D 1   1.00000     0.00000
 Structure written by MMmdl.
 41 43  0  0  0  0  0  0  0  0  2 V2000
  150.2579  130.3258  154.4463 N   0  0  0  0  0  0  0  0  0  0  0  0
  149.4152  131.1091  154.5689 C   0  0  0  0  0  0  0  0  0  0  0  0
  148.3435  132.1044  154.7250 C   0  0  0  0  0  0  0  0  0  0  0  0
  148.8912  133.5035  154.9185 C   0  0  0  0  0  0  0  0  0  0  0  0
  148.0130  134.5918  155.0855 C   0  0  0  0  0  0  0  0  0  0  0  0
  148.5249  135.8916  155.2625 C   0  0  0  0  0  0  0  0  0  0  0  0
  149.9157  136.1252  155.2756 C   0  0  0  0  0  0  0  0  0  0  0  0
  150.3299  137.4281  155.4530 O   0  0  0  0  0  0  0  0  0  0  0  0
  151.6449  137.7781  155.0415 C   0  0  0  0  0  0  0  0  0  0  0  0
  151.8728  139.2740  155.3056 C   0  0  2  0  0  0  0  0  0  0  0  0
  153.1863  139.6023  154.8981 O   0  0  0  0  0  0  0  0  0  0  0  0
  151.6675  139.6504  156.7865 C   0  0  0  0  0  0  0  0  0  0  0  0
  151.2882  141.0591  156.9669 N   0  0  0  0  0  0  0  0  0  0  0  0
  150.4651  141.8379  156.2139 C   0  0  0  0  0  0  0  0  0  0  0  0
  150.4323  143.0741  156.7839 N   0  3  0  0  0  0  0  0  0  0  0  0
  151.2472  143.0867  157.9176 C   0  0  0  0  0  0  0  0  0  0  0  0
  151.5347  144.1059  158.8202 C   0  0  0  0  0  0  0  0  0  0  0  0
  152.4152  143.7875  159.8750 C   0  0  0  0  0  0  0  0  0  0  0  0
  152.9731  142.4988  160.0019 C   0  0  0  0  0  0  0  0  0  0  0  0
  152.6742  141.4730  159.0811 C   0  0  0  0  0  0  0  0  0  0  0  0
  151.8015  141.7949  158.0418 C   0  0  0  0  0  0  0  0  0  0  0  0
  150.7938  135.0245  155.1069 C   0  0  0  0  0  0  0  0  0  0  0  0
  150.2823  133.7242  154.9298 C   0  0  0  0  0  0  0  0  0  0  0  0
  147.7075  132.0692  153.8401 H   0  0  0  0  0  0  0  0  0  0  0  0
  147.7303  131.8206  155.5806 H   0  0  0  0  0  0  0  0  0  0  0  0
  146.9447  134.4325  155.0765 H   0  0  0  0  0  0  0  0  0  0  0  0
  147.8421  136.7192  155.3884 H   0  0  0  0  0  0  0  0  0  0  0  0
  152.3889  137.1852  155.5765 H   0  0  0  0  0  0  0  0  0  0  0  0
  151.7542  137.5760  153.9744 H   0  0  0  0  0  0  0  0  0  0  0  0
  151.1858  139.8527  154.6868 H   0  0  0  0  0  0  0  0  0  0  0  0
  153.3340  139.2350  154.0397 H   0  0  0  0  0  0  0  0  0  0  0  0
  150.8655  139.0484  157.2155 H   0  0  0  0  0  0  0  0  0  0  0  0
  152.5574  139.4358  157.3784 H   0  0  0  0  0  0  0  0  0  0  0  0
  149.9350  141.5307  155.3238 H   0  0  0  0  0  0  0  0  0  0  0  0
  151.1098  145.0944  158.7244 H   0  0  0  0  0  0  0  0  0  0  0  0
  152.6686  144.5469  160.6004 H   0  0  0  0  0  0  0  0  0  0  0  0
  153.6458  142.2924  160.8218 H   0  0  0  0  0  0  0  0  0  0  0  0
  153.1126  140.4918  159.1849 H   0  0  0  0  0  0  0  0  0  0  0  0
  151.8657  135.1506  155.1081 H   0  0  0  0  0  0  0  0  0  0  0  0
  150.9623  132.8950  154.8003 H   0  0  0  0  0  0  0  0  0  0  0  0
  149.8939  143.8510  156.4225 H   0  0  0  0  0  0  0  0  0  0  0  0
  1  2  3  0  0  0  0
  2  3  1  0  0  0  0
  3  4  1  0  0  0  0
  3 24  1  0  0  0  0
  3 25  1  0  0  0  0
  4 23  1  0  0  0  0
  4  5  2  0  0  0  0
  5  6  1  0  0  0  0
  5 26  1  0  0  0  0
  6  7  2  0  0  0  0
  6 27  1  0  0  0  0
  7  8  1  0  0  0  0
  7 22  1  0  0  0  0
  8  9  1  0  0  0  0
  9 10  1  0  0  0  0
  9 28  1  0  0  0  0
  9 29  1  0  0  0  0
 10 11  1  0  0  0  0
 10 12  1  0  0  0  0
 10 30  1  0  0  0  0
 11 31  1  0  0  0  0
 12 13  1  0  0  0  0
 12 32  1  0  0  0  0
 12 33  1  0  0  0  0
 13 21  1  0  0  0  0
 13 14  1  0  0  0  0
 14 15  2  0  0  0  0
 14 34  1  0  0  0  0
 15 16  1  0  0  0  0
 15 41  1  0  0  0  0
 16 21  2  0  0  0  0
 16 17  1  0  0  0  0
 17 18  2  0  0  0  0
 17 35  1  0  0  0  0
 18 19  1  0  0  0  0
 18 36  1  0  0  0  0
 19 20  2  0  0  0  0
 19 37  1  0  0  0  0
 20 21  1  0  0  0  0
 20 38  1  0  0  0  0
 22 23  2  0  0  0  0
 22 39  1  0  0  0  0
 23 40  1  0  0  0  0
M  CHG  1  15   1
M  END
> <s_m_source_file>
AV-unprocessed.smi

> <i_m_source_file_index>
2131

> <i_lp_mmshare_version>
43012

> <i_f3d_flags>
0

> <s_epik_input>
TiNDW0NIMl1jMVtjSF1bY0hdYyhbY0hdW2NIXTEpT1tDSDJdW0NASF0oW09IXSlbQ0gyXW4oW2NIXW4yKWMoYzIzKVtjSF1bY0hdW2NIXVtjSF0z

> <s_epik_cmdline>
J2VwaWtfcHl0aG9uJywgJy1waCcsICc3LjAnLCAnLXRuJywgJzgnLCAnLW1hJywgJzIwMCcsICctbWV0YWxfYmluZGluZycsICctaW1hZScsICc8aW5maWxlLm1hZT4nLCAnLW9tYWUnLCAnPG91dGZpbGUubWFlPic=

> <r_lp_tautomer_probability>
1

> <r_epik_Ionization_Penalty>
1.3774

> <r_epik_Ionization_Penalty_Charging>
1.37739

> <r_epik_Ionization_Penalty_Neutral>
2.3994e-06

> <r_epik_State_Penalty>
1.45762

> <r_epik_Charging_Adjusted_Penalty>
2.83501

> <i_epik_Tot_Q>
1

> <i_epik_Tot_abs_Q>
1

> <r_epik_Metal_State_Penalty>
5.49752

> <b_epik_Metal_Only>
0

> <s_lp_Force_Field>
OPLS_2005

> <r_lp_Energy>
20.896

> <b_lp_Chiralities_Consistent>
1

> <s_lp_Variant>
AV-unprocessed.smi:2131-3

> <Gold.Version>
5.8.1

> <Gold.Id.Protein>
6NUR|6NUR_protein|mol2

> <Gold.PLP.Fitness>
52.9370

> <Gold.PLP.PLP>
-45.5672

> <Gold.PLP.part.hbond>
-2.6885

> <Gold.PLP.part.metal>
0.0000

> <Gold.PLP.part.buried>
-5.6578

> <Gold.PLP.part.nonpolar>
-38.1211

> <Gold.PLP.part.repulsive>
0.2267

> <Gold.PLP.ligand.clash>
0.0000

> <Gold.PLP.ligand.torsion>
0.8748

> <Gold.PLP.Chemscore.Hbond>
3.0000

> <Gold.PLP.Chemscore.CHOScore>
0.0000

> <Gold.PLP.Chemscore.Metal>
0.0000

> <Gold.Chemscore.Hbonds>
donor molecule, donor type, donor heavy atom, donor atom, acceptor molecule, acceptor atom, score
      L1  H    15    41       P1  8028  1.98
      P1  H  7997  8009       L1    11  1.00

> <Gold.PLP.Chemscore.Internal.Correction>
0.1195

> <Gold.Rescore>
     Score         DG    S(hbond)    S(metal)    S(lipo)     H(rot)  DE(clash)    DE(int)     intcor
     17.79     -18.56       1.98        0.00     116.86       2.81       0.03       0.75       ----

> <Gold.Chemscore.Fitness>
17.7874

> <Gold.Chemscore.DG>
-18.5616

> <Gold.Chemscore.ZeroCoef>
-5.4800

> <Gold.Chemscore.Hbond>
1.9799

> <Gold.Chemscore.Metal>
0.0000

> <Gold.Chemscore.Lipo>
116.8601

> <Gold.Chemscore.Internal_Hbond>
0.0000

> <Gold.Chemscore.DEClash>
0.0261

> <Gold.Chemscore.DEInternal>
0.7480

> <Gold.Chemscore.Rot>
2.8140

> <Gold.Chemscore.Internal.Correction>
   9.000000E+99

> <Gold.Chemscore.Hbonds>
donor molecule, donor type, donor heavy atom, donor atom, acceptor molecule, acceptor atom, score
      L1  H    15    41       P1  8028  0.92
      P1  H  7997  8009       L1    11  0.99

> <Gold.Chemscore.Hbond.Weighted>
-6.6129

> <Gold.Chemscore.Metal.Weighted>
-0.0000

> <Gold.Chemscore.Lipo.Weighted>
-13.6726

> <Gold.Chemscore.Internal_Hbond.Weighted>
0.0000

> <Gold.Chemscore.DEClash.Weighted>
0.0261

> <Gold.Chemscore.DEInternal.Weighted>
0.7480

> <Gold.Chemscore.Rot.Weighted>
7.2039

> <Gold.Chemscore.Internal.Correction.Weighted>
   9.000000E+99

> <Gold.Protein.RotatedTorsions>
[ 6907 6896 6895 6894 ] final -154.68 input  -60.11 | X-H torsion
[ 7974 7965 7964 7962 ] final    7.62 input  175.53 | X-H torsion
[ 8008 7997 7996 7995 ] final -143.63 input   59.86 | X-H torsion
[ 10167 10162 10161 10158 ] final  -86.55 input  -65.29 | X-H torsion
[ 10718 10713 10712 10709 ] final  -33.18 input   66.30 | X-H torsion
[ 10763 10752 10751 10750 ] final  -93.26 input  -60.55 | X-H torsion
[ 11005 11000 10999 10996 ] final   51.37 input  -57.11 | X-H torsion

> <Gold.Protein.ActiveResidues>
 VAL166  LYS551  ARG553  GLY616  TRP617  ASP618  TYR619  PRO620  LYS621  CYS622 
 ASP623  PHE694  ASN695  SER759  ASP760  ASP761  ALA762  ILE779  LEU786  VAL792 
 PHE793  MET794  SER795  GLU796  ALA797  LYS798  CYS799  TRP800  GLU811  SER814 

> <Gold.Protein.RotatedAtoms>
  151.2611  133.4301  159.2615 H   0  0  0  0  0  0  0  0  0  0  0  0  # atno 6907 bound_to 6896
  151.0530  134.9686  159.8231 H   0  0  0  0  0  0  0  0  0  0  0  0  # atno 6908 bound_to 6896
  152.5386  134.2565  159.8971 H   0  0  0  0  0  0  0  0  0  0  0  0  # atno 6909 bound_to 6896
  146.2425  140.0055  142.8411 H   0  0  0  0  0  0  0  0  0  0  0  0  # atno 7974 bound_to 7965
  155.5138  140.0585  157.2919 H   0  0  0  0  0  0  0  0  0  0  0  0  # atno 8008 bound_to 7997
  154.4542  140.1964  156.0376 H   0  0  0  0  0  0  0  0  0  0  0  0  # atno 8009 bound_to 7997
  156.0766  140.3253  155.7646 H   0  0  0  0  0  0  0  0  0  0  0  0  # atno 8010 bound_to 7997
  140.3931  143.2696  151.9239 H   0  0  0  0  0  0  0  0  0  0  0  0  # atno 10167 bound_to 10162
  156.3659  130.4331  149.7585 H   0  0  0  0  0  0  0  0  0  0  0  0  # atno 10718 bound_to 10713
  154.6942  135.5201  153.8434 H   0  0  0  0  0  0  0  0  0  0  0  0  # atno 10763 bound_to 10752
  153.0654  135.6583  154.0375 H   0  0  0  0  0  0  0  0  0  0  0  0  # atno 10764 bound_to 10752
  154.0245  135.2990  155.3356 H   0  0  0  0  0  0  0  0  0  0  0  0  # atno 10765 bound_to 10752
  140.0938  134.5173  155.8827 H   0  0  0  0  0  0  0  0  0  0  0  0  # atno 11005 bound_to 11000
  145.1375  140.9553  143.4508 LP  0  0  0  0  0  0  0  0  0  0  0  0  # atno 17320 bound_to 7965
  145.0327  139.3327  143.6016 LP  0  0  0  0  0  0  0  0  0  0  0  0  # atno 17321 bound_to 7965
  139.4788  144.5708  151.8091 LP  0  0  0  0  0  0  0  0  0  0  0  0  # atno 17342 bound_to 10162
  140.4819  144.1437  150.5934 LP  0  0  0  0  0  0  0  0  0  0  0  0  # atno 17343 bound_to 10162
  156.4731  130.8006  151.3023 LP  0  0  0  0  0  0  0  0  0  0  0  0  # atno 17370 bound_to 10713
  157.7479  131.0029  150.3019 LP  0  0  0  0  0  0  0  0  0  0  0  0  # atno 17371 bound_to 10713
  141.2086  133.6675  156.6381 LP  0  0  0  0  0  0  0  0  0  0  0  0  # atno 17394 bound_to 11000
  140.3315  134.7925  157.4330 LP  0  0  0  0  0  0  0  0  0  0  0  0  # atno 17395 bound_to 11000

$$$$
