AV-unprocessed.smi:763|AV-procd|sdf|3639|dock4
  -GOLD-   22720 1 33D 1   1.00000     0.00000
 Structure written by MMmdl.
 43 44  0  0  0  0  0  0  0  0  2 V2000
  151.9627  145.4778  159.8615 C   0  0  0  0  0  0  0  0  0  0  0  0
  152.5177  144.1867  159.6843 O   0  0  0  0  0  0  0  0  0  0  0  0
  152.4201  143.3889  160.8527 C   0  0  0  0  0  0  0  0  0  0  0  0
  152.8986  141.9695  160.5344 C   0  0  0  0  0  0  0  0  0  0  0  0
  152.0097  141.3963  159.5815 O   0  0  0  0  0  0  0  0  0  0  0  0
  152.2164  140.0921  159.1706 C   0  0  0  0  0  0  0  0  0  0  0  0
  153.1043  139.3382  159.8680 N   0  0  0  0  0  0  0  0  0  0  0  0
  153.3139  138.0663  159.4775 C   0  0  0  0  0  0  0  0  0  0  0  0
  152.6577  137.4844  158.3807 C   0  0  0  0  0  0  0  0  0  0  0  0
  151.7389  138.2697  157.6618 C   0  0  0  0  0  0  0  0  0  0  0  0
  151.4946  139.6105  158.0492 C   0  0  0  0  0  0  0  0  0  0  0  0
  150.6263  140.4126  157.4095 N   0  5  0  0  0  0  0  0  0  0  0  0
  150.4270  140.5324  155.8080 S   0  0  0  0  0  0  0  0  0  0  0  0
  150.3112  141.9380  155.3883 O   0  0  0  0  0  0  0  0  0  0  0  0
  151.4063  139.7073  155.0850 O   0  0  0  0  0  0  0  0  0  0  0  0
  148.7345  139.7524  155.6112 C   0  0  1  0  0  0  0  0  0  0  0  0
  147.6705  140.5009  156.4418 C   0  0  0  0  0  0  0  0  0  0  0  0
  147.3133  141.8649  155.8268 C   0  0  0  0  0  0  0  0  0  0  0  0
  146.7996  141.6991  154.3876 C   0  0  0  0  0  0  0  0  0  0  0  0
  147.8175  140.9575  153.5061 C   0  0  0  0  0  0  0  0  0  0  0  0
  148.2462  139.6191  154.1444 C   0  0  1  0  0  0  0  0  0  0  0  0
  149.2015  138.9682  153.3316 O   0  0  0  0  0  0  0  0  0  0  0  0
  152.0583  146.0477  158.9375 H   0  0  0  0  0  0  0  0  0  0  0  0
  152.4830  146.0246  160.6493 H   0  0  0  0  0  0  0  0  0  0  0  0
  150.9033  145.4214  160.1146 H   0  0  0  0  0  0  0  0  0  0  0  0
  153.0070  143.8137  161.6688 H   0  0  0  0  0  0  0  0  0  0  0  0
  151.3792  143.3586  161.1782 H   0  0  0  0  0  0  0  0  0  0  0  0
  153.9034  142.0177  160.1121 H   0  0  0  0  0  0  0  0  0  0  0  0
  152.9438  141.3718  161.4464 H   0  0  0  0  0  0  0  0  0  0  0  0
  154.0256  137.4962  160.0560 H   0  0  0  0  0  0  0  0  0  0  0  0
  152.8520  136.4610  158.0968 H   0  0  0  0  0  0  0  0  0  0  0  0
  151.2312  137.8290  156.8167 H   0  0  0  0  0  0  0  0  0  0  0  0
  148.8181  138.7522  156.0375 H   0  0  0  0  0  0  0  0  0  0  0  0
  146.7674  139.8918  156.4949 H   0  0  0  0  0  0  0  0  0  0  0  0
  148.0009  140.6236  157.4732 H   0  0  0  0  0  0  0  0  0  0  0  0
  146.5535  142.3560  156.4350 H   0  0  0  0  0  0  0  0  0  0  0  0
  148.1847  142.5205  155.8340 H   0  0  0  0  0  0  0  0  0  0  0  0
  145.8597  141.1461  154.4002 H   0  0  0  0  0  0  0  0  0  0  0  0
  146.5777  142.6755  153.9563 H   0  0  0  0  0  0  0  0  0  0  0  0
  147.3791  140.7722  152.5249 H   0  0  0  0  0  0  0  0  0  0  0  0
  148.6750  141.6028  153.3270 H   0  0  0  0  0  0  0  0  0  0  0  0
  147.3704  138.9690  154.1536 H   0  0  0  0  0  0  0  0  0  0  0  0
  149.4522  139.5537  152.6334 H   0  0  0  0  0  0  0  0  0  0  0  0
  1  2  1  0  0  0  0
  1 23  1  0  0  0  0
  1 24  1  0  0  0  0
  1 25  1  0  0  0  0
  2  3  1  0  0  0  0
  3  4  1  0  0  0  0
  3 26  1  0  0  0  0
  3 27  1  0  0  0  0
  4  5  1  0  0  0  0
  4 28  1  0  0  0  0
  4 29  1  0  0  0  0
  5  6  1  0  0  0  0
  6 11  1  0  0  0  0
  6  7  2  0  0  0  0
  7  8  1  0  0  0  0
  8  9  2  0  0  0  0
  8 30  1  0  0  0  0
  9 10  1  0  0  0  0
  9 31  1  0  0  0  0
 10 11  2  0  0  0  0
 10 32  1  0  0  0  0
 11 12  1  0  0  0  0
 12 13  1  0  0  0  0
 13 14  2  0  0  0  0
 13 15  2  0  0  0  0
 13 16  1  0  0  0  0
 16 21  1  0  0  0  0
 16 17  1  0  0  0  0
 16 33  1  0  0  0  0
 17 18  1  0  0  0  0
 17 34  1  0  0  0  0
 17 35  1  0  0  0  0
 18 19  1  0  0  0  0
 18 36  1  0  0  0  0
 18 37  1  0  0  0  0
 19 20  1  0  0  0  0
 19 38  1  0  0  0  0
 19 39  1  0  0  0  0
 20 21  1  0  0  0  0
 20 40  1  0  0  0  0
 20 41  1  0  0  0  0
 21 22  1  0  0  0  0
 21 42  1  0  0  0  0
 22 43  1  0  0  0  0
M  CHG  1  12  -1
M  END
> <s_m_source_file>
AV-unprocessed.smi

> <i_m_source_file_index>
763

> <i_lp_mmshare_version>
43012

> <i_f3d_flags>
0

> <s_epik_input>
W0NIM11PW0NIMl1bQ0gyXU9jMW5bY0hdW2NIXVtjSF1jMVtOSF1TKD1PKSg9TylbQ0BASF0yW0NIMl1bQ0gyXVtDSDJdW0NIMl1bQ0BIXTJbT0hd

> <s_epik_cmdline>
J2VwaWtfcHl0aG9uJywgJy1waCcsICc3LjAnLCAnLXRuJywgJzgnLCAnLW1hJywgJzIwMCcsICctbWV0YWxfYmluZGluZycsICctaW1hZScsICc8aW5maWxlLm1hZT4nLCAnLW9tYWUnLCAnPG91dGZpbGUubWFlPic=

> <r_epik_Ionization_Penalty>
0.985866

> <r_epik_Ionization_Penalty_Charging>
0.984689

> <r_epik_Ionization_Penalty_Neutral>
0.00117669

> <r_epik_State_Penalty>
1.03185

> <r_epik_Charging_Adjusted_Penalty>
2.01654

> <i_epik_Tot_Q>
-1

> <i_epik_Tot_abs_Q>
1

> <r_epik_Metal_State_Penalty>
0.379327

> <b_epik_Metal_Only>
0

> <s_lp_Force_Field>
OPLS_2005

> <r_lp_Energy>
9.05773

> <b_lp_Chiralities_Consistent>
1

> <s_lp_Variant>
AV-unprocessed.smi:763-6

> <Gold.Version>
5.8.1

> <Gold.Id.Protein>
6NUR|6NUR_protein|mol2

> <Gold.PLP.Fitness>
39.8819

> <Gold.PLP.PLP>
-34.7547

> <Gold.PLP.part.hbond>
-3.3097

> <Gold.PLP.part.metal>
0.0000

> <Gold.PLP.part.buried>
-5.3586

> <Gold.PLP.part.nonpolar>
-26.4750

> <Gold.PLP.part.repulsive>
0.2847

> <Gold.PLP.ligand.clash>
0.0000

> <Gold.PLP.ligand.torsion>
1.0277

> <Gold.PLP.Chemscore.Hbond>
2.0000

> <Gold.PLP.Chemscore.CHOScore>
0.0000

> <Gold.PLP.Chemscore.Metal>
0.0000

> <Gold.Chemscore.Hbonds>
donor molecule, donor type, donor heavy atom, donor atom, acceptor molecule, acceptor atom, score
      L1  H    22    43       P1  7957  1.00
      P1  H  7989  7998       L1    15  0.95

> <Gold.PLP.Chemscore.Internal.Correction>
1.1827

> <Gold.Rescore>
     Score         DG    S(hbond)    S(metal)    S(lipo)     H(rot)  DE(clash)    DE(int)     intcor
     10.60     -13.88       1.84        0.00      70.72       2.35       0.09       3.19       ----

> <Gold.Chemscore.Fitness>
10.6013

> <Gold.Chemscore.DG>
-13.8817

> <Gold.Chemscore.ZeroCoef>
-5.4800

> <Gold.Chemscore.Hbond>
1.8400

> <Gold.Chemscore.Metal>
0.0000

> <Gold.Chemscore.Lipo>
70.7214

> <Gold.Chemscore.Internal_Hbond>
0.0000

> <Gold.Chemscore.DEClash>
0.0920

> <Gold.Chemscore.DEInternal>
3.1884

> <Gold.Chemscore.Rot>
2.3509

> <Gold.Chemscore.Internal.Correction>
   9.000000E+99

> <Gold.Chemscore.Hbonds>
donor molecule, donor type, donor heavy atom, donor atom, acceptor molecule, acceptor atom, score
      L1  H    22    43       P1  7957  0.95
      P1  H  7989  7998       L1    15  0.21

> <Gold.Chemscore.Hbond.Weighted>
-6.1456

> <Gold.Chemscore.Metal.Weighted>
-0.0000

> <Gold.Chemscore.Lipo.Weighted>
-8.2744

> <Gold.Chemscore.Internal_Hbond.Weighted>
0.0000

> <Gold.Chemscore.DEClash.Weighted>
0.0920

> <Gold.Chemscore.DEInternal.Weighted>
3.1884

> <Gold.Chemscore.Rot.Weighted>
6.0182

> <Gold.Chemscore.Internal.Correction.Weighted>
   9.000000E+99

> <Gold.Protein.RotatedTorsions>
[ 6907 6896 6895 6894 ] final  -38.77 input  -60.11 | X-H torsion
[ 7974 7965 7964 7962 ] final  -94.17 input  175.53 | X-H torsion
[ 8008 7997 7996 7995 ] final -157.50 input   59.86 | X-H torsion
[ 10167 10162 10161 10158 ] final  141.67 input  -65.29 | X-H torsion
[ 10718 10713 10712 10709 ] final  -11.78 input   66.30 | X-H torsion
[ 10763 10752 10751 10750 ] final  -53.53 input  -60.55 | X-H torsion
[ 11005 11000 10999 10996 ] final -164.49 input  -57.11 | X-H torsion

> <Gold.Protein.ActiveResidues>
 VAL166  LYS551  ARG553  GLY616  TRP617  ASP618  TYR619  PRO620  LYS621  CYS622 
 ASP623  PHE694  ASN695  SER759  ASP760  ASP761  ALA762  ILE779  LEU786  VAL792 
 PHE793  MET794  SER795  GLU796  ALA797  LYS798  CYS799  TRP800  GLU811  SER814 

> <Gold.Protein.RotatedAtoms>
  150.9983  134.9302  159.7939 H   0  0  0  0  0  0  0  0  0  0  0  0  # atno 6907 bound_to 6896
  152.5271  134.3188  159.9150 H   0  0  0  0  0  0  0  0  0  0  0  0  # atno 6908 bound_to 6896
  151.3194  133.4005  159.2687 H   0  0  0  0  0  0  0  0  0  0  0  0  # atno 6909 bound_to 6896
  145.3768  140.9512  143.2416 H   0  0  0  0  0  0  0  0  0  0  0  0  # atno 7974 bound_to 7965
  155.7333  140.0805  157.2279 H   0  0  0  0  0  0  0  0  0  0  0  0  # atno 8008 bound_to 7997
  154.4030  140.1591  156.2588 H   0  0  0  0  0  0  0  0  0  0  0  0  # atno 8009 bound_to 7997
  155.9088  140.3405  155.6086 H   0  0  0  0  0  0  0  0  0  0  0  0  # atno 8010 bound_to 7997
  139.5014  144.6157  151.6170 H   0  0  0  0  0  0  0  0  0  0  0  0  # atno 10167 bound_to 10162
  156.6541  130.4963  149.6052 H   0  0  0  0  0  0  0  0  0  0  0  0  # atno 10718 bound_to 10713
  154.1602  135.6476  153.4984 H   0  0  0  0  0  0  0  0  0  0  0  0  # atno 10763 bound_to 10752
  153.0112  135.5359  154.6718 H   0  0  0  0  0  0  0  0  0  0  0  0  # atno 10764 bound_to 10752
  154.6030  135.2945  155.0487 H   0  0  0  0  0  0  0  0  0  0  0  0  # atno 10765 bound_to 10752
  140.5863  134.5090  157.5186 H   0  0  0  0  0  0  0  0  0  0  0  0  # atno 11005 bound_to 11000
  144.8536  139.5283  143.6845 LP  0  0  0  0  0  0  0  0  0  0  0  0  # atno 17320 bound_to 7965
  146.2860  139.7006  142.9195 LP  0  0  0  0  0  0  0  0  0  0  0  0  # atno 17321 bound_to 7965
  140.5844  143.9890  150.6287 LP  0  0  0  0  0  0  0  0  0  0  0  0  # atno 17342 bound_to 10162
  140.3050  143.3235  152.0935 LP  0  0  0  0  0  0  0  0  0  0  0  0  # atno 17343 bound_to 10162
  156.2061  130.6650  151.1220 LP  0  0  0  0  0  0  0  0  0  0  0  0  # atno 17370 bound_to 10713
  157.7131  131.0724  150.6427 LP  0  0  0  0  0  0  0  0  0  0  0  0  # atno 17371 bound_to 10713
  139.9294  134.7992  156.0974 LP  0  0  0  0  0  0  0  0  0  0  0  0  # atno 17394 bound_to 11000
  141.0964  133.6694  156.2654 LP  0  0  0  0  0  0  0  0  0  0  0  0  # atno 17395 bound_to 11000

$$$$
