AV-unprocessed.smi:1499|AV-procd|sdf|6061|dock5
  -GOLD-   22720 6173D 1   1.00000     0.00000
 Structure written by MMmdl.
 41 42  0  0  0  0  0  0  0  0  2 V2000
  145.4368  132.1071  150.5556 C   0  0  0  0  0  0  0  0  0  0  0  0
  144.1435  132.7114  149.9897 C   0  0  0  0  0  0  0  0  0  0  0  0
  143.7326  133.9504  150.6972 N   0  3  0  0  0  0  0  0  0  0  0  0
  144.7031  135.0600  150.4914 C   0  0  0  0  0  0  0  0  0  0  0  0
  144.2655  136.3419  151.2254 C   0  0  0  0  0  0  0  0  0  0  0  0
  144.0701  136.0336  152.6494 N   0  0  0  0  0  0  0  0  0  0  0  0
  144.9293  136.3448  153.6520 C   0  0  0  0  0  0  0  0  0  0  0  0
  144.8379  135.8567  154.7788 O   0  0  0  0  0  0  0  0  0  0  0  0
  145.8254  137.2976  153.3314 N   0  0  0  0  0  0  0  0  0  0  0  0
  146.8815  137.7992  154.1335 C   0  0  0  0  0  0  0  0  0  0  0  0
  147.0624  137.5025  155.5094 C   0  0  0  0  0  0  0  0  0  0  0  0
  148.1268  138.1208  155.9974 N   0  0  0  0  0  0  0  0  0  0  0  0
  148.6395  138.8181  154.9522 N   0  0  0  0  0  0  0  0  0  0  0  0
  149.8291  139.6290  155.1418 C   0  0  0  0  0  0  0  0  0  0  0  0
  149.5474  141.1018  154.8395 C   0  0  0  0  0  0  0  0  0  0  0  0
  149.7819  141.9803  155.8178 N   0  0  0  0  0  0  0  0  0  0  0  0
  149.1244  141.4418  153.7368 O   0  0  0  0  0  0  0  0  0  0  0  0
  147.9029  138.6424  153.7969 C   0  0  0  0  0  0  0  0  0  0  0  0
  143.0011  135.0463  152.8241 C   0  0  0  0  0  0  0  0  0  0  0  0
  143.4064  133.7310  152.1339 C   0  0  0  0  0  0  0  0  0  0  0  0
  145.6512  131.1493  150.0808 H   0  0  0  0  0  0  0  0  0  0  0  0
  145.3542  131.9320  151.6284 H   0  0  0  0  0  0  0  0  0  0  0  0
  146.2996  132.7500  150.3828 H   0  0  0  0  0  0  0  0  0  0  0  0
  144.2456  132.9069  148.9211 H   0  0  0  0  0  0  0  0  0  0  0  0
  143.3544  131.9651  150.0930 H   0  0  0  0  0  0  0  0  0  0  0  0
  145.6871  134.7492  150.8471 H   0  0  0  0  0  0  0  0  0  0  0  0
  144.8022  135.2667  149.4251 H   0  0  0  0  0  0  0  0  0  0  0  0
  144.9928  137.1324  151.0404 H   0  0  0  0  0  0  0  0  0  0  0  0
  143.3259  136.7078  150.8085 H   0  0  0  0  0  0  0  0  0  0  0  0
  145.7619  137.6827  152.4003 H   0  0  0  0  0  0  0  0  0  0  0  0
  146.4692  136.8741  156.1575 H   0  0  0  0  0  0  0  0  0  0  0  0
  150.1926  139.5174  156.1648 H   0  0  0  0  0  0  0  0  0  0  0  0
  150.6133  139.2570  154.4810 H   0  0  0  0  0  0  0  0  0  0  0  0
  149.6172  142.9643  155.6609 H   0  0  0  0  0  0  0  0  0  0  0  0
  150.1302  141.6576  156.7089 H   0  0  0  0  0  0  0  0  0  0  0  0
  148.1696  139.1287  152.8702 H   0  0  0  0  0  0  0  0  0  0  0  0
  142.7666  134.8642  153.8742 H   0  0  0  0  0  0  0  0  0  0  0  0
  142.0815  135.4325  152.3822 H   0  0  0  0  0  0  0  0  0  0  0  0
  142.5916  133.0144  152.2309 H   0  0  0  0  0  0  0  0  0  0  0  0
  144.2712  133.2996  152.6410 H   0  0  0  0  0  0  0  0  0  0  0  0
  142.8765  134.2571  150.2576 H   0  0  0  0  0  0  0  0  0  0  0  0
  1  2  1  0  0  0  0
  1 21  1  0  0  0  0
  1 22  1  0  0  0  0
  1 23  1  0  0  0  0
  2  3  1  0  0  0  0
  2 24  1  0  0  0  0
  2 25  1  0  0  0  0
  3 20  1  0  0  0  0
  3  4  1  0  0  0  0
  3 41  1  0  0  0  0
  4  5  1  0  0  0  0
  4 26  1  0  0  0  0
  4 27  1  0  0  0  0
  5  6  1  0  0  0  0
  5 28  1  0  0  0  0
  5 29  1  0  0  0  0
  6  7  1  0  0  0  0
  6 19  1  0  0  0  0
  7  8  2  0  0  0  0
  7  9  1  0  0  0  0
  9 10  1  0  0  0  0
  9 30  1  0  0  0  0
 10 18  2  0  0  0  0
 10 11  1  0  0  0  0
 11 12  2  0  0  0  0
 11 31  1  0  0  0  0
 12 13  1  0  0  0  0
 13 14  1  0  0  0  0
 13 18  1  0  0  0  0
 14 15  1  0  0  0  0
 14 32  1  0  0  0  0
 14 33  1  0  0  0  0
 15 16  1  0  0  0  0
 15 17  2  0  0  0  0
 16 34  1  0  0  0  0
 16 35  1  0  0  0  0
 18 36  1  0  0  0  0
 19 20  1  0  0  0  0
 19 37  1  0  0  0  0
 19 38  1  0  0  0  0
 20 39  1  0  0  0  0
 20 40  1  0  0  0  0
M  CHG  1   3   1
M  END
> <s_m_source_file>
AV-unprocessed.smi

> <i_m_source_file_index>
1499

> <i_lp_mmshare_version>
43012

> <i_f3d_flags>
0

> <s_epik_input>
W0NIM11bQ0gyXU4xW0NIMl1bQ0gyXU4oW0NIMl1bQ0gyXTEpQyg9TylbTkhdYzJbY0hdbm4oW2NIXTIpW0NIMl1DKD1PKVtOSDJd

> <s_epik_cmdline>
J2VwaWtfcHl0aG9uJywgJy1waCcsICc3LjAnLCAnLXRuJywgJzgnLCAnLW1hJywgJzIwMCcsICctbWV0YWxfYmluZGluZycsICctaW1hZScsICc8aW5maWxlLm1hZT4nLCAnLW9tYWUnLCAnPG91dGZpbGUubWFlPic=

> <r_lp_tautomer_probability>
1

> <r_epik_Ionization_Penalty>
0.390351

> <r_epik_Ionization_Penalty_Charging>
0.390326

> <r_epik_Ionization_Penalty_Neutral>
2.46507e-05

> <r_epik_State_Penalty>
0.388987

> <r_epik_Charging_Adjusted_Penalty>
0.779313

> <i_epik_Tot_Q>
1

> <i_epik_Tot_abs_Q>
1

> <r_epik_Metal_State_Penalty>
0.388988

> <b_epik_Metal_Only>
0

> <s_lp_Force_Field>
OPLS_2005

> <r_lp_Energy>
52.2824

> <b_lp_Chiralities_Consistent>
1

> <s_lp_Variant>
AV-unprocessed.smi:1499-1

> <Gold.Version>
5.8.1

> <Gold.Id.Protein>
6NUR|6NUR_protein|mol2

> <Gold.PLP.Fitness>
40.0636

> <Gold.PLP.PLP>
-25.8971

> <Gold.PLP.part.hbond>
-3.7900

> <Gold.PLP.part.metal>
0.0000

> <Gold.PLP.part.buried>
-1.9376

> <Gold.PLP.part.nonpolar>
-21.9311

> <Gold.PLP.part.repulsive>
1.0031

> <Gold.PLP.ligand.clash>
0.0000

> <Gold.PLP.ligand.torsion>
0.0927

> <Gold.PLP.Chemscore.Hbond>
3.7520

> <Gold.PLP.Chemscore.CHOScore>
1.0000

> <Gold.PLP.Chemscore.Metal>
0.0000

> <Gold.Chemscore.Hbonds>
donor molecule, donor type, donor heavy atom, donor atom, acceptor molecule, acceptor atom, score
      L1  H     3    41       P1 10186  2.00
      L1  H    16    34       P1  8028  1.00
      P1  H  8011  8017       L1    17  0.80
      L1  C    18    36       P1  7957  1.00

> <Gold.PLP.Chemscore.Internal.Correction>
0.0958

> <Gold.Rescore>
     Score         DG    S(hbond)    S(metal)    S(lipo)     H(rot)  DE(clash)    DE(int)     intcor
     13.72     -16.53       2.71        0.00      57.55       1.85       1.39       1.42       ----

> <Gold.Chemscore.Fitness>
13.7160

> <Gold.Chemscore.DG>
-16.5260

> <Gold.Chemscore.ZeroCoef>
-5.4800

> <Gold.Chemscore.Hbond>
2.7114

> <Gold.Chemscore.Metal>
0.0000

> <Gold.Chemscore.Lipo>
57.5546

> <Gold.Chemscore.Internal_Hbond>
0.0000

> <Gold.Chemscore.DEClash>
1.3852

> <Gold.Chemscore.DEInternal>
1.4248

> <Gold.Chemscore.Rot>
1.8532

> <Gold.Chemscore.Internal.Correction>
   9.000000E+99

> <Gold.Chemscore.Hbonds>
donor molecule, donor type, donor heavy atom, donor atom, acceptor molecule, acceptor atom, score
      L1  H     3    41       P1 10186  0.85
      L1  H    16    34       P1  8028  1.00
      P1  H  8011  8017       L1    17  0.80

> <Gold.Chemscore.Hbond.Weighted>
-9.0562

> <Gold.Chemscore.Metal.Weighted>
-0.0000

> <Gold.Chemscore.Lipo.Weighted>
-6.7339

> <Gold.Chemscore.Internal_Hbond.Weighted>
0.0000

> <Gold.Chemscore.DEClash.Weighted>
1.3852

> <Gold.Chemscore.DEInternal.Weighted>
1.4248

> <Gold.Chemscore.Rot.Weighted>
4.7441

> <Gold.Chemscore.Internal.Correction.Weighted>
   9.000000E+99

> <Gold.Protein.RotatedTorsions>
[ 6907 6896 6895 6894 ] final  -19.78 input  -60.11 | X-H torsion
[ 7974 7965 7964 7962 ] final  -20.95 input  175.53 | X-H torsion
[ 8008 7997 7996 7995 ] final   86.22 input   59.86 | X-H torsion
[ 10167 10162 10161 10158 ] final  -29.81 input  -65.29 | X-H torsion
[ 10718 10713 10712 10709 ] final  -20.53 input   66.30 | X-H torsion
[ 10763 10752 10751 10750 ] final  -73.61 input  -60.55 | X-H torsion
[ 11005 11000 10999 10996 ] final   36.89 input  -57.11 | X-H torsion

> <Gold.Protein.ActiveResidues>
 VAL166  LYS551  ARG553  GLY616  TRP617  ASP618  TYR619  PRO620  LYS621  CYS622 
 ASP623  PHE694  ASN695  SER759  ASP760  ASP761  ALA762  ILE779  LEU786  VAL792 
 PHE793  MET794  SER795  GLU796  ALA797  LYS798  CYS799  TRP800  GLU811  SER814 

> <Gold.Protein.RotatedAtoms>
  151.2580  135.0644  159.9087 H   0  0  0  0  0  0  0  0  0  0  0  0  # atno 6907 bound_to 6896
  152.5370  134.0261  159.8014 H   0  0  0  0  0  0  0  0  0  0  0  0  # atno 6908 bound_to 6896
  151.0479  133.5599  159.2676 H   0  0  0  0  0  0  0  0  0  0  0  0  # atno 6909 bound_to 6896
  146.1760  140.4273  142.8513 H   0  0  0  0  0  0  0  0  0  0  0  0  # atno 7974 bound_to 7965
  155.9600  140.3394  155.6482 H   0  0  0  0  0  0  0  0  0  0  0  0  # atno 8008 bound_to 7997
  155.6810  140.0738  157.2503 H   0  0  0  0  0  0  0  0  0  0  0  0  # atno 8009 bound_to 7997
  154.4141  140.1674  156.1970 H   0  0  0  0  0  0  0  0  0  0  0  0  # atno 8010 bound_to 7997
  140.7256  143.3898  151.1449 H   0  0  0  0  0  0  0  0  0  0  0  0  # atno 10167 bound_to 10162
  156.5305  130.4654  149.6549 H   0  0  0  0  0  0  0  0  0  0  0  0  # atno 10718 bound_to 10713
  154.4618  135.5891  153.6261 H   0  0  0  0  0  0  0  0  0  0  0  0  # atno 10763 bound_to 10752
  152.9824  135.6045  154.3477 H   0  0  0  0  0  0  0  0  0  0  0  0  # atno 10764 bound_to 10752
  154.3349  135.2842  155.2432 H   0  0  0  0  0  0  0  0  0  0  0  0  # atno 10765 bound_to 10752
  140.2280  134.3561  155.7976 H   0  0  0  0  0  0  0  0  0  0  0  0  # atno 11005 bound_to 11000
  144.8237  140.6593  143.6336 LP  0  0  0  0  0  0  0  0  0  0  0  0  # atno 17320 bound_to 7965
  145.4210  139.1564  143.4074 LP  0  0  0  0  0  0  0  0  0  0  0  0  # atno 17321 bound_to 7965
  139.7502  143.8791  152.3074 LP  0  0  0  0  0  0  0  0  0  0  0  0  # atno 17342 bound_to 10162
  139.8642  144.7102  150.9064 LP  0  0  0  0  0  0  0  0  0  0  0  0  # atno 17343 bound_to 10162
  156.3064  130.7205  151.2088 LP  0  0  0  0  0  0  0  0  0  0  0  0  # atno 17370 bound_to 10713
  157.7422  131.0493  150.5039 LP  0  0  0  0  0  0  0  0  0  0  0  0  # atno 17371 bound_to 10713
  141.2219  133.7230  156.8685 LP  0  0  0  0  0  0  0  0  0  0  0  0  # atno 17394 bound_to 11000
  140.1780  134.9053  157.2914 LP  0  0  0  0  0  0  0  0  0  0  0  0  # atno 17395 bound_to 11000

$$$$
