AV-unprocessed.smi:862|AV-procd|sdf|3977|dock5
  -GOLD-   22720 1453D 1   1.00000     0.00000
 Structure written by MMmdl.
 44 46  0  0  0  0  0  0  0  0  2 V2000
  149.8248  130.1779  156.8252 N   0  0  0  0  0  0  0  0  0  0  0  0
  150.1299  131.4708  156.6780 C   0  0  0  0  0  0  0  0  0  0  0  0
  150.2824  132.1999  157.6565 O   0  0  0  0  0  0  0  0  0  0  0  0
  150.2868  131.8879  155.3961 N   0  0  0  0  0  0  0  0  0  0  0  0
  149.9369  131.1277  154.1845 C   0  0  0  0  0  0  0  0  0  0  0  0
  148.6531  131.7230  153.5773 C   0  0  0  0  0  0  0  0  0  0  0  0
  148.8249  133.2294  153.2727 C   0  0  0  0  0  0  0  0  0  0  0  0
  147.5488  133.8430  152.8431 N   0  3  0  0  0  0  0  0  0  0  0  0
  146.8058  133.1357  151.7720 C   0  0  1  0  0  0  0  0  0  0  0  0
  145.8590  132.0400  152.2725 C   0  0  0  0  0  0  0  0  0  0  0  0
  144.8360  131.8509  151.1439 C   0  0  0  0  0  0  0  0  0  0  0  0
  144.9289  133.0993  150.2489 C   0  0  0  0  0  0  0  0  0  0  0  0
  145.9067  134.0666  150.9378 C   0  0  1  0  0  0  0  0  0  0  0  0
  145.2201  135.0790  151.7394 N   0  0  0  0  0  0  0  0  0  0  0  0
  145.6454  136.3871  151.9408 C   0  0  0  0  0  0  0  0  0  0  0  0
  144.7333  136.9788  152.7844 C   0  0  0  0  0  0  0  0  0  0  0  0
  143.7481  136.0572  153.1263 N   0  0  0  0  0  0  0  0  0  0  0  0
  144.1007  134.9588  152.4725 C   0  0  0  0  0  0  0  0  0  0  0  0
  149.3701  133.9746  154.5089 C   0  0  0  0  0  0  0  0  0  0  0  0
  150.6230  133.2791  155.0704 C   0  0  0  0  0  0  0  0  0  0  0  0
  149.6992  129.7978  157.7522 H   0  0  0  0  0  0  0  0  0  0  0  0
  149.7266  129.5852  156.0141 H   0  0  0  0  0  0  0  0  0  0  0  0
  150.7558  131.2022  153.4673 H   0  0  0  0  0  0  0  0  0  0  0  0
  149.8021  130.0601  154.3571 H   0  0  0  0  0  0  0  0  0  0  0  0
  148.3963  131.1725  152.6735 H   0  0  0  0  0  0  0  0  0  0  0  0
  147.8249  131.5770  154.2728 H   0  0  0  0  0  0  0  0  0  0  0  0
  149.5609  133.3429  152.4750 H   0  0  0  0  0  0  0  0  0  0  0  0
  146.9504  133.9692  153.6470 H   0  0  0  0  0  0  0  0  0  0  0  0
  147.5296  132.6834  151.0918 H   0  0  0  0  0  0  0  0  0  0  0  0
  146.3837  131.1128  152.5044 H   0  0  0  0  0  0  0  0  0  0  0  0
  145.3474  132.3644  153.1793 H   0  0  0  0  0  0  0  0  0  0  0  0
  145.0672  130.9577  150.5623 H   0  0  0  0  0  0  0  0  0  0  0  0
  143.8311  131.7217  151.5478 H   0  0  0  0  0  0  0  0  0  0  0  0
  145.3343  132.8099  149.2786 H   0  0  0  0  0  0  0  0  0  0  0  0
  143.9526  133.5475  150.0582 H   0  0  0  0  0  0  0  0  0  0  0  0
  146.5000  134.5933  150.1887 H   0  0  0  0  0  0  0  0  0  0  0  0
  146.5388  136.7815  151.4789 H   0  0  0  0  0  0  0  0  0  0  0  0
  144.7137  137.9866  153.1726 H   0  0  0  0  0  0  0  0  0  0  0  0
  143.5283  134.0453  152.5365 H   0  0  0  0  0  0  0  0  0  0  0  0
  149.6056  135.0073  154.2496 H   0  0  0  0  0  0  0  0  0  0  0  0
  148.6052  134.0175  155.2861 H   0  0  0  0  0  0  0  0  0  0  0  0
  151.0023  133.8322  155.9310 H   0  0  0  0  0  0  0  0  0  0  0  0
  151.4267  133.2955  154.3328 H   0  0  0  0  0  0  0  0  0  0  0  0
  147.7751  134.7562  152.4757 H   0  0  0  0  0  0  0  0  0  0  0  0
  1  2  1  0  0  0  0
  1 21  1  0  0  0  0
  1 22  1  0  0  0  0
  2  3  2  0  0  0  0
  2  4  1  0  0  0  0
  4 20  1  0  0  0  0
  4  5  1  0  0  0  0
  5  6  1  0  0  0  0
  5 23  1  0  0  0  0
  5 24  1  0  0  0  0
  6  7  1  0  0  0  0
  6 25  1  0  0  0  0
  6 26  1  0  0  0  0
  7  8  1  0  0  0  0
  7 19  1  0  0  0  0
  7 27  1  0  0  0  0
  8  9  1  0  0  0  0
  8 28  1  0  0  0  0
  8 44  1  0  0  0  0
  9 13  1  0  0  0  0
  9 10  1  0  0  0  0
  9 29  1  0  0  0  0
 10 11  1  0  0  0  0
 10 30  1  0  0  0  0
 10 31  1  0  0  0  0
 11 12  1  0  0  0  0
 11 32  1  0  0  0  0
 11 33  1  0  0  0  0
 12 13  1  0  0  0  0
 12 34  1  0  0  0  0
 12 35  1  0  0  0  0
 13 14  1  0  0  0  0
 13 36  1  0  0  0  0
 14 18  1  0  0  0  0
 14 15  1  0  0  0  0
 15 16  2  0  0  0  0
 15 37  1  0  0  0  0
 16 17  1  0  0  0  0
 16 38  1  0  0  0  0
 17 18  2  0  0  0  0
 18 39  1  0  0  0  0
 19 20  1  0  0  0  0
 19 40  1  0  0  0  0
 19 41  1  0  0  0  0
 20 42  1  0  0  0  0
 20 43  1  0  0  0  0
M  CHG  1   8   1
M  END
> <s_m_source_file>
AV-unprocessed.smi

> <i_m_source_file_index>
862

> <i_lp_mmshare_version>
43012

> <i_f3d_flags>
0

> <s_epik_input>
W05IMl1DKD1PKU4xW0NIMl1bQ0gyXVtDSF0oW0NIMl1bQ0gyXTEpW05IXVtDQEBIXTJbQ0gyXVtDSDJdW0NIMl1bQ0BIXTJuM1tjSF1bY0hdbltjSF0z

> <s_epik_cmdline>
J2VwaWtfcHl0aG9uJywgJy1waCcsICc3LjAnLCAnLXRuJywgJzgnLCAnLW1hJywgJzIwMCcsICctbWV0YWxfYmluZGluZycsICctaW1hZScsICc8aW5maWxlLm1hZT4nLCAnLW9tYWUnLCAnPG91dGZpbGUubWFlPic=

> <r_lp_tautomer_probability>
1

> <r_epik_Ionization_Penalty>
0.0731506

> <r_epik_Ionization_Penalty_Charging>
0.0731

> <r_epik_Ionization_Penalty_Neutral>
5.05966e-05

> <r_epik_State_Penalty>
0.128895

> <r_epik_Charging_Adjusted_Penalty>
0.201995

> <i_epik_Tot_Q>
1

> <i_epik_Tot_abs_Q>
1

> <r_epik_Metal_State_Penalty>
0.113934

> <b_epik_Metal_Only>
0

> <s_lp_Force_Field>
OPLS_2005

> <r_lp_Energy>
58.7587

> <b_lp_Chiralities_Consistent>
1

> <s_lp_Variant>
AV-unprocessed.smi:862-2

> <Gold.Version>
5.8.1

> <Gold.Id.Protein>
6NUR|6NUR_protein|mol2

> <Gold.PLP.Fitness>
48.4951

> <Gold.PLP.PLP>
-35.7264

> <Gold.PLP.part.hbond>
-2.0000

> <Gold.PLP.part.metal>
0.0000

> <Gold.PLP.part.buried>
-4.2329

> <Gold.PLP.part.nonpolar>
-29.6081

> <Gold.PLP.part.repulsive>
0.1234

> <Gold.PLP.ligand.clash>
0.0000

> <Gold.PLP.ligand.torsion>
1.0472

> <Gold.PLP.Chemscore.Hbond>
3.0000

> <Gold.PLP.Chemscore.CHOScore>
1.9345

> <Gold.PLP.Chemscore.Metal>
0.0000

> <Gold.Chemscore.Hbonds>
donor molecule, donor type, donor heavy atom, donor atom, acceptor molecule, acceptor atom, score
      L1  H     8    44       P1  7948  2.00
      P1  H  6896  6907       L1     3  0.65
      L1  C    15    37       P1  7948  1.00
      L1  C    16    38       P1 10175  0.41

> <Gold.PLP.Chemscore.Internal.Correction>
0.0596

> <Gold.Rescore>
     Score         DG    S(hbond)    S(metal)    S(lipo)     H(rot)  DE(clash)    DE(int)     intcor
     15.77     -16.36       1.92        0.00      74.17       1.64       0.10       0.50       ----

> <Gold.Chemscore.Fitness>
15.7687

> <Gold.Chemscore.DG>
-16.3612

> <Gold.Chemscore.ZeroCoef>
-5.4800

> <Gold.Chemscore.Hbond>
1.9177

> <Gold.Chemscore.Metal>
0.0000

> <Gold.Chemscore.Lipo>
74.1668

> <Gold.Chemscore.Internal_Hbond>
0.0000

> <Gold.Chemscore.DEClash>
0.0964

> <Gold.Chemscore.DEInternal>
0.4961

> <Gold.Chemscore.Rot>
1.6411

> <Gold.Chemscore.Internal.Correction>
   9.000000E+99

> <Gold.Chemscore.Hbonds>
donor molecule, donor type, donor heavy atom, donor atom, acceptor molecule, acceptor atom, score
      L1  H     8    44       P1  7948  0.80
      P1  H  6896  6907       L1     3  0.65

> <Gold.Chemscore.Hbond.Weighted>
-6.4050

> <Gold.Chemscore.Metal.Weighted>
-0.0000

> <Gold.Chemscore.Lipo.Weighted>
-8.6775

> <Gold.Chemscore.Internal_Hbond.Weighted>
0.0000

> <Gold.Chemscore.DEClash.Weighted>
0.0964

> <Gold.Chemscore.DEInternal.Weighted>
0.4961

> <Gold.Chemscore.Rot.Weighted>
4.2013

> <Gold.Chemscore.Internal.Correction.Weighted>
   9.000000E+99

> <Gold.Protein.RotatedTorsions>
[ 6907 6896 6895 6894 ] final -141.70 input  -60.11 | X-H torsion
[ 7974 7965 7964 7962 ] final  -98.70 input  175.53 | X-H torsion
[ 8008 7997 7996 7995 ] final  -31.38 input   59.86 | X-H torsion
[ 10167 10162 10161 10158 ] final  124.85 input  -65.29 | X-H torsion
[ 10718 10713 10712 10709 ] final -116.90 input   66.30 | X-H torsion
[ 10763 10752 10751 10750 ] final -153.07 input  -60.55 | X-H torsion
[ 11005 11000 10999 10996 ] final -142.53 input  -57.11 | X-H torsion

> <Gold.Protein.ActiveResidues>
 VAL166  LYS551  ARG553  GLY616  TRP617  ASP618  TYR619  PRO620  LYS621  CYS622 
 ASP623  PHE694  ASN695  SER759  ASP760  ASP761  ALA762  ILE779  LEU786  VAL792 
 PHE793  MET794  SER795  GLU796  ALA797  LYS798  CYS799  TRP800  GLU811  SER814 

> <Gold.Protein.RotatedAtoms>
  151.0773  133.5418  159.2622 H   0  0  0  0  0  0  0  0  0  0  0  0  # atno 6907 bound_to 6896
  151.2335  135.0562  159.9007 H   0  0  0  0  0  0  0  0  0  0  0  0  # atno 6908 bound_to 6896
  152.5419  134.0558  159.8184 H   0  0  0  0  0  0  0  0  0  0  0  0  # atno 6909 bound_to 6896
  145.3172  140.9414  143.2736 H   0  0  0  0  0  0  0  0  0  0  0  0  # atno 7974 bound_to 7965
  154.4216  140.1766  156.1558 H   0  0  0  0  0  0  0  0  0  0  0  0  # atno 8008 bound_to 7997
  155.9878  140.3371  155.6700 H   0  0  0  0  0  0  0  0  0  0  0  0  # atno 8009 bound_to 7997
  155.6413  140.0680  157.2608 H   0  0  0  0  0  0  0  0  0  0  0  0  # atno 8010 bound_to 7997
  139.5718  144.6943  151.3758 H   0  0  0  0  0  0  0  0  0  0  0  0  # atno 10167 bound_to 10162
  156.0996  130.6161  150.9095 H   0  0  0  0  0  0  0  0  0  0  0  0  # atno 10718 bound_to 10713
  154.7952  135.3221  154.7683 H   0  0  0  0  0  0  0  0  0  0  0  0  # atno 10763 bound_to 10752
  153.8363  135.6875  153.4812 H   0  0  0  0  0  0  0  0  0  0  0  0  # atno 10764 bound_to 10752
  153.1640  135.4649  154.9754 H   0  0  0  0  0  0  0  0  0  0  0  0  # atno 10765 bound_to 10752
  140.8216  134.2624  157.4897 H   0  0  0  0  0  0  0  0  0  0  0  0  # atno 11005 bound_to 11000
  144.8968  139.4702  143.6652 LP  0  0  0  0  0  0  0  0  0  0  0  0  # atno 17320 bound_to 7965
  146.3096  139.7698  142.9030 LP  0  0  0  0  0  0  0  0  0  0  0  0  # atno 17321 bound_to 7965
  140.7002  143.7649  150.7391 LP  0  0  0  0  0  0  0  0  0  0  0  0  # atno 17342 bound_to 10162
  140.1158  143.4657  152.2343 LP  0  0  0  0  0  0  0  0  0  0  0  0  # atno 17343 bound_to 10162
  157.6163  131.0933  150.8704 LP  0  0  0  0  0  0  0  0  0  0  0  0  # atno 17370 bound_to 10713
  156.8834  130.5187  149.5289 LP  0  0  0  0  0  0  0  0  0  0  0  0  # atno 17371 bound_to 10713
  139.8708  134.9538  156.4157 LP  0  0  0  0  0  0  0  0  0  0  0  0  # atno 17394 bound_to 11000
  140.9093  133.7723  155.9772 LP  0  0  0  0  0  0  0  0  0  0  0  0  # atno 17395 bound_to 11000

$$$$
