AV-unprocessed.smi:1586|AV-procd|sdf|6382|dock3
  -GOLD-   22720 7 13D 1   1.00000     0.00000
 Structure written by MMmdl.
 46 47  0  0  0  0  0  0  0  0  3 V2000
  143.6516  132.4976  150.6162 C   0  0  0  0  0  0  0  0  0  0  0  0
  144.0822  133.6283  151.5622 C   0  0  0  0  0  0  0  0  0  0  0  0
  145.2569  134.3443  151.0593 N   0  0  0  0  0  0  0  0  0  0  0  0
  145.6529  135.5143  151.8510 C   0  0  0  0  0  0  0  0  0  0  0  0
  146.2436  135.1247  153.2227 C   0  0  0  0  0  0  0  0  0  0  0  0
  147.4081  134.2208  153.0481 N   0  3  0  0  0  0  0  0  0  0  0  0
  148.1568  133.9595  154.3166 C   0  0  1  0  0  0  0  0  0  0  0  0
  149.3300  132.9642  154.1310 C   0  0  0  0  0  0  0  0  0  0  0  0
  148.5589  135.2971  154.9978 C   0  0  0  0  0  0  0  0  0  0  0  0
  149.7457  135.1275  155.8379 N   0  5  0  0  0  0  0  0  0  0  0  0
  149.8515  135.5488  157.1288 C   0  0  0  0  0  0  0  0  0  0  0  0
  150.8900  135.7371  157.7739 O   0  0  0  0  0  0  0  0  0  0  0  0
  148.6504  135.7697  157.6933 N   0  0  0  0  0  0  0  0  0  0  0  0
  148.3541  136.2067  159.0114 C   0  0  0  0  0  0  0  0  0  0  0  0
  148.1409  135.2670  160.0549 C   0  0  0  0  0  0  0  0  0  0  0  0
  147.8923  136.0601  161.1394 C   0  0  0  0  0  0  0  0  0  0  0  0
  147.5906  135.7573  162.5671 C   0  0  0  0  0  0  0  0  0  0  0  0
  147.9466  137.3735  160.7882 O   0  0  0  0  0  0  0  0  0  0  0  0
  148.2419  137.4610  159.4227 N   0  0  0  0  0  0  0  0  0  0  0  0
  147.0093  133.0276  152.2493 C   0  0  0  0  0  0  0  0  0  0  0  0
  146.4192  133.4676  150.8936 C   0  0  0  0  0  0  0  0  0  0  0  0
  142.8626  131.8997  151.0729 H   0  0  0  0  0  0  0  0  0  0  0  0
  144.4837  131.8288  150.3936 H   0  0  0  0  0  0  0  0  0  0  0  0
  143.2604  132.8782  149.6731 H   0  0  0  0  0  0  0  0  0  0  0  0
  143.2474  134.3028  151.7482 H   0  0  0  0  0  0  0  0  0  0  0  0
  144.3375  133.1809  152.5237 H   0  0  0  0  0  0  0  0  0  0  0  0
  146.3998  136.0724  151.2848 H   0  0  0  0  0  0  0  0  0  0  0  0
  144.8108  136.1932  151.9801 H   0  0  0  0  0  0  0  0  0  0  0  0
  146.5614  136.0352  153.7321 H   0  0  0  0  0  0  0  0  0  0  0  0
  145.4931  134.6582  153.8610 H   0  0  0  0  0  0  0  0  0  0  0  0
  147.4486  133.4807  154.9947 H   0  0  0  0  0  0  0  0  0  0  0  0
  149.7603  132.6628  155.0877 H   0  0  0  0  0  0  0  0  0  0  0  0
  150.1410  133.3747  153.5268 H   0  0  0  0  0  0  0  0  0  0  0  0
  148.9907  132.0496  153.6444 H   0  0  0  0  0  0  0  0  0  0  0  0
  148.7243  136.0509  154.2278 H   0  0  0  0  0  0  0  0  0  0  0  0
  147.7105  135.6666  155.5763 H   0  0  0  0  0  0  0  0  0  0  0  0
  147.8510  135.5929  157.1034 H   0  0  0  0  0  0  0  0  0  0  0  0
  148.1675  134.1883  160.0164 H   0  0  0  0  0  0  0  0  0  0  0  0
  147.0074  134.8404  162.6538 H   0  0  0  0  0  0  0  0  0  0  0  0
  147.0195  136.5645  163.0265 H   0  0  0  0  0  0  0  0  0  0  0  0
  148.5114  135.6274  163.1357 H   0  0  0  0  0  0  0  0  0  0  0  0
  147.8749  132.3915  152.0649 H   0  0  0  0  0  0  0  0  0  0  0  0
  146.2883  132.4193  152.7958 H   0  0  0  0  0  0  0  0  0  0  0  0
  146.1418  132.5960  150.2996 H   0  0  0  0  0  0  0  0  0  0  0  0
  147.1797  133.9990  150.3198 H   0  0  0  0  0  0  0  0  0  0  0  0
  148.0571  134.7378  152.4721 H   0  0  0  0  0  0  0  0  0  0  0  0
  1  2  1  0  0  0  0
  1 22  1  0  0  0  0
  1 23  1  0  0  0  0
  1 24  1  0  0  0  0
  2  3  1  0  0  0  0
  2 25  1  0  0  0  0
  2 26  1  0  0  0  0
  3 21  1  0  0  0  0
  3  4  1  0  0  0  0
  4  5  1  0  0  0  0
  4 27  1  0  0  0  0
  4 28  1  0  0  0  0
  5  6  1  0  0  0  0
  5 29  1  0  0  0  0
  5 30  1  0  0  0  0
  6  7  1  0  0  0  0
  6 20  1  0  0  0  0
  6 46  1  0  0  0  0
  7  8  1  0  0  0  0
  7  9  1  0  0  0  0
  7 31  1  0  0  0  0
  8 32  1  0  0  0  0
  8 33  1  0  0  0  0
  8 34  1  0  0  0  0
  9 10  1  0  0  0  0
  9 35  1  0  0  0  0
  9 36  1  0  0  0  0
 10 11  1  0  0  0  0
 11 12  2  0  0  0  0
 11 13  1  0  0  0  0
 13 14  1  0  0  0  0
 13 37  1  0  0  0  0
 14 19  2  0  0  0  0
 14 15  1  0  0  0  0
 15 16  2  0  0  0  0
 15 38  1  0  0  0  0
 16 17  1  0  0  0  0
 16 18  1  0  0  0  0
 17 39  1  0  0  0  0
 17 40  1  0  0  0  0
 17 41  1  0  0  0  0
 18 19  1  0  0  0  0
 20 21  1  0  0  0  0
 20 42  1  0  0  0  0
 20 43  1  0  0  0  0
 21 44  1  0  0  0  0
 21 45  1  0  0  0  0
M  CHG  1   6   1
M  CHG  1  10  -1
M  END
> <s_m_source_file>
AV-unprocessed.smi

> <i_m_source_file_index>
1586

> <i_lp_mmshare_version>
43012

> <i_f3d_flags>
0

> <s_epik_input>
W0NIM11bQ0gyXU4xW0NIMl1bQ0gyXU4oW0NIMl1bQ0gyXTEpW0NASF0oW0NIM10pW0NIMl1bTkhdQyg9TylbTkhdYzJbY0hdYyhbQ0gzXSlvbjI=

> <s_epik_cmdline>
J2VwaWtfcHl0aG9uJywgJy1waCcsICc3LjAnLCAnLXRuJywgJzgnLCAnLW1hJywgJzIwMCcsICctbWV0YWxfYmluZGluZycsICctaW1hZScsICc8aW5maWxlLm1hZT4nLCAnLW9tYWUnLCAnPG91dGZpbGUubWFlPic=

> <r_epik_Ionization_Penalty>
6.72969

> <r_epik_Ionization_Penalty_Charging>
6.72741

> <r_epik_Ionization_Penalty_Neutral>
0.00227419

> <r_epik_State_Penalty>
7.72748

> <r_epik_Charging_Adjusted_Penalty>
14.4549

> <i_epik_Tot_Q>
0

> <i_epik_Tot_abs_Q>
2

> <r_epik_Metal_State_Penalty>
3.65268

> <b_epik_Metal_Only>
1

> <s_lp_Force_Field>
OPLS_2005

> <r_lp_Energy>
18.4071

> <b_lp_Chiralities_Consistent>
1

> <s_lp_Variant>
AV-unprocessed.smi:1586-10

> <Gold.Version>
5.8.1

> <Gold.Id.Protein>
6NUR|6NUR_protein|mol2

> <Gold.PLP.Fitness>
44.2332

> <Gold.PLP.PLP>
-35.5928

> <Gold.PLP.part.hbond>
-4.8018

> <Gold.PLP.part.metal>
0.0000

> <Gold.PLP.part.buried>
-5.4588

> <Gold.PLP.part.nonpolar>
-25.8348

> <Gold.PLP.part.repulsive>
0.2608

> <Gold.PLP.ligand.clash>
0.4310

> <Gold.PLP.ligand.torsion>
1.3137

> <Gold.PLP.Chemscore.Hbond>
3.8320

> <Gold.PLP.Chemscore.CHOScore>
0.0000

> <Gold.PLP.Chemscore.Metal>
0.0000

> <Gold.Chemscore.Hbonds>
donor molecule, donor type, donor heavy atom, donor atom, acceptor molecule, acceptor atom, score
      L1  H     6    46       P1  7948  2.00
      P1  H  6896  6907       L1    12  0.38
      P1  H  6931  6943       L1    18  0.77
      P1  H  6934  6947       L1    18  0.59

> <Gold.PLP.Chemscore.Internal.Correction>
0.2029

> <Gold.Rescore>
     Score         DG    S(hbond)    S(metal)    S(lipo)     H(rot)  DE(clash)    DE(int)     intcor
     14.27     -15.63       1.97        0.00      68.43       1.73       0.09       1.28       ----

> <Gold.Chemscore.Fitness>
14.2656

> <Gold.Chemscore.DG>
-15.6350

> <Gold.Chemscore.ZeroCoef>
-5.4800

> <Gold.Chemscore.Hbond>
1.9653

> <Gold.Chemscore.Metal>
0.0000

> <Gold.Chemscore.Lipo>
68.4343

> <Gold.Chemscore.Internal_Hbond>
0.0000

> <Gold.Chemscore.DEClash>
0.0914

> <Gold.Chemscore.DEInternal>
1.2780

> <Gold.Chemscore.Rot>
1.7250

> <Gold.Chemscore.Internal.Correction>
   9.000000E+99

> <Gold.Chemscore.Hbonds>
donor molecule, donor type, donor heavy atom, donor atom, acceptor molecule, acceptor atom, score
      L1  H     6    46       P1  7948  0.60
      P1  H  6896  6907       L1    12  0.30
      P1  H  6931  6943       L1    18  0.52
      P1  H  6934  6947       L1    18  0.09

> <Gold.Chemscore.Hbond.Weighted>
-6.5643

> <Gold.Chemscore.Metal.Weighted>
-0.0000

> <Gold.Chemscore.Lipo.Weighted>
-8.0068

> <Gold.Chemscore.Internal_Hbond.Weighted>
0.0000

> <Gold.Chemscore.DEClash.Weighted>
0.0914

> <Gold.Chemscore.DEInternal.Weighted>
1.2780

> <Gold.Chemscore.Rot.Weighted>
4.4161

> <Gold.Chemscore.Internal.Correction.Weighted>
   9.000000E+99

> <Gold.Protein.RotatedTorsions>
[ 6907 6896 6895 6894 ] final  -56.03 input  -60.11 | X-H torsion
[ 7974 7965 7964 7962 ] final  158.34 input  175.53 | X-H torsion
[ 8008 7997 7996 7995 ] final   68.11 input   59.86 | X-H torsion
[ 10167 10162 10161 10158 ] final  166.85 input  -65.29 | X-H torsion
[ 10718 10713 10712 10709 ] final   47.92 input   66.30 | X-H torsion
[ 10763 10752 10751 10750 ] final   51.95 input  -60.55 | X-H torsion
[ 11005 11000 10999 10996 ] final  -50.44 input  -57.11 | X-H torsion

> <Gold.Protein.ActiveResidues>
 VAL166  LYS551  ARG553  GLY616  TRP617  ASP618  TYR619  PRO620  LYS621  CYS622 
 ASP623  PHE694  ASN695  SER759  ASP760  ASP761  ALA762  ILE779  LEU786  VAL792 
 PHE793  MET794  SER795  GLU796  ALA797  LYS798  CYS799  TRP800  GLU811  SER814 

> <Gold.Protein.RotatedAtoms>
  150.8202  134.7405  159.6764 H   0  0  0  0  0  0  0  0  0  0  0  0  # atno 6907 bound_to 6896
  152.4318  134.5760  159.9944 H   0  0  0  0  0  0  0  0  0  0  0  0  # atno 6908 bound_to 6896
  151.5946  133.3325  159.3070 H   0  0  0  0  0  0  0  0  0  0  0  0  # atno 6909 bound_to 6896
  144.7851  139.7465  143.6244 H   0  0  0  0  0  0  0  0  0  0  0  0  # atno 7974 bound_to 7965
  155.7032  140.3495  155.4942 H   0  0  0  0  0  0  0  0  0  0  0  0  # atno 8008 bound_to 7997
  155.9422  140.1103  157.1068 H   0  0  0  0  0  0  0  0  0  0  0  0  # atno 8009 bound_to 7997
  154.4105  140.1210  156.4928 H   0  0  0  0  0  0  0  0  0  0  0  0  # atno 8010 bound_to 7997
  139.4933  144.3984  151.9438 H   0  0  0  0  0  0  0  0  0  0  0  0  # atno 10167 bound_to 10162
  157.4634  130.8210  149.7910 H   0  0  0  0  0  0  0  0  0  0  0  0  # atno 10718 bound_to 10713
  152.9787  135.5829  154.4499 H   0  0  0  0  0  0  0  0  0  0  0  0  # atno 10763 bound_to 10752
  154.4089  135.2770  155.2051 H   0  0  0  0  0  0  0  0  0  0  0  0  # atno 10764 bound_to 10752
  154.3850  135.6138  153.5865 H   0  0  0  0  0  0  0  0  0  0  0  0  # atno 10765 bound_to 10752
  141.0816  133.6652  156.3731 H   0  0  0  0  0  0  0  0  0  0  0  0  # atno 11005 bound_to 11000
  146.2079  139.5416  142.9700 LP  0  0  0  0  0  0  0  0  0  0  0  0  # atno 17320 bound_to 7965
  145.5943  141.0365  143.2053 LP  0  0  0  0  0  0  0  0  0  0  0  0  # atno 17321 bound_to 7965
  140.3422  144.3189  150.5965 LP  0  0  0  0  0  0  0  0  0  0  0  0  # atno 17342 bound_to 10162
  140.5556  143.2199  151.7853 LP  0  0  0  0  0  0  0  0  0  0  0  0  # atno 17343 bound_to 10162
  156.0039  130.3865  150.2503 LP  0  0  0  0  0  0  0  0  0  0  0  0  # atno 17370 bound_to 10713
  157.0681  131.0109  151.3199 LP  0  0  0  0  0  0  0  0  0  0  0  0  # atno 17371 bound_to 10713
  140.5456  134.6078  157.5393 LP  0  0  0  0  0  0  0  0  0  0  0  0  # atno 17394 bound_to 11000
  139.9630  134.7420  156.0196 LP  0  0  0  0  0  0  0  0  0  0  0  0  # atno 17395 bound_to 11000

$$$$
