AV-unprocessed.smi:337|AV-procd|sdf|2372|dock8
  -GOLD-   2262022293D 1   1.00000     0.00000
 Structure written by MMmdl.
 43 44  0  0  0  0  0  0  0  0  1 V2000
  146.2730  132.5408  150.7539 C   0  0  0  0  0  0  0  0  0  0  0  0
  146.1427  133.4546  151.9840 C   0  0  2  0  0  0  0  0  0  0  0  0
  146.4574  134.8212  151.5702 N   0  0  0  0  0  0  0  0  0  0  0  0
  145.5915  135.6710  150.9988 C   0  0  0  0  0  0  0  0  0  0  0  0
  146.1382  136.8611  150.7494 N   0  0  0  0  0  0  0  0  0  0  0  0
  144.4226  135.4001  150.7307 O   0  0  0  0  0  0  0  0  0  0  0  0
  147.1396  132.9652  153.0464 C   0  0  0  0  0  0  0  0  0  0  0  0
  147.0122  131.8541  153.5637 O   0  0  0  0  0  0  0  0  0  0  0  0
  148.1173  133.8218  153.3787 N   0  0  0  0  0  0  0  0  0  0  0  0
  149.1493  133.5633  154.3775 C   0  0  0  0  0  0  0  0  0  0  0  0
  148.6991  133.7816  155.8153 C   0  0  0  0  0  0  0  0  0  0  0  0
  147.3745  134.1428  156.1396 C   0  0  0  0  0  0  0  0  0  0  0  0
  147.0285  134.3305  157.4911 C   0  0  0  0  0  0  0  0  0  0  0  0
  148.0182  134.1594  158.4885 C   0  0  0  0  0  0  0  0  0  0  0  0
  147.6938  134.3415  159.8507 N   0  0  0  0  0  0  0  0  0  0  0  0
  148.2387  135.5431  160.4777 C   0  0  0  0  0  0  0  0  0  0  0  0
  147.5706  135.7858  161.8422 C   0  0  0  0  0  0  0  0  0  0  0  0
  147.7032  134.6270  162.6583 O   0  0  0  0  0  0  0  0  0  0  0  0
  147.0650  133.4950  162.0773 C   0  0  0  0  0  0  0  0  0  0  0  0
  147.7192  133.1697  160.7242 C   0  0  0  0  0  0  0  0  0  0  0  0
  149.2905  133.8137  158.1712 N   0  0  0  0  0  0  0  0  0  0  0  0
  149.6169  133.6348  156.8742 C   0  0  0  0  0  0  0  0  0  0  0  0
  146.0456  131.5036  151.0044 H   0  0  0  0  0  0  0  0  0  0  0  0
  147.2789  132.5676  150.3318 H   0  0  0  0  0  0  0  0  0  0  0  0
  145.5789  132.8434  149.9693 H   0  0  0  0  0  0  0  0  0  0  0  0
  145.1225  133.4070  152.3707 H   0  0  0  0  0  0  0  0  0  0  0  0
  147.3947  135.1465  151.7550 H   0  0  0  0  0  0  0  0  0  0  0  0
  145.5925  137.5915  150.3164 H   0  0  0  0  0  0  0  0  0  0  0  0
  147.1041  137.0253  150.9937 H   0  0  0  0  0  0  0  0  0  0  0  0
  148.1498  134.7135  152.9062 H   0  0  0  0  0  0  0  0  0  0  0  0
  149.5260  132.5459  154.2575 H   0  0  0  0  0  0  0  0  0  0  0  0
  149.9896  134.2284  154.1784 H   0  0  0  0  0  0  0  0  0  0  0  0
  146.6274  134.2721  155.3704 H   0  0  0  0  0  0  0  0  0  0  0  0
  146.0111  134.5871  157.7451 H   0  0  0  0  0  0  0  0  0  0  0  0
  149.3142  135.4151  160.6072 H   0  0  0  0  0  0  0  0  0  0  0  0
  148.0977  136.4247  159.8543 H   0  0  0  0  0  0  0  0  0  0  0  0
  148.0433  136.6293  162.3457 H   0  0  0  0  0  0  0  0  0  0  0  0
  146.5163  136.0387  161.7193 H   0  0  0  0  0  0  0  0  0  0  0  0
  147.1617  132.6465  162.7543 H   0  0  0  0  0  0  0  0  0  0  0  0
  145.9974  133.6865  161.9575 H   0  0  0  0  0  0  0  0  0  0  0  0
  147.1890  132.3383  160.2583 H   0  0  0  0  0  0  0  0  0  0  0  0
  148.7527  132.8549  160.8757 H   0  0  0  0  0  0  0  0  0  0  0  0
  150.6438  133.3632  156.6780 H   0  0  0  0  0  0  0  0  0  0  0  0
  1  2  1  0  0  0  0
  1 23  1  0  0  0  0
  1 24  1  0  0  0  0
  1 25  1  0  0  0  0
  2  3  1  0  0  0  0
  2  7  1  0  0  0  0
  2 26  1  0  0  0  0
  3  4  1  0  0  0  0
  3 27  1  0  0  0  0
  4  5  1  0  0  0  0
  4  6  2  0  0  0  0
  5 28  1  0  0  0  0
  5 29  1  0  0  0  0
  7  8  2  0  0  0  0
  7  9  1  0  0  0  0
  9 10  1  0  0  0  0
  9 30  1  0  0  0  0
 10 11  1  0  0  0  0
 10 31  1  0  0  0  0
 10 32  1  0  0  0  0
 11 22  1  0  0  0  0
 11 12  2  0  0  0  0
 12 13  1  0  0  0  0
 12 33  1  0  0  0  0
 13 14  2  0  0  0  0
 13 34  1  0  0  0  0
 14 15  1  0  0  0  0
 14 21  1  0  0  0  0
 15 20  1  0  0  0  0
 15 16  1  0  0  0  0
 16 17  1  0  0  0  0
 16 35  1  0  0  0  0
 16 36  1  0  0  0  0
 17 18  1  0  0  0  0
 17 37  1  0  0  0  0
 17 38  1  0  0  0  0
 18 19  1  0  0  0  0
 19 20  1  0  0  0  0
 19 39  1  0  0  0  0
 19 40  1  0  0  0  0
 20 41  1  0  0  0  0
 20 42  1  0  0  0  0
 21 22  2  0  0  0  0
 22 43  1  0  0  0  0
M  END
> <s_m_source_file>
AV-unprocessed.smi

> <i_m_source_file_index>
337

> <i_lp_mmshare_version>
43012

> <i_f3d_flags>
0

> <s_epik_input>
W05IMl1DKD1PKVtOSF1bQ0BASF0oW0NIM10pQyg9TylbTkhdW0NIMl1jMVtjSF1bY0hdYyhuW2NIXTEpTjJbQ0gyXVtDSDJdT1tDSDJdW0NIMl0y

> <s_epik_cmdline>
J2VwaWtfcHl0aG9uJywgJy1waCcsICc3LjAnLCAnLXRuJywgJzgnLCAnLW1hJywgJzIwMCcsICctbWV0YWxfYmluZGluZycsICctaW1hZScsICc8aW5maWxlLm1hZT4nLCAnLW9tYWUnLCAnPG91dGZpbGUubWFlPic=

> <r_lp_tautomer_probability>
1

> <r_epik_Ionization_Penalty>
0.0048357

> <r_epik_Ionization_Penalty_Charging>
0

> <r_epik_Ionization_Penalty_Neutral>
0.0048357

> <r_epik_State_Penalty>
0.0034696

> <r_epik_Charging_Adjusted_Penalty>
0.0034696

> <i_epik_Tot_Q>
0

> <i_epik_Tot_abs_Q>
0

> <r_epik_Metal_State_Penalty>
-0

> <b_epik_Metal_Only>
0

> <s_lp_Force_Field>
OPLS_2005

> <r_lp_Energy>
8.56102

> <b_lp_Chiralities_Consistent>
1

> <s_lp_Variant>
AV-unprocessed.smi:337-1

> <Gold.Version>
5.8.1

> <Gold.Id.Protein>
6NUR|6NUR_protein|mol2

> <Gold.PLP.Fitness>
45.5029

> <Gold.PLP.PLP>
-32.5934

> <Gold.PLP.part.hbond>
-5.0000

> <Gold.PLP.part.metal>
0.0000

> <Gold.PLP.part.buried>
-6.7318

> <Gold.PLP.part.nonpolar>
-22.3134

> <Gold.PLP.part.repulsive>
0.5242

> <Gold.PLP.ligand.clash>
0.0000

> <Gold.PLP.ligand.torsion>
0.6717

> <Gold.PLP.Chemscore.Hbond>
4.6292

> <Gold.PLP.Chemscore.CHOScore>
0.0000

> <Gold.PLP.Chemscore.Metal>
0.0000

> <Gold.Chemscore.Hbonds>
donor molecule, donor type, donor heavy atom, donor atom, acceptor molecule, acceptor atom, score
      L1  H     3    27       P1  7948  1.00
      L1  H     5    28       P1 10171  0.98
      L1  H     5    29       P1  7948  0.69
      L1  H     9    30       P1  7948  1.00
      P1  H  6896  6909       L1    21  1.00

> <Gold.PLP.Chemscore.Internal.Correction>
0.3653

> <Gold.Rescore>
     Score         DG    S(hbond)    S(metal)    S(lipo)     H(rot)  DE(clash)    DE(int)     intcor
     19.17     -19.85       4.34        0.00      57.07       2.66       0.05       0.63       ----

> <Gold.Chemscore.Fitness>
19.1717

> <Gold.Chemscore.DG>
-19.8521

> <Gold.Chemscore.ZeroCoef>
-5.4800

> <Gold.Chemscore.Hbond>
4.3405

> <Gold.Chemscore.Metal>
0.0000

> <Gold.Chemscore.Lipo>
57.0733

> <Gold.Chemscore.Internal_Hbond>
0.0000

> <Gold.Chemscore.DEClash>
0.0524

> <Gold.Chemscore.DEInternal>
0.6279

> <Gold.Chemscore.Rot>
2.6573

> <Gold.Chemscore.Internal.Correction>
   9.000000E+99

> <Gold.Chemscore.Hbonds>
donor molecule, donor type, donor heavy atom, donor atom, acceptor molecule, acceptor atom, score
      L1  H     3    27       P1  7948  0.90
      L1  H     5    28       P1 10171  0.90
      L1  H     5    29       P1  7948  0.65
      L1  H     9    30       P1  7948  0.67
      P1  H  6896  6909       L1    21  0.93

> <Gold.Chemscore.Hbond.Weighted>
-14.4972

> <Gold.Chemscore.Metal.Weighted>
-0.0000

> <Gold.Chemscore.Lipo.Weighted>
-6.6776

> <Gold.Chemscore.Internal_Hbond.Weighted>
0.0000

> <Gold.Chemscore.DEClash.Weighted>
0.0524

> <Gold.Chemscore.DEInternal.Weighted>
0.6279

> <Gold.Chemscore.Rot.Weighted>
6.8027

> <Gold.Chemscore.Internal.Correction.Weighted>
   9.000000E+99

> <Gold.Protein.RotatedTorsions>
[ 6907 6896 6895 6894 ] final   24.05 input  -60.11 | X-H torsion
[ 7974 7965 7964 7962 ] final -147.57 input  175.53 | X-H torsion
[ 8008 7997 7996 7995 ] final   -4.70 input   59.86 | X-H torsion
[ 10167 10162 10161 10158 ] final    3.29 input  -65.29 | X-H torsion
[ 10718 10713 10712 10709 ] final  132.04 input   66.30 | X-H torsion
[ 10763 10752 10751 10750 ] final  142.87 input  -60.55 | X-H torsion
[ 11005 11000 10999 10996 ] final   13.02 input  -57.11 | X-H torsion

> <Gold.Protein.ActiveResidues>
 VAL166  LYS551  ARG553  GLY616  TRP617  ASP618  TYR619  PRO620  LYS621  CYS622 
 ASP623  PHE694  ASN695  SER759  ASP760  ASP761  ALA762  ILE779  LEU786  VAL792 
 PHE793  MET794  SER795  GLU796  ALA797  LYS798  CYS799  TRP800  GLU811  SER814 

> <Gold.Protein.RotatedAtoms>
  151.9516  135.0166  160.0542 H   0  0  0  0  0  0  0  0  0  0  0  0  # atno 6907 bound_to 6896
  152.1948  133.4794  159.5035 H   0  0  0  0  0  0  0  0  0  0  0  0  # atno 6908 bound_to 6896
  150.6942  134.1584  159.4209 H   0  0  0  0  0  0  0  0  0  0  0  0  # atno 6909 bound_to 6896
  144.8085  140.5310  143.5658 H   0  0  0  0  0  0  0  0  0  0  0  0  # atno 7974 bound_to 7965
  154.6116  140.2477  155.7662 H   0  0  0  0  0  0  0  0  0  0  0  0  # atno 8008 bound_to 7997
  156.2374  140.2945  156.0300 H   0  0  0  0  0  0  0  0  0  0  0  0  # atno 8009 bound_to 7997
  155.2043  140.0395  157.2913 H   0  0  0  0  0  0  0  0  0  0  0  0  # atno 8010 bound_to 7997
  140.6593  143.7346  150.7709 H   0  0  0  0  0  0  0  0  0  0  0  0  # atno 10167 bound_to 10162
  157.4910  131.1090  150.9557 H   0  0  0  0  0  0  0  0  0  0  0  0  # atno 10718 bound_to 10713
  153.9629  135.2958  155.3432 H   0  0  0  0  0  0  0  0  0  0  0  0  # atno 10763 bound_to 10752
  154.7365  135.5044  153.9053 H   0  0  0  0  0  0  0  0  0  0  0  0  # atno 10764 bound_to 10752
  153.0938  135.6715  153.9914 H   0  0  0  0  0  0  0  0  0  0  0  0  # atno 10765 bound_to 10752
  140.4855  134.0893  155.7760 H   0  0  0  0  0  0  0  0  0  0  0  0  # atno 11005 bound_to 11000
  145.5380  139.1475  143.3463 LP  0  0  0  0  0  0  0  0  0  0  0  0  # atno 17320 bound_to 7965
  146.2380  140.5520  142.8946 LP  0  0  0  0  0  0  0  0  0  0  0  0  # atno 17321 bound_to 7965
  140.1011  143.4787  152.2424 LP  0  0  0  0  0  0  0  0  0  0  0  0  # atno 17342 bound_to 10162
  139.5823  144.7516  151.3609 LP  0  0  0  0  0  0  0  0  0  0  0  0  # atno 17343 bound_to 10162
  157.0259  130.5692  149.5337 LP  0  0  0  0  0  0  0  0  0  0  0  0  # atno 17370 bound_to 10713
  156.0173  130.5267  150.8173 LP  0  0  0  0  0  0  0  0  0  0  0  0  # atno 17371 bound_to 10713
  141.1510  133.8969  157.2097 LP  0  0  0  0  0  0  0  0  0  0  0  0  # atno 17394 bound_to 11000
  139.9801  135.0101  156.9727 LP  0  0  0  0  0  0  0  0  0  0  0  0  # atno 17395 bound_to 11000

$$$$
