AV-unprocessed.smi:1224|AV-procd|sdf|5130|dock5
  -GOLD-   22720 4193D 1   1.00000     0.00000
 Structure written by MMmdl.
 45 47  0  0  0  0  0  0  0  0  3 V2000
  145.7857  129.9631  151.6569 C   0  0  0  0  0  0  0  0  0  0  0  0
  145.6828  131.4690  151.8304 C   0  0  0  0  0  0  0  0  0  0  0  0
  144.6165  132.1486  151.1991 C   0  0  0  0  0  0  0  0  0  0  0  0
  144.5489  133.5254  151.3758 C   0  0  0  0  0  0  0  0  0  0  0  0
  143.6383  134.4668  150.8913 N   0  3  0  0  0  0  0  0  0  0  0  0
  143.9867  135.7065  151.3344 C   0  0  0  0  0  0  0  0  0  0  0  0
  145.1038  135.5690  152.1001 N   0  0  0  0  0  0  0  0  0  0  0  0
  145.8900  136.5852  152.8129 C   0  0  0  0  0  0  0  0  0  0  0  0
  145.9414  137.9389  152.0760 C   0  0  2  0  0  0  0  0  0  0  0  0
  146.5464  137.7582  150.8099 O   0  0  0  0  0  0  0  0  0  0  0  0
  146.7493  138.9842  152.8623 C   0  0  0  0  0  0  0  0  0  0  0  0
  148.1499  138.5501  153.0557 N   0  3  0  0  0  0  0  0  0  0  0  0
  148.5629  138.3853  154.4649 C   0  0  0  0  0  0  0  0  0  0  0  0
  150.0223  138.6370  154.6654 C   0  0  0  0  0  0  0  0  0  0  0  0
  151.0746  137.8628  154.2451 C   0  0  0  0  0  0  0  0  0  0  0  0
  152.3455  138.4063  154.5949 C   0  0  0  0  0  0  0  0  0  0  0  0
  152.2468  139.5886  155.2786 C   0  0  0  0  0  0  0  0  0  0  0  0
  150.5849  140.0592  155.5074 S   0  0  0  0  0  0  0  0  0  0  0  0
  145.4941  134.2266  152.1493 C   0  0  0  0  0  0  0  0  0  0  0  0
  146.5517  133.5733  152.7772 C   0  0  0  0  0  0  0  0  0  0  0  0
  146.6388  132.1727  152.6083 C   0  0  0  0  0  0  0  0  0  0  0  0
  147.7831  131.4315  153.2788 C   0  0  0  0  0  0  0  0  0  0  0  0
  144.9571  129.5722  151.0655 H   0  0  0  0  0  0  0  0  0  0  0  0
  145.7674  129.4627  152.6252 H   0  0  0  0  0  0  0  0  0  0  0  0
  146.7127  129.6995  151.1475 H   0  0  0  0  0  0  0  0  0  0  0  0
  143.8864  131.6198  150.6036 H   0  0  0  0  0  0  0  0  0  0  0  0
  143.4691  136.6304  151.1189 H   0  0  0  0  0  0  0  0  0  0  0  0
  145.4774  136.7004  153.8161 H   0  0  0  0  0  0  0  0  0  0  0  0
  146.8975  136.1850  152.9377 H   0  0  0  0  0  0  0  0  0  0  0  0
  144.9254  138.3037  151.9199 H   0  0  0  0  0  0  0  0  0  0  0  0
  145.9170  137.9832  150.1413 H   0  0  0  0  0  0  0  0  0  0  0  0
  146.7548  139.9308  152.3201 H   0  0  0  0  0  0  0  0  0  0  0  0
  146.2748  139.1725  153.8262 H   0  0  0  0  0  0  0  0  0  0  0  0
  148.2793  137.6684  152.5796 H   0  0  0  0  0  0  0  0  0  0  0  0
  147.9879  139.0854  155.0715 H   0  0  0  0  0  0  0  0  0  0  0  0
  148.2959  137.3856  154.8096 H   0  0  0  0  0  0  0  0  0  0  0  0
  150.9782  136.9347  153.7008 H   0  0  0  0  0  0  0  0  0  0  0  0
  153.2738  137.9183  154.3364 H   0  0  0  0  0  0  0  0  0  0  0  0
  153.0448  140.2086  155.6603 H   0  0  0  0  0  0  0  0  0  0  0  0
  147.2799  134.1090  153.3680 H   0  0  0  0  0  0  0  0  0  0  0  0
  148.4420  132.1149  153.8153 H   0  0  0  0  0  0  0  0  0  0  0  0
  148.3839  130.9034  152.5380 H   0  0  0  0  0  0  0  0  0  0  0  0
  147.4003  130.7055  153.9965 H   0  0  0  0  0  0  0  0  0  0  0  0
  148.7538  139.2370  152.6278 H   0  0  0  0  0  0  0  0  0  0  0  0
  142.8390  134.2803  150.2987 H   0  0  0  0  0  0  0  0  0  0  0  0
  1  2  1  0  0  0  0
  1 23  1  0  0  0  0
  1 24  1  0  0  0  0
  1 25  1  0  0  0  0
  2 21  1  0  0  0  0
  2  3  2  0  0  0  0
  3  4  1  0  0  0  0
  3 26  1  0  0  0  0
  4 19  2  0  0  0  0
  4  5  1  0  0  0  0
  5  6  2  0  0  0  0
  5 45  1  0  0  0  0
  6  7  1  0  0  0  0
  6 27  1  0  0  0  0
  7  8  1  0  0  0  0
  7 19  1  0  0  0  0
  8  9  1  0  0  0  0
  8 28  1  0  0  0  0
  8 29  1  0  0  0  0
  9 10  1  0  0  0  0
  9 11  1  0  0  0  0
  9 30  1  0  0  0  0
 10 31  1  0  0  0  0
 11 12  1  0  0  0  0
 11 32  1  0  0  0  0
 11 33  1  0  0  0  0
 12 13  1  0  0  0  0
 12 34  1  0  0  0  0
 12 44  1  0  0  0  0
 13 14  1  0  0  0  0
 13 35  1  0  0  0  0
 13 36  1  0  0  0  0
 14 18  1  0  0  0  0
 14 15  2  0  0  0  0
 15 16  1  0  0  0  0
 15 37  1  0  0  0  0
 16 17  2  0  0  0  0
 16 38  1  0  0  0  0
 17 18  1  0  0  0  0
 17 39  1  0  0  0  0
 19 20  1  0  0  0  0
 20 21  2  0  0  0  0
 20 40  1  0  0  0  0
 21 22  1  0  0  0  0
 22 41  1  0  0  0  0
 22 42  1  0  0  0  0
 22 43  1  0  0  0  0
M  CHG  1   5   1
M  CHG  1  12   1
M  END
> <s_m_source_file>
AV-unprocessed.smi

> <i_m_source_file_index>
1224

> <i_lp_mmshare_version>
43012

> <i_f3d_flags>
0

> <s_epik_input>
W0NIM11jKFtjSF0xKWMoW0NIM10pW2NIXWMoYzEyKW4oW2NIXW4yKVtDSDJdW0NASF0oW09IXSlbQ0gyXVtOSF1bQ0gyXWMzW2NIXVtjSF1bY0hdczM=

> <s_epik_cmdline>
J2VwaWtfcHl0aG9uJywgJy1waCcsICc3LjAnLCAnLXRuJywgJzgnLCAnLW1hJywgJzIwMCcsICctbWV0YWxfYmluZGluZycsICctaW1hZScsICc8aW5maWxlLm1hZT4nLCAnLW9tYWUnLCAnPG91dGZpbGUubWFlPic=

> <r_epik_Ionization_Penalty>
1.2222

> <r_epik_Ionization_Penalty_Charging>
1.2222

> <r_epik_Ionization_Penalty_Neutral>
3.40394e-06

> <r_epik_State_Penalty>
1.23781

> <r_epik_Charging_Adjusted_Penalty>
2.46001

> <i_epik_Tot_Q>
2

> <i_epik_Tot_abs_Q>
2

> <r_epik_Metal_State_Penalty>
5.24642

> <b_epik_Metal_Only>
0

> <s_lp_Force_Field>
OPLS_2005

> <r_lp_Energy>
16.8702

> <b_lp_Chiralities_Consistent>
1

> <s_lp_Variant>
AV-unprocessed.smi:1224-3

> <Gold.Version>
5.8.1

> <Gold.Id.Protein>
6NUR|6NUR_protein|mol2

> <Gold.PLP.Fitness>
68.6019

> <Gold.PLP.PLP>
-47.2120

> <Gold.PLP.part.hbond>
-6.0000

> <Gold.PLP.part.metal>
0.0000

> <Gold.PLP.part.buried>
-3.4958

> <Gold.PLP.part.nonpolar>
-38.2126

> <Gold.PLP.part.repulsive>
0.0556

> <Gold.PLP.ligand.clash>
0.0000

> <Gold.PLP.ligand.torsion>
1.0098

> <Gold.PLP.Chemscore.Hbond>
6.7691

> <Gold.PLP.Chemscore.CHOScore>
1.0000

> <Gold.PLP.Chemscore.Metal>
0.0000

> <Gold.Chemscore.Hbonds>
donor molecule, donor type, donor heavy atom, donor atom, acceptor molecule, acceptor atom, score
      L1  H     5    45       P1 10186  2.00
      L1  H    10    31       P1 10171  0.66
      L1  H    12    34       P1  7948  2.00
      L1  H    12    44       P1  7957  1.00
      P1  H  7954  7966       L1    10  1.00
      L1  C     6    27       P1 10171  1.00

> <Gold.PLP.Chemscore.Internal.Correction>
0.1022

> <Gold.Rescore>
     Score         DG    S(hbond)    S(metal)    S(lipo)     H(rot)  DE(clash)    DE(int)     intcor
     25.18     -26.36       4.23        0.00     112.37       2.50       0.22       0.96       ----

> <Gold.Chemscore.Fitness>
25.1788

> <Gold.Chemscore.DG>
-26.3586

> <Gold.Chemscore.ZeroCoef>
-5.4800

> <Gold.Chemscore.Hbond>
4.2343

> <Gold.Chemscore.Metal>
0.0000

> <Gold.Chemscore.Lipo>
112.3670

> <Gold.Chemscore.Internal_Hbond>
0.0000

> <Gold.Chemscore.DEClash>
0.2216

> <Gold.Chemscore.DEInternal>
0.9582

> <Gold.Chemscore.Rot>
2.5042

> <Gold.Chemscore.Internal.Correction>
   9.000000E+99

> <Gold.Chemscore.Hbonds>
donor molecule, donor type, donor heavy atom, donor atom, acceptor molecule, acceptor atom, score
      L1  H     5    45       P1 10186  0.83
      L1  H    10    31       P1 10171  0.64
      L1  H    12    34       P1  7948  1.00
      L1  H    12    44       P1  7957  0.96
      P1  H  7954  7966       L1    10  0.34

> <Gold.Chemscore.Hbond.Weighted>
-14.1425

> <Gold.Chemscore.Metal.Weighted>
-0.0000

> <Gold.Chemscore.Lipo.Weighted>
-13.1469

> <Gold.Chemscore.Internal_Hbond.Weighted>
0.0000

> <Gold.Chemscore.DEClash.Weighted>
0.2216

> <Gold.Chemscore.DEInternal.Weighted>
0.9582

> <Gold.Chemscore.Rot.Weighted>
6.4108

> <Gold.Chemscore.Internal.Correction.Weighted>
   9.000000E+99

> <Gold.Protein.RotatedTorsions>
[ 6907 6896 6895 6894 ] final   31.98 input  -60.11 | X-H torsion
[ 7974 7965 7964 7962 ] final  -50.76 input  175.53 | X-H torsion
[ 8008 7997 7996 7995 ] final   93.00 input   59.86 | X-H torsion
[ 10167 10162 10161 10158 ] final  -39.11 input  -65.29 | X-H torsion
[ 10718 10713 10712 10709 ] final  -28.65 input   66.30 | X-H torsion
[ 10763 10752 10751 10750 ] final   46.26 input  -60.55 | X-H torsion
[ 11005 11000 10999 10996 ] final    5.20 input  -57.11 | X-H torsion

> <Gold.Protein.ActiveResidues>
 VAL166  LYS551  ARG553  GLY616  TRP617  ASP618  TYR619  PRO620  LYS621  CYS622 
 ASP623  PHE694  ASN695  SER759  ASP760  ASP761  ALA762  ILE779  LEU786  VAL792 
 PHE793  MET794  SER795  GLU796  ALA797  LYS798  CYS799  TRP800  GLU811  SER814 

> <Gold.Protein.RotatedAtoms>
  152.0680  134.9552  160.0574 H   0  0  0  0  0  0  0  0  0  0  0  0  # atno 6907 bound_to 6896
  152.0889  133.4185  159.4543 H   0  0  0  0  0  0  0  0  0  0  0  0  # atno 6908 bound_to 6896
  150.6836  134.2814  159.4672 H   0  0  0  0  0  0  0  0  0  0  0  0  # atno 6909 bound_to 6896
  145.9263  140.7789  142.9622 H   0  0  0  0  0  0  0  0  0  0  0  0  # atno 7974 bound_to 7965
  156.0418  140.3318  155.7252 H   0  0  0  0  0  0  0  0  0  0  0  0  # atno 8008 bound_to 7997
  155.5732  140.0630  157.2819 H   0  0  0  0  0  0  0  0  0  0  0  0  # atno 8009 bound_to 7997
  154.4396  140.1857  156.0889 H   0  0  0  0  0  0  0  0  0  0  0  0  # atno 8010 bound_to 7997
  140.7073  143.3235  151.2736 H   0  0  0  0  0  0  0  0  0  0  0  0  # atno 10167 bound_to 10162
  156.4225  130.4429  149.7174 H   0  0  0  0  0  0  0  0  0  0  0  0  # atno 10718 bound_to 10713
  152.9813  135.6014  154.3570 H   0  0  0  0  0  0  0  0  0  0  0  0  # atno 10763 bound_to 10752
  154.3255  135.2769  155.2500 H   0  0  0  0  0  0  0  0  0  0  0  0  # atno 10764 bound_to 10752
  154.4647  135.5957  153.6336 H   0  0  0  0  0  0  0  0  0  0  0  0  # atno 10765 bound_to 10752
  140.5734  134.0081  155.8018 H   0  0  0  0  0  0  0  0  0  0  0  0  # atno 11005 bound_to 11000
  144.6759  140.2056  143.7382 LP  0  0  0  0  0  0  0  0  0  0  0  0  # atno 17320 bound_to 7965
  145.8484  139.2163  143.1786 LP  0  0  0  0  0  0  0  0  0  0  0  0  # atno 17321 bound_to 7965
  139.6696  144.0044  152.2744 LP  0  0  0  0  0  0  0  0  0  0  0  0  # atno 17342 bound_to 10162
  139.9638  144.6540  150.8054 LP  0  0  0  0  0  0  0  0  0  0  0  0  # atno 17343 bound_to 10162
  156.4109  130.7721  151.2734 LP  0  0  0  0  0  0  0  0  0  0  0  0  # atno 17370 bound_to 10713
  157.7508  131.0212  150.3738 LP  0  0  0  0  0  0  0  0  0  0  0  0  # atno 17371 bound_to 10713
  141.1042  133.9720  157.3026 LP  0  0  0  0  0  0  0  0  0  0  0  0  # atno 17394 bound_to 11000
  139.9351  135.0197  156.8529 LP  0  0  0  0  0  0  0  0  0  0  0  0  # atno 17395 bound_to 11000

$$$$
