AV-unprocessed.smi:470|AV-procd|sdf|2656|dock7
  -GOLD-   2262023 63D 1   1.00000     0.00000
 Structure written by MMmdl.
 32 33  0  0  0  0  0  0  0  0  2 V2000
  149.6639  138.7880  153.1428 N   0  0  0  0  0  0  0  0  0  0  0  0
  150.4813  138.7839  154.2002 C   0  0  0  0  0  0  0  0  0  0  0  0
  150.9794  139.8147  154.6486 O   0  0  0  0  0  0  0  0  0  0  0  0
  150.7950  137.4287  154.8399 C   0  0  0  0  0  0  0  0  0  0  0  0
  150.4243  137.4350  156.2945 C   0  0  0  0  0  0  0  0  0  0  0  0
  150.7526  138.3851  157.2266 C   0  0  0  0  0  0  0  0  0  0  0  0
  150.1013  138.0006  158.7938 S   0  0  0  0  0  0  0  0  0  0  0  0
  149.3719  136.5411  158.1219 C   0  0  0  0  0  0  0  0  0  0  0  0
  148.6415  135.6521  158.8168 N   0  5  0  0  0  0  0  0  0  0  0  0
  147.9034  135.9518  159.9237 C   0  0  0  0  0  0  0  0  0  0  0  0
  147.6328  137.0948  160.2866 O   0  0  0  0  0  0  0  0  0  0  0  0
  147.3723  134.7544  160.7687 C   0  0  2  0  0  0  0  0  0  0  0  0
  146.3348  133.9083  159.9888 C   0  0  0  0  0  0  0  0  0  0  0  0
  144.9230  134.4615  160.0663 C   0  0  0  0  0  0  0  0  0  0  0  0
  144.5198  135.3443  160.9945 C   0  0  0  0  0  0  0  0  0  0  0  0
  145.4277  135.9038  162.0735 C   0  0  0  0  0  0  0  0  0  0  0  0
  146.7925  135.1823  162.1411 C   0  0  0  0  0  0  0  0  0  0  0  0
  149.6654  136.3884  156.8256 N   0  0  0  0  0  0  0  0  0  0  0  0
  149.4130  139.6616  152.7037 H   0  0  0  0  0  0  0  0  0  0  0  0
  149.2828  137.9170  152.8006 H   0  0  0  0  0  0  0  0  0  0  0  0
  150.2553  136.6474  154.3028 H   0  0  0  0  0  0  0  0  0  0  0  0
  151.8562  137.2087  154.7180 H   0  0  0  0  0  0  0  0  0  0  0  0
  151.3317  139.2853  157.0867 H   0  0  0  0  0  0  0  0  0  0  0  0
  148.2036  134.0986  161.0233 H   0  0  0  0  0  0  0  0  0  0  0  0
  146.6096  133.8346  158.9370 H   0  0  0  0  0  0  0  0  0  0  0  0
  146.3203  132.8879  160.3724 H   0  0  0  0  0  0  0  0  0  0  0  0
  144.2171  134.0926  159.3369 H   0  0  0  0  0  0  0  0  0  0  0  0
  143.4997  135.6987  160.9880 H   0  0  0  0  0  0  0  0  0  0  0  0
  145.5624  136.9685  161.8837 H   0  0  0  0  0  0  0  0  0  0  0  0
  144.9241  135.8274  163.0373 H   0  0  0  0  0  0  0  0  0  0  0  0
  146.6716  134.2827  162.7460 H   0  0  0  0  0  0  0  0  0  0  0  0
  147.5097  135.8017  162.6813 H   0  0  0  0  0  0  0  0  0  0  0  0
  1  2  1  0  0  0  0
  1 19  1  0  0  0  0
  1 20  1  0  0  0  0
  2  3  2  0  0  0  0
  2  4  1  0  0  0  0
  4  5  1  0  0  0  0
  4 21  1  0  0  0  0
  4 22  1  0  0  0  0
  5 18  1  0  0  0  0
  5  6  2  0  0  0  0
  6  7  1  0  0  0  0
  6 23  1  0  0  0  0
  7  8  1  0  0  0  0
  8  9  1  0  0  0  0
  8 18  2  0  0  0  0
  9 10  1  0  0  0  0
 10 11  2  0  0  0  0
 10 12  1  0  0  0  0
 12 17  1  0  0  0  0
 12 13  1  0  0  0  0
 12 24  1  0  0  0  0
 13 14  1  0  0  0  0
 13 25  1  0  0  0  0
 13 26  1  0  0  0  0
 14 15  2  0  0  0  0
 14 27  1  0  0  0  0
 15 16  1  0  0  0  0
 15 28  1  0  0  0  0
 16 17  1  0  0  0  0
 16 29  1  0  0  0  0
 16 30  1  0  0  0  0
 17 31  1  0  0  0  0
 17 32  1  0  0  0  0
M  CHG  1   9  -1
M  END
> <s_m_source_file>
AV-unprocessed.smi

> <i_m_source_file_index>
470

> <i_lp_mmshare_version>
43012

> <i_f3d_flags>
0

> <s_epik_input>
W05IMl1DKD1PKVtDSDJdYzFbY0hdc2MobjEpW05IXUMoPU8pW0NAQEhdMltDSDJdW0NIXT1bQ0hdW0NIMl1bQ0gyXTI=

> <s_epik_cmdline>
J2VwaWtfcHl0aG9uJywgJy1waCcsICc3LjAnLCAnLXRuJywgJzgnLCAnLW1hJywgJzIwMCcsICctbWV0YWxfYmluZGluZycsICctaW1hZScsICc8aW5maWxlLm1hZT4nLCAnLW9tYWUnLCAnPG91dGZpbGUubWFlPic=

> <r_lp_tautomer_probability>
1

> <r_epik_Ionization_Penalty>
4.98985

> <r_epik_Ionization_Penalty_Charging>
4.63309

> <r_epik_Ionization_Penalty_Neutral>
0.356756

> <r_epik_State_Penalty>
4.63286

> <r_epik_Charging_Adjusted_Penalty>
9.26595

> <i_epik_Tot_Q>
-1

> <i_epik_Tot_abs_Q>
1

> <r_epik_Metal_State_Penalty>
0.88943

> <b_epik_Metal_Only>
1

> <s_lp_Force_Field>
OPLS_2005

> <r_lp_Energy>
8.68427

> <b_lp_Chiralities_Consistent>
1

> <s_lp_Variant>
AV-unprocessed.smi:470-3

> <Gold.Version>
5.8.1

> <Gold.Id.Protein>
6NUR|6NUR_protein|mol2

> <Gold.PLP.Fitness>
45.9187

> <Gold.PLP.PLP>
-27.8185

> <Gold.PLP.part.hbond>
-6.2192

> <Gold.PLP.part.metal>
0.0000

> <Gold.PLP.part.buried>
-4.4387

> <Gold.PLP.part.nonpolar>
-16.7753

> <Gold.PLP.part.repulsive>
0.1909

> <Gold.PLP.ligand.clash>
0.0000

> <Gold.PLP.ligand.torsion>
0.4724

> <Gold.PLP.Chemscore.Hbond>
6.3294

> <Gold.PLP.Chemscore.CHOScore>
0.0000

> <Gold.PLP.Chemscore.Metal>
0.0000

> <Gold.Chemscore.Hbonds>
donor molecule, donor type, donor heavy atom, donor atom, acceptor molecule, acceptor atom, score
      L1  H     1    19       P1  7957  0.51
      L1  H     1    20       P1  7948  1.00
      P1  H  6931  6943       L1    11  0.01
      P1  H  6934  6947       L1    11  0.83
      P1  H  7989  7998       L1     3  1.00

> <Gold.PLP.Chemscore.Internal.Correction>
0.0567

> <Gold.Rescore>
     Score         DG    S(hbond)    S(metal)    S(lipo)     H(rot)  DE(clash)    DE(int)     intcor
     19.34     -21.88       4.50        0.00      52.59       1.87       0.01       2.53       ----

> <Gold.Chemscore.Fitness>
19.3423

> <Gold.Chemscore.DG>
-21.8829

> <Gold.Chemscore.ZeroCoef>
-5.4800

> <Gold.Chemscore.Hbond>
4.5014

> <Gold.Chemscore.Metal>
0.0000

> <Gold.Chemscore.Lipo>
52.5862

> <Gold.Chemscore.Internal_Hbond>
0.0000

> <Gold.Chemscore.DEClash>
0.0126

> <Gold.Chemscore.DEInternal>
2.5279

> <Gold.Chemscore.Rot>
1.8689

> <Gold.Chemscore.Internal.Correction>
   9.000000E+99

> <Gold.Chemscore.Hbonds>
donor molecule, donor type, donor heavy atom, donor atom, acceptor molecule, acceptor atom, score
      L1  H     1    19       P1  7957  0.51
      L1  H     1    20       P1  7948  0.94
      P1  H  6931  6943       L1    11  0.05
      P1  H  6934  6947       L1    11  0.79
      P1  H  7989  7998       L1     3  0.91

> <Gold.Chemscore.Hbond.Weighted>
-15.0347

> <Gold.Chemscore.Metal.Weighted>
-0.0000

> <Gold.Chemscore.Lipo.Weighted>
-6.1526

> <Gold.Chemscore.Internal_Hbond.Weighted>
0.0000

> <Gold.Chemscore.DEClash.Weighted>
0.0126

> <Gold.Chemscore.DEInternal.Weighted>
2.5279

> <Gold.Chemscore.Rot.Weighted>
4.7844

> <Gold.Chemscore.Internal.Correction.Weighted>
   9.000000E+99

> <Gold.Protein.RotatedTorsions>
[ 6907 6896 6895 6894 ] final   37.10 input  -60.11 | X-H torsion
[ 7974 7965 7964 7962 ] final  -91.77 input  175.53 | X-H torsion
[ 8008 7997 7996 7995 ] final -140.02 input   59.86 | X-H torsion
[ 10167 10162 10161 10158 ] final   52.29 input  -65.29 | X-H torsion
[ 10718 10713 10712 10709 ] final  156.37 input   66.30 | X-H torsion
[ 10763 10752 10751 10750 ] final  114.79 input  -60.55 | X-H torsion
[ 11005 11000 10999 10996 ] final   86.19 input  -57.11 | X-H torsion

> <Gold.Protein.ActiveResidues>
 VAL166  LYS551  ARG553  GLY616  TRP617  ASP618  TYR619  PRO620  LYS621  CYS622 
 ASP623  PHE694  ASN695  SER759  ASP760  ASP761  ALA762  ILE779  LEU786  VAL792 
 PHE793  MET794  SER795  GLU796  ALA797  LYS798  CYS799  TRP800  GLU811  SER814 

> <Gold.Protein.RotatedAtoms>
  152.1386  134.9080  160.0554 H   0  0  0  0  0  0  0  0  0  0  0  0  # atno 6907 bound_to 6896
  152.0156  133.3873  159.4245 H   0  0  0  0  0  0  0  0  0  0  0  0  # atno 6908 bound_to 6896
  150.6863  134.3604  159.4991 H   0  0  0  0  0  0  0  0  0  0  0  0  # atno 6909 bound_to 6896
  145.4087  140.9543  143.2246 H   0  0  0  0  0  0  0  0  0  0  0  0  # atno 7974 bound_to 7965
  155.4544  140.0541  157.2998 H   0  0  0  0  0  0  0  0  0  0  0  0  # atno 8008 bound_to 7997
  154.4764  140.2062  155.9825 H   0  0  0  0  0  0  0  0  0  0  0  0  # atno 8009 bound_to 7997
  156.1138  140.3200  155.8114 H   0  0  0  0  0  0  0  0  0  0  0  0  # atno 8010 bound_to 7997
  140.2530  144.3458  150.6342 H   0  0  0  0  0  0  0  0  0  0  0  0  # atno 10167 bound_to 10162
  157.2059  131.0686  151.1998 H   0  0  0  0  0  0  0  0  0  0  0  0  # atno 10718 bound_to 10713
  153.5125  135.3615  155.2593 H   0  0  0  0  0  0  0  0  0  0  0  0  # atno 10763 bound_to 10752
  154.8741  135.4026  154.3353 H   0  0  0  0  0  0  0  0  0  0  0  0  # atno 10764 bound_to 10752
  153.4008  135.7075  153.6494 H   0  0  0  0  0  0  0  0  0  0  0  0  # atno 10765 bound_to 10752
  139.8951  134.8338  156.2686 H   0  0  0  0  0  0  0  0  0  0  0  0  # atno 11005 bound_to 11000
  144.8324  139.5606  143.6938 LP  0  0  0  0  0  0  0  0  0  0  0  0  # atno 17320 bound_to 7965
  146.2716  139.6649  142.9292 LP  0  0  0  0  0  0  0  0  0  0  0  0  # atno 17321 bound_to 7965
  140.6026  143.2167  151.7043 LP  0  0  0  0  0  0  0  0  0  0  0  0  # atno 17342 bound_to 10162
  139.5040  144.3769  152.0415 LP  0  0  0  0  0  0  0  0  0  0  0  0  # atno 17343 bound_to 10162
  157.3721  130.7186  149.6572 LP  0  0  0  0  0  0  0  0  0  0  0  0  # atno 17370 bound_to 10713
  155.9695  130.4196  150.4382 LP  0  0  0  0  0  0  0  0  0  0  0  0  # atno 17371 bound_to 10713
  141.0116  133.7092  156.1120 LP  0  0  0  0  0  0  0  0  0  0  0  0  # atno 17394 bound_to 11000
  140.7360  134.4203  157.5560 LP  0  0  0  0  0  0  0  0  0  0  0  0  # atno 17395 bound_to 11000

$$$$
