AV-unprocessed.smi:21|AV-procd|sdf|150|dock6
  -GOLD-   2262015373D 1   1.00000     0.00000
 Structure written by MMmdl.
 62 65  0  0  0  0  0  0  0  0  2 V2000
  145.7044  132.5692  150.1529 C   0  0  0  0  0  0  0  0  0  0  0  0
  145.0014  133.2218  151.1985 O   0  0  0  0  0  0  0  0  0  0  0  0
  144.2839  134.3742  150.7760 C   0  0  2  0  0  0  0  0  0  0  0  0
  145.2455  135.5530  150.7099 C   0  0  0  0  0  0  0  0  0  0  0  0
  145.3532  136.0196  152.1664 C   0  0  1  0  0  0  0  0  0  0  0  0
  145.8506  137.4768  152.3333 C   0  0  0  0  0  0  0  0  0  0  0  0
  146.3436  137.7500  153.6853 N   0  0  0  0  0  0  0  0  0  0  0  0
  146.5258  136.6250  154.5939 C   0  0  0  0  0  0  0  0  0  0  0  0
  146.9486  138.9407  153.9546 C   0  0  0  0  0  0  0  0  0  0  0  0
  146.9072  139.9079  153.0001 N   0  0  0  0  0  0  0  0  0  0  0  0
  147.4826  141.0955  153.2036 C   0  0  0  0  0  0  0  0  0  0  0  0
  148.1511  141.5235  154.2740 N   0  0  0  0  0  0  0  0  0  0  0  0
  148.2064  140.5621  155.2383 C   0  0  0  0  0  0  0  0  0  0  0  0
  147.6383  139.2563  155.1658 C   0  0  0  0  0  0  0  0  0  0  0  0
  147.9219  138.5651  156.3399 N   0  0  0  0  0  0  0  0  0  0  0  0
  148.6039  139.4104  157.0619 C   0  0  0  0  0  0  0  0  0  0  0  0
  148.8145  140.6374  156.4792 N   0  0  0  0  0  0  0  0  0  0  0  0
  149.5403  141.7554  157.0574 C   0  0  0  0  0  0  0  0  0  0  0  0
  150.7697  141.3217  157.8931 C   0  0  1  0  0  0  0  0  0  0  0  0
  151.5310  140.1803  157.1789 C   0  0  0  0  0  0  0  0  0  0  0  0
  152.5448  139.6598  158.0134 O   0  0  0  0  0  0  0  0  0  0  0  0
  151.6779  142.5210  158.2855 C   0  0  1  0  0  0  0  0  0  0  0  0
  150.9458  143.8119  158.6560 C   0  0  0  0  0  0  0  0  0  0  0  0
  151.6370  144.2823  159.9370 C   0  0  0  0  0  0  0  0  0  0  0  0
  152.8814  143.6011  159.9385 O   0  0  0  0  0  0  0  0  0  0  0  0
  152.6258  142.2889  159.4678 C   0  0  0  0  0  0  0  0  0  0  0  0
  144.0315  135.7061  152.7833 N   0  3  1  0  0  0  0  0  0  0  0  0
  143.2190  136.8438  153.2762 C   0  0  0  0  0  0  0  0  0  0  0  0
  143.2868  134.8265  151.8493 C   0  0  0  0  0  0  0  0  0  0  0  0
  143.8100  134.2026  149.8079 H   0  0  0  0  0  0  0  0  0  0  0  0
  146.0610  135.3602  152.6709 H   0  0  0  0  0  0  0  0  0  0  0  0
  146.2203  131.6961  150.5526 H   0  0  0  0  0  0  0  0  0  0  0  0
  146.4548  133.2280  149.7143 H   0  0  0  0  0  0  0  0  0  0  0  0
  145.0349  132.2286  149.3630 H   0  0  0  0  0  0  0  0  0  0  0  0
  146.2097  135.2884  150.2738 H   0  0  0  0  0  0  0  0  0  0  0  0
  144.8090  136.3432  150.0970 H   0  0  0  0  0  0  0  0  0  0  0  0
  146.6005  137.7160  151.5800 H   0  0  0  0  0  0  0  0  0  0  0  0
  145.0247  138.1651  152.1524 H   0  0  0  0  0  0  0  0  0  0  0  0
  146.4098  136.9385  155.6320 H   0  0  0  0  0  0  0  0  0  0  0  0
  147.5141  136.1823  154.4672 H   0  0  0  0  0  0  0  0  0  0  0  0
  145.7836  135.8504  154.4003 H   0  0  0  0  0  0  0  0  0  0  0  0
  147.3943  141.8041  152.3932 H   0  0  0  0  0  0  0  0  0  0  0  0
  148.9726  139.1625  158.0469 H   0  0  0  0  0  0  0  0  0  0  0  0
  149.8466  142.4062  156.2378 H   0  0  0  0  0  0  0  0  0  0  0  0
  148.8554  142.3403  157.6722 H   0  0  0  0  0  0  0  0  0  0  0  0
  150.3918  140.9145  158.8325 H   0  0  0  0  0  0  0  0  0  0  0  0
  150.8565  139.3697  156.9029 H   0  0  0  0  0  0  0  0  0  0  0  0
  152.0055  140.5243  156.2610 H   0  0  0  0  0  0  0  0  0  0  0  0
  152.1374  139.2421  158.7571 H   0  0  0  0  0  0  0  0  0  0  0  0
  152.3021  142.7822  157.4304 H   0  0  0  0  0  0  0  0  0  0  0  0
  151.0701  144.5491  157.8618 H   0  0  0  0  0  0  0  0  0  0  0  0
  149.8744  143.6855  158.8089 H   0  0  0  0  0  0  0  0  0  0  0  0
  151.7715  145.3636  159.9703 H   0  0  0  0  0  0  0  0  0  0  0  0
  151.0631  143.9823  160.8152 H   0  0  0  0  0  0  0  0  0  0  0  0
  152.1604  141.7137  160.2682 H   0  0  0  0  0  0  0  0  0  0  0  0
  153.5466  141.7838  159.1769 H   0  0  0  0  0  0  0  0  0  0  0  0
  142.9783  137.5393  152.4712 H   0  0  0  0  0  0  0  0  0  0  0  0
  143.7348  137.3863  154.0682 H   0  0  0  0  0  0  0  0  0  0  0  0
  142.2809  136.4786  153.6955 H   0  0  0  0  0  0  0  0  0  0  0  0
  142.4931  135.3977  151.3646 H   0  0  0  0  0  0  0  0  0  0  0  0
  142.8119  134.0011  152.3790 H   0  0  0  0  0  0  0  0  0  0  0  0
  144.2430  135.1437  153.5953 H   0  0  0  0  0  0  0  0  0  0  0  0
  1  2  1  0  0  0  0
  1 32  1  0  0  0  0
  1 33  1  0  0  0  0
  1 34  1  0  0  0  0
  2  3  1  0  0  0  0
  3 30  1  0  0  0  0
  3 29  1  0  0  0  0
  3  4  1  0  0  0  0
  4  5  1  0  0  0  0
  4 35  1  0  0  0  0
  4 36  1  0  0  0  0
  5 31  1  0  0  0  0
  5  6  1  0  0  0  0
  5 27  1  0  0  0  0
  6  7  1  0  0  0  0
  6 37  1  0  0  0  0
  6 38  1  0  0  0  0
  7  8  1  0  0  0  0
  7  9  1  0  0  0  0
  8 39  1  0  0  0  0
  8 40  1  0  0  0  0
  8 41  1  0  0  0  0
  9 14  1  0  0  0  0
  9 10  2  0  0  0  0
 10 11  1  0  0  0  0
 11 12  2  0  0  0  0
 11 42  1  0  0  0  0
 12 13  1  0  0  0  0
 13 17  1  0  0  0  0
 13 14  2  0  0  0  0
 14 15  1  0  0  0  0
 15 16  2  0  0  0  0
 16 17  1  0  0  0  0
 16 43  1  0  0  0  0
 17 18  1  0  0  0  0
 18 19  1  0  0  0  0
 18 44  1  0  0  0  0
 18 45  1  0  0  0  0
 19 20  1  0  0  0  0
 19 22  1  0  0  0  0
 19 46  1  0  0  0  0
 20 21  1  0  0  0  0
 20 47  1  0  0  0  0
 20 48  1  0  0  0  0
 21 49  1  0  0  0  0
 22 26  1  0  0  0  0
 22 23  1  0  0  0  0
 22 50  1  0  0  0  0
 23 24  1  0  0  0  0
 23 51  1  0  0  0  0
 23 52  1  0  0  0  0
 24 25  1  0  0  0  0
 24 53  1  0  0  0  0
 24 54  1  0  0  0  0
 25 26  1  0  0  0  0
 26 55  1  0  0  0  0
 26 56  1  0  0  0  0
 27 28  1  0  0  0  0
 27 29  1  0  0  0  0
 27 62  1  0  0  0  0
 28 57  1  0  0  0  0
 28 58  1  0  0  0  0
 28 59  1  0  0  0  0
 29 60  1  0  0  0  0
 29 61  1  0  0  0  0
M  CHG  1  27   1
M  END
> <s_m_source_file>
AV-unprocessed.smi

> <i_m_source_file_index>
21

> <i_lp_mmshare_version>
43012

> <i_f3d_flags>
0

> <s_epik_input>
W0NIM11PW0NASF0xW0NIMl1bQ0BIXShOKFtDSDNdKVtDSDJdMSlbQ0gyXU4oW0NIM10pYyhuW2NIXW4yKWMoYzIzKW5bY0hdbjNbQ0gyXVtDQEhdKFtDSDJdW09IXSlbQ0BASF00W0NIMl1bQ0gyXU9bQ0gyXTQ=

> <s_epik_cmdline>
J2VwaWtfcHl0aG9uJywgJy1waCcsICc3LjAnLCAnLXRuJywgJzgnLCAnLW1hJywgJzIwMCcsICctbWV0YWxfYmluZGluZycsICctaW1hZScsICc8aW5maWxlLm1hZT4nLCAnLW9tYWUnLCAnPG91dGZpbGUubWFlPic=

> <r_lp_tautomer_probability>
1

> <r_epik_Ionization_Penalty>
0.0157465

> <r_epik_Ionization_Penalty_Charging>
0.015354

> <r_epik_Ionization_Penalty_Neutral>
0.000392529

> <r_epik_State_Penalty>
0.0120612

> <r_epik_Charging_Adjusted_Penalty>
0.0274152

> <i_epik_Tot_Q>
1

> <i_epik_Tot_abs_Q>
1

> <r_epik_Metal_State_Penalty>
0.0121253

> <b_epik_Metal_Only>
0

> <s_lp_Force_Field>
OPLS_2005

> <r_lp_Energy>
62.4591

> <b_lp_Chiralities_Consistent>
1

> <s_lp_Variant>
AV-unprocessed.smi:21-30

> <Gold.Version>
5.8.1

> <Gold.Id.Protein>
6NUR|6NUR_protein|mol2

> <Gold.PLP.Fitness>
43.3742

> <Gold.PLP.PLP>
-41.9463

> <Gold.PLP.part.hbond>
-1.0000

> <Gold.PLP.part.metal>
0.0000

> <Gold.PLP.part.buried>
-7.7782

> <Gold.PLP.part.nonpolar>
-34.1163

> <Gold.PLP.part.repulsive>
0.4941

> <Gold.PLP.ligand.clash>
0.0000

> <Gold.PLP.ligand.torsion>
1.1567

> <Gold.PLP.Chemscore.Hbond>
1.0000

> <Gold.PLP.Chemscore.CHOScore>
0.0000

> <Gold.PLP.Chemscore.Metal>
0.0000

> <Gold.Chemscore.Hbonds>
donor molecule, donor type, donor heavy atom, donor atom, acceptor molecule, acceptor atom, score
      P1  H  7997  8010       L1    21  0.37

> <Gold.PLP.Chemscore.Internal.Correction>
0.7414

> <Gold.Rescore>
     Score         DG    S(hbond)    S(metal)    S(lipo)     H(rot)  DE(clash)    DE(int)     intcor
     10.21     -13.00       0.98        0.00     103.76       3.08       0.10       2.69       ----

> <Gold.Chemscore.Fitness>
10.2148

> <Gold.Chemscore.DG>
-13.0040

> <Gold.Chemscore.ZeroCoef>
-5.4800

> <Gold.Chemscore.Hbond>
0.9755

> <Gold.Chemscore.Metal>
0.0000

> <Gold.Chemscore.Lipo>
103.7621

> <Gold.Chemscore.Internal_Hbond>
0.0000

> <Gold.Chemscore.DEClash>
0.0966

> <Gold.Chemscore.DEInternal>
2.6927

> <Gold.Chemscore.Rot>
3.0758

> <Gold.Chemscore.Internal.Correction>
   9.000000E+99

> <Gold.Chemscore.Hbonds>
donor molecule, donor type, donor heavy atom, donor atom, acceptor molecule, acceptor atom, score
      P1  H  7997  8010       L1    21  0.21

> <Gold.Chemscore.Hbond.Weighted>
-3.2580

> <Gold.Chemscore.Metal.Weighted>
-0.0000

> <Gold.Chemscore.Lipo.Weighted>
-12.1402

> <Gold.Chemscore.Internal_Hbond.Weighted>
0.0000

> <Gold.Chemscore.DEClash.Weighted>
0.0966

> <Gold.Chemscore.DEInternal.Weighted>
2.6927

> <Gold.Chemscore.Rot.Weighted>
7.8741

> <Gold.Chemscore.Internal.Correction.Weighted>
   9.000000E+99

> <Gold.Protein.RotatedTorsions>
[ 6907 6896 6895 6894 ] final -129.31 input  -60.11 | X-H torsion
[ 7974 7965 7964 7962 ] final  114.73 input  175.53 | X-H torsion
[ 8008 7997 7996 7995 ] final   42.40 input   59.86 | X-H torsion
[ 10167 10162 10161 10158 ] final  -66.01 input  -65.29 | X-H torsion
[ 10718 10713 10712 10709 ] final -108.87 input   66.30 | X-H torsion
[ 10763 10752 10751 10750 ] final -156.89 input  -60.55 | X-H torsion
[ 11005 11000 10999 10996 ] final -127.80 input  -57.11 | X-H torsion

> <Gold.Protein.ActiveResidues>
 VAL166  LYS551  ARG553  GLY616  TRP617  ASP618  TYR619  PRO620  LYS621  CYS622 
 ASP623  PHE694  ASN695  SER759  ASP760  ASP761  ALA762  ILE779  LEU786  VAL792 
 PHE793  MET794  SER795  GLU796  ALA797  LYS798  CYS799  TRP800  GLU811  SER814 

> <Gold.Protein.RotatedAtoms>
  150.9274  133.6808  159.2818 H   0  0  0  0  0  0  0  0  0  0  0  0  # atno 6907 bound_to 6896
  151.4242  135.1000  159.9632 H   0  0  0  0  0  0  0  0  0  0  0  0  # atno 6908 bound_to 6896
  152.5009  133.8718  159.7357 H   0  0  0  0  0  0  0  0  0  0  0  0  # atno 6909 bound_to 6896
  145.2007  139.2954  143.4320 H   0  0  0  0  0  0  0  0  0  0  0  0  # atno 7974 bound_to 7965
  155.2855  140.3375  155.4255 H   0  0  0  0  0  0  0  0  0  0  0  0  # atno 8008 bound_to 7997
  156.2070  140.1755  156.7818 H   0  0  0  0  0  0  0  0  0  0  0  0  # atno 8009 bound_to 7997
  154.5634  140.0683  156.8839 H   0  0  0  0  0  0  0  0  0  0  0  0  # atno 8010 bound_to 7997
  140.5688  143.2316  151.6580 H   0  0  0  0  0  0  0  0  0  0  0  0  # atno 10167 bound_to 10162
  156.0507  130.5735  150.8020 H   0  0  0  0  0  0  0  0  0  0  0  0  # atno 10718 bound_to 10713
  154.7678  135.3136  154.8250 H   0  0  0  0  0  0  0  0  0  0  0  0  # atno 10763 bound_to 10752
  153.8993  135.6817  153.4760 H   0  0  0  0  0  0  0  0  0  0  0  0  # atno 10764 bound_to 10752
  153.1287  135.4790  154.9248 H   0  0  0  0  0  0  0  0  0  0  0  0  # atno 10765 bound_to 10752
  140.9569  134.0989  157.4007 H   0  0  0  0  0  0  0  0  0  0  0  0  # atno 11005 bound_to 11000
  146.3418  140.2251  142.8592 LP  0  0  0  0  0  0  0  0  0  0  0  0  # atno 17320 bound_to 7965
  144.9950  140.8581  143.5316 LP  0  0  0  0  0  0  0  0  0  0  0  0  # atno 17321 bound_to 7965
  139.5107  144.3534  152.0630 LP  0  0  0  0  0  0  0  0  0  0  0  0  # atno 17342 bound_to 10162
  140.2669  144.4006  150.6165 LP  0  0  0  0  0  0  0  0  0  0  0  0  # atno 17343 bound_to 10162
  157.5431  131.0941  150.9800 LP  0  0  0  0  0  0  0  0  0  0  0  0  # atno 17370 bound_to 10713
  157.0078  130.5625  149.5318 LP  0  0  0  0  0  0  0  0  0  0  0  0  # atno 17371 bound_to 10713
  139.8865  135.0082  156.6504 LP  0  0  0  0  0  0  0  0  0  0  0  0  # atno 17394 bound_to 11000
  140.7523  133.8887  155.8356 LP  0  0  0  0  0  0  0  0  0  0  0  0  # atno 17395 bound_to 11000

$$$$
