AV-unprocessed.smi:846|AV-procd|sdf|3935|dock1
  -GOLD-   22720 1393D 1   1.00000     0.00000
 Structure written by MMmdl.
 37 38  0  0  0  0  0  0  0  0  1 V2000
  145.1423  134.8826  150.8231 C   0  0  0  0  0  0  0  0  0  0  0  0
  145.5450  133.5014  151.3462 C   0  0  0  0  0  0  0  0  0  0  0  0
  146.7167  133.6501  152.1394 O   0  0  0  0  0  0  0  0  0  0  0  0
  147.2395  132.5411  152.7763 C   0  0  0  0  0  0  0  0  0  0  0  0
  146.6250  131.3438  152.6069 N   0  0  0  0  0  0  0  0  0  0  0  0
  147.1409  130.2659  153.2333 C   0  0  0  0  0  0  0  0  0  0  0  0
  148.2867  130.3223  154.0489 C   0  0  0  0  0  0  0  0  0  0  0  0
  148.9267  131.5637  154.2237 C   0  0  0  0  0  0  0  0  0  0  0  0
  148.3894  132.7048  153.5817 C   0  0  0  0  0  0  0  0  0  0  0  0
  148.9546  134.0051  153.6634 N   0  0  0  0  0  0  0  0  0  0  0  0
  149.7518  134.5331  154.6107 C   0  0  0  0  0  0  0  0  0  0  0  0
  150.1984  133.9180  155.5763 O   0  0  0  0  0  0  0  0  0  0  0  0
  150.0190  135.8396  154.4280 N   0  0  0  0  0  0  0  0  0  0  0  0
  150.8450  136.7149  155.2640 C   0  0  2  0  0  0  0  0  0  0  0  0
  150.0387  137.2765  156.4498 C   0  0  0  0  0  0  0  0  0  0  0  0
  150.8283  138.4307  157.0834 C   0  0  0  0  0  0  0  0  0  0  0  0
  151.8341  139.1661  155.7369 S   0  0  0  0  0  0  0  0  0  0  0  0
  151.2657  140.4642  155.3432 O   0  0  0  0  0  0  0  0  0  0  0  0
  153.2579  139.0348  156.0815 O   0  0  0  0  0  0  0  0  0  0  0  0
  151.4025  137.9122  154.4761 C   0  0  0  0  0  0  0  0  0  0  0  0
  144.2509  134.8182  150.1989 H   0  0  0  0  0  0  0  0  0  0  0  0
  145.9403  135.3230  150.2248 H   0  0  0  0  0  0  0  0  0  0  0  0
  144.9266  135.5651  151.6456 H   0  0  0  0  0  0  0  0  0  0  0  0
  144.7307  133.0822  151.9395 H   0  0  0  0  0  0  0  0  0  0  0  0
  145.7358  132.8302  150.5073 H   0  0  0  0  0  0  0  0  0  0  0  0
  146.6270  129.3292  153.0761 H   0  0  0  0  0  0  0  0  0  0  0  0
  148.6694  129.4321  154.5257 H   0  0  0  0  0  0  0  0  0  0  0  0
  149.8175  131.6118  154.8302 H   0  0  0  0  0  0  0  0  0  0  0  0
  148.6249  134.6539  152.9636 H   0  0  0  0  0  0  0  0  0  0  0  0
  149.5810  136.2793  153.6313 H   0  0  0  0  0  0  0  0  0  0  0  0
  151.6802  136.1468  155.6784 H   0  0  0  0  0  0  0  0  0  0  0  0
  149.0874  137.6659  156.0837 H   0  0  0  0  0  0  0  0  0  0  0  0
  149.8035  136.5044  157.1832 H   0  0  0  0  0  0  0  0  0  0  0  0
  150.1842  139.1888  157.5298 H   0  0  0  0  0  0  0  0  0  0  0  0
  151.5111  138.0608  157.8484 H   0  0  0  0  0  0  0  0  0  0  0  0
  152.2801  137.6705  153.8761 H   0  0  0  0  0  0  0  0  0  0  0  0
  150.6416  138.3423  153.8239 H   0  0  0  0  0  0  0  0  0  0  0  0
  1  2  1  0  0  0  0
  1 21  1  0  0  0  0
  1 22  1  0  0  0  0
  1 23  1  0  0  0  0
  2  3  1  0  0  0  0
  2 24  1  0  0  0  0
  2 25  1  0  0  0  0
  3  4  1  0  0  0  0
  4  9  1  0  0  0  0
  4  5  2  0  0  0  0
  5  6  1  0  0  0  0
  6  7  2  0  0  0  0
  6 26  1  0  0  0  0
  7  8  1  0  0  0  0
  7 27  1  0  0  0  0
  8  9  2  0  0  0  0
  8 28  1  0  0  0  0
  9 10  1  0  0  0  0
 10 11  1  0  0  0  0
 10 29  1  0  0  0  0
 11 12  2  0  0  0  0
 11 13  1  0  0  0  0
 13 14  1  0  0  0  0
 13 30  1  0  0  0  0
 14 20  1  0  0  0  0
 14 15  1  0  0  0  0
 14 31  1  0  0  0  0
 15 16  1  0  0  0  0
 15 32  1  0  0  0  0
 15 33  1  0  0  0  0
 16 17  1  0  0  0  0
 16 34  1  0  0  0  0
 16 35  1  0  0  0  0
 17 18  2  0  0  0  0
 17 19  2  0  0  0  0
 17 20  1  0  0  0  0
 20 36  1  0  0  0  0
 20 37  1  0  0  0  0
M  END
> <s_m_source_file>
AV-unprocessed.smi

> <i_m_source_file_index>
846

> <i_lp_mmshare_version>
43012

> <i_f3d_flags>
0

> <s_epik_input>
W0NIM11bQ0gyXU9jMW5bY0hdW2NIXVtjSF1jMVtOSF1DKD1PKVtOSF1bQ0BASF0oW0NIMl0yKVtDSDJdW0NIMl1TMig9Tyk9Tw==

> <s_epik_cmdline>
J2VwaWtfcHl0aG9uJywgJy1waCcsICc3LjAnLCAnLXRuJywgJzgnLCAnLW1hJywgJzIwMCcsICctbWV0YWxfYmluZGluZycsICctaW1hZScsICc8aW5maWxlLm1hZT4nLCAnLW9tYWUnLCAnPG91dGZpbGUubWFlPic=

> <r_lp_tautomer_probability>
1

> <r_epik_Ionization_Penalty>
9.45557e-05

> <r_epik_Ionization_Penalty_Charging>
0

> <r_epik_Ionization_Penalty_Neutral>
9.45557e-05

> <r_epik_State_Penalty>
-0

> <r_epik_Charging_Adjusted_Penalty>
0

> <i_epik_Tot_Q>
0

> <i_epik_Tot_abs_Q>
0

> <r_epik_Metal_State_Penalty>
-0

> <b_epik_Metal_Only>
0

> <s_lp_Force_Field>
OPLS_2005

> <r_lp_Energy>
17.4096

> <b_lp_Chiralities_Consistent>
1

> <s_lp_Variant>
AV-unprocessed.smi:846-1

> <Gold.Version>
5.8.1

> <Gold.Id.Protein>
6NUR|6NUR_protein|mol2

> <Gold.PLP.Fitness>
42.0145

> <Gold.PLP.PLP>
-31.3599

> <Gold.PLP.part.hbond>
-4.5783

> <Gold.PLP.part.metal>
0.0000

> <Gold.PLP.part.buried>
-4.5069

> <Gold.PLP.part.nonpolar>
-23.3502

> <Gold.PLP.part.repulsive>
0.4207

> <Gold.PLP.ligand.clash>
0.0000

> <Gold.PLP.ligand.torsion>
0.4597

> <Gold.PLP.Chemscore.Hbond>
3.8552

> <Gold.PLP.Chemscore.CHOScore>
0.0000

> <Gold.PLP.Chemscore.Metal>
0.0000

> <Gold.Chemscore.Hbonds>
donor molecule, donor type, donor heavy atom, donor atom, acceptor molecule, acceptor atom, score
      L1  H    10    29       P1  7948  0.91
      L1  H    13    30       P1  7948  1.00
      P1  H  7989  7998       L1    18  0.93
      P1  H  7997  8010       L1    19  1.00

> <Gold.PLP.Chemscore.Internal.Correction>
0.0083

> <Gold.Rescore>
     Score         DG    S(hbond)    S(metal)    S(lipo)     H(rot)  DE(clash)    DE(int)     intcor
     15.75     -17.31       2.96        0.00      49.57       1.50       0.02       1.54       ----

> <Gold.Chemscore.Fitness>
15.7471

> <Gold.Chemscore.DG>
-17.3068

> <Gold.Chemscore.ZeroCoef>
-5.4800

> <Gold.Chemscore.Hbond>
2.9566

> <Gold.Chemscore.Metal>
0.0000

> <Gold.Chemscore.Lipo>
49.5749

> <Gold.Chemscore.Internal_Hbond>
0.0000

> <Gold.Chemscore.DEClash>
0.0203

> <Gold.Chemscore.DEInternal>
1.5395

> <Gold.Chemscore.Rot>
1.5033

> <Gold.Chemscore.Internal.Correction>
   9.000000E+99

> <Gold.Chemscore.Hbonds>
donor molecule, donor type, donor heavy atom, donor atom, acceptor molecule, acceptor atom, score
      L1  H    10    29       P1  7948  0.20
      L1  H    13    30       P1  7948  0.52
      P1  H  7989  7998       L1    18  0.73
      P1  H  7997  8010       L1    19  0.94

> <Gold.Chemscore.Hbond.Weighted>
-9.8750

> <Gold.Chemscore.Metal.Weighted>
-0.0000

> <Gold.Chemscore.Lipo.Weighted>
-5.8003

> <Gold.Chemscore.Internal_Hbond.Weighted>
0.0000

> <Gold.Chemscore.DEClash.Weighted>
0.0203

> <Gold.Chemscore.DEInternal.Weighted>
1.5395

> <Gold.Chemscore.Rot.Weighted>
3.8484

> <Gold.Chemscore.Internal.Correction.Weighted>
   9.000000E+99

> <Gold.Protein.RotatedTorsions>
[ 6907 6896 6895 6894 ] final   21.25 input  -60.11 | X-H torsion
[ 7974 7965 7964 7962 ] final  -88.32 input  175.53 | X-H torsion
[ 8008 7997 7996 7995 ] final   87.57 input   59.86 | X-H torsion
[ 10167 10162 10161 10158 ] final   15.41 input  -65.29 | X-H torsion
[ 10718 10713 10712 10709 ] final -174.83 input   66.30 | X-H torsion
[ 10763 10752 10751 10750 ] final  -40.45 input  -60.55 | X-H torsion
[ 11005 11000 10999 10996 ] final  141.13 input  -57.11 | X-H torsion

> <Gold.Protein.ActiveResidues>
 VAL166  LYS551  ARG553  GLY616  TRP617  ASP618  TYR619  PRO620  LYS621  CYS622 
 ASP623  PHE694  ASN695  SER759  ASP760  ASP761  ALA762  ILE779  LEU786  VAL792 
 PHE793  MET794  SER795  GLU796  ALA797  LYS798  CYS799  TRP800  GLU811  SER814 

> <Gold.Protein.RotatedAtoms>
  151.9088  135.0347  160.0512 H   0  0  0  0  0  0  0  0  0  0  0  0  # atno 6907 bound_to 6896
  152.2296  133.5043  159.5217 H   0  0  0  0  0  0  0  0  0  0  0  0  # atno 6908 bound_to 6896
  150.7022  134.1150  159.4056 H   0  0  0  0  0  0  0  0  0  0  0  0  # atno 6909 bound_to 6896
  145.4548  140.9561  143.2002 H   0  0  0  0  0  0  0  0  0  0  0  0  # atno 7974 bound_to 7965
  155.9770  140.3380  155.6628 H   0  0  0  0  0  0  0  0  0  0  0  0  # atno 8008 bound_to 7997
  155.6599  140.0715  157.2576 H   0  0  0  0  0  0  0  0  0  0  0  0  # atno 8009 bound_to 7997
  154.4181  140.1710  156.1752 H   0  0  0  0  0  0  0  0  0  0  0  0  # atno 8010 bound_to 7997
  140.5869  143.8873  150.6838 H   0  0  0  0  0  0  0  0  0  0  0  0  # atno 10167 bound_to 10162
  156.7908  130.9517  151.3120 H   0  0  0  0  0  0  0  0  0  0  0  0  # atno 10718 bound_to 10713
  153.9462  135.6756  153.4744 H   0  0  0  0  0  0  0  0  0  0  0  0  # atno 10763 bound_to 10752
  153.0907  135.4876  154.8681 H   0  0  0  0  0  0  0  0  0  0  0  0  # atno 10764 bound_to 10752
  154.7350  135.3147  154.8785 H   0  0  0  0  0  0  0  0  0  0  0  0  # atno 10765 bound_to 10752
  140.0378  134.9320  157.0786 H   0  0  0  0  0  0  0  0  0  0  0  0  # atno 11005 bound_to 11000
  144.8039  139.6088  143.7059 LP  0  0  0  0  0  0  0  0  0  0  0  0  # atno 17320 bound_to 7965
  146.2484  139.6148  142.9444 LP  0  0  0  0  0  0  0  0  0  0  0  0  # atno 17321 bound_to 7965
  140.2386  143.3681  152.1506 LP  0  0  0  0  0  0  0  0  0  0  0  0  # atno 17342 bound_to 10162
  139.5203  144.7031  151.5435 LP  0  0  0  0  0  0  0  0  0  0  0  0  # atno 17343 bound_to 10162
  157.6601  130.8959  149.9812 LP  0  0  0  0  0  0  0  0  0  0  0  0  # atno 17370 bound_to 10713
  156.1160  130.3648  149.9967 LP  0  0  0  0  0  0  0  0  0  0  0  0  # atno 17371 bound_to 10713
  140.4118  134.1973  155.7163 LP  0  0  0  0  0  0  0  0  0  0  0  0  # atno 17394 bound_to 11000
  141.1867  133.8297  157.1059 LP  0  0  0  0  0  0  0  0  0  0  0  0  # atno 17395 bound_to 11000

$$$$
