AV-unprocessed.smi:2525|AV-procd|sdf|9933|dock5
  -GOLD-   2272013573D 1   1.00000     0.00000
 Structure written by MMmdl.
 44 45  0  0  0  0  0  0  0  0  1 V2000
  146.3589  142.4363  154.1041 C   0  0  0  0  0  0  0  0  0  0  0  0
  147.8352  142.0046  154.0870 C   0  0  0  0  0  0  0  0  0  0  0  0
  148.2121  140.8990  155.1034 C   0  0  0  0  0  0  0  0  0  0  0  0
  147.3546  139.6412  154.8041 C   0  0  0  0  0  0  0  0  0  0  0  0
  147.4015  139.1529  153.3470 C   0  0  0  0  0  0  0  0  0  0  0  0
  149.7483  140.7117  155.2772 C   0  0  2  0  0  0  0  0  0  0  0  0
  150.1412  139.3656  155.6900 N   0  0  0  0  0  0  0  0  0  0  0  0
  151.3045  138.7709  155.3877 C   0  0  0  0  0  0  0  0  0  0  0  0
  152.1739  139.2968  154.6934 O   0  0  0  0  0  0  0  0  0  0  0  0
  151.5156  137.3597  155.9417 C   0  0  0  0  0  0  0  0  0  0  0  0
  151.7390  137.3748  157.3783 N   0  0  0  0  0  0  0  0  0  0  0  0
  151.2501  138.2622  158.3153 C   0  0  0  0  0  0  0  0  0  0  0  0
  151.7564  137.7916  159.4930 C   0  0  0  0  0  0  0  0  0  0  0  0
  152.5200  136.6557  159.2292 N   0  0  0  0  0  0  0  0  0  0  0  0
  152.5047  136.4168  157.9555 N   0  0  0  0  0  0  0  0  0  0  0  0
  149.7164  141.6804  156.4714 C   0  0  2  0  0  0  0  0  0  0  0  0
  150.6503  141.4924  157.6665 C   0  0  0  0  0  0  0  0  0  0  0  0
  148.2088  141.3854  156.5789 C   0  0  2  0  0  0  0  0  0  0  0  0
  147.9242  140.3276  157.4882 O   0  0  0  0  0  0  0  0  0  0  0  0
  146.5364  140.1246  157.6915 C   0  0  0  0  0  0  0  0  0  0  0  0
  146.1511  143.1163  153.2781 H   0  0  0  0  0  0  0  0  0  0  0  0
  146.0996  142.9624  155.0222 H   0  0  0  0  0  0  0  0  0  0  0  0
  145.6877  141.5837  154.0027 H   0  0  0  0  0  0  0  0  0  0  0  0
  148.0558  141.6640  153.0754 H   0  0  0  0  0  0  0  0  0  0  0  0
  148.4679  142.8824  154.2150 H   0  0  0  0  0  0  0  0  0  0  0  0
  147.6200  138.8220  155.4715 H   0  0  0  0  0  0  0  0  0  0  0  0
  146.3061  139.8366  155.0273 H   0  0  0  0  0  0  0  0  0  0  0  0
  146.6745  138.3561  153.1888 H   0  0  0  0  0  0  0  0  0  0  0  0
  148.3787  138.7501  153.0828 H   0  0  0  0  0  0  0  0  0  0  0  0
  147.1648  139.9567  152.6496 H   0  0  0  0  0  0  0  0  0  0  0  0
  150.3420  141.1065  154.4516 H   0  0  0  0  0  0  0  0  0  0  0  0
  149.4793  138.8542  156.2563 H   0  0  0  0  0  0  0  0  0  0  0  0
  150.6449  136.7431  155.7124 H   0  0  0  0  0  0  0  0  0  0  0  0
  152.3766  136.8936  155.4601 H   0  0  0  0  0  0  0  0  0  0  0  0
  150.6149  139.1017  158.0739 H   0  0  0  0  0  0  0  0  0  0  0  0
  151.6347  138.1703  160.4972 H   0  0  0  0  0  0  0  0  0  0  0  0
  149.8373  142.6931  156.0837 H   0  0  0  0  0  0  0  0  0  0  0  0
  150.5090  140.5259  158.1512 H   0  0  0  0  0  0  0  0  0  0  0  0
  150.4849  142.2633  158.4187 H   0  0  0  0  0  0  0  0  0  0  0  0
  151.6947  141.5529  157.3607 H   0  0  0  0  0  0  0  0  0  0  0  0
  147.5864  142.2691  156.7331 H   0  0  0  0  0  0  0  0  0  0  0  0
  146.3871  139.3285  158.4208 H   0  0  0  0  0  0  0  0  0  0  0  0
  146.0460  139.8260  156.7640 H   0  0  0  0  0  0  0  0  0  0  0  0
  146.0484  141.0231  158.0690 H   0  0  0  0  0  0  0  0  0  0  0  0
  1  2  1  0  0  0  0
  1 21  1  0  0  0  0
  1 22  1  0  0  0  0
  1 23  1  0  0  0  0
  2  3  1  0  0  0  0
  2 24  1  0  0  0  0
  2 25  1  0  0  0  0
  3 18  1  0  0  0  0
  3  4  1  0  0  0  0
  3  6  1  0  0  0  0
  4  5  1  0  0  0  0
  4 26  1  0  0  0  0
  4 27  1  0  0  0  0
  5 28  1  0  0  0  0
  5 29  1  0  0  0  0
  5 30  1  0  0  0  0
  6  7  1  0  0  0  0
  6 16  1  0  0  0  0
  6 31  1  0  0  0  0
  7  8  1  0  0  0  0
  7 32  1  0  0  0  0
  8  9  2  0  0  0  0
  8 10  1  0  0  0  0
 10 11  1  0  0  0  0
 10 33  1  0  0  0  0
 10 34  1  0  0  0  0
 11 15  1  0  0  0  0
 11 12  1  0  0  0  0
 12 13  2  0  0  0  0
 12 35  1  0  0  0  0
 13 14  1  0  0  0  0
 13 36  1  0  0  0  0
 14 15  2  0  0  0  0
 16 17  1  0  0  0  0
 16 18  1  0  0  0  0
 16 37  1  0  0  0  0
 17 38  1  0  0  0  0
 17 39  1  0  0  0  0
 17 40  1  0  0  0  0
 18 19  1  0  0  0  0
 18 41  1  0  0  0  0
 19 20  1  0  0  0  0
 20 42  1  0  0  0  0
 20 43  1  0  0  0  0
 20 44  1  0  0  0  0
M  END
> <s_m_source_file>
AV-unprocessed.smi

> <i_m_source_file_index>
2525

> <i_lp_mmshare_version>
43012

> <i_f3d_flags>
0

> <s_epik_input>
W0NIM11PW0NAQEhdMVtDQEhdKFtDSDNdKVtDQEBIXShDMShbQ0gyXVtDSDNdKVtDSDJdW0NIM10pW05IXUMoPU8pW0NIMl1uMltjSF1bY0hdbm4y

> <s_epik_cmdline>
J2VwaWtfcHl0aG9uJywgJy1waCcsICc3LjAnLCAnLXRuJywgJzgnLCAnLW1hJywgJzIwMCcsICctbWV0YWxfYmluZGluZycsICctaW1hZScsICc8aW5maWxlLm1hZT4nLCAnLW9tYWUnLCAnPG91dGZpbGUubWFlPic=

> <r_lp_tautomer_probability>
1

> <r_epik_Ionization_Penalty>
1.18045e-06

> <r_epik_Ionization_Penalty_Charging>
0

> <r_epik_Ionization_Penalty_Neutral>
1.18045e-06

> <r_epik_State_Penalty>
-0

> <r_epik_Charging_Adjusted_Penalty>
0

> <i_epik_Tot_Q>
0

> <i_epik_Tot_abs_Q>
0

> <r_epik_Metal_State_Penalty>
-0

> <b_epik_Metal_Only>
0

> <s_lp_Force_Field>
OPLS_2005

> <r_lp_Energy>
29.0326

> <b_lp_Chiralities_Consistent>
1

> <s_lp_Variant>
AV-unprocessed.smi:2525-8

> <Gold.Version>
5.8.1

> <Gold.Id.Protein>
6NUR|6NUR_protein|mol2

> <Gold.PLP.Fitness>
32.7091

> <Gold.PLP.PLP>
-28.6848

> <Gold.PLP.part.hbond>
-2.6090

> <Gold.PLP.part.metal>
0.0000

> <Gold.PLP.part.buried>
-4.5500

> <Gold.PLP.part.nonpolar>
-21.3856

> <Gold.PLP.part.repulsive>
0.1092

> <Gold.PLP.ligand.clash>
0.0000

> <Gold.PLP.ligand.torsion>
1.0561

> <Gold.PLP.Chemscore.Hbond>
1.8240

> <Gold.PLP.Chemscore.CHOScore>
0.0000

> <Gold.PLP.Chemscore.Metal>
0.0000

> <Gold.Chemscore.Hbonds>
donor molecule, donor type, donor heavy atom, donor atom, acceptor molecule, acceptor atom, score
      P1  H  6896  6909       L1    14  0.99
      P1  H  7989  7998       L1     9  0.83

> <Gold.PLP.Chemscore.Internal.Correction>
0.6644

> <Gold.Rescore>
     Score         DG    S(hbond)    S(metal)    S(lipo)     H(rot)  DE(clash)    DE(int)     intcor
     11.20     -13.15       1.60        0.00      63.27       1.98       0.03       1.92       ----

> <Gold.Chemscore.Fitness>
11.2003

> <Gold.Chemscore.DG>
-13.1536

> <Gold.Chemscore.ZeroCoef>
-5.4800

> <Gold.Chemscore.Hbond>
1.5999

> <Gold.Chemscore.Metal>
0.0000

> <Gold.Chemscore.Lipo>
63.2743

> <Gold.Chemscore.Internal_Hbond>
0.0000

> <Gold.Chemscore.DEClash>
0.0310

> <Gold.Chemscore.DEInternal>
1.9223

> <Gold.Chemscore.Rot>
1.9817

> <Gold.Chemscore.Internal.Correction>
   9.000000E+99

> <Gold.Chemscore.Hbonds>
donor molecule, donor type, donor heavy atom, donor atom, acceptor molecule, acceptor atom, score
      P1  H  6896  6909       L1    14  0.41
      P1  H  7989  7998       L1     9  0.74

> <Gold.Chemscore.Hbond.Weighted>
-5.3436

> <Gold.Chemscore.Metal.Weighted>
-0.0000

> <Gold.Chemscore.Lipo.Weighted>
-7.4031

> <Gold.Chemscore.Internal_Hbond.Weighted>
0.0000

> <Gold.Chemscore.DEClash.Weighted>
0.0310

> <Gold.Chemscore.DEInternal.Weighted>
1.9223

> <Gold.Chemscore.Rot.Weighted>
5.0731

> <Gold.Chemscore.Internal.Correction.Weighted>
   9.000000E+99

> <Gold.Protein.RotatedTorsions>
[ 6907 6896 6895 6894 ] final  136.90 input  -60.11 | X-H torsion
[ 7974 7965 7964 7962 ] final  -68.48 input  175.53 | X-H torsion
[ 8008 7997 7996 7995 ] final  -55.09 input   59.86 | X-H torsion
[ 10167 10162 10161 10158 ] final   15.23 input  -65.29 | X-H torsion
[ 10718 10713 10712 10709 ] final  157.90 input   66.30 | X-H torsion
[ 10763 10752 10751 10750 ] final   46.45 input  -60.55 | X-H torsion
[ 11005 11000 10999 10996 ] final  162.29 input  -57.11 | X-H torsion

> <Gold.Protein.ActiveResidues>
 VAL166  LYS551  ARG553  GLY616  TRP617  ASP618  TYR619  PRO620  LYS621  CYS622 
 ASP623  PHE694  ASN695  SER759  ASP760  ASP761  ALA762  ILE779  LEU786  VAL792 
 PHE793  MET794  SER795  GLU796  ALA797  LYS798  CYS799  TRP800  GLU811  SER814 

> <Gold.Protein.RotatedAtoms>
  152.2841  133.5498  159.5515 H   0  0  0  0  0  0  0  0  0  0  0  0  # atno 6907 bound_to 6896
  150.7208  134.0522  159.3811 H   0  0  0  0  0  0  0  0  0  0  0  0  # atno 6908 bound_to 6896
  151.8431  135.0583  160.0501 H   0  0  0  0  0  0  0  0  0  0  0  0  # atno 6909 bound_to 6896
  145.7160  140.9059  143.0655 H   0  0  0  0  0  0  0  0  0  0  0  0  # atno 7974 bound_to 7965
  154.4183  140.1161  156.5421 H   0  0  0  0  0  0  0  0  0  0  0  0  # atno 8008 bound_to 7997
  155.6497  140.3496  155.4724 H   0  0  0  0  0  0  0  0  0  0  0  0  # atno 8009 bound_to 7997
  155.9803  140.1159  157.0722 H   0  0  0  0  0  0  0  0  0  0  0  0  # atno 8010 bound_to 7997
  140.5881  143.8849  150.6849 H   0  0  0  0  0  0  0  0  0  0  0  0  # atno 10167 bound_to 10162
  157.1852  131.0642  151.2110 H   0  0  0  0  0  0  0  0  0  0  0  0  # atno 10718 bound_to 10713
  152.9810  135.6007  154.3602 H   0  0  0  0  0  0  0  0  0  0  0  0  # atno 10763 bound_to 10752
  154.3284  135.2769  155.2486 H   0  0  0  0  0  0  0  0  0  0  0  0  # atno 10764 bound_to 10752
  154.4621  135.5963  153.6318 H   0  0  0  0  0  0  0  0  0  0  0  0  # atno 10765 bound_to 10752
  140.2243  134.8172  157.3252 H   0  0  0  0  0  0  0  0  0  0  0  0  # atno 11005 bound_to 11000
  144.6929  139.9138  143.7464 LP  0  0  0  0  0  0  0  0  0  0  0  0  # atno 17320 bound_to 7965
  146.0669  139.3660  143.0546 LP  0  0  0  0  0  0  0  0  0  0  0  0  # atno 17321 bound_to 7965
  140.2365  143.3696  152.1522 LP  0  0  0  0  0  0  0  0  0  0  0  0  # atno 17342 bound_to 10162
  139.5210  144.7041  151.5407 LP  0  0  0  0  0  0  0  0  0  0  0  0  # atno 17343 bound_to 10162
  157.3914  130.7284  149.6700 LP  0  0  0  0  0  0  0  0  0  0  0  0  # atno 17370 bound_to 10713
  155.9719  130.4145  150.4137 LP  0  0  0  0  0  0  0  0  0  0  0  0  # atno 17371 bound_to 10713
  140.1817  134.4481  155.7768 LP  0  0  0  0  0  0  0  0  0  0  0  0  # atno 17394 bound_to 11000
  141.2221  133.6986  156.7879 LP  0  0  0  0  0  0  0  0  0  0  0  0  # atno 17395 bound_to 11000

$$$$
