AV-unprocessed.smi:244|AV-procd|sdf|1866|dock3
  -GOLD-   2262020503D 1   1.00000     0.00000
 Structure written by MMmdl.
 57 61  0  0  0  0  0  0  0  0  2 V2000
  147.0933  139.7239  152.9120 C   0  0  0  0  0  0  0  0  0  0  0  0
  148.4494  139.9515  153.4629 N   0  3  1  0  0  0  0  0  0  0  0  0
  148.6240  141.2831  154.0949 C   0  0  0  0  0  0  0  0  0  0  0  0
  147.9869  141.3413  155.4920 C   0  0  0  0  0  0  0  0  0  0  0  0
  148.5557  140.2302  156.3966 C   0  0  1  0  0  0  0  0  0  0  0  0
  148.0006  140.2604  157.7121 O   0  0  0  0  0  0  0  0  0  0  0  0
  146.6413  139.8415  157.7918 C   0  0  0  0  0  0  0  0  0  0  0  0
  146.5022  138.4204  157.2326 C   0  0  0  0  0  0  0  0  0  0  0  0
  147.0252  138.3495  155.8733 N   0  0  0  0  0  0  0  0  0  0  0  0
  146.7247  137.1527  155.3163 C   0  0  0  0  0  0  0  0  0  0  0  0
  147.3518  136.0207  155.7328 N   0  0  0  0  0  0  0  0  0  0  0  0
  147.0454  134.8445  155.1768 C   0  0  0  0  0  0  0  0  0  0  0  0
  146.1622  134.5832  154.2106 N   0  0  0  0  0  0  0  0  0  0  0  0
  145.5257  135.7169  153.7985 C   0  0  0  0  0  0  0  0  0  0  0  0
  145.7403  137.0298  154.3010 C   0  0  0  0  0  0  0  0  0  0  0  0
  144.9122  137.9338  153.6495 N   0  0  0  0  0  0  0  0  0  0  0  0
  144.2464  137.1964  152.8028 C   0  0  0  0  0  0  0  0  0  0  0  0
  144.5618  135.8557  152.8149 N   0  0  0  0  0  0  0  0  0  0  0  0
  143.9840  134.8192  151.9724 C   0  0  0  0  0  0  0  0  0  0  0  0
  144.8839  134.4030  150.7766 C   0  0  0  0  0  0  0  0  0  0  0  0
  145.0356  135.5362  149.9409 O   0  0  0  0  0  0  0  0  0  0  0  0
  146.2978  133.9358  151.1849 C   0  0  0  0  0  0  0  0  0  0  0  0
  146.2632  132.5384  151.8288 C   0  0  0  0  0  0  0  0  0  0  0  0
  145.6611  131.6088  150.9347 O   0  0  0  0  0  0  0  0  0  0  0  0
  144.3070  131.9246  150.6303 C   0  0  0  0  0  0  0  0  0  0  0  0
  144.2300  133.2932  149.9295 C   0  0  0  0  0  0  0  0  0  0  0  0
  148.4090  138.8278  155.7583 C   0  0  1  0  0  0  0  0  0  0  0  0
  148.9667  138.8394  154.3052 C   0  0  0  0  0  0  0  0  0  0  0  0
  146.3246  139.7751  153.6816 H   0  0  0  0  0  0  0  0  0  0  0  0
  147.0295  138.7470  152.4313 H   0  0  0  0  0  0  0  0  0  0  0  0
  146.8604  140.4773  152.1594 H   0  0  0  0  0  0  0  0  0  0  0  0
  149.6922  141.4895  154.1739 H   0  0  0  0  0  0  0  0  0  0  0  0
  148.2082  142.0592  153.4513 H   0  0  0  0  0  0  0  0  0  0  0  0
  148.1777  142.3155  155.9426 H   0  0  0  0  0  0  0  0  0  0  0  0
  146.9057  141.2578  155.3947 H   0  0  0  0  0  0  0  0  0  0  0  0
  149.6212  140.4296  156.5182 H   0  0  0  0  0  0  0  0  0  0  0  0
  146.3329  139.8589  158.8372 H   0  0  0  0  0  0  0  0  0  0  0  0
  145.9846  140.5348  157.2670 H   0  0  0  0  0  0  0  0  0  0  0  0
  147.0474  137.7190  157.8661 H   0  0  0  0  0  0  0  0  0  0  0  0
  145.4531  138.1212  157.2529 H   0  0  0  0  0  0  0  0  0  0  0  0
  147.5862  133.9912  155.5590 H   0  0  0  0  0  0  0  0  0  0  0  0
  143.5072  137.6134  152.1339 H   0  0  0  0  0  0  0  0  0  0  0  0
  143.7557  133.9614  152.6045 H   0  0  0  0  0  0  0  0  0  0  0  0
  143.0225  135.1827  151.6069 H   0  0  0  0  0  0  0  0  0  0  0  0
  145.2339  135.2395  149.0658 H   0  0  0  0  0  0  0  0  0  0  0  0
  146.9335  133.8832  150.2998 H   0  0  0  0  0  0  0  0  0  0  0  0
  146.7780  134.6508  151.8527 H   0  0  0  0  0  0  0  0  0  0  0  0
  147.2778  132.2060  152.0480 H   0  0  0  0  0  0  0  0  0  0  0  0
  145.7238  132.5477  152.7761 H   0  0  0  0  0  0  0  0  0  0  0  0
  143.9074  131.1503  149.9752 H   0  0  0  0  0  0  0  0  0  0  0  0
  143.7038  131.9067  151.5383 H   0  0  0  0  0  0  0  0  0  0  0  0
  143.1932  133.5423  149.7004 H   0  0  0  0  0  0  0  0  0  0  0  0
  144.7435  133.2123  148.9701 H   0  0  0  0  0  0  0  0  0  0  0  0
  149.0232  138.1408  156.3427 H   0  0  0  0  0  0  0  0  0  0  0  0
  148.8238  137.8877  153.7940 H   0  0  0  0  0  0  0  0  0  0  0  0
  150.0481  138.9692  154.3632 H   0  0  0  0  0  0  0  0  0  0  0  0
  149.0475  139.9625  152.6490 H   0  0  0  0  0  0  0  0  0  0  0  0
  1  2  1  0  0  0  0
  1 29  1  0  0  0  0
  1 30  1  0  0  0  0
  1 31  1  0  0  0  0
  2 28  1  0  0  0  0
  2  3  1  0  0  0  0
  2 57  1  0  0  0  0
  3  4  1  0  0  0  0
  3 32  1  0  0  0  0
  3 33  1  0  0  0  0
  4  5  1  0  0  0  0
  4 34  1  0  0  0  0
  4 35  1  0  0  0  0
  5 27  1  0  0  0  0
  5  6  1  0  0  0  0
  5 36  1  0  0  0  0
  6  7  1  0  0  0  0
  7  8  1  0  0  0  0
  7 37  1  0  0  0  0
  7 38  1  0  0  0  0
  8  9  1  0  0  0  0
  8 39  1  0  0  0  0
  8 40  1  0  0  0  0
  9 10  1  0  0  0  0
  9 27  1  0  0  0  0
 10 15  1  0  0  0  0
 10 11  2  0  0  0  0
 11 12  1  0  0  0  0
 12 13  2  0  0  0  0
 12 41  1  0  0  0  0
 13 14  1  0  0  0  0
 14 18  1  0  0  0  0
 14 15  2  0  0  0  0
 15 16  1  0  0  0  0
 16 17  2  0  0  0  0
 17 18  1  0  0  0  0
 17 42  1  0  0  0  0
 18 19  1  0  0  0  0
 19 20  1  0  0  0  0
 19 43  1  0  0  0  0
 19 44  1  0  0  0  0
 20 26  1  0  0  0  0
 20 21  1  0  0  0  0
 20 22  1  0  0  0  0
 21 45  1  0  0  0  0
 22 23  1  0  0  0  0
 22 46  1  0  0  0  0
 22 47  1  0  0  0  0
 23 24  1  0  0  0  0
 23 48  1  0  0  0  0
 23 49  1  0  0  0  0
 24 25  1  0  0  0  0
 25 26  1  0  0  0  0
 25 50  1  0  0  0  0
 25 51  1  0  0  0  0
 26 52  1  0  0  0  0
 26 53  1  0  0  0  0
 27 28  1  0  0  0  0
 27 54  1  0  0  0  0
 28 55  1  0  0  0  0
 28 56  1  0  0  0  0
M  CHG  1   2   1
M  END
> <s_m_source_file>
AV-unprocessed.smi

> <i_m_source_file_index>
244

> <i_lp_mmshare_version>
43012

> <i_f3d_flags>
0

> <s_epik_input>
W0NIMl0xW0NIMl1OKFtDSDNdKVtDSDJdW0NAQEhdKFtDQEhdMTIpTihbQ0gyXVtDSDJdTzIpYyhuW2NIXW4zKWMoYzM0KW5bY0hdbjRbQ0gyXUM1KFtPSF0pW0NIMl1bQ0gyXU9bQ0gyXVtDSDJdNQ==

> <s_epik_cmdline>
J2VwaWtfcHl0aG9uJywgJy1waCcsICc3LjAnLCAnLXRuJywgJzgnLCAnLW1hJywgJzIwMCcsICctbWV0YWxfYmluZGluZycsICctaW1hZScsICc8aW5maWxlLm1hZT4nLCAnLW9tYWUnLCAnPG91dGZpbGUubWFlPic=

> <r_lp_tautomer_probability>
1

> <r_epik_Ionization_Penalty>
0.0136215

> <r_epik_Ionization_Penalty_Charging>
0.0131385

> <r_epik_Ionization_Penalty_Neutral>
0.000483022

> <r_epik_State_Penalty>
0.0104001

> <r_epik_Charging_Adjusted_Penalty>
0.0235387

> <i_epik_Tot_Q>
1

> <i_epik_Tot_abs_Q>
1

> <r_epik_Metal_State_Penalty>
0.0104469

> <b_epik_Metal_Only>
0

> <s_lp_Force_Field>
OPLS_2005

> <r_lp_Energy>
49.6468

> <b_lp_Chiralities_Consistent>
1

> <s_lp_Variant>
AV-unprocessed.smi:244-3

> <Gold.Version>
5.8.1

> <Gold.Id.Protein>
6NUR|6NUR_protein|mol2

> <Gold.PLP.Fitness>
40.7340

> <Gold.PLP.PLP>
-32.0918

> <Gold.PLP.part.hbond>
-2.4080

> <Gold.PLP.part.metal>
0.0000

> <Gold.PLP.part.buried>
-5.7419

> <Gold.PLP.part.nonpolar>
-25.1596

> <Gold.PLP.part.repulsive>
1.0611

> <Gold.PLP.ligand.clash>
0.0000

> <Gold.PLP.ligand.torsion>
0.4010

> <Gold.PLP.Chemscore.Hbond>
2.0000

> <Gold.PLP.Chemscore.CHOScore>
1.0976

> <Gold.PLP.Chemscore.Metal>
0.0000

> <Gold.Chemscore.Hbonds>
donor molecule, donor type, donor heavy atom, donor atom, acceptor molecule, acceptor atom, score
      L1  H     2    57       P1  7957  1.00
      L1  H    21    45       P1  7921  1.00
      L1  C    17    42       P1 10171  0.98
      L1  C    17    42       P1 10175  0.13

> <Gold.PLP.Chemscore.Internal.Correction>
0.1514

> <Gold.Rescore>
     Score         DG    S(hbond)    S(metal)    S(lipo)     H(rot)  DE(clash)    DE(int)     intcor
     13.71     -15.37       1.97        0.00      74.07       2.09       0.03       1.63       ----

> <Gold.Chemscore.Fitness>
13.7110

> <Gold.Chemscore.DG>
-15.3727

> <Gold.Chemscore.ZeroCoef>
-5.4800

> <Gold.Chemscore.Hbond>
1.9700

> <Gold.Chemscore.Metal>
0.0000

> <Gold.Chemscore.Lipo>
74.0673

> <Gold.Chemscore.Internal_Hbond>
0.0000

> <Gold.Chemscore.DEClash>
0.0300

> <Gold.Chemscore.DEInternal>
1.6317

> <Gold.Chemscore.Rot>
2.0911

> <Gold.Chemscore.Internal.Correction>
   9.000000E+99

> <Gold.Chemscore.Hbonds>
donor molecule, donor type, donor heavy atom, donor atom, acceptor molecule, acceptor atom, score
      L1  H     2    57       P1  7957  0.98
      L1  H    21    45       P1  7921  1.00

> <Gold.Chemscore.Hbond.Weighted>
-6.5799

> <Gold.Chemscore.Metal.Weighted>
-0.0000

> <Gold.Chemscore.Lipo.Weighted>
-8.6659

> <Gold.Chemscore.Internal_Hbond.Weighted>
0.0000

> <Gold.Chemscore.DEClash.Weighted>
0.0300

> <Gold.Chemscore.DEInternal.Weighted>
1.6317

> <Gold.Chemscore.Rot.Weighted>
5.3531

> <Gold.Chemscore.Internal.Correction.Weighted>
   9.000000E+99

> <Gold.Protein.RotatedTorsions>
[ 6907 6896 6895 6894 ] final -119.92 input  -60.11 | X-H torsion
[ 7974 7965 7964 7962 ] final   57.85 input  175.53 | X-H torsion
[ 8008 7997 7996 7995 ] final -150.82 input   59.86 | X-H torsion
[ 10167 10162 10161 10158 ] final -127.22 input  -65.29 | X-H torsion
[ 10718 10713 10712 10709 ] final   99.51 input   66.30 | X-H torsion
[ 10763 10752 10751 10750 ] final -177.15 input  -60.55 | X-H torsion
[ 11005 11000 10999 10996 ] final -133.48 input  -57.11 | X-H torsion

> <Gold.Protein.ActiveResidues>
 VAL166  LYS551  ARG553  GLY616  TRP617  ASP618  TYR619  PRO620  LYS621  CYS622 
 ASP623  PHE694  ASN695  SER759  ASP760  ASP761  ALA762  ILE779  LEU786  VAL792 
 PHE793  MET794  SER795  GLU796  ALA797  LYS798  CYS799  TRP800  GLU811  SER814 

> <Gold.Protein.RotatedAtoms>
  150.8347  133.8033  159.3084 H   0  0  0  0  0  0  0  0  0  0  0  0  # atno 6907 bound_to 6896
  151.5752  135.1059  160.0014 H   0  0  0  0  0  0  0  0  0  0  0  0  # atno 6908 bound_to 6896
  152.4421  133.7426  159.6706 H   0  0  0  0  0  0  0  0  0  0  0  0  # atno 6909 bound_to 6896
  145.9246  139.3757  143.0457 H   0  0  0  0  0  0  0  0  0  0  0  0  # atno 7974 bound_to 7965
  155.6296  140.0690  157.2653 H   0  0  0  0  0  0  0  0  0  0  0  0  # atno 8008 bound_to 7997
  154.4209  140.1770  156.1507 H   0  0  0  0  0  0  0  0  0  0  0  0  # atno 8009 bound_to 7997
  155.9944  140.3342  155.6787 H   0  0  0  0  0  0  0  0  0  0  0  0  # atno 8010 bound_to 7997
  139.9632  143.5927  152.2438 H   0  0  0  0  0  0  0  0  0  0  0  0  # atno 10167 bound_to 10162
  157.6874  131.0672  150.4959 H   0  0  0  0  0  0  0  0  0  0  0  0  # atno 10718 bound_to 10713
  154.5637  135.2822  155.0895 H   0  0  0  0  0  0  0  0  0  0  0  0  # atno 10763 bound_to 10752
  154.2294  135.6377  153.5174 H   0  0  0  0  0  0  0  0  0  0  0  0  # atno 10764 bound_to 10752
  153.0036  135.5533  154.6239 H   0  0  0  0  0  0  0  0  0  0  0  0  # atno 10765 bound_to 10752
  140.9076  134.1609  157.4413 H   0  0  0  0  0  0  0  0  0  0  0  0  # atno 11005 bound_to 11000
  145.8505  140.9531  143.0752 LP  0  0  0  0  0  0  0  0  0  0  0  0  # atno 17320 bound_to 7965
  144.6757  140.0401  143.7481 LP  0  0  0  0  0  0  0  0  0  0  0  0  # atno 17321 bound_to 7965
  139.6538  144.7661  151.2095 LP  0  0  0  0  0  0  0  0  0  0  0  0  # atno 17342 bound_to 10162
  140.7546  143.6118  150.8598 LP  0  0  0  0  0  0  0  0  0  0  0  0  # atno 17343 bound_to 10162
  156.5284  130.4178  149.6214 LP  0  0  0  0  0  0  0  0  0  0  0  0  # atno 17370 bound_to 10713
  156.3092  130.7219  151.2108 LP  0  0  0  0  0  0  0  0  0  0  0  0  # atno 17371 bound_to 10713
  139.8752  134.9923  156.5590 LP  0  0  0  0  0  0  0  0  0  0  0  0  # atno 17394 bound_to 11000
  140.8151  133.8398  155.8844 LP  0  0  0  0  0  0  0  0  0  0  0  0  # atno 17395 bound_to 11000

$$$$
