AV-unprocessed.smi:2414|AV-procd|sdf|9540|dock7
  -GOLD-   2272013173D 1   1.00000     0.00000
 Structure written by MMmdl.
 43 44  0  0  0  0  0  0  0  0  1 V2000
  144.6483  132.3994  149.2804 C   0  0  0  0  0  0  0  0  0  0  0  0
  145.0967  133.0840  150.5269 C   0  0  0  0  0  0  0  0  0  0  0  0
  146.3386  133.0282  151.1093 C   0  0  0  0  0  0  0  0  0  0  0  0
  146.4470  133.7814  152.2801 N   0  0  0  0  0  0  0  0  0  0  0  0
  145.3098  134.4095  152.5920 C   0  0  0  0  0  0  0  0  0  0  0  0
  145.1425  135.2742  153.8048 C   0  0  2  0  0  0  0  0  0  0  0  0
  144.5568  136.6498  153.4545 C   0  0  0  0  0  0  0  0  0  0  0  0
  146.4211  135.3659  154.6602 C   0  0  0  0  0  0  0  0  0  0  0  0
  147.3941  136.2855  154.0812 N   0  0  0  0  0  0  0  0  0  0  0  0
  147.7840  137.4317  154.6519 C   0  0  0  0  0  0  0  0  0  0  0  0
  147.3714  137.8330  155.7401 O   0  0  0  0  0  0  0  0  0  0  0  0
  148.6763  138.0827  153.8941 N   0  0  0  0  0  0  0  0  0  0  0  0
  149.3159  139.3499  154.2356 C   0  0  0  0  0  0  0  0  0  0  0  0
  150.6111  139.1356  155.0478 C   0  0  2  0  0  0  0  0  0  0  0  0
  151.5604  138.1170  154.3870 C   0  0  0  0  0  0  0  0  0  0  0  0
  150.3064  138.7433  156.5050 C   0  0  0  0  0  0  0  0  0  0  0  0
  151.3189  139.5378  157.3003 C   0  0  0  0  0  0  0  0  0  0  0  0
  151.3949  140.8179  156.4827 C   0  0  0  0  0  0  0  0  0  0  0  0
  151.3143  140.3783  155.1331 O   0  0  0  0  0  0  0  0  0  0  0  0
  144.0144  134.1021  151.4408 S   0  0  0  0  0  0  0  0  0  0  0  0
  144.9647  131.3562  149.2765 H   0  0  0  0  0  0  0  0  0  0  0  0
  145.0714  132.8842  148.4007 H   0  0  0  0  0  0  0  0  0  0  0  0
  143.5623  132.4203  149.1877 H   0  0  0  0  0  0  0  0  0  0  0  0
  147.1999  132.4779  150.7602 H   0  0  0  0  0  0  0  0  0  0  0  0
  144.3947  134.7790  154.4262 H   0  0  0  0  0  0  0  0  0  0  0  0
  143.6011  136.5495  152.9390 H   0  0  0  0  0  0  0  0  0  0  0  0
  145.2281  137.2133  152.8058 H   0  0  0  0  0  0  0  0  0  0  0  0
  144.3870  137.2443  154.3524 H   0  0  0  0  0  0  0  0  0  0  0  0
  146.1675  135.7095  155.6645 H   0  0  0  0  0  0  0  0  0  0  0  0
  146.8738  134.3789  154.7664 H   0  0  0  0  0  0  0  0  0  0  0  0
  147.7864  136.0364  153.1849 H   0  0  0  0  0  0  0  0  0  0  0  0
  148.9479  137.6658  153.0156 H   0  0  0  0  0  0  0  0  0  0  0  0
  149.5363  139.8758  153.3060 H   0  0  0  0  0  0  0  0  0  0  0  0
  148.6386  139.9918  154.8017 H   0  0  0  0  0  0  0  0  0  0  0  0
  151.0795  137.1444  154.2799 H   0  0  0  0  0  0  0  0  0  0  0  0
  152.4635  137.9758  154.9812 H   0  0  0  0  0  0  0  0  0  0  0  0
  151.8763  138.4414  153.3953 H   0  0  0  0  0  0  0  0  0  0  0  0
  149.3027  139.0624  156.7896 H   0  0  0  0  0  0  0  0  0  0  0  0
  150.3717  137.6702  156.6881 H   0  0  0  0  0  0  0  0  0  0  0  0
  151.0165  139.7078  158.3338 H   0  0  0  0  0  0  0  0  0  0  0  0
  152.2844  139.0304  157.3020 H   0  0  0  0  0  0  0  0  0  0  0  0
  150.5414  141.4624  156.6981 H   0  0  0  0  0  0  0  0  0  0  0  0
  152.3080  141.3842  156.6672 H   0  0  0  0  0  0  0  0  0  0  0  0
  1  2  1  0  0  0  0
  1 21  1  0  0  0  0
  1 22  1  0  0  0  0
  1 23  1  0  0  0  0
  2 20  1  0  0  0  0
  2  3  2  0  0  0  0
  3  4  1  0  0  0  0
  3 24  1  0  0  0  0
  4  5  2  0  0  0  0
  5  6  1  0  0  0  0
  5 20  1  0  0  0  0
  6  7  1  0  0  0  0
  6  8  1  0  0  0  0
  6 25  1  0  0  0  0
  7 26  1  0  0  0  0
  7 27  1  0  0  0  0
  7 28  1  0  0  0  0
  8  9  1  0  0  0  0
  8 29  1  0  0  0  0
  8 30  1  0  0  0  0
  9 10  1  0  0  0  0
  9 31  1  0  0  0  0
 10 11  2  0  0  0  0
 10 12  1  0  0  0  0
 12 13  1  0  0  0  0
 12 32  1  0  0  0  0
 13 14  1  0  0  0  0
 13 33  1  0  0  0  0
 13 34  1  0  0  0  0
 14 19  1  0  0  0  0
 14 15  1  0  0  0  0
 14 16  1  0  0  0  0
 15 35  1  0  0  0  0
 15 36  1  0  0  0  0
 15 37  1  0  0  0  0
 16 17  1  0  0  0  0
 16 38  1  0  0  0  0
 16 39  1  0  0  0  0
 17 18  1  0  0  0  0
 17 40  1  0  0  0  0
 17 41  1  0  0  0  0
 18 19  1  0  0  0  0
 18 42  1  0  0  0  0
 18 43  1  0  0  0  0
M  END
> <s_m_source_file>
AV-unprocessed.smi

> <i_m_source_file_index>
2414

> <i_lp_mmshare_version>
43012

> <i_f3d_flags>
0

> <s_epik_input>
W0NIM11jMVtjSF1uYyhzMSlbQ0BIXShbQ0gzXSlbQ0gyXVtOSF1DKD1PKVtOSF1bQ0gyXVtDQEBdMihbQ0gzXSlbQ0gyXVtDSDJdW0NIMl1PMg==

> <s_epik_cmdline>
J2VwaWtfcHl0aG9uJywgJy1waCcsICc3LjAnLCAnLXRuJywgJzgnLCAnLW1hJywgJzIwMCcsICctbWV0YWxfYmluZGluZycsICctaW1hZScsICc8aW5maWxlLm1hZT4nLCAnLW9tYWUnLCAnPG91dGZpbGUubWFlPic=

> <r_epik_Ionization_Penalty>
0.000646956

> <r_epik_Ionization_Penalty_Charging>
0

> <r_epik_Ionization_Penalty_Neutral>
0.000646956

> <r_epik_State_Penalty>
0.000375727

> <r_epik_Charging_Adjusted_Penalty>
0.000375727

> <i_epik_Tot_Q>
0

> <i_epik_Tot_abs_Q>
0

> <r_epik_Metal_State_Penalty>
-0

> <b_epik_Metal_Only>
0

> <s_lp_Force_Field>
OPLS_2005

> <r_lp_Energy>
9.0626

> <b_lp_Chiralities_Consistent>
1

> <s_lp_Variant>
AV-unprocessed.smi:2414-3

> <Gold.Version>
5.8.1

> <Gold.Id.Protein>
6NUR|6NUR_protein|mol2

> <Gold.PLP.Fitness>
39.8129

> <Gold.PLP.PLP>
-28.6827

> <Gold.PLP.part.hbond>
-3.0000

> <Gold.PLP.part.metal>
0.0000

> <Gold.PLP.part.buried>
-4.5728

> <Gold.PLP.part.nonpolar>
-20.8729

> <Gold.PLP.part.repulsive>
0.1899

> <Gold.PLP.ligand.clash>
0.0000

> <Gold.PLP.ligand.torsion>
0.4805

> <Gold.PLP.Chemscore.Hbond>
2.9920

> <Gold.PLP.Chemscore.CHOScore>
1.0000

> <Gold.PLP.Chemscore.Metal>
0.0000

> <Gold.Chemscore.Hbonds>
donor molecule, donor type, donor heavy atom, donor atom, acceptor molecule, acceptor atom, score
      L1  H     9    31       P1  7948  1.00
      L1  H    12    32       P1  7948  1.00
      P1  H  7989  7998       L1    19  0.99
      L1  C     3    24       P1 10747  1.00

> <Gold.PLP.Chemscore.Internal.Correction>
0.1152

> <Gold.Rescore>
     Score         DG    S(hbond)    S(metal)    S(lipo)     H(rot)  DE(clash)    DE(int)     intcor
     19.37     -20.00       2.87        0.00      78.28       1.65       0.04       0.59       ----

> <Gold.Chemscore.Fitness>
19.3673

> <Gold.Chemscore.DG>
-19.9986

> <Gold.Chemscore.ZeroCoef>
-5.4800

> <Gold.Chemscore.Hbond>
2.8712

> <Gold.Chemscore.Metal>
0.0000

> <Gold.Chemscore.Lipo>
78.2750

> <Gold.Chemscore.Internal_Hbond>
0.0000

> <Gold.Chemscore.DEClash>
0.0447

> <Gold.Chemscore.DEInternal>
0.5866

> <Gold.Chemscore.Rot>
1.6522

> <Gold.Chemscore.Internal.Correction>
   9.000000E+99

> <Gold.Chemscore.Hbonds>
donor molecule, donor type, donor heavy atom, donor atom, acceptor molecule, acceptor atom, score
      L1  H     9    31       P1  7948  0.97
      L1  H    12    32       P1  7948  0.96
      P1  H  7989  7998       L1    19  0.57

> <Gold.Chemscore.Hbond.Weighted>
-9.5899

> <Gold.Chemscore.Metal.Weighted>
-0.0000

> <Gold.Chemscore.Lipo.Weighted>
-9.1582

> <Gold.Chemscore.Internal_Hbond.Weighted>
0.0000

> <Gold.Chemscore.DEClash.Weighted>
0.0447

> <Gold.Chemscore.DEInternal.Weighted>
0.5866

> <Gold.Chemscore.Rot.Weighted>
4.2295

> <Gold.Chemscore.Internal.Correction.Weighted>
   9.000000E+99

> <Gold.Protein.RotatedTorsions>
[ 6907 6896 6895 6894 ] final   57.90 input  -60.11 | X-H torsion
[ 7974 7965 7964 7962 ] final   85.22 input  175.53 | X-H torsion
[ 8008 7997 7996 7995 ] final   93.16 input   59.86 | X-H torsion
[ 10167 10162 10161 10158 ] final   18.51 input  -65.29 | X-H torsion
[ 10718 10713 10712 10709 ] final -155.00 input   66.30 | X-H torsion
[ 10763 10752 10751 10750 ] final -114.73 input  -60.55 | X-H torsion
[ 11005 11000 10999 10996 ] final -161.21 input  -57.11 | X-H torsion

> <Gold.Protein.ActiveResidues>
 VAL166  LYS551  ARG553  GLY616  TRP617  ASP618  TYR619  PRO620  LYS621  CYS622 
 ASP623  PHE694  ASN695  SER759  ASP760  ASP761  ALA762  ILE779  LEU786  VAL792 
 PHE793  MET794  SER795  GLU796  ALA797  LYS798  CYS799  TRP800  GLU811  SER814 

> <Gold.Protein.RotatedAtoms>
  152.3774  134.6642  160.0154 H   0  0  0  0  0  0  0  0  0  0  0  0  # atno 6907 bound_to 6896
  151.6916  133.3305  159.3252 H   0  0  0  0  0  0  0  0  0  0  0  0  # atno 6908 bound_to 6896
  150.7721  134.6629  159.6394 H   0  0  0  0  0  0  0  0  0  0  0  0  # atno 6909 bound_to 6896
  145.5884  139.2334  143.2313 H   0  0  0  0  0  0  0  0  0  0  0  0  # atno 7974 bound_to 7965
  156.0436  140.3316  155.7272 H   0  0  0  0  0  0  0  0  0  0  0  0  # atno 8008 bound_to 7997
  155.5707  140.0627  157.2825 H   0  0  0  0  0  0  0  0  0  0  0  0  # atno 8009 bound_to 7997
  154.4404  140.1861  156.0864 H   0  0  0  0  0  0  0  0  0  0  0  0  # atno 8010 bound_to 7997
  140.5648  143.9271  150.6668 H   0  0  0  0  0  0  0  0  0  0  0  0  # atno 10167 bound_to 10162
  156.5069  130.8417  151.2631 H   0  0  0  0  0  0  0  0  0  0  0  0  # atno 10718 bound_to 10713
  154.8452  135.4407  154.1552 H   0  0  0  0  0  0  0  0  0  0  0  0  # atno 10763 bound_to 10752
  153.2702  135.6944  153.7494 H   0  0  0  0  0  0  0  0  0  0  0  0  # atno 10764 bound_to 10752
  153.6737  135.3414  155.3135 H   0  0  0  0  0  0  0  0  0  0  0  0  # atno 10765 bound_to 10752
  140.6229  134.4732  157.5225 H   0  0  0  0  0  0  0  0  0  0  0  0  # atno 11005 bound_to 11000
  146.1665  140.6711  142.9253 LP  0  0  0  0  0  0  0  0  0  0  0  0  # atno 17320 bound_to 7965
  144.7362  140.4815  143.6902 LP  0  0  0  0  0  0  0  0  0  0  0  0  # atno 17321 bound_to 7965
  140.2731  143.3442  152.1219 LP  0  0  0  0  0  0  0  0  0  0  0  0  # atno 17342 bound_to 10162
  139.5087  144.6855  151.5898 LP  0  0  0  0  0  0  0  0  0  0  0  0  # atno 17343 bound_to 10162
  157.7455  130.9963  150.2774 LP  0  0  0  0  0  0  0  0  0  0  0  0  # atno 17370 bound_to 10713
  156.3278  130.3795  149.7518 LP  0  0  0  0  0  0  0  0  0  0  0  0  # atno 17371 bound_to 10713
  139.9146  134.8273  156.1409 LP  0  0  0  0  0  0  0  0  0  0  0  0  # atno 17394 bound_to 11000
  141.0730  133.6788  156.2178 LP  0  0  0  0  0  0  0  0  0  0  0  0  # atno 17395 bound_to 11000

$$$$
