AV-unprocessed.smi:158|AV-procd|sdf|1323|dock7
  -GOLD-   2262019 13D 1   1.00000     0.00000
 Structure written by MMmdl.
 31 33  0  0  0  0  0  0  0  0  1 V2000
  145.2167  138.6361  153.0147 N   0  0  0  0  0  0  0  0  0  0  0  0
  146.3789  138.6286  153.6828 C   0  0  0  0  0  0  0  0  0  0  0  0
  146.8650  137.4428  154.1178 N   0  0  0  0  0  0  0  0  0  0  0  0
  148.0225  137.3927  154.7882 C   0  0  0  0  0  0  0  0  0  0  0  0
  148.5510  135.8322  155.2966 Cl  0  0  0  0  0  0  0  0  0  0  0  0
  148.8178  138.4179  155.1095 N   0  0  0  0  0  0  0  0  0  0  0  0
  148.3322  139.6159  154.6736 C   0  0  0  0  0  0  0  0  0  0  0  0
  147.1219  139.8036  153.9540 C   0  0  0  0  0  0  0  0  0  0  0  0
  146.9421  141.1507  153.6717 N   0  0  0  0  0  0  0  0  0  0  0  0
  147.9918  141.7235  154.1974 C   0  0  0  0  0  0  0  0  0  0  0  0
  148.8795  140.8749  154.8227 N   0  0  0  0  0  0  0  0  0  0  0  0
  150.1582  141.2418  155.5114 C   0  0  2  0  0  0  0  0  0  0  0  0
  151.1874  140.5034  154.9256 O   0  0  0  0  0  0  0  0  0  0  0  0
  151.9877  139.8932  155.9325 C   0  0  2  0  0  0  0  0  0  0  0  0
  152.6272  138.6121  155.3730 C   0  0  0  0  0  0  0  0  0  0  0  0
  153.8657  138.9028  154.7598 O   0  0  0  0  0  0  0  0  0  0  0  0
  151.0206  139.6718  157.0997 C   0  0  1  0  0  0  0  0  0  0  0  0
  151.6990  139.6391  158.3392 O   0  0  0  0  0  0  0  0  0  0  0  0
  150.1273  140.8962  157.0107 C   0  0  2  0  0  0  0  0  0  0  0  0
  148.8878  140.6558  157.4456 F   0  0  0  0  0  0  0  0  0  0  0  0
  150.2802  142.3083  155.3190 H   0  0  0  0  0  0  0  0  0  0  0  0
  152.7577  140.6160  156.2099 H   0  0  0  0  0  0  0  0  0  0  0  0
  150.4406  138.7593  156.9607 H   0  0  0  0  0  0  0  0  0  0  0  0
  150.5349  141.7400  157.5695 H   0  0  0  0  0  0  0  0  0  0  0  0
  144.8360  139.5098  152.6807 H   0  0  0  0  0  0  0  0  0  0  0  0
  144.7242  137.7706  152.8471 H   0  0  0  0  0  0  0  0  0  0  0  0
  148.1471  142.7915  154.1460 H   0  0  0  0  0  0  0  0  0  0  0  0
  152.7714  137.8683  156.1570 H   0  0  0  0  0  0  0  0  0  0  0  0
  151.9733  138.1663  154.6232 H   0  0  0  0  0  0  0  0  0  0  0  0
  154.3725  138.1062  154.7153 H   0  0  0  0  0  0  0  0  0  0  0  0
  151.2651  140.2356  158.9308 H   0  0  0  0  0  0  0  0  0  0  0  0
  1  2  1  0  0  0  0
  1 25  1  0  0  0  0
  1 26  1  0  0  0  0
  2  8  1  0  0  0  0
  2  3  2  0  0  0  0
  3  4  1  0  0  0  0
  4  5  1  0  0  0  0
  4  6  2  0  0  0  0
  6  7  1  0  0  0  0
  7 11  1  0  0  0  0
  7  8  2  0  0  0  0
  8  9  1  0  0  0  0
  9 10  2  0  0  0  0
 10 11  1  0  0  0  0
 10 27  1  0  0  0  0
 11 12  1  0  0  0  0
 12 21  1  0  0  0  0
 12 19  1  0  0  0  0
 12 13  1  0  0  0  0
 13 14  1  0  0  0  0
 14 22  1  0  0  0  0
 14 15  1  0  0  0  0
 14 17  1  0  0  0  0
 15 16  1  0  0  0  0
 15 28  1  0  0  0  0
 15 29  1  0  0  0  0
 16 30  1  0  0  0  0
 17 23  1  0  0  0  0
 17 18  1  0  0  0  0
 17 19  1  0  0  0  0
 18 31  1  0  0  0  0
 19 24  1  0  0  0  0
 19 20  1  0  0  0  0
M  END
> <s_m_source_file>
AV-unprocessed.smi

> <i_m_source_file_index>
158

> <i_lp_mmshare_version>
43012

> <i_f3d_flags>
0

> <s_epik_input>
Q2xjKG4xKW5jKFtOSDJdKWMoYzEyKW5bY0hdbjJbQ0BASF0zT1tDQEhdKFtDSDJdW09IXSlbQ0BASF0oW09IXSlbQ0BASF0zRg==

> <s_epik_cmdline>
J2VwaWtfcHl0aG9uJywgJy1waCcsICc3LjAnLCAnLXRuJywgJzgnLCAnLW1hJywgJzIwMCcsICctbWV0YWxfYmluZGluZycsICctaW1hZScsICc8aW5maWxlLm1hZT4nLCAnLW9tYWUnLCAnPG91dGZpbGUubWFlPic=

> <r_lp_tautomer_probability>
1

> <r_epik_Ionization_Penalty>
6.51543e-05

> <r_epik_Ionization_Penalty_Charging>
0

> <r_epik_Ionization_Penalty_Neutral>
6.51543e-05

> <r_epik_State_Penalty>
-0

> <r_epik_Charging_Adjusted_Penalty>
0

> <i_epik_Tot_Q>
0

> <i_epik_Tot_abs_Q>
0

> <r_epik_Metal_State_Penalty>
-0

> <b_epik_Metal_Only>
0

> <s_epik_Chemistry_Notes>
This compound contains an acetal/aminal-like group ( X-CH(R)-Y where X, Y are N, S, or O) that may be acid/base labile, releasing an aldehyde.

> <s_lp_Force_Field>
OPLS_2005

> <r_lp_Energy>
34.2201

> <b_lp_Chiralities_Consistent>
1

> <s_lp_Variant>
AV-unprocessed.smi:158-1

> <Gold.Version>
5.8.1

> <Gold.Id.Protein>
6NUR|6NUR_protein|mol2

> <Gold.PLP.Fitness>
36.6480

> <Gold.PLP.PLP>
-25.4716

> <Gold.PLP.part.hbond>
-2.5209

> <Gold.PLP.part.metal>
0.0000

> <Gold.PLP.part.buried>
-4.5951

> <Gold.PLP.part.nonpolar>
-19.5047

> <Gold.PLP.part.repulsive>
0.4524

> <Gold.PLP.ligand.clash>
0.0000

> <Gold.PLP.ligand.torsion>
0.3410

> <Gold.PLP.Chemscore.Hbond>
2.9440

> <Gold.PLP.Chemscore.CHOScore>
0.9986

> <Gold.PLP.Chemscore.Metal>
0.0000

> <Gold.Chemscore.Hbonds>
donor molecule, donor type, donor heavy atom, donor atom, acceptor molecule, acceptor atom, score
      L1  H     1    25       P1 10175  0.96
      P1  H  7989  7998       L1    13  1.00
      P1  H  7997  8009       L1    16  0.94
      L1  C    10    27       P1  8028  1.00

> <Gold.PLP.Chemscore.Internal.Correction>
0.0306

> <Gold.Rescore>
     Score         DG    S(hbond)    S(metal)    S(lipo)     H(rot)  DE(clash)    DE(int)     intcor
      8.95     -10.20       2.74        0.00      30.36       3.12       0.01       1.24       ----

> <Gold.Chemscore.Fitness>
8.9467

> <Gold.Chemscore.DG>
-10.2034

> <Gold.Chemscore.ZeroCoef>
-5.4800

> <Gold.Chemscore.Hbond>
2.7445

> <Gold.Chemscore.Metal>
0.0000

> <Gold.Chemscore.Lipo>
30.3569

> <Gold.Chemscore.Internal_Hbond>
0.0000

> <Gold.Chemscore.DEClash>
0.0121

> <Gold.Chemscore.DEInternal>
1.2446

> <Gold.Chemscore.Rot>
3.1230

> <Gold.Chemscore.Internal.Correction>
   9.000000E+99

> <Gold.Chemscore.Hbonds>
donor molecule, donor type, donor heavy atom, donor atom, acceptor molecule, acceptor atom, score
      L1  H     1    25       P1 10175  0.88
      P1  H  7989  7998       L1    13  0.84
      P1  H  7997  8009       L1    16  0.56

> <Gold.Chemscore.Hbond.Weighted>
-9.1666

> <Gold.Chemscore.Metal.Weighted>
-0.0000

> <Gold.Chemscore.Lipo.Weighted>
-3.5518

> <Gold.Chemscore.Internal_Hbond.Weighted>
0.0000

> <Gold.Chemscore.DEClash.Weighted>
0.0121

> <Gold.Chemscore.DEInternal.Weighted>
1.2446

> <Gold.Chemscore.Rot.Weighted>
7.9950

> <Gold.Chemscore.Internal.Correction.Weighted>
   9.000000E+99

> <Gold.Protein.RotatedTorsions>
[ 6907 6896 6895 6894 ] final  142.90 input  -60.11 | X-H torsion
[ 7974 7965 7964 7962 ] final  119.57 input  175.53 | X-H torsion
[ 8008 7997 7996 7995 ] final -117.67 input   59.86 | X-H torsion
[ 10167 10162 10161 10158 ] final -134.01 input  -65.29 | X-H torsion
[ 10718 10713 10712 10709 ] final  -45.29 input   66.30 | X-H torsion
[ 10763 10752 10751 10750 ] final  -17.62 input  -60.55 | X-H torsion
[ 11005 11000 10999 10996 ] final -176.45 input  -57.11 | X-H torsion

> <Gold.Protein.ActiveResidues>
 VAL166  LYS551  ARG553  GLY616  TRP617  ASP618  TYR619  PRO620  LYS621  CYS622 
 ASP623  PHE694  ASN695  SER759  ASP760  ASP761  ALA762  ILE779  LEU786  VAL792 
 PHE793  MET794  SER795  GLU796  ALA797  LYS798  CYS799  TRP800  GLU811  SER814 

> <Gold.Protein.RotatedAtoms>
  152.2130  133.4925  159.5120 H   0  0  0  0  0  0  0  0  0  0  0  0  # atno 6907 bound_to 6896
  150.6994  134.1442  159.4125 H   0  0  0  0  0  0  0  0  0  0  0  0  # atno 6908 bound_to 6896
  151.9362  135.0234  160.0583 H   0  0  0  0  0  0  0  0  0  0  0  0  # atno 6909 bound_to 6896
  145.1415  139.3265  143.4613 H   0  0  0  0  0  0  0  0  0  0  0  0  # atno 7974 bound_to 7965
  155.0874  140.0394  157.2658 H   0  0  0  0  0  0  0  0  0  0  0  0  # atno 8008 bound_to 7997
  154.6859  140.2643  155.6836 H   0  0  0  0  0  0  0  0  0  0  0  0  # atno 8009 bound_to 7997
  156.2711  140.2769  156.1419 H   0  0  0  0  0  0  0  0  0  0  0  0  # atno 8010 bound_to 7997
  139.8924  143.6706  152.2610 H   0  0  0  0  0  0  0  0  0  0  0  0  # atno 10167 bound_to 10162
  156.2298  130.4172  149.8888 H   0  0  0  0  0  0  0  0  0  0  0  0  # atno 10718 bound_to 10713
  153.5766  135.7006  153.5481 H   0  0  0  0  0  0  0  0  0  0  0  0  # atno 10763 bound_to 10752
  153.3297  135.4051  155.1485 H   0  0  0  0  0  0  0  0  0  0  0  0  # atno 10764 bound_to 10752
  154.8624  135.3716  154.5292 H   0  0  0  0  0  0  0  0  0  0  0  0  # atno 10765 bound_to 10752
  140.4520  134.6334  157.4805 H   0  0  0  0  0  0  0  0  0  0  0  0  # atno 11005 bound_to 11000
  146.3504  140.1454  142.8593 LP  0  0  0  0  0  0  0  0  0  0  0  0  # atno 17320 bound_to 7965
  145.0527  140.9029  143.4986 LP  0  0  0  0  0  0  0  0  0  0  0  0  # atno 17321 bound_to 7965
  139.7097  144.7622  151.1132 LP  0  0  0  0  0  0  0  0  0  0  0  0  # atno 17342 bound_to 10162
  140.7724  143.5347  150.9382 LP  0  0  0  0  0  0  0  0  0  0  0  0  # atno 17343 bound_to 10162
  156.6506  130.8742  151.3530 LP  0  0  0  0  0  0  0  0  0  0  0  0  # atno 17370 bound_to 10713
  157.7128  130.9460  150.1148 LP  0  0  0  0  0  0  0  0  0  0  0  0  # atno 17371 bound_to 10713
  140.0001  134.6850  155.9545 LP  0  0  0  0  0  0  0  0  0  0  0  0  # atno 17394 bound_to 11000
  141.1660  133.6537  156.4481 LP  0  0  0  0  0  0  0  0  0  0  0  0  # atno 17395 bound_to 11000

$$$$
