AV-unprocessed.smi:148|AV-procd|sdf|1216|dock10
  -GOLD-   2262018403D 1   1.00000     0.00000
 Structure written by MMmdl.
 63 67  0  0  0  0  0  0  0  0  1 V2000
  147.1499  134.1985  163.3100 O   0  0  0  0  0  0  0  0  0  0  0  0
  146.9980  134.2819  161.9083 C   0  0  0  0  0  0  0  0  0  0  0  0
  148.0972  133.4794  161.1722 C   0  0  2  0  0  0  0  0  0  0  0  0
  148.1805  133.8733  159.6745 C   0  0  0  0  0  0  0  0  0  0  0  0
  148.6809  135.2226  159.4817 N   0  0  0  0  0  0  0  0  0  0  0  0
  148.8631  136.1770  160.4573 C   0  0  0  0  0  0  0  0  0  0  0  0
  149.3096  137.3281  160.0339 N   0  0  0  0  0  0  0  0  0  0  0  0
  149.4465  137.1499  158.6633 C   0  0  0  0  0  0  0  0  0  0  0  0
  149.8519  137.9917  157.5956 C   0  0  0  0  0  0  0  0  0  0  0  0
  150.2044  139.2819  157.7980 N   0  0  0  0  0  0  0  0  0  0  0  0
  151.3757  139.3447  158.6724 C   0  0  0  0  0  0  0  0  0  0  0  0
  151.6763  140.7849  159.1042 C   0  0  0  0  0  0  0  0  0  0  0  0
  151.8419  141.6802  157.8733 C   0  0  0  0  0  0  0  0  0  0  0  0
  150.5863  141.5999  156.9953 C   0  0  0  0  0  0  0  0  0  0  0  0
  150.2463  140.1389  156.5976 C   0  0  2  0  0  0  0  0  0  0  0  0
  148.9520  140.0235  155.7294 C   0  0  1  0  0  0  0  0  0  0  0  0
  147.6156  140.0088  156.4978 C   0  0  0  0  0  0  0  0  0  0  0  0
  146.5642  140.6126  155.5521 C   0  0  0  0  0  0  0  0  0  0  0  0
  147.2940  140.9257  154.2421 C   0  0  0  0  0  0  0  0  0  0  0  0
  148.7551  141.1018  154.6539 C   0  0  2  0  0  0  0  0  0  0  0  0
  149.6252  140.9265  153.5550 O   0  0  0  0  0  0  0  0  0  0  0  0
  149.8717  137.4672  156.3412 N   0  0  0  0  0  0  0  0  0  0  0  0
  149.4995  136.1987  156.1443 C   0  0  0  0  0  0  0  0  0  0  0  0
  149.0804  135.3023  157.0408 N   0  0  0  0  0  0  0  0  0  0  0  0
  149.0701  135.8277  158.2999 C   0  0  0  0  0  0  0  0  0  0  0  0
  147.9443  131.9498  161.3974 C   0  0  2  0  0  0  0  0  0  0  0  0
  149.0406  131.0746  160.7874 C   0  0  0  0  0  0  0  0  0  0  0  0
  148.2777  129.9334  160.1119 C   0  0  0  0  0  0  0  0  0  0  0  0
  146.9987  129.9497  160.7261 O   0  0  0  0  0  0  0  0  0  0  0  0
  146.6453  131.3123  160.8905 C   0  0  0  0  0  0  0  0  0  0  0  0
  147.8173  134.8121  163.5768 H   0  0  0  0  0  0  0  0  0  0  0  0
  146.0051  133.9285  161.6291 H   0  0  0  0  0  0  0  0  0  0  0  0
  147.0418  135.3392  161.6490 H   0  0  0  0  0  0  0  0  0  0  0  0
  149.0490  133.7620  161.6252 H   0  0  0  0  0  0  0  0  0  0  0  0
  148.8357  133.2013  159.1220 H   0  0  0  0  0  0  0  0  0  0  0  0
  147.2018  133.8026  159.2007 H   0  0  0  0  0  0  0  0  0  0  0  0
  148.6437  135.9930  161.4991 H   0  0  0  0  0  0  0  0  0  0  0  0
  151.2121  138.7280  159.5576 H   0  0  0  0  0  0  0  0  0  0  0  0
  152.2401  138.9301  158.1515 H   0  0  0  0  0  0  0  0  0  0  0  0
  150.8653  141.1603  159.7297 H   0  0  0  0  0  0  0  0  0  0  0  0
  152.5804  140.8123  159.7130 H   0  0  0  0  0  0  0  0  0  0  0  0
  152.0224  142.7113  158.1787 H   0  0  0  0  0  0  0  0  0  0  0  0
  152.7149  141.3648  157.3007 H   0  0  0  0  0  0  0  0  0  0  0  0
  149.7563  142.0544  157.5351 H   0  0  0  0  0  0  0  0  0  0  0  0
  150.7527  142.2128  156.1109 H   0  0  0  0  0  0  0  0  0  0  0  0
  151.0760  139.7798  155.9868 H   0  0  0  0  0  0  0  0  0  0  0  0
  148.9918  139.0812  155.1803 H   0  0  0  0  0  0  0  0  0  0  0  0
  147.3460  138.9936  156.7888 H   0  0  0  0  0  0  0  0  0  0  0  0
  147.6612  140.5971  157.4130 H   0  0  0  0  0  0  0  0  0  0  0  0
  145.7230  139.9377  155.3905 H   0  0  0  0  0  0  0  0  0  0  0  0
  146.1666  141.5314  155.9849 H   0  0  0  0  0  0  0  0  0  0  0  0
  147.1960  140.0758  153.5645 H   0  0  0  0  0  0  0  0  0  0  0  0
  146.8902  141.8020  153.7343 H   0  0  0  0  0  0  0  0  0  0  0  0
  148.8810  142.1036  155.0617 H   0  0  0  0  0  0  0  0  0  0  0  0
  149.2357  140.3042  152.9600 H   0  0  0  0  0  0  0  0  0  0  0  0
  149.5386  135.8538  155.1216 H   0  0  0  0  0  0  0  0  0  0  0  0
  147.9846  131.7587  162.4705 H   0  0  0  0  0  0  0  0  0  0  0  0
  149.6812  131.5956  160.0768 H   0  0  0  0  0  0  0  0  0  0  0  0
  149.6869  130.6877  161.5760 H   0  0  0  0  0  0  0  0  0  0  0  0
  148.1656  130.1262  159.0440 H   0  0  0  0  0  0  0  0  0  0  0  0
  148.7688  128.9680  160.2347 H   0  0  0  0  0  0  0  0  0  0  0  0
  145.8196  131.4285  161.5930 H   0  0  0  0  0  0  0  0  0  0  0  0
  146.3305  131.7099  159.9260 H   0  0  0  0  0  0  0  0  0  0  0  0
  1  2  1  0  0  0  0
  1 31  1  0  0  0  0
  2  3  1  0  0  0  0
  2 32  1  0  0  0  0
  2 33  1  0  0  0  0
  3  4  1  0  0  0  0
  3 26  1  0  0  0  0
  3 34  1  0  0  0  0
  4  5  1  0  0  0  0
  4 35  1  0  0  0  0
  4 36  1  0  0  0  0
  5 25  1  0  0  0  0
  5  6  1  0  0  0  0
  6  7  2  0  0  0  0
  6 37  1  0  0  0  0
  7  8  1  0  0  0  0
  8 25  2  0  0  0  0
  8  9  1  0  0  0  0
  9 10  1  0  0  0  0
  9 22  2  0  0  0  0
 10 15  1  0  0  0  0
 10 11  1  0  0  0  0
 11 12  1  0  0  0  0
 11 38  1  0  0  0  0
 11 39  1  0  0  0  0
 12 13  1  0  0  0  0
 12 40  1  0  0  0  0
 12 41  1  0  0  0  0
 13 14  1  0  0  0  0
 13 42  1  0  0  0  0
 13 43  1  0  0  0  0
 14 15  1  0  0  0  0
 14 44  1  0  0  0  0
 14 45  1  0  0  0  0
 15 16  1  0  0  0  0
 15 46  1  0  0  0  0
 16 20  1  0  0  0  0
 16 17  1  0  0  0  0
 16 47  1  0  0  0  0
 17 18  1  0  0  0  0
 17 48  1  0  0  0  0
 17 49  1  0  0  0  0
 18 19  1  0  0  0  0
 18 50  1  0  0  0  0
 18 51  1  0  0  0  0
 19 20  1  0  0  0  0
 19 52  1  0  0  0  0
 19 53  1  0  0  0  0
 20 21  1  0  0  0  0
 20 54  1  0  0  0  0
 21 55  1  0  0  0  0
 22 23  1  0  0  0  0
 23 24  2  0  0  0  0
 23 56  1  0  0  0  0
 24 25  1  0  0  0  0
 26 30  1  0  0  0  0
 26 27  1  0  0  0  0
 26 57  1  0  0  0  0
 27 28  1  0  0  0  0
 27 58  1  0  0  0  0
 27 59  1  0  0  0  0
 28 29  1  0  0  0  0
 28 60  1  0  0  0  0
 28 61  1  0  0  0  0
 29 30  1  0  0  0  0
 30 62  1  0  0  0  0
 30 63  1  0  0  0  0
M  END
> <s_m_source_file>
AV-unprocessed.smi

> <i_m_source_file_index>
148

> <i_lp_mmshare_version>
43012

> <i_f3d_flags>
0

> <s_epik_input>
W0NIMl0xT1tDSDJdW0NIMl1bQ0BIXTFbQ0BIXShbQ0gyXVtPSF0pW0NIMl1uKFtjSF1uMiljKGMyMyluW2NIXW5jM040W0NIMl1bQ0gyXVtDSDJdW0NIMl1bQ0BIXTRbQ0BASF01W0NIMl1bQ0gyXVtDSDJdW0NASF01W09IXQ==

> <s_epik_cmdline>
J2VwaWtfcHl0aG9uJywgJy1waCcsICc3LjAnLCAnLXRuJywgJzgnLCAnLW1hJywgJzIwMCcsICctbWV0YWxfYmluZGluZycsICctaW1hZScsICc8aW5maWxlLm1hZT4nLCAnLW9tYWUnLCAnPG91dGZpbGUubWFlPic=

> <r_lp_tautomer_probability>
1

> <r_epik_Ionization_Penalty>
0.00556303

> <r_epik_Ionization_Penalty_Charging>
0

> <r_epik_Ionization_Penalty_Neutral>
0.00556303

> <r_epik_State_Penalty>
0.00401767

> <r_epik_Charging_Adjusted_Penalty>
0.00401767

> <i_epik_Tot_Q>
0

> <i_epik_Tot_abs_Q>
0

> <r_epik_Metal_State_Penalty>
-0

> <b_epik_Metal_Only>
0

> <s_lp_Force_Field>
OPLS_2005

> <r_lp_Energy>
68.7662

> <b_lp_Chiralities_Consistent>
1

> <s_lp_Variant>
AV-unprocessed.smi:148-15

> <Gold.Version>
5.8.1

> <Gold.Id.Protein>
6NUR|6NUR_protein|mol2

> <Gold.PLP.Fitness>
44.4980

> <Gold.PLP.PLP>
-39.2124

> <Gold.PLP.part.hbond>
-5.2244

> <Gold.PLP.part.metal>
0.0000

> <Gold.PLP.part.buried>
-5.2818

> <Gold.PLP.part.nonpolar>
-28.5601

> <Gold.PLP.part.repulsive>
0.0205

> <Gold.PLP.ligand.clash>
0.0000

> <Gold.PLP.ligand.torsion>
0.8087

> <Gold.PLP.Chemscore.Hbond>
2.1672

> <Gold.PLP.Chemscore.CHOScore>
0.0000

> <Gold.PLP.Chemscore.Metal>
0.0000

> <Gold.Chemscore.Hbonds>
donor molecule, donor type, donor heavy atom, donor atom, acceptor molecule, acceptor atom, score
      L1  H    21    55       P1  7957  0.56
      P1  H  6931  6943       L1     7  0.22
      P1  H  7989  7998       L1    21  0.32
      P1  H  8011  8017       L1    21  0.90

> <Gold.PLP.Chemscore.Internal.Correction>
0.4014

> <Gold.Rescore>
     Score         DG    S(hbond)    S(metal)    S(lipo)     H(rot)  DE(clash)    DE(int)     intcor
     10.11     -12.39       1.43        0.00      90.86       3.32       0.12       2.15       ----

> <Gold.Chemscore.Fitness>
10.1078

> <Gold.Chemscore.DG>
-12.3855

> <Gold.Chemscore.ZeroCoef>
-5.4800

> <Gold.Chemscore.Hbond>
1.4296

> <Gold.Chemscore.Metal>
0.0000

> <Gold.Chemscore.Lipo>
90.8598

> <Gold.Chemscore.Internal_Hbond>
0.0000

> <Gold.Chemscore.DEClash>
0.1239

> <Gold.Chemscore.DEInternal>
2.1538

> <Gold.Chemscore.Rot>
3.3203

> <Gold.Chemscore.Internal.Correction>
   9.000000E+99

> <Gold.Chemscore.Hbonds>
donor molecule, donor type, donor heavy atom, donor atom, acceptor molecule, acceptor atom, score
      L1  H    21    55       P1  7957  0.56
      P1  H  6931  6943       L1     7  0.02
      P1  H  7989  7998       L1    21  0.26
      P1  H  8011  8017       L1    21  0.16

> <Gold.Chemscore.Hbond.Weighted>
-4.7749

> <Gold.Chemscore.Metal.Weighted>
-0.0000

> <Gold.Chemscore.Lipo.Weighted>
-10.6306

> <Gold.Chemscore.Internal_Hbond.Weighted>
0.0000

> <Gold.Chemscore.DEClash.Weighted>
0.1239

> <Gold.Chemscore.DEInternal.Weighted>
2.1538

> <Gold.Chemscore.Rot.Weighted>
8.5000

> <Gold.Chemscore.Internal.Correction.Weighted>
   9.000000E+99

> <Gold.Protein.RotatedTorsions>
[ 6907 6896 6895 6894 ] final  128.23 input  -60.11 | X-H torsion
[ 7974 7965 7964 7962 ] final  156.05 input  175.53 | X-H torsion
[ 8008 7997 7996 7995 ] final -174.94 input   59.86 | X-H torsion
[ 10167 10162 10161 10158 ] final -121.99 input  -65.29 | X-H torsion
[ 10718 10713 10712 10709 ] final  129.23 input   66.30 | X-H torsion
[ 10763 10752 10751 10750 ] final  -43.40 input  -60.55 | X-H torsion
[ 11005 11000 10999 10996 ] final -159.66 input  -57.11 | X-H torsion

> <Gold.Protein.ActiveResidues>
 VAL166  LYS551  ARG553  GLY616  TRP617  ASP618  TYR619  PRO620  LYS621  CYS622 
 ASP623  PHE694  ASN695  SER759  ASP760  ASP761  ALA762  ILE779  LEU786  VAL792 
 PHE793  MET794  SER795  GLU796  ALA797  LYS798  CYS799  TRP800  GLU811  SER814 

> <Gold.Protein.RotatedAtoms>
  152.3739  133.6455  159.6108 H   0  0  0  0  0  0  0  0  0  0  0  0  # atno 6907 bound_to 6896
  150.7689  133.9225  159.3411 H   0  0  0  0  0  0  0  0  0  0  0  0  # atno 6908 bound_to 6896
  151.7043  135.0925  160.0307 H   0  0  0  0  0  0  0  0  0  0  0  0  # atno 6909 bound_to 6896
  144.7987  139.7150  143.6191 H   0  0  0  0  0  0  0  0  0  0  0  0  # atno 7974 bound_to 7965
  155.9764  140.1173  157.0766 H   0  0  0  0  0  0  0  0  0  0  0  0  # atno 8008 bound_to 7997
  154.4170  140.1153  156.5444 H   0  0  0  0  0  0  0  0  0  0  0  0  # atno 8009 bound_to 7997
  155.6529  140.3473  155.4757 H   0  0  0  0  0  0  0  0  0  0  0  0  # atno 8010 bound_to 7997
  140.0191  143.5363  152.2229 H   0  0  0  0  0  0  0  0  0  0  0  0  # atno 10167 bound_to 10162
  157.5173  131.1097  150.9206 H   0  0  0  0  0  0  0  0  0  0  0  0  # atno 10718 bound_to 10713
  153.9949  135.6700  153.4756 H   0  0  0  0  0  0  0  0  0  0  0  0  # atno 10763 bound_to 10752
  153.0688  135.4986  154.8256 H   0  0  0  0  0  0  0  0  0  0  0  0  # atno 10764 bound_to 10752
  154.7087  135.3093  154.9193 H   0  0  0  0  0  0  0  0  0  0  0  0  # atno 10765 bound_to 10752
  140.6401  134.4560  157.5233 H   0  0  0  0  0  0  0  0  0  0  0  0  # atno 11005 bound_to 11000
  146.2263  139.5728  142.9585 LP  0  0  0  0  0  0  0  0  0  0  0  0  # atno 17320 bound_to 7965
  145.5608  141.0404  143.2227 LP  0  0  0  0  0  0  0  0  0  0  0  0  # atno 17321 bound_to 7965
  139.6152  144.7618  151.2862 LP  0  0  0  0  0  0  0  0  0  0  0  0  # atno 17342 bound_to 10162
  140.7350  143.6750  150.8049 LP  0  0  0  0  0  0  0  0  0  0  0  0  # atno 17343 bound_to 10162
  156.9827  130.5533  149.5297 LP  0  0  0  0  0  0  0  0  0  0  0  0  # atno 17370 bound_to 10713
  156.0329  130.5419  150.8580 LP  0  0  0  0  0  0  0  0  0  0  0  0  # atno 17371 bound_to 10713
  139.9083  134.8400  156.1622 LP  0  0  0  0  0  0  0  0  0  0  0  0  # atno 17394 bound_to 11000
  141.0613  133.6840  156.1957 LP  0  0  0  0  0  0  0  0  0  0  0  0  # atno 17395 bound_to 11000

$$$$
