AV-unprocessed.smi:2710|AV-procd|sdf|10470|dock1
  -GOLD-   2272014513D 1   1.00000     0.00000
 Structure written by MMmdl.
 53 54  0  0  0  0  0  0  0  0  2 V2000
  144.1372  132.3592  149.9192 C   0  0  0  0  0  0  0  0  0  0  0  0
  143.8590  133.0395  151.2681 C   0  0  0  0  0  0  0  0  0  0  0  0
  143.5499  134.4936  151.1339 N   0  3  2  0  0  0  0  0  0  0  0  0
  144.6025  135.2750  150.4247 C   0  0  0  0  0  0  0  0  0  0  0  0
  145.8556  135.4851  151.2981 C   0  0  0  0  0  0  0  0  0  0  0  0
  145.4996  136.1350  152.6473 C   0  0  2  0  0  0  0  0  0  0  0  0
  146.6776  136.1734  153.5102 N   0  0  0  0  0  0  0  0  0  0  0  0
  147.3983  135.1120  153.9007 C   0  0  0  0  0  0  0  0  0  0  0  0
  147.1450  133.9547  153.5676 O   0  0  0  0  0  0  0  0  0  0  0  0
  148.4049  135.4813  154.7105 N   0  0  0  0  0  0  0  0  0  0  0  0
  149.3876  134.6542  155.3163 C   0  0  0  0  0  0  0  0  0  0  0  0
  149.9131  135.0165  156.5728 C   0  0  0  0  0  0  0  0  0  0  0  0
  150.8556  134.2766  157.1937 N   0  0  0  0  0  0  0  0  0  0  0  0
  151.2880  133.1735  156.5694 C   0  0  0  0  0  0  0  0  0  0  0  0
  152.3827  132.3647  157.2891 C   0  0  0  0  0  0  0  0  0  0  0  0
  151.8998  131.8138  158.6535 C   0  0  0  0  0  0  0  0  0  0  0  0
  153.6004  133.2683  157.5760 C   0  0  0  0  0  0  0  0  0  0  0  0
  152.7976  131.1615  156.4189 C   0  0  0  0  0  0  0  0  0  0  0  0
  150.8798  132.7567  155.3635 N   0  0  0  0  0  0  0  0  0  0  0  0
  149.9323  133.4846  154.7349 C   0  0  0  0  0  0  0  0  0  0  0  0
  144.3674  135.3568  153.3416 C   0  0  0  0  0  0  0  0  0  0  0  0
  143.1572  135.1820  152.4011 C   0  0  2  0  0  0  0  0  0  0  0  0
  141.9483  134.5397  153.1049 C   0  0  0  0  0  0  0  0  0  0  0  0
  144.2234  131.2802  150.0486 H   0  0  0  0  0  0  0  0  0  0  0  0
  145.0685  132.6993  149.4679 H   0  0  0  0  0  0  0  0  0  0  0  0
  143.3282  132.5406  149.2112 H   0  0  0  0  0  0  0  0  0  0  0  0
  143.0090  132.5177  151.7027 H   0  0  0  0  0  0  0  0  0  0  0  0
  144.6931  132.8779  151.9502 H   0  0  0  0  0  0  0  0  0  0  0  0
  144.8721  134.8098  149.4780 H   0  0  0  0  0  0  0  0  0  0  0  0
  144.1856  136.2474  150.1594 H   0  0  0  0  0  0  0  0  0  0  0  0
  146.3583  134.5314  151.4618 H   0  0  0  0  0  0  0  0  0  0  0  0
  146.5703  136.1131  150.7645 H   0  0  0  0  0  0  0  0  0  0  0  0
  145.1372  137.1457  152.4504 H   0  0  0  0  0  0  0  0  0  0  0  0
  146.9656  137.0825  153.8416 H   0  0  0  0  0  0  0  0  0  0  0  0
  148.4390  136.4567  154.9684 H   0  0  0  0  0  0  0  0  0  0  0  0
  149.5739  135.9031  157.0885 H   0  0  0  0  0  0  0  0  0  0  0  0
  152.6898  131.2561  159.1579 H   0  0  0  0  0  0  0  0  0  0  0  0
  151.0544  131.1340  158.5390 H   0  0  0  0  0  0  0  0  0  0  0  0
  151.5930  132.6163  159.3258 H   0  0  0  0  0  0  0  0  0  0  0  0
  153.3193  134.1283  158.1852 H   0  0  0  0  0  0  0  0  0  0  0  0
  154.0484  133.6486  156.6575 H   0  0  0  0  0  0  0  0  0  0  0  0
  154.3803  132.7263  158.1117 H   0  0  0  0  0  0  0  0  0  0  0  0
  153.5623  130.5598  156.9113 H   0  0  0  0  0  0  0  0  0  0  0  0
  153.2069  131.4815  155.4601 H   0  0  0  0  0  0  0  0  0  0  0  0
  151.9473  130.5104  156.2127 H   0  0  0  0  0  0  0  0  0  0  0  0
  149.6390  133.1283  153.7597 H   0  0  0  0  0  0  0  0  0  0  0  0
  144.7269  134.3820  153.6745 H   0  0  0  0  0  0  0  0  0  0  0  0
  144.0604  135.8915  154.2417 H   0  0  0  0  0  0  0  0  0  0  0  0
  142.8274  136.1802  152.1080 H   0  0  0  0  0  0  0  0  0  0  0  0
  141.5668  135.1991  153.8851 H   0  0  0  0  0  0  0  0  0  0  0  0
  142.2031  133.5964  153.5877 H   0  0  0  0  0  0  0  0  0  0  0  0
  141.1326  134.3572  152.4049 H   0  0  0  0  0  0  0  0  0  0  0  0
  142.7317  134.5335  150.5431 H   0  0  0  0  0  0  0  0  0  0  0  0
  1  2  1  0  0  0  0
  1 24  1  0  0  0  0
  1 25  1  0  0  0  0
  1 26  1  0  0  0  0
  2  3  1  0  0  0  0
  2 27  1  0  0  0  0
  2 28  1  0  0  0  0
  3 22  1  0  0  0  0
  3  4  1  0  0  0  0
  3 53  1  0  0  0  0
  4  5  1  0  0  0  0
  4 29  1  0  0  0  0
  4 30  1  0  0  0  0
  5  6  1  0  0  0  0
  5 31  1  0  0  0  0
  5 32  1  0  0  0  0
  6  7  1  0  0  0  0
  6 21  1  0  0  0  0
  6 33  1  0  0  0  0
  7  8  1  0  0  0  0
  7 34  1  0  0  0  0
  8  9  2  0  0  0  0
  8 10  1  0  0  0  0
 10 11  1  0  0  0  0
 10 35  1  0  0  0  0
 11 20  1  0  0  0  0
 11 12  2  0  0  0  0
 12 13  1  0  0  0  0
 12 36  1  0  0  0  0
 13 14  2  0  0  0  0
 14 15  1  0  0  0  0
 14 19  1  0  0  0  0
 15 16  1  0  0  0  0
 15 17  1  0  0  0  0
 15 18  1  0  0  0  0
 16 37  1  0  0  0  0
 16 38  1  0  0  0  0
 16 39  1  0  0  0  0
 17 40  1  0  0  0  0
 17 41  1  0  0  0  0
 17 42  1  0  0  0  0
 18 43  1  0  0  0  0
 18 44  1  0  0  0  0
 18 45  1  0  0  0  0
 19 20  2  0  0  0  0
 20 46  1  0  0  0  0
 21 22  1  0  0  0  0
 21 47  1  0  0  0  0
 21 48  1  0  0  0  0
 22 23  1  0  0  0  0
 22 49  1  0  0  0  0
 23 50  1  0  0  0  0
 23 51  1  0  0  0  0
 23 52  1  0  0  0  0
M  CHG  1   3   1
M  END
> <s_m_source_file>
AV-unprocessed.smi

> <i_m_source_file_index>
2710

> <i_lp_mmshare_version>
43012

> <i_f3d_flags>
0

> <s_epik_input>
W0NIM11bQ0gyXU4xW0NIMl1bQ0gyXVtDQEhdKFtDSDJdW0NASF0xW0NIM10pW05IXUMoPU8pW05IXWMyW2NIXW5jKEMoW0NIM10pKFtDSDNdKVtDSDNdKW5bY0hdMg==

> <s_epik_cmdline>
J2VwaWtfcHl0aG9uJywgJy1waCcsICc3LjAnLCAnLXRuJywgJzgnLCAnLW1hJywgJzIwMCcsICctbWV0YWxfYmluZGluZycsICctaW1hZScsICc8aW5maWxlLm1hZT4nLCAnLW9tYWUnLCAnPG91dGZpbGUubWFlPic=

> <r_lp_tautomer_probability>
1

> <r_epik_Ionization_Penalty>
0.00396003

> <r_epik_Ionization_Penalty_Charging>
0.0039379

> <r_epik_Ionization_Penalty_Neutral>
2.21316e-05

> <r_epik_State_Penalty>
0.00281651

> <r_epik_Charging_Adjusted_Penalty>
0.00675441

> <i_epik_Tot_Q>
1

> <i_epik_Tot_abs_Q>
1

> <r_epik_Metal_State_Penalty>
-0

> <b_epik_Metal_Only>
0

> <s_lp_Force_Field>
OPLS_2005

> <r_lp_Energy>
21.9784

> <b_lp_Chiralities_Consistent>
1

> <s_lp_Variant>
AV-unprocessed.smi:2710-7

> <Gold.Version>
5.8.1

> <Gold.Id.Protein>
6NUR|6NUR_protein|mol2

> <Gold.PLP.Fitness>
42.2803

> <Gold.PLP.PLP>
-34.2684

> <Gold.PLP.part.hbond>
-3.4293

> <Gold.PLP.part.metal>
0.0000

> <Gold.PLP.part.buried>
-3.6698

> <Gold.PLP.part.nonpolar>
-27.8584

> <Gold.PLP.part.repulsive>
0.0893

> <Gold.PLP.ligand.clash>
0.0000

> <Gold.PLP.ligand.torsion>
0.2482

> <Gold.PLP.Chemscore.Hbond>
2.8151

> <Gold.PLP.Chemscore.CHOScore>
0.0000

> <Gold.PLP.Chemscore.Metal>
0.0000

> <Gold.Chemscore.Hbonds>
donor molecule, donor type, donor heavy atom, donor atom, acceptor molecule, acceptor atom, score
      L1  H     3    53       P1 10186  2.00
      P1  H  6896  6909       L1    13  0.24

> <Gold.PLP.Chemscore.Internal.Correction>
0.0630

> <Gold.Rescore>
     Score         DG    S(hbond)    S(metal)    S(lipo)     H(rot)  DE(clash)    DE(int)     intcor
     16.08     -17.66       1.86        0.00      79.56       1.31       0.30       1.28       ----

> <Gold.Chemscore.Fitness>
16.0792

> <Gold.Chemscore.DG>
-17.6577

> <Gold.Chemscore.ZeroCoef>
-5.4800

> <Gold.Chemscore.Hbond>
1.8616

> <Gold.Chemscore.Metal>
0.0000

> <Gold.Chemscore.Lipo>
79.5624

> <Gold.Chemscore.Internal_Hbond>
0.0000

> <Gold.Chemscore.DEClash>
0.3030

> <Gold.Chemscore.DEInternal>
1.2756

> <Gold.Chemscore.Rot>
1.3081

> <Gold.Chemscore.Internal.Correction>
   9.000000E+99

> <Gold.Chemscore.Hbonds>
donor molecule, donor type, donor heavy atom, donor atom, acceptor molecule, acceptor atom, score
      L1  H     3    53       P1 10186  0.39
      P1  H  6896  6909       L1    13  0.04

> <Gold.Chemscore.Hbond.Weighted>
-6.2177

> <Gold.Chemscore.Metal.Weighted>
-0.0000

> <Gold.Chemscore.Lipo.Weighted>
-9.3088

> <Gold.Chemscore.Internal_Hbond.Weighted>
0.0000

> <Gold.Chemscore.DEClash.Weighted>
0.3030

> <Gold.Chemscore.DEInternal.Weighted>
1.2756

> <Gold.Chemscore.Rot.Weighted>
3.3488

> <Gold.Chemscore.Internal.Correction.Weighted>
   9.000000E+99

> <Gold.Protein.RotatedTorsions>
[ 6907 6896 6895 6894 ] final  -23.66 input  -60.11 | X-H torsion
[ 7974 7965 7964 7962 ] final   52.11 input  175.53 | X-H torsion
[ 8008 7997 7996 7995 ] final   31.46 input   59.86 | X-H torsion
[ 10167 10162 10161 10158 ] final  125.92 input  -65.29 | X-H torsion
[ 10718 10713 10712 10709 ] final  175.39 input   66.30 | X-H torsion
[ 10763 10752 10751 10750 ] final  -11.94 input  -60.55 | X-H torsion
[ 11005 11000 10999 10996 ] final  -66.93 input  -57.11 | X-H torsion

> <Gold.Protein.ActiveResidues>
 VAL166  LYS551  ARG553  GLY616  TRP617  ASP618  TYR619  PRO620  LYS621  CYS622 
 ASP623  PHE694  ASN695  SER759  ASP760  ASP761  ALA762  ILE779  LEU786  VAL792 
 PHE793  MET794  SER795  GLU796  ALA797  LYS798  CYS799  TRP800  GLU811  SER814 

> <Gold.Protein.RotatedAtoms>
  151.2008  135.0441  159.8870 H   0  0  0  0  0  0  0  0  0  0  0  0  # atno 6907 bound_to 6896
  152.5433  134.0852  159.8263 H   0  0  0  0  0  0  0  0  0  0  0  0  # atno 6908 bound_to 6896
  151.0993  133.5208  159.2643 H   0  0  0  0  0  0  0  0  0  0  0  0  # atno 6909 bound_to 6896
  145.9846  139.4277  143.0111 H   0  0  0  0  0  0  0  0  0  0  0  0  # atno 7974 bound_to 7965
  155.1067  140.3235  155.4532 H   0  0  0  0  0  0  0  0  0  0  0  0  # atno 8008 bound_to 7997
  156.2702  140.2051  156.6139 H   0  0  0  0  0  0  0  0  0  0  0  0  # atno 8009 bound_to 7997
  154.6787  140.0528  157.0230 H   0  0  0  0  0  0  0  0  0  0  0  0  # atno 8010 bound_to 7997
  139.5659  144.6911  151.3912 H   0  0  0  0  0  0  0  0  0  0  0  0  # atno 10167 bound_to 10162
  156.9355  130.9984  151.2979 H   0  0  0  0  0  0  0  0  0  0  0  0  # atno 10718 bound_to 10713
  153.4912  135.7017  153.5883 H   0  0  0  0  0  0  0  0  0  0  0  0  # atno 10763 bound_to 10752
  153.4055  135.3861  155.2016 H   0  0  0  0  0  0  0  0  0  0  0  0  # atno 10764 bound_to 10752
  154.8716  135.3892  154.4372 H   0  0  0  0  0  0  0  0  0  0  0  0  # atno 10765 bound_to 10752
  141.1495  133.6709  156.6215 H   0  0  0  0  0  0  0  0  0  0  0  0  # atno 11005 bound_to 11000
  145.7719  140.9893  143.1145 LP  0  0  0  0  0  0  0  0  0  0  0  0  # atno 17320 bound_to 7965
  144.6871  139.9457  143.7476 LP  0  0  0  0  0  0  0  0  0  0  0  0  # atno 17321 bound_to 7965
  140.6942  143.7788  150.7302 LP  0  0  0  0  0  0  0  0  0  0  0  0  # atno 17342 bound_to 10162
  140.1279  143.4552  152.2272 LP  0  0  0  0  0  0  0  0  0  0  0  0  # atno 17343 bound_to 10162
  157.5819  130.8382  149.8534 LP  0  0  0  0  0  0  0  0  0  0  0  0  # atno 17370 bound_to 10713
  156.0428  130.3735  150.1393 LP  0  0  0  0  0  0  0  0  0  0  0  0  # atno 17371 bound_to 10713
  140.3537  134.7747  157.4485 LP  0  0  0  0  0  0  0  0  0  0  0  0  # atno 17394 bound_to 11000
  140.0840  134.5691  155.8511 LP  0  0  0  0  0  0  0  0  0  0  0  0  # atno 17395 bound_to 11000

$$$$
