AV-unprocessed.smi:2269|AV-procd|sdf|9152|dock7
  -GOLD-   2272012363D 1   1.00000     0.00000
 Structure written by MMmdl.
 41 42  0  0  0  0  0  0  0  0  1 V2000
  157.9820  135.7051  151.5430 C   0  0  0  0  0  0  0  0  0  0  0  0
  157.6380  136.3309  152.8830 C   0  0  0  0  0  0  0  0  0  0  0  0
  157.7623  135.4892  153.9920 N   0  0  0  0  0  0  0  0  0  0  0  0
  157.4948  135.9373  155.1749 C   0  0  0  0  0  0  0  0  0  0  0  0
  157.0740  137.2607  155.3851 N   0  0  0  0  0  0  0  0  0  0  0  0
  156.8124  137.6483  156.7819 C   0  0  0  0  0  0  0  0  0  0  0  0
  155.7883  136.7114  157.4621 C   0  0  2  0  0  0  0  0  0  0  0  0
  154.6402  136.6514  156.6383 O   0  0  0  0  0  0  0  0  0  0  0  0
  155.3317  137.2522  158.8270 C   0  0  0  0  0  0  0  0  0  0  0  0
  154.6979  138.5084  158.6344 O   0  0  0  0  0  0  0  0  0  0  0  0
  153.7153  138.8096  159.6139 C   0  0  0  0  0  0  0  0  0  0  0  0
  153.2223  140.2483  159.5258 C   0  0  0  0  0  0  0  0  0  0  0  0
  153.6399  141.1607  160.5185 C   0  0  0  0  0  0  0  0  0  0  0  0
  153.2155  142.5024  160.4826 C   0  0  0  0  0  0  0  0  0  0  0  0
  152.3691  142.9431  159.4490 C   0  0  0  0  0  0  0  0  0  0  0  0
  151.9469  142.0402  158.4552 C   0  0  0  0  0  0  0  0  0  0  0  0
  152.3672  140.6950  158.4871 C   0  0  0  0  0  0  0  0  0  0  0  0
  151.8047  139.6281  157.2483 Cl  0  0  0  0  0  0  0  0  0  0  0  0
  156.9314  138.1493  154.3594 C   0  0  0  0  0  0  0  0  0  0  0  0
  156.5740  139.3125  154.5563 O   0  0  0  0  0  0  0  0  0  0  0  0
  157.2362  137.6243  153.0185 C   0  0  0  0  0  0  0  0  0  0  0  0
  157.0841  138.5874  151.8477 C   0  0  0  0  0  0  0  0  0  0  0  0
  157.1164  135.7203  150.8805 H   0  0  0  0  0  0  0  0  0  0  0  0
  158.2968  134.6671  151.6581 H   0  0  0  0  0  0  0  0  0  0  0  0
  158.7972  136.2493  151.0656 H   0  0  0  0  0  0  0  0  0  0  0  0
  157.5819  135.3234  156.0730 H   0  0  0  0  0  0  0  0  0  0  0  0
  157.7577  137.6134  157.3263 H   0  0  0  0  0  0  0  0  0  0  0  0
  156.4969  138.6903  156.8677 H   0  0  0  0  0  0  0  0  0  0  0  0
  156.2091  135.7130  157.5891 H   0  0  0  0  0  0  0  0  0  0  0  0
  154.0045  137.2707  156.9629 H   0  0  0  0  0  0  0  0  0  0  0  0
  154.6004  136.5756  159.2718 H   0  0  0  0  0  0  0  0  0  0  0  0
  156.1712  137.3173  159.5212 H   0  0  0  0  0  0  0  0  0  0  0  0
  152.8603  138.1589  159.4295 H   0  0  0  0  0  0  0  0  0  0  0  0
  154.0774  138.5428  160.6060 H   0  0  0  0  0  0  0  0  0  0  0  0
  154.2887  140.8292  161.3161 H   0  0  0  0  0  0  0  0  0  0  0  0
  153.5400  143.1924  161.2475 H   0  0  0  0  0  0  0  0  0  0  0  0
  152.0430  143.9724  159.4189 H   0  0  0  0  0  0  0  0  0  0  0  0
  151.2949  142.3829  157.6650 H   0  0  0  0  0  0  0  0  0  0  0  0
  157.7662  139.4301  151.9638 H   0  0  0  0  0  0  0  0  0  0  0  0
  156.0665  138.9779  151.8112 H   0  0  0  0  0  0  0  0  0  0  0  0
  157.2910  138.1271  150.8830 H   0  0  0  0  0  0  0  0  0  0  0  0
  1  2  1  0  0  0  0
  1 23  1  0  0  0  0
  1 24  1  0  0  0  0
  1 25  1  0  0  0  0
  2 21  2  0  0  0  0
  2  3  1  0  0  0  0
  3  4  2  0  0  0  0
  4  5  1  0  0  0  0
  4 26  1  0  0  0  0
  5  6  1  0  0  0  0
  5 19  1  0  0  0  0
  6  7  1  0  0  0  0
  6 27  1  0  0  0  0
  6 28  1  0  0  0  0
  7  8  1  0  0  0  0
  7  9  1  0  0  0  0
  7 29  1  0  0  0  0
  8 30  1  0  0  0  0
  9 10  1  0  0  0  0
  9 31  1  0  0  0  0
  9 32  1  0  0  0  0
 10 11  1  0  0  0  0
 11 12  1  0  0  0  0
 11 33  1  0  0  0  0
 11 34  1  0  0  0  0
 12 17  1  0  0  0  0
 12 13  2  0  0  0  0
 13 14  1  0  0  0  0
 13 35  1  0  0  0  0
 14 15  2  0  0  0  0
 14 36  1  0  0  0  0
 15 16  1  0  0  0  0
 15 37  1  0  0  0  0
 16 17  2  0  0  0  0
 16 38  1  0  0  0  0
 17 18  1  0  0  0  0
 19 20  2  0  0  0  0
 19 21  1  0  0  0  0
 21 22  1  0  0  0  0
 22 39  1  0  0  0  0
 22 40  1  0  0  0  0
 22 41  1  0  0  0  0
M  END
> <s_m_source_file>
AV-unprocessed.smi

> <i_m_source_file_index>
2269

> <i_lp_mmshare_version>
43012

> <i_f3d_flags>
0

> <s_epik_input>
W0NIM11jMW5bY0hdbihjKD1PKWMxW0NIM10pW0NIMl1bQ0BIXShbT0hdKVtDSDJdT1tDSDJdYzJbY0hdW2NIXVtjSF1bY0hdYzJDbA==

> <s_epik_cmdline>
J2VwaWtfcHl0aG9uJywgJy1waCcsICc3LjAnLCAnLXRuJywgJzgnLCAnLW1hJywgJzIwMCcsICctbWV0YWxfYmluZGluZycsICctaW1hZScsICc8aW5maWxlLm1hZT4nLCAnLW9tYWUnLCAnPG91dGZpbGUubWFlPic=

> <r_lp_tautomer_probability>
1

> <r_epik_Ionization_Penalty>
5.36022e-05

> <r_epik_Ionization_Penalty_Charging>
1.17753e-07

> <r_epik_Ionization_Penalty_Neutral>
5.34845e-05

> <r_epik_State_Penalty>
-0

> <r_epik_Charging_Adjusted_Penalty>
1.17753e-07

> <i_epik_Tot_Q>
0

> <i_epik_Tot_abs_Q>
0

> <r_epik_Metal_State_Penalty>
-0

> <b_epik_Metal_Only>
0

> <s_lp_Force_Field>
OPLS_2005

> <r_lp_Energy>
24.1822

> <b_lp_Chiralities_Consistent>
1

> <s_lp_Variant>
AV-unprocessed.smi:2269-1

> <Gold.Version>
5.8.1

> <Gold.Id.Protein>
6NUR|6NUR_protein|mol2

> <Gold.PLP.Fitness>
45.7708

> <Gold.PLP.PLP>
-38.1875

> <Gold.PLP.part.hbond>
-3.0000

> <Gold.PLP.part.metal>
0.0000

> <Gold.PLP.part.buried>
-0.9547

> <Gold.PLP.part.nonpolar>
-34.6078

> <Gold.PLP.part.repulsive>
0.0415

> <Gold.PLP.ligand.clash>
0.0000

> <Gold.PLP.ligand.torsion>
0.4146

> <Gold.PLP.Chemscore.Hbond>
2.7593

> <Gold.PLP.Chemscore.CHOScore>
0.0000

> <Gold.PLP.Chemscore.Metal>
0.0000

> <Gold.Chemscore.Hbonds>
donor molecule, donor type, donor heavy atom, donor atom, acceptor molecule, acceptor atom, score
      P1  H  7997  8008       L1    20  0.82
      P1  H  7997  8009       L1    10  0.75
      P1  H 10752 10764       L1     8  0.85

> <Gold.PLP.Chemscore.Internal.Correction>
0.1346

> <Gold.Rescore>
     Score         DG    S(hbond)    S(metal)    S(lipo)     H(rot)  DE(clash)    DE(int)     intcor
     20.94     -22.96       2.62        0.00     129.70       2.52       1.52       0.50       ----

> <Gold.Chemscore.Fitness>
20.9377

> <Gold.Chemscore.DG>
-22.9588

> <Gold.Chemscore.ZeroCoef>
-5.4800

> <Gold.Chemscore.Hbond>
2.6184

> <Gold.Chemscore.Metal>
0.0000

> <Gold.Chemscore.Lipo>
129.6989

> <Gold.Chemscore.Internal_Hbond>
0.0000

> <Gold.Chemscore.DEClash>
1.5173

> <Gold.Chemscore.DEInternal>
0.5038

> <Gold.Chemscore.Rot>
2.5162

> <Gold.Chemscore.Internal.Correction>
   9.000000E+99

> <Gold.Chemscore.Hbonds>
donor molecule, donor type, donor heavy atom, donor atom, acceptor molecule, acceptor atom, score
      P1  H  7997  8008       L1    20  0.81
      P1  H  7997  8009       L1    10  0.71
      P1  H 10752 10764       L1     8  0.82

> <Gold.Chemscore.Hbond.Weighted>
-8.7454

> <Gold.Chemscore.Metal.Weighted>
-0.0000

> <Gold.Chemscore.Lipo.Weighted>
-15.1748

> <Gold.Chemscore.Internal_Hbond.Weighted>
0.0000

> <Gold.Chemscore.DEClash.Weighted>
1.5173

> <Gold.Chemscore.DEInternal.Weighted>
0.5038

> <Gold.Chemscore.Rot.Weighted>
6.4414

> <Gold.Chemscore.Internal.Correction.Weighted>
   9.000000E+99

> <Gold.Protein.RotatedTorsions>
[ 6907 6896 6895 6894 ] final   74.35 input  -60.11 | X-H torsion
[ 7974 7965 7964 7962 ] final  -60.04 input  175.53 | X-H torsion
[ 8008 7997 7996 7995 ] final  100.66 input   59.86 | X-H torsion
[ 10167 10162 10161 10158 ] final -155.79 input  -65.29 | X-H torsion
[ 10718 10713 10712 10709 ] final  176.90 input   66.30 | X-H torsion
[ 10763 10752 10751 10750 ] final   41.26 input  -60.55 | X-H torsion
[ 11005 11000 10999 10996 ] final  175.74 input  -57.11 | X-H torsion

> <Gold.Protein.ActiveResidues>
 VAL166  LYS551  ARG553  GLY616  TRP617  ASP618  TYR619  PRO620  LYS621  CYS622 
 ASP623  PHE694  ASN695  SER759  ASP760  ASP761  ALA762  ILE779  LEU786  VAL792 
 PHE793  MET794  SER795  GLU796  ALA797  LYS798  CYS799  TRP800  GLU811  SER814 

> <Gold.Protein.RotatedAtoms>
  152.4971  134.4284  159.9503 H   0  0  0  0  0  0  0  0  0  0  0  0  # atno 6907 bound_to 6896
  151.4261  133.3678  159.2770 H   0  0  0  0  0  0  0  0  0  0  0  0  # atno 6908 bound_to 6896
  150.9188  134.8628  159.7534 H   0  0  0  0  0  0  0  0  0  0  0  0  # atno 6909 bound_to 6896
  145.8203  140.8544  143.0136 H   0  0  0  0  0  0  0  0  0  0  0  0  # atno 7974 bound_to 7965
  156.1225  140.3210  155.8229 H   0  0  0  0  0  0  0  0  0  0  0  0  # atno 8008 bound_to 7997
  155.4479  140.0530  157.3021 H   0  0  0  0  0  0  0  0  0  0  0  0  # atno 8009 bound_to 7997
  154.4838  140.2064  155.9716 H   0  0  0  0  0  0  0  0  0  0  0  0  # atno 8010 bound_to 7997
  139.6903  143.9432  152.2381 H   0  0  0  0  0  0  0  0  0  0  0  0  # atno 10167 bound_to 10162
  156.9133  130.9917  151.3017 H   0  0  0  0  0  0  0  0  0  0  0  0  # atno 10718 bound_to 10713
  152.9913  135.6167  154.2759 H   0  0  0  0  0  0  0  0  0  0  0  0  # atno 10763 bound_to 10752
  154.2490  135.2786  155.2826 H   0  0  0  0  0  0  0  0  0  0  0  0  # atno 10764 bound_to 10752
  154.5304  135.5789  153.6812 H   0  0  0  0  0  0  0  0  0  0  0  0  # atno 10765 bound_to 10752
  140.3655  134.7076  157.4359 H   0  0  0  0  0  0  0  0  0  0  0  0  # atno 11005 bound_to 11000
  144.6748  140.0523  143.7478 LP  0  0  0  0  0  0  0  0  0  0  0  0  # atno 17320 bound_to 7965
  145.9682  139.2850  143.1114 LP  0  0  0  0  0  0  0  0  0  0  0  0  # atno 17321 bound_to 7965
  139.9246  144.6778  150.8425 LP  0  0  0  0  0  0  0  0  0  0  0  0  # atno 17342 bound_to 10162
  140.7680  143.3351  151.2327 LP  0  0  0  0  0  0  0  0  0  0  0  0  # atno 17343 bound_to 10162
  157.5954  130.8473  149.8721 LP  0  0  0  0  0  0  0  0  0  0  0  0  # atno 17370 bound_to 10713
  156.0525  130.3714  150.1167 LP  0  0  0  0  0  0  0  0  0  0  0  0  # atno 17371 bound_to 10713
  140.0593  134.6019  155.8768 LP  0  0  0  0  0  0  0  0  0  0  0  0  # atno 17394 bound_to 11000
  141.1971  133.6594  156.5724 LP  0  0  0  0  0  0  0  0  0  0  0  0  # atno 17395 bound_to 11000

$$$$
