AV-unprocessed.smi:2706|AV-procd|sdf|10444|dock5
  -GOLD-   2272014483D 1   1.00000     0.00000
 Structure written by MMmdl.
 43 46  0  0  0  0  0  0  0  0  1 V2000
  146.6027  138.9345  151.9096 C   0  0  0  0  0  0  0  0  0  0  0  0
  145.8562  138.2927  152.9845 N   0  0  0  0  0  0  0  0  0  0  0  0
  144.8190  137.3153  152.6694 C   0  0  0  0  0  0  0  0  0  0  0  0
  146.1684  138.5740  154.3341 C   0  0  0  0  0  0  0  0  0  0  0  0
  145.7569  137.7189  155.3846 C   0  0  0  0  0  0  0  0  0  0  0  0
  146.0968  138.0540  156.7075 C   0  0  0  0  0  0  0  0  0  0  0  0
  146.8341  139.2274  156.9461 C   0  0  0  0  0  0  0  0  0  0  0  0
  147.2143  140.0353  155.8542 C   0  0  0  0  0  0  0  0  0  0  0  0
  147.9547  141.1995  156.1915 N   0  0  0  0  0  0  0  0  0  0  0  0
  148.6909  141.4258  157.2940 C   0  0  0  0  0  0  0  0  0  0  0  0
  148.8364  140.6357  158.2276 O   0  0  0  0  0  0  0  0  0  0  0  0
  149.2568  142.6401  157.2547 N   0  0  0  0  0  0  0  0  0  0  0  0
  150.0911  143.2005  158.2678 C   0  0  2  0  0  0  0  0  0  0  0  0
  151.4896  143.6110  157.8543 C   0  0  1  0  0  0  0  0  0  0  0  0
  152.4855  144.4338  158.6681 C   0  0  1  0  0  0  0  0  0  0  0  0
  151.8266  145.0192  159.9342 C   0  0  0  0  0  0  0  0  0  0  0  0
  151.6128  143.7641  160.8092 C   0  0  0  0  0  0  0  0  0  0  0  0
  152.1798  142.6377  159.9200 C   0  0  2  0  0  0  0  0  0  0  0  0
  153.3673  143.3490  159.2791 C   0  0  0  0  0  0  0  0  0  0  0  0
  151.2804  142.3759  158.7142 C   0  0  1  0  0  0  0  0  0  0  0  0
  146.8797  139.6999  154.5846 N   0  0  0  0  0  0  0  0  0  0  0  0
  146.4781  140.0169  151.9501 H   0  0  0  0  0  0  0  0  0  0  0  0
  146.2592  138.5973  150.9317 H   0  0  0  0  0  0  0  0  0  0  0  0
  147.6650  138.7005  151.9876 H   0  0  0  0  0  0  0  0  0  0  0  0
  143.8633  137.6184  153.0983 H   0  0  0  0  0  0  0  0  0  0  0  0
  145.0818  136.3355  153.0697 H   0  0  0  0  0  0  0  0  0  0  0  0
  144.6827  137.2108  151.5929 H   0  0  0  0  0  0  0  0  0  0  0  0
  145.1912  136.8175  155.2038 H   0  0  0  0  0  0  0  0  0  0  0  0
  145.7955  137.4198  157.5279 H   0  0  0  0  0  0  0  0  0  0  0  0
  147.1024  139.4988  157.9568 H   0  0  0  0  0  0  0  0  0  0  0  0
  147.9207  141.9461  155.5135 H   0  0  0  0  0  0  0  0  0  0  0  0
  149.0803  143.2180  156.4461 H   0  0  0  0  0  0  0  0  0  0  0  0
  149.5895  143.8092  159.0162 H   0  0  0  0  0  0  0  0  0  0  0  0
  151.7903  143.4212  156.8252 H   0  0  0  0  0  0  0  0  0  0  0  0
  153.0131  145.1667  158.0573 H   0  0  0  0  0  0  0  0  0  0  0  0
  152.5004  145.7188  160.4308 H   0  0  0  0  0  0  0  0  0  0  0  0
  150.9015  145.5537  159.7168 H   0  0  0  0  0  0  0  0  0  0  0  0
  152.1811  143.8461  161.7366 H   0  0  0  0  0  0  0  0  0  0  0  0
  150.5688  143.6012  161.0781 H   0  0  0  0  0  0  0  0  0  0  0  0
  152.4267  141.7221  160.4579 H   0  0  0  0  0  0  0  0  0  0  0  0
  153.8819  142.7412  158.5326 H   0  0  0  0  0  0  0  0  0  0  0  0
  154.0958  143.7269  159.9990 H   0  0  0  0  0  0  0  0  0  0  0  0
  151.4502  141.4220  158.2178 H   0  0  0  0  0  0  0  0  0  0  0  0
  1  2  1  0  0  0  0
  1 22  1  0  0  0  0
  1 23  1  0  0  0  0
  1 24  1  0  0  0  0
  2  3  1  0  0  0  0
  2  4  1  0  0  0  0
  3 25  1  0  0  0  0
  3 26  1  0  0  0  0
  3 27  1  0  0  0  0
  4 21  1  0  0  0  0
  4  5  2  0  0  0  0
  5  6  1  0  0  0  0
  5 28  1  0  0  0  0
  6  7  2  0  0  0  0
  6 29  1  0  0  0  0
  7  8  1  0  0  0  0
  7 30  1  0  0  0  0
  8  9  1  0  0  0  0
  8 21  2  0  0  0  0
  9 10  1  0  0  0  0
  9 31  1  0  0  0  0
 10 11  2  0  0  0  0
 10 12  1  0  0  0  0
 12 13  1  0  0  0  0
 12 32  1  0  0  0  0
 13 20  1  0  0  0  0
 13 14  1  0  0  0  0
 13 33  1  0  0  0  0
 14 20  1  0  0  0  0
 14 15  1  0  0  0  0
 14 34  1  0  0  0  0
 15 19  1  0  0  0  0
 15 16  1  0  0  0  0
 15 35  1  0  0  0  0
 16 17  1  0  0  0  0
 16 36  1  0  0  0  0
 16 37  1  0  0  0  0
 17 18  1  0  0  0  0
 17 38  1  0  0  0  0
 17 39  1  0  0  0  0
 18 19  1  0  0  0  0
 18 20  1  0  0  0  0
 18 40  1  0  0  0  0
 19 41  1  0  0  0  0
 19 42  1  0  0  0  0
 20 43  1  0  0  0  0
M  END
> <s_m_source_file>
AV-unprocessed.smi

> <i_m_source_file_index>
2706

> <i_lp_mmshare_version>
43012

> <i_f3d_flags>
0

> <s_epik_input>
W0NIM11OKFtDSDNdKWMxW2NIXVtjSF1bY0hdYyhuMSlbTkhdQyg9TylbTkhdW0NASF0yW0NAQEhdM1tDQEBIXShbQ0gyXTQpW0NIMl1bQ0gyXVtDQEBIXTRbQ0BIXTIz

> <s_epik_cmdline>
J2VwaWtfcHl0aG9uJywgJy1waCcsICc3LjAnLCAnLXRuJywgJzgnLCAnLW1hJywgJzIwMCcsICctbWV0YWxfYmluZGluZycsICctaW1hZScsICc8aW5maWxlLm1hZT4nLCAnLW9tYWUnLCAnPG91dGZpbGUubWFlPic=

> <r_lp_tautomer_probability>
1

> <r_epik_Ionization_Penalty>
0.0296788

> <r_epik_Ionization_Penalty_Charging>
0

> <r_epik_Ionization_Penalty_Neutral>
0.0296788

> <r_epik_State_Penalty>
0.0248512

> <r_epik_Charging_Adjusted_Penalty>
0.0248512

> <i_epik_Tot_Q>
0

> <i_epik_Tot_abs_Q>
0

> <r_epik_Metal_State_Penalty>
0.0237882

> <b_epik_Metal_Only>
0

> <s_lp_Force_Field>
OPLS_2005

> <r_lp_Energy>
79.5337

> <b_lp_Chiralities_Consistent>
1

> <s_lp_Variant>
AV-unprocessed.smi:2706-1

> <Gold.Version>
5.8.1

> <Gold.Id.Protein>
6NUR|6NUR_protein|mol2

> <Gold.PLP.Fitness>
38.8250

> <Gold.PLP.PLP>
-36.3295

> <Gold.PLP.part.hbond>
-1.3406

> <Gold.PLP.part.metal>
0.0000

> <Gold.PLP.part.buried>
-3.4219

> <Gold.PLP.part.nonpolar>
-32.4357

> <Gold.PLP.part.repulsive>
0.1218

> <Gold.PLP.ligand.clash>
0.0000

> <Gold.PLP.ligand.torsion>
0.2726

> <Gold.PLP.Chemscore.Hbond>
1.0000

> <Gold.PLP.Chemscore.CHOScore>
0.0000

> <Gold.PLP.Chemscore.Metal>
0.0000

> <Gold.Chemscore.Hbonds>
donor molecule, donor type, donor heavy atom, donor atom, acceptor molecule, acceptor atom, score
      L1  H    12    32       P1  8028  1.00

> <Gold.PLP.Chemscore.Internal.Correction>
0.0406

> <Gold.Rescore>
     Score         DG    S(hbond)    S(metal)    S(lipo)     H(rot)  DE(clash)    DE(int)     intcor
     17.02     -18.77       0.98        0.00     107.51       1.00       0.14       1.61       ----

> <Gold.Chemscore.Fitness>
17.0159

> <Gold.Chemscore.DG>
-18.7677

> <Gold.Chemscore.ZeroCoef>
-5.4800

> <Gold.Chemscore.Hbond>
0.9789

> <Gold.Chemscore.Metal>
0.0000

> <Gold.Chemscore.Lipo>
107.5062

> <Gold.Chemscore.Internal_Hbond>
0.0000

> <Gold.Chemscore.DEClash>
0.1375

> <Gold.Chemscore.DEInternal>
1.6143

> <Gold.Chemscore.Rot>
1.0000

> <Gold.Chemscore.Internal.Correction>
   9.000000E+99

> <Gold.Chemscore.Hbonds>
donor molecule, donor type, donor heavy atom, donor atom, acceptor molecule, acceptor atom, score
      L1  H    12    32       P1  8028  0.96

> <Gold.Chemscore.Hbond.Weighted>
-3.2695

> <Gold.Chemscore.Metal.Weighted>
-0.0000

> <Gold.Chemscore.Lipo.Weighted>
-12.5782

> <Gold.Chemscore.Internal_Hbond.Weighted>
0.0000

> <Gold.Chemscore.DEClash.Weighted>
0.1375

> <Gold.Chemscore.DEInternal.Weighted>
1.6143

> <Gold.Chemscore.Rot.Weighted>
2.5600

> <Gold.Chemscore.Internal.Correction.Weighted>
   9.000000E+99

> <Gold.Protein.RotatedTorsions>
[ 6907 6896 6895 6894 ] final -112.66 input  -60.11 | X-H torsion
[ 7974 7965 7964 7962 ] final  -38.24 input  175.53 | X-H torsion
[ 8008 7997 7996 7995 ] final -117.03 input   59.86 | X-H torsion
[ 10167 10162 10161 10158 ] final   54.24 input  -65.29 | X-H torsion
[ 10718 10713 10712 10709 ] final   59.92 input   66.30 | X-H torsion
[ 10763 10752 10751 10750 ] final  169.29 input  -60.55 | X-H torsion
[ 11005 11000 10999 10996 ] final  -49.68 input  -57.11 | X-H torsion

> <Gold.Protein.ActiveResidues>
 VAL166  LYS551  ARG553  GLY616  TRP617  ASP618  TYR619  PRO620  LYS621  CYS622 
 ASP623  PHE694  ASN695  SER759  ASP760  ASP761  ALA762  ILE779  LEU786  VAL792 
 PHE793  MET794  SER795  GLU796  ALA797  LYS798  CYS799  TRP800  GLU811  SER814 

> <Gold.Protein.RotatedAtoms>
  150.7774  133.9058  159.3354 H   0  0  0  0  0  0  0  0  0  0  0  0  # atno 6907 bound_to 6896
  151.6929  135.0941  160.0246 H   0  0  0  0  0  0  0  0  0  0  0  0  # atno 6908 bound_to 6896
  152.3814  133.6513  159.6200 H   0  0  0  0  0  0  0  0  0  0  0  0  # atno 6909 bound_to 6896
  146.0504  140.6489  142.9045 H   0  0  0  0  0  0  0  0  0  0  0  0  # atno 7974 bound_to 7965
  155.0773  140.0394  157.2628 H   0  0  0  0  0  0  0  0  0  0  0  0  # atno 8008 bound_to 7997
  154.6935  140.2658  155.6764 H   0  0  0  0  0  0  0  0  0  0  0  0  # atno 8009 bound_to 7997
  156.2737  140.2755  156.1521 H   0  0  0  0  0  0  0  0  0  0  0  0  # atno 8010 bound_to 7997
  140.2322  144.3674  150.6410 H   0  0  0  0  0  0  0  0  0  0  0  0  # atno 10167 bound_to 10162
  157.5713  130.8910  149.9272 H   0  0  0  0  0  0  0  0  0  0  0  0  # atno 10718 bound_to 10713
  154.3809  135.2753  155.2211 H   0  0  0  0  0  0  0  0  0  0  0  0  # atno 10763 bound_to 10752
  154.4319  135.5975  153.6077 H   0  0  0  0  0  0  0  0  0  0  0  0  # atno 10764 bound_to 10752
  152.9834  135.5997  154.4052 H   0  0  0  0  0  0  0  0  0  0  0  0  # atno 10765 bound_to 10752
  141.0773  133.6662  156.3621 H   0  0  0  0  0  0  0  0  0  0  0  0  # atno 11005 bound_to 11000
  144.7119  140.4071  143.7074 LP  0  0  0  0  0  0  0  0  0  0  0  0  # atno 17320 bound_to 7965
  145.6734  139.1604  143.2741 LP  0  0  0  0  0  0  0  0  0  0  0  0  # atno 17321 bound_to 7965
  140.6176  143.2173  151.6759 LP  0  0  0  0  0  0  0  0  0  0  0  0  # atno 17342 bound_to 10162
  139.5106  144.3537  152.0628 LP  0  0  0  0  0  0  0  0  0  0  0  0  # atno 17343 bound_to 10162
  156.0759  130.3679  150.0679 LP  0  0  0  0  0  0  0  0  0  0  0  0  # atno 17370 bound_to 10713
  156.8832  130.9563  151.3597 LP  0  0  0  0  0  0  0  0  0  0  0  0  # atno 17371 bound_to 10713
  140.5545  134.5995  157.5417 LP  0  0  0  0  0  0  0  0  0  0  0  0  # atno 17394 bound_to 11000
  139.9586  134.7492  156.0287 LP  0  0  0  0  0  0  0  0  0  0  0  0  # atno 17395 bound_to 11000

$$$$
