AV-unprocessed.smi:276|AV-procd|sdf|2084|dock7
  -GOLD-   2262021353D 1   1.00000     0.00000
 Structure written by MMmdl.
 57 61  0  0  0  0  0  0  0  0  1 V2000
  143.3542  134.3545  152.5742 C   0  0  0  0  0  0  0  0  0  0  0  0
  144.3740  134.6877  153.4995 O   0  0  0  0  0  0  0  0  0  0  0  0
  144.3805  136.0672  153.8307 C   0  0  2  0  0  0  0  0  0  0  0  0
  144.7406  136.9979  152.6667 C   0  0  0  0  0  0  0  0  0  0  0  0
  145.5120  137.8420  153.6903 C   0  0  2  0  0  0  0  0  0  0  0  0
  146.7357  138.4347  153.1449 N   0  0  0  0  0  0  0  0  0  0  0  0
  146.7016  138.7907  151.7320 C   0  0  0  0  0  0  0  0  0  0  0  0
  147.2801  139.4427  153.8638 C   0  0  0  0  0  0  0  0  0  0  0  0
  146.4508  140.4515  154.2318 N   0  0  0  0  0  0  0  0  0  0  0  0
  146.9231  141.4855  154.9340 C   0  0  0  0  0  0  0  0  0  0  0  0
  148.1657  141.7003  155.3714 N   0  0  0  0  0  0  0  0  0  0  0  0
  148.9965  140.6762  155.0231 C   0  0  0  0  0  0  0  0  0  0  0  0
  148.6407  139.5142  154.2816 C   0  0  0  0  0  0  0  0  0  0  0  0
  149.7505  138.6885  154.1405 N   0  0  0  0  0  0  0  0  0  0  0  0
  150.7089  139.3319  154.7494 C   0  0  0  0  0  0  0  0  0  0  0  0
  150.3425  140.5354  155.3064 N   0  0  0  0  0  0  0  0  0  0  0  0
  151.1971  141.4525  156.0386 C   0  0  0  0  0  0  0  0  0  0  0  0
  150.6338  141.7961  157.4307 C   0  0  1  0  0  0  0  0  0  0  0  0
  150.4058  140.6170  158.1801 O   0  0  0  0  0  0  0  0  0  0  0  0
  151.5335  142.7790  158.2076 C   0  0  1  0  0  0  0  0  0  0  0  0
  151.7068  144.1786  157.6097 C   0  0  0  0  0  0  0  0  0  0  0  0
  152.0124  145.0485  158.8227 C   0  0  0  0  0  0  0  0  0  0  0  0
  151.7915  144.1264  160.0261 C   0  0  0  0  0  0  0  0  0  0  0  0
  151.0511  143.0264  159.5185 O   0  0  0  0  0  0  0  0  0  0  0  0
  145.6777  136.5382  154.5166 C   0  0  0  0  0  0  0  0  0  0  0  0
  145.7871  136.5559  156.0468 C   0  0  0  0  0  0  0  0  0  0  0  0
  147.2357  136.0710  155.9261 C   0  0  0  0  0  0  0  0  0  0  0  0
  146.9519  135.6698  154.4747 C   0  0  0  0  0  0  0  0  0  0  0  0
  143.3859  133.2855  152.3641 H   0  0  0  0  0  0  0  0  0  0  0  0
  143.4843  134.8862  151.6308 H   0  0  0  0  0  0  0  0  0  0  0  0
  142.3672  134.5896  152.9750 H   0  0  0  0  0  0  0  0  0  0  0  0
  143.4906  136.3904  154.3759 H   0  0  0  0  0  0  0  0  0  0  0  0
  145.3811  136.5186  151.9235 H   0  0  0  0  0  0  0  0  0  0  0  0
  143.8905  137.5011  152.2057 H   0  0  0  0  0  0  0  0  0  0  0  0
  144.8458  138.5562  154.1763 H   0  0  0  0  0  0  0  0  0  0  0  0
  145.9808  139.5895  151.5524 H   0  0  0  0  0  0  0  0  0  0  0  0
  146.4164  137.9327  151.1233 H   0  0  0  0  0  0  0  0  0  0  0  0
  147.6805  139.1270  151.3868 H   0  0  0  0  0  0  0  0  0  0  0  0
  146.2021  142.2514  155.1792 H   0  0  0  0  0  0  0  0  0  0  0  0
  151.7143  138.9418  154.8142 H   0  0  0  0  0  0  0  0  0  0  0  0
  152.1899  141.0087  156.1247 H   0  0  0  0  0  0  0  0  0  0  0  0
  151.3114  142.3595  155.4438 H   0  0  0  0  0  0  0  0  0  0  0  0
  149.6608  142.2718  157.3006 H   0  0  0  0  0  0  0  0  0  0  0  0
  149.6188  140.7334  158.6897 H   0  0  0  0  0  0  0  0  0  0  0  0
  152.5217  142.3265  158.3130 H   0  0  0  0  0  0  0  0  0  0  0  0
  152.4977  144.2088  156.8597 H   0  0  0  0  0  0  0  0  0  0  0  0
  150.7895  144.5324  157.1389 H   0  0  0  0  0  0  0  0  0  0  0  0
  153.0331  145.4317  158.8049 H   0  0  0  0  0  0  0  0  0  0  0  0
  151.3359  145.9033  158.8558 H   0  0  0  0  0  0  0  0  0  0  0  0
  152.7462  143.7655  160.4118 H   0  0  0  0  0  0  0  0  0  0  0  0
  151.2611  144.6192  160.8411 H   0  0  0  0  0  0  0  0  0  0  0  0
  145.6772  137.5395  156.5028 H   0  0  0  0  0  0  0  0  0  0  0  0
  145.1380  135.8189  156.5215 H   0  0  0  0  0  0  0  0  0  0  0  0
  147.9626  136.8783  156.0133 H   0  0  0  0  0  0  0  0  0  0  0  0
  147.4867  135.2370  156.5816 H   0  0  0  0  0  0  0  0  0  0  0  0
  146.7455  134.6030  154.3838 H   0  0  0  0  0  0  0  0  0  0  0  0
  147.7130  135.9819  153.7601 H   0  0  0  0  0  0  0  0  0  0  0  0
  1  2  1  0  0  0  0
  1 29  1  0  0  0  0
  1 30  1  0  0  0  0
  1 31  1  0  0  0  0
  2  3  1  0  0  0  0
  3 25  1  0  0  0  0
  3  4  1  0  0  0  0
  3 32  1  0  0  0  0
  4  5  1  0  0  0  0
  4 33  1  0  0  0  0
  4 34  1  0  0  0  0
  5  6  1  0  0  0  0
  5 25  1  0  0  0  0
  5 35  1  0  0  0  0
  6  7  1  0  0  0  0
  6  8  1  0  0  0  0
  7 36  1  0  0  0  0
  7 37  1  0  0  0  0
  7 38  1  0  0  0  0
  8 13  1  0  0  0  0
  8  9  2  0  0  0  0
  9 10  1  0  0  0  0
 10 11  2  0  0  0  0
 10 39  1  0  0  0  0
 11 12  1  0  0  0  0
 12 16  1  0  0  0  0
 12 13  2  0  0  0  0
 13 14  1  0  0  0  0
 14 15  2  0  0  0  0
 15 16  1  0  0  0  0
 15 40  1  0  0  0  0
 16 17  1  0  0  0  0
 17 18  1  0  0  0  0
 17 41  1  0  0  0  0
 17 42  1  0  0  0  0
 18 19  1  0  0  0  0
 18 20  1  0  0  0  0
 18 43  1  0  0  0  0
 19 44  1  0  0  0  0
 20 24  1  0  0  0  0
 20 21  1  0  0  0  0
 20 45  1  0  0  0  0
 21 22  1  0  0  0  0
 21 46  1  0  0  0  0
 21 47  1  0  0  0  0
 22 23  1  0  0  0  0
 22 48  1  0  0  0  0
 22 49  1  0  0  0  0
 23 24  1  0  0  0  0
 23 50  1  0  0  0  0
 23 51  1  0  0  0  0
 25 28  1  0  0  0  0
 25 26  1  0  0  0  0
 26 27  1  0  0  0  0
 26 52  1  0  0  0  0
 26 53  1  0  0  0  0
 27 28  1  0  0  0  0
 27 54  1  0  0  0  0
 27 55  1  0  0  0  0
 28 56  1  0  0  0  0
 28 57  1  0  0  0  0
M  END
> <s_m_source_file>
AV-unprocessed.smi

> <i_m_source_file_index>
276

> <i_lp_mmshare_version>
43012

> <i_f3d_flags>
0

> <s_epik_input>
W0NIMl0xW0NIMl1bQ0gyXUMxMltDQEhdKE9bQ0gzXSlbQ0gyXVtDQEhdMk4oW0NIM10pYyhuW2NIXW4zKWMoYzM0KW5bY0hdbjRbQ0gyXVtDQEhdKFtPSF0pW0NAQEhdNVtDSDJdW0NIMl1bQ0gyXU81

> <s_epik_cmdline>
J2VwaWtfcHl0aG9uJywgJy1waCcsICc3LjAnLCAnLXRuJywgJzgnLCAnLW1hJywgJzIwMCcsICctbWV0YWxfYmluZGluZycsICctaW1hZScsICc8aW5maWxlLm1hZT4nLCAnLW9tYWUnLCAnPG91dGZpbGUubWFlPic=

> <r_lp_tautomer_probability>
1

> <r_epik_Ionization_Penalty>
0.00204117

> <r_epik_Ionization_Penalty_Charging>
0

> <r_epik_Ionization_Penalty_Neutral>
0.00204117

> <r_epik_State_Penalty>
0.00127401

> <r_epik_Charging_Adjusted_Penalty>
0.00127401

> <i_epik_Tot_Q>
0

> <i_epik_Tot_abs_Q>
0

> <r_epik_Metal_State_Penalty>
-0

> <b_epik_Metal_Only>
0

> <s_lp_Force_Field>
OPLS_2005

> <r_lp_Energy>
58.0628

> <b_lp_Chiralities_Consistent>
1

> <s_lp_Variant>
AV-unprocessed.smi:276-15

> <Gold.Version>
5.8.1

> <Gold.Id.Protein>
6NUR|6NUR_protein|mol2

> <Gold.PLP.Fitness>
40.4237

> <Gold.PLP.PLP>
-42.4862

> <Gold.PLP.part.hbond>
-0.3607

> <Gold.PLP.part.metal>
0.0000

> <Gold.PLP.part.buried>
-3.8997

> <Gold.PLP.part.nonpolar>
-38.7151

> <Gold.PLP.part.repulsive>
1.1025

> <Gold.PLP.ligand.clash>
0.0000

> <Gold.PLP.ligand.torsion>
1.3823

> <Gold.PLP.Chemscore.Hbond>
0.0000

> <Gold.PLP.Chemscore.CHOScore>
0.0000

> <Gold.PLP.Chemscore.Metal>
0.0000

> <Gold.PLP.Chemscore.Internal.Correction>
0.7021

> <Gold.Rescore>
     Score         DG    S(hbond)    S(metal)    S(lipo)     H(rot)  DE(clash)    DE(int)     intcor
      8.62      -9.48       0.00        0.00      93.65       2.72       0.08       0.78       ----

> <Gold.Chemscore.Fitness>
8.6222

> <Gold.Chemscore.DG>
-9.4815

> <Gold.Chemscore.ZeroCoef>
-5.4800

> <Gold.Chemscore.Hbond>
0.0000

> <Gold.Chemscore.Metal>
0.0000

> <Gold.Chemscore.Lipo>
93.6539

> <Gold.Chemscore.Internal_Hbond>
0.0000

> <Gold.Chemscore.DEClash>
0.0791

> <Gold.Chemscore.DEInternal>
0.7802

> <Gold.Chemscore.Rot>
2.7172

> <Gold.Chemscore.Internal.Correction>
   9.000000E+99

> <Gold.Chemscore.Hbond.Weighted>
-0.0000

> <Gold.Chemscore.Metal.Weighted>
-0.0000

> <Gold.Chemscore.Lipo.Weighted>
-10.9575

> <Gold.Chemscore.Internal_Hbond.Weighted>
0.0000

> <Gold.Chemscore.DEClash.Weighted>
0.0791

> <Gold.Chemscore.DEInternal.Weighted>
0.7802

> <Gold.Chemscore.Rot.Weighted>
6.9560

> <Gold.Chemscore.Internal.Correction.Weighted>
   9.000000E+99

> <Gold.Protein.RotatedTorsions>
[ 6907 6896 6895 6894 ] final   61.66 input  -60.11 | X-H torsion
[ 7974 7965 7964 7962 ] final    3.38 input  175.53 | X-H torsion
[ 8008 7997 7996 7995 ] final -136.78 input   59.86 | X-H torsion
[ 10167 10162 10161 10158 ] final  -25.42 input  -65.29 | X-H torsion
[ 10718 10713 10712 10709 ] final  142.38 input   66.30 | X-H torsion
[ 10763 10752 10751 10750 ] final   11.14 input  -60.55 | X-H torsion
[ 11005 11000 10999 10996 ] final  107.36 input  -57.11 | X-H torsion

> <Gold.Protein.ActiveResidues>
 VAL166  LYS551  ARG553  GLY616  TRP617  ASP618  TYR619  PRO620  LYS621  CYS622 
 ASP623  PHE694  ASN695  SER759  ASP760  ASP761  ALA762  ILE779  LEU786  VAL792 
 PHE793  MET794  SER795  GLU796  ALA797  LYS798  CYS799  TRP800  GLU811  SER814 

> <Gold.Protein.RotatedAtoms>
  152.4107  134.6129  160.0030 H   0  0  0  0  0  0  0  0  0  0  0  0  # atno 6907 bound_to 6896
  151.6307  133.3326  159.3116 H   0  0  0  0  0  0  0  0  0  0  0  0  # atno 6908 bound_to 6896
  150.7998  134.7124  159.6656 H   0  0  0  0  0  0  0  0  0  0  0  0  # atno 6909 bound_to 6896
  146.2445  140.0693  142.8363 H   0  0  0  0  0  0  0  0  0  0  0  0  # atno 7974 bound_to 7965
  155.4009  140.0506  157.3036 H   0  0  0  0  0  0  0  0  0  0  0  0  # atno 8008 bound_to 7997
  154.4991  140.2150  155.9345 H   0  0  0  0  0  0  0  0  0  0  0  0  # atno 8009 bound_to 7997
  156.1444  140.3148  155.8552 H   0  0  0  0  0  0  0  0  0  0  0  0  # atno 8010 bound_to 7997
  140.7286  143.4266  151.0867 H   0  0  0  0  0  0  0  0  0  0  0  0  # atno 10167 bound_to 10162
  157.3812  131.0992  151.0737 H   0  0  0  0  0  0  0  0  0  0  0  0  # atno 10718 bound_to 10713
  153.1957  135.6849  153.8295 H   0  0  0  0  0  0  0  0  0  0  0  0  # atno 10763 bound_to 10752
  153.7579  135.3214  155.3333 H   0  0  0  0  0  0  0  0  0  0  0  0  # atno 10764 bound_to 10752
  154.8143  135.4696  154.0700 H   0  0  0  0  0  0  0  0  0  0  0  0  # atno 10765 bound_to 10752
  139.8827  134.9398  156.5808 H   0  0  0  0  0  0  0  0  0  0  0  0  # atno 11005 bound_to 11000
  145.0830  140.9234  143.4814 LP  0  0  0  0  0  0  0  0  0  0  0  0  # atno 17320 bound_to 7965
  145.0850  139.2931  143.5764 LP  0  0  0  0  0  0  0  0  0  0  0  0  # atno 17321 bound_to 7965
  139.7918  143.8207  152.3152 LP  0  0  0  0  0  0  0  0  0  0  0  0  # atno 17342 bound_to 10162
  139.8194  144.7302  150.9593 LP  0  0  0  0  0  0  0  0  0  0  0  0  # atno 17343 bound_to 10162
  157.1805  130.6307  149.5670 LP  0  0  0  0  0  0  0  0  0  0  0  0  # atno 17370 bound_to 10713
  155.9776  130.4755  150.6605 LP  0  0  0  0  0  0  0  0  0  0  0  0  # atno 17371 bound_to 10713
  140.8028  133.8491  155.8742 LP  0  0  0  0  0  0  0  0  0  0  0  0  # atno 17394 bound_to 11000
  140.9577  134.1697  157.4679 LP  0  0  0  0  0  0  0  0  0  0  0  0  # atno 17395 bound_to 11000

$$$$
