AV-unprocessed.smi:1586|AV-procd|sdf|6375|dock2
  -GOLD-   22720 7 03D 1   1.00000     0.00000
 Structure written by MMmdl.
 47 48  0  0  0  0  0  0  0  0  2 V2000
  143.8898  132.3471  149.9739 C   0  0  0  0  0  0  0  0  0  0  0  0
  144.4995  132.5518  151.3681 C   0  0  0  0  0  0  0  0  0  0  0  0
  145.8745  133.0520  151.2980 N   0  0  0  0  0  0  0  0  0  0  0  0
  145.9979  134.2273  150.4359 C   0  0  0  0  0  0  0  0  0  0  0  0
  145.3541  135.4839  151.0603 C   0  0  0  0  0  0  0  0  0  0  0  0
  145.9587  135.7952  152.3855 N   0  3  0  0  0  0  0  0  0  0  0  0
  145.4540  137.0369  153.0575 C   0  0  2  0  0  0  0  0  0  0  0  0
  143.9636  137.3384  152.7672 C   0  0  0  0  0  0  0  0  0  0  0  0
  146.3303  138.2551  152.6608 C   0  0  0  0  0  0  0  0  0  0  0  0
  147.7286  138.1067  153.0540 N   0  0  0  0  0  0  0  0  0  0  0  0
  148.3006  138.7416  154.0872 C   0  0  0  0  0  0  0  0  0  0  0  0
  147.6937  139.5257  154.8176 O   0  0  0  0  0  0  0  0  0  0  0  0
  149.5980  138.4134  154.2085 N   0  0  0  0  0  0  0  0  0  0  0  0
  150.5223  138.8927  155.1716 C   0  0  0  0  0  0  0  0  0  0  0  0
  150.1005  139.2228  156.4868 C   0  0  0  0  0  0  0  0  0  0  0  0
  151.2581  139.6309  157.0877 C   0  0  0  0  0  0  0  0  0  0  0  0
  151.5721  140.1181  158.4606 C   0  0  0  0  0  0  0  0  0  0  0  0
  152.2977  139.5559  156.2133 O   0  0  0  0  0  0  0  0  0  0  0  0
  151.8195  139.0816  154.9861 N   0  0  0  0  0  0  0  0  0  0  0  0
  145.8580  134.5947  153.2605 C   0  0  0  0  0  0  0  0  0  0  0  0
  146.4934  133.3597  152.5900 C   0  0  0  0  0  0  0  0  0  0  0  0
  142.8298  132.1060  150.0543 H   0  0  0  0  0  0  0  0  0  0  0  0
  144.3647  131.5277  149.4351 H   0  0  0  0  0  0  0  0  0  0  0  0
  143.9766  133.2490  149.3671 H   0  0  0  0  0  0  0  0  0  0  0  0
  143.8929  133.2903  151.8941 H   0  0  0  0  0  0  0  0  0  0  0  0
  144.4324  131.6315  151.9467 H   0  0  0  0  0  0  0  0  0  0  0  0
  147.0568  134.4138  150.2516 H   0  0  0  0  0  0  0  0  0  0  0  0
  145.5524  134.0172  149.4628 H   0  0  0  0  0  0  0  0  0  0  0  0
  145.5257  136.3028  150.3626 H   0  0  0  0  0  0  0  0  0  0  0  0
  144.2738  135.3681  151.1571 H   0  0  0  0  0  0  0  0  0  0  0  0
  145.5347  136.8776  154.1339 H   0  0  0  0  0  0  0  0  0  0  0  0
  143.6374  138.2599  153.2492 H   0  0  0  0  0  0  0  0  0  0  0  0
  143.3055  136.5587  153.1507 H   0  0  0  0  0  0  0  0  0  0  0  0
  143.7790  137.4479  151.6980 H   0  0  0  0  0  0  0  0  0  0  0  0
  146.3028  138.4491  151.5891 H   0  0  0  0  0  0  0  0  0  0  0  0
  145.9436  139.1562  153.1378 H   0  0  0  0  0  0  0  0  0  0  0  0
  148.2960  137.4781  152.5041 H   0  0  0  0  0  0  0  0  0  0  0  0
  149.9662  137.7536  153.5396 H   0  0  0  0  0  0  0  0  0  0  0  0
  149.1136  139.1702  156.9216 H   0  0  0  0  0  0  0  0  0  0  0  0
  150.6645  140.2198  159.0556 H   0  0  0  0  0  0  0  0  0  0  0  0
  152.0622  141.0912  158.4230 H   0  0  0  0  0  0  0  0  0  0  0  0
  152.2370  139.4235  158.9742 H   0  0  0  0  0  0  0  0  0  0  0  0
  146.3733  134.7625  154.2040 H   0  0  0  0  0  0  0  0  0  0  0  0
  144.8153  134.4049  153.5173 H   0  0  0  0  0  0  0  0  0  0  0  0
  146.4391  132.4979  153.2542 H   0  0  0  0  0  0  0  0  0  0  0  0
  147.5565  133.5433  152.4285 H   0  0  0  0  0  0  0  0  0  0  0  0
  146.9408  135.9482  152.2073 H   0  0  0  0  0  0  0  0  0  0  0  0
  1  2  1  0  0  0  0
  1 22  1  0  0  0  0
  1 23  1  0  0  0  0
  1 24  1  0  0  0  0
  2  3  1  0  0  0  0
  2 25  1  0  0  0  0
  2 26  1  0  0  0  0
  3 21  1  0  0  0  0
  3  4  1  0  0  0  0
  4  5  1  0  0  0  0
  4 27  1  0  0  0  0
  4 28  1  0  0  0  0
  5  6  1  0  0  0  0
  5 29  1  0  0  0  0
  5 30  1  0  0  0  0
  6  7  1  0  0  0  0
  6 20  1  0  0  0  0
  6 47  1  0  0  0  0
  7  8  1  0  0  0  0
  7  9  1  0  0  0  0
  7 31  1  0  0  0  0
  8 32  1  0  0  0  0
  8 33  1  0  0  0  0
  8 34  1  0  0  0  0
  9 10  1  0  0  0  0
  9 35  1  0  0  0  0
  9 36  1  0  0  0  0
 10 11  1  0  0  0  0
 10 37  1  0  0  0  0
 11 12  2  0  0  0  0
 11 13  1  0  0  0  0
 13 14  1  0  0  0  0
 13 38  1  0  0  0  0
 14 19  2  0  0  0  0
 14 15  1  0  0  0  0
 15 16  2  0  0  0  0
 15 39  1  0  0  0  0
 16 17  1  0  0  0  0
 16 18  1  0  0  0  0
 17 40  1  0  0  0  0
 17 41  1  0  0  0  0
 17 42  1  0  0  0  0
 18 19  1  0  0  0  0
 20 21  1  0  0  0  0
 20 43  1  0  0  0  0
 20 44  1  0  0  0  0
 21 45  1  0  0  0  0
 21 46  1  0  0  0  0
M  CHG  1   6   1
M  END
> <s_m_source_file>
AV-unprocessed.smi

> <i_m_source_file_index>
1586

> <i_lp_mmshare_version>
43012

> <i_f3d_flags>
0

> <s_epik_input>
W0NIM11bQ0gyXU4xW0NIMl1bQ0gyXU4oW0NIMl1bQ0gyXTEpW0NASF0oW0NIM10pW0NIMl1bTkhdQyg9TylbTkhdYzJbY0hdYyhbQ0gzXSlvbjI=

> <s_epik_cmdline>
J2VwaWtfcHl0aG9uJywgJy1waCcsICc3LjAnLCAnLXRuJywgJzgnLCAnLW1hJywgJzIwMCcsICctbWV0YWxfYmluZGluZycsICctaW1hZScsICc8aW5maWxlLm1hZT4nLCAnLW9tYWUnLCAnPG91dGZpbGUubWFlPic=

> <r_epik_Ionization_Penalty>
0.153363

> <r_epik_Ionization_Penalty_Charging>
0.151842

> <r_epik_Ionization_Penalty_Neutral>
0.00152029

> <r_epik_State_Penalty>
0.985235

> <r_epik_Charging_Adjusted_Penalty>
1.13708

> <i_epik_Tot_Q>
1

> <i_epik_Tot_abs_Q>
1

> <r_epik_Metal_State_Penalty>
0.996168

> <b_epik_Metal_Only>
0

> <s_lp_Force_Field>
OPLS_2005

> <r_lp_Energy>
18.9403

> <b_lp_Chiralities_Consistent>
1

> <s_lp_Variant>
AV-unprocessed.smi:1586-3

> <Gold.Version>
5.8.1

> <Gold.Id.Protein>
6NUR|6NUR_protein|mol2

> <Gold.PLP.Fitness>
44.6814

> <Gold.PLP.PLP>
-31.4485

> <Gold.PLP.part.hbond>
-6.7883

> <Gold.PLP.part.metal>
0.0000

> <Gold.PLP.part.buried>
-1.2002

> <Gold.PLP.part.nonpolar>
-24.7924

> <Gold.PLP.part.repulsive>
0.4628

> <Gold.PLP.ligand.clash>
0.0000

> <Gold.PLP.ligand.torsion>
1.1828

> <Gold.PLP.Chemscore.Hbond>
5.1641

> <Gold.PLP.Chemscore.CHOScore>
0.0000

> <Gold.PLP.Chemscore.Metal>
0.0000

> <Gold.Chemscore.Hbonds>
donor molecule, donor type, donor heavy atom, donor atom, acceptor molecule, acceptor atom, score
      L1  H     6    47       P1  7948  1.95
      L1  H    10    37       P1  7948  1.00
      P1  H  7989  7998       L1    19  0.25
      P1  H  7997  8009       L1    18  0.75

> <Gold.PLP.Chemscore.Internal.Correction>
0.1065

> <Gold.Rescore>
     Score         DG    S(hbond)    S(metal)    S(lipo)     H(rot)  DE(clash)    DE(int)     intcor
     18.49     -20.58       3.70        0.00      62.12       1.76       0.72       1.37       ----

> <Gold.Chemscore.Fitness>
18.4935

> <Gold.Chemscore.DG>
-20.5796

> <Gold.Chemscore.ZeroCoef>
-5.4800

> <Gold.Chemscore.Hbond>
3.6966

> <Gold.Chemscore.Metal>
0.0000

> <Gold.Chemscore.Lipo>
62.1193

> <Gold.Chemscore.Internal_Hbond>
0.0000

> <Gold.Chemscore.DEClash>
0.7165

> <Gold.Chemscore.DEInternal>
1.3696

> <Gold.Chemscore.Rot>
1.7637

> <Gold.Chemscore.Internal.Correction>
   9.000000E+99

> <Gold.Chemscore.Hbonds>
donor molecule, donor type, donor heavy atom, donor atom, acceptor molecule, acceptor atom, score
      L1  H     6    47       P1  7948  0.91
      L1  H    10    37       P1  7948  0.93
      L1  H    13    38       P1  7948  0.02
      P1  H  7989  7998       L1    19  0.03
      P1  H  7997  8009       L1    18  0.68

> <Gold.Chemscore.Hbond.Weighted>
-12.3467

> <Gold.Chemscore.Metal.Weighted>
-0.0000

> <Gold.Chemscore.Lipo.Weighted>
-7.2680

> <Gold.Chemscore.Internal_Hbond.Weighted>
0.0000

> <Gold.Chemscore.DEClash.Weighted>
0.7165

> <Gold.Chemscore.DEInternal.Weighted>
1.3696

> <Gold.Chemscore.Rot.Weighted>
4.5150

> <Gold.Chemscore.Internal.Correction.Weighted>
   9.000000E+99

> <Gold.Protein.RotatedTorsions>
[ 6907 6896 6895 6894 ] final   16.79 input  -60.11 | X-H torsion
[ 7974 7965 7964 7962 ] final   62.42 input  175.53 | X-H torsion
[ 8008 7997 7996 7995 ] final -154.05 input   59.86 | X-H torsion
[ 10167 10162 10161 10158 ] final   56.97 input  -65.29 | X-H torsion
[ 10718 10713 10712 10709 ] final -126.65 input   66.30 | X-H torsion
[ 10763 10752 10751 10750 ] final  169.47 input  -60.55 | X-H torsion
[ 11005 11000 10999 10996 ] final   97.21 input  -57.11 | X-H torsion

> <Gold.Protein.ActiveResidues>
 VAL166  LYS551  ARG553  GLY616  TRP617  ASP618  TYR619  PRO620  LYS621  CYS622 
 ASP623  PHE694  ASN695  SER759  ASP760  ASP761  ALA762  ILE779  LEU786  VAL792 
 PHE793  MET794  SER795  GLU796  ALA797  LYS798  CYS799  TRP800  GLU811  SER814 

> <Gold.Protein.RotatedAtoms>
  151.8394  135.0595  160.0445 H   0  0  0  0  0  0  0  0  0  0  0  0  # atno 6907 bound_to 6896
  152.2821  133.5475  159.5512 H   0  0  0  0  0  0  0  0  0  0  0  0  # atno 6908 bound_to 6896
  150.7193  134.0466  159.3826 H   0  0  0  0  0  0  0  0  0  0  0  0  # atno 6909 bound_to 6896
  145.8735  139.3394  143.0748 H   0  0  0  0  0  0  0  0  0  0  0  0  # atno 7974 bound_to 7965
  155.6804  140.0743  157.2487 H   0  0  0  0  0  0  0  0  0  0  0  0  # atno 8008 bound_to 7997
  154.4106  140.1683  156.2028 H   0  0  0  0  0  0  0  0  0  0  0  0  # atno 8009 bound_to 7997
  155.9540  140.3375  155.6435 H   0  0  0  0  0  0  0  0  0  0  0  0  # atno 8010 bound_to 7997
  140.2030  144.3969  150.6521 H   0  0  0  0  0  0  0  0  0  0  0  0  # atno 10167 bound_to 10162
  156.1785  130.6715  151.0273 H   0  0  0  0  0  0  0  0  0  0  0  0  # atno 10718 bound_to 10713
  154.3837  135.2753  155.2196 H   0  0  0  0  0  0  0  0  0  0  0  0  # atno 10763 bound_to 10752
  154.4292  135.5981  153.6061 H   0  0  0  0  0  0  0  0  0  0  0  0  # atno 10764 bound_to 10752
  152.9834  135.5991  154.4083 H   0  0  0  0  0  0  0  0  0  0  0  0  # atno 10765 bound_to 10752
  139.8777  134.8989  156.4273 H   0  0  0  0  0  0  0  0  0  0  0  0  # atno 11005 bound_to 11000
  145.9108  140.9181  143.0455 LP  0  0  0  0  0  0  0  0  0  0  0  0  # atno 17320 bound_to 7965
  144.6726  140.1158  143.7453 LP  0  0  0  0  0  0  0  0  0  0  0  0  # atno 17321 bound_to 7965
  140.6377  143.2198  151.6358 LP  0  0  0  0  0  0  0  0  0  0  0  0  # atno 17342 bound_to 10162
  139.5210  144.3207  152.0913 LP  0  0  0  0  0  0  0  0  0  0  0  0  # atno 17343 bound_to 10162
  157.6852  131.0827  150.7263 LP  0  0  0  0  0  0  0  0  0  0  0  0  # atno 17370 bound_to 10713
  156.7320  130.4712  149.5497 LP  0  0  0  0  0  0  0  0  0  0  0  0  # atno 17371 bound_to 10713
  140.9091  133.7724  155.9771 LP  0  0  0  0  0  0  0  0  0  0  0  0  # atno 17394 bound_to 11000
  140.8566  134.2891  157.5253 LP  0  0  0  0  0  0  0  0  0  0  0  0  # atno 17395 bound_to 11000

$$$$
