AV-unprocessed.smi:2698|AV-procd|sdf|10422|dock10
  -GOLD-   2272014463D 1   1.00000     0.00000
 Structure written by MMmdl.
 33 33  0  0  0  0  0  0  0  0  2 V2000
  153.0799  142.5352  160.6745 C   0  0  0  0  0  0  0  0  0  0  0  0
  152.5173  142.1003  159.3128 C   0  0  0  0  0  0  0  0  0  0  0  0
  151.6678  143.2294  158.7004 C   0  0  0  0  0  0  0  0  0  0  0  0
  151.7545  140.7614  159.4432 C   0  0  0  0  0  0  0  0  0  0  0  0
  150.9286  140.4095  158.2030 C   0  0  0  0  0  0  0  0  0  0  0  0
  149.7594  140.7842  158.1127 O   0  0  0  0  0  0  0  0  0  0  0  0
  151.5520  139.6860  157.2591 N   0  0  0  0  0  0  0  0  0  0  0  0
  150.9919  139.2774  155.9706 C   0  0  1  0  0  0  0  0  0  0  0  0
  150.2264  140.4370  155.2962 C   0  0  0  0  0  0  0  0  0  0  0  0
  149.0246  140.0250  154.4819 C   0  0  0  0  0  0  0  0  0  0  0  0
  148.8243  138.8586  153.7723 C   0  0  0  0  0  0  0  0  0  0  0  0
  147.5565  138.9496  153.2263 N   0  0  0  0  0  0  0  0  0  0  0  0
  147.0509  140.1231  153.6065 C   0  0  0  0  0  0  0  0  0  0  0  0
  147.8822  140.8259  154.3639 N   0  0  0  0  0  0  0  0  0  0  0  0
  152.0928  138.6864  155.0842 C   0  0  0  0  0  0  0  0  0  0  0  0
  153.0361  139.4420  154.7597 O   0  0  0  0  0  0  0  0  0  0  0  0
  151.9727  137.4899  154.7408 O   0  5  0  0  0  0  0  0  0  0  0  0
  147.0975  138.2555  152.6545 H   0  0  0  0  0  0  0  0  0  0  0  0
  152.2800  142.7260  161.3905 H   0  0  0  0  0  0  0  0  0  0  0  0
  153.6702  143.4473  160.5831 H   0  0  0  0  0  0  0  0  0  0  0  0
  153.7289  141.7672  161.0962 H   0  0  0  0  0  0  0  0  0  0  0  0
  153.3709  141.9382  158.6524 H   0  0  0  0  0  0  0  0  0  0  0  0
  150.7693  143.4125  159.2902 H   0  0  0  0  0  0  0  0  0  0  0  0
  151.3575  142.9980  157.6819 H   0  0  0  0  0  0  0  0  0  0  0  0
  152.2310  144.1617  158.6559 H   0  0  0  0  0  0  0  0  0  0  0  0
  152.4600  139.9506  159.6317 H   0  0  0  0  0  0  0  0  0  0  0  0
  151.0921  140.7904  160.3094 H   0  0  0  0  0  0  0  0  0  0  0  0
  152.5064  139.4057  157.4329 H   0  0  0  0  0  0  0  0  0  0  0  0
  150.2749  138.4724  156.1445 H   0  0  0  0  0  0  0  0  0  0  0  0
  149.9051  141.1641  156.0437 H   0  0  0  0  0  0  0  0  0  0  0  0
  150.9038  140.9715  154.6290 H   0  0  0  0  0  0  0  0  0  0  0  0
  149.4572  137.9958  153.6277 H   0  0  0  0  0  0  0  0  0  0  0  0
  146.0647  140.4656  153.3295 H   0  0  0  0  0  0  0  0  0  0  0  0
  1  2  1  0  0  0  0
  1 19  1  0  0  0  0
  1 20  1  0  0  0  0
  1 21  1  0  0  0  0
  2  3  1  0  0  0  0
  2  4  1  0  0  0  0
  2 22  1  0  0  0  0
  3 23  1  0  0  0  0
  3 24  1  0  0  0  0
  3 25  1  0  0  0  0
  4  5  1  0  0  0  0
  4 26  1  0  0  0  0
  4 27  1  0  0  0  0
  5  6  2  0  0  0  0
  5  7  1  0  0  0  0
  7  8  1  0  0  0  0
  7 28  1  0  0  0  0
  8  9  1  0  0  0  0
  8 15  1  0  0  0  0
  8 29  1  0  0  0  0
  9 10  1  0  0  0  0
  9 30  1  0  0  0  0
  9 31  1  0  0  0  0
 10 14  1  0  0  0  0
 10 11  2  0  0  0  0
 11 12  1  0  0  0  0
 11 32  1  0  0  0  0
 12 18  1  0  0  0  0
 12 13  1  0  0  0  0
 13 14  2  0  0  0  0
 13 33  1  0  0  0  0
 15 16  2  0  0  0  0
 15 17  1  0  0  0  0
M  CHG  1  17  -1
M  END
> <s_m_source_file>
AV-unprocessed.smi

> <i_m_source_file_index>
2698

> <i_lp_mmshare_version>
43012

> <i_f3d_flags>
0

> <s_epik_input>
W0NIM11bQ0hdKFtDSDNdKVtDSDJdQyg9TylbTkhdW0NAQEhdKEMoPU8pW09IXSlbQ0gyXWMxW2NIXVtuSF1bY0hdbjE=

> <s_epik_cmdline>
J2VwaWtfcHl0aG9uJywgJy1waCcsICc3LjAnLCAnLXRuJywgJzgnLCAnLW1hJywgJzIwMCcsICctbWV0YWxfYmluZGluZycsICctaW1hZScsICc8aW5maWxlLm1hZT4nLCAnLW9tYWUnLCAnPG91dGZpbGUubWFlPic=

> <r_lp_tautomer_probability>
0.5

> <r_epik_Ionization_Penalty>
0.818672

> <r_epik_Ionization_Penalty_Charging>
0.818672

> <r_epik_Ionization_Penalty_Neutral>
7.99661e-08

> <r_epik_State_Penalty>
0.927032

> <r_epik_Charging_Adjusted_Penalty>
1.7457

> <i_epik_Tot_Q>
-1

> <i_epik_Tot_abs_Q>
1

> <r_epik_Metal_State_Penalty>
0.525537

> <b_epik_Metal_Only>
0

> <s_lp_Force_Field>
OPLS_2005

> <r_lp_Energy>
1.97611

> <b_lp_Chiralities_Consistent>
1

> <s_lp_Variant>
AV-unprocessed.smi:2698-6

> <Gold.Version>
5.8.1

> <Gold.Id.Protein>
6NUR|6NUR_protein|mol2

> <Gold.PLP.Fitness>
44.6430

> <Gold.PLP.PLP>
-31.4596

> <Gold.PLP.part.hbond>
-3.9430

> <Gold.PLP.part.metal>
0.0000

> <Gold.PLP.part.buried>
-1.6955

> <Gold.PLP.part.nonpolar>
-27.2617

> <Gold.PLP.part.repulsive>
0.3927

> <Gold.PLP.ligand.clash>
0.0000

> <Gold.PLP.ligand.torsion>
1.4117

> <Gold.PLP.Chemscore.Hbond>
3.6968

> <Gold.PLP.Chemscore.CHOScore>
1.5973

> <Gold.PLP.Chemscore.Metal>
0.0000

> <Gold.Chemscore.Hbonds>
donor molecule, donor type, donor heavy atom, donor atom, acceptor molecule, acceptor atom, score
      P1  H  7989  7998       L1    16  0.08
      P1  H  7997  8009       L1    16  2.00
      P1  H 10752 10763       L1    17  1.40
      L1  C    11    32       P1  7948  0.85
      L1  C    13    33       P1 10175  1.00

> <Gold.PLP.Chemscore.Internal.Correction>
0.1247

> <Gold.Rescore>
     Score         DG    S(hbond)    S(metal)    S(lipo)     H(rot)  DE(clash)    DE(int)     intcor
      9.99     -11.94       1.82        0.00      69.33       3.01       0.05       1.90       ----

> <Gold.Chemscore.Fitness>
9.9858

> <Gold.Chemscore.DG>
-11.9405

> <Gold.Chemscore.ZeroCoef>
-5.4800

> <Gold.Chemscore.Hbond>
1.8161

> <Gold.Chemscore.Metal>
0.0000

> <Gold.Chemscore.Lipo>
69.3318

> <Gold.Chemscore.Internal_Hbond>
0.0000

> <Gold.Chemscore.DEClash>
0.0528

> <Gold.Chemscore.DEInternal>
1.9020

> <Gold.Chemscore.Rot>
3.0145

> <Gold.Chemscore.Internal.Correction>
   9.000000E+99

> <Gold.Chemscore.Hbonds>
donor molecule, donor type, donor heavy atom, donor atom, acceptor molecule, acceptor atom, score
      P1  H  7989  7998       L1    16  0.01
      P1  H  7997  8009       L1    16  0.98
      P1  H 10752 10763       L1    17  0.68

> <Gold.Chemscore.Hbond.Weighted>
-6.0658

> <Gold.Chemscore.Metal.Weighted>
-0.0000

> <Gold.Chemscore.Lipo.Weighted>
-8.1118

> <Gold.Chemscore.Internal_Hbond.Weighted>
0.0000

> <Gold.Chemscore.DEClash.Weighted>
0.0528

> <Gold.Chemscore.DEInternal.Weighted>
1.9020

> <Gold.Chemscore.Rot.Weighted>
7.7171

> <Gold.Chemscore.Internal.Correction.Weighted>
   9.000000E+99

> <Gold.Protein.RotatedTorsions>
[ 6907 6896 6895 6894 ] final  -64.89 input  -60.11 | X-H torsion
[ 7974 7965 7964 7962 ] final   34.19 input  175.53 | X-H torsion
[ 8008 7997 7996 7995 ] final -121.01 input   59.86 | X-H torsion
[ 10167 10162 10161 10158 ] final -163.75 input  -65.29 | X-H torsion
[ 10718 10713 10712 10709 ] final  -94.80 input   66.30 | X-H torsion
[ 10763 10752 10751 10750 ] final   47.94 input  -60.55 | X-H torsion
[ 11005 11000 10999 10996 ] final  162.57 input  -57.11 | X-H torsion

> <Gold.Protein.ActiveResidues>
 VAL166  LYS551  ARG553  GLY616  TRP617  ASP618  TYR619  PRO620  LYS621  CYS622 
 ASP623  PHE694  ASN695  SER759  ASP760  ASP761  ALA762  ILE779  LEU786  VAL792 
 PHE793  MET794  SER795  GLU796  ALA797  LYS798  CYS799  TRP800  GLU811  SER814 

> <Gold.Protein.RotatedAtoms>
  150.7558  134.6236  159.6148 H   0  0  0  0  0  0  0  0  0  0  0  0  # atno 6907 bound_to 6896
  152.3535  134.6969  160.0238 H   0  0  0  0  0  0  0  0  0  0  0  0  # atno 6908 bound_to 6896
  151.7382  133.3284  159.3395 H   0  0  0  0  0  0  0  0  0  0  0  0  # atno 6909 bound_to 6896
  146.1370  139.6301  142.9189 H   0  0  0  0  0  0  0  0  0  0  0  0  # atno 7974 bound_to 7965
  155.1411  140.0402  157.2798 H   0  0  0  0  0  0  0  0  0  0  0  0  # atno 8008 bound_to 7997
  154.6472  140.2561  155.7228 H   0  0  0  0  0  0  0  0  0  0  0  0  # atno 8009 bound_to 7997
  156.2560  140.2843  156.0891 H   0  0  0  0  0  0  0  0  0  0  0  0  # atno 8010 bound_to 7997
  139.6299  144.0460  152.2007 H   0  0  0  0  0  0  0  0  0  0  0  0  # atno 10167 bound_to 10162
  156.0033  130.5082  150.5980 H   0  0  0  0  0  0  0  0  0  0  0  0  # atno 10718 bound_to 10713
  152.9795  135.5960  154.3845 H   0  0  0  0  0  0  0  0  0  0  0  0  # atno 10763 bound_to 10752
  154.3507  135.2767  155.2375 H   0  0  0  0  0  0  0  0  0  0  0  0  # atno 10764 bound_to 10752
  154.4416  135.6012  153.6188 H   0  0  0  0  0  0  0  0  0  0  0  0  # atno 10765 bound_to 10752
  140.2271  134.8152  157.3280 H   0  0  0  0  0  0  0  0  0  0  0  0  # atno 11005 bound_to 11000
  145.5134  141.0434  143.2475 LP  0  0  0  0  0  0  0  0  0  0  0  0  # atno 17320 bound_to 7965
  144.7750  139.6650  143.7178 LP  0  0  0  0  0  0  0  0  0  0  0  0  # atno 17321 bound_to 7965
  140.0123  144.6215  150.7637 LP  0  0  0  0  0  0  0  0  0  0  0  0  # atno 17342 bound_to 10162
  140.7433  143.2844  151.3506 LP  0  0  0  0  0  0  0  0  0  0  0  0  # atno 17343 bound_to 10162
  157.3834  131.0784  151.1457 LP  0  0  0  0  0  0  0  0  0  0  0  0  # atno 17370 bound_to 10713
  157.2172  130.6465  149.5797 LP  0  0  0  0  0  0  0  0  0  0  0  0  # atno 17371 bound_to 10713
  140.1789  134.4515  155.7784 LP  0  0  0  0  0  0  0  0  0  0  0  0  # atno 17394 bound_to 11000
  141.2220  133.6974  156.7834 LP  0  0  0  0  0  0  0  0  0  0  0  0  # atno 17395 bound_to 11000

$$$$
