AV-unprocessed.smi:573|AV-procd|sdf|2972|dock8
  -GOLD-   2262023483D 1   1.00000     0.00000
 Structure written by MMmdl.
 44 46  0  0  0  0  0  0  0  0  1 V2000
  148.6997  137.5878  158.1121 C   0  0  0  0  0  0  0  0  0  0  0  0
  149.9069  137.4773  159.0557 C   0  0  1  0  0  0  0  0  0  0  0  0
  149.9973  136.1390  159.4958 O   0  0  0  0  0  0  0  0  0  0  0  0
  151.2431  137.8536  158.3924 C   0  0  0  0  0  0  0  0  0  0  0  0
  151.1861  139.1413  157.7249 N   0  0  0  0  0  0  0  0  0  0  0  0
  151.4504  140.4341  158.1618 C   0  0  0  0  0  0  0  0  0  0  0  0
  151.8394  140.7380  159.3989 N   0  0  0  0  0  0  0  0  0  0  0  0
  151.9613  142.1135  159.3376 C   0  0  0  0  0  0  0  0  0  0  0  0
  152.3404  143.0457  160.3300 C   0  0  0  0  0  0  0  0  0  0  0  0
  152.3920  144.4233  160.0330 C   0  0  0  0  0  0  0  0  0  0  0  0
  152.0645  144.8887  158.7430 C   0  0  0  0  0  0  0  0  0  0  0  0
  151.6836  143.9778  157.7390 C   0  0  0  0  0  0  0  0  0  0  0  0
  151.6361  142.6031  158.0389 C   0  0  0  0  0  0  0  0  0  0  0  0
  151.3104  141.4690  157.3007 N   0  0  0  0  0  0  0  0  0  0  0  0
  150.8983  141.4280  155.9048 C   0  0  0  0  0  0  0  0  0  0  0  0
  149.4356  140.9792  155.7535 C   0  0  2  0  0  0  0  0  0  0  0  0
  148.8704  141.2994  154.3570 C   0  0  0  0  0  0  0  0  0  0  0  0
  147.3943  140.8946  154.2706 C   0  0  0  0  0  0  0  0  0  0  0  0
  146.6150  141.5307  155.4269 C   0  0  0  0  0  0  0  0  0  0  0  0
  147.2921  141.2111  156.7694 C   0  0  0  0  0  0  0  0  0  0  0  0
  148.6492  141.6406  156.7432 O   0  0  0  0  0  0  0  0  0  0  0  0
  148.5429  138.6164  157.7876 H   0  0  0  0  0  0  0  0  0  0  0  0
  147.7843  137.2613  158.6066 H   0  0  0  0  0  0  0  0  0  0  0  0
  148.8349  136.9744  157.2206 H   0  0  0  0  0  0  0  0  0  0  0  0
  149.7424  138.1033  159.9339 H   0  0  0  0  0  0  0  0  0  0  0  0
  149.1534  135.7287  159.3846 H   0  0  0  0  0  0  0  0  0  0  0  0
  152.0293  137.9098  159.1460 H   0  0  0  0  0  0  0  0  0  0  0  0
  151.5468  137.0866  157.6787 H   0  0  0  0  0  0  0  0  0  0  0  0
  150.9298  139.0772  156.7505 H   0  0  0  0  0  0  0  0  0  0  0  0
  152.5909  142.6999  161.3220 H   0  0  0  0  0  0  0  0  0  0  0  0
  152.6829  145.1266  160.7993 H   0  0  0  0  0  0  0  0  0  0  0  0
  152.1051  145.9458  158.5247 H   0  0  0  0  0  0  0  0  0  0  0  0
  151.4285  144.3317  156.7511 H   0  0  0  0  0  0  0  0  0  0  0  0
  151.0357  142.4193  155.4718 H   0  0  0  0  0  0  0  0  0  0  0  0
  151.5646  140.7608  155.3567 H   0  0  0  0  0  0  0  0  0  0  0  0
  149.3824  139.9022  155.9239 H   0  0  0  0  0  0  0  0  0  0  0  0
  148.9680  142.3670  154.1562 H   0  0  0  0  0  0  0  0  0  0  0  0
  149.4446  140.7822  153.5876 H   0  0  0  0  0  0  0  0  0  0  0  0
  146.9706  141.1980  153.3128 H   0  0  0  0  0  0  0  0  0  0  0  0
  147.3076  139.8085  154.3225 H   0  0  0  0  0  0  0  0  0  0  0  0
  146.5735  142.6119  155.2896 H   0  0  0  0  0  0  0  0  0  0  0  0
  145.5844  141.1748  155.4289 H   0  0  0  0  0  0  0  0  0  0  0  0
  146.7773  141.7262  157.5807 H   0  0  0  0  0  0  0  0  0  0  0  0
  147.2416  140.1434  156.9876 H   0  0  0  0  0  0  0  0  0  0  0  0
  1  2  1  0  0  0  0
  1 22  1  0  0  0  0
  1 23  1  0  0  0  0
  1 24  1  0  0  0  0
  2  3  1  0  0  0  0
  2  4  1  0  0  0  0
  2 25  1  0  0  0  0
  3 26  1  0  0  0  0
  4  5  1  0  0  0  0
  4 27  1  0  0  0  0
  4 28  1  0  0  0  0
  5  6  1  0  0  0  0
  5 29  1  0  0  0  0
  6 14  1  0  0  0  0
  6  7  2  0  0  0  0
  7  8  1  0  0  0  0
  8 13  2  0  0  0  0
  8  9  1  0  0  0  0
  9 10  2  0  0  0  0
  9 30  1  0  0  0  0
 10 11  1  0  0  0  0
 10 31  1  0  0  0  0
 11 12  2  0  0  0  0
 11 32  1  0  0  0  0
 12 13  1  0  0  0  0
 12 33  1  0  0  0  0
 13 14  1  0  0  0  0
 14 15  1  0  0  0  0
 15 16  1  0  0  0  0
 15 34  1  0  0  0  0
 15 35  1  0  0  0  0
 16 21  1  0  0  0  0
 16 17  1  0  0  0  0
 16 36  1  0  0  0  0
 17 18  1  0  0  0  0
 17 37  1  0  0  0  0
 17 38  1  0  0  0  0
 18 19  1  0  0  0  0
 18 39  1  0  0  0  0
 18 40  1  0  0  0  0
 19 20  1  0  0  0  0
 19 41  1  0  0  0  0
 19 42  1  0  0  0  0
 20 21  1  0  0  0  0
 20 43  1  0  0  0  0
 20 44  1  0  0  0  0
M  END
> <s_m_source_file>
AV-unprocessed.smi

> <i_m_source_file_index>
573

> <i_lp_mmshare_version>
43012

> <i_f3d_flags>
0

> <s_epik_input>
W0NIM11bQ0BIXShbT0hdKVtDSDJdW05IXWMobjEpbihjKGMxMilbY0hdW2NIXVtjSF1bY0hdMilbQ0gyXVtDQEBIXTNbQ0gyXVtDSDJdW0NIMl1bQ0gyXU8z

> <s_epik_cmdline>
J2VwaWtfcHl0aG9uJywgJy1waCcsICc3LjAnLCAnLXRuJywgJzgnLCAnLW1hJywgJzIwMCcsICctbWV0YWxfYmluZGluZycsICctaW1hZScsICc8aW5maWxlLm1hZT4nLCAnLW9tYWUnLCAnPG91dGZpbGUubWFlPic=

> <r_epik_Ionization_Penalty>
1.30635

> <r_epik_Ionization_Penalty_Charging>
0

> <r_epik_Ionization_Penalty_Neutral>
1.30635

> <r_epik_State_Penalty>
1.38073

> <r_epik_Charging_Adjusted_Penalty>
1.38073

> <i_epik_Tot_Q>
0

> <i_epik_Tot_abs_Q>
0

> <r_epik_Metal_State_Penalty>
0.00547412

> <b_epik_Metal_Only>
0

> <s_lp_Force_Field>
OPLS_2005

> <r_lp_Energy>
6.58613

> <b_lp_Chiralities_Consistent>
1

> <s_lp_Variant>
AV-unprocessed.smi:573-6

> <Gold.Version>
5.8.1

> <Gold.Id.Protein>
6NUR|6NUR_protein|mol2

> <Gold.PLP.Fitness>
44.7118

> <Gold.PLP.PLP>
-42.5033

> <Gold.PLP.part.hbond>
-1.0000

> <Gold.PLP.part.metal>
0.0000

> <Gold.PLP.part.buried>
-5.6434

> <Gold.PLP.part.nonpolar>
-34.9861

> <Gold.PLP.part.repulsive>
0.9246

> <Gold.PLP.ligand.clash>
0.0000

> <Gold.PLP.ligand.torsion>
0.3993

> <Gold.PLP.Chemscore.Hbond>
1.0000

> <Gold.PLP.Chemscore.CHOScore>
0.0000

> <Gold.PLP.Chemscore.Metal>
0.0000

> <Gold.Chemscore.Hbonds>
donor molecule, donor type, donor heavy atom, donor atom, acceptor molecule, acceptor atom, score
      P1  H  6896  6909       L1     3  0.65

> <Gold.PLP.Chemscore.Internal.Correction>
0.0072

> <Gold.Rescore>
     Score         DG    S(hbond)    S(metal)    S(lipo)     H(rot)  DE(clash)    DE(int)     intcor
     15.51     -16.73       0.91        0.00     114.31       2.02       0.16       1.06       ----

> <Gold.Chemscore.Fitness>
15.5090

> <Gold.Chemscore.DG>
-16.7270

> <Gold.Chemscore.ZeroCoef>
-5.4800

> <Gold.Chemscore.Hbond>
0.9131

> <Gold.Chemscore.Metal>
0.0000

> <Gold.Chemscore.Lipo>
114.3140

> <Gold.Chemscore.Internal_Hbond>
0.0000

> <Gold.Chemscore.DEClash>
0.1565

> <Gold.Chemscore.DEInternal>
1.0615

> <Gold.Chemscore.Rot>
2.0224

> <Gold.Chemscore.Internal.Correction>
   9.000000E+99

> <Gold.Chemscore.Hbonds>
donor molecule, donor type, donor heavy atom, donor atom, acceptor molecule, acceptor atom, score
      P1  H  6896  6909       L1     3  0.05

> <Gold.Chemscore.Hbond.Weighted>
-3.0496

> <Gold.Chemscore.Metal.Weighted>
-0.0000

> <Gold.Chemscore.Lipo.Weighted>
-13.3747

> <Gold.Chemscore.Internal_Hbond.Weighted>
0.0000

> <Gold.Chemscore.DEClash.Weighted>
0.1565

> <Gold.Chemscore.DEInternal.Weighted>
1.0615

> <Gold.Chemscore.Rot.Weighted>
5.1773

> <Gold.Chemscore.Internal.Correction.Weighted>
   9.000000E+99

> <Gold.Protein.RotatedTorsions>
[ 6907 6896 6895 6894 ] final   58.58 input  -60.11 | X-H torsion
[ 7974 7965 7964 7962 ] final -148.60 input  175.53 | X-H torsion
[ 8008 7997 7996 7995 ] final  -83.00 input   59.86 | X-H torsion
[ 10167 10162 10161 10158 ] final   40.43 input  -65.29 | X-H torsion
[ 10718 10713 10712 10709 ] final -109.39 input   66.30 | X-H torsion
[ 10763 10752 10751 10750 ] final  -55.27 input  -60.55 | X-H torsion
[ 11005 11000 10999 10996 ] final -143.35 input  -57.11 | X-H torsion

> <Gold.Protein.ActiveResidues>
 VAL166  LYS551  ARG553  GLY616  TRP617  ASP618  TYR619  PRO620  LYS621  CYS622 
 ASP623  PHE694  ASN695  SER759  ASP760  ASP761  ALA762  ILE779  LEU786  VAL792 
 PHE793  MET794  SER795  GLU796  ALA797  LYS798  CYS799  TRP800  GLU811  SER814 

> <Gold.Protein.RotatedAtoms>
  152.3837  134.6551  160.0133 H   0  0  0  0  0  0  0  0  0  0  0  0  # atno 6907 bound_to 6896
  151.6806  133.3306  159.3226 H   0  0  0  0  0  0  0  0  0  0  0  0  # atno 6908 bound_to 6896
  150.7768  134.6720  159.6441 H   0  0  0  0  0  0  0  0  0  0  0  0  # atno 6909 bound_to 6896
  144.8019  140.5176  143.5701 H   0  0  0  0  0  0  0  0  0  0  0  0  # atno 7974 bound_to 7965
  154.6144  140.0625  156.9536 H   0  0  0  0  0  0  0  0  0  0  0  0  # atno 8008 bound_to 7997
  155.1919  140.3308  155.4339 H   0  0  0  0  0  0  0  0  0  0  0  0  # atno 8009 bound_to 7997
  156.2396  140.1879  156.7009 H   0  0  0  0  0  0  0  0  0  0  0  0  # atno 8010 bound_to 7997
  140.3743  144.2064  150.6132 H   0  0  0  0  0  0  0  0  0  0  0  0  # atno 10167 bound_to 10162
  156.0535  130.5762  150.8094 H   0  0  0  0  0  0  0  0  0  0  0  0  # atno 10718 bound_to 10713
  154.1882  135.6432  153.5052 H   0  0  0  0  0  0  0  0  0  0  0  0  # atno 10763 bound_to 10752
  153.0042  135.5422  154.6443 H   0  0  0  0  0  0  0  0  0  0  0  0  # atno 10764 bound_to 10752
  154.5825  135.2926  155.0691 H   0  0  0  0  0  0  0  0  0  0  0  0  # atno 10765 bound_to 10752
  140.8134  134.2717  157.4931 H   0  0  0  0  0  0  0  0  0  0  0  0  # atno 11005 bound_to 11000
  145.5531  139.1477  143.3383 LP  0  0  0  0  0  0  0  0  0  0  0  0  # atno 17320 bound_to 7965
  146.2303  140.5669  142.8978 LP  0  0  0  0  0  0  0  0  0  0  0  0  # atno 17321 bound_to 7965
  140.5002  143.2320  151.8690 LP  0  0  0  0  0  0  0  0  0  0  0  0  # atno 17342 bound_to 10162
  139.4801  144.5068  151.8986 LP  0  0  0  0  0  0  0  0  0  0  0  0  # atno 17343 bound_to 10162
  157.5483  131.0943  150.9731 LP  0  0  0  0  0  0  0  0  0  0  0  0  # atno 17370 bound_to 10713
  156.9997  130.5595  149.5310 LP  0  0  0  0  0  0  0  0  0  0  0  0  # atno 17371 bound_to 10713
  139.8712  134.9496  156.4029 LP  0  0  0  0  0  0  0  0  0  0  0  0  # atno 17394 bound_to 11000
  140.9174  133.7669  155.9865 LP  0  0  0  0  0  0  0  0  0  0  0  0  # atno 17395 bound_to 11000

$$$$
