AV-unprocessed.smi:3204|AV-procd|sdf|12252|dock4
  -GOLD-   2272018 83D 1   1.00000     0.00000
 Structure written by MMmdl.
 30 31  0  0  0  0  0  0  0  0  1 V2000
  151.7665  144.9487  160.4732 C   0  0  0  0  0  0  0  0  0  0  0  0
  152.2862  143.5095  160.5637 C   0  0  0  0  0  0  0  0  0  0  0  0
  151.9325  142.6929  159.3347 C   0  0  0  0  0  0  0  0  0  0  0  0
  151.1236  143.2821  158.4257 N   0  0  0  0  0  0  0  0  0  0  0  0
  150.7986  142.5590  157.3515 C   0  0  0  0  0  0  0  0  0  0  0  0
  151.1877  141.3100  157.0816 N   0  0  0  0  0  0  0  0  0  0  0  0
  151.9961  140.7044  157.9840 C   0  0  0  0  0  0  0  0  0  0  0  0
  152.4278  139.3902  157.7546 N   0  0  0  0  0  0  0  0  0  0  0  0
  151.7867  138.5386  156.7571 C   0  0  2  0  0  0  0  0  0  0  0  0
  152.3448  137.1224  156.7103 C   0  0  0  0  0  0  0  0  0  0  0  0
  151.8473  136.6222  155.4769 O   0  0  0  0  0  0  0  0  0  0  0  0
  151.7504  137.6874  154.5312 C   0  0  0  0  0  0  0  0  0  0  0  0
  151.9638  138.9920  155.3118 C   0  0  2  0  0  0  0  0  0  0  0  0
  153.2731  139.4697  155.0558 O   0  0  0  0  0  0  0  0  0  0  0  0
  152.4063  141.3744  159.1567 C   0  0  0  0  0  0  0  0  0  0  0  0
  153.2107  140.7772  160.0698 F   0  0  0  0  0  0  0  0  0  0  0  0
  152.0339  145.5152  161.3653 H   0  0  0  0  0  0  0  0  0  0  0  0
  150.6803  144.9679  160.3796 H   0  0  0  0  0  0  0  0  0  0  0  0
  152.1868  145.4665  159.6107 H   0  0  0  0  0  0  0  0  0  0  0  0
  153.3700  143.5168  160.6869 H   0  0  0  0  0  0  0  0  0  0  0  0
  151.8826  143.0255  161.4533 H   0  0  0  0  0  0  0  0  0  0  0  0
  150.1539  143.0326  156.6261 H   0  0  0  0  0  0  0  0  0  0  0  0
  153.2489  139.0467  158.2318 H   0  0  0  0  0  0  0  0  0  0  0  0
  150.7207  138.4676  156.9792 H   0  0  0  0  0  0  0  0  0  0  0  0
  153.4358  137.1251  156.6849 H   0  0  0  0  0  0  0  0  0  0  0  0
  152.0209  136.5103  157.5523 H   0  0  0  0  0  0  0  0  0  0  0  0
  152.4723  137.5566  153.7237 H   0  0  0  0  0  0  0  0  0  0  0  0
  150.7542  137.6601  154.0886 H   0  0  0  0  0  0  0  0  0  0  0  0
  151.2457  139.7623  155.0292 H   0  0  0  0  0  0  0  0  0  0  0  0
  153.7189  138.8376  154.5131 H   0  0  0  0  0  0  0  0  0  0  0  0
  1  2  1  0  0  0  0
  1 17  1  0  0  0  0
  1 18  1  0  0  0  0
  1 19  1  0  0  0  0
  2  3  1  0  0  0  0
  2 20  1  0  0  0  0
  2 21  1  0  0  0  0
  3 15  1  0  0  0  0
  3  4  2  0  0  0  0
  4  5  1  0  0  0  0
  5  6  2  0  0  0  0
  5 22  1  0  0  0  0
  6  7  1  0  0  0  0
  7  8  1  0  0  0  0
  7 15  2  0  0  0  0
  8  9  1  0  0  0  0
  8 23  1  0  0  0  0
  9 13  1  0  0  0  0
  9 10  1  0  0  0  0
  9 24  1  0  0  0  0
 10 11  1  0  0  0  0
 10 25  1  0  0  0  0
 10 26  1  0  0  0  0
 11 12  1  0  0  0  0
 12 13  1  0  0  0  0
 12 27  1  0  0  0  0
 12 28  1  0  0  0  0
 13 14  1  0  0  0  0
 13 29  1  0  0  0  0
 14 30  1  0  0  0  0
 15 16  1  0  0  0  0
M  END
> <s_m_source_file>
AV-unprocessed.smi

> <i_m_source_file_index>
3204

> <i_lp_mmshare_version>
43012

> <i_f3d_flags>
0

> <s_epik_input>
W0NIM11bQ0gyXWMxbltjSF1uYyhjMUYpW05IXVtDQEBIXTJbQ0gyXU9bQ0gyXVtDQEhdMltPSF0=

> <s_epik_cmdline>
J2VwaWtfcHl0aG9uJywgJy1waCcsICc3LjAnLCAnLXRuJywgJzgnLCAnLW1hJywgJzIwMCcsICctbWV0YWxfYmluZGluZycsICctaW1hZScsICc8aW5maWxlLm1hZT4nLCAnLW9tYWUnLCAnPG91dGZpbGUubWFlPic=

> <r_lp_tautomer_probability>
1

> <r_epik_Ionization_Penalty>
0.000484964

> <r_epik_Ionization_Penalty_Charging>
0

> <r_epik_Ionization_Penalty_Neutral>
0.000484964

> <r_epik_State_Penalty>
-0

> <r_epik_Charging_Adjusted_Penalty>
0

> <i_epik_Tot_Q>
0

> <i_epik_Tot_abs_Q>
0

> <r_epik_Metal_State_Penalty>
-0

> <b_epik_Metal_Only>
0

> <s_lp_Force_Field>
OPLS_2005

> <r_lp_Energy>
19.3266

> <b_lp_Chiralities_Consistent>
1

> <s_lp_Variant>
AV-unprocessed.smi:3204-3

> <Gold.Version>
5.8.1

> <Gold.Id.Protein>
6NUR|6NUR_protein|mol2

> <Gold.PLP.Fitness>
41.3319

> <Gold.PLP.PLP>
-32.5417

> <Gold.PLP.part.hbond>
-3.0000

> <Gold.PLP.part.metal>
0.0000

> <Gold.PLP.part.buried>
-5.2089

> <Gold.PLP.part.nonpolar>
-25.7507

> <Gold.PLP.part.repulsive>
0.3082

> <Gold.PLP.ligand.clash>
0.0000

> <Gold.PLP.ligand.torsion>
0.1119

> <Gold.PLP.Chemscore.Hbond>
2.0000

> <Gold.PLP.Chemscore.CHOScore>
1.0000

> <Gold.PLP.Chemscore.Metal>
0.0000

> <Gold.Chemscore.Hbonds>
donor molecule, donor type, donor heavy atom, donor atom, acceptor molecule, acceptor atom, score
      P1  H  7997  8009       L1    14  1.00
      P1  H 10752 10764       L1    11  1.00
      L1  C     5    22       P1  8028  1.00

> <Gold.PLP.Chemscore.Internal.Correction>
0.0139

> <Gold.Rescore>
     Score         DG    S(hbond)    S(metal)    S(lipo)     H(rot)  DE(clash)    DE(int)     intcor
     12.17     -12.57       1.01        0.00      71.84       1.83       0.06       0.34       ----

> <Gold.Chemscore.Fitness>
12.1653

> <Gold.Chemscore.DG>
-12.5721

> <Gold.Chemscore.ZeroCoef>
-5.4800

> <Gold.Chemscore.Hbond>
1.0124

> <Gold.Chemscore.Metal>
0.0000

> <Gold.Chemscore.Lipo>
71.8357

> <Gold.Chemscore.Internal_Hbond>
0.0000

> <Gold.Chemscore.DEClash>
0.0619

> <Gold.Chemscore.DEInternal>
0.3449

> <Gold.Chemscore.Rot>
1.8337

> <Gold.Chemscore.Internal.Correction>
   9.000000E+99

> <Gold.Chemscore.Hbonds>
donor molecule, donor type, donor heavy atom, donor atom, acceptor molecule, acceptor atom, score
      P1  H  7997  8009       L1    14  0.25
      P1  H 10752 10764       L1    11  0.32

> <Gold.Chemscore.Hbond.Weighted>
-3.3816

> <Gold.Chemscore.Metal.Weighted>
-0.0000

> <Gold.Chemscore.Lipo.Weighted>
-8.4048

> <Gold.Chemscore.Internal_Hbond.Weighted>
0.0000

> <Gold.Chemscore.DEClash.Weighted>
0.0619

> <Gold.Chemscore.DEInternal.Weighted>
0.3449

> <Gold.Chemscore.Rot.Weighted>
4.6942

> <Gold.Chemscore.Internal.Correction.Weighted>
   9.000000E+99

> <Gold.Protein.RotatedTorsions>
[ 6907 6896 6895 6894 ] final  121.79 input  -60.11 | X-H torsion
[ 7974 7965 7964 7962 ] final  106.21 input  175.53 | X-H torsion
[ 8008 7997 7996 7995 ] final -125.28 input   59.86 | X-H torsion
[ 10167 10162 10161 10158 ] final  174.54 input  -65.29 | X-H torsion
[ 10718 10713 10712 10709 ] final -148.73 input   66.30 | X-H torsion
[ 10763 10752 10751 10750 ] final  -38.57 input  -60.55 | X-H torsion
[ 11005 11000 10999 10996 ] final -150.37 input  -57.11 | X-H torsion

> <Gold.Protein.ActiveResidues>
 VAL166  LYS551  ARG553  GLY616  TRP617  ASP618  TYR619  PRO620  LYS621  CYS622 
 ASP623  PHE694  ASN695  SER759  ASP760  ASP761  ALA762  ILE779  LEU786  VAL792 
 PHE793  MET794  SER795  GLU796  ALA797  LYS798  CYS799  TRP800  GLU811  SER814 

> <Gold.Protein.RotatedAtoms>
  152.4294  133.7251  159.6555 H   0  0  0  0  0  0  0  0  0  0  0  0  # atno 6907 bound_to 6896
  150.8172  133.8305  159.3161 H   0  0  0  0  0  0  0  0  0  0  0  0  # atno 6908 bound_to 6896
  151.5998  135.1050  160.0109 H   0  0  0  0  0  0  0  0  0  0  0  0  # atno 6909 bound_to 6896
  145.3096  139.2544  143.3770 H   0  0  0  0  0  0  0  0  0  0  0  0  # atno 7974 bound_to 7965
  155.2106  140.0419  157.2933 H   0  0  0  0  0  0  0  0  0  0  0  0  # atno 8008 bound_to 7997
  154.6014  140.2453  155.7759 H   0  0  0  0  0  0  0  0  0  0  0  0  # atno 8009 bound_to 7997
  156.2323  140.2934  156.0230 H   0  0  0  0  0  0  0  0  0  0  0  0  # atno 8010 bound_to 7997
  139.5145  144.3135  152.0270 H   0  0  0  0  0  0  0  0  0  0  0  0  # atno 10167 bound_to 10162
  156.4240  130.8043  151.2267 H   0  0  0  0  0  0  0  0  0  0  0  0  # atno 10718 bound_to 10713
  153.9151  135.6788  153.4749 H   0  0  0  0  0  0  0  0  0  0  0  0  # atno 10763 bound_to 10752
  153.1058  135.4806  154.8945 H   0  0  0  0  0  0  0  0  0  0  0  0  # atno 10764 bound_to 10752
  154.7507  135.3184  154.8519 H   0  0  0  0  0  0  0  0  0  0  0  0  # atno 10765 bound_to 10752
  140.7409  134.3515  157.5147 H   0  0  0  0  0  0  0  0  0  0  0  0  # atno 11005 bound_to 11000
  146.3123  140.3629  142.8666 LP  0  0  0  0  0  0  0  0  0  0  0  0  # atno 17320 bound_to 7965
  144.9027  140.7662  143.5857 LP  0  0  0  0  0  0  0  0  0  0  0  0  # atno 17321 bound_to 7965
  140.2578  144.4099  150.6197 LP  0  0  0  0  0  0  0  0  0  0  0  0  # atno 17342 bound_to 10162
  140.6179  143.2174  151.6755 LP  0  0  0  0  0  0  0  0  0  0  0  0  # atno 17343 bound_to 10162
  157.7508  131.0219  150.3769 LP  0  0  0  0  0  0  0  0  0  0  0  0  # atno 17370 bound_to 10713
  156.4093  130.3931  149.6903 LP  0  0  0  0  0  0  0  0  0  0  0  0  # atno 17371 bound_to 10713
  139.8806  134.9080  156.2958 LP  0  0  0  0  0  0  0  0  0  0  0  0  # atno 17394 bound_to 11000
  140.9837  133.7251  156.0710 LP  0  0  0  0  0  0  0  0  0  0  0  0  # atno 17395 bound_to 11000

$$$$
