AV-unprocessed.smi:654|AV-procd|sdf|3213|dock6
  -GOLD-   22720 0153D 1   1.00000     0.00000
 Structure written by MMmdl.
 48 50  0  0  0  0  0  0  0  0  2 V2000
  148.3998  141.6953  155.8440 O   0  0  0  0  0  0  0  0  0  0  0  0
  149.1094  140.8887  156.4461 C   0  0  0  0  0  0  0  0  0  0  0  0
  148.6189  139.7377  156.9363 N   0  0  0  0  0  0  0  0  0  0  0  0
  147.2346  139.2884  156.8197 C   0  0  0  0  0  0  0  0  0  0  0  0
  147.0915  137.9740  156.0263 C   0  0  0  0  0  0  0  0  0  0  0  0
  146.9111  138.1818  154.5323 C   0  0  0  0  0  0  0  0  0  0  0  0
  145.7635  137.6914  153.8715 C   0  0  0  0  0  0  0  0  0  0  0  0
  145.6272  137.8912  152.4818 C   0  0  0  0  0  0  0  0  0  0  0  0
  146.6419  138.5784  151.7844 C   0  0  0  0  0  0  0  0  0  0  0  0
  147.7252  139.0343  152.4506 N   0  3  0  0  0  0  0  0  0  0  0  0
  147.8927  138.8637  153.7801 C   0  0  0  0  0  0  0  0  0  0  0  0
  150.4335  141.0864  156.6737 N   0  0  0  0  0  0  0  0  0  0  0  0
  151.3906  140.0798  157.1588 C   0  0  0  0  0  0  0  0  0  0  0  0
  151.6861  140.3477  158.6398 C   0  0  0  0  0  0  0  0  0  0  0  0
  152.4763  141.9716  158.8569 S   0  0  0  0  0  0  0  0  0  0  0  0
  151.3459  143.0631  157.9114 C   0  0  0  0  0  0  0  0  0  0  0  0
  150.0319  143.3062  158.7027 C   0  0  0  0  0  0  0  0  0  0  0  0
  150.2328  144.1379  159.9825 C   0  0  0  0  0  0  0  0  0  0  0  0
  150.9163  145.4769  159.6776 C   0  0  0  0  0  0  0  0  0  0  0  0
  152.2448  145.2561  158.9432 C   0  0  0  0  0  0  0  0  0  0  0  0
  152.0429  144.4246  157.6634 C   0  0  0  0  0  0  0  0  0  0  0  0
  151.0625  142.4079  156.5316 C   0  0  0  0  0  0  0  0  0  0  0  0
  149.2551  139.1287  157.4301 H   0  0  0  0  0  0  0  0  0  0  0  0
  146.8578  139.1427  157.8323 H   0  0  0  0  0  0  0  0  0  0  0  0
  146.6203  140.0720  156.3736 H   0  0  0  0  0  0  0  0  0  0  0  0
  147.9687  137.3478  156.1929 H   0  0  0  0  0  0  0  0  0  0  0  0
  146.2429  137.4051  156.4079 H   0  0  0  0  0  0  0  0  0  0  0  0
  144.9972  137.1649  154.4218 H   0  0  0  0  0  0  0  0  0  0  0  0
  144.7569  137.5223  151.9586 H   0  0  0  0  0  0  0  0  0  0  0  0
  146.6199  138.7756  150.7224 H   0  0  0  0  0  0  0  0  0  0  0  0
  148.8030  139.2696  154.1977 H   0  0  0  0  0  0  0  0  0  0  0  0
  151.0453  139.0540  157.0288 H   0  0  0  0  0  0  0  0  0  0  0  0
  152.3135  140.1373  156.5800 H   0  0  0  0  0  0  0  0  0  0  0  0
  150.7693  140.3074  159.2287 H   0  0  0  0  0  0  0  0  0  0  0  0
  152.3524  139.5825  159.0378 H   0  0  0  0  0  0  0  0  0  0  0  0
  149.3196  143.8262  158.0607 H   0  0  0  0  0  0  0  0  0  0  0  0
  149.5572  142.3623  158.9687 H   0  0  0  0  0  0  0  0  0  0  0  0
  149.2689  144.3176  160.4594 H   0  0  0  0  0  0  0  0  0  0  0  0
  150.8286  143.5769  160.7030 H   0  0  0  0  0  0  0  0  0  0  0  0
  150.2572  146.0942  159.0657 H   0  0  0  0  0  0  0  0  0  0  0  0
  151.0879  146.0280  160.6026 H   0  0  0  0  0  0  0  0  0  0  0  0
  152.6896  146.2187  158.6898 H   0  0  0  0  0  0  0  0  0  0  0  0
  152.9536  144.7596  159.6066 H   0  0  0  0  0  0  0  0  0  0  0  0
  153.0064  144.2683  157.1771 H   0  0  0  0  0  0  0  0  0  0  0  0
  151.4474  145.0132  156.9640 H   0  0  0  0  0  0  0  0  0  0  0  0
  151.9940  142.3012  155.9735 H   0  0  0  0  0  0  0  0  0  0  0  0
  150.4526  143.0772  155.9225 H   0  0  0  0  0  0  0  0  0  0  0  0
  148.4481  139.5293  151.9274 H   0  0  0  0  0  0  0  0  0  0  0  0
  1  2  2  0  0  0  0
  2  3  1  0  0  0  0
  2 12  1  0  0  0  0
  3  4  1  0  0  0  0
  3 23  1  0  0  0  0
  4  5  1  0  0  0  0
  4 24  1  0  0  0  0
  4 25  1  0  0  0  0
  5  6  1  0  0  0  0
  5 26  1  0  0  0  0
  5 27  1  0  0  0  0
  6 11  1  0  0  0  0
  6  7  2  0  0  0  0
  7  8  1  0  0  0  0
  7 28  1  0  0  0  0
  8  9  2  0  0  0  0
  8 29  1  0  0  0  0
  9 10  1  0  0  0  0
  9 30  1  0  0  0  0
 10 11  2  0  0  0  0
 10 48  1  0  0  0  0
 11 31  1  0  0  0  0
 12 22  1  0  0  0  0
 12 13  1  0  0  0  0
 13 14  1  0  0  0  0
 13 32  1  0  0  0  0
 13 33  1  0  0  0  0
 14 15  1  0  0  0  0
 14 34  1  0  0  0  0
 14 35  1  0  0  0  0
 15 16  1  0  0  0  0
 16 21  1  0  0  0  0
 16 17  1  0  0  0  0
 16 22  1  0  0  0  0
 17 18  1  0  0  0  0
 17 36  1  0  0  0  0
 17 37  1  0  0  0  0
 18 19  1  0  0  0  0
 18 38  1  0  0  0  0
 18 39  1  0  0  0  0
 19 20  1  0  0  0  0
 19 40  1  0  0  0  0
 19 41  1  0  0  0  0
 20 21  1  0  0  0  0
 20 42  1  0  0  0  0
 20 43  1  0  0  0  0
 21 44  1  0  0  0  0
 21 45  1  0  0  0  0
 22 46  1  0  0  0  0
 22 47  1  0  0  0  0
M  CHG  1  10   1
M  END
> <s_m_source_file>
AV-unprocessed.smi

> <i_m_source_file_index>
654

> <i_lp_mmshare_version>
43012

> <i_f3d_flags>
0

> <s_epik_input>
W2NIXTFuW2NIXVtjSF1bY0hdYzFbQ0gyXVtDSDJdW05IXUMoPU8pTihbQ0gyXTIpW0NIMl1bQ0gyXVNDMjNbQ0gyXVtDSDJdW0NIMl1bQ0gyXVtDSDJdMw==

> <s_epik_cmdline>
J2VwaWtfcHl0aG9uJywgJy1waCcsICc3LjAnLCAnLXRuJywgJzgnLCAnLW1hJywgJzIwMCcsICctbWV0YWxfYmluZGluZycsICctaW1hZScsICc8aW5maWxlLm1hZT4nLCAnLW9tYWUnLCAnPG91dGZpbGUubWFlPic=

> <r_epik_Ionization_Penalty>
2.2093

> <r_epik_Ionization_Penalty_Charging>
2.20925

> <r_epik_Ionization_Penalty_Neutral>
4.66963e-05

> <r_epik_State_Penalty>
2.35335

> <r_epik_Charging_Adjusted_Penalty>
4.5626

> <i_epik_Tot_Q>
1

> <i_epik_Tot_abs_Q>
1

> <r_epik_Metal_State_Penalty>
2.36748

> <b_epik_Metal_Only>
0

> <s_lp_Force_Field>
OPLS_2005

> <r_lp_Energy>
39.5462

> <b_lp_Chiralities_Consistent>
1

> <s_lp_Variant>
AV-unprocessed.smi:654-2

> <Gold.Version>
5.8.1

> <Gold.Id.Protein>
6NUR|6NUR_protein|mol2

> <Gold.PLP.Fitness>
40.3839

> <Gold.PLP.PLP>
-37.9322

> <Gold.PLP.part.hbond>
-1.9493

> <Gold.PLP.part.metal>
0.0000

> <Gold.PLP.part.buried>
-5.3463

> <Gold.PLP.part.nonpolar>
-32.6832

> <Gold.PLP.part.repulsive>
0.3456

> <Gold.PLP.ligand.clash>
0.0000

> <Gold.PLP.ligand.torsion>
0.2771

> <Gold.PLP.Chemscore.Hbond>
1.0000

> <Gold.PLP.Chemscore.CHOScore>
0.0000

> <Gold.PLP.Chemscore.Metal>
0.0000

> <Gold.Chemscore.Hbonds>
donor molecule, donor type, donor heavy atom, donor atom, acceptor molecule, acceptor atom, score
      L1  H    10    48       P1  7957  0.83

> <Gold.PLP.Chemscore.Internal.Correction>
0.0058

> <Gold.Rescore>
     Score         DG    S(hbond)    S(metal)    S(lipo)     H(rot)  DE(clash)    DE(int)     intcor
     19.13     -19.44       0.99        0.00     119.41       1.30       0.06       0.26       ----

> <Gold.Chemscore.Fitness>
19.1263

> <Gold.Chemscore.DG>
-19.4424

> <Gold.Chemscore.ZeroCoef>
-5.4800

> <Gold.Chemscore.Hbond>
0.9903

> <Gold.Chemscore.Metal>
0.0000

> <Gold.Chemscore.Lipo>
119.4067

> <Gold.Chemscore.Internal_Hbond>
0.0000

> <Gold.Chemscore.DEClash>
0.0553

> <Gold.Chemscore.DEInternal>
0.2608

> <Gold.Chemscore.Rot>
1.2953

> <Gold.Chemscore.Internal.Correction>
   9.000000E+99

> <Gold.Chemscore.Hbonds>
donor molecule, donor type, donor heavy atom, donor atom, acceptor molecule, acceptor atom, score
      L1  H    10    48       P1  7957  0.80

> <Gold.Chemscore.Hbond.Weighted>
-3.3077

> <Gold.Chemscore.Metal.Weighted>
-0.0000

> <Gold.Chemscore.Lipo.Weighted>
-13.9706

> <Gold.Chemscore.Internal_Hbond.Weighted>
0.0000

> <Gold.Chemscore.DEClash.Weighted>
0.0553

> <Gold.Chemscore.DEInternal.Weighted>
0.2608

> <Gold.Chemscore.Rot.Weighted>
3.3159

> <Gold.Chemscore.Internal.Correction.Weighted>
   9.000000E+99

> <Gold.Protein.RotatedTorsions>
[ 6907 6896 6895 6894 ] final   42.82 input  -60.11 | X-H torsion
[ 7974 7965 7964 7962 ] final  -42.90 input  175.53 | X-H torsion
[ 8008 7997 7996 7995 ] final -126.52 input   59.86 | X-H torsion
[ 10167 10162 10161 10158 ] final   73.95 input  -65.29 | X-H torsion
[ 10718 10713 10712 10709 ] final   84.28 input   66.30 | X-H torsion
[ 10763 10752 10751 10750 ] final -103.34 input  -60.55 | X-H torsion
[ 11005 11000 10999 10996 ] final  106.25 input  -57.11 | X-H torsion

> <Gold.Protein.ActiveResidues>
 VAL166  LYS551  ARG553  GLY616  TRP617  ASP618  TYR619  PRO620  LYS621  CYS622 
 ASP623  PHE694  ASN695  SER759  ASP760  ASP761  ALA762  ILE779  LEU786  VAL792 
 PHE793  MET794  SER795  GLU796  ALA797  LYS798  CYS799  TRP800  GLU811  SER814 

> <Gold.Protein.RotatedAtoms>
  152.2126  134.8487  160.0495 H   0  0  0  0  0  0  0  0  0  0  0  0  # atno 6907 bound_to 6896
  151.9300  133.3603  159.3935 H   0  0  0  0  0  0  0  0  0  0  0  0  # atno 6908 bound_to 6896
  150.6980  134.4472  159.5363 H   0  0  0  0  0  0  0  0  0  0  0  0  # atno 6909 bound_to 6896
  146.0071  140.7007  142.9242 H   0  0  0  0  0  0  0  0  0  0  0  0  # atno 7974 bound_to 7965
  155.2310  140.0425  157.2962 H   0  0  0  0  0  0  0  0  0  0  0  0  # atno 8008 bound_to 7997
  154.5888  140.2421  155.7920 H   0  0  0  0  0  0  0  0  0  0  0  0  # atno 8009 bound_to 7997
  156.2245  140.2959  156.0041 H   0  0  0  0  0  0  0  0  0  0  0  0  # atno 8010 bound_to 7997
  140.0190  144.5555  150.7597 H   0  0  0  0  0  0  0  0  0  0  0  0  # atno 10167 bound_to 10162
  157.6895  131.0126  150.2648 H   0  0  0  0  0  0  0  0  0  0  0  0  # atno 10718 bound_to 10713
  154.7800  135.4827  153.9824 H   0  0  0  0  0  0  0  0  0  0  0  0  # atno 10763 bound_to 10752
  153.1481  135.6786  153.8932 H   0  0  0  0  0  0  0  0  0  0  0  0  # atno 10764 bound_to 10752
  153.8585  135.3158  155.3415 H   0  0  0  0  0  0  0  0  0  0  0  0  # atno 10765 bound_to 10752
  139.8812  134.9363  156.5638 H   0  0  0  0  0  0  0  0  0  0  0  0  # atno 11005 bound_to 11000
  144.6940  140.3334  143.7212 LP  0  0  0  0  0  0  0  0  0  0  0  0  # atno 17320 bound_to 7965
  145.7398  139.1761  143.2382 LP  0  0  0  0  0  0  0  0  0  0  0  0  # atno 17321 bound_to 7965
  140.7350  143.2736  151.3811 LP  0  0  0  0  0  0  0  0  0  0  0  0  # atno 17342 bound_to 10162
  139.6153  144.1016  152.2339 LP  0  0  0  0  0  0  0  0  0  0  0  0  # atno 17343 bound_to 10162
  156.3221  130.3787  149.7565 LP  0  0  0  0  0  0  0  0  0  0  0  0  # atno 17370 bound_to 10713
  156.5132  130.8181  151.3176 LP  0  0  0  0  0  0  0  0  0  0  0  0  # atno 17371 bound_to 10713
  140.8150  133.8399  155.8843 LP  0  0  0  0  0  0  0  0  0  0  0  0  # atno 17394 bound_to 11000
  140.9472  134.1826  157.4755 LP  0  0  0  0  0  0  0  0  0  0  0  0  # atno 17395 bound_to 11000

$$$$
