AV-unprocessed.smi:180|AV-procd|sdf|1452|dock2
  -GOLD-   2262019253D 1   1.00000     0.00000
 Structure written by MMmdl.
 54 57  0  0  0  0  0  0  0  0  1 V2000
  145.3516  137.3449  160.0883 C   0  0  0  0  0  0  0  0  0  0  0  0
  146.7121  136.6690  160.2219 C   0  0  0  0  0  0  0  0  0  0  0  0
  147.5497  137.1188  161.0032 O   0  0  0  0  0  0  0  0  0  0  0  0
  146.9208  135.5925  159.4493 N   0  0  0  0  0  0  0  0  0  0  0  0
  148.1531  134.8125  159.4160 C   0  0  0  0  0  0  0  0  0  0  0  0
  148.7883  134.8112  158.0152 C   0  0  1  0  0  0  0  0  0  0  0  0
  149.5216  136.1333  157.7201 C   0  0  0  0  0  0  0  0  0  0  0  0
  150.1831  136.0560  156.4240 N   0  0  0  0  0  0  0  0  0  0  0  0
  150.7271  137.2193  156.0109 C   0  0  0  0  0  0  0  0  0  0  0  0
  151.6700  137.1479  155.0403 N   0  0  0  0  0  0  0  0  0  0  0  0
  152.2483  138.2648  154.5885 C   0  0  0  0  0  0  0  0  0  0  0  0
  152.0320  139.5279  154.9626 N   0  0  0  0  0  0  0  0  0  0  0  0
  151.0816  139.6011  155.9385 C   0  0  0  0  0  0  0  0  0  0  0  0
  150.3860  138.5042  156.5202 C   0  0  0  0  0  0  0  0  0  0  0  0
  149.5024  138.9633  157.4897 N   0  0  0  0  0  0  0  0  0  0  0  0
  149.6635  140.2584  157.4781 C   0  0  0  0  0  0  0  0  0  0  0  0
  150.5818  140.7289  156.5661 N   0  0  0  0  0  0  0  0  0  0  0  0
  150.9537  142.1172  156.3410 C   0  0  0  0  0  0  0  0  0  0  0  0
  151.0264  142.9800  157.6270 C   0  0  0  0  0  0  0  0  0  0  0  0
  149.6812  143.2797  157.9528 O   0  0  0  0  0  0  0  0  0  0  0  0
  151.6606  142.2335  158.8206 C   0  0  0  0  0  0  0  0  0  0  0  0
  151.8050  143.1414  160.0552 C   0  0  0  0  0  0  0  0  0  0  0  0
  152.5525  144.3050  159.7197 O   0  0  0  0  0  0  0  0  0  0  0  0
  151.9173  145.1050  158.7293 C   0  0  0  0  0  0  0  0  0  0  0  0
  151.7823  144.3102  157.4178 C   0  0  0  0  0  0  0  0  0  0  0  0
  151.0823  134.9156  156.3145 C   0  0  0  0  0  0  0  0  0  0  0  0
  150.3236  133.6223  156.6537 C   0  0  0  0  0  0  0  0  0  0  0  0
  149.7317  133.7423  157.9441 O   0  0  0  0  0  0  0  0  0  0  0  0
  144.5582  136.6042  159.9832 H   0  0  0  0  0  0  0  0  0  0  0  0
  145.3372  137.9936  159.2122 H   0  0  0  0  0  0  0  0  0  0  0  0
  145.1351  137.9519  160.9680 H   0  0  0  0  0  0  0  0  0  0  0  0
  146.1780  135.2985  158.8317 H   0  0  0  0  0  0  0  0  0  0  0  0
  148.8571  135.2062  160.1513 H   0  0  0  0  0  0  0  0  0  0  0  0
  147.9243  133.7921  159.7245 H   0  0  0  0  0  0  0  0  0  0  0  0
  148.0101  134.6586  157.2647 H   0  0  0  0  0  0  0  0  0  0  0  0
  148.8139  136.9636  157.7222 H   0  0  0  0  0  0  0  0  0  0  0  0
  150.2553  136.3318  158.5020 H   0  0  0  0  0  0  0  0  0  0  0  0
  152.9896  138.1268  153.8155 H   0  0  0  0  0  0  0  0  0  0  0  0
  149.1070  140.9123  158.1337 H   0  0  0  0  0  0  0  0  0  0  0  0
  151.9177  142.1256  155.8300 H   0  0  0  0  0  0  0  0  0  0  0  0
  150.2378  142.5489  155.6395 H   0  0  0  0  0  0  0  0  0  0  0  0
  149.2675  143.6625  157.1942 H   0  0  0  0  0  0  0  0  0  0  0  0
  151.0785  141.3458  159.0712 H   0  0  0  0  0  0  0  0  0  0  0  0
  152.6561  141.8819  158.5505 H   0  0  0  0  0  0  0  0  0  0  0  0
  150.8300  143.4239  160.4552 H   0  0  0  0  0  0  0  0  0  0  0  0
  152.3271  142.6077  160.8493 H   0  0  0  0  0  0  0  0  0  0  0  0
  150.9448  145.4451  159.0881 H   0  0  0  0  0  0  0  0  0  0  0  0
  152.5199  145.9978  158.5622 H   0  0  0  0  0  0  0  0  0  0  0  0
  152.7872  144.1114  157.0462 H   0  0  0  0  0  0  0  0  0  0  0  0
  151.2883  144.9174  156.6582 H   0  0  0  0  0  0  0  0  0  0  0  0
  151.4894  134.8572  155.3041 H   0  0  0  0  0  0  0  0  0  0  0  0
  151.9239  135.0405  156.9969 H   0  0  0  0  0  0  0  0  0  0  0  0
  149.5556  133.4138  155.9072 H   0  0  0  0  0  0  0  0  0  0  0  0
  151.0078  132.7739  156.6536 H   0  0  0  0  0  0  0  0  0  0  0  0
  1  2  1  0  0  0  0
  1 29  1  0  0  0  0
  1 30  1  0  0  0  0
  1 31  1  0  0  0  0
  2  3  2  0  0  0  0
  2  4  1  0  0  0  0
  4  5  1  0  0  0  0
  4 32  1  0  0  0  0
  5  6  1  0  0  0  0
  5 33  1  0  0  0  0
  5 34  1  0  0  0  0
  6 28  1  0  0  0  0
  6  7  1  0  0  0  0
  6 35  1  0  0  0  0
  7  8  1  0  0  0  0
  7 36  1  0  0  0  0
  7 37  1  0  0  0  0
  8  9  1  0  0  0  0
  8 26  1  0  0  0  0
  9 14  1  0  0  0  0
  9 10  2  0  0  0  0
 10 11  1  0  0  0  0
 11 12  2  0  0  0  0
 11 38  1  0  0  0  0
 12 13  1  0  0  0  0
 13 17  1  0  0  0  0
 13 14  2  0  0  0  0
 14 15  1  0  0  0  0
 15 16  2  0  0  0  0
 16 17  1  0  0  0  0
 16 39  1  0  0  0  0
 17 18  1  0  0  0  0
 18 19  1  0  0  0  0
 18 40  1  0  0  0  0
 18 41  1  0  0  0  0
 19 25  1  0  0  0  0
 19 20  1  0  0  0  0
 19 21  1  0  0  0  0
 20 42  1  0  0  0  0
 21 22  1  0  0  0  0
 21 43  1  0  0  0  0
 21 44  1  0  0  0  0
 22 23  1  0  0  0  0
 22 45  1  0  0  0  0
 22 46  1  0  0  0  0
 23 24  1  0  0  0  0
 24 25  1  0  0  0  0
 24 47  1  0  0  0  0
 24 48  1  0  0  0  0
 25 49  1  0  0  0  0
 25 50  1  0  0  0  0
 26 27  1  0  0  0  0
 26 51  1  0  0  0  0
 26 52  1  0  0  0  0
 27 28  1  0  0  0  0
 27 53  1  0  0  0  0
 27 54  1  0  0  0  0
M  END
> <s_m_source_file>
AV-unprocessed.smi

> <i_m_source_file_index>
180

> <i_lp_mmshare_version>
43012

> <i_f3d_flags>
0

> <s_epik_input>
W0NIM11DKD1PKVtOSF1bQ0gyXVtDQEBIXTFbQ0gyXU4oW0NIMl1bQ0gyXU8xKWMobltjSF1uMiljKGMyMyluW2NIXW4zW0NIMl1DNChbT0hdKVtDSDJdW0NIMl1PW0NIMl1bQ0gyXTQ=

> <s_epik_cmdline>
J2VwaWtfcHl0aG9uJywgJy1waCcsICc3LjAnLCAnLXRuJywgJzgnLCAnLW1hJywgJzIwMCcsICctbWV0YWxfYmluZGluZycsICctaW1hZScsICc8aW5maWxlLm1hZT4nLCAnLW9tYWUnLCAnPG91dGZpbGUubWFlPic=

> <r_lp_tautomer_probability>
1

> <r_epik_Ionization_Penalty>
7.38871e-05

> <r_epik_Ionization_Penalty_Charging>
0

> <r_epik_Ionization_Penalty_Neutral>
7.38871e-05

> <r_epik_State_Penalty>
-0

> <r_epik_Charging_Adjusted_Penalty>
0

> <i_epik_Tot_Q>
0

> <i_epik_Tot_abs_Q>
0

> <r_epik_Metal_State_Penalty>
-0

> <b_epik_Metal_Only>
0

> <s_lp_Force_Field>
OPLS_2005

> <r_lp_Energy>
30.2573

> <b_lp_Chiralities_Consistent>
1

> <s_lp_Variant>
AV-unprocessed.smi:180-2

> <Gold.Version>
5.8.1

> <Gold.Id.Protein>
6NUR|6NUR_protein|mol2

> <Gold.PLP.Fitness>
57.3296

> <Gold.PLP.PLP>
-42.5137

> <Gold.PLP.part.hbond>
-6.0062

> <Gold.PLP.part.metal>
0.0000

> <Gold.PLP.part.buried>
-7.2836

> <Gold.PLP.part.nonpolar>
-29.7265

> <Gold.PLP.part.repulsive>
0.2013

> <Gold.PLP.ligand.clash>
0.0000

> <Gold.PLP.ligand.torsion>
1.3117

> <Gold.PLP.Chemscore.Hbond>
5.7432

> <Gold.PLP.Chemscore.CHOScore>
0.0000

> <Gold.PLP.Chemscore.Metal>
0.0000

> <Gold.Chemscore.Hbonds>
donor molecule, donor type, donor heavy atom, donor atom, acceptor molecule, acceptor atom, score
      L1  H    20    42       P1  8028  1.00
      P1  H  6896  6908       L1    28  1.00
      P1  H  6931  6943       L1     3  0.80
      P1  H  6934  6947       L1     3  0.98
      P1  H  7989  7998       L1    12  0.91
      P1  H 10752 10765       L1    10  0.93

> <Gold.PLP.Chemscore.Internal.Correction>
0.2097

> <Gold.Rescore>
     Score         DG    S(hbond)    S(metal)    S(lipo)     H(rot)  DE(clash)    DE(int)     intcor
     16.60     -20.34       3.64        0.00      88.57       2.99       0.23       3.51       ----

> <Gold.Chemscore.Fitness>
16.5976

> <Gold.Chemscore.DG>
-20.3449

> <Gold.Chemscore.ZeroCoef>
-5.4800

> <Gold.Chemscore.Hbond>
3.6384

> <Gold.Chemscore.Metal>
0.0000

> <Gold.Chemscore.Lipo>
88.5748

> <Gold.Chemscore.Internal_Hbond>
0.0000

> <Gold.Chemscore.DEClash>
0.2348

> <Gold.Chemscore.DEInternal>
3.5126

> <Gold.Chemscore.Rot>
2.9885

> <Gold.Chemscore.Internal.Correction>
   9.000000E+99

> <Gold.Chemscore.Hbonds>
donor molecule, donor type, donor heavy atom, donor atom, acceptor molecule, acceptor atom, score
      L1  H    20    42       P1  8028  0.60
      P1  H  6896  6908       L1    28  0.39
      P1  H  6931  6943       L1     3  0.77
      P1  H  6934  6947       L1     3  0.32
      P1  H  7989  7998       L1    12  0.63
      P1  H 10752 10765       L1    10  0.38

> <Gold.Chemscore.Hbond.Weighted>
-12.1523

> <Gold.Chemscore.Metal.Weighted>
-0.0000

> <Gold.Chemscore.Lipo.Weighted>
-10.3632

> <Gold.Chemscore.Internal_Hbond.Weighted>
0.0000

> <Gold.Chemscore.DEClash.Weighted>
0.2348

> <Gold.Chemscore.DEInternal.Weighted>
3.5126

> <Gold.Chemscore.Rot.Weighted>
7.6506

> <Gold.Chemscore.Internal.Correction.Weighted>
   9.000000E+99

> <Gold.Protein.RotatedTorsions>
[ 6907 6896 6895 6894 ] final  132.97 input  -60.11 | X-H torsion
[ 7974 7965 7964 7962 ] final  175.54 input  175.53 | X-H torsion
[ 8008 7997 7996 7995 ] final  -43.55 input   59.86 | X-H torsion
[ 10167 10162 10161 10158 ] final   81.78 input  -65.29 | X-H torsion
[ 10718 10713 10712 10709 ] final  -85.28 input   66.30 | X-H torsion
[ 10763 10752 10751 10750 ] final  169.58 input  -60.55 | X-H torsion
[ 11005 11000 10999 10996 ] final -128.88 input  -57.11 | X-H torsion

> <Gold.Protein.ActiveResidues>
 VAL166  LYS551  ARG553  GLY616  TRP617  ASP618  TYR619  PRO620  LYS621  CYS622 
 ASP623  PHE694  ASN695  SER759  ASP760  ASP761  ALA762  ILE779  LEU786  VAL792 
 PHE793  MET794  SER795  GLU796  ALA797  LYS798  CYS799  TRP800  GLU811  SER814 

> <Gold.Protein.RotatedAtoms>
  152.3269  133.5915  159.5782 H   0  0  0  0  0  0  0  0  0  0  0  0  # atno 6907 bound_to 6896
  150.7401  133.9927  159.3621 H   0  0  0  0  0  0  0  0  0  0  0  0  # atno 6908 bound_to 6896
  151.7806  135.0763  160.0424 H   0  0  0  0  0  0  0  0  0  0  0  0  # atno 6909 bound_to 6896
  144.7200  139.9962  143.6440 H   0  0  0  0  0  0  0  0  0  0  0  0  # atno 7974 bound_to 7965
  154.3997  140.1445  156.3538 H   0  0  0  0  0  0  0  0  0  0  0  0  # atno 8008 bound_to 7997
  155.8244  140.3468  155.5513 H   0  0  0  0  0  0  0  0  0  0  0  0  # atno 8009 bound_to 7997
  155.8254  140.0904  157.1815 H   0  0  0  0  0  0  0  0  0  0  0  0  # atno 8010 bound_to 7997
  139.9356  144.6123  150.8302 H   0  0  0  0  0  0  0  0  0  0  0  0  # atno 10167 bound_to 10162
  155.9998  130.4725  150.4538 H   0  0  0  0  0  0  0  0  0  0  0  0  # atno 10718 bound_to 10713
  154.3852  135.2753  155.2187 H   0  0  0  0  0  0  0  0  0  0  0  0  # atno 10763 bound_to 10752
  154.4277  135.5985  153.6052 H   0  0  0  0  0  0  0  0  0  0  0  0  # atno 10764 bound_to 10752
  152.9833  135.5988  154.4100 H   0  0  0  0  0  0  0  0  0  0  0  0  # atno 10765 bound_to 10752
  140.9479  134.1106  157.4090 H   0  0  0  0  0  0  0  0  0  0  0  0  # atno 11005 bound_to 11000
  146.0372  139.3388  143.0719 LP  0  0  0  0  0  0  0  0  0  0  0  0  # atno 17320 bound_to 7965
  145.8380  140.9596  143.0814 LP  0  0  0  0  0  0  0  0  0  0  0  0  # atno 17321 bound_to 7965
  140.7625  143.3200  151.2643 LP  0  0  0  0  0  0  0  0  0  0  0  0  # atno 17342 bound_to 10162
  139.6746  143.9960  152.2773 LP  0  0  0  0  0  0  0  0  0  0  0  0  # atno 17343 bound_to 10162
  157.2568  131.0558  151.2345 LP  0  0  0  0  0  0  0  0  0  0  0  0  # atno 17370 bound_to 10713
  157.3474  130.7064  149.6419 LP  0  0  0  0  0  0  0  0  0  0  0  0  # atno 17371 bound_to 10713
  139.8838  135.0057  156.6329 LP  0  0  0  0  0  0  0  0  0  0  0  0  # atno 17394 bound_to 11000
  140.7644  133.8790  155.8443 LP  0  0  0  0  0  0  0  0  0  0  0  0  # atno 17395 bound_to 11000

$$$$
