AV-unprocessed.smi:2217|AV-procd|sdf|8972|dock5
  -GOLD-   2272012183D 1   1.00000     0.00000
 Structure written by MMmdl.
 45 48  0  0  0  0  0  0  0  0  1 V2000
  146.3865  138.0900  151.9233 C   0  0  0  0  0  0  0  0  0  0  0  0
  147.0951  139.0693  152.8352 C   0  0  0  0  0  0  0  0  0  0  0  0
  148.1813  138.6675  153.6350 C   0  0  0  0  0  0  0  0  0  0  0  0
  148.8056  139.6223  154.4604 C   0  0  0  0  0  0  0  0  0  0  0  0
  148.3319  140.9540  154.4730 C   0  0  0  0  0  0  0  0  0  0  0  0
  149.0511  141.8282  155.3407 N   0  0  0  0  0  0  0  0  0  0  0  0
  150.0833  141.6032  156.1816 C   0  0  0  0  0  0  0  0  0  0  0  0
  150.5714  140.4807  156.3016 O   0  0  0  0  0  0  0  0  0  0  0  0
  150.5343  142.6656  156.8663 N   0  0  0  0  0  0  0  0  0  0  0  0
  151.6580  142.6438  157.7950 C   0  0  2  0  0  0  0  0  0  0  0  0
  151.5456  141.5046  158.8204 C   0  0  1  0  0  0  0  0  0  0  0  0
  152.5512  140.3861  158.8077 C   0  0  0  0  0  0  0  0  0  0  0  0
  153.5749  140.8366  159.8535 C   0  0  0  0  0  0  0  0  0  0  0  0
  153.3988  142.2487  159.9453 O   0  0  0  0  0  0  0  0  0  0  0  0
  152.0000  142.5127  159.8654 C   0  0  1  0  0  0  0  0  0  0  0  0
  151.5592  143.6723  158.9465 C   0  0  0  0  0  0  0  0  0  0  0  0
  150.2043  144.2993  159.2884 C   0  0  0  0  0  0  0  0  0  0  0  0
  150.4913  145.4441  160.2600 C   0  0  0  0  0  0  0  0  0  0  0  0
  151.9122  145.9092  159.9284 C   0  0  0  0  0  0  0  0  0  0  0  0
  152.4528  144.9094  158.8993 C   0  0  0  0  0  0  0  0  0  0  0  0
  147.2844  141.3292  153.6951 N   0  0  0  0  0  0  0  0  0  0  0  0
  146.6864  140.4147  152.9031 C   0  0  0  0  0  0  0  0  0  0  0  0
  146.7074  137.0660  152.1171 H   0  0  0  0  0  0  0  0  0  0  0  0
  146.6006  138.3250  150.8806 H   0  0  0  0  0  0  0  0  0  0  0  0
  145.3078  138.1424  152.0738 H   0  0  0  0  0  0  0  0  0  0  0  0
  148.5348  137.6469  153.6185 H   0  0  0  0  0  0  0  0  0  0  0  0
  149.6425  139.3292  155.0778 H   0  0  0  0  0  0  0  0  0  0  0  0
  148.6994  142.7744  155.3597 H   0  0  0  0  0  0  0  0  0  0  0  0
  150.0787  143.5547  156.7144 H   0  0  0  0  0  0  0  0  0  0  0  0
  152.6376  142.6612  157.3117 H   0  0  0  0  0  0  0  0  0  0  0  0
  150.5137  141.1906  158.9898 H   0  0  0  0  0  0  0  0  0  0  0  0
  152.1111  139.4225  159.0654 H   0  0  0  0  0  0  0  0  0  0  0  0
  153.0157  140.2916  157.8256 H   0  0  0  0  0  0  0  0  0  0  0  0
  153.3548  140.3874  160.8230 H   0  0  0  0  0  0  0  0  0  0  0  0
  154.5977  140.5762  159.5810 H   0  0  0  0  0  0  0  0  0  0  0  0
  151.4827  142.4292  160.8223 H   0  0  0  0  0  0  0  0  0  0  0  0
  149.7350  144.7119  158.3946 H   0  0  0  0  0  0  0  0  0  0  0  0
  149.5023  143.5805  159.7122 H   0  0  0  0  0  0  0  0  0  0  0  0
  149.7590  146.2474  160.1733 H   0  0  0  0  0  0  0  0  0  0  0  0
  150.4568  145.0758  161.2861 H   0  0  0  0  0  0  0  0  0  0  0  0
  151.9204  146.9228  159.5263 H   0  0  0  0  0  0  0  0  0  0  0  0
  152.5275  145.9078  160.8288 H   0  0  0  0  0  0  0  0  0  0  0  0
  153.5014  144.6781  159.0871 H   0  0  0  0  0  0  0  0  0  0  0  0
  152.4084  145.3559  157.9052 H   0  0  0  0  0  0  0  0  0  0  0  0
  145.8591  140.7693  152.3057 H   0  0  0  0  0  0  0  0  0  0  0  0
  1  2  1  0  0  0  0
  1 23  1  0  0  0  0
  1 24  1  0  0  0  0
  1 25  1  0  0  0  0
  2 22  1  0  0  0  0
  2  3  2  0  0  0  0
  3  4  1  0  0  0  0
  3 26  1  0  0  0  0
  4  5  2  0  0  0  0
  4 27  1  0  0  0  0
  5  6  1  0  0  0  0
  5 21  1  0  0  0  0
  6  7  1  0  0  0  0
  6 28  1  0  0  0  0
  7  8  2  0  0  0  0
  7  9  1  0  0  0  0
  9 10  1  0  0  0  0
  9 29  1  0  0  0  0
 10 16  1  0  0  0  0
 10 11  1  0  0  0  0
 10 30  1  0  0  0  0
 11 15  1  0  0  0  0
 11 12  1  0  0  0  0
 11 31  1  0  0  0  0
 12 13  1  0  0  0  0
 12 32  1  0  0  0  0
 12 33  1  0  0  0  0
 13 14  1  0  0  0  0
 13 34  1  0  0  0  0
 13 35  1  0  0  0  0
 14 15  1  0  0  0  0
 15 16  1  0  0  0  0
 15 36  1  0  0  0  0
 16 20  1  0  0  0  0
 16 17  1  0  0  0  0
 17 18  1  0  0  0  0
 17 37  1  0  0  0  0
 17 38  1  0  0  0  0
 18 19  1  0  0  0  0
 18 39  1  0  0  0  0
 18 40  1  0  0  0  0
 19 20  1  0  0  0  0
 19 41  1  0  0  0  0
 19 42  1  0  0  0  0
 20 43  1  0  0  0  0
 20 44  1  0  0  0  0
 21 22  2  0  0  0  0
 22 45  1  0  0  0  0
M  END
> <s_m_source_file>
AV-unprocessed.smi

> <i_m_source_file_index>
2217

> <i_lp_mmshare_version>
43012

> <i_f3d_flags>
0

> <s_epik_input>
W0NIM11jMVtjSF1bY0hdYyhuW2NIXTEpW05IXUMoPU8pW05IXVtDQEBIXTJbQ0BASF0oW0NIMl1bQ0gyXU8zKVtDQEhdM0MyNFtDSDJdW0NIMl1bQ0gyXVtDSDJdNA==

> <s_epik_cmdline>
J2VwaWtfcHl0aG9uJywgJy1waCcsICc3LjAnLCAnLXRuJywgJzgnLCAnLW1hJywgJzIwMCcsICctbWV0YWxfYmluZGluZycsICctaW1hZScsICc8aW5maWxlLm1hZT4nLCAnLW9tYWUnLCAnPG91dGZpbGUubWFlPic=

> <r_lp_tautomer_probability>
1

> <r_epik_Ionization_Penalty>
6.14796e-05

> <r_epik_Ionization_Penalty_Charging>
0

> <r_epik_Ionization_Penalty_Neutral>
6.14796e-05

> <r_epik_State_Penalty>
-0

> <r_epik_Charging_Adjusted_Penalty>
0

> <i_epik_Tot_Q>
0

> <i_epik_Tot_abs_Q>
0

> <r_epik_Metal_State_Penalty>
-0

> <b_epik_Metal_Only>
0

> <s_lp_Force_Field>
OPLS_2005

> <r_lp_Energy>
58.5561

> <b_lp_Chiralities_Consistent>
1

> <s_lp_Variant>
AV-unprocessed.smi:2217-5

> <Gold.Version>
5.8.1

> <Gold.Id.Protein>
6NUR|6NUR_protein|mol2

> <Gold.PLP.Fitness>
48.9638

> <Gold.PLP.PLP>
-42.9244

> <Gold.PLP.part.hbond>
-2.0000

> <Gold.PLP.part.metal>
0.0000

> <Gold.PLP.part.buried>
0.1447

> <Gold.PLP.part.nonpolar>
-42.4763

> <Gold.PLP.part.repulsive>
0.3785

> <Gold.PLP.ligand.clash>
2.1011

> <Gold.PLP.ligand.torsion>
0.2358

> <Gold.PLP.Chemscore.Hbond>
2.0000

> <Gold.PLP.Chemscore.CHOScore>
0.8093

> <Gold.PLP.Chemscore.Metal>
0.0000

> <Gold.Chemscore.Hbonds>
donor molecule, donor type, donor heavy atom, donor atom, acceptor molecule, acceptor atom, score
      L1  H     6    28       P1  8028  1.00
      L1  H     9    29       P1  8028  1.00
      L1  C    22    45       P1 10175  0.82

> <Gold.PLP.Chemscore.Internal.Correction>
0.1842

> <Gold.Rescore>
     Score         DG    S(hbond)    S(metal)    S(lipo)     H(rot)  DE(clash)    DE(int)     intcor
     21.81     -25.07       1.94        0.00     134.09       1.00       0.21       3.06       ----

> <Gold.Chemscore.Fitness>
21.8058

> <Gold.Chemscore.DG>
-25.0734

> <Gold.Chemscore.ZeroCoef>
-5.4800

> <Gold.Chemscore.Hbond>
1.9356

> <Gold.Chemscore.Metal>
0.0000

> <Gold.Chemscore.Lipo>
134.0902

> <Gold.Chemscore.Internal_Hbond>
0.0000

> <Gold.Chemscore.DEClash>
0.2124

> <Gold.Chemscore.DEInternal>
3.0552

> <Gold.Chemscore.Rot>
1.0000

> <Gold.Chemscore.Internal.Correction>
   9.000000E+99

> <Gold.Chemscore.Hbonds>
donor molecule, donor type, donor heavy atom, donor atom, acceptor molecule, acceptor atom, score
      L1  H     6    28       P1  8028  0.96
      L1  H     9    29       P1  8028  0.95

> <Gold.Chemscore.Hbond.Weighted>
-6.4649

> <Gold.Chemscore.Metal.Weighted>
-0.0000

> <Gold.Chemscore.Lipo.Weighted>
-15.6885

> <Gold.Chemscore.Internal_Hbond.Weighted>
0.0000

> <Gold.Chemscore.DEClash.Weighted>
0.2124

> <Gold.Chemscore.DEInternal.Weighted>
3.0552

> <Gold.Chemscore.Rot.Weighted>
2.5600

> <Gold.Chemscore.Internal.Correction.Weighted>
   9.000000E+99

> <Gold.Protein.RotatedTorsions>
[ 6907 6896 6895 6894 ] final  -31.42 input  -60.11 | X-H torsion
[ 7974 7965 7964 7962 ] final   -5.51 input  175.53 | X-H torsion
[ 8008 7997 7996 7995 ] final   43.92 input   59.86 | X-H torsion
[ 10167 10162 10161 10158 ] final   74.99 input  -65.29 | X-H torsion
[ 10718 10713 10712 10709 ] final   16.94 input   66.30 | X-H torsion
[ 10763 10752 10751 10750 ] final  105.86 input  -60.55 | X-H torsion
[ 11005 11000 10999 10996 ] final  -67.35 input  -57.11 | X-H torsion

> <Gold.Protein.ActiveResidues>
 VAL166  LYS551  ARG553  GLY616  TRP617  ASP618  TYR619  PRO620  LYS621  CYS622 
 ASP623  PHE694  ASN695  SER759  ASP760  ASP761  ALA762  ILE779  LEU786  VAL792 
 PHE793  MET794  SER795  GLU796  ALA797  LYS798  CYS799  TRP800  GLU811  SER814 

> <Gold.Protein.RotatedAtoms>
  151.0922  134.9923  159.8408 H   0  0  0  0  0  0  0  0  0  0  0  0  # atno 6907 bound_to 6896
  152.5430  134.2051  159.8737 H   0  0  0  0  0  0  0  0  0  0  0  0  # atno 6908 bound_to 6896
  151.2088  133.4524  159.2631 H   0  0  0  0  0  0  0  0  0  0  0  0  # atno 6909 bound_to 6896
  146.2351  140.2032  142.8334 H   0  0  0  0  0  0  0  0  0  0  0  0  # atno 7974 bound_to 7965
  155.3107  140.3391  155.4244 H   0  0  0  0  0  0  0  0  0  0  0  0  # atno 8008 bound_to 7997
  156.1957  140.1714  156.8041 H   0  0  0  0  0  0  0  0  0  0  0  0  # atno 8009 bound_to 7997
  154.5495  140.0708  156.8629 H   0  0  0  0  0  0  0  0  0  0  0  0  # atno 8010 bound_to 7997
  140.0077  144.5638  150.7684 H   0  0  0  0  0  0  0  0  0  0  0  0  # atno 10167 bound_to 10162
  157.0750  130.6364  149.5814 H   0  0  0  0  0  0  0  0  0  0  0  0  # atno 10718 bound_to 10713
  153.3852  135.3896  155.1884 H   0  0  0  0  0  0  0  0  0  0  0  0  # atno 10763 bound_to 10752
  154.8712  135.3735  154.4807 H   0  0  0  0  0  0  0  0  0  0  0  0  # atno 10764 bound_to 10752
  153.5288  135.7086  153.5755 H   0  0  0  0  0  0  0  0  0  0  0  0  # atno 10765 bound_to 10752
  141.1506  133.6717  156.6279 H   0  0  0  0  0  0  0  0  0  0  0  0  # atno 11005 bound_to 11000
  144.9765  140.8419  143.5423 LP  0  0  0  0  0  0  0  0  0  0  0  0  # atno 17320 bound_to 7965
  145.2020  139.2247  143.5188 LP  0  0  0  0  0  0  0  0  0  0  0  0  # atno 17321 bound_to 7965
  140.7394  143.2790  151.3654 LP  0  0  0  0  0  0  0  0  0  0  0  0  # atno 17342 bound_to 10162
  139.6227  144.0876  152.2405 LP  0  0  0  0  0  0  0  0  0  0  0  0  # atno 17343 bound_to 10162
  155.9939  130.5002  150.7401 LP  0  0  0  0  0  0  0  0  0  0  0  0  # atno 17370 bound_to 10713
  157.4847  131.0905  151.0496 LP  0  0  0  0  0  0  0  0  0  0  0  0  # atno 17371 bound_to 10713
  140.3490  134.7785  157.4453 LP  0  0  0  0  0  0  0  0  0  0  0  0  # atno 17394 bound_to 11000
  140.0876  134.5645  155.8476 LP  0  0  0  0  0  0  0  0  0  0  0  0  # atno 17395 bound_to 11000

$$$$
