AV-unprocessed.smi:101|AV-procd|sdf|928|dock5
  -GOLD-   2262017443D 1   1.00000     0.00000
 Structure written by MMmdl.
 44 46  0  0  0  0  0  0  0  0  1 V2000
  143.8896  145.1901  154.2334 C   0  0  0  0  0  0  0  0  0  0  0  0
  144.6784  144.0096  154.7763 C   0  0  0  0  0  0  0  0  0  0  0  0
  145.5429  143.2968  154.0087 C   0  0  0  0  0  0  0  0  0  0  0  0
  146.2788  142.2126  154.4766 N   0  0  0  0  0  0  0  0  0  0  0  0
  147.2273  141.4134  153.5984 C   0  0  1  0  0  0  0  0  0  0  0  0
  148.5434  141.6229  154.0226 O   0  0  0  0  0  0  0  0  0  0  0  0
  148.9600  140.5238  154.8222 C   0  0  2  0  0  0  0  0  0  0  0  0
  150.4818  140.5097  155.0535 C   0  0  0  0  0  0  0  0  0  0  0  0
  150.8628  141.4466  156.0487 O   0  0  0  0  0  0  0  0  0  0  0  0
  151.8183  141.1351  156.9442 C   0  0  0  0  0  0  0  0  0  0  0  0
  152.5136  140.1196  156.8750 O   0  0  0  0  0  0  0  0  0  0  0  0
  151.9453  142.1496  158.0301 C   0  0  0  0  0  0  0  0  0  0  0  0
  151.2608  143.3817  157.9115 C   0  0  0  0  0  0  0  0  0  0  0  0
  151.3634  144.3592  158.9202 C   0  0  0  0  0  0  0  0  0  0  0  0
  152.1506  144.1158  160.0607 C   0  0  0  0  0  0  0  0  0  0  0  0
  152.8352  142.8935  160.1913 C   0  0  0  0  0  0  0  0  0  0  0  0
  152.7347  141.9150  159.1831 C   0  0  0  0  0  0  0  0  0  0  0  0
  148.3052  139.3158  154.1445 C   0  0  2  0  0  0  0  0  0  0  0  0
  149.0662  138.8568  153.0391 O   0  0  0  0  0  0  0  0  0  0  0  0
  146.9504  139.8945  153.7285 C   0  0  2  0  0  0  0  0  0  0  0  0
  146.4457  139.3100  152.5418 O   0  0  0  0  0  0  0  0  0  0  0  0
  146.1054  141.7944  155.8129 C   0  0  0  0  0  0  0  0  0  0  0  0
  146.6972  140.8268  156.2897 O   0  0  0  0  0  0  0  0  0  0  0  0
  145.2211  142.5274  156.6013 N   0  0  0  0  0  0  0  0  0  0  0  0
  144.4801  143.6322  156.1782 C   0  0  0  0  0  0  0  0  0  0  0  0
  143.7310  144.2009  156.9709 O   0  0  0  0  0  0  0  0  0  0  0  0
  145.1023  142.2324  157.5596 H   0  0  0  0  0  0  0  0  0  0  0  0
  144.1303  145.3941  153.1897 H   0  0  0  0  0  0  0  0  0  0  0  0
  144.1072  146.0912  154.8079 H   0  0  0  0  0  0  0  0  0  0  0  0
  142.8189  144.9930  154.2969 H   0  0  0  0  0  0  0  0  0  0  0  0
  145.6455  143.6042  152.9795 H   0  0  0  0  0  0  0  0  0  0  0  0
  147.1042  141.8172  152.5914 H   0  0  0  0  0  0  0  0  0  0  0  0
  148.4898  140.6354  155.8005 H   0  0  0  0  0  0  0  0  0  0  0  0
  150.7889  139.5119  155.3700 H   0  0  0  0  0  0  0  0  0  0  0  0
  151.0028  140.7274  154.1202 H   0  0  0  0  0  0  0  0  0  0  0  0
  150.6508  143.5913  157.0445 H   0  0  0  0  0  0  0  0  0  0  0  0
  150.8373  145.2969  158.8182 H   0  0  0  0  0  0  0  0  0  0  0  0
  152.2286  144.8657  160.8341 H   0  0  0  0  0  0  0  0  0  0  0  0
  153.4395  142.7048  161.0663 H   0  0  0  0  0  0  0  0  0  0  0  0
  153.2733  140.9878  159.3157 H   0  0  0  0  0  0  0  0  0  0  0  0
  148.1874  138.4832  154.8387 H   0  0  0  0  0  0  0  0  0  0  0  0
  148.9257  139.4423  152.3109 H   0  0  0  0  0  0  0  0  0  0  0  0
  146.2349  139.7282  154.5354 H   0  0  0  0  0  0  0  0  0  0  0  0
  145.5401  139.5636  152.4468 H   0  0  0  0  0  0  0  0  0  0  0  0
  1  2  1  0  0  0  0
  1 28  1  0  0  0  0
  1 29  1  0  0  0  0
  1 30  1  0  0  0  0
  2 25  1  0  0  0  0
  2  3  2  0  0  0  0
  3  4  1  0  0  0  0
  3 31  1  0  0  0  0
  4  5  1  0  0  0  0
  4 22  1  0  0  0  0
  5 20  1  0  0  0  0
  5  6  1  0  0  0  0
  5 32  1  0  0  0  0
  6  7  1  0  0  0  0
  7  8  1  0  0  0  0
  7 18  1  0  0  0  0
  7 33  1  0  0  0  0
  8  9  1  0  0  0  0
  8 34  1  0  0  0  0
  8 35  1  0  0  0  0
  9 10  1  0  0  0  0
 10 11  2  0  0  0  0
 10 12  1  0  0  0  0
 12 17  1  0  0  0  0
 12 13  2  0  0  0  0
 13 14  1  0  0  0  0
 13 36  1  0  0  0  0
 14 15  2  0  0  0  0
 14 37  1  0  0  0  0
 15 16  1  0  0  0  0
 15 38  1  0  0  0  0
 16 17  2  0  0  0  0
 16 39  1  0  0  0  0
 17 40  1  0  0  0  0
 18 19  1  0  0  0  0
 18 20  1  0  0  0  0
 18 41  1  0  0  0  0
 19 42  1  0  0  0  0
 20 21  1  0  0  0  0
 20 43  1  0  0  0  0
 21 44  1  0  0  0  0
 22 23  2  0  0  0  0
 22 24  1  0  0  0  0
 24 27  1  0  0  0  0
 24 25  1  0  0  0  0
 25 26  2  0  0  0  0
M  END
> <s_m_source_file>
AV-unprocessed.smi

> <i_m_source_file_index>
101

> <i_lp_mmshare_version>
43012

> <i_f3d_flags>
0

> <s_epik_input>
Tz1jMVtuSF1jKD1PKW4oW2NIXWMxW0NIM10pW0NAQEhdMk9bQ0BIXShbQ0BASF0oW09IXSlbQ0BIXTJbT0hdKVtDSDJdT0MoPU8pYzNbY0hdW2NIXVtjSF1bY0hdW2NIXTM=

> <s_epik_cmdline>
J2VwaWtfcHl0aG9uJywgJy1waCcsICc3LjAnLCAnLXRuJywgJzgnLCAnLW1hJywgJzIwMCcsICctbWV0YWxfYmluZGluZycsICctaW1hZScsICc8aW5maWxlLm1hZT4nLCAnLW9tYWUnLCAnPG91dGZpbGUubWFlPic=

> <r_lp_tautomer_probability>
0.999537

> <r_epik_Ionization_Penalty>
0.00263537

> <r_epik_Ionization_Penalty_Charging>
0.00263428

> <r_epik_Ionization_Penalty_Neutral>
1.09111e-06

> <r_epik_State_Penalty>
0.00183335

> <r_epik_Charging_Adjusted_Penalty>
0.00446763

> <i_epik_Tot_Q>
0

> <i_epik_Tot_abs_Q>
0

> <r_epik_Metal_State_Penalty>
1.00528

> <b_epik_Metal_Only>
0

> <s_epik_Chemistry_Notes>
This compound has an ester and may undergo hydrolysis at high or low pH. This compound contains an acetal/aminal-like group ( X-CH(R)-Y where X, Y are N, S, or O) that may be acid/base labile, releasing an aldehyde.

> <s_lp_Force_Field>
OPLS_2005

> <r_lp_Energy>
40.8637

> <b_lp_Chiralities_Consistent>
1

> <s_lp_Variant>
AV-unprocessed.smi:101-16

> <Gold.Version>
5.8.1

> <Gold.Id.Protein>
6NUR|6NUR_protein|mol2

> <Gold.PLP.Fitness>
60.9976

> <Gold.PLP.PLP>
-54.0669

> <Gold.PLP.part.hbond>
-4.8582

> <Gold.PLP.part.metal>
0.0000

> <Gold.PLP.part.buried>
-9.0331

> <Gold.PLP.part.nonpolar>
-39.6896

> <Gold.PLP.part.repulsive>
0.3362

> <Gold.PLP.ligand.clash>
1.7597

> <Gold.PLP.ligand.torsion>
0.7492

> <Gold.PLP.Chemscore.Hbond>
3.3806

> <Gold.PLP.Chemscore.CHOScore>
0.0000

> <Gold.PLP.Chemscore.Metal>
0.0000

> <Gold.Chemscore.Hbonds>
donor molecule, donor type, donor heavy atom, donor atom, acceptor molecule, acceptor atom, score
      L1  H    19    42       P1  7957  0.69
      L1  H    21    44       P1 10175  0.93
      P1  H  7997  8008       L1    11  1.00
      P1  H  8011  8017       L1     6  0.28

> <Gold.PLP.Chemscore.Internal.Correction>
0.0470

> <Gold.Rescore>
     Score         DG    S(hbond)    S(metal)    S(lipo)     H(rot)  DE(clash)    DE(int)     intcor
     15.04     -20.91       3.28        0.00     110.92       3.32       0.66       5.21       ----

> <Gold.Chemscore.Fitness>
15.0400

> <Gold.Chemscore.DG>
-20.9062

> <Gold.Chemscore.ZeroCoef>
-5.4800

> <Gold.Chemscore.Hbond>
3.2758

> <Gold.Chemscore.Metal>
0.0000

> <Gold.Chemscore.Lipo>
110.9152

> <Gold.Chemscore.Internal_Hbond>
0.0000

> <Gold.Chemscore.DEClash>
0.6568

> <Gold.Chemscore.DEInternal>
5.2094

> <Gold.Chemscore.Rot>
3.3172

> <Gold.Chemscore.Internal.Correction>
   9.000000E+99

> <Gold.Chemscore.Hbonds>
donor molecule, donor type, donor heavy atom, donor atom, acceptor molecule, acceptor atom, score
      L1  H    19    42       P1  7957  0.67
      L1  H    21    44       P1 10175  0.88
      P1  H  7997  8008       L1    11  0.98
      P1  H  8011  8017       L1     6  0.21

> <Gold.Chemscore.Hbond.Weighted>
-10.9411

> <Gold.Chemscore.Metal.Weighted>
-0.0000

> <Gold.Chemscore.Lipo.Weighted>
-12.9771

> <Gold.Chemscore.Internal_Hbond.Weighted>
0.0000

> <Gold.Chemscore.DEClash.Weighted>
0.6568

> <Gold.Chemscore.DEInternal.Weighted>
5.2094

> <Gold.Chemscore.Rot.Weighted>
8.4920

> <Gold.Chemscore.Internal.Correction.Weighted>
   9.000000E+99

> <Gold.Protein.RotatedTorsions>
[ 6907 6896 6895 6894 ] final -124.99 input  -60.11 | X-H torsion
[ 7974 7965 7964 7962 ] final   34.53 input  175.53 | X-H torsion
[ 8008 7997 7996 7995 ] final  -53.92 input   59.86 | X-H torsion
[ 10167 10162 10161 10158 ] final  127.87 input  -65.29 | X-H torsion
[ 10718 10713 10712 10709 ] final  163.20 input   66.30 | X-H torsion
[ 10763 10752 10751 10750 ] final   56.15 input  -60.55 | X-H torsion
[ 11005 11000 10999 10996 ] final   63.15 input  -57.11 | X-H torsion

> <Gold.Protein.ActiveResidues>
 VAL166  LYS551  ARG553  GLY616  TRP617  ASP618  TYR619  PRO620  LYS621  CYS622 
 ASP623  PHE694  ASN695  SER759  ASP760  ASP761  ALA762  ILE779  LEU786  VAL792 
 PHE793  MET794  SER795  GLU796  ALA797  LYS798  CYS799  TRP800  GLU811  SER814 

> <Gold.Protein.RotatedAtoms>
  150.8823  133.7356  159.2928 H   0  0  0  0  0  0  0  0  0  0  0  0  # atno 6907 bound_to 6896
  151.4933  135.1057  159.9819 H   0  0  0  0  0  0  0  0  0  0  0  0  # atno 6908 bound_to 6896
  152.4767  133.8110  159.7059 H   0  0  0  0  0  0  0  0  0  0  0  0  # atno 6909 bound_to 6896
  146.1346  139.6257  142.9204 H   0  0  0  0  0  0  0  0  0  0  0  0  # atno 7974 bound_to 7965
  154.4147  140.1188  156.5231 H   0  0  0  0  0  0  0  0  0  0  0  0  # atno 8008 bound_to 7997
  155.6682  140.3496  155.4789 H   0  0  0  0  0  0  0  0  0  0  0  0  # atno 8009 bound_to 7997
  155.9655  140.1131  157.0848 H   0  0  0  0  0  0  0  0  0  0  0  0  # atno 8010 bound_to 7997
  139.5556  144.6846  151.4193 H   0  0  0  0  0  0  0  0  0  0  0  0  # atno 10167 bound_to 10162
  157.1119  131.0470  151.2453 H   0  0  0  0  0  0  0  0  0  0  0  0  # atno 10718 bound_to 10713
  152.9827  135.5686  154.5182 H   0  0  0  0  0  0  0  0  0  0  0  0  # atno 10763 bound_to 10752
  154.4675  135.2783  155.1669 H   0  0  0  0  0  0  0  0  0  0  0  0  # atno 10764 bound_to 10752
  154.3232  135.6265  153.5570 H   0  0  0  0  0  0  0  0  0  0  0  0  # atno 10765 bound_to 10752
  140.0044  134.6392  155.9879 H   0  0  0  0  0  0  0  0  0  0  0  0  # atno 11005 bound_to 11000
  145.5185  141.0433  143.2449 LP  0  0  0  0  0  0  0  0  0  0  0  0  # atno 17320 bound_to 7965
  144.7726  139.6701  143.7188 LP  0  0  0  0  0  0  0  0  0  0  0  0  # atno 17321 bound_to 7965
  140.6828  143.8043  150.7144 LP  0  0  0  0  0  0  0  0  0  0  0  0  # atno 17342 bound_to 10162
  140.1501  143.4365  152.2137 LP  0  0  0  0  0  0  0  0  0  0  0  0  # atno 17343 bound_to 10162
  157.4552  130.7621  149.7186 LP  0  0  0  0  0  0  0  0  0  0  0  0  # atno 17370 bound_to 10713
  155.9848  130.3988  150.3291 LP  0  0  0  0  0  0  0  0  0  0  0  0  # atno 17371 bound_to 10713
  141.1666  133.6537  156.4501 LP  0  0  0  0  0  0  0  0  0  0  0  0  # atno 17394 bound_to 11000
  140.4668  134.6790  157.5111 LP  0  0  0  0  0  0  0  0  0  0  0  0  # atno 17395 bound_to 11000

$$$$
