AV-unprocessed.smi:2911|AV-procd|sdf|11180|dock6
  -GOLD-   2272016 73D 1   1.00000     0.00000
 Structure written by MMmdl.
 41 42  0  0  0  0  0  0  0  0  1 V2000
  143.6884  143.7151  162.4212 C   0  0  0  0  0  0  0  0  0  0  0  0
  144.8042  143.4417  161.4714 C   0  0  0  0  0  0  0  0  0  0  0  0
  145.9606  142.9433  161.8916 N   0  0  0  0  0  0  0  0  0  0  0  0
  146.7154  142.8410  160.7141 O   0  0  0  0  0  0  0  0  0  0  0  0
  145.9061  143.2745  159.7178 C   0  0  0  0  0  0  0  0  0  0  0  0
  146.4423  143.3311  158.3270 C   0  0  0  0  0  0  0  0  0  0  0  0
  147.2339  142.0681  157.9522 C   0  0  0  0  0  0  0  0  0  0  0  0
  148.6509  142.3593  157.7661 N   0  0  0  0  0  0  0  0  0  0  0  0
  149.4151  143.0643  158.6176 C   0  0  0  0  0  0  0  0  0  0  0  0
  148.9534  143.5896  159.6308 O   0  0  0  0  0  0  0  0  0  0  0  0
  150.6929  143.2305  158.1901 N   0  0  0  0  0  0  0  0  0  0  0  0
  151.3712  142.1852  157.4027 C   0  0  0  0  0  0  0  0  0  0  0  0
  152.1319  141.2496  158.3623 C   0  0  0  0  0  0  0  0  0  0  0  0
  153.1345  142.0326  159.2370 C   0  0  2  0  0  0  0  0  0  0  0  0
  153.8062  141.1276  160.2787 C   0  0  0  0  0  0  0  0  0  0  0  0
  152.4625  143.2582  159.8943 C   0  0  0  0  0  0  0  0  0  0  0  0
  151.6945  144.0960  158.8510 C   0  0  2  0  0  0  0  0  0  0  0  0
  151.1461  145.4136  159.4391 C   0  0  0  0  0  0  0  0  0  0  0  0
  144.7081  143.6779  160.1342 N   0  0  0  0  0  0  0  0  0  0  0  0
  144.0707  143.8881  163.4278 H   0  0  0  0  0  0  0  0  0  0  0  0
  143.0047  142.8667  162.4506 H   0  0  0  0  0  0  0  0  0  0  0  0
  143.1306  144.5989  162.1102 H   0  0  0  0  0  0  0  0  0  0  0  0
  145.6060  143.4745  157.6417 H   0  0  0  0  0  0  0  0  0  0  0  0
  147.0769  144.2133  158.2343 H   0  0  0  0  0  0  0  0  0  0  0  0
  147.1427  141.3247  158.7444 H   0  0  0  0  0  0  0  0  0  0  0  0
  146.8232  141.6127  157.0494 H   0  0  0  0  0  0  0  0  0  0  0  0
  149.0860  141.9966  156.9303 H   0  0  0  0  0  0  0  0  0  0  0  0
  150.6897  141.5968  156.7876 H   0  0  0  0  0  0  0  0  0  0  0  0
  152.0656  142.6468  156.6993 H   0  0  0  0  0  0  0  0  0  0  0  0
  151.4169  140.7259  158.9987 H   0  0  0  0  0  0  0  0  0  0  0  0
  152.6554  140.4815  157.7920 H   0  0  0  0  0  0  0  0  0  0  0  0
  153.9177  142.4069  158.5763 H   0  0  0  0  0  0  0  0  0  0  0  0
  153.0763  140.7181  160.9775 H   0  0  0  0  0  0  0  0  0  0  0  0
  154.5481  141.6788  160.8571 H   0  0  0  0  0  0  0  0  0  0  0  0
  154.3161  140.2905  159.8010 H   0  0  0  0  0  0  0  0  0  0  0  0
  151.7779  142.9319  160.6788 H   0  0  0  0  0  0  0  0  0  0  0  0
  153.2195  143.8732  160.3825 H   0  0  0  0  0  0  0  0  0  0  0  0
  152.4053  144.4036  158.0820 H   0  0  0  0  0  0  0  0  0  0  0  0
  151.9662  146.0802  159.7071 H   0  0  0  0  0  0  0  0  0  0  0  0
  150.5624  145.2572  160.3457 H   0  0  0  0  0  0  0  0  0  0  0  0
  150.5220  145.9406  158.7168 H   0  0  0  0  0  0  0  0  0  0  0  0
  1  2  1  0  0  0  0
  1 20  1  0  0  0  0
  1 21  1  0  0  0  0
  1 22  1  0  0  0  0
  2 19  1  0  0  0  0
  2  3  2  0  0  0  0
  3  4  1  0  0  0  0
  4  5  1  0  0  0  0
  5  6  1  0  0  0  0
  5 19  2  0  0  0  0
  6  7  1  0  0  0  0
  6 23  1  0  0  0  0
  6 24  1  0  0  0  0
  7  8  1  0  0  0  0
  7 25  1  0  0  0  0
  7 26  1  0  0  0  0
  8  9  1  0  0  0  0
  8 27  1  0  0  0  0
  9 10  2  0  0  0  0
  9 11  1  0  0  0  0
 11 17  1  0  0  0  0
 11 12  1  0  0  0  0
 12 13  1  0  0  0  0
 12 28  1  0  0  0  0
 12 29  1  0  0  0  0
 13 14  1  0  0  0  0
 13 30  1  0  0  0  0
 13 31  1  0  0  0  0
 14 15  1  0  0  0  0
 14 16  1  0  0  0  0
 14 32  1  0  0  0  0
 15 33  1  0  0  0  0
 15 34  1  0  0  0  0
 15 35  1  0  0  0  0
 16 17  1  0  0  0  0
 16 36  1  0  0  0  0
 16 37  1  0  0  0  0
 17 18  1  0  0  0  0
 17 38  1  0  0  0  0
 18 39  1  0  0  0  0
 18 40  1  0  0  0  0
 18 41  1  0  0  0  0
M  END
> <s_m_source_file>
AV-unprocessed.smi

> <i_m_source_file_index>
2911

> <i_lp_mmshare_version>
43012

> <i_f3d_flags>
0

> <s_epik_input>
W0NIM11jMW5vYyhuMSlbQ0gyXVtDSDJdW05IXUMoPU8pTjJbQ0gyXVtDSDJdW0NAQEhdKFtDSDNdKVtDSDJdW0NASF0yW0NIM10=

> <s_epik_cmdline>
J2VwaWtfcHl0aG9uJywgJy1waCcsICc3LjAnLCAnLXRuJywgJzgnLCAnLW1hJywgJzIwMCcsICctbWV0YWxfYmluZGluZycsICctaW1hZScsICc8aW5maWxlLm1hZT4nLCAnLW9tYWUnLCAnPG91dGZpbGUubWFlPic=

> <r_lp_tautomer_probability>
1

> <r_epik_Ionization_Penalty>
6.61671e-05

> <r_epik_Ionization_Penalty_Charging>
0

> <r_epik_Ionization_Penalty_Neutral>
6.61671e-05

> <r_epik_State_Penalty>
-0

> <r_epik_Charging_Adjusted_Penalty>
0

> <i_epik_Tot_Q>
0

> <i_epik_Tot_abs_Q>
0

> <r_epik_Metal_State_Penalty>
-0

> <b_epik_Metal_Only>
0

> <s_lp_Force_Field>
OPLS_2005

> <r_lp_Energy>
29.3819

> <b_lp_Chiralities_Consistent>
1

> <s_lp_Variant>
AV-unprocessed.smi:2911-4

> <Gold.Version>
5.8.1

> <Gold.Id.Protein>
6NUR|6NUR_protein|mol2

> <Gold.PLP.Fitness>
43.3646

> <Gold.PLP.PLP>
-39.4502

> <Gold.PLP.part.hbond>
-3.5987

> <Gold.PLP.part.metal>
0.0000

> <Gold.PLP.part.buried>
-4.6321

> <Gold.PLP.part.nonpolar>
-31.3908

> <Gold.PLP.part.repulsive>
0.3145

> <Gold.PLP.ligand.clash>
0.0011

> <Gold.PLP.ligand.torsion>
0.8585

> <Gold.PLP.Chemscore.Hbond>
1.7344

> <Gold.PLP.Chemscore.CHOScore>
0.0000

> <Gold.PLP.Chemscore.Metal>
0.0000

> <Gold.Chemscore.Hbonds>
donor molecule, donor type, donor heavy atom, donor atom, acceptor molecule, acceptor atom, score
      P1  H  6933  6944       L1     4  0.90
      P1  H  6934  6946       L1     4  0.76

> <Gold.PLP.Chemscore.Internal.Correction>
0.4294

> <Gold.Rescore>
     Score         DG    S(hbond)    S(metal)    S(lipo)     H(rot)  DE(clash)    DE(int)     intcor
     11.40     -15.03       1.03        0.00      87.28       1.61       0.13       3.50       ----

> <Gold.Chemscore.Fitness>
11.4026

> <Gold.Chemscore.DG>
-15.0254

> <Gold.Chemscore.ZeroCoef>
-5.4800

> <Gold.Chemscore.Hbond>
1.0335

> <Gold.Chemscore.Metal>
0.0000

> <Gold.Chemscore.Lipo>
87.2835

> <Gold.Chemscore.Internal_Hbond>
0.0000

> <Gold.Chemscore.DEClash>
0.1267

> <Gold.Chemscore.DEInternal>
3.4961

> <Gold.Chemscore.Rot>
1.6088

> <Gold.Chemscore.Internal.Correction>
   9.000000E+99

> <Gold.Chemscore.Hbonds>
donor molecule, donor type, donor heavy atom, donor atom, acceptor molecule, acceptor atom, score
      P1  H  6933  6944       L1    10  0.26
      P1  H  6934  6946       L1     4  0.11

> <Gold.Chemscore.Hbond.Weighted>
-3.4519

> <Gold.Chemscore.Metal.Weighted>
-0.0000

> <Gold.Chemscore.Lipo.Weighted>
-10.2122

> <Gold.Chemscore.Internal_Hbond.Weighted>
0.0000

> <Gold.Chemscore.DEClash.Weighted>
0.1267

> <Gold.Chemscore.DEInternal.Weighted>
3.4961

> <Gold.Chemscore.Rot.Weighted>
4.1186

> <Gold.Chemscore.Internal.Correction.Weighted>
   9.000000E+99

> <Gold.Protein.RotatedTorsions>
[ 6907 6896 6895 6894 ] final -152.02 input  -60.11 | X-H torsion
[ 7974 7965 7964 7962 ] final  -87.72 input  175.53 | X-H torsion
[ 8008 7997 7996 7995 ] final  176.88 input   59.86 | X-H torsion
[ 10167 10162 10161 10158 ] final  -17.46 input  -65.29 | X-H torsion
[ 10718 10713 10712 10709 ] final    6.36 input   66.30 | X-H torsion
[ 10763 10752 10751 10750 ] final -165.78 input  -60.55 | X-H torsion
[ 11005 11000 10999 10996 ] final   13.68 input  -57.11 | X-H torsion

> <Gold.Protein.ActiveResidues>
 VAL166  LYS551  ARG553  GLY616  TRP617  ASP618  TYR619  PRO620  LYS621  CYS622 
 ASP623  PHE694  ASN695  SER759  ASP760  ASP761  ALA762  ILE779  LEU786  VAL792 
 PHE793  MET794  SER795  GLU796  ALA797  LYS798  CYS799  TRP800  GLU811  SER814 

> <Gold.Protein.RotatedAtoms>
  151.2216  133.4499  159.2600 H   0  0  0  0  0  0  0  0  0  0  0  0  # atno 6907 bound_to 6896
  151.0880  134.9899  159.8399 H   0  0  0  0  0  0  0  0  0  0  0  0  # atno 6908 bound_to 6896
  152.5431  134.2151  159.8818 H   0  0  0  0  0  0  0  0  0  0  0  0  # atno 6909 bound_to 6896
  145.4627  140.9561  143.1960 H   0  0  0  0  0  0  0  0  0  0  0  0  # atno 7974 bound_to 7965
  156.0717  140.1372  156.9820 H   0  0  0  0  0  0  0  0  0  0  0  0  # atno 8008 bound_to 7997
  154.4535  140.0970  156.6741 H   0  0  0  0  0  0  0  0  0  0  0  0  # atno 8009 bound_to 7997
  155.5217  140.3456  155.4410 H   0  0  0  0  0  0  0  0  0  0  0  0  # atno 8010 bound_to 7997
  140.7247  143.5014  150.9865 H   0  0  0  0  0  0  0  0  0  0  0  0  # atno 10167 bound_to 10162
  156.9210  130.5791  149.5648 H   0  0  0  0  0  0  0  0  0  0  0  0  # atno 10718 bound_to 10713
  154.6898  135.2969  154.9495 H   0  0  0  0  0  0  0  0  0  0  0  0  # atno 10763 bound_to 10752
  154.0462  135.6650  153.4799 H   0  0  0  0  0  0  0  0  0  0  0  0  # atno 10764 bound_to 10752
  153.0604  135.5119  154.7985 H   0  0  0  0  0  0  0  0  0  0  0  0  # atno 10765 bound_to 10752
  140.4780  134.0963  155.7745 H   0  0  0  0  0  0  0  0  0  0  0  0  # atno 11005 bound_to 11000
  144.7993  139.6172  143.7079 LP  0  0  0  0  0  0  0  0  0  0  0  0  # atno 17320 bound_to 7965
  146.2442  139.6063  142.9471 LP  0  0  0  0  0  0  0  0  0  0  0  0  # atno 17321 bound_to 7965
  139.8723  143.7176  152.3165 LP  0  0  0  0  0  0  0  0  0  0  0  0  # atno 17342 bound_to 10162
  139.7430  144.7554  151.0624 LP  0  0  0  0  0  0  0  0  0  0  0  0  # atno 17343 bound_to 10162
  156.0491  130.5563  150.8948 LP  0  0  0  0  0  0  0  0  0  0  0  0  # atno 17370 bound_to 10713
  157.5908  131.0944  150.9122 LP  0  0  0  0  0  0  0  0  0  0  0  0  # atno 17371 bound_to 10713
  141.1545  133.8908  157.2014 LP  0  0  0  0  0  0  0  0  0  0  0  0  # atno 17394 bound_to 11000
  139.9844  135.0087  156.9826 LP  0  0  0  0  0  0  0  0  0  0  0  0  # atno 17395 bound_to 11000

$$$$
