AV-unprocessed.smi:2953|AV-procd|sdf|11295|dock2
  -GOLD-   2272016183D 1   1.00000     0.00000
 Structure written by MMmdl.
 46 48  0  0  0  0  0  0  0  0  2 V2000
  151.3109  144.4931  159.5193 C   0  0  0  0  0  0  0  0  0  0  0  0
  151.7640  143.0843  159.8540 C   0  0  0  0  0  0  0  0  0  0  0  0
  152.6497  142.8765  160.9323 C   0  0  0  0  0  0  0  0  0  0  0  0
  153.0818  141.5777  161.2551 C   0  0  0  0  0  0  0  0  0  0  0  0
  152.6288  140.4819  160.4994 C   0  0  0  0  0  0  0  0  0  0  0  0
  151.7452  140.6836  159.4222 C   0  0  0  0  0  0  0  0  0  0  0  0
  151.3030  141.9891  159.0863 C   0  0  0  0  0  0  0  0  0  0  0  0
  150.4414  142.2607  158.0431 O   0  0  0  0  0  0  0  0  0  0  0  0
  149.9087  141.1714  157.3046 C   0  0  0  0  0  0  0  0  0  0  0  0
  150.9075  140.7977  156.2031 C   0  0  0  0  0  0  0  0  0  0  0  0
  150.2788  139.9949  155.1459 N   0  0  0  0  0  0  0  0  0  0  0  0
  150.6654  138.8121  154.5855 C   0  0  0  0  0  0  0  0  0  0  0  0
  151.8722  137.9989  154.9630 C   0  0  2  0  0  0  0  0  0  0  0  0
  151.7602  137.3963  156.3765 C   0  0  0  0  0  0  0  0  0  0  0  0
  153.1188  138.7430  154.7971 N   0  0  0  0  0  0  0  0  0  0  0  0
  154.3215  138.3572  155.2452 C   0  0  0  0  0  0  0  0  0  0  0  0
  154.5048  137.3100  155.8597 O   0  0  0  0  0  0  0  0  0  0  0  0
  149.7220  138.4857  153.6544 N   0  3  0  0  0  0  0  0  0  0  0  0
  148.7397  139.4752  153.6056 C   0  0  0  0  0  0  0  0  0  0  0  0
  147.5973  139.5886  152.8194 C   0  0  0  0  0  0  0  0  0  0  0  0
  146.8013  140.7353  153.0221 C   0  0  0  0  0  0  0  0  0  0  0  0
  147.1520  141.7137  153.9751 C   0  0  0  0  0  0  0  0  0  0  0  0
  148.3123  141.5867  154.7673 C   0  0  0  0  0  0  0  0  0  0  0  0
  149.0924  140.4495  154.5609 C   0  0  0  0  0  0  0  0  0  0  0  0
  151.6497  145.2097  160.2676 H   0  0  0  0  0  0  0  0  0  0  0  0
  150.2228  144.5436  159.4740 H   0  0  0  0  0  0  0  0  0  0  0  0
  151.7104  144.7974  158.5517 H   0  0  0  0  0  0  0  0  0  0  0  0
  153.0023  143.7138  161.5167 H   0  0  0  0  0  0  0  0  0  0  0  0
  153.7604  141.4224  162.0808 H   0  0  0  0  0  0  0  0  0  0  0  0
  152.9603  139.4840  160.7459 H   0  0  0  0  0  0  0  0  0  0  0  0
  151.4220  139.8161  158.8675 H   0  0  0  0  0  0  0  0  0  0  0  0
  149.7427  140.3156  157.9609 H   0  0  0  0  0  0  0  0  0  0  0  0
  148.9536  141.4502  156.8562 H   0  0  0  0  0  0  0  0  0  0  0  0
  151.3169  141.6983  155.7450 H   0  0  0  0  0  0  0  0  0  0  0  0
  151.7559  140.2463  156.6100 H   0  0  0  0  0  0  0  0  0  0  0  0
  151.9267  137.1642  154.2632 H   0  0  0  0  0  0  0  0  0  0  0  0
  150.8765  136.7630  156.4617 H   0  0  0  0  0  0  0  0  0  0  0  0
  151.6918  138.1663  157.1458 H   0  0  0  0  0  0  0  0  0  0  0  0
  152.6282  136.7775  156.6066 H   0  0  0  0  0  0  0  0  0  0  0  0
  153.0593  139.6290  154.3159 H   0  0  0  0  0  0  0  0  0  0  0  0
  155.1078  139.0871  154.9970 H   0  0  0  0  0  0  0  0  0  0  0  0
  147.3266  138.8406  152.0886 H   0  0  0  0  0  0  0  0  0  0  0  0
  145.9039  140.8668  152.4349 H   0  0  0  0  0  0  0  0  0  0  0  0
  146.5182  142.5795  154.1019 H   0  0  0  0  0  0  0  0  0  0  0  0
  148.5726  142.3421  155.4942 H   0  0  0  0  0  0  0  0  0  0  0  0
  149.7526  137.6442  153.0931 H   0  0  0  0  0  0  0  0  0  0  0  0
  1  2  1  0  0  0  0
  1 25  1  0  0  0  0
  1 26  1  0  0  0  0
  1 27  1  0  0  0  0
  2  7  1  0  0  0  0
  2  3  2  0  0  0  0
  3  4  1  0  0  0  0
  3 28  1  0  0  0  0
  4  5  2  0  0  0  0
  4 29  1  0  0  0  0
  5  6  1  0  0  0  0
  5 30  1  0  0  0  0
  6  7  2  0  0  0  0
  6 31  1  0  0  0  0
  7  8  1  0  0  0  0
  8  9  1  0  0  0  0
  9 10  1  0  0  0  0
  9 32  1  0  0  0  0
  9 33  1  0  0  0  0
 10 11  1  0  0  0  0
 10 34  1  0  0  0  0
 10 35  1  0  0  0  0
 11 24  1  0  0  0  0
 11 12  1  0  0  0  0
 12 13  1  0  0  0  0
 12 18  2  0  0  0  0
 13 14  1  0  0  0  0
 13 15  1  0  0  0  0
 13 36  1  0  0  0  0
 14 37  1  0  0  0  0
 14 38  1  0  0  0  0
 14 39  1  0  0  0  0
 15 16  1  0  0  0  0
 15 40  1  0  0  0  0
 16 17  2  0  0  0  0
 16 41  1  0  0  0  0
 18 19  1  0  0  0  0
 18 46  1  0  0  0  0
 19 24  2  0  0  0  0
 19 20  1  0  0  0  0
 20 21  2  0  0  0  0
 20 42  1  0  0  0  0
 21 22  1  0  0  0  0
 21 43  1  0  0  0  0
 22 23  2  0  0  0  0
 22 44  1  0  0  0  0
 23 24  1  0  0  0  0
 23 45  1  0  0  0  0
M  CHG  1  18   1
M  END
> <s_m_source_file>
AV-unprocessed.smi

> <i_m_source_file_index>
2953

> <i_lp_mmshare_version>
43012

> <i_f3d_flags>
0

> <s_epik_input>
W0NIM11jMVtjSF1bY0hdW2NIXVtjSF1jMU9bQ0gyXVtDSDJdbihjKG4yKVtDQEhdKFtDSDNdKVtOSF1bQ0hdPU8pYyhjMjMpW2NIXVtjSF1bY0hdW2NIXTM=

> <s_epik_cmdline>
J2VwaWtfcHl0aG9uJywgJy1waCcsICc3LjAnLCAnLXRuJywgJzgnLCAnLW1hJywgJzIwMCcsICctbWV0YWxfYmluZGluZycsICctaW1hZScsICc8aW5maWxlLm1hZT4nLCAnLW9tYWUnLCAnPG91dGZpbGUubWFlPic=

> <r_lp_tautomer_probability>
1

> <r_epik_Ionization_Penalty>
1.14644

> <r_epik_Ionization_Penalty_Charging>
1.14644

> <r_epik_Ionization_Penalty_Neutral>
5.5802e-08

> <r_epik_State_Penalty>
1.20743

> <r_epik_Charging_Adjusted_Penalty>
2.35387

> <i_epik_Tot_Q>
1

> <i_epik_Tot_abs_Q>
1

> <r_epik_Metal_State_Penalty>
1.28856

> <b_epik_Metal_Only>
0

> <s_lp_Force_Field>
OPLS_2005

> <r_lp_Energy>
18.7543

> <b_lp_Chiralities_Consistent>
1

> <s_lp_Variant>
AV-unprocessed.smi:2953-3

> <Gold.Version>
5.8.1

> <Gold.Id.Protein>
6NUR|6NUR_protein|mol2

> <Gold.PLP.Fitness>
54.9112

> <Gold.PLP.PLP>
-49.6758

> <Gold.PLP.part.hbond>
-3.4646

> <Gold.PLP.part.metal>
0.0000

> <Gold.PLP.part.buried>
8.2937

> <Gold.PLP.part.nonpolar>
-54.0040

> <Gold.PLP.part.repulsive>
0.4346

> <Gold.PLP.ligand.clash>
0.0000

> <Gold.PLP.ligand.torsion>
0.5799

> <Gold.PLP.Chemscore.Hbond>
2.0853

> <Gold.PLP.Chemscore.CHOScore>
0.0000

> <Gold.PLP.Chemscore.Metal>
0.0000

> <Gold.Chemscore.Hbonds>
donor molecule, donor type, donor heavy atom, donor atom, acceptor molecule, acceptor atom, score
      L1  H    18    46       P1  7948  2.00
      P1  H 10752 10763       L1    17  0.13

> <Gold.PLP.Chemscore.Internal.Correction>
0.1394

> <Gold.Rescore>
     Score         DG    S(hbond)    S(metal)    S(lipo)     H(rot)  DE(clash)    DE(int)     intcor
     14.85     -18.36       0.93        0.00     134.34       2.32       1.08       2.44       ----

> <Gold.Chemscore.Fitness>
14.8457

> <Gold.Chemscore.DG>
-18.3635

> <Gold.Chemscore.ZeroCoef>
-5.4800

> <Gold.Chemscore.Hbond>
0.9312

> <Gold.Chemscore.Metal>
0.0000

> <Gold.Chemscore.Lipo>
134.3439

> <Gold.Chemscore.Internal_Hbond>
0.0000

> <Gold.Chemscore.DEClash>
1.0778

> <Gold.Chemscore.DEInternal>
2.4399

> <Gold.Chemscore.Rot>
2.3223

> <Gold.Chemscore.Internal.Correction>
   9.000000E+99

> <Gold.Chemscore.Hbonds>
donor molecule, donor type, donor heavy atom, donor atom, acceptor molecule, acceptor atom, score
      L1  H    18    46       P1  7948  0.57
      P1  H 10752 10763       L1    17  0.14

> <Gold.Chemscore.Hbond.Weighted>
-3.1103

> <Gold.Chemscore.Metal.Weighted>
-0.0000

> <Gold.Chemscore.Lipo.Weighted>
-15.7182

> <Gold.Chemscore.Internal_Hbond.Weighted>
0.0000

> <Gold.Chemscore.DEClash.Weighted>
1.0778

> <Gold.Chemscore.DEInternal.Weighted>
2.4399

> <Gold.Chemscore.Rot.Weighted>
5.9450

> <Gold.Chemscore.Internal.Correction.Weighted>
   9.000000E+99

> <Gold.Protein.RotatedTorsions>
[ 6907 6896 6895 6894 ] final  131.22 input  -60.11 | X-H torsion
[ 7974 7965 7964 7962 ] final    2.09 input  175.53 | X-H torsion
[ 8008 7997 7996 7995 ] final  116.87 input   59.86 | X-H torsion
[ 10167 10162 10161 10158 ] final  -38.80 input  -65.29 | X-H torsion
[ 10718 10713 10712 10709 ] final  134.44 input   66.30 | X-H torsion
[ 10763 10752 10751 10750 ] final -169.23 input  -60.55 | X-H torsion
[ 11005 11000 10999 10996 ] final   55.85 input  -57.11 | X-H torsion

> <Gold.Protein.ActiveResidues>
 VAL166  LYS551  ARG553  GLY616  TRP617  ASP618  TYR619  PRO620  LYS621  CYS622 
 ASP623  PHE694  ASN695  SER759  ASP760  ASP761  ALA762  ILE779  LEU786  VAL792 
 PHE793  MET794  SER795  GLU796  ALA797  LYS798  CYS799  TRP800  GLU811  SER814 

> <Gold.Protein.RotatedAtoms>
  152.3448  133.6109  159.5902 H   0  0  0  0  0  0  0  0  0  0  0  0  # atno 6907 bound_to 6896
  150.7501  133.9666  159.3541 H   0  0  0  0  0  0  0  0  0  0  0  0  # atno 6908 bound_to 6896
  151.7525  135.0830  160.0384 H   0  0  0  0  0  0  0  0  0  0  0  0  # atno 6909 bound_to 6896
  146.2443  140.0889  142.8353 H   0  0  0  0  0  0  0  0  0  0  0  0  # atno 7974 bound_to 7965
  156.2463  140.2908  156.0590 H   0  0  0  0  0  0  0  0  0  0  0  0  # atno 8008 bound_to 7997
  155.1797  140.0404  157.2897 H   0  0  0  0  0  0  0  0  0  0  0  0  # atno 8009 bound_to 7997
  154.6268  140.2489  155.7489 H   0  0  0  0  0  0  0  0  0  0  0  0  # atno 8010 bound_to 7997
  140.7082  143.3254  151.2692 H   0  0  0  0  0  0  0  0  0  0  0  0  # atno 10167 bound_to 10162
  157.4672  131.1077  150.9847 H   0  0  0  0  0  0  0  0  0  0  0  0  # atno 10718 bound_to 10713
  154.6544  135.2916  154.9946 H   0  0  0  0  0  0  0  0  0  0  0  0  # atno 10763 bound_to 10752
  154.1027  135.6574  153.4875 H   0  0  0  0  0  0  0  0  0  0  0  0  # atno 10764 bound_to 10752
  153.0394  135.5246  154.7467 H   0  0  0  0  0  0  0  0  0  0  0  0  # atno 10765 bound_to 10752
  140.0575  134.5650  155.9191 H   0  0  0  0  0  0  0  0  0  0  0  0  # atno 11005 bound_to 11000
  145.0668  140.9127  143.4906 LP  0  0  0  0  0  0  0  0  0  0  0  0  # atno 17320 bound_to 7965
  145.1015  139.2819  143.5684 LP  0  0  0  0  0  0  0  0  0  0  0  0  # atno 17321 bound_to 7965
  139.6721  144.0002  152.2759 LP  0  0  0  0  0  0  0  0  0  0  0  0  # atno 17342 bound_to 10162
  139.9604  144.6561  150.8085 LP  0  0  0  0  0  0  0  0  0  0  0  0  # atno 17343 bound_to 10162
  157.0624  130.5831  149.5388 LP  0  0  0  0  0  0  0  0  0  0  0  0  # atno 17370 bound_to 10713
  156.0056  130.5142  150.7818 LP  0  0  0  0  0  0  0  0  0  0  0  0  # atno 17371 bound_to 10713
  141.1958  133.6589  156.5662 LP  0  0  0  0  0  0  0  0  0  0  0  0  # atno 17394 bound_to 11000
  140.3822  134.7513  157.4668 LP  0  0  0  0  0  0  0  0  0  0  0  0  # atno 17395 bound_to 11000

$$$$
