AV-unprocessed.smi:2018|AV-procd|sdf|8169|dock2
  -GOLD-   2272010413D 1   1.00000     0.00000
 Structure written by MMmdl.
 35 36  0  0  0  0  0  0  0  0  1 V2000
  152.7658  142.3998  161.9369 C   0  0  0  0  0  0  0  0  0  0  0  0
  152.3990  142.2991  160.4960 C   0  0  0  0  0  0  0  0  0  0  0  0
  152.2729  141.1399  159.8450 N   0  0  0  0  0  0  0  0  0  0  0  0
  151.9225  141.3122  158.5019 C   0  0  0  0  0  0  0  0  0  0  0  0
  151.7395  140.1177  157.6161 C   0  0  0  0  0  0  0  0  0  0  0  0
  151.3069  140.5086  156.1933 C   0  0  0  0  0  0  0  0  0  0  0  0
  149.9757  141.1037  156.1824 N   0  0  0  0  0  0  0  0  0  0  0  0
  149.2672  141.3970  155.0766 C   0  0  0  0  0  0  0  0  0  0  0  0
  149.6824  141.1762  153.9385 O   0  0  0  0  0  0  0  0  0  0  0  0
  147.9352  142.0206  155.3005 C   0  0  0  0  0  0  0  0  0  0  0  0
  147.4250  142.0518  156.4919 N   0  0  0  0  0  0  0  0  0  0  0  0
  146.2014  142.6354  156.7506 N   0  0  0  0  0  0  0  0  0  0  0  0
  145.8999  142.8263  158.1680 C   0  0  0  0  0  0  0  0  0  0  0  0
  145.3028  142.9965  155.8010 C   0  0  0  0  0  0  0  0  0  0  0  0
  144.2230  143.5327  156.0494 O   0  0  0  0  0  0  0  0  0  0  0  0
  145.6753  142.6746  154.3509 C   0  0  0  0  0  0  0  0  0  0  0  0
  147.2011  142.6479  154.1315 C   0  0  0  0  0  0  0  0  0  0  0  0
  151.7868  142.6300  158.1430 C   0  0  0  0  0  0  0  0  0  0  0  0
  152.0929  143.7030  159.4809 S   0  0  0  0  0  0  0  0  0  0  0  0
  152.6823  141.4273  162.4232 H   0  0  0  0  0  0  0  0  0  0  0  0
  152.1019  143.1007  162.4432 H   0  0  0  0  0  0  0  0  0  0  0  0
  153.7917  142.7540  162.0356 H   0  0  0  0  0  0  0  0  0  0  0  0
  152.6673  139.5458  157.5694 H   0  0  0  0  0  0  0  0  0  0  0  0
  150.9990  139.4470  158.0539 H   0  0  0  0  0  0  0  0  0  0  0  0
  152.0285  141.1964  155.7492 H   0  0  0  0  0  0  0  0  0  0  0  0
  151.2863  139.6253  155.5541 H   0  0  0  0  0  0  0  0  0  0  0  0
  149.5624  141.3166  157.0791 H   0  0  0  0  0  0  0  0  0  0  0  0
  144.9943  142.2852  158.4463 H   0  0  0  0  0  0  0  0  0  0  0  0
  145.7467  143.8840  158.3876 H   0  0  0  0  0  0  0  0  0  0  0  0
  146.7073  142.4706  158.8104 H   0  0  0  0  0  0  0  0  0  0  0  0
  145.2535  141.6971  154.1141 H   0  0  0  0  0  0  0  0  0  0  0  0
  145.2072  143.3911  153.6750 H   0  0  0  0  0  0  0  0  0  0  0  0
  147.5724  143.6617  153.9772 H   0  0  0  0  0  0  0  0  0  0  0  0
  147.4059  142.1022  153.2096 H   0  0  0  0  0  0  0  0  0  0  0  0
  151.5269  143.0326  157.1751 H   0  0  0  0  0  0  0  0  0  0  0  0
  1  2  1  0  0  0  0
  1 20  1  0  0  0  0
  1 21  1  0  0  0  0
  1 22  1  0  0  0  0
  2 19  1  0  0  0  0
  2  3  2  0  0  0  0
  3  4  1  0  0  0  0
  4  5  1  0  0  0  0
  4 18  2  0  0  0  0
  5  6  1  0  0  0  0
  5 23  1  0  0  0  0
  5 24  1  0  0  0  0
  6  7  1  0  0  0  0
  6 25  1  0  0  0  0
  6 26  1  0  0  0  0
  7  8  1  0  0  0  0
  7 27  1  0  0  0  0
  8  9  2  0  0  0  0
  8 10  1  0  0  0  0
 10 17  1  0  0  0  0
 10 11  2  0  0  0  0
 11 12  1  0  0  0  0
 12 13  1  0  0  0  0
 12 14  1  0  0  0  0
 13 28  1  0  0  0  0
 13 29  1  0  0  0  0
 13 30  1  0  0  0  0
 14 15  2  0  0  0  0
 14 16  1  0  0  0  0
 16 17  1  0  0  0  0
 16 31  1  0  0  0  0
 16 32  1  0  0  0  0
 17 33  1  0  0  0  0
 17 34  1  0  0  0  0
 18 19  1  0  0  0  0
 18 35  1  0  0  0  0
M  END
> <s_m_source_file>
AV-unprocessed.smi

> <i_m_source_file_index>
2018

> <i_lp_mmshare_version>
43012

> <i_f3d_flags>
0

> <s_epik_input>
W0NIM11jMW5jKFtjSF1zMSlbQ0gyXVtDSDJdW05IXUMoPU8pQzI9Tk4oW0NIM10pQyg9TylbQ0gyXVtDSDJdMg==

> <s_epik_cmdline>
J2VwaWtfcHl0aG9uJywgJy1waCcsICc3LjAnLCAnLXRuJywgJzgnLCAnLW1hJywgJzIwMCcsICctbWV0YWxfYmluZGluZycsICctaW1hZScsICc8aW5maWxlLm1hZT4nLCAnLW9tYWUnLCAnPG91dGZpbGUubWFlPic=

> <r_epik_Ionization_Penalty>
0.000694267

> <r_epik_Ionization_Penalty_Charging>
0

> <r_epik_Ionization_Penalty_Neutral>
0.000694267

> <r_epik_State_Penalty>
0.000389372

> <r_epik_Charging_Adjusted_Penalty>
0.000389372

> <i_epik_Tot_Q>
0

> <i_epik_Tot_abs_Q>
0

> <r_epik_Metal_State_Penalty>
0.0645979

> <b_epik_Metal_Only>
0

> <s_epik_Chemistry_Notes>
This compound has an imine and may undergo hydrolysis.

> <s_lp_Force_Field>
OPLS_2005

> <r_lp_Energy>
11.1599

> <b_lp_Chiralities_Consistent>
1

> <s_lp_Variant>
AV-unprocessed.smi:2018-1

> <Gold.Version>
5.8.1

> <Gold.Id.Protein>
6NUR|6NUR_protein|mol2

> <Gold.PLP.Fitness>
39.0354

> <Gold.PLP.PLP>
-35.6654

> <Gold.PLP.part.hbond>
-2.0000

> <Gold.PLP.part.metal>
0.0000

> <Gold.PLP.part.buried>
-2.8814

> <Gold.PLP.part.nonpolar>
-31.9381

> <Gold.PLP.part.repulsive>
1.5151

> <Gold.PLP.ligand.clash>
0.0000

> <Gold.PLP.ligand.torsion>
0.1128

> <Gold.PLP.Chemscore.Hbond>
1.1926

> <Gold.PLP.Chemscore.CHOScore>
0.0000

> <Gold.PLP.Chemscore.Metal>
0.0000

> <Gold.Chemscore.Hbonds>
donor molecule, donor type, donor heavy atom, donor atom, acceptor molecule, acceptor atom, score
      P1  H  7989  7998       L1     9  0.34
      P1  H  8011  8017       L1     9  0.82

> <Gold.PLP.Chemscore.Internal.Correction>
0.0178

> <Gold.Rescore>
     Score         DG    S(hbond)    S(metal)    S(lipo)     H(rot)  DE(clash)    DE(int)     intcor
     14.80     -15.61       1.12        0.00      86.21       1.45       0.63       0.17       ----

> <Gold.Chemscore.Fitness>
14.8047

> <Gold.Chemscore.DG>
-15.6077

> <Gold.Chemscore.ZeroCoef>
-5.4800

> <Gold.Chemscore.Hbond>
1.1221

> <Gold.Chemscore.Metal>
0.0000

> <Gold.Chemscore.Lipo>
86.2127

> <Gold.Chemscore.Internal_Hbond>
0.0000

> <Gold.Chemscore.DEClash>
0.6304

> <Gold.Chemscore.DEInternal>
0.1726

> <Gold.Chemscore.Rot>
1.4480

> <Gold.Chemscore.Internal.Correction>
   9.000000E+99

> <Gold.Chemscore.Hbonds>
donor molecule, donor type, donor heavy atom, donor atom, acceptor molecule, acceptor atom, score
      P1  H  7989  7998       L1     9  0.33
      P1  H  8011  8017       L1     9  0.76

> <Gold.Chemscore.Hbond.Weighted>
-3.7477

> <Gold.Chemscore.Metal.Weighted>
-0.0000

> <Gold.Chemscore.Lipo.Weighted>
-10.0869

> <Gold.Chemscore.Internal_Hbond.Weighted>
0.0000

> <Gold.Chemscore.DEClash.Weighted>
0.6304

> <Gold.Chemscore.DEInternal.Weighted>
0.1726

> <Gold.Chemscore.Rot.Weighted>
3.7070

> <Gold.Chemscore.Internal.Correction.Weighted>
   9.000000E+99

> <Gold.Protein.RotatedTorsions>
[ 6907 6896 6895 6894 ] final   -4.34 input  -60.11 | X-H torsion
[ 7974 7965 7964 7962 ] final   34.12 input  175.53 | X-H torsion
[ 8008 7997 7996 7995 ] final  -34.11 input   59.86 | X-H torsion
[ 10167 10162 10161 10158 ] final  -40.21 input  -65.29 | X-H torsion
[ 10718 10713 10712 10709 ] final   59.30 input   66.30 | X-H torsion
[ 10763 10752 10751 10750 ] final   61.91 input  -60.55 | X-H torsion
[ 11005 11000 10999 10996 ] final   66.50 input  -57.11 | X-H torsion

> <Gold.Protein.ActiveResidues>
 VAL166  LYS551  ARG553  GLY616  TRP617  ASP618  TYR619  PRO620  LYS621  CYS622 
 ASP623  PHE694  ASN695  SER759  ASP760  ASP761  ALA762  ILE779  LEU786  VAL792 
 PHE793  MET794  SER795  GLU796  ALA797  LYS798  CYS799  TRP800  GLU811  SER814 

> <Gold.Protein.RotatedAtoms>
  151.4993  135.1061  159.9824 H   0  0  0  0  0  0  0  0  0  0  0  0  # atno 6907 bound_to 6896
  152.4708  133.8022  159.6969 H   0  0  0  0  0  0  0  0  0  0  0  0  # atno 6908 bound_to 6896
  150.8717  133.7433  159.2985 H   0  0  0  0  0  0  0  0  0  0  0  0  # atno 6909 bound_to 6896
  146.1374  139.6309  142.9186 H   0  0  0  0  0  0  0  0  0  0  0  0  # atno 7974 bound_to 7965
  154.4130  140.1692  156.1997 H   0  0  0  0  0  0  0  0  0  0  0  0  # atno 8008 bound_to 7997
  155.9534  140.3399  155.6404 H   0  0  0  0  0  0  0  0  0  0  0  0  # atno 8009 bound_to 7997
  155.6840  140.0726  157.2464 H   0  0  0  0  0  0  0  0  0  0  0  0  # atno 8010 bound_to 7997
  140.7041  143.3167  151.2891 H   0  0  0  0  0  0  0  0  0  0  0  0  # atno 10167 bound_to 10162
  157.5664  130.8874  149.9195 H   0  0  0  0  0  0  0  0  0  0  0  0  # atno 10718 bound_to 10713
  152.9965  135.5484  154.6109 H   0  0  0  0  0  0  0  0  0  0  0  0  # atno 10763 bound_to 10752
  154.5430  135.2821  155.1080 H   0  0  0  0  0  0  0  0  0  0  0  0  # atno 10764 bound_to 10752
  154.2350  135.6426  153.5241 H   0  0  0  0  0  0  0  0  0  0  0  0  # atno 10765 bound_to 10752
  139.9828  134.6717  156.0231 H   0  0  0  0  0  0  0  0  0  0  0  0  # atno 11005 bound_to 11000
  145.5124  141.0435  143.2480 LP  0  0  0  0  0  0  0  0  0  0  0  0  # atno 17320 bound_to 7965
  144.7755  139.6640  143.7177 LP  0  0  0  0  0  0  0  0  0  0  0  0  # atno 17321 bound_to 7965
  139.6608  144.0192  152.2691 LP  0  0  0  0  0  0  0  0  0  0  0  0  # atno 17342 bound_to 10162
  139.9759  144.6462  150.7945 LP  0  0  0  0  0  0  0  0  0  0  0  0  # atno 17343 bound_to 10162
  156.0712  130.3685  150.0771 LP  0  0  0  0  0  0  0  0  0  0  0  0  # atno 17370 bound_to 10713
  156.8929  130.9594  151.3586 LP  0  0  0  0  0  0  0  0  0  0  0  0  # atno 17371 bound_to 10713
  141.1497  133.6550  156.3976 LP  0  0  0  0  0  0  0  0  0  0  0  0  # atno 17394 bound_to 11000
  140.5063  134.6438  157.5267 LP  0  0  0  0  0  0  0  0  0  0  0  0  # atno 17395 bound_to 11000

$$$$
