AV-unprocessed.smi:780|AV-procd|sdf|3706|dock5
  -GOLD-   22720 1133D 1   1.00000     0.00000
 Structure written by MMmdl.
 48 49  0  0  0  0  0  0  0  0  1 V2000
  151.8732  145.5929  159.9869 C   0  0  0  0  0  0  0  0  0  0  0  0
  152.1760  144.1131  159.8740 C   0  0  0  0  0  0  0  0  0  0  0  0
  151.8215  143.3756  158.6796 C   0  0  0  0  0  0  0  0  0  0  0  0
  152.0965  142.0636  158.6162 C   0  0  0  0  0  0  0  0  0  0  0  0
  152.7193  141.3813  159.6775 N   0  0  0  0  0  0  0  0  0  0  0  0
  152.9145  139.9277  159.5134 C   0  0  0  0  0  0  0  0  0  0  0  0
  152.3701  139.3587  158.1900 C   0  0  0  0  0  0  0  0  0  0  0  0
  152.9679  139.5887  157.1398 O   0  0  0  0  0  0  0  0  0  0  0  0
  151.2403  138.6380  158.2410 N   0  0  0  0  0  0  0  0  0  0  0  0
  150.5322  138.0629  157.1079 C   0  0  0  0  0  0  0  0  0  0  0  0
  149.1903  137.4681  157.5663 C   0  0  0  0  0  0  0  0  0  0  0  0
  149.2144  136.9379  159.0092 C   0  0  0  0  0  0  0  0  0  0  0  0
  148.2371  135.9173  159.1445 O   0  0  0  0  0  0  0  0  0  0  0  0
  148.1248  135.3853  160.4590 C   0  0  0  0  0  0  0  0  0  0  0  0
  147.1161  134.2161  160.4993 C   0  0  0  0  0  0  0  0  0  0  0  0
  146.8867  133.7211  161.9364 C   0  0  0  0  0  0  0  0  0  0  0  0
  146.4398  134.8663  162.8585 C   0  0  0  0  0  0  0  0  0  0  0  0
  147.4395  136.0329  162.8196 C   0  0  0  0  0  0  0  0  0  0  0  0
  147.6605  136.5267  161.3808 C   0  0  0  0  0  0  0  0  0  0  0  0
  153.0844  142.0203  160.8299 C   0  0  0  0  0  0  0  0  0  0  0  0
  153.6186  141.4271  161.7669 O   0  0  0  0  0  0  0  0  0  0  0  0
  152.7804  143.4549  160.8875 C   0  0  0  0  0  0  0  0  0  0  0  0
  151.1914  145.9150  159.1994 H   0  0  0  0  0  0  0  0  0  0  0  0
  152.7918  146.1743  159.9039 H   0  0  0  0  0  0  0  0  0  0  0  0
  151.4082  145.8165  160.9478 H   0  0  0  0  0  0  0  0  0  0  0  0
  151.3375  143.8702  157.8502 H   0  0  0  0  0  0  0  0  0  0  0  0
  151.8500  141.4528  157.7597 H   0  0  0  0  0  0  0  0  0  0  0  0
  153.9777  139.6898  159.5723 H   0  0  0  0  0  0  0  0  0  0  0  0
  152.4583  139.3802  160.3399 H   0  0  0  0  0  0  0  0  0  0  0  0
  150.8196  138.4976  159.1479 H   0  0  0  0  0  0  0  0  0  0  0  0
  150.3660  138.8351  156.3554 H   0  0  0  0  0  0  0  0  0  0  0  0
  151.1454  137.2874  156.6465 H   0  0  0  0  0  0  0  0  0  0  0  0
  148.4093  138.2230  157.4718 H   0  0  0  0  0  0  0  0  0  0  0  0
  148.9121  136.6570  156.8920 H   0  0  0  0  0  0  0  0  0  0  0  0
  150.2014  136.5430  159.2472 H   0  0  0  0  0  0  0  0  0  0  0  0
  149.0097  137.7478  159.7108 H   0  0  0  0  0  0  0  0  0  0  0  0
  149.1022  135.0427  160.8044 H   0  0  0  0  0  0  0  0  0  0  0  0
  146.1664  134.5361  160.0687 H   0  0  0  0  0  0  0  0  0  0  0  0
  147.4636  133.3821  159.8913 H   0  0  0  0  0  0  0  0  0  0  0  0
  146.1388  132.9278  161.9408 H   0  0  0  0  0  0  0  0  0  0  0  0
  147.8072  133.2799  162.3210 H   0  0  0  0  0  0  0  0  0  0  0  0
  145.4546  135.2192  162.5512 H   0  0  0  0  0  0  0  0  0  0  0  0
  146.3329  134.5014  163.8804 H   0  0  0  0  0  0  0  0  0  0  0  0
  147.0789  136.8516  163.4428 H   0  0  0  0  0  0  0  0  0  0  0  0
  148.3912  135.7144  163.2469 H   0  0  0  0  0  0  0  0  0  0  0  0
  148.3966  137.3312  161.3753 H   0  0  0  0  0  0  0  0  0  0  0  0
  146.7329  136.9546  160.9975 H   0  0  0  0  0  0  0  0  0  0  0  0
  153.0476  143.9998  161.7816 H   0  0  0  0  0  0  0  0  0  0  0  0
  1  2  1  0  0  0  0
  1 23  1  0  0  0  0
  1 24  1  0  0  0  0
  1 25  1  0  0  0  0
  2 22  2  0  0  0  0
  2  3  1  0  0  0  0
  3  4  2  0  0  0  0
  3 26  1  0  0  0  0
  4  5  1  0  0  0  0
  4 27  1  0  0  0  0
  5  6  1  0  0  0  0
  5 20  1  0  0  0  0
  6  7  1  0  0  0  0
  6 28  1  0  0  0  0
  6 29  1  0  0  0  0
  7  8  2  0  0  0  0
  7  9  1  0  0  0  0
  9 10  1  0  0  0  0
  9 30  1  0  0  0  0
 10 11  1  0  0  0  0
 10 31  1  0  0  0  0
 10 32  1  0  0  0  0
 11 12  1  0  0  0  0
 11 33  1  0  0  0  0
 11 34  1  0  0  0  0
 12 13  1  0  0  0  0
 12 35  1  0  0  0  0
 12 36  1  0  0  0  0
 13 14  1  0  0  0  0
 14 19  1  0  0  0  0
 14 15  1  0  0  0  0
 14 37  1  0  0  0  0
 15 16  1  0  0  0  0
 15 38  1  0  0  0  0
 15 39  1  0  0  0  0
 16 17  1  0  0  0  0
 16 40  1  0  0  0  0
 16 41  1  0  0  0  0
 17 18  1  0  0  0  0
 17 42  1  0  0  0  0
 17 43  1  0  0  0  0
 18 19  1  0  0  0  0
 18 44  1  0  0  0  0
 18 45  1  0  0  0  0
 19 46  1  0  0  0  0
 19 47  1  0  0  0  0
 20 21  2  0  0  0  0
 20 22  1  0  0  0  0
 22 48  1  0  0  0  0
M  END
> <s_m_source_file>
AV-unprocessed.smi

> <i_m_source_file_index>
780

> <i_lp_mmshare_version>
43012

> <i_f3d_flags>
0

> <s_epik_input>
W0NIM11jMVtjSF1bY0hdbihjKD1PKVtjSF0xKVtDSDJdQyg9TylbTkhdW0NIMl1bQ0gyXVtDSDJdT1tDSF0yW0NIMl1bQ0gyXVtDSDJdW0NIMl1bQ0gyXTI=

> <s_epik_cmdline>
J2VwaWtfcHl0aG9uJywgJy1waCcsICc3LjAnLCAnLXRuJywgJzgnLCAnLW1hJywgJzIwMCcsICctbWV0YWxfYmluZGluZycsICctaW1hZScsICc8aW5maWxlLm1hZT4nLCAnLW9tYWUnLCAnPG91dGZpbGUubWFlPic=

> <r_lp_tautomer_probability>
1

> <r_epik_Ionization_Penalty>
5.32667e-07

> <r_epik_Ionization_Penalty_Charging>
5.13386e-07

> <r_epik_Ionization_Penalty_Neutral>
1.92812e-08

> <r_epik_State_Penalty>
-0

> <r_epik_Charging_Adjusted_Penalty>
5.13386e-07

> <i_epik_Tot_Q>
0

> <i_epik_Tot_abs_Q>
0

> <r_epik_Metal_State_Penalty>
-0

> <b_epik_Metal_Only>
0

> <s_lp_Force_Field>
OPLS_2005

> <r_lp_Energy>
20.4059

> <b_lp_Chiralities_Consistent>
1

> <s_lp_Variant>
AV-unprocessed.smi:780-1

> <Gold.Version>
5.8.1

> <Gold.Id.Protein>
6NUR|6NUR_protein|mol2

> <Gold.PLP.Fitness>
51.2267

> <Gold.PLP.PLP>
-49.2320

> <Gold.PLP.part.hbond>
-0.9241

> <Gold.PLP.part.metal>
0.0000

> <Gold.PLP.part.buried>
-5.7085

> <Gold.PLP.part.nonpolar>
-41.9093

> <Gold.PLP.part.repulsive>
0.0661

> <Gold.PLP.ligand.clash>
0.0000

> <Gold.PLP.ligand.torsion>
0.5357

> <Gold.PLP.Chemscore.Hbond>
1.0000

> <Gold.PLP.Chemscore.CHOScore>
0.0000

> <Gold.PLP.Chemscore.Metal>
0.0000

> <Gold.Chemscore.Hbonds>
donor molecule, donor type, donor heavy atom, donor atom, acceptor molecule, acceptor atom, score
      P1  H  7997  8010       L1     8  1.00

> <Gold.PLP.Chemscore.Internal.Correction>
0.0661

> <Gold.Rescore>
     Score         DG    S(hbond)    S(metal)    S(lipo)     H(rot)  DE(clash)    DE(int)     intcor
     17.52     -18.13       1.00        0.00     122.67       1.97       0.00       0.61       ----

> <Gold.Chemscore.Fitness>
17.5188

> <Gold.Chemscore.DG>
-18.1296

> <Gold.Chemscore.ZeroCoef>
-5.4800

> <Gold.Chemscore.Hbond>
0.9980

> <Gold.Chemscore.Metal>
0.0000

> <Gold.Chemscore.Lipo>
122.6686

> <Gold.Chemscore.Internal_Hbond>
0.0000

> <Gold.Chemscore.DEClash>
0.0015

> <Gold.Chemscore.DEInternal>
0.6093

> <Gold.Chemscore.Rot>
1.9671

> <Gold.Chemscore.Internal.Correction>
   9.000000E+99

> <Gold.Chemscore.Hbonds>
donor molecule, donor type, donor heavy atom, donor atom, acceptor molecule, acceptor atom, score
      P1  H  7997  8010       L1     8  0.98

> <Gold.Chemscore.Hbond.Weighted>
-3.3332

> <Gold.Chemscore.Metal.Weighted>
-0.0000

> <Gold.Chemscore.Lipo.Weighted>
-14.3522

> <Gold.Chemscore.Internal_Hbond.Weighted>
0.0000

> <Gold.Chemscore.DEClash.Weighted>
0.0015

> <Gold.Chemscore.DEInternal.Weighted>
0.6093

> <Gold.Chemscore.Rot.Weighted>
5.0359

> <Gold.Chemscore.Internal.Correction.Weighted>
   9.000000E+99

> <Gold.Protein.RotatedTorsions>
[ 6907 6896 6895 6894 ] final   22.13 input  -60.11 | X-H torsion
[ 7974 7965 7964 7962 ] final   -5.32 input  175.53 | X-H torsion
[ 8008 7997 7996 7995 ] final   69.37 input   59.86 | X-H torsion
[ 10167 10162 10161 10158 ] final   36.10 input  -65.29 | X-H torsion
[ 10718 10713 10712 10709 ] final   25.38 input   66.30 | X-H torsion
[ 10763 10752 10751 10750 ] final  -24.59 input  -60.55 | X-H torsion
[ 11005 11000 10999 10996 ] final  -63.43 input  -57.11 | X-H torsion

> <Gold.Protein.ActiveResidues>
 VAL166  LYS551  ARG553  GLY616  TRP617  ASP618  TYR619  PRO620  LYS621  CYS622 
 ASP623  PHE694  ASN695  SER759  ASP760  ASP761  ALA762  ILE779  LEU786  VAL792 
 PHE793  MET794  SER795  GLU796  ALA797  LYS798  CYS799  TRP800  GLU811  SER814 

> <Gold.Protein.RotatedAtoms>
  151.9224  135.0292  160.0522 H   0  0  0  0  0  0  0  0  0  0  0  0  # atno 6907 bound_to 6896
  152.2188  133.4963  159.5159 H   0  0  0  0  0  0  0  0  0  0  0  0  # atno 6908 bound_to 6896
  150.6994  134.1286  159.4104 H   0  0  0  0  0  0  0  0  0  0  0  0  # atno 6909 bound_to 6896
  146.2355  140.2004  142.8333 H   0  0  0  0  0  0  0  0  0  0  0  0  # atno 7974 bound_to 7965
  155.7226  140.3493  155.5023 H   0  0  0  0  0  0  0  0  0  0  0  0  # atno 8008 bound_to 7997
  155.9256  140.1075  157.1194 H   0  0  0  0  0  0  0  0  0  0  0  0  # atno 8009 bound_to 7997
  154.4077  140.1241  156.4723 H   0  0  0  0  0  0  0  0  0  0  0  0  # atno 8010 bound_to 7997
  140.4160  144.1526  150.6143 H   0  0  0  0  0  0  0  0  0  0  0  0  # atno 10167 bound_to 10162
  157.1925  130.6853  149.6156 H   0  0  0  0  0  0  0  0  0  0  0  0  # atno 10718 bound_to 10713
  153.6862  135.6964  153.5103 H   0  0  0  0  0  0  0  0  0  0  0  0  # atno 10763 bound_to 10752
  153.2447  135.4294  155.0734 H   0  0  0  0  0  0  0  0  0  0  0  0  # atno 10764 bound_to 10752
  154.8386  135.3516  154.6404 H   0  0  0  0  0  0  0  0  0  0  0  0  # atno 10765 bound_to 10752
  141.1393  133.6652  156.5679 H   0  0  0  0  0  0  0  0  0  0  0  0  # atno 11005 bound_to 11000
  144.9786  140.8438  143.5411 LP  0  0  0  0  0  0  0  0  0  0  0  0  # atno 17320 bound_to 7965
  145.1995  139.2259  143.5200 LP  0  0  0  0  0  0  0  0  0  0  0  0  # atno 17321 bound_to 7965
  140.4586  143.2458  151.9250 LP  0  0  0  0  0  0  0  0  0  0  0  0  # atno 17342 bound_to 10162
  139.4782  144.5490  151.8414 LP  0  0  0  0  0  0  0  0  0  0  0  0  # atno 17343 bound_to 10162
  155.9710  130.4610  150.6092 LP  0  0  0  0  0  0  0  0  0  0  0  0  # atno 17370 bound_to 10713
  157.3846  131.0786  151.1447 LP  0  0  0  0  0  0  0  0  0  0  0  0  # atno 17371 bound_to 10713
  140.3936  134.7418  157.4737 LP  0  0  0  0  0  0  0  0  0  0  0  0  # atno 17394 bound_to 11000
  140.0548  134.6079  155.8818 LP  0  0  0  0  0  0  0  0  0  0  0  0  # atno 17395 bound_to 11000

$$$$
