AV-unprocessed.smi:2974|AV-procd|sdf|11353|dock10
  -GOLD-   2272016273D 1   1.00000     0.00000
 Structure written by MMmdl.
 27 28  0  0  0  0  0  0  0  0  3 V2000
  153.4392  138.4947  155.1428 O   0  0  0  0  0  0  0  0  0  0  0  0
  152.2354  138.3506  154.8363 C   0  0  0  0  0  0  0  0  0  0  0  0
  151.7844  137.2957  154.3368 O   0  5  0  0  0  0  0  0  0  0  0  0
  151.2883  139.4891  155.0764 C   0  0  0  0  0  0  0  0  0  0  0  0
  151.5501  140.4946  156.0356 C   0  0  0  0  0  0  0  0  0  0  0  0
  150.6239  141.5431  156.2205 C   0  0  0  0  0  0  0  0  0  0  0  0
  150.8943  142.5356  157.1725 N   0  0  0  0  0  0  0  0  0  0  0  0
  151.0766  142.0121  158.5205 C   0  0  0  0  0  0  0  0  0  0  0  0
  151.2428  143.1721  159.5177 C   0  0  0  0  0  0  0  0  0  0  0  0
  152.3235  144.0043  159.1057 O   0  0  0  0  0  0  0  0  0  0  0  0
  152.0990  144.5742  157.8193 C   0  0  0  0  0  0  0  0  0  0  0  0
  151.9567  143.4517  156.7765 C   0  0  0  0  0  0  0  0  0  0  0  0
  149.4472  141.5621  155.4349 C   0  0  0  0  0  0  0  0  0  0  0  0
  149.2334  140.5369  154.4925 C   0  0  0  0  0  0  0  0  0  0  0  0
  150.1481  139.5543  154.3511 N   0  3  0  0  0  0  0  0  0  0  0  0
  152.4543  140.4655  156.6275 H   0  0  0  0  0  0  0  0  0  0  0  0
  150.2181  141.3997  158.7996 H   0  0  0  0  0  0  0  0  0  0  0  0
  151.9573  141.3694  158.5533 H   0  0  0  0  0  0  0  0  0  0  0  0
  150.3252  143.7582  159.5899 H   0  0  0  0  0  0  0  0  0  0  0  0
  151.4527  142.7845  160.5147 H   0  0  0  0  0  0  0  0  0  0  0  0
  151.2074  145.2032  157.8386 H   0  0  0  0  0  0  0  0  0  0  0  0
  152.9393  145.2201  157.5651 H   0  0  0  0  0  0  0  0  0  0  0  0
  152.9000  142.9111  156.6871 H   0  0  0  0  0  0  0  0  0  0  0  0
  151.7330  143.8773  155.7974 H   0  0  0  0  0  0  0  0  0  0  0  0
  148.7170  142.3498  155.5494 H   0  0  0  0  0  0  0  0  0  0  0  0
  148.3661  140.4732  153.8521 H   0  0  0  0  0  0  0  0  0  0  0  0
  149.9796  138.8184  153.6642 H   0  0  0  0  0  0  0  0  0  0  0  0
  1  2  2  0  0  0  0
  2  3  1  0  0  0  0
  2  4  1  0  0  0  0
  4 15  1  0  0  0  0
  4  5  2  0  0  0  0
  5  6  1  0  0  0  0
  5 16  1  0  0  0  0
  6  7  1  0  0  0  0
  6 13  2  0  0  0  0
  7 12  1  0  0  0  0
  7  8  1  0  0  0  0
  8  9  1  0  0  0  0
  8 17  1  0  0  0  0
  8 18  1  0  0  0  0
  9 10  1  0  0  0  0
  9 19  1  0  0  0  0
  9 20  1  0  0  0  0
 10 11  1  0  0  0  0
 11 12  1  0  0  0  0
 11 21  1  0  0  0  0
 11 22  1  0  0  0  0
 12 23  1  0  0  0  0
 12 24  1  0  0  0  0
 13 14  1  0  0  0  0
 13 25  1  0  0  0  0
 14 15  2  0  0  0  0
 14 26  1  0  0  0  0
 15 27  1  0  0  0  0
M  CHG  1   3  -1
M  CHG  1  15   1
M  END
> <s_m_source_file>
AV-unprocessed.smi

> <i_m_source_file_index>
2974

> <i_lp_mmshare_version>
43012

> <i_f3d_flags>
0

> <s_epik_input>
Tz1DKFtPSF0pYzFbY0hdYyhbY0hdW2NIXW4xKU4yW0NIMl1bQ0gyXU9bQ0gyXVtDSDJdMg==

> <s_epik_cmdline>
J2VwaWtfcHl0aG9uJywgJy1waCcsICc3LjAnLCAnLXRuJywgJzgnLCAnLW1hJywgJzIwMCcsICctbWV0YWxfYmluZGluZycsICctaW1hZScsICc8aW5maWxlLm1hZT4nLCAnLW9tYWUnLCAnPG91dGZpbGUubWFlPic=

> <r_epik_Ionization_Penalty>
0.0248724

> <r_epik_Ionization_Penalty_Charging>
0.0248724

> <r_epik_Ionization_Penalty_Neutral>
3.18831e-12

> <r_epik_State_Penalty>
0.0202062

> <r_epik_Charging_Adjusted_Penalty>
0.0450787

> <i_epik_Tot_Q>
0

> <i_epik_Tot_abs_Q>
2

> <r_epik_Metal_State_Penalty>
2.1181

> <b_epik_Metal_Only>
0

> <s_lp_Force_Field>
OPLS_2005

> <r_lp_Energy>
18.0137

> <b_lp_Chiralities_Consistent>
1

> <s_lp_Variant>
AV-unprocessed.smi:2974-1

> <Gold.Version>
5.8.1

> <Gold.Id.Protein>
6NUR|6NUR_protein|mol2

> <Gold.PLP.Fitness>
40.7754

> <Gold.PLP.PLP>
-29.6059

> <Gold.PLP.part.hbond>
-2.4185

> <Gold.PLP.part.metal>
0.0000

> <Gold.PLP.part.buried>
-4.9609

> <Gold.PLP.part.nonpolar>
-22.9804

> <Gold.PLP.part.repulsive>
1.0585

> <Gold.PLP.ligand.clash>
0.0000

> <Gold.PLP.ligand.torsion>
0.3749

> <Gold.PLP.Chemscore.Hbond>
3.9360

> <Gold.PLP.Chemscore.CHOScore>
0.0000

> <Gold.PLP.Chemscore.Metal>
0.0000

> <Gold.Chemscore.Hbonds>
donor molecule, donor type, donor heavy atom, donor atom, acceptor molecule, acceptor atom, score
      P1  H  7997  8010       L1     1  1.46
      P1  H 10752 10765       L1     3  1.98

> <Gold.PLP.Chemscore.Internal.Correction>
0.1113

> <Gold.Rescore>
     Score         DG    S(hbond)    S(metal)    S(lipo)     H(rot)  DE(clash)    DE(int)     intcor
     15.96     -17.77       1.71        0.00      78.00       1.00       1.44       0.38       ----

> <Gold.Chemscore.Fitness>
15.9582

> <Gold.Chemscore.DG>
-17.7732

> <Gold.Chemscore.ZeroCoef>
-5.4800

> <Gold.Chemscore.Hbond>
1.7147

> <Gold.Chemscore.Metal>
0.0000

> <Gold.Chemscore.Lipo>
78.0010

> <Gold.Chemscore.Internal_Hbond>
0.0000

> <Gold.Chemscore.DEClash>
1.4381

> <Gold.Chemscore.DEInternal>
0.3769

> <Gold.Chemscore.Rot>
1.0000

> <Gold.Chemscore.Internal.Correction>
   9.000000E+99

> <Gold.Chemscore.Hbonds>
donor molecule, donor type, donor heavy atom, donor atom, acceptor molecule, acceptor atom, score
      P1  H  7997  8010       L1     1  0.71
      P1  H 10752 10765       L1     3  0.85

> <Gold.Chemscore.Hbond.Weighted>
-5.7270

> <Gold.Chemscore.Metal.Weighted>
-0.0000

> <Gold.Chemscore.Lipo.Weighted>
-9.1261

> <Gold.Chemscore.Internal_Hbond.Weighted>
0.0000

> <Gold.Chemscore.DEClash.Weighted>
1.4381

> <Gold.Chemscore.DEInternal.Weighted>
0.3769

> <Gold.Chemscore.Rot.Weighted>
2.5600

> <Gold.Chemscore.Internal.Correction.Weighted>
   9.000000E+99

> <Gold.Protein.RotatedTorsions>
[ 6907 6896 6895 6894 ] final  -46.34 input  -60.11 | X-H torsion
[ 7974 7965 7964 7962 ] final  131.65 input  175.53 | X-H torsion
[ 8008 7997 7996 7995 ] final  106.30 input   59.86 | X-H torsion
[ 10167 10162 10161 10158 ] final   48.51 input  -65.29 | X-H torsion
[ 10718 10713 10712 10709 ] final  -97.48 input   66.30 | X-H torsion
[ 10763 10752 10751 10750 ] final  149.41 input  -60.55 | X-H torsion
[ 11005 11000 10999 10996 ] final   82.70 input  -57.11 | X-H torsion

> <Gold.Protein.ActiveResidues>
 VAL166  LYS551  ARG553  GLY616  TRP617  ASP618  TYR619  PRO620  LYS621  CYS622 
 ASP623  PHE694  ASN695  SER759  ASP760  ASP761  ALA762  ILE779  LEU786  VAL792 
 PHE793  MET794  SER795  GLU796  ALA797  LYS798  CYS799  TRP800  GLU811  SER814 

> <Gold.Protein.RotatedAtoms>
  150.9123  134.8540  159.7433 H   0  0  0  0  0  0  0  0  0  0  0  0  # atno 6907 bound_to 6896
  152.4951  134.4340  159.9531 H   0  0  0  0  0  0  0  0  0  0  0  0  # atno 6908 bound_to 6896
  151.4382  133.3611  159.2813 H   0  0  0  0  0  0  0  0  0  0  0  0  # atno 6909 bound_to 6896
  145.0050  139.4275  143.5273 H   0  0  0  0  0  0  0  0  0  0  0  0  # atno 7974 bound_to 7965
  156.1731  140.3115  155.9010 H   0  0  0  0  0  0  0  0  0  0  0  0  # atno 8008 bound_to 7997
  155.3545  140.0473  157.3063 H   0  0  0  0  0  0  0  0  0  0  0  0  # atno 8009 bound_to 7997
  154.5262  140.2215  155.8897 H   0  0  0  0  0  0  0  0  0  0  0  0  # atno 8010 bound_to 7997
  140.2926  144.3028  150.6237 H   0  0  0  0  0  0  0  0  0  0  0  0  # atno 10167 bound_to 10162
  156.0084  130.5196  150.6380 H   0  0  0  0  0  0  0  0  0  0  0  0  # atno 10718 bound_to 10713
  154.0707  135.2867  155.3308 H   0  0  0  0  0  0  0  0  0  0  0  0  # atno 10763 bound_to 10752
  154.6748  135.5286  153.8189 H   0  0  0  0  0  0  0  0  0  0  0  0  # atno 10764 bound_to 10752
  153.0486  135.6567  154.0889 H   0  0  0  0  0  0  0  0  0  0  0  0  # atno 10765 bound_to 10752
  139.9055  134.8090  156.2209 H   0  0  0  0  0  0  0  0  0  0  0  0  # atno 11005 bound_to 11000
  146.3459  139.9461  142.8735 LP  0  0  0  0  0  0  0  0  0  0  0  0  # atno 17320 bound_to 7965
  145.2100  140.9891  143.4106 LP  0  0  0  0  0  0  0  0  0  0  0  0  # atno 17321 bound_to 7965
  140.5719  143.2180  151.7583 LP  0  0  0  0  0  0  0  0  0  0  0  0  # atno 17342 bound_to 10162
  139.4934  144.4204  151.9984 LP  0  0  0  0  0  0  0  0  0  0  0  0  # atno 17343 bound_to 10162
  157.4166  131.0831  151.1171 LP  0  0  0  0  0  0  0  0  0  0  0  0  # atno 17370 bound_to 10713
  157.1786  130.6299  149.5664 LP  0  0  0  0  0  0  0  0  0  0  0  0  # atno 17371 bound_to 10713
  141.0406  133.6940  156.1591 LP  0  0  0  0  0  0  0  0  0  0  0  0  # atno 17394 bound_to 11000
  140.6961  134.4614  157.5587 LP  0  0  0  0  0  0  0  0  0  0  0  0  # atno 17395 bound_to 11000

$$$$
