AV-unprocessed.smi:100|AV-procd|sdf|899|dock10
  -GOLD-   2262017393D 1   1.00000     0.00000
 Structure written by MMmdl.
 31 33  0  0  0  0  0  0  0  0  1 V2000
  148.3442  129.2537  154.5219 N   0  0  0  0  0  0  0  0  0  0  0  0
  147.4387  129.6734  153.6276 C   0  0  0  0  0  0  0  0  0  0  0  0
  146.5232  128.7851  153.1736 N   0  0  0  0  0  0  0  0  0  0  0  0
  145.6083  129.1789  152.2812 C   0  0  0  0  0  0  0  0  0  0  0  0
  145.4422  130.3850  151.7302 N   0  0  0  0  0  0  0  0  0  0  0  0
  146.3697  131.2763  152.1880 C   0  0  0  0  0  0  0  0  0  0  0  0
  147.3948  131.0018  153.1345 C   0  0  0  0  0  0  0  0  0  0  0  0
  148.1445  132.1482  153.3647 N   0  0  0  0  0  0  0  0  0  0  0  0
  147.5900  133.0464  152.5944 C   0  0  0  0  0  0  0  0  0  0  0  0
  146.5183  132.6034  151.8489 N   0  0  0  0  0  0  0  0  0  0  0  0
  145.6714  133.3692  150.8876 C   0  0  2  0  0  0  0  0  0  0  0  0
  146.1183  134.6922  150.9014 O   0  0  0  0  0  0  0  0  0  0  0  0
  144.9970  135.5628  150.9243 C   0  0  2  0  0  0  0  0  0  0  0  0
  145.3928  136.9565  151.4365 C   0  0  0  0  0  0  0  0  0  0  0  0
  146.1490  137.6410  150.4603 O   0  0  0  0  0  0  0  0  0  0  0  0
  143.9809  134.8044  151.7803 C   0  0  2  0  0  0  0  0  0  0  0  0
  144.2627  134.9328  153.0787 F   0  0  0  0  0  0  0  0  0  0  0  0
  144.2061  133.3600  151.3611 C   0  0  1  0  0  0  0  0  0  0  0  0
  143.3155  132.9990  150.3245 O   0  0  0  0  0  0  0  0  0  0  0  0
  149.0377  129.8974  154.8749 H   0  0  0  0  0  0  0  0  0  0  0  0
  148.3336  128.2951  154.8383 H   0  0  0  0  0  0  0  0  0  0  0  0
  144.9107  128.4187  151.9618 H   0  0  0  0  0  0  0  0  0  0  0  0
  147.9510  134.0638  152.5484 H   0  0  0  0  0  0  0  0  0  0  0  0
  145.8363  132.9077  149.9127 H   0  0  0  0  0  0  0  0  0  0  0  0
  144.6220  135.6402  149.9019 H   0  0  0  0  0  0  0  0  0  0  0  0
  144.5149  137.5457  151.7018 H   0  0  0  0  0  0  0  0  0  0  0  0
  145.9997  136.8639  152.3377 H   0  0  0  0  0  0  0  0  0  0  0  0
  145.5529  138.0762  149.8701 H   0  0  0  0  0  0  0  0  0  0  0  0
  142.9560  135.1499  151.6397 H   0  0  0  0  0  0  0  0  0  0  0  0
  144.0620  132.6671  152.1918 H   0  0  0  0  0  0  0  0  0  0  0  0
  142.5211  133.5015  150.4246 H   0  0  0  0  0  0  0  0  0  0  0  0
  1  2  1  0  0  0  0
  1 20  1  0  0  0  0
  1 21  1  0  0  0  0
  2  7  1  0  0  0  0
  2  3  2  0  0  0  0
  3  4  1  0  0  0  0
  4  5  2  0  0  0  0
  4 22  1  0  0  0  0
  5  6  1  0  0  0  0
  6 10  1  0  0  0  0
  6  7  2  0  0  0  0
  7  8  1  0  0  0  0
  8  9  2  0  0  0  0
  9 10  1  0  0  0  0
  9 23  1  0  0  0  0
 10 11  1  0  0  0  0
 11 18  1  0  0  0  0
 11 12  1  0  0  0  0
 11 24  1  0  0  0  0
 12 13  1  0  0  0  0
 13 14  1  0  0  0  0
 13 16  1  0  0  0  0
 13 25  1  0  0  0  0
 14 15  1  0  0  0  0
 14 26  1  0  0  0  0
 14 27  1  0  0  0  0
 15 28  1  0  0  0  0
 16 17  1  0  0  0  0
 16 18  1  0  0  0  0
 16 29  1  0  0  0  0
 18 19  1  0  0  0  0
 18 30  1  0  0  0  0
 19 31  1  0  0  0  0
M  END
> <s_m_source_file>
AV-unprocessed.smi

> <i_m_source_file_index>
100

> <i_lp_mmshare_version>
43012

> <i_f3d_flags>
0

> <s_epik_input>
bjFbY0hdbmMoW05IMl0pYyhjMTIpbltjSF1uMltDQEBIXTNPW0NAQEhdKFtDSDJdW09IXSlbQ0BIXShGKVtDQEhdM1tPSF0=

> <s_epik_cmdline>
J2VwaWtfcHl0aG9uJywgJy1waCcsICc3LjAnLCAnLXRuJywgJzgnLCAnLW1hJywgJzIwMCcsICctbWV0YWxfYmluZGluZycsICctaW1hZScsICc8aW5maWxlLm1hZT4nLCAnLW9tYWUnLCAnPG91dGZpbGUubWFlPic=

> <r_lp_tautomer_probability>
1

> <r_epik_Ionization_Penalty>
0.000750324

> <r_epik_Ionization_Penalty_Charging>
0

> <r_epik_Ionization_Penalty_Neutral>
0.000750324

> <r_epik_State_Penalty>
-0

> <r_epik_Charging_Adjusted_Penalty>
0

> <i_epik_Tot_Q>
0

> <i_epik_Tot_abs_Q>
0

> <r_epik_Metal_State_Penalty>
-0

> <b_epik_Metal_Only>
0

> <s_epik_Chemistry_Notes>
This compound contains an acetal/aminal-like group ( X-CH(R)-Y where X, Y are N, S, or O) that may be acid/base labile, releasing an aldehyde.

> <s_lp_Force_Field>
OPLS_2005

> <r_lp_Energy>
28.7864

> <b_lp_Chiralities_Consistent>
1

> <s_lp_Variant>
AV-unprocessed.smi:100-3

> <Gold.Version>
5.8.1

> <Gold.Id.Protein>
6NUR|6NUR_protein|mol2

> <Gold.PLP.Fitness>
41.9367

> <Gold.PLP.PLP>
-30.4788

> <Gold.PLP.part.hbond>
-3.6457

> <Gold.PLP.part.metal>
0.0000

> <Gold.PLP.part.buried>
-3.9094

> <Gold.PLP.part.nonpolar>
-23.3151

> <Gold.PLP.part.repulsive>
0.6845

> <Gold.PLP.ligand.clash>
0.0000

> <Gold.PLP.ligand.torsion>
0.0729

> <Gold.PLP.Chemscore.Hbond>
2.8640

> <Gold.PLP.Chemscore.CHOScore>
1.0000

> <Gold.PLP.Chemscore.Metal>
0.0000

> <Gold.Chemscore.Hbonds>
donor molecule, donor type, donor heavy atom, donor atom, acceptor molecule, acceptor atom, score
      L1  H    15    28       P1 10171  0.82
      L1  H    19    31       P1 10186  0.96
      P1  H  7954  7966       L1    15  0.72
      L1  C     9    23       P1  7948  0.97

> <Gold.PLP.Chemscore.Internal.Correction>
0.0117

> <Gold.Rescore>
     Score         DG    S(hbond)    S(metal)    S(lipo)     H(rot)  DE(clash)    DE(int)     intcor
      8.43      -9.70       2.63        0.00      30.65       3.19       1.07       0.19       ----

> <Gold.Chemscore.Fitness>
8.4313

> <Gold.Chemscore.DG>
-9.6961

> <Gold.Chemscore.ZeroCoef>
-5.4800

> <Gold.Chemscore.Hbond>
2.6337

> <Gold.Chemscore.Metal>
0.0000

> <Gold.Chemscore.Lipo>
30.6506

> <Gold.Chemscore.Internal_Hbond>
0.0000

> <Gold.Chemscore.DEClash>
1.0698

> <Gold.Chemscore.DEInternal>
0.1949

> <Gold.Chemscore.Rot>
3.1901

> <Gold.Chemscore.Internal.Correction>
   9.000000E+99

> <Gold.Chemscore.Hbonds>
donor molecule, donor type, donor heavy atom, donor atom, acceptor molecule, acceptor atom, score
      L1  H    15    28       P1 10171  0.81
      L1  H    19    31       P1 10186  0.90
      P1  H  7954  7966       L1    15  0.57

> <Gold.Chemscore.Hbond.Weighted>
-8.7966

> <Gold.Chemscore.Metal.Weighted>
-0.0000

> <Gold.Chemscore.Lipo.Weighted>
-3.5861

> <Gold.Chemscore.Internal_Hbond.Weighted>
0.0000

> <Gold.Chemscore.DEClash.Weighted>
1.0698

> <Gold.Chemscore.DEInternal.Weighted>
0.1949

> <Gold.Chemscore.Rot.Weighted>
8.1667

> <Gold.Chemscore.Internal.Correction.Weighted>
   9.000000E+99

> <Gold.Protein.RotatedTorsions>
[ 6907 6896 6895 6894 ] final  -53.49 input  -60.11 | X-H torsion
[ 7974 7965 7964 7962 ] final    2.78 input  175.53 | X-H torsion
[ 8008 7997 7996 7995 ] final  132.66 input   59.86 | X-H torsion
[ 10167 10162 10161 10158 ] final    5.24 input  -65.29 | X-H torsion
[ 10718 10713 10712 10709 ] final   34.53 input   66.30 | X-H torsion
[ 10763 10752 10751 10750 ] final  -43.59 input  -60.55 | X-H torsion
[ 11005 11000 10999 10996 ] final   35.66 input  -57.11 | X-H torsion

> <Gold.Protein.ActiveResidues>
 VAL166  LYS551  ARG553  GLY616  TRP617  ASP618  TYR619  PRO620  LYS621  CYS622 
 ASP623  PHE694  ASN695  SER759  ASP760  ASP761  ALA762  ILE779  LEU786  VAL792 
 PHE793  MET794  SER795  GLU796  ALA797  LYS798  CYS799  TRP800  GLU811  SER814 

> <Gold.Protein.RotatedAtoms>
  150.8422  134.7719  159.6941 H   0  0  0  0  0  0  0  0  0  0  0  0  # atno 6907 bound_to 6896
  152.4507  134.5396  159.9845 H   0  0  0  0  0  0  0  0  0  0  0  0  # atno 6908 bound_to 6896
  151.5533  133.3376  159.2993 H   0  0  0  0  0  0  0  0  0  0  0  0  # atno 6909 bound_to 6896
  146.2444  140.0785  142.8358 H   0  0  0  0  0  0  0  0  0  0  0  0  # atno 7974 bound_to 7965
  156.2985  140.2541  156.3126 H   0  0  0  0  0  0  0  0  0  0  0  0  # atno 8008 bound_to 7997
  154.9312  140.0398  157.2068 H   0  0  0  0  0  0  0  0  0  0  0  0  # atno 8009 bound_to 7997
  154.8216  140.2861  155.5787 H   0  0  0  0  0  0  0  0  0  0  0  0  # atno 8010 bound_to 7997
  140.6493  143.7585  150.7548 H   0  0  0  0  0  0  0  0  0  0  0  0  # atno 10167 bound_to 10162
  157.3115  130.7402  149.6728 H   0  0  0  0  0  0  0  0  0  0  0  0  # atno 10718 bound_to 10713
  153.9981  135.6697  153.4757 H   0  0  0  0  0  0  0  0  0  0  0  0  # atno 10763 bound_to 10752
  153.0674  135.4993  154.8227 H   0  0  0  0  0  0  0  0  0  0  0  0  # atno 10764 bound_to 10752
  154.7069  135.3089  154.9220 H   0  0  0  0  0  0  0  0  0  0  0  0  # atno 10765 bound_to 10752
  140.2404  134.3422  155.7928 H   0  0  0  0  0  0  0  0  0  0  0  0  # atno 11005 bound_to 11000
  145.0754  140.9184  143.4857 LP  0  0  0  0  0  0  0  0  0  0  0  0  # atno 17320 bound_to 7965
  145.0927  139.2878  143.5726 LP  0  0  0  0  0  0  0  0  0  0  0  0  # atno 17321 bound_to 7965
  140.1233  143.4592  152.2300 LP  0  0  0  0  0  0  0  0  0  0  0  0  # atno 17342 bound_to 10162
  139.5706  144.7460  151.3901 LP  0  0  0  0  0  0  0  0  0  0  0  0  # atno 17343 bound_to 10162
  155.9678  130.4250  150.4633 LP  0  0  0  0  0  0  0  0  0  0  0  0  # atno 17370 bound_to 10713
  157.2632  131.0571  151.2307 LP  0  0  0  0  0  0  0  0  0  0  0  0  # atno 17371 bound_to 10713
  141.2211  133.7295  156.8876 LP  0  0  0  0  0  0  0  0  0  0  0  0  # atno 17394 bound_to 11000
  140.1659  134.9133  157.2773 LP  0  0  0  0  0  0  0  0  0  0  0  0  # atno 17395 bound_to 11000

$$$$
