AV-unprocessed.smi:1022|AV-procd|sdf|4461|dock8
  -GOLD-   22720 2433D 1   1.00000     0.00000
 Structure written by MMmdl.
 32 33  0  0  0  0  0  0  0  0  2 V2000
  151.2292  141.1499  157.9704 C   0  0  0  0  0  0  0  0  0  0  0  0
  150.5381  142.0585  157.1322 O   0  0  0  0  0  0  0  0  0  0  0  0
  151.2177  143.2971  156.9948 C   0  0  0  0  0  0  0  0  0  0  0  0
  151.3610  143.9783  158.3684 C   0  0  1  0  0  0  0  0  0  0  0  0
  152.4723  145.0375  158.3810 C   0  0  0  0  0  0  0  0  0  0  0  0
  150.0965  144.5796  158.7871 N   0  0  0  0  0  0  0  0  0  0  0  0
  149.6916  144.7729  160.0510 C   0  0  0  0  0  0  0  0  0  0  0  0
  150.4171  144.4344  160.9892 O   0  0  0  0  0  0  0  0  0  0  0  0
  148.4690  145.3427  160.1499 N   0  5  0  0  0  0  0  0  0  0  0  0
  147.4090  144.5990  160.5070 C   0  0  0  0  0  0  0  0  0  0  0  0
  147.4538  143.2601  160.5551 N   0  0  0  0  0  0  0  0  0  0  0  0
  146.2524  142.6891  160.9490 N   0  0  0  0  0  0  0  0  0  0  0  0
  145.3167  143.6076  161.2006 C   0  0  0  0  0  0  0  0  0  0  0  0
  143.9367  143.2438  161.6365 C   0  0  0  0  0  0  0  0  0  0  0  0
  142.8638  144.3008  161.7641 C   0  0  0  0  0  0  0  0  0  0  0  0
  143.4080  143.6312  163.0004 C   0  0  0  0  0  0  0  0  0  0  0  0
  145.8472  145.2674  160.9793 S   0  0  0  0  0  0  0  0  0  0  0  0
  150.6698  140.2170  158.0389 H   0  0  0  0  0  0  0  0  0  0  0  0
  151.3397  141.5507  158.9788 H   0  0  0  0  0  0  0  0  0  0  0  0
  152.2190  140.9212  157.5732 H   0  0  0  0  0  0  0  0  0  0  0  0
  152.2014  143.1354  156.5509 H   0  0  0  0  0  0  0  0  0  0  0  0
  150.6646  143.9473  156.3152 H   0  0  0  0  0  0  0  0  0  0  0  0
  151.6383  143.2148  159.0973 H   0  0  0  0  0  0  0  0  0  0  0  0
  153.4309  144.6023  158.0981 H   0  0  0  0  0  0  0  0  0  0  0  0
  152.5880  145.4712  159.3749 H   0  0  0  0  0  0  0  0  0  0  0  0
  152.2576  145.8507  157.6868 H   0  0  0  0  0  0  0  0  0  0  0  0
  149.4666  144.8675  158.0529 H   0  0  0  0  0  0  0  0  0  0  0  0
  143.6516  142.2721  161.2376 H   0  0  0  0  0  0  0  0  0  0  0  0
  143.1504  145.3356  161.5864 H   0  0  0  0  0  0  0  0  0  0  0  0
  141.8570  144.0346  161.4485 H   0  0  0  0  0  0  0  0  0  0  0  0
  142.7647  142.9167  163.5094 H   0  0  0  0  0  0  0  0  0  0  0  0
  144.0449  144.2291  163.6494 H   0  0  0  0  0  0  0  0  0  0  0  0
  1  2  1  0  0  0  0
  1 18  1  0  0  0  0
  1 19  1  0  0  0  0
  1 20  1  0  0  0  0
  2  3  1  0  0  0  0
  3  4  1  0  0  0  0
  3 21  1  0  0  0  0
  3 22  1  0  0  0  0
  4  5  1  0  0  0  0
  4  6  1  0  0  0  0
  4 23  1  0  0  0  0
  5 24  1  0  0  0  0
  5 25  1  0  0  0  0
  5 26  1  0  0  0  0
  6  7  1  0  0  0  0
  6 27  1  0  0  0  0
  7  8  2  0  0  0  0
  7  9  1  0  0  0  0
  9 10  1  0  0  0  0
 10 17  1  0  0  0  0
 10 11  2  0  0  0  0
 11 12  1  0  0  0  0
 12 13  2  0  0  0  0
 13 14  1  0  0  0  0
 13 17  1  0  0  0  0
 14 16  1  0  0  0  0
 14 15  1  0  0  0  0
 14 28  1  0  0  0  0
 15 16  1  0  0  0  0
 15 29  1  0  0  0  0
 15 30  1  0  0  0  0
 16 31  1  0  0  0  0
 16 32  1  0  0  0  0
M  CHG  1   9  -1
M  END
> <s_m_source_file>
AV-unprocessed.smi

> <i_m_source_file_index>
1022

> <i_lp_mmshare_version>
43012

> <i_f3d_flags>
0

> <s_epik_input>
W0NIM11PW0NIMl1bQ0BIXShbQ0gzXSlbTkhdQyg9TylbTkhdYzFubmMoczEpW0NIXTJbQ0gyXVtDSDJdMg==

> <s_epik_cmdline>
J2VwaWtfcHl0aG9uJywgJy1waCcsICc3LjAnLCAnLXRuJywgJzgnLCAnLW1hJywgJzIwMCcsICctbWV0YWxfYmluZGluZycsICctaW1hZScsICc8aW5maWxlLm1hZT4nLCAnLW9tYWUnLCAnPG91dGZpbGUubWFlPic=

> <r_lp_tautomer_probability>
1

> <r_epik_Ionization_Penalty>
3.79487

> <r_epik_Ionization_Penalty_Charging>
3.64217

> <r_epik_Ionization_Penalty_Neutral>
0.152695

> <r_epik_State_Penalty>
3.6409

> <r_epik_Charging_Adjusted_Penalty>
7.28307

> <i_epik_Tot_Q>
-1

> <i_epik_Tot_abs_Q>
1

> <r_epik_Metal_State_Penalty>
0.534129

> <b_epik_Metal_Only>
1

> <s_lp_Force_Field>
OPLS_2005

> <r_lp_Energy>
0.506403

> <b_lp_Chiralities_Consistent>
1

> <s_lp_Variant>
AV-unprocessed.smi:1022-4

> <Gold.Version>
5.8.1

> <Gold.Id.Protein>
6NUR|6NUR_protein|mol2

> <Gold.PLP.Fitness>
37.9713

> <Gold.PLP.PLP>
-32.9374

> <Gold.PLP.part.hbond>
-5.3224

> <Gold.PLP.part.metal>
0.0000

> <Gold.PLP.part.buried>
-4.4994

> <Gold.PLP.part.nonpolar>
-25.2212

> <Gold.PLP.part.repulsive>
1.5396

> <Gold.PLP.ligand.clash>
0.0000

> <Gold.PLP.ligand.torsion>
1.3035

> <Gold.PLP.Chemscore.Hbond>
2.4735

> <Gold.PLP.Chemscore.CHOScore>
0.0000

> <Gold.PLP.Chemscore.Metal>
0.0000

> <Gold.Chemscore.Hbonds>
donor molecule, donor type, donor heavy atom, donor atom, acceptor molecule, acceptor atom, score
      L1  H     6    27       P1  8029  0.81
      P1  H  6933  6944       L1    11  1.00
      P1  H  6934  6946       L1    12  0.70

> <Gold.PLP.Chemscore.Internal.Correction>
0.2204

> <Gold.Rescore>
     Score         DG    S(hbond)    S(metal)    S(lipo)     H(rot)  DE(clash)    DE(int)     intcor
     12.12     -13.81       1.06        0.00      77.87       1.69       0.42       1.27       ----

> <Gold.Chemscore.Fitness>
12.1185

> <Gold.Chemscore.DG>
-13.8122

> <Gold.Chemscore.ZeroCoef>
-5.4800

> <Gold.Chemscore.Hbond>
1.0637

> <Gold.Chemscore.Metal>
0.0000

> <Gold.Chemscore.Lipo>
77.8726

> <Gold.Chemscore.Internal_Hbond>
0.0000

> <Gold.Chemscore.DEClash>
0.4187

> <Gold.Chemscore.DEInternal>
1.2750

> <Gold.Chemscore.Rot>
1.6921

> <Gold.Chemscore.Internal.Correction>
   9.000000E+99

> <Gold.Chemscore.Hbonds>
donor molecule, donor type, donor heavy atom, donor atom, acceptor molecule, acceptor atom, score
      L1  H     6    27       P1  8029  0.13
      P1  H  6933  6944       L1    11  0.25
      P1  H  6934  6946       L1    12  0.07

> <Gold.Chemscore.Hbond.Weighted>
-3.5528

> <Gold.Chemscore.Metal.Weighted>
-0.0000

> <Gold.Chemscore.Lipo.Weighted>
-9.1111

> <Gold.Chemscore.Internal_Hbond.Weighted>
0.0000

> <Gold.Chemscore.DEClash.Weighted>
0.4187

> <Gold.Chemscore.DEInternal.Weighted>
1.2750

> <Gold.Chemscore.Rot.Weighted>
4.3317

> <Gold.Chemscore.Internal.Correction.Weighted>
   9.000000E+99

> <Gold.Protein.RotatedTorsions>
[ 6907 6896 6895 6894 ] final  -27.51 input  -60.11 | X-H torsion
[ 7974 7965 7964 7962 ] final   92.26 input  175.53 | X-H torsion
[ 8008 7997 7996 7995 ] final   22.79 input   59.86 | X-H torsion
[ 10167 10162 10161 10158 ] final -161.80 input  -65.29 | X-H torsion
[ 10718 10713 10712 10709 ] final -120.62 input   66.30 | X-H torsion
[ 10763 10752 10751 10750 ] final   49.59 input  -60.55 | X-H torsion
[ 11005 11000 10999 10996 ] final    8.72 input  -57.11 | X-H torsion

> <Gold.Protein.ActiveResidues>
 VAL166  LYS551  ARG553  GLY616  TRP617  ASP618  TYR619  PRO620  LYS621  CYS622 
 ASP623  PHE694  ASN695  SER759  ASP760  ASP761  ALA762  ILE779  LEU786  VAL792 
 PHE793  MET794  SER795  GLU796  ALA797  LYS798  CYS799  TRP800  GLU811  SER814 

> <Gold.Protein.RotatedAtoms>
  151.1459  135.0203  159.8646 H   0  0  0  0  0  0  0  0  0  0  0  0  # atno 6907 bound_to 6896
  152.5453  134.1445  159.8503 H   0  0  0  0  0  0  0  0  0  0  0  0  # atno 6908 bound_to 6896
  151.1525  133.4852  159.2628 H   0  0  0  0  0  0  0  0  0  0  0  0  # atno 6909 bound_to 6896
  145.4946  139.2276  143.2811 H   0  0  0  0  0  0  0  0  0  0  0  0  # atno 7974 bound_to 7965
  154.9710  140.3090  155.4988 H   0  0  0  0  0  0  0  0  0  0  0  0  # atno 8008 bound_to 7997
  156.2966  140.2284  156.4742 H   0  0  0  0  0  0  0  0  0  0  0  0  # atno 8009 bound_to 7997
  154.7876  140.0442  157.1164 H   0  0  0  0  0  0  0  0  0  0  0  0  # atno 8010 bound_to 7997
  139.6439  144.0209  152.2112 H   0  0  0  0  0  0  0  0  0  0  0  0  # atno 10167 bound_to 10162
  156.1272  130.6368  150.9562 H   0  0  0  0  0  0  0  0  0  0  0  0  # atno 10718 bound_to 10713
  152.9786  135.5906  154.4114 H   0  0  0  0  0  0  0  0  0  0  0  0  # atno 10763 bound_to 10752
  154.3749  135.2767  155.2247 H   0  0  0  0  0  0  0  0  0  0  0  0  # atno 10764 bound_to 10752
  154.4186  135.6064  153.6051 H   0  0  0  0  0  0  0  0  0  0  0  0  # atno 10765 bound_to 10752
  140.5338  134.0441  155.7882 H   0  0  0  0  0  0  0  0  0  0  0  0  # atno 11005 bound_to 11000
  146.2263  140.5743  142.8995 LP  0  0  0  0  0  0  0  0  0  0  0  0  # atno 17320 bound_to 7965
  144.7814  140.5848  143.6603 LP  0  0  0  0  0  0  0  0  0  0  0  0  # atno 17321 bound_to 7965
  139.9905  144.6364  150.7818 LP  0  0  0  0  0  0  0  0  0  0  0  0  # atno 17342 bound_to 10162
  140.7504  143.2956  151.3215 LP  0  0  0  0  0  0  0  0  0  0  0  0  # atno 17343 bound_to 10162
  157.6453  131.0905  150.8167 LP  0  0  0  0  0  0  0  0  0  0  0  0  # atno 17370 bound_to 10713
  156.8256  130.4998  149.5338 LP  0  0  0  0  0  0  0  0  0  0  0  0  # atno 17371 bound_to 10713
  141.1266  133.9372  157.2622 LP  0  0  0  0  0  0  0  0  0  0  0  0  # atno 17394 bound_to 11000
  139.9540  135.0169  156.9076 LP  0  0  0  0  0  0  0  0  0  0  0  0  # atno 17395 bound_to 11000

$$$$
