AV-unprocessed.smi:1202|AV-procd|sdf|5031|dock4
  -GOLD-   22720 4 53D 1   1.00000     0.00000
 Structure written by MMmdl.
 44 45  0  0  0  0  0  0  0  0  3 V2000
  146.3069  132.6904  151.1084 C   0  0  0  0  0  0  0  0  0  0  0  0
  147.3391  132.8070  152.1315 N   0  5  0  0  0  0  0  0  0  0  0  0
  147.1655  133.4832  153.2987 C   0  0  0  0  0  0  0  0  0  0  0  0
  146.1810  134.0816  153.7453 O   0  0  0  0  0  0  0  0  0  0  0  0
  148.4508  133.4825  154.1343 C   0  0  0  0  0  0  0  0  0  0  0  0
  148.9500  134.8700  154.3022 N   0  3  2  0  0  0  0  0  0  0  0  0
  150.3063  134.9369  154.9107 C   0  0  0  0  0  0  0  0  0  0  0  0
  150.8318  136.3814  154.9393 C   0  0  0  0  0  0  0  0  0  0  0  0
  149.8572  137.3138  155.6813 C   0  0  1  0  0  0  0  0  0  0  0  0
  150.3121  138.6994  155.6164 N   0  0  0  0  0  0  0  0  0  0  0  0
  150.7453  139.4212  156.6612 C   0  0  0  0  0  0  0  0  0  0  0  0
  150.8224  138.9718  157.8054 O   0  0  0  0  0  0  0  0  0  0  0  0
  151.1738  140.8627  156.3515 C   0  0  0  0  0  0  0  0  0  0  0  0
  151.6314  141.6017  157.5400 N   0  0  0  0  0  0  0  0  0  0  0  0
  151.0519  142.8649  157.7736 C   0  0  0  0  0  0  0  0  0  0  0  0
  151.3988  143.6211  158.8271 C   0  0  0  0  0  0  0  0  0  0  0  0
  152.3959  143.1087  159.7367 C   0  0  0  0  0  0  0  0  0  0  0  0
  152.9593  141.9033  159.5207 C   0  0  0  0  0  0  0  0  0  0  0  0
  152.5848  141.0742  158.3690 C   0  0  0  0  0  0  0  0  0  0  0  0
  153.0966  139.9735  158.1616 O   0  0  0  0  0  0  0  0  0  0  0  0
  148.4575  137.1950  155.0578 C   0  0  0  0  0  0  0  0  0  0  0  0
  147.9837  135.7324  155.0282 C   0  0  0  0  0  0  0  0  0  0  0  0
  146.6419  132.0924  150.2611 H   0  0  0  0  0  0  0  0  0  0  0  0
  146.0123  133.6595  150.7043 H   0  0  0  0  0  0  0  0  0  0  0  0
  145.3998  132.2152  151.4833 H   0  0  0  0  0  0  0  0  0  0  0  0
  148.1936  133.0583  155.1059 H   0  0  0  0  0  0  0  0  0  0  0  0
  149.2311  132.8420  153.7166 H   0  0  0  0  0  0  0  0  0  0  0  0
  150.2727  134.5298  155.9225 H   0  0  0  0  0  0  0  0  0  0  0  0
  151.0057  134.3189  154.3471 H   0  0  0  0  0  0  0  0  0  0  0  0
  151.8124  136.4030  155.4162 H   0  0  0  0  0  0  0  0  0  0  0  0
  150.9775  136.7330  153.9167 H   0  0  0  0  0  0  0  0  0  0  0  0
  149.7935  137.0051  156.7268 H   0  0  0  0  0  0  0  0  0  0  0  0
  150.2868  139.1468  154.7115 H   0  0  0  0  0  0  0  0  0  0  0  0
  151.9596  140.8277  155.5956 H   0  0  0  0  0  0  0  0  0  0  0  0
  150.3465  141.3950  155.8778 H   0  0  0  0  0  0  0  0  0  0  0  0
  150.3203  143.1789  157.0434 H   0  0  0  0  0  0  0  0  0  0  0  0
  150.9471  144.5890  158.9877 H   0  0  0  0  0  0  0  0  0  0  0  0
  152.6930  143.6955  160.5935 H   0  0  0  0  0  0  0  0  0  0  0  0
  153.7049  141.5372  160.2112 H   0  0  0  0  0  0  0  0  0  0  0  0
  147.7454  137.8009  155.6194 H   0  0  0  0  0  0  0  0  0  0  0  0
  148.4676  137.5916  154.0411 H   0  0  0  0  0  0  0  0  0  0  0  0
  147.0083  135.6835  154.5425 H   0  0  0  0  0  0  0  0  0  0  0  0
  147.8522  135.3571  156.0444 H   0  0  0  0  0  0  0  0  0  0  0  0
  149.0265  135.2478  153.3684 H   0  0  0  0  0  0  0  0  0  0  0  0
  1  2  1  0  0  0  0
  1 23  1  0  0  0  0
  1 24  1  0  0  0  0
  1 25  1  0  0  0  0
  2  3  1  0  0  0  0
  3  4  2  0  0  0  0
  3  5  1  0  0  0  0
  5  6  1  0  0  0  0
  5 26  1  0  0  0  0
  5 27  1  0  0  0  0
  6 22  1  0  0  0  0
  6  7  1  0  0  0  0
  6 44  1  0  0  0  0
  7  8  1  0  0  0  0
  7 28  1  0  0  0  0
  7 29  1  0  0  0  0
  8  9  1  0  0  0  0
  8 30  1  0  0  0  0
  8 31  1  0  0  0  0
  9 10  1  0  0  0  0
  9 21  1  0  0  0  0
  9 32  1  0  0  0  0
 10 11  1  0  0  0  0
 10 33  1  0  0  0  0
 11 12  2  0  0  0  0
 11 13  1  0  0  0  0
 13 14  1  0  0  0  0
 13 34  1  0  0  0  0
 13 35  1  0  0  0  0
 14 19  1  0  0  0  0
 14 15  1  0  0  0  0
 15 16  2  0  0  0  0
 15 36  1  0  0  0  0
 16 17  1  0  0  0  0
 16 37  1  0  0  0  0
 17 18  2  0  0  0  0
 17 38  1  0  0  0  0
 18 19  1  0  0  0  0
 18 39  1  0  0  0  0
 19 20  2  0  0  0  0
 21 22  1  0  0  0  0
 21 40  1  0  0  0  0
 21 41  1  0  0  0  0
 22 42  1  0  0  0  0
 22 43  1  0  0  0  0
M  CHG  1   2  -1
M  CHG  1   6   1
M  END
> <s_m_source_file>
AV-unprocessed.smi

> <i_m_source_file_index>
1202

> <i_lp_mmshare_version>
43012

> <i_f3d_flags>
0

> <s_epik_input>
W0NIM11bTkhdQyg9TylbQ0gyXU4xW0NIMl1bQ0gyXVtDSF0oW0NIMl1bQ0gyXTEpW05IXUMoPU8pW0NIMl1uMltjSF1bY0hdW2NIXVtjSF1jMj1P

> <s_epik_cmdline>
J2VwaWtfcHl0aG9uJywgJy1waCcsICc3LjAnLCAnLXRuJywgJzgnLCAnLW1hJywgJzIwMCcsICctbWV0YWxfYmluZGluZycsICctaW1hZScsICc8aW5maWxlLm1hZT4nLCAnLW9tYWUnLCAnPG91dGZpbGUubWFlPic=

> <r_lp_tautomer_probability>
1

> <r_epik_Ionization_Penalty>
6.12124

> <r_epik_Ionization_Penalty_Charging>
6.12124

> <r_epik_Ionization_Penalty_Neutral>
4.50226e-08

> <r_epik_State_Penalty>
7.08052

> <r_epik_Charging_Adjusted_Penalty>
13.2018

> <i_epik_Tot_Q>
0

> <i_epik_Tot_abs_Q>
2

> <r_epik_Metal_State_Penalty>
3.01282

> <b_epik_Metal_Only>
1

> <s_lp_Force_Field>
OPLS_2005

> <r_lp_Energy>
18.7723

> <b_lp_Chiralities_Consistent>
1

> <s_lp_Variant>
AV-unprocessed.smi:1202-4

> <Gold.Version>
5.8.1

> <Gold.Id.Protein>
6NUR|6NUR_protein|mol2

> <Gold.PLP.Fitness>
44.5759

> <Gold.PLP.PLP>
-32.7652

> <Gold.PLP.part.hbond>
-2.0000

> <Gold.PLP.part.metal>
0.0000

> <Gold.PLP.part.buried>
-5.8663

> <Gold.PLP.part.nonpolar>
-26.4630

> <Gold.PLP.part.repulsive>
0.2822

> <Gold.PLP.ligand.clash>
0.0000

> <Gold.PLP.ligand.torsion>
0.1542

> <Gold.PLP.Chemscore.Hbond>
3.0000

> <Gold.PLP.Chemscore.CHOScore>
1.0000

> <Gold.PLP.Chemscore.Metal>
0.0000

> <Gold.Chemscore.Hbonds>
donor molecule, donor type, donor heavy atom, donor atom, acceptor molecule, acceptor atom, score
      L1  H     6    44       P1  7948  2.00
      P1  H  7997  8009       L1    20  1.00
      L1  C    15    36       P1  8028  1.00

> <Gold.PLP.Chemscore.Internal.Correction>
0.1191

> <Gold.Rescore>
     Score         DG    S(hbond)    S(metal)    S(lipo)     H(rot)  DE(clash)    DE(int)     intcor
     11.33     -14.87       1.95        0.00      71.75       2.15       0.01       3.53       ----

> <Gold.Chemscore.Fitness>
11.3350

> <Gold.Chemscore.DG>
-14.8743

> <Gold.Chemscore.ZeroCoef>
-5.4800

> <Gold.Chemscore.Hbond>
1.9478

> <Gold.Chemscore.Metal>
0.0000

> <Gold.Chemscore.Lipo>
71.7526

> <Gold.Chemscore.Internal_Hbond>
0.0000

> <Gold.Chemscore.DEClash>
0.0106

> <Gold.Chemscore.DEInternal>
3.5287

> <Gold.Chemscore.Rot>
2.1510

> <Gold.Chemscore.Internal.Correction>
   9.000000E+99

> <Gold.Chemscore.Hbonds>
donor molecule, donor type, donor heavy atom, donor atom, acceptor molecule, acceptor atom, score
      L1  H     6    44       P1  7948  0.45
      P1  H  7997  8009       L1    20  0.85

> <Gold.Chemscore.Hbond.Weighted>
-6.5057

> <Gold.Chemscore.Metal.Weighted>
-0.0000

> <Gold.Chemscore.Lipo.Weighted>
-8.3951

> <Gold.Chemscore.Internal_Hbond.Weighted>
0.0000

> <Gold.Chemscore.DEClash.Weighted>
0.0106

> <Gold.Chemscore.DEInternal.Weighted>
3.5287

> <Gold.Chemscore.Rot.Weighted>
5.5065

> <Gold.Chemscore.Internal.Correction.Weighted>
   9.000000E+99

> <Gold.Protein.RotatedTorsions>
[ 6907 6896 6895 6894 ] final  -85.02 input  -60.11 | X-H torsion
[ 7974 7965 7964 7962 ] final  -64.70 input  175.53 | X-H torsion
[ 8008 7997 7996 7995 ] final  149.48 input   59.86 | X-H torsion
[ 10167 10162 10161 10158 ] final -145.45 input  -65.29 | X-H torsion
[ 10718 10713 10712 10709 ] final   90.35 input   66.30 | X-H torsion
[ 10763 10752 10751 10750 ] final   89.53 input  -60.55 | X-H torsion
[ 11005 11000 10999 10996 ] final  140.02 input  -57.11 | X-H torsion

> <Gold.Protein.ActiveResidues>
 VAL166  LYS551  ARG553  GLY616  TRP617  ASP618  TYR619  PRO620  LYS621  CYS622 
 ASP623  PHE694  ASN695  SER759  ASP760  ASP761  ALA762  ILE779  LEU786  VAL792 
 PHE793  MET794  SER795  GLU796  ALA797  LYS798  CYS799  TRP800  GLU811  SER814 

> <Gold.Protein.RotatedAtoms>
  150.6872  134.3269  159.4810 H   0  0  0  0  0  0  0  0  0  0  0  0  # atno 6907 bound_to 6896
  152.1138  134.9252  160.0575 H   0  0  0  0  0  0  0  0  0  0  0  0  # atno 6908 bound_to 6896
  152.0485  133.3974  159.4404 H   0  0  0  0  0  0  0  0  0  0  0  0  # atno 6909 bound_to 6896
  145.7635  140.8849  143.0417 H   0  0  0  0  0  0  0  0  0  0  0  0  # atno 7974 bound_to 7965
  156.2753  140.2101  156.5864 H   0  0  0  0  0  0  0  0  0  0  0  0  # atno 8008 bound_to 7997
  154.7017  140.0520  157.0488 H   0  0  0  0  0  0  0  0  0  0  0  0  # atno 8009 bound_to 7997
  155.0725  140.3178  155.4629 H   0  0  0  0  0  0  0  0  0  0  0  0  # atno 8010 bound_to 7997
  139.7805  143.8108  152.2638 H   0  0  0  0  0  0  0  0  0  0  0  0  # atno 10167 bound_to 10162
  157.6958  131.0367  150.3563 H   0  0  0  0  0  0  0  0  0  0  0  0  # atno 10718 bound_to 10713
  153.1880  135.4467  155.0114 H   0  0  0  0  0  0  0  0  0  0  0  0  # atno 10763 bound_to 10752
  154.8073  135.3279  154.7401 H   0  0  0  0  0  0  0  0  0  0  0  0  # atno 10764 bound_to 10752
  153.7858  135.6974  153.4935 H   0  0  0  0  0  0  0  0  0  0  0  0  # atno 10765 bound_to 10752
  140.0297  134.9358  157.0637 H   0  0  0  0  0  0  0  0  0  0  0  0  # atno 11005 bound_to 11000
  144.6826  139.9756  143.7483 LP  0  0  0  0  0  0  0  0  0  0  0  0  # atno 17320 bound_to 7965
  146.0241  139.3276  143.0795 LP  0  0  0  0  0  0  0  0  0  0  0  0  # atno 17321 bound_to 7965
  139.8169  144.7312  150.9623 LP  0  0  0  0  0  0  0  0  0  0  0  0  # atno 17342 bound_to 10162
  140.7818  143.4196  151.0862 LP  0  0  0  0  0  0  0  0  0  0  0  0  # atno 17343 bound_to 10162
  156.4005  130.3915  149.6963 LP  0  0  0  0  0  0  0  0  0  0  0  0  # atno 17370 bound_to 10713
  156.4282  130.7802  151.2821 LP  0  0  0  0  0  0  0  0  0  0  0  0  # atno 17371 bound_to 10713
  140.4247  134.1843  155.7165 LP  0  0  0  0  0  0  0  0  0  0  0  0  # atno 17394 bound_to 11000
  141.1823  133.8387  157.1212 LP  0  0  0  0  0  0  0  0  0  0  0  0  # atno 17395 bound_to 11000

$$$$
