AV-unprocessed.smi:153|AV-procd|sdf|1263|dock9
  -GOLD-   2262018513D 1   1.00000     0.00000
 Structure written by MMmdl.
 59 62  0  0  0  0  0  0  0  0  1 V2000
  151.9702  144.3336  158.5426 C   0  0  0  0  0  0  0  0  0  0  0  0
  152.2413  142.8374  158.3152 C   0  0  1  0  0  0  0  0  0  0  0  0
  152.5644  142.2399  159.5680 O   0  0  0  0  0  0  0  0  0  0  0  0
  152.1322  140.8911  159.5524 C   0  0  0  0  0  0  0  0  0  0  0  0
  150.7901  140.9932  158.8466 C   0  0  0  0  0  0  0  0  0  0  0  0
  151.0715  141.9981  157.7288 C   0  0  1  0  0  0  0  0  0  0  0  0
  149.8983  142.7654  157.5161 O   0  0  0  0  0  0  0  0  0  0  0  0
  151.4797  141.3416  156.3835 C   0  0  0  0  0  0  0  0  0  0  0  0
  150.3587  140.9039  155.5648 N   0  0  0  0  0  0  0  0  0  0  0  0
  149.5905  141.6840  154.7329 C   0  0  0  0  0  0  0  0  0  0  0  0
  148.6437  141.0506  154.0982 N   0  0  0  0  0  0  0  0  0  0  0  0
  148.7652  139.7285  154.5148 C   0  0  0  0  0  0  0  0  0  0  0  0
  148.0693  138.5146  154.2244 C   0  0  0  0  0  0  0  0  0  0  0  0
  146.9928  138.4202  153.3920 N   0  0  0  0  0  0  0  0  0  0  0  0
  146.7444  139.5130  152.4534 C   0  0  0  0  0  0  0  0  0  0  0  0
  146.5009  137.0937  153.0187 C   0  0  0  0  0  0  0  0  0  0  0  0
  145.5678  137.1096  151.7872 C   0  0  1  0  0  0  0  0  0  0  0  0
  146.3111  137.1857  150.5870 O   0  0  0  0  0  0  0  0  0  0  0  0
  144.6270  135.8853  151.7138 C   0  0  0  0  0  0  0  0  0  0  0  0
  145.2229  134.6182  151.2771 N   0  0  0  0  0  0  0  0  0  0  0  0
  144.2288  133.6247  150.8751 C   0  0  0  0  0  0  0  0  0  0  0  0
  144.8802  132.2965  150.4510 C   0  0  0  0  0  0  0  0  0  0  0  0
  145.6961  131.8015  151.5074 O   0  0  0  0  0  0  0  0  0  0  0  0
  146.7098  132.7235  151.8935 C   0  0  0  0  0  0  0  0  0  0  0  0
  146.0600  134.0485  152.3279 C   0  0  0  0  0  0  0  0  0  0  0  0
  148.5290  137.3855  154.8298 N   0  0  0  0  0  0  0  0  0  0  0  0
  149.5694  137.4298  155.6654 C   0  0  0  0  0  0  0  0  0  0  0  0
  150.2962  138.4839  156.0345 N   0  0  0  0  0  0  0  0  0  0  0  0
  149.8553  139.6219  155.4278 C   0  0  0  0  0  0  0  0  0  0  0  0
  151.7339  144.8383  157.6053 H   0  0  0  0  0  0  0  0  0  0  0  0
  152.8454  144.8243  158.9689 H   0  0  0  0  0  0  0  0  0  0  0  0
  151.1384  144.4882  159.2308 H   0  0  0  0  0  0  0  0  0  0  0  0
  153.1218  142.7400  157.6781 H   0  0  0  0  0  0  0  0  0  0  0  0
  152.8333  140.2792  158.9827 H   0  0  0  0  0  0  0  0  0  0  0  0
  152.0505  140.4826  160.5596 H   0  0  0  0  0  0  0  0  0  0  0  0
  150.4112  140.0293  158.5109 H   0  0  0  0  0  0  0  0  0  0  0  0
  150.0610  141.3977  159.5510 H   0  0  0  0  0  0  0  0  0  0  0  0
  149.1818  142.1732  157.3472 H   0  0  0  0  0  0  0  0  0  0  0  0
  152.0745  142.0404  155.7938 H   0  0  0  0  0  0  0  0  0  0  0  0
  152.1229  140.4798  156.5655 H   0  0  0  0  0  0  0  0  0  0  0  0
  149.7546  142.7449  154.6114 H   0  0  0  0  0  0  0  0  0  0  0  0
  146.7225  140.4724  152.9716 H   0  0  0  0  0  0  0  0  0  0  0  0
  145.7826  139.3878  151.9558 H   0  0  0  0  0  0  0  0  0  0  0  0
  147.5185  139.5492  151.6862 H   0  0  0  0  0  0  0  0  0  0  0  0
  147.3039  136.3701  152.9028 H   0  0  0  0  0  0  0  0  0  0  0  0
  145.9296  136.7265  153.8719 H   0  0  0  0  0  0  0  0  0  0  0  0
  144.9377  137.9990  151.8211 H   0  0  0  0  0  0  0  0  0  0  0  0
  145.7840  137.6262  149.9381 H   0  0  0  0  0  0  0  0  0  0  0  0
  144.2425  135.7377  152.7240 H   0  0  0  0  0  0  0  0  0  0  0  0
  143.7519  136.1207  151.1057 H   0  0  0  0  0  0  0  0  0  0  0  0
  143.5342  133.4419  151.6964 H   0  0  0  0  0  0  0  0  0  0  0  0
  143.6377  133.9961  150.0391 H   0  0  0  0  0  0  0  0  0  0  0  0
  144.1150  131.5571  150.2147 H   0  0  0  0  0  0  0  0  0  0  0  0
  145.4822  132.4333  149.5513 H   0  0  0  0  0  0  0  0  0  0  0  0
  147.2873  132.2966  152.7136 H   0  0  0  0  0  0  0  0  0  0  0  0
  147.4003  132.8851  151.0642 H   0  0  0  0  0  0  0  0  0  0  0  0
  146.8423  134.7566  152.6037 H   0  0  0  0  0  0  0  0  0  0  0  0
  145.4627  133.8792  153.2254 H   0  0  0  0  0  0  0  0  0  0  0  0
  149.8595  136.4852  156.1013 H   0  0  0  0  0  0  0  0  0  0  0  0
  1  2  1  0  0  0  0
  1 30  1  0  0  0  0
  1 31  1  0  0  0  0
  1 32  1  0  0  0  0
  2  6  1  0  0  0  0
  2  3  1  0  0  0  0
  2 33  1  0  0  0  0
  3  4  1  0  0  0  0
  4  5  1  0  0  0  0
  4 34  1  0  0  0  0
  4 35  1  0  0  0  0
  5  6  1  0  0  0  0
  5 36  1  0  0  0  0
  5 37  1  0  0  0  0
  6  7  1  0  0  0  0
  6  8  1  0  0  0  0
  7 38  1  0  0  0  0
  8  9  1  0  0  0  0
  8 39  1  0  0  0  0
  8 40  1  0  0  0  0
  9 29  1  0  0  0  0
  9 10  1  0  0  0  0
 10 11  2  0  0  0  0
 10 41  1  0  0  0  0
 11 12  1  0  0  0  0
 12 29  2  0  0  0  0
 12 13  1  0  0  0  0
 13 14  1  0  0  0  0
 13 26  2  0  0  0  0
 14 15  1  0  0  0  0
 14 16  1  0  0  0  0
 15 42  1  0  0  0  0
 15 43  1  0  0  0  0
 15 44  1  0  0  0  0
 16 17  1  0  0  0  0
 16 45  1  0  0  0  0
 16 46  1  0  0  0  0
 17 18  1  0  0  0  0
 17 19  1  0  0  0  0
 17 47  1  0  0  0  0
 18 48  1  0  0  0  0
 19 20  1  0  0  0  0
 19 49  1  0  0  0  0
 19 50  1  0  0  0  0
 20 25  1  0  0  0  0
 20 21  1  0  0  0  0
 21 22  1  0  0  0  0
 21 51  1  0  0  0  0
 21 52  1  0  0  0  0
 22 23  1  0  0  0  0
 22 53  1  0  0  0  0
 22 54  1  0  0  0  0
 23 24  1  0  0  0  0
 24 25  1  0  0  0  0
 24 55  1  0  0  0  0
 24 56  1  0  0  0  0
 25 57  1  0  0  0  0
 25 58  1  0  0  0  0
 26 27  1  0  0  0  0
 27 28  2  0  0  0  0
 27 59  1  0  0  0  0
 28 29  1  0  0  0  0
M  END
> <s_m_source_file>
AV-unprocessed.smi

> <i_m_source_file_index>
153

> <i_lp_mmshare_version>
43012

> <i_f3d_flags>
0

> <s_epik_input>
W0NIMl0xW0NIMl1PW0NAQEhdKFtDSDNdKVtDQEBdMShbT0hdKVtDSDJdbihbY0hdbjIpYyhjMjMpbltjSF1uYzNOKFtDSDNdKVtDSDJdW0NASF0oW09IXSlbQ0gyXU40W0NIMl1bQ0gyXU9bQ0gyXVtDSDJdNA==

> <s_epik_cmdline>
J2VwaWtfcHl0aG9uJywgJy1waCcsICc3LjAnLCAnLXRuJywgJzgnLCAnLW1hJywgJzIwMCcsICctbWV0YWxfYmluZGluZycsICctaW1hZScsICc8aW5maWxlLm1hZT4nLCAnLW9tYWUnLCAnPG91dGZpbGUubWFlPic=

> <r_lp_tautomer_probability>
1

> <r_epik_Ionization_Penalty>
0.424123

> <r_epik_Ionization_Penalty_Charging>
0

> <r_epik_Ionization_Penalty_Neutral>
0.424123

> <r_epik_State_Penalty>
0.421495

> <r_epik_Charging_Adjusted_Penalty>
0.421495

> <i_epik_Tot_Q>
0

> <i_epik_Tot_abs_Q>
0

> <r_epik_Metal_State_Penalty>
0.421223

> <b_epik_Metal_Only>
0

> <s_lp_Force_Field>
OPLS_2005

> <r_lp_Energy>
60.0656

> <b_lp_Chiralities_Consistent>
1

> <s_lp_Variant>
AV-unprocessed.smi:153-14

> <Gold.Version>
5.8.1

> <Gold.Id.Protein>
6NUR|6NUR_protein|mol2

> <Gold.PLP.Fitness>
47.9515

> <Gold.PLP.PLP>
-42.1822

> <Gold.PLP.part.hbond>
-3.7478

> <Gold.PLP.part.metal>
0.0000

> <Gold.PLP.part.buried>
-0.6651

> <Gold.PLP.part.nonpolar>
-38.1075

> <Gold.PLP.part.repulsive>
0.5793

> <Gold.PLP.ligand.clash>
0.0000

> <Gold.PLP.ligand.torsion>
1.2809

> <Gold.PLP.Chemscore.Hbond>
1.5742

> <Gold.PLP.Chemscore.CHOScore>
1.0000

> <Gold.PLP.Chemscore.Metal>
0.0000

> <Gold.Chemscore.Hbonds>
donor molecule, donor type, donor heavy atom, donor atom, acceptor molecule, acceptor atom, score
      L1  H    18    48       P1 10171  0.61
      P1  H  7954  7966       L1    18  0.64
      L1  C    10    41       P1  8028  1.00

> <Gold.PLP.Chemscore.Internal.Correction>
0.6086

> <Gold.Rescore>
     Score         DG    S(hbond)    S(metal)    S(lipo)     H(rot)  DE(clash)    DE(int)     intcor
      7.30     -13.39       1.39        0.00     104.98       3.52       2.22       3.87       ----

> <Gold.Chemscore.Fitness>
7.2989

> <Gold.Chemscore.DG>
-13.3939

> <Gold.Chemscore.ZeroCoef>
-5.4800

> <Gold.Chemscore.Hbond>
1.3876

> <Gold.Chemscore.Metal>
0.0000

> <Gold.Chemscore.Lipo>
104.9833

> <Gold.Chemscore.Internal_Hbond>
0.0000

> <Gold.Chemscore.DEClash>
2.2221

> <Gold.Chemscore.DEInternal>
3.8728

> <Gold.Chemscore.Rot>
3.5170

> <Gold.Chemscore.Internal.Correction>
   9.000000E+99

> <Gold.Chemscore.Hbonds>
donor molecule, donor type, donor heavy atom, donor atom, acceptor molecule, acceptor atom, score
      L1  H    18    48       P1 10171  0.61
      P1  H  7954  7966       L1    18  0.09

> <Gold.Chemscore.Hbond.Weighted>
-4.6344

> <Gold.Chemscore.Metal.Weighted>
-0.0000

> <Gold.Chemscore.Lipo.Weighted>
-12.2831

> <Gold.Chemscore.Internal_Hbond.Weighted>
0.0000

> <Gold.Chemscore.DEClash.Weighted>
2.2221

> <Gold.Chemscore.DEInternal.Weighted>
3.8728

> <Gold.Chemscore.Rot.Weighted>
9.0036

> <Gold.Chemscore.Internal.Correction.Weighted>
   9.000000E+99

> <Gold.Protein.RotatedTorsions>
[ 6907 6896 6895 6894 ] final  -85.27 input  -60.11 | X-H torsion
[ 7974 7965 7964 7962 ] final  -68.40 input  175.53 | X-H torsion
[ 8008 7997 7996 7995 ] final -138.80 input   59.86 | X-H torsion
[ 10167 10162 10161 10158 ] final  -23.60 input  -65.29 | X-H torsion
[ 10718 10713 10712 10709 ] final   -7.09 input   66.30 | X-H torsion
[ 10763 10752 10751 10750 ] final  -13.43 input  -60.55 | X-H torsion
[ 11005 11000 10999 10996 ] final   97.82 input  -57.11 | X-H torsion

> <Gold.Protein.ActiveResidues>
 VAL166  LYS551  ARG553  GLY616  TRP617  ASP618  TYR619  PRO620  LYS621  CYS622 
 ASP623  PHE694  ASN695  SER759  ASP760  ASP761  ALA762  ILE779  LEU786  VAL792 
 PHE793  MET794  SER795  GLU796  ALA797  LYS798  CYS799  TRP800  GLU811  SER814 

> <Gold.Protein.RotatedAtoms>
  150.6871  134.3231  159.4794 H   0  0  0  0  0  0  0  0  0  0  0  0  # atno 6907 bound_to 6896
  152.1104  134.9275  160.0576 H   0  0  0  0  0  0  0  0  0  0  0  0  # atno 6908 bound_to 6896
  152.0520  133.3988  159.4418 H   0  0  0  0  0  0  0  0  0  0  0  0  # atno 6909 bound_to 6896
  145.7170  140.9055  143.0650 H   0  0  0  0  0  0  0  0  0  0  0  0  # atno 7974 bound_to 7965
  155.4344  140.0527  157.3016 H   0  0  0  0  0  0  0  0  0  0  0  0  # atno 8008 bound_to 7997
  154.4845  140.2095  155.9643 H   0  0  0  0  0  0  0  0  0  0  0  0  # atno 8009 bound_to 7997
  156.1255  140.3181  155.8276 H   0  0  0  0  0  0  0  0  0  0  0  0  # atno 8010 bound_to 7997
  140.7288  143.4428  151.0631 H   0  0  0  0  0  0  0  0  0  0  0  0  # atno 10167 bound_to 10162
  156.7223  130.5155  149.5865 H   0  0  0  0  0  0  0  0  0  0  0  0  # atno 10718 bound_to 10713
  153.5133  135.7016  153.5769 H   0  0  0  0  0  0  0  0  0  0  0  0  # atno 10763 bound_to 10752
  153.3850  135.3910  155.1884 H   0  0  0  0  0  0  0  0  0  0  0  0  # atno 10764 bound_to 10752
  154.8701  135.3844  154.4615 H   0  0  0  0  0  0  0  0  0  0  0  0  # atno 10765 bound_to 10752
  139.8774  134.9019  156.4364 H   0  0  0  0  0  0  0  0  0  0  0  0  # atno 11005 bound_to 11000
  144.6927  139.9151  143.7465 LP  0  0  0  0  0  0  0  0  0  0  0  0  # atno 17320 bound_to 7965
  146.0661  139.3651  143.0552 LP  0  0  0  0  0  0  0  0  0  0  0  0  # atno 17321 bound_to 7965
  139.8097  143.7968  152.3170 LP  0  0  0  0  0  0  0  0  0  0  0  0  # atno 17342 bound_to 10162
  139.8013  144.7372  150.9820 LP  0  0  0  0  0  0  0  0  0  0  0  0  # atno 17343 bound_to 10162
  156.1586  130.6358  151.0689 LP  0  0  0  0  0  0  0  0  0  0  0  0  # atno 17370 bound_to 10713
  157.6893  131.0815  150.7154 LP  0  0  0  0  0  0  0  0  0  0  0  0  # atno 17371 bound_to 10713
  140.9030  133.7766  155.9702 LP  0  0  0  0  0  0  0  0  0  0  0  0  # atno 17394 bound_to 11000
  140.8630  134.2818  157.5226 LP  0  0  0  0  0  0  0  0  0  0  0  0  # atno 17395 bound_to 11000

$$$$
