AV-unprocessed.smi:798|AV-procd|sdf|3777|dock10
  -GOLD-   22720 1213D 1   1.00000     0.00000
 Structure written by MMmdl.
 33 35  0  0  0  0  0  0  0  0  2 V2000
  151.1565  140.7237  156.2769 O   0  0  0  0  0  0  0  0  0  0  0  0
  150.6961  141.8668  156.2308 C   0  0  0  0  0  0  0  0  0  0  0  0
  151.0843  142.9183  156.9878 N   0  5  0  0  0  0  0  0  0  0  0  0
  151.8449  142.7163  158.0764 C   0  0  0  0  0  0  0  0  0  0  0  0
  152.2101  141.4894  158.4821 N   0  0  0  0  0  0  0  0  0  0  0  0
  152.9906  141.5041  159.6303 N   0  0  0  0  0  0  0  0  0  0  0  0
  153.1882  142.7476  160.0673 C   0  0  0  0  0  0  0  0  0  0  0  0
  152.4357  144.0128  159.1195 S   0  0  0  0  0  0  0  0  0  0  0  0
  149.7208  142.1597  155.3593 N   0  0  0  0  0  0  0  0  0  0  0  0
  149.1239  141.2293  154.4019 C   0  0  2  0  0  0  0  0  0  0  0  0
  147.7928  141.7390  153.7902 C   0  0  2  0  0  0  0  0  0  0  0  0
  146.8070  142.1999  154.8853 C   0  0  0  0  0  0  0  0  0  0  0  0
  146.4114  140.8736  155.5599 C   0  0  0  0  0  0  0  0  0  0  0  0
  147.1903  139.8272  154.7382 C   0  0  1  0  0  0  0  0  0  0  0  0
  147.1411  140.4374  153.3423 C   0  0  0  0  0  0  0  0  0  0  0  0
  148.6937  139.9075  155.0930 C   0  0  1  0  0  0  0  0  0  0  0  0
  149.4834  138.6753  154.6102 C   0  0  0  0  0  0  0  0  0  0  0  0
  149.5639  138.6649  153.2008 O   0  0  0  0  0  0  0  0  0  0  0  0
  153.7772  142.9209  160.9554 H   0  0  0  0  0  0  0  0  0  0  0  0
  149.3682  143.1054  155.3573 H   0  0  0  0  0  0  0  0  0  0  0  0
  149.8396  141.0243  153.6032 H   0  0  0  0  0  0  0  0  0  0  0  0
  147.9321  142.4733  152.9964 H   0  0  0  0  0  0  0  0  0  0  0  0
  147.2354  142.9177  155.5849 H   0  0  0  0  0  0  0  0  0  0  0  0
  145.9324  142.6709  154.4351 H   0  0  0  0  0  0  0  0  0  0  0  0
  146.6741  140.8510  156.6181 H   0  0  0  0  0  0  0  0  0  0  0  0
  145.3361  140.7102  155.4797 H   0  0  0  0  0  0  0  0  0  0  0  0
  146.7714  138.8234  154.8166 H   0  0  0  0  0  0  0  0  0  0  0  0
  146.1263  140.5688  152.9625 H   0  0  0  0  0  0  0  0  0  0  0  0
  147.7279  139.8926  152.6015 H   0  0  0  0  0  0  0  0  0  0  0  0
  148.8004  139.9728  156.1777 H   0  0  0  0  0  0  0  0  0  0  0  0
  150.4980  138.6979  155.0085 H   0  0  0  0  0  0  0  0  0  0  0  0
  149.0249  137.7468  154.9505 H   0  0  0  0  0  0  0  0  0  0  0  0
  149.4328  137.7797  152.8979 H   0  0  0  0  0  0  0  0  0  0  0  0
  1  2  2  0  0  0  0
  2  3  1  0  0  0  0
  2  9  1  0  0  0  0
  3  4  1  0  0  0  0
  4  8  1  0  0  0  0
  4  5  2  0  0  0  0
  5  6  1  0  0  0  0
  6  7  2  0  0  0  0
  7  8  1  0  0  0  0
  7 19  1  0  0  0  0
  9 10  1  0  0  0  0
  9 20  1  0  0  0  0
 10 16  1  0  0  0  0
 10 11  1  0  0  0  0
 10 21  1  0  0  0  0
 11 15  1  0  0  0  0
 11 12  1  0  0  0  0
 11 22  1  0  0  0  0
 12 13  1  0  0  0  0
 12 23  1  0  0  0  0
 12 24  1  0  0  0  0
 13 14  1  0  0  0  0
 13 25  1  0  0  0  0
 13 26  1  0  0  0  0
 14 15  1  0  0  0  0
 14 16  1  0  0  0  0
 14 27  1  0  0  0  0
 15 28  1  0  0  0  0
 15 29  1  0  0  0  0
 16 17  1  0  0  0  0
 16 30  1  0  0  0  0
 17 18  1  0  0  0  0
 17 31  1  0  0  0  0
 17 32  1  0  0  0  0
 18 33  1  0  0  0  0
M  CHG  1   3  -1
M  END
> <s_m_source_file>
AV-unprocessed.smi

> <i_m_source_file_index>
798

> <i_lp_mmshare_version>
43012

> <i_f3d_flags>
0

> <s_epik_input>
W0NIMl0xW0NIMl1bQ0BASF0oW0NIMl0yKVtDQEBIXShbQ0gyXVtPSF0pW0NAQEhdKFtDQEhdMTIpW05IXUMoPU8pW05IXWMzbm5bY0hdczM=

> <s_epik_cmdline>
J2VwaWtfcHl0aG9uJywgJy1waCcsICc3LjAnLCAnLXRuJywgJzgnLCAnLW1hJywgJzIwMCcsICctbWV0YWxfYmluZGluZycsICctaW1hZScsICc8aW5maWxlLm1hZT4nLCAnLW9tYWUnLCAnPG91dGZpbGUubWFlPic=

> <r_lp_tautomer_probability>
1

> <r_epik_Ionization_Penalty>
4.53732

> <r_epik_Ionization_Penalty_Charging>
4.48632

> <r_epik_Ionization_Penalty_Neutral>
0.0510007

> <r_epik_State_Penalty>
4.48602

> <r_epik_Charging_Adjusted_Penalty>
8.97234

> <i_epik_Tot_Q>
-1

> <i_epik_Tot_abs_Q>
1

> <r_epik_Metal_State_Penalty>
0.812492

> <b_epik_Metal_Only>
1

> <s_lp_Force_Field>
OPLS_2005

> <r_lp_Energy>
46.8419

> <b_lp_Chiralities_Consistent>
1

> <s_lp_Variant>
AV-unprocessed.smi:798-9

> <Gold.Version>
5.8.1

> <Gold.Id.Protein>
6NUR|6NUR_protein|mol2

> <Gold.PLP.Fitness>
39.9731

> <Gold.PLP.PLP>
-34.4404

> <Gold.PLP.part.hbond>
-2.7255

> <Gold.PLP.part.metal>
0.0000

> <Gold.PLP.part.buried>
-5.9987

> <Gold.PLP.part.nonpolar>
-25.6402

> <Gold.PLP.part.repulsive>
0.4318

> <Gold.PLP.ligand.clash>
0.0000

> <Gold.PLP.ligand.torsion>
0.2483

> <Gold.PLP.Chemscore.Hbond>
2.0000

> <Gold.PLP.Chemscore.CHOScore>
0.0000

> <Gold.PLP.Chemscore.Metal>
0.0000

> <Gold.Chemscore.Hbonds>
donor molecule, donor type, donor heavy atom, donor atom, acceptor molecule, acceptor atom, score
      L1  H     9    20       P1  8028  1.00
      L1  H    18    33       P1  7948  1.00

> <Gold.PLP.Chemscore.Internal.Correction>
0.0292

> <Gold.Rescore>
     Score         DG    S(hbond)    S(metal)    S(lipo)     H(rot)  DE(clash)    DE(int)     intcor
     10.94     -15.23       1.98        0.00      68.78       1.92       0.02       4.27       ----

> <Gold.Chemscore.Fitness>
10.9396

> <Gold.Chemscore.DG>
-15.2287

> <Gold.Chemscore.ZeroCoef>
-5.4800

> <Gold.Chemscore.Hbond>
1.9815

> <Gold.Chemscore.Metal>
0.0000

> <Gold.Chemscore.Lipo>
68.7806

> <Gold.Chemscore.Internal_Hbond>
0.0000

> <Gold.Chemscore.DEClash>
0.0204

> <Gold.Chemscore.DEInternal>
4.2687

> <Gold.Chemscore.Rot>
1.9207

> <Gold.Chemscore.Internal.Correction>
   9.000000E+99

> <Gold.Chemscore.Hbonds>
donor molecule, donor type, donor heavy atom, donor atom, acceptor molecule, acceptor atom, score
      L1  H     9    20       P1  8028  1.00
      L1  H    18    33       P1  7948  0.88

> <Gold.Chemscore.Hbond.Weighted>
-6.6182

> <Gold.Chemscore.Metal.Weighted>
-0.0000

> <Gold.Chemscore.Lipo.Weighted>
-8.0473

> <Gold.Chemscore.Internal_Hbond.Weighted>
0.0000

> <Gold.Chemscore.DEClash.Weighted>
0.0204

> <Gold.Chemscore.DEInternal.Weighted>
4.2687

> <Gold.Chemscore.Rot.Weighted>
4.9169

> <Gold.Chemscore.Internal.Correction.Weighted>
   9.000000E+99

> <Gold.Protein.RotatedTorsions>
[ 6907 6896 6895 6894 ] final    7.46 input  -60.11 | X-H torsion
[ 7974 7965 7964 7962 ] final -129.80 input  175.53 | X-H torsion
[ 8008 7997 7996 7995 ] final  161.09 input   59.86 | X-H torsion
[ 10167 10162 10161 10158 ] final   23.47 input  -65.29 | X-H torsion
[ 10718 10713 10712 10709 ] final   12.60 input   66.30 | X-H torsion
[ 10763 10752 10751 10750 ] final -118.75 input  -60.55 | X-H torsion
[ 11005 11000 10999 10996 ] final  154.66 input  -57.11 | X-H torsion

> <Gold.Protein.ActiveResidues>
 VAL166  LYS551  ARG553  GLY616  TRP617  ASP618  TYR619  PRO620  LYS621  CYS622 
 ASP623  PHE694  ASN695  SER759  ASP760  ASP761  ALA762  ILE779  LEU786  VAL792 
 PHE793  MET794  SER795  GLU796  ALA797  LYS798  CYS799  TRP800  GLU811  SER814 

> <Gold.Protein.RotatedAtoms>
  151.6903  135.0947  160.0232 H   0  0  0  0  0  0  0  0  0  0  0  0  # atno 6907 bound_to 6896
  152.3782  133.6506  159.6149 H   0  0  0  0  0  0  0  0  0  0  0  0  # atno 6908 bound_to 6896
  150.7726  133.9074  159.3400 H   0  0  0  0  0  0  0  0  0  0  0  0  # atno 6909 bound_to 6896
  144.9536  140.7371  143.4772 H   0  0  0  0  0  0  0  0  0  0  0  0  # atno 7974 bound_to 7965
  156.2128  140.1787  156.7658 H   0  0  0  0  0  0  0  0  0  0  0  0  # atno 8008 bound_to 7997
  154.5747  140.0676  156.9045 H   0  0  0  0  0  0  0  0  0  0  0  0  # atno 8009 bound_to 7997
  155.2610  140.3336  155.4275 H   0  0  0  0  0  0  0  0  0  0  0  0  # atno 8010 bound_to 7997
  140.5266  143.9913  150.6443 H   0  0  0  0  0  0  0  0  0  0  0  0  # atno 10167 bound_to 10162
  157.0125  130.6122  149.5710 H   0  0  0  0  0  0  0  0  0  0  0  0  # atno 10718 bound_to 10713
  154.8597  135.4263  154.2188 H   0  0  0  0  0  0  0  0  0  0  0  0  # atno 10763 bound_to 10752
  153.3198  135.6981  153.7047 H   0  0  0  0  0  0  0  0  0  0  0  0  # atno 10764 bound_to 10752
  153.6106  135.3520  155.2951 H   0  0  0  0  0  0  0  0  0  0  0  0  # atno 10765 bound_to 10752
  140.1510  134.8675  157.2454 H   0  0  0  0  0  0  0  0  0  0  0  0  # atno 11005 bound_to 11000
  145.2806  139.1920  143.4793 LP  0  0  0  0  0  0  0  0  0  0  0  0  # atno 17320 bound_to 7965
  146.3329  140.2767  142.8608 LP  0  0  0  0  0  0  0  0  0  0  0  0  # atno 17321 bound_to 7965
  140.3276  143.3097  152.0720 LP  0  0  0  0  0  0  0  0  0  0  0  0  # atno 17342 bound_to 10162
  139.4940  144.6531  151.6632 LP  0  0  0  0  0  0  0  0  0  0  0  0  # atno 17343 bound_to 10162
  156.0131  130.5224  150.8051 LP  0  0  0  0  0  0  0  0  0  0  0  0  # atno 17370 bound_to 10713
  157.5310  131.0936  150.9955 LP  0  0  0  0  0  0  0  0  0  0  0  0  # atno 17371 bound_to 10713
  140.2605  134.3577  155.7408 LP  0  0  0  0  0  0  0  0  0  0  0  0  # atno 17394 bound_to 11000
  141.2199  133.7367  156.9073 LP  0  0  0  0  0  0  0  0  0  0  0  0  # atno 17395 bound_to 11000

$$$$
