AV-unprocessed.smi:1589|AV-procd|sdf|6393|dock10
  -GOLD-   22720 7 33D 1   1.00000     0.00000
 Structure written by MMmdl.
 44 45  0  0  0  0  0  0  0  0  2 V2000
  145.1072  132.4276  151.9255 C   0  0  0  0  0  0  0  0  0  0  0  0
  143.8142  132.7712  151.1559 C   0  0  0  0  0  0  0  0  0  0  0  0
  144.0539  132.5163  149.6533 C   0  0  0  0  0  0  0  0  0  0  0  0
  143.3339  134.1658  151.4243 N   0  3  0  0  0  0  0  0  0  0  0  0
  144.3060  135.2221  151.0050 C   0  0  0  0  0  0  0  0  0  0  0  0
  143.8194  136.6423  151.3462 C   0  0  0  0  0  0  0  0  0  0  0  0
  143.5231  136.7092  152.7809 N   0  0  0  0  0  0  0  0  0  0  0  0
  144.3006  137.2746  153.7391 C   0  0  0  0  0  0  0  0  0  0  0  0
  144.1531  137.0347  154.9375 O   0  0  0  0  0  0  0  0  0  0  0  0
  145.2059  138.1534  153.2687 N   0  0  0  0  0  0  0  0  0  0  0  0
  146.1845  138.8657  154.0062 C   0  0  0  0  0  0  0  0  0  0  0  0
  146.2944  139.0587  155.4124 C   0  0  0  0  0  0  0  0  0  0  0  0
  147.3594  139.7875  155.7099 N   0  0  0  0  0  0  0  0  0  0  0  0
  147.9435  140.0657  154.5175 N   0  0  0  0  0  0  0  0  0  0  0  0
  149.1609  140.8597  154.4794 C   0  0  0  0  0  0  0  0  0  0  0  0
  150.2771  140.2576  155.3414 C   0  0  0  0  0  0  0  0  0  0  0  0
  150.0333  140.1496  156.6498 N   0  0  0  0  0  0  0  0  0  0  0  0
  151.3408  139.8905  154.8446 O   0  0  0  0  0  0  0  0  0  0  0  0
  147.2453  139.5208  153.4571 C   0  0  0  0  0  0  0  0  0  0  0  0
  142.4168  135.8095  153.1051 C   0  0  0  0  0  0  0  0  0  0  0  0
  142.8531  134.3599  152.8268 C   0  0  0  0  0  0  0  0  0  0  0  0
  145.4913  131.4506  151.6307 H   0  0  0  0  0  0  0  0  0  0  0  0
  144.9453  132.3737  153.0020 H   0  0  0  0  0  0  0  0  0  0  0  0
  145.8926  133.1594  151.7331 H   0  0  0  0  0  0  0  0  0  0  0  0
  143.0393  132.0804  151.4920 H   0  0  0  0  0  0  0  0  0  0  0  0
  144.5033  131.5366  149.4880 H   0  0  0  0  0  0  0  0  0  0  0  0
  144.7265  133.2610  149.2260 H   0  0  0  0  0  0  0  0  0  0  0  0
  143.1283  132.5227  149.0783 H   0  0  0  0  0  0  0  0  0  0  0  0
  145.2687  135.0382  151.4851 H   0  0  0  0  0  0  0  0  0  0  0  0
  144.4702  135.1832  149.9291 H   0  0  0  0  0  0  0  0  0  0  0  0
  144.5551  137.3738  151.0118 H   0  0  0  0  0  0  0  0  0  0  0  0
  142.9132  136.8703  150.7828 H   0  0  0  0  0  0  0  0  0  0  0  0
  145.2155  138.3014  152.2702 H   0  0  0  0  0  0  0  0  0  0  0  0
  145.6612  138.7096  156.2141 H   0  0  0  0  0  0  0  0  0  0  0  0
  149.4876  140.9354  153.4413 H   0  0  0  0  0  0  0  0  0  0  0  0
  148.9469  141.8722  154.8249 H   0  0  0  0  0  0  0  0  0  0  0  0
  150.7340  139.7633  157.2656 H   0  0  0  0  0  0  0  0  0  0  0  0
  149.1460  140.4594  157.0196 H   0  0  0  0  0  0  0  0  0  0  0  0
  147.5624  139.6407  152.4316 H   0  0  0  0  0  0  0  0  0  0  0  0
  142.0843  135.9090  154.1395 H   0  0  0  0  0  0  0  0  0  0  0  0
  141.5492  136.0651  152.4949 H   0  0  0  0  0  0  0  0  0  0  0  0
  142.0003  133.7146  153.0318 H   0  0  0  0  0  0  0  0  0  0  0  0
  143.6446  134.0757  153.5224 H   0  0  0  0  0  0  0  0  0  0  0  0
  142.5225  134.3003  150.8383 H   0  0  0  0  0  0  0  0  0  0  0  0
  1  2  1  0  0  0  0
  1 22  1  0  0  0  0
  1 23  1  0  0  0  0
  1 24  1  0  0  0  0
  2  3  1  0  0  0  0
  2  4  1  0  0  0  0
  2 25  1  0  0  0  0
  3 26  1  0  0  0  0
  3 27  1  0  0  0  0
  3 28  1  0  0  0  0
  4 21  1  0  0  0  0
  4  5  1  0  0  0  0
  4 44  1  0  0  0  0
  5  6  1  0  0  0  0
  5 29  1  0  0  0  0
  5 30  1  0  0  0  0
  6  7  1  0  0  0  0
  6 31  1  0  0  0  0
  6 32  1  0  0  0  0
  7  8  1  0  0  0  0
  7 20  1  0  0  0  0
  8  9  2  0  0  0  0
  8 10  1  0  0  0  0
 10 11  1  0  0  0  0
 10 33  1  0  0  0  0
 11 19  2  0  0  0  0
 11 12  1  0  0  0  0
 12 13  2  0  0  0  0
 12 34  1  0  0  0  0
 13 14  1  0  0  0  0
 14 15  1  0  0  0  0
 14 19  1  0  0  0  0
 15 16  1  0  0  0  0
 15 35  1  0  0  0  0
 15 36  1  0  0  0  0
 16 17  1  0  0  0  0
 16 18  2  0  0  0  0
 17 37  1  0  0  0  0
 17 38  1  0  0  0  0
 19 39  1  0  0  0  0
 20 21  1  0  0  0  0
 20 40  1  0  0  0  0
 20 41  1  0  0  0  0
 21 42  1  0  0  0  0
 21 43  1  0  0  0  0
M  CHG  1   4   1
M  END
> <s_m_source_file>
AV-unprocessed.smi

> <i_m_source_file_index>
1589

> <i_lp_mmshare_version>
43012

> <i_f3d_flags>
0

> <s_epik_input>
W0NIM11bQ0hdKFtDSDNdKU4xW0NIMl1bQ0gyXU4oW0NIMl1bQ0gyXTEpQyg9TylbTkhdYzJbY0hdbm4oW2NIXTIpW0NIMl1DKD1PKVtOSDJd

> <s_epik_cmdline>
J2VwaWtfcHl0aG9uJywgJy1waCcsICc3LjAnLCAnLXRuJywgJzgnLCAnLW1hJywgJzIwMCcsICctbWV0YWxfYmluZGluZycsICctaW1hZScsICc8aW5maWxlLm1hZT4nLCAnLW9tYWUnLCAnPG91dGZpbGUubWFlPic=

> <r_lp_tautomer_probability>
1

> <r_epik_Ionization_Penalty>
0.241469

> <r_epik_Ionization_Penalty_Charging>
0.241445

> <r_epik_Ionization_Penalty_Neutral>
2.46507e-05

> <r_epik_State_Penalty>
0.232445

> <r_epik_Charging_Adjusted_Penalty>
0.47389

> <i_epik_Tot_Q>
1

> <i_epik_Tot_abs_Q>
1

> <r_epik_Metal_State_Penalty>
0.232446

> <b_epik_Metal_Only>
0

> <s_lp_Force_Field>
OPLS_2005

> <r_lp_Energy>
56.898

> <b_lp_Chiralities_Consistent>
1

> <s_lp_Variant>
AV-unprocessed.smi:1589-1

> <Gold.Version>
5.8.1

> <Gold.Id.Protein>
6NUR|6NUR_protein|mol2

> <Gold.PLP.Fitness>
39.6273

> <Gold.PLP.PLP>
-27.8824

> <Gold.PLP.part.hbond>
-3.0000

> <Gold.PLP.part.metal>
0.0000

> <Gold.PLP.part.buried>
-1.2516

> <Gold.PLP.part.nonpolar>
-25.0227

> <Gold.PLP.part.repulsive>
0.1364

> <Gold.PLP.ligand.clash>
0.0000

> <Gold.PLP.ligand.torsion>
0.1892

> <Gold.PLP.Chemscore.Hbond>
3.0000

> <Gold.PLP.Chemscore.CHOScore>
1.0000

> <Gold.PLP.Chemscore.Metal>
0.0000

> <Gold.Chemscore.Hbonds>
donor molecule, donor type, donor heavy atom, donor atom, acceptor molecule, acceptor atom, score
      L1  H     4    44       P1 10186  2.00
      P1  H  7989  7998       L1    18  1.00
      L1  C    19    39       P1  7957  1.00

> <Gold.PLP.Chemscore.Internal.Correction>
0.1231

> <Gold.Rescore>
     Score         DG    S(hbond)    S(metal)    S(lipo)     H(rot)  DE(clash)    DE(int)     intcor
     11.96     -15.00       1.89        0.00      67.54       1.84       1.67       1.37       ----

> <Gold.Chemscore.Fitness>
11.9616

> <Gold.Chemscore.DG>
-15.0021

> <Gold.Chemscore.ZeroCoef>
-5.4800

> <Gold.Chemscore.Hbond>
1.8948

> <Gold.Chemscore.Metal>
0.0000

> <Gold.Chemscore.Lipo>
67.5363

> <Gold.Chemscore.Internal_Hbond>
0.0000

> <Gold.Chemscore.DEClash>
1.6728

> <Gold.Chemscore.DEInternal>
1.3677

> <Gold.Chemscore.Rot>
1.8392

> <Gold.Chemscore.Internal.Correction>
   9.000000E+99

> <Gold.Chemscore.Hbonds>
donor molecule, donor type, donor heavy atom, donor atom, acceptor molecule, acceptor atom, score
      L1  H     4    44       P1 10186  0.29
      P1  H  7989  7998       L1    18  0.65

> <Gold.Chemscore.Hbond.Weighted>
-6.3286

> <Gold.Chemscore.Metal.Weighted>
-0.0000

> <Gold.Chemscore.Lipo.Weighted>
-7.9018

> <Gold.Chemscore.Internal_Hbond.Weighted>
0.0000

> <Gold.Chemscore.DEClash.Weighted>
1.6728

> <Gold.Chemscore.DEInternal.Weighted>
1.3677

> <Gold.Chemscore.Rot.Weighted>
4.7083

> <Gold.Chemscore.Internal.Correction.Weighted>
   9.000000E+99

> <Gold.Protein.RotatedTorsions>
[ 6907 6896 6895 6894 ] final  -93.41 input  -60.11 | X-H torsion
[ 7974 7965 7964 7962 ] final -146.07 input  175.53 | X-H torsion
[ 8008 7997 7996 7995 ] final   59.83 input   59.86 | X-H torsion
[ 10167 10162 10161 10158 ] final  167.74 input  -65.29 | X-H torsion
[ 10718 10713 10712 10709 ] final  -51.79 input   66.30 | X-H torsion
[ 10763 10752 10751 10750 ] final  127.45 input  -60.55 | X-H torsion
[ 11005 11000 10999 10996 ] final   33.68 input  -57.11 | X-H torsion

> <Gold.Protein.ActiveResidues>
 VAL166  LYS551  ARG553  GLY616  TRP617  ASP618  TYR619  PRO620  LYS621  CYS622 
 ASP623  PHE694  ASN695  SER759  ASP760  ASP761  ALA762  ILE779  LEU786  VAL792 
 PHE793  MET794  SER795  GLU796  ALA797  LYS798  CYS799  TRP800  GLU811  SER814 

> <Gold.Protein.RotatedAtoms>
  150.6922  134.1971  159.4307 H   0  0  0  0  0  0  0  0  0  0  0  0  # atno 6907 bound_to 6896
  151.9939  134.9962  160.0572 H   0  0  0  0  0  0  0  0  0  0  0  0  # atno 6908 bound_to 6896
  152.1642  133.4566  159.4913 H   0  0  0  0  0  0  0  0  0  0  0  0  # atno 6909 bound_to 6896
  144.8184  140.5503  143.5595 H   0  0  0  0  0  0  0  0  0  0  0  0  # atno 7974 bound_to 7965
  155.5725  140.3490  155.4519 H   0  0  0  0  0  0  0  0  0  0  0  0  # atno 8008 bound_to 7997
  156.0434  140.1301  157.0156 H   0  0  0  0  0  0  0  0  0  0  0  0  # atno 8009 bound_to 7997
  154.4402  140.1019  156.6255 H   0  0  0  0  0  0  0  0  0  0  0  0  # atno 8010 bound_to 7997
  139.4952  144.3889  151.9539 H   0  0  0  0  0  0  0  0  0  0  0  0  # atno 10167 bound_to 10162
  156.1679  130.4149  149.9693 H   0  0  0  0  0  0  0  0  0  0  0  0  # atno 10718 bound_to 10713
  153.7096  135.3270  155.3243 H   0  0  0  0  0  0  0  0  0  0  0  0  # atno 10763 bound_to 10752
  154.8389  135.4473  154.1328 H   0  0  0  0  0  0  0  0  0  0  0  0  # atno 10764 bound_to 10752
  153.2418  135.6972  153.7854 H   0  0  0  0  0  0  0  0  0  0  0  0  # atno 10765 bound_to 10752
  140.2606  134.3197  155.7859 H   0  0  0  0  0  0  0  0  0  0  0  0  # atno 11005 bound_to 11000
  145.5161  139.1478  143.3578 LP  0  0  0  0  0  0  0  0  0  0  0  0  # atno 17320 bound_to 7965
  146.2489  140.5301  142.8902 LP  0  0  0  0  0  0  0  0  0  0  0  0  # atno 17321 bound_to 7965
  140.3326  144.3298  150.5984 LP  0  0  0  0  0  0  0  0  0  0  0  0  # atno 17342 bound_to 10162
  140.5632  143.2189  151.7729 LP  0  0  0  0  0  0  0  0  0  0  0  0  # atno 17343 bound_to 10162
  156.7502  130.9112  151.3637 LP  0  0  0  0  0  0  0  0  0  0  0  0  # atno 17370 bound_to 10713
  157.6781  130.9113  150.0199 LP  0  0  0  0  0  0  0  0  0  0  0  0  # atno 17371 bound_to 10713
  141.2191  133.7407  156.9180 LP  0  0  0  0  0  0  0  0  0  0  0  0  # atno 17394 bound_to 11000
  140.1468  134.9256  157.2541 LP  0  0  0  0  0  0  0  0  0  0  0  0  # atno 17395 bound_to 11000

$$$$
