AV-unprocessed.smi:2046|AV-procd|sdf|8311|dock1
  -GOLD-   2272010573D 1   1.00000     0.00000
 Structure written by MMmdl.
 30 31  0  0  0  0  0  0  0  0  1 V2000
  151.2667  141.3657  156.4486 O   0  0  0  0  0  0  0  0  0  0  0  0
  151.6058  140.7024  157.4293 C   0  0  0  0  0  0  0  0  0  0  0  0
  151.7610  139.3668  157.4494 N   0  0  0  0  0  0  0  0  0  0  0  0
  151.5777  138.4428  156.3868 C   0  0  0  0  0  0  0  0  0  0  0  0
  151.7045  137.1135  156.5252 N   0  0  0  0  0  0  0  0  0  0  0  0
  151.4731  136.4424  155.3313 N   0  0  0  0  0  0  0  0  0  0  0  0
  151.1810  137.2904  154.3411 C   0  0  0  0  0  0  0  0  0  0  0  0
  151.1602  138.9921  154.7700 S   0  0  0  0  0  0  0  0  0  0  0  0
  151.8705  141.2384  158.6297 N   0  0  0  0  0  0  0  0  0  0  0  0
  151.7749  142.6578  158.9713 C   0  0  2  0  0  0  0  0  0  0  0  0
  152.2805  142.9095  160.4153 C   0  0  0  0  0  0  0  0  0  0  0  0
  151.7319  144.1704  161.1157 C   0  0  0  0  0  0  0  0  0  0  0  0
  151.9012  145.4904  160.3363 C   0  0  0  0  0  0  0  0  0  0  0  0
  151.3180  145.5325  158.9032 C   0  0  0  0  0  0  0  0  0  0  0  0
  150.2427  144.5716  158.6589 N   0  0  0  0  0  0  0  0  0  0  0  0
  150.3828  143.2347  158.6499 C   0  0  0  0  0  0  0  0  0  0  0  0
  149.4309  142.4908  158.4156 O   0  0  0  0  0  0  0  0  0  0  0  0
  152.0421  138.9625  158.3305 H   0  0  0  0  0  0  0  0  0  0  0  0
  150.9766  136.9108  153.3509 H   0  0  0  0  0  0  0  0  0  0  0  0
  152.1383  140.6171  159.3793 H   0  0  0  0  0  0  0  0  0  0  0  0
  152.4566  143.1738  158.2938 H   0  0  0  0  0  0  0  0  0  0  0  0
  152.0273  142.0525  161.0411 H   0  0  0  0  0  0  0  0  0  0  0  0
  153.3704  142.9515  160.4043 H   0  0  0  0  0  0  0  0  0  0  0  0
  150.6767  144.0243  161.3506 H   0  0  0  0  0  0  0  0  0  0  0  0
  152.2236  144.2718  162.0836 H   0  0  0  0  0  0  0  0  0  0  0  0
  151.4275  146.2791  160.9218 H   0  0  0  0  0  0  0  0  0  0  0  0
  152.9581  145.7558  160.2944 H   0  0  0  0  0  0  0  0  0  0  0  0
  150.9377  146.5330  158.6951 H   0  0  0  0  0  0  0  0  0  0  0  0
  152.1114  145.3715  158.1726 H   0  0  0  0  0  0  0  0  0  0  0  0
  149.3276  144.9507  158.4627 H   0  0  0  0  0  0  0  0  0  0  0  0
  1  2  2  0  0  0  0
  2  3  1  0  0  0  0
  2  9  1  0  0  0  0
  3  4  1  0  0  0  0
  3 18  1  0  0  0  0
  4  8  1  0  0  0  0
  4  5  2  0  0  0  0
  5  6  1  0  0  0  0
  6  7  2  0  0  0  0
  7  8  1  0  0  0  0
  7 19  1  0  0  0  0
  9 10  1  0  0  0  0
  9 20  1  0  0  0  0
 10 16  1  0  0  0  0
 10 11  1  0  0  0  0
 10 21  1  0  0  0  0
 11 12  1  0  0  0  0
 11 22  1  0  0  0  0
 11 23  1  0  0  0  0
 12 13  1  0  0  0  0
 12 24  1  0  0  0  0
 12 25  1  0  0  0  0
 13 14  1  0  0  0  0
 13 26  1  0  0  0  0
 13 27  1  0  0  0  0
 14 15  1  0  0  0  0
 14 28  1  0  0  0  0
 14 29  1  0  0  0  0
 15 16  1  0  0  0  0
 15 30  1  0  0  0  0
 16 17  2  0  0  0  0
M  END
> <s_m_source_file>
AV-unprocessed.smi

> <i_m_source_file_index>
2046

> <i_lp_mmshare_version>
43012

> <i_f3d_flags>
0

> <s_epik_input>
czFbY0hdbm5jMVtOSF1DKD1PKVtOSF1bQ0BASF0yW0NIMl1bQ0gyXVtDSDJdW0NIMl1bTkhdQzI9Tw==

> <s_epik_cmdline>
J2VwaWtfcHl0aG9uJywgJy1waCcsICc3LjAnLCAnLXRuJywgJzgnLCAnLW1hJywgJzIwMCcsICctbWV0YWxfYmluZGluZycsICctaW1hZScsICc8aW5maWxlLm1hZT4nLCAnLW9tYWUnLCAnPG91dGZpbGUubWFlPic=

> <r_lp_tautomer_probability>
1

> <r_epik_Ionization_Penalty>
0.000691558

> <r_epik_Ionization_Penalty_Charging>
0

> <r_epik_Ionization_Penalty_Neutral>
0.000691558

> <r_epik_State_Penalty>
-0

> <r_epik_Charging_Adjusted_Penalty>
0

> <i_epik_Tot_Q>
0

> <i_epik_Tot_abs_Q>
0

> <r_epik_Metal_State_Penalty>
0.252698

> <b_epik_Metal_Only>
0

> <s_lp_Force_Field>
OPLS_2005

> <r_lp_Energy>
13.4172

> <b_lp_Chiralities_Consistent>
1

> <s_lp_Variant>
AV-unprocessed.smi:2046-1

> <Gold.Version>
5.8.1

> <Gold.Id.Protein>
6NUR|6NUR_protein|mol2

> <Gold.PLP.Fitness>
37.0743

> <Gold.PLP.PLP>
-28.5918

> <Gold.PLP.part.hbond>
-2.2320

> <Gold.PLP.part.metal>
0.0000

> <Gold.PLP.part.buried>
-2.0844

> <Gold.PLP.part.nonpolar>
-24.4684

> <Gold.PLP.part.repulsive>
0.5908

> <Gold.PLP.ligand.clash>
0.0000

> <Gold.PLP.ligand.torsion>
0.0280

> <Gold.PLP.Chemscore.Hbond>
1.8288

> <Gold.PLP.Chemscore.CHOScore>
1.0000

> <Gold.PLP.Chemscore.Metal>
0.0000

> <Gold.Chemscore.Hbonds>
donor molecule, donor type, donor heavy atom, donor atom, acceptor molecule, acceptor atom, score
      L1  H    15    30       P1  8029  0.81
      P1  H 10752 10764       L1     6  1.00
      L1  C     7    19       P1  7949  1.00

> <Gold.PLP.Chemscore.Internal.Correction>
0.0524

> <Gold.Rescore>
     Score         DG    S(hbond)    S(metal)    S(lipo)     H(rot)  DE(clash)    DE(int)     intcor
     11.06     -16.42       1.49        0.00      72.73       1.00       0.97       4.39       ----

> <Gold.Chemscore.Fitness>
11.0613

> <Gold.Chemscore.DG>
-16.4224

> <Gold.Chemscore.ZeroCoef>
-5.4800

> <Gold.Chemscore.Hbond>
1.4950

> <Gold.Chemscore.Metal>
0.0000

> <Gold.Chemscore.Lipo>
72.7278

> <Gold.Chemscore.Internal_Hbond>
0.0000

> <Gold.Chemscore.DEClash>
0.9669

> <Gold.Chemscore.DEInternal>
4.3941

> <Gold.Chemscore.Rot>
1.0000

> <Gold.Chemscore.Internal.Correction>
   9.000000E+99

> <Gold.Chemscore.Hbonds>
donor molecule, donor type, donor heavy atom, donor atom, acceptor molecule, acceptor atom, score
      L1  H    15    30       P1  8029  0.55
      P1  H 10752 10764       L1     6  0.24

> <Gold.Chemscore.Hbond.Weighted>
-4.9933

> <Gold.Chemscore.Metal.Weighted>
-0.0000

> <Gold.Chemscore.Lipo.Weighted>
-8.5092

> <Gold.Chemscore.Internal_Hbond.Weighted>
0.0000

> <Gold.Chemscore.DEClash.Weighted>
0.9669

> <Gold.Chemscore.DEInternal.Weighted>
4.3941

> <Gold.Chemscore.Rot.Weighted>
2.5600

> <Gold.Chemscore.Internal.Correction.Weighted>
   9.000000E+99

> <Gold.Protein.RotatedTorsions>
[ 6907 6896 6895 6894 ] final  -13.38 input  -60.11 | X-H torsion
[ 7974 7965 7964 7962 ] final  163.96 input  175.53 | X-H torsion
[ 8008 7997 7996 7995 ] final -108.51 input   59.86 | X-H torsion
[ 10167 10162 10161 10158 ] final -160.55 input  -65.29 | X-H torsion
[ 10718 10713 10712 10709 ] final  114.31 input   66.30 | X-H torsion
[ 10763 10752 10751 10750 ] final  -60.53 input  -60.55 | X-H torsion
[ 11005 11000 10999 10996 ] final  152.75 input  -57.11 | X-H torsion

> <Gold.Protein.ActiveResidues>
 VAL166  LYS551  ARG553  GLY616  TRP617  ASP618  TYR619  PRO620  LYS621  CYS622 
 ASP623  PHE694  ASN695  SER759  ASP760  ASP761  ALA762  ILE779  LEU786  VAL792 
 PHE793  MET794  SER795  GLU796  ALA797  LYS798  CYS799  TRP800  GLU811  SER814 

> <Gold.Protein.RotatedAtoms>
  151.3557  135.0894  159.9417 H   0  0  0  0  0  0  0  0  0  0  0  0  # atno 6907 bound_to 6896
  152.5175  133.9308  159.7590 H   0  0  0  0  0  0  0  0  0  0  0  0  # atno 6908 bound_to 6896
  150.9692  133.6308  159.2770 H   0  0  0  0  0  0  0  0  0  0  0  0  # atno 6909 bound_to 6896
  144.7566  139.8258  143.6347 H   0  0  0  0  0  0  0  0  0  0  0  0  # atno 7974 bound_to 7965
  154.9454  140.0402  157.2117 H   0  0  0  0  0  0  0  0  0  0  0  0  # atno 8008 bound_to 7997
  154.8029  140.2855  155.5886 H   0  0  0  0  0  0  0  0  0  0  0  0  # atno 8009 bound_to 7997
  156.2963  140.2551  156.2901 H   0  0  0  0  0  0  0  0  0  0  0  0  # atno 8010 bound_to 7997
  139.6531  144.0047  152.2175 H   0  0  0  0  0  0  0  0  0  0  0  0  # atno 10167 bound_to 10162
  157.6288  131.0997  150.7168 H   0  0  0  0  0  0  0  0  0  0  0  0  # atno 10718 bound_to 10713
  154.2707  135.6291  153.5309 H   0  0  0  0  0  0  0  0  0  0  0  0  # atno 10763 bound_to 10752
  152.9880  135.5609  154.5603 H   0  0  0  0  0  0  0  0  0  0  0  0  # atno 10764 bound_to 10752
  154.5173  135.2880  155.1268 H   0  0  0  0  0  0  0  0  0  0  0  0  # atno 10765 bound_to 10752
  140.1335  134.8786  157.2236 H   0  0  0  0  0  0  0  0  0  0  0  0  # atno 11005 bound_to 11000
  146.1583  139.4688  143.0004 LP  0  0  0  0  0  0  0  0  0  0  0  0  # atno 17320 bound_to 7965
  145.6759  141.0204  143.1633 LP  0  0  0  0  0  0  0  0  0  0  0  0  # atno 17321 bound_to 7965
  139.9767  144.6457  150.7939 LP  0  0  0  0  0  0  0  0  0  0  0  0  # atno 17342 bound_to 10162
  140.7547  143.3032  151.3028 LP  0  0  0  0  0  0  0  0  0  0  0  0  # atno 17343 bound_to 10162
  156.7511  130.4769  149.5456 LP  0  0  0  0  0  0  0  0  0  0  0  0  # atno 17370 bound_to 10713
  156.1478  130.6289  151.0554 LP  0  0  0  0  0  0  0  0  0  0  0  0  # atno 17371 bound_to 10713
  140.2811  134.3348  155.7343 LP  0  0  0  0  0  0  0  0  0  0  0  0  # atno 17394 bound_to 11000
  141.2174  133.7479  156.9366 LP  0  0  0  0  0  0  0  0  0  0  0  0  # atno 17395 bound_to 11000

$$$$
