AV-unprocessed.smi:2247|AV-procd|sdf|9091|dock6
  -GOLD-   2272012293D 1   1.00000     0.00000
 Structure written by MMmdl.
 34 35  0  0  0  0  0  0  0  0  1 V2000
  152.5331  143.1912  161.7895 C   0  0  0  0  0  0  0  0  0  0  0  0
  152.4976  143.9130  160.4325 C   0  0  0  0  0  0  0  0  0  0  0  0
  151.5664  145.1348  160.4260 C   0  0  0  0  0  0  0  0  0  0  0  0
  152.1696  143.0015  159.3279 N   0  0  0  0  0  0  0  0  0  0  0  0
  151.0792  143.2743  158.4044 C   0  0  0  0  0  0  0  0  0  0  0  0
  150.9264  141.9837  157.5945 C   0  0  0  0  0  0  0  0  0  0  0  0
  152.2529  141.2237  157.7501 C   0  0  2  0  0  0  0  0  0  0  0  0
  151.9943  139.7982  157.9488 N   0  0  0  0  0  0  0  0  0  0  0  0
  152.3281  138.8169  157.0966 C   0  0  0  0  0  0  0  0  0  0  0  0
  152.9021  139.0526  156.0286 O   0  0  0  0  0  0  0  0  0  0  0  0
  151.9046  137.5906  157.5872 N   0  0  0  0  0  0  0  0  0  0  0  0
  151.2837  136.7674  156.7987 C   0  0  0  0  0  0  0  0  0  0  0  0
  150.8919  136.8464  155.4647 N   0  0  0  0  0  0  0  0  0  0  0  0
  150.2508  135.6839  155.1391 C   0  0  0  0  0  0  0  0  0  0  0  0
  150.2378  134.9053  156.2169 C   0  0  0  0  0  0  0  0  0  0  0  0
  150.8626  135.5411  157.2478 O   0  0  0  0  0  0  0  0  0  0  0  0
  152.8226  141.8737  159.0121 C   0  0  0  0  0  0  0  0  0  0  0  0
  153.7883  141.4089  159.6184 O   0  0  0  0  0  0  0  0  0  0  0  0
  152.9115  143.8530  162.5690 H   0  0  0  0  0  0  0  0  0  0  0  0
  153.1857  142.3182  161.7552 H   0  0  0  0  0  0  0  0  0  0  0  0
  151.5419  142.8604  162.0999 H   0  0  0  0  0  0  0  0  0  0  0  0
  153.5081  144.2926  160.2712 H   0  0  0  0  0  0  0  0  0  0  0  0
  151.8583  145.8520  161.1935 H   0  0  0  0  0  0  0  0  0  0  0  0
  150.5318  144.8488  160.6173 H   0  0  0  0  0  0  0  0  0  0  0  0
  151.5992  145.6491  159.4649 H   0  0  0  0  0  0  0  0  0  0  0  0
  150.1497  143.5305  158.9124 H   0  0  0  0  0  0  0  0  0  0  0  0
  151.3558  144.1071  157.7567 H   0  0  0  0  0  0  0  0  0  0  0  0
  150.0972  141.4039  158.0044 H   0  0  0  0  0  0  0  0  0  0  0  0
  150.6915  142.1849  156.5488 H   0  0  0  0  0  0  0  0  0  0  0  0
  152.9161  141.4159  156.9051 H   0  0  0  0  0  0  0  0  0  0  0  0
  151.5228  139.5375  158.8026 H   0  0  0  0  0  0  0  0  0  0  0  0
  151.0351  137.6064  154.8150 H   0  0  0  0  0  0  0  0  0  0  0  0
  149.8609  135.5346  154.1430 H   0  0  0  0  0  0  0  0  0  0  0  0
  149.8413  133.9182  156.4034 H   0  0  0  0  0  0  0  0  0  0  0  0
  1  2  1  0  0  0  0
  1 19  1  0  0  0  0
  1 20  1  0  0  0  0
  1 21  1  0  0  0  0
  2  3  1  0  0  0  0
  2  4  1  0  0  0  0
  2 22  1  0  0  0  0
  3 23  1  0  0  0  0
  3 24  1  0  0  0  0
  3 25  1  0  0  0  0
  4 17  1  0  0  0  0
  4  5  1  0  0  0  0
  5  6  1  0  0  0  0
  5 26  1  0  0  0  0
  5 27  1  0  0  0  0
  6  7  1  0  0  0  0
  6 28  1  0  0  0  0
  6 29  1  0  0  0  0
  7  8  1  0  0  0  0
  7 17  1  0  0  0  0
  7 30  1  0  0  0  0
  8 31  1  0  0  0  0
  8  9  1  0  0  0  0
  9 11  1  0  0  0  0
  9 10  2  0  0  0  0
 11 12  2  0  0  0  0
 12 16  1  0  0  0  0
 12 13  1  0  0  0  0
 13 32  1  0  0  0  0
 13 14  1  0  0  0  0
 14 33  1  0  0  0  0
 14 15  2  0  0  0  0
 15 34  1  0  0  0  0
 15 16  1  0  0  0  0
 17 18  2  0  0  0  0
M  END
> <s_m_source_file>
AV-unprocessed.smi

> <i_m_source_file_index>
2247

> <i_lp_mmshare_version>
43012

> <i_f3d_flags>
0

> <s_epik_input>
W0NIM11bQ0hdKFtDSDNdKU4xW0NIMl1bQ0gyXVtDQEhdKEMxPU8pW05IXUMoPU8pW05IXWMybltjSF1bY0hdbzI=

> <s_epik_cmdline>
J2VwaWtfcHl0aG9uJywgJy1waCcsICc3LjAnLCAnLXRuJywgJzgnLCAnLW1hJywgJzIwMCcsICctbWV0YWxfYmluZGluZycsICctaW1hZScsICc8aW5maWxlLm1hZT4nLCAnLW9tYWUnLCAnPG91dGZpbGUubWFlPic=

> <r_lp_tautomer_probability>
0.107061

> <r_epik_Ionization_Penalty>
0.180736

> <r_epik_Ionization_Penalty_Charging>
0.180388

> <r_epik_Ionization_Penalty_Neutral>
0.000348501

> <r_epik_State_Penalty>
2.44396

> <r_epik_Charging_Adjusted_Penalty>
2.62435

> <i_epik_Tot_Q>
0

> <i_epik_Tot_abs_Q>
0

> <r_epik_Metal_State_Penalty>
4.38331

> <b_epik_Metal_Only>
0

> <s_lp_Force_Field>
OPLS_2005

> <r_lp_Energy>
46.2393

> <b_lp_Chiralities_Consistent>
1

> <s_lp_Variant>
AV-unprocessed.smi:2247-6

> <Gold.Version>
5.8.1

> <Gold.Id.Protein>
6NUR|6NUR_protein|mol2

> <Gold.PLP.Fitness>
36.4287

> <Gold.PLP.PLP>
-31.4063

> <Gold.PLP.part.hbond>
-1.9058

> <Gold.PLP.part.metal>
0.0000

> <Gold.PLP.part.buried>
-6.0430

> <Gold.PLP.part.nonpolar>
-23.2382

> <Gold.PLP.part.repulsive>
0.1471

> <Gold.PLP.ligand.clash>
0.0000

> <Gold.PLP.ligand.torsion>
0.5262

> <Gold.PLP.Chemscore.Hbond>
1.0000

> <Gold.PLP.Chemscore.CHOScore>
0.9927

> <Gold.PLP.Chemscore.Metal>
0.0000

> <Gold.Chemscore.Hbonds>
donor molecule, donor type, donor heavy atom, donor atom, acceptor molecule, acceptor atom, score
      P1  H  7997  8009       L1    10  1.00
      L1  C    14    33       P1  7948  0.83

> <Gold.PLP.Chemscore.Internal.Correction>
0.0967

> <Gold.Rescore>
     Score         DG    S(hbond)    S(metal)    S(lipo)     H(rot)  DE(clash)    DE(int)     intcor
     15.46     -16.00       1.75        0.00      69.11       1.33       0.00       0.54       ----

> <Gold.Chemscore.Fitness>
15.4649

> <Gold.Chemscore.DG>
-16.0009

> <Gold.Chemscore.ZeroCoef>
-5.4800

> <Gold.Chemscore.Hbond>
1.7515

> <Gold.Chemscore.Metal>
0.0000

> <Gold.Chemscore.Lipo>
69.1059

> <Gold.Chemscore.Internal_Hbond>
0.0000

> <Gold.Chemscore.DEClash>
0.0000

> <Gold.Chemscore.DEInternal>
0.5360

> <Gold.Chemscore.Rot>
1.3338

> <Gold.Chemscore.Internal.Correction>
   9.000000E+99

> <Gold.Chemscore.Hbonds>
donor molecule, donor type, donor heavy atom, donor atom, acceptor molecule, acceptor atom, score
      P1  H  7997  8009       L1    10  0.88

> <Gold.Chemscore.Hbond.Weighted>
-5.8500

> <Gold.Chemscore.Metal.Weighted>
-0.0000

> <Gold.Chemscore.Lipo.Weighted>
-8.0854

> <Gold.Chemscore.Internal_Hbond.Weighted>
0.0000

> <Gold.Chemscore.DEClash.Weighted>
0.0000

> <Gold.Chemscore.DEInternal.Weighted>
0.5360

> <Gold.Chemscore.Rot.Weighted>
3.4145

> <Gold.Chemscore.Internal.Correction.Weighted>
   9.000000E+99

> <Gold.Protein.RotatedTorsions>
[ 6907 6896 6895 6894 ] final  -47.14 input  -60.11 | X-H torsion
[ 7974 7965 7964 7962 ] final   36.02 input  175.53 | X-H torsion
[ 8008 7997 7996 7995 ] final -154.74 input   59.86 | X-H torsion
[ 10167 10162 10161 10158 ] final   96.28 input  -65.29 | X-H torsion
[ 10718 10713 10712 10709 ] final  -38.35 input   66.30 | X-H torsion
[ 10763 10752 10751 10750 ] final   91.51 input  -60.55 | X-H torsion
[ 11005 11000 10999 10996 ] final  144.62 input  -57.11 | X-H torsion

> <Gold.Protein.ActiveResidues>
 VAL166  LYS551  ARG553  GLY616  TRP617  ASP618  TYR619  PRO620  LYS621  CYS622 
 ASP623  PHE694  ASN695  SER759  ASP760  ASP761  ALA762  ILE779  LEU786  VAL792 
 PHE793  MET794  SER795  GLU796  ALA797  LYS798  CYS799  TRP800  GLU811  SER814 

> <Gold.Protein.RotatedAtoms>
  150.9039  134.8453  159.7378 H   0  0  0  0  0  0  0  0  0  0  0  0  # atno 6907 bound_to 6896
  152.4908  134.4460  159.9569 H   0  0  0  0  0  0  0  0  0  0  0  0  # atno 6908 bound_to 6896
  151.4509  133.3578  159.2830 H   0  0  0  0  0  0  0  0  0  0  0  0  # atno 6909 bound_to 6896
  146.1241  139.6069  142.9270 H   0  0  0  0  0  0  0  0  0  0  0  0  # atno 7974 bound_to 7965
  155.6910  140.0755  157.2448 H   0  0  0  0  0  0  0  0  0  0  0  0  # atno 8008 bound_to 7997
  154.4088  140.1664  156.2139 H   0  0  0  0  0  0  0  0  0  0  0  0  # atno 8009 bound_to 7997
  155.9451  140.3381  155.6363 H   0  0  0  0  0  0  0  0  0  0  0  0  # atno 8010 bound_to 7997
  139.7909  144.6852  150.9893 H   0  0  0  0  0  0  0  0  0  0  0  0  # atno 10167 bound_to 10162
  156.3048  130.4245  149.8108 H   0  0  0  0  0  0  0  0  0  0  0  0  # atno 10718 bound_to 10713
  153.2090  135.4395  155.0357 H   0  0  0  0  0  0  0  0  0  0  0  0  # atno 10763 bound_to 10752
  154.8190  135.3328  154.7097 H   0  0  0  0  0  0  0  0  0  0  0  0  # atno 10764 bound_to 10752
  153.7536  135.6996  153.4996 H   0  0  0  0  0  0  0  0  0  0  0  0  # atno 10765 bound_to 10752
  140.0647  134.9185  157.1243 H   0  0  0  0  0  0  0  0  0  0  0  0  # atno 11005 bound_to 11000
  145.5403  141.0421  143.2334 LP  0  0  0  0  0  0  0  0  0  0  0  0  # atno 17320 bound_to 7965
  144.7625  139.6922  143.7228 LP  0  0  0  0  0  0  0  0  0  0  0  0  # atno 17321 bound_to 7965
  140.7820  143.4382  151.0592 LP  0  0  0  0  0  0  0  0  0  0  0  0  # atno 17342 bound_to 10162
  139.8058  143.8019  152.3167 LP  0  0  0  0  0  0  0  0  0  0  0  0  # atno 17343 bound_to 10162
  156.5473  130.8326  151.3288 LP  0  0  0  0  0  0  0  0  0  0  0  0  # atno 17370 bound_to 10713
  157.7377  130.9800  150.2207 LP  0  0  0  0  0  0  0  0  0  0  0  0  # atno 17371 bound_to 10713
  140.3717  134.2383  155.7177 LP  0  0  0  0  0  0  0  0  0  0  0  0  # atno 17394 bound_to 11000
  141.1987  133.8028  157.0568 LP  0  0  0  0  0  0  0  0  0  0  0  0  # atno 17395 bound_to 11000

$$$$
