AV-unprocessed.smi:2339|AV-procd|sdf|9340|dock5
  -GOLD-   2272012563D 1   1.00000     0.00000
 Structure written by MMmdl.
 49 52  0  0  0  0  0  0  0  0  1 V2000
  149.4166  128.6609  154.1510 C   0  0  0  0  0  0  0  0  0  0  0  0
  148.8720  130.0329  153.7386 C   0  0  0  0  0  0  0  0  0  0  0  0
  149.5545  131.1156  154.4325 N   0  0  0  0  0  0  0  0  0  0  0  0
  150.3932  130.8652  155.5135 C   0  0  0  0  0  0  0  0  0  0  0  0
  150.9999  131.8263  156.2361 C   0  0  0  0  0  0  0  0  0  0  0  0
  150.7769  133.2436  155.8868 C   0  0  0  0  0  0  0  0  0  0  0  0
  151.3153  134.1465  156.5271 O   0  0  0  0  0  0  0  0  0  0  0  0
  149.8773  133.5121  154.7338 C   0  0  0  0  0  0  0  0  0  0  0  0
  149.6807  134.8632  154.4045 N   0  0  0  0  0  0  0  0  0  0  0  0
  149.4997  135.9295  155.2101 C   0  0  0  0  0  0  0  0  0  0  0  0
  149.5160  135.9065  156.4384 O   0  0  0  0  0  0  0  0  0  0  0  0
  149.2835  137.0780  154.5462 N   0  0  0  0  0  0  0  0  0  0  0  0
  149.0516  138.4081  155.1099 C   0  0  2  0  0  0  0  0  0  0  0  0
  148.4686  139.3727  154.0763 C   0  0  1  0  0  0  0  0  0  0  0  0
  147.1529  140.0441  153.9055 C   0  0  0  0  0  0  0  0  0  0  0  0
  147.6790  141.4723  153.6040 C   0  0  0  0  0  0  0  0  0  0  0  0
  149.0973  141.4428  153.8960 O   0  0  0  0  0  0  0  0  0  0  0  0
  149.2230  140.4223  154.8654 C   0  0  2  0  0  0  0  0  0  0  0  0
  150.3130  139.3559  155.0879 C   0  0  0  0  0  0  0  0  0  0  0  0
  151.4045  139.1770  154.0211 C   0  0  0  0  0  0  0  0  0  0  0  0
  152.5560  138.4243  154.6853 C   0  0  0  0  0  0  0  0  0  0  0  0
  152.4906  138.8052  156.1641 C   0  0  0  0  0  0  0  0  0  0  0  0
  151.1270  139.4744  156.3769 C   0  0  0  0  0  0  0  0  0  0  0  0
  149.3325  132.4479  154.0905 C   0  0  0  0  0  0  0  0  0  0  0  0
  148.8937  127.8627  153.6242 H   0  0  0  0  0  0  0  0  0  0  0  0
  149.2908  128.4924  155.2209 H   0  0  0  0  0  0  0  0  0  0  0  0
  150.4785  128.5729  153.9191 H   0  0  0  0  0  0  0  0  0  0  0  0
  148.9799  130.1662  152.6615 H   0  0  0  0  0  0  0  0  0  0  0  0
  147.8027  130.0845  153.9469 H   0  0  0  0  0  0  0  0  0  0  0  0
  150.5333  129.8170  155.7352 H   0  0  0  0  0  0  0  0  0  0  0  0
  151.6469  131.5840  157.0664 H   0  0  0  0  0  0  0  0  0  0  0  0
  149.6565  135.0504  153.4126 H   0  0  0  0  0  0  0  0  0  0  0  0
  149.2823  137.0224  153.5380 H   0  0  0  0  0  0  0  0  0  0  0  0
  148.4975  138.4089  156.0533 H   0  0  0  0  0  0  0  0  0  0  0  0
  148.9128  139.1905  153.0932 H   0  0  0  0  0  0  0  0  0  0  0  0
  146.5687  139.6302  153.0834 H   0  0  0  0  0  0  0  0  0  0  0  0
  146.5571  140.0123  154.8188 H   0  0  0  0  0  0  0  0  0  0  0  0
  147.5273  141.7511  152.5609 H   0  0  0  0  0  0  0  0  0  0  0  0
  147.1760  142.2114  154.2292 H   0  0  0  0  0  0  0  0  0  0  0  0
  148.7342  140.7130  155.8024 H   0  0  0  0  0  0  0  0  0  0  0  0
  151.0664  138.6488  153.1299 H   0  0  0  0  0  0  0  0  0  0  0  0
  151.7568  140.1547  153.6896 H   0  0  0  0  0  0  0  0  0  0  0  0
  152.4022  137.3502  154.5785 H   0  0  0  0  0  0  0  0  0  0  0  0
  153.5204  138.6619  154.2353 H   0  0  0  0  0  0  0  0  0  0  0  0
  152.6070  137.9247  156.7970 H   0  0  0  0  0  0  0  0  0  0  0  0
  153.2928  139.4980  156.4206 H   0  0  0  0  0  0  0  0  0  0  0  0
  151.2796  140.5251  156.6263 H   0  0  0  0  0  0  0  0  0  0  0  0
  150.6048  139.0333  157.2253 H   0  0  0  0  0  0  0  0  0  0  0  0
  148.6794  132.5455  153.2385 H   0  0  0  0  0  0  0  0  0  0  0  0
  1  2  1  0  0  0  0
  1 25  1  0  0  0  0
  1 26  1  0  0  0  0
  1 27  1  0  0  0  0
  2  3  1  0  0  0  0
  2 28  1  0  0  0  0
  2 29  1  0  0  0  0
  3 24  1  0  0  0  0
  3  4  1  0  0  0  0
  4  5  2  0  0  0  0
  4 30  1  0  0  0  0
  5  6  1  0  0  0  0
  5 31  1  0  0  0  0
  6  7  2  0  0  0  0
  6  8  1  0  0  0  0
  8  9  1  0  0  0  0
  8 24  2  0  0  0  0
  9 10  1  0  0  0  0
  9 32  1  0  0  0  0
 10 11  2  0  0  0  0
 10 12  1  0  0  0  0
 12 13  1  0  0  0  0
 12 33  1  0  0  0  0
 13 19  1  0  0  0  0
 13 14  1  0  0  0  0
 13 34  1  0  0  0  0
 14 18  1  0  0  0  0
 14 15  1  0  0  0  0
 14 35  1  0  0  0  0
 15 16  1  0  0  0  0
 15 36  1  0  0  0  0
 15 37  1  0  0  0  0
 16 17  1  0  0  0  0
 16 38  1  0  0  0  0
 16 39  1  0  0  0  0
 17 18  1  0  0  0  0
 18 19  1  0  0  0  0
 18 40  1  0  0  0  0
 19 23  1  0  0  0  0
 19 20  1  0  0  0  0
 20 21  1  0  0  0  0
 20 41  1  0  0  0  0
 20 42  1  0  0  0  0
 21 22  1  0  0  0  0
 21 43  1  0  0  0  0
 21 44  1  0  0  0  0
 22 23  1  0  0  0  0
 22 45  1  0  0  0  0
 22 46  1  0  0  0  0
 23 47  1  0  0  0  0
 23 48  1  0  0  0  0
 24 49  1  0  0  0  0
M  END
> <s_m_source_file>
AV-unprocessed.smi

> <i_m_source_file_index>
2339

> <i_lp_mmshare_version>
43012

> <i_f3d_flags>
0

> <s_epik_input>
W0NIM11bQ0gyXW4xW2NIXVtjSF1jKD1PKWMoW2NIXTEpW05IXUMoPU8pW05IXVtDQEBIXTJbQ0BASF0oW0NIMl1bQ0gyXU8zKVtDQEBIXTNDMjRbQ0gyXVtDSDJdW0NIMl1bQ0gyXTQ=

> <s_epik_cmdline>
J2VwaWtfcHl0aG9uJywgJy1waCcsICc3LjAnLCAnLXRuJywgJzgnLCAnLW1hJywgJzIwMCcsICctbWV0YWxfYmluZGluZycsICctaW1hZScsICc8aW5maWxlLm1hZT4nLCAnLW9tYWUnLCAnPG91dGZpbGUubWFlPic=

> <r_lp_tautomer_probability>
1

> <r_epik_Ionization_Penalty>
0.00145966

> <r_epik_Ionization_Penalty_Charging>
0.00143969

> <r_epik_Ionization_Penalty_Neutral>
1.99697e-05

> <r_epik_State_Penalty>
0.000961843

> <r_epik_Charging_Adjusted_Penalty>
0.00240153

> <i_epik_Tot_Q>
0

> <i_epik_Tot_abs_Q>
0

> <r_epik_Metal_State_Penalty>
-0

> <b_epik_Metal_Only>
0

> <s_lp_Force_Field>
OPLS_2005

> <r_lp_Energy>
78.6194

> <b_lp_Chiralities_Consistent>
1

> <s_lp_Variant>
AV-unprocessed.smi:2339-5

> <Gold.Version>
5.8.1

> <Gold.Id.Protein>
6NUR|6NUR_protein|mol2

> <Gold.PLP.Fitness>
43.3372

> <Gold.PLP.PLP>
-37.8784

> <Gold.PLP.part.hbond>
-3.7636

> <Gold.PLP.part.metal>
0.0000

> <Gold.PLP.part.buried>
-2.9252

> <Gold.PLP.part.nonpolar>
-31.8415

> <Gold.PLP.part.repulsive>
0.3991

> <Gold.PLP.ligand.clash>
0.0000

> <Gold.PLP.ligand.torsion>
0.6439

> <Gold.PLP.Chemscore.Hbond>
2.1520

> <Gold.PLP.Chemscore.CHOScore>
0.0000

> <Gold.PLP.Chemscore.Metal>
0.0000

> <Gold.Chemscore.Hbonds>
donor molecule, donor type, donor heavy atom, donor atom, acceptor molecule, acceptor atom, score
      L1  H     9    32       P1  7948  0.35
      L1  H    12    33       P1  7948  1.00
      P1  H  8011  8017       L1    17  0.74

> <Gold.PLP.Chemscore.Internal.Correction>
0.2905

> <Gold.Rescore>
     Score         DG    S(hbond)    S(metal)    S(lipo)     H(rot)  DE(clash)    DE(int)     intcor
     11.53     -19.42       1.65        0.00      97.71       1.17       3.55       4.34       ----

> <Gold.Chemscore.Fitness>
11.5286

> <Gold.Chemscore.DG>
-19.4232

> <Gold.Chemscore.ZeroCoef>
-5.4800

> <Gold.Chemscore.Hbond>
1.6463

> <Gold.Chemscore.Metal>
0.0000

> <Gold.Chemscore.Lipo>
97.7088

> <Gold.Chemscore.Internal_Hbond>
0.0000

> <Gold.Chemscore.DEClash>
3.5548

> <Gold.Chemscore.DEInternal>
4.3399

> <Gold.Chemscore.Rot>
1.1670

> <Gold.Chemscore.Internal.Correction>
   9.000000E+99

> <Gold.Chemscore.Hbonds>
donor molecule, donor type, donor heavy atom, donor atom, acceptor molecule, acceptor atom, score
      L1  H     9    32       P1  7948  0.01
      L1  H    12    33       P1  7948  0.97
      P1  H  8011  8017       L1    17  0.19

> <Gold.Chemscore.Hbond.Weighted>
-5.4987

> <Gold.Chemscore.Metal.Weighted>
-0.0000

> <Gold.Chemscore.Lipo.Weighted>
-11.4319

> <Gold.Chemscore.Internal_Hbond.Weighted>
0.0000

> <Gold.Chemscore.DEClash.Weighted>
3.5548

> <Gold.Chemscore.DEInternal.Weighted>
4.3399

> <Gold.Chemscore.Rot.Weighted>
2.9874

> <Gold.Chemscore.Internal.Correction.Weighted>
   9.000000E+99

> <Gold.Protein.RotatedTorsions>
[ 6907 6896 6895 6894 ] final  -31.49 input  -60.11 | X-H torsion
[ 7974 7965 7964 7962 ] final   17.26 input  175.53 | X-H torsion
[ 8008 7997 7996 7995 ] final   50.59 input   59.86 | X-H torsion
[ 10167 10162 10161 10158 ] final   20.35 input  -65.29 | X-H torsion
[ 10718 10713 10712 10709 ] final -155.96 input   66.30 | X-H torsion
[ 10763 10752 10751 10750 ] final   41.82 input  -60.55 | X-H torsion
[ 11005 11000 10999 10996 ] final  139.52 input  -57.11 | X-H torsion

> <Gold.Protein.ActiveResidues>
 VAL166  LYS551  ARG553  GLY616  TRP617  ASP618  TYR619  PRO620  LYS621  CYS622 
 ASP623  PHE694  ASN695  SER759  ASP760  ASP761  ALA762  ILE779  LEU786  VAL792 
 PHE793  MET794  SER795  GLU796  ALA797  LYS798  CYS799  TRP800  GLU811  SER814 

> <Gold.Protein.RotatedAtoms>
  151.0914  134.9918  159.8404 H   0  0  0  0  0  0  0  0  0  0  0  0  # atno 6907 bound_to 6896
  152.5429  134.2060  159.8741 H   0  0  0  0  0  0  0  0  0  0  0  0  # atno 6908 bound_to 6896
  151.2097  133.4519  159.2631 H   0  0  0  0  0  0  0  0  0  0  0  0  # atno 6909 bound_to 6896
  146.2224  139.8628  142.8601 H   0  0  0  0  0  0  0  0  0  0  0  0  # atno 7974 bound_to 7965
  155.4212  140.3446  155.4271 H   0  0  0  0  0  0  0  0  0  0  0  0  # atno 8008 bound_to 7997
  156.1392  140.1537  156.8979 H   0  0  0  0  0  0  0  0  0  0  0  0  # atno 8009 bound_to 7997
  154.4956  140.0828  156.7671 H   0  0  0  0  0  0  0  0  0  0  0  0  # atno 8010 bound_to 7997
  140.5510  143.9509  150.6578 H   0  0  0  0  0  0  0  0  0  0  0  0  # atno 10167 bound_to 10162
  156.5200  130.8473  151.2678 H   0  0  0  0  0  0  0  0  0  0  0  0  # atno 10718 bound_to 10713
  152.9898  135.6150  154.2849 H   0  0  0  0  0  0  0  0  0  0  0  0  # atno 10763 bound_to 10752
  154.2577  135.2783  155.2792 H   0  0  0  0  0  0  0  0  0  0  0  0  # atno 10764 bound_to 10752
  154.5233  135.5809  153.6756 H   0  0  0  0  0  0  0  0  0  0  0  0  # atno 10765 bound_to 10752
  140.0261  134.9374  157.0570 H   0  0  0  0  0  0  0  0  0  0  0  0  # atno 11005 bound_to 11000
  145.2687  141.0101  143.3784 LP  0  0  0  0  0  0  0  0  0  0  0  0  # atno 17320 bound_to 7965
  144.9241  139.4377  143.6527 LP  0  0  0  0  0  0  0  0  0  0  0  0  # atno 17321 bound_to 7965
  140.2935  143.3308  152.1040 LP  0  0  0  0  0  0  0  0  0  0  0  0  # atno 17342 bound_to 10162
  139.5027  144.6741  151.6172 LP  0  0  0  0  0  0  0  0  0  0  0  0  # atno 17343 bound_to 10162
  157.7438  130.9921  150.2623 LP  0  0  0  0  0  0  0  0  0  0  0  0  # atno 17370 bound_to 10713
  156.3159  130.3778  149.7619 LP  0  0  0  0  0  0  0  0  0  0  0  0  # atno 17371 bound_to 10713
  140.4305  134.1786  155.7168 LP  0  0  0  0  0  0  0  0  0  0  0  0  # atno 17394 bound_to 11000
  141.1803  133.8427  157.1280 LP  0  0  0  0  0  0  0  0  0  0  0  0  # atno 17395 bound_to 11000

$$$$
