AV-unprocessed.smi:2021|AV-procd|sdf|8175|dock8
  -GOLD-   2272010423D 1   1.00000     0.00000
 Structure written by MMmdl.
 42 43  0  0  0  0  0  0  0  0  2 V2000
  145.9185  131.3827  152.2054 C   0  0  0  0  0  0  0  0  0  0  0  0
  145.6077  132.5847  151.3011 C   0  0  0  0  0  0  0  0  0  0  0  0
  145.1193  132.1071  149.9232 C   0  0  0  0  0  0  0  0  0  0  0  0
  146.8387  133.5095  151.1846 C   0  0  0  0  0  0  0  0  0  0  0  0
  147.1022  134.2857  152.4237 N   0  3  1  0  0  0  0  0  0  0  0  0
  145.9075  134.9948  152.9448 C   0  0  0  0  0  0  0  0  0  0  0  0
  146.2685  135.8016  154.2021 C   0  0  0  0  0  0  0  0  0  0  0  0
  146.8260  134.9329  155.1796 O   0  0  0  0  0  0  0  0  0  0  0  0
  148.0301  134.3186  154.7344 C   0  0  1  0  0  0  0  0  0  0  0  0
  148.5932  133.4999  155.9124 C   0  0  0  0  0  0  0  0  0  0  0  0
  147.9119  133.7737  157.1741 N   0  0  0  0  0  0  0  0  0  0  0  0
  148.4483  134.4365  158.2087 C   0  0  0  0  0  0  0  0  0  0  0  0
  149.6023  134.8650  158.2114 O   0  0  0  0  0  0  0  0  0  0  0  0
  147.5678  134.5624  159.2170 N   0  0  0  0  0  0  0  0  0  0  0  0
  147.7539  135.1969  160.4740 C   0  0  0  0  0  0  0  0  0  0  0  0
  148.3765  136.3760  160.6275 N   0  0  0  0  0  0  0  0  0  0  0  0
  148.4238  136.7687  161.9590 N   0  0  0  0  0  0  0  0  0  0  0  0
  147.8364  135.8714  162.7559 C   0  0  0  0  0  0  0  0  0  0  0  0
  147.1688  134.4580  161.9578 S   0  0  0  0  0  0  0  0  0  0  0  0
  147.7195  133.4599  153.4893 C   0  0  0  0  0  0  0  0  0  0  0  0
  146.7262  130.7750  151.7961 H   0  0  0  0  0  0  0  0  0  0  0  0
  145.0449  130.7402  152.3212 H   0  0  0  0  0  0  0  0  0  0  0  0
  146.2189  131.7074  153.2022 H   0  0  0  0  0  0  0  0  0  0  0  0
  144.7922  133.1296  151.7760 H   0  0  0  0  0  0  0  0  0  0  0  0
  145.8926  131.5399  149.4034 H   0  0  0  0  0  0  0  0  0  0  0  0
  144.8363  132.9449  149.2858 H   0  0  0  0  0  0  0  0  0  0  0  0
  144.2447  131.4629  150.0192 H   0  0  0  0  0  0  0  0  0  0  0  0
  147.7299  132.9351  150.9265 H   0  0  0  0  0  0  0  0  0  0  0  0
  146.6717  134.1964  150.3532 H   0  0  0  0  0  0  0  0  0  0  0  0
  145.5009  135.6687  152.1919 H   0  0  0  0  0  0  0  0  0  0  0  0
  145.1259  134.2711  153.1816 H   0  0  0  0  0  0  0  0  0  0  0  0
  146.9694  136.6035  153.9648 H   0  0  0  0  0  0  0  0  0  0  0  0
  145.3762  136.2713  154.6166 H   0  0  0  0  0  0  0  0  0  0  0  0
  148.7436  135.1011  154.4698 H   0  0  0  0  0  0  0  0  0  0  0  0
  148.5309  132.4331  155.6913 H   0  0  0  0  0  0  0  0  0  0  0  0
  149.6521  133.7229  156.0454 H   0  0  0  0  0  0  0  0  0  0  0  0
  146.9564  133.4572  157.2534 H   0  0  0  0  0  0  0  0  0  0  0  0
  146.6523  134.1654  159.0658 H   0  0  0  0  0  0  0  0  0  0  0  0
  147.7964  136.0426  163.8215 H   0  0  0  0  0  0  0  0  0  0  0  0
  147.0476  132.6412  153.7520 H   0  0  0  0  0  0  0  0  0  0  0  0
  148.6390  133.0127  153.1095 H   0  0  0  0  0  0  0  0  0  0  0  0
  147.7854  134.9898  152.1831 H   0  0  0  0  0  0  0  0  0  0  0  0
  1  2  1  0  0  0  0
  1 21  1  0  0  0  0
  1 22  1  0  0  0  0
  1 23  1  0  0  0  0
  2  3  1  0  0  0  0
  2  4  1  0  0  0  0
  2 24  1  0  0  0  0
  3 25  1  0  0  0  0
  3 26  1  0  0  0  0
  3 27  1  0  0  0  0
  4  5  1  0  0  0  0
  4 28  1  0  0  0  0
  4 29  1  0  0  0  0
  5 20  1  0  0  0  0
  5  6  1  0  0  0  0
  5 42  1  0  0  0  0
  6  7  1  0  0  0  0
  6 30  1  0  0  0  0
  6 31  1  0  0  0  0
  7  8  1  0  0  0  0
  7 32  1  0  0  0  0
  7 33  1  0  0  0  0
  8  9  1  0  0  0  0
  9 10  1  0  0  0  0
  9 20  1  0  0  0  0
  9 34  1  0  0  0  0
 10 11  1  0  0  0  0
 10 35  1  0  0  0  0
 10 36  1  0  0  0  0
 11 12  1  0  0  0  0
 11 37  1  0  0  0  0
 12 13  2  0  0  0  0
 12 14  1  0  0  0  0
 14 15  1  0  0  0  0
 14 38  1  0  0  0  0
 15 19  1  0  0  0  0
 15 16  2  0  0  0  0
 16 17  1  0  0  0  0
 17 18  2  0  0  0  0
 18 19  1  0  0  0  0
 18 39  1  0  0  0  0
 20 40  1  0  0  0  0
 20 41  1  0  0  0  0
M  CHG  1   5   1
M  END
> <s_m_source_file>
AV-unprocessed.smi

> <i_m_source_file_index>
2021

> <i_lp_mmshare_version>
43012

> <i_f3d_flags>
0

> <s_epik_input>
W0NIM11bQ0hdKFtDSDNdKVtDSDJdTjFbQ0gyXVtDSDJdT1tDQEhdKFtDSDJdMSlbQ0gyXVtOSF1DKD1PKVtOSF1jMm5uW2NIXXMy

> <s_epik_cmdline>
J2VwaWtfcHl0aG9uJywgJy1waCcsICc3LjAnLCAnLXRuJywgJzgnLCAnLW1hJywgJzIwMCcsICctbWV0YWxfYmluZGluZycsICctaW1hZScsICc8aW5maWxlLm1hZT4nLCAnLW9tYWUnLCAnPG91dGZpbGUubWFlPic=

> <r_lp_tautomer_probability>
1

> <r_epik_Ionization_Penalty>
0.102019

> <r_epik_Ionization_Penalty_Charging>
0.098413

> <r_epik_Ionization_Penalty_Neutral>
0.00360555

> <r_epik_State_Penalty>
0.0884988

> <r_epik_Charging_Adjusted_Penalty>
0.186912

> <i_epik_Tot_Q>
1

> <i_epik_Tot_abs_Q>
1

> <r_epik_Metal_State_Penalty>
0.454709

> <b_epik_Metal_Only>
0

> <s_lp_Force_Field>
OPLS_2005

> <r_lp_Energy>
17.0767

> <b_lp_Chiralities_Consistent>
1

> <s_lp_Variant>
AV-unprocessed.smi:2021-1

> <Gold.Version>
5.8.1

> <Gold.Id.Protein>
6NUR|6NUR_protein|mol2

> <Gold.PLP.Fitness>
39.8120

> <Gold.PLP.PLP>
-30.3327

> <Gold.PLP.part.hbond>
-3.4438

> <Gold.PLP.part.metal>
0.0000

> <Gold.PLP.part.buried>
-5.8214

> <Gold.PLP.part.nonpolar>
-21.3408

> <Gold.PLP.part.repulsive>
0.1255

> <Gold.PLP.ligand.clash>
0.0000

> <Gold.PLP.ligand.torsion>
1.2803

> <Gold.PLP.Chemscore.Hbond>
4.0000

> <Gold.PLP.Chemscore.CHOScore>
0.0000

> <Gold.PLP.Chemscore.Metal>
0.0000

> <Gold.Chemscore.Hbonds>
donor molecule, donor type, donor heavy atom, donor atom, acceptor molecule, acceptor atom, score
      L1  H     5    42       P1  7948  2.00
      P1  H  6896  6908       L1    13  1.00
      P1  H  6931  6943       L1    17  1.00

> <Gold.PLP.Chemscore.Internal.Correction>
0.0398

> <Gold.Rescore>
     Score         DG    S(hbond)    S(metal)    S(lipo)     H(rot)  DE(clash)    DE(int)     intcor
     15.93     -17.36       2.66        0.00      66.92       1.88       0.00       1.43       ----

> <Gold.Chemscore.Fitness>
15.9298

> <Gold.Chemscore.DG>
-17.3642

> <Gold.Chemscore.ZeroCoef>
-5.4800

> <Gold.Chemscore.Hbond>
2.6558

> <Gold.Chemscore.Metal>
0.0000

> <Gold.Chemscore.Lipo>
66.9205

> <Gold.Chemscore.Internal_Hbond>
0.0000

> <Gold.Chemscore.DEClash>
0.0009

> <Gold.Chemscore.DEInternal>
1.4335

> <Gold.Chemscore.Rot>
1.8812

> <Gold.Chemscore.Internal.Correction>
   9.000000E+99

> <Gold.Chemscore.Hbonds>
donor molecule, donor type, donor heavy atom, donor atom, acceptor molecule, acceptor atom, score
      L1  H     5    42       P1  7948  0.85
      P1  H  6896  6908       L1    13  0.86
      P1  H  6931  6943       L1    17  0.49

> <Gold.Chemscore.Hbond.Weighted>
-8.8704

> <Gold.Chemscore.Metal.Weighted>
-0.0000

> <Gold.Chemscore.Lipo.Weighted>
-7.8297

> <Gold.Chemscore.Internal_Hbond.Weighted>
0.0000

> <Gold.Chemscore.DEClash.Weighted>
0.0009

> <Gold.Chemscore.DEInternal.Weighted>
1.4335

> <Gold.Chemscore.Rot.Weighted>
4.8159

> <Gold.Chemscore.Internal.Correction.Weighted>
   9.000000E+99

> <Gold.Protein.RotatedTorsions>
[ 6907 6896 6895 6894 ] final  139.24 input  -60.11 | X-H torsion
[ 7974 7965 7964 7962 ] final  -98.92 input  175.53 | X-H torsion
[ 8008 7997 7996 7995 ] final   33.61 input   59.86 | X-H torsion
[ 10167 10162 10161 10158 ] final  -89.57 input  -65.29 | X-H torsion
[ 10718 10713 10712 10709 ] final  -48.70 input   66.30 | X-H torsion
[ 10763 10752 10751 10750 ] final   30.07 input  -60.55 | X-H torsion
[ 11005 11000 10999 10996 ] final  -60.43 input  -57.11 | X-H torsion

> <Gold.Protein.ActiveResidues>
 VAL166  LYS551  ARG553  GLY616  TRP617  ASP618  TYR619  PRO620  LYS621  CYS622 
 ASP623  PHE694  ASN695  SER759  ASP760  ASP761  ALA762  ILE779  LEU786  VAL792 
 PHE793  MET794  SER795  GLU796  ALA797  LYS798  CYS799  TRP800  GLU811  SER814 

> <Gold.Protein.RotatedAtoms>
  152.2572  133.5265  159.5359 H   0  0  0  0  0  0  0  0  0  0  0  0  # atno 6907 bound_to 6896
  150.7113  134.0880  159.3930 H   0  0  0  0  0  0  0  0  0  0  0  0  # atno 6908 bound_to 6896
  151.8798  135.0458  160.0538 H   0  0  0  0  0  0  0  0  0  0  0  0  # atno 6909 bound_to 6896
  145.3143  140.9407  143.2751 H   0  0  0  0  0  0  0  0  0  0  0  0  # atno 7974 bound_to 7965
  155.1415  140.3266  155.4451 H   0  0  0  0  0  0  0  0  0  0  0  0  # atno 8008 bound_to 7997
  156.2603  140.1993  156.6480 H   0  0  0  0  0  0  0  0  0  0  0  0  # atno 8009 bound_to 7997
  154.6539  140.0555  156.9973 H   0  0  0  0  0  0  0  0  0  0  0  0  # atno 8010 bound_to 7997
  140.3635  143.2830  151.9586 H   0  0  0  0  0  0  0  0  0  0  0  0  # atno 10167 bound_to 10162
  156.1963  130.4154  149.9302 H   0  0  0  0  0  0  0  0  0  0  0  0  # atno 10718 bound_to 10713
  153.0393  135.6473  154.0987 H   0  0  0  0  0  0  0  0  0  0  0  0  # atno 10763 bound_to 10752
  154.0697  135.2881  155.3312 H   0  0  0  0  0  0  0  0  0  0  0  0  # atno 10764 bound_to 10752
  154.6603  135.5394  153.8074 H   0  0  0  0  0  0  0  0  0  0  0  0  # atno 10765 bound_to 10752
  141.1287  133.6622  156.5222 H   0  0  0  0  0  0  0  0  0  0  0  0  # atno 11005 bound_to 11000
  144.8990  139.4674  143.6641 LP  0  0  0  0  0  0  0  0  0  0  0  0  # atno 17320 bound_to 7965
  146.3106  139.7733  142.9023 LP  0  0  0  0  0  0  0  0  0  0  0  0  # atno 17321 bound_to 7965
  139.4811  144.5972  151.7670 LP  0  0  0  0  0  0  0  0  0  0  0  0  # atno 17342 bound_to 10162
  140.5104  144.1034  150.5993 LP  0  0  0  0  0  0  0  0  0  0  0  0  # atno 17343 bound_to 10162
  156.7026  130.8939  151.3601 LP  0  0  0  0  0  0  0  0  0  0  0  0  # atno 17370 bound_to 10713
  157.6959  130.9282  150.0644 LP  0  0  0  0  0  0  0  0  0  0  0  0  # atno 17371 bound_to 10713
  140.4283  134.7125  157.4928 LP  0  0  0  0  0  0  0  0  0  0  0  0  # atno 17394 bound_to 11000
  140.0312  134.6404  155.9105 LP  0  0  0  0  0  0  0  0  0  0  0  0  # atno 17395 bound_to 11000

$$$$
