AV-unprocessed.smi:2443|AV-procd|sdf|9631|dock8
  -GOLD-   2272013263D 1   1.00000     0.00000
 Structure written by MMmdl.
 37 39  0  0  0  0  0  0  0  0  1 V2000
  138.9298  138.0453  153.7279 C   0  0  0  0  0  0  0  0  0  0  0  0
  139.3008  136.7610  154.2158 O   0  0  0  0  0  0  0  0  0  0  0  0
  140.6370  136.4185  154.1975 C   0  0  0  0  0  0  0  0  0  0  0  0
  141.5990  137.4042  153.8958 C   0  0  0  0  0  0  0  0  0  0  0  0
  142.9560  137.0105  153.8837 C   0  0  0  0  0  0  0  0  0  0  0  0
  143.8921  138.0321  153.5741 N   0  0  0  0  0  0  0  0  0  0  0  0
  145.2315  137.9895  153.6827 C   0  0  0  0  0  0  0  0  0  0  0  0
  145.8843  137.0198  154.0693 O   0  0  0  0  0  0  0  0  0  0  0  0
  145.7853  139.1521  153.3102 N   0  0  0  0  0  0  0  0  0  0  0  0
  147.2157  139.4371  153.3160 C   0  0  0  0  0  0  0  0  0  0  0  0
  147.6210  140.8147  153.8281 C   0  0  0  0  0  0  0  0  0  0  0  0
  149.1234  141.0813  153.8629 C   0  0  0  0  0  0  0  0  0  0  0  0
  150.0237  140.2126  154.7114 C   0  0  0  0  0  0  0  0  0  0  0  0
  149.8538  141.6705  155.0543 C   0  0  0  0  0  0  0  0  0  0  0  0
  146.7356  141.9910  153.4621 C   0  0  0  0  0  0  0  0  0  0  0  0
  146.7018  141.4482  154.8618 C   0  0  0  0  0  0  0  0  0  0  0  0
  143.2900  135.7256  154.1596 N   0  0  0  0  0  0  0  0  0  0  0  0
  142.3051  134.8687  154.4346 C   0  0  0  0  0  0  0  0  0  0  0  0
  141.0004  135.1419  154.4691 N   0  0  0  0  0  0  0  0  0  0  0  0
  137.8499  138.1655  153.8127 H   0  0  0  0  0  0  0  0  0  0  0  0
  139.1943  138.1642  152.6763 H   0  0  0  0  0  0  0  0  0  0  0  0
  139.3975  138.8427  154.3073 H   0  0  0  0  0  0  0  0  0  0  0  0
  141.3016  138.4199  153.6794 H   0  0  0  0  0  0  0  0  0  0  0  0
  143.4965  138.8943  153.2299 H   0  0  0  0  0  0  0  0  0  0  0  0
  145.1751  139.8968  153.0068 H   0  0  0  0  0  0  0  0  0  0  0  0
  147.7397  138.6616  153.8774 H   0  0  0  0  0  0  0  0  0  0  0  0
  147.5646  139.3468  152.2871 H   0  0  0  0  0  0  0  0  0  0  0  0
  149.5394  141.3596  152.8964 H   0  0  0  0  0  0  0  0  0  0  0  0
  149.5517  139.4861  155.3695 H   0  0  0  0  0  0  0  0  0  0  0  0
  150.9736  139.9030  154.2802 H   0  0  0  0  0  0  0  0  0  0  0  0
  150.6912  142.3332  154.8460 H   0  0  0  0  0  0  0  0  0  0  0  0
  149.3138  141.8911  155.9708 H   0  0  0  0  0  0  0  0  0  0  0  0
  147.2153  142.9564  153.3123 H   0  0  0  0  0  0  0  0  0  0  0  0
  145.8701  141.8028  152.8298 H   0  0  0  0  0  0  0  0  0  0  0  0
  145.8138  140.8918  155.1556 H   0  0  0  0  0  0  0  0  0  0  0  0
  147.1134  142.0859  155.6386 H   0  0  0  0  0  0  0  0  0  0  0  0
  142.5936  133.8513  154.6523 H   0  0  0  0  0  0  0  0  0  0  0  0
  1  2  1  0  0  0  0
  1 20  1  0  0  0  0
  1 21  1  0  0  0  0
  1 22  1  0  0  0  0
  2  3  1  0  0  0  0
  3 19  1  0  0  0  0
  3  4  2  0  0  0  0
  4  5  1  0  0  0  0
  4 23  1  0  0  0  0
  5  6  1  0  0  0  0
  5 17  2  0  0  0  0
  6  7  1  0  0  0  0
  6 24  1  0  0  0  0
  7  8  2  0  0  0  0
  7  9  1  0  0  0  0
  9 10  1  0  0  0  0
  9 25  1  0  0  0  0
 10 11  1  0  0  0  0
 10 26  1  0  0  0  0
 10 27  1  0  0  0  0
 11 16  1  0  0  0  0
 11 12  1  0  0  0  0
 11 15  1  0  0  0  0
 12 14  1  0  0  0  0
 12 13  1  0  0  0  0
 12 28  1  0  0  0  0
 13 14  1  0  0  0  0
 13 29  1  0  0  0  0
 13 30  1  0  0  0  0
 14 31  1  0  0  0  0
 14 32  1  0  0  0  0
 15 16  1  0  0  0  0
 15 33  1  0  0  0  0
 15 34  1  0  0  0  0
 16 35  1  0  0  0  0
 16 36  1  0  0  0  0
 17 18  1  0  0  0  0
 18 19  2  0  0  0  0
 18 37  1  0  0  0  0
M  END
> <s_m_source_file>
AV-unprocessed.smi

> <i_m_source_file_index>
2443

> <i_lp_mmshare_version>
43012

> <i_f3d_flags>
0

> <s_epik_input>
W0NIM11PYzFbY0hdYyhuW2NIXW4xKVtOSF1DKD1PKVtOSF1bQ0gyXUMyKFtDSDJdW0NIMl0yKVtDSF0zW0NIMl1bQ0gyXTM=

> <s_epik_cmdline>
J2VwaWtfcHl0aG9uJywgJy1waCcsICc3LjAnLCAnLXRuJywgJzgnLCAnLW1hJywgJzIwMCcsICctbWV0YWxfYmluZGluZycsICctaW1hZScsICc8aW5maWxlLm1hZT4nLCAnLW9tYWUnLCAnPG91dGZpbGUubWFlPic=

> <r_lp_tautomer_probability>
1

> <r_epik_Ionization_Penalty>
2.73859e-05

> <r_epik_Ionization_Penalty_Charging>
0

> <r_epik_Ionization_Penalty_Neutral>
2.73859e-05

> <r_epik_State_Penalty>
-0

> <r_epik_Charging_Adjusted_Penalty>
0

> <i_epik_Tot_Q>
0

> <i_epik_Tot_abs_Q>
0

> <r_epik_Metal_State_Penalty>
-0

> <b_epik_Metal_Only>
0

> <s_lp_Force_Field>
OPLS_2005

> <r_lp_Energy>
26.0575

> <b_lp_Chiralities_Consistent>
1

> <s_lp_Variant>
AV-unprocessed.smi:2443-1

> <Gold.Version>
5.8.1

> <Gold.Id.Protein>
6NUR|6NUR_protein|mol2

> <Gold.PLP.Fitness>
42.9749

> <Gold.PLP.PLP>
-32.2954

> <Gold.PLP.part.hbond>
-3.0818

> <Gold.PLP.part.metal>
0.0000

> <Gold.PLP.part.buried>
-3.4465

> <Gold.PLP.part.nonpolar>
-26.6933

> <Gold.PLP.part.repulsive>
0.4666

> <Gold.PLP.ligand.clash>
0.0000

> <Gold.PLP.ligand.torsion>
1.6187

> <Gold.PLP.Chemscore.Hbond>
2.7883

> <Gold.PLP.Chemscore.CHOScore>
1.0000

> <Gold.PLP.Chemscore.Metal>
0.0000

> <Gold.Chemscore.Hbonds>
donor molecule, donor type, donor heavy atom, donor atom, acceptor molecule, acceptor atom, score
      L1  H     6    24       P1 10175  1.00
      L1  H     9    25       P1 10175  1.00
      P1  H 11000 11005       L1    19  0.93
      L1  C    18    37       P1 10957  1.00

> <Gold.PLP.Chemscore.Internal.Correction>
2.5522

> <Gold.Rescore>
     Score         DG    S(hbond)    S(metal)    S(lipo)     H(rot)  DE(clash)    DE(int)     intcor
     12.43     -15.50       2.44        0.00      56.71       1.86       0.10       2.97       ----

> <Gold.Chemscore.Fitness>
12.4326

> <Gold.Chemscore.DG>
-15.5040

> <Gold.Chemscore.ZeroCoef>
-5.4800

> <Gold.Chemscore.Hbond>
2.4417

> <Gold.Chemscore.Metal>
0.0000

> <Gold.Chemscore.Lipo>
56.7111

> <Gold.Chemscore.Internal_Hbond>
0.0000

> <Gold.Chemscore.DEClash>
0.0978

> <Gold.Chemscore.DEInternal>
2.9736

> <Gold.Chemscore.Rot>
1.8619

> <Gold.Chemscore.Internal.Correction>
   9.000000E+99

> <Gold.Chemscore.Hbonds>
donor molecule, donor type, donor heavy atom, donor atom, acceptor molecule, acceptor atom, score
      L1  H     6    24       P1 10175  0.96
      L1  H     9    25       P1 10175  0.96
      P1  H 11000 11005       L1    19  0.59

> <Gold.Chemscore.Hbond.Weighted>
-8.1552

> <Gold.Chemscore.Metal.Weighted>
-0.0000

> <Gold.Chemscore.Lipo.Weighted>
-6.6352

> <Gold.Chemscore.Internal_Hbond.Weighted>
0.0000

> <Gold.Chemscore.DEClash.Weighted>
0.0978

> <Gold.Chemscore.DEInternal.Weighted>
2.9736

> <Gold.Chemscore.Rot.Weighted>
4.7665

> <Gold.Chemscore.Internal.Correction.Weighted>
   9.000000E+99

> <Gold.Protein.RotatedTorsions>
[ 6907 6896 6895 6894 ] final  -21.29 input  -60.11 | X-H torsion
[ 7974 7965 7964 7962 ] final  -22.77 input  175.53 | X-H torsion
[ 8008 7997 7996 7995 ] final -125.97 input   59.86 | X-H torsion
[ 10167 10162 10161 10158 ] final  -57.90 input  -65.29 | X-H torsion
[ 10718 10713 10712 10709 ] final  -82.93 input   66.30 | X-H torsion
[ 10763 10752 10751 10750 ] final  104.30 input  -60.55 | X-H torsion
[ 11005 11000 10999 10996 ] final   28.86 input  -57.11 | X-H torsion

> <Gold.Protein.ActiveResidues>
 VAL166  LYS551  ARG553  GLY616  TRP617  ASP618  TYR619  PRO620  LYS621  CYS622 
 ASP623  PHE694  ASN695  SER759  ASP760  ASP761  ALA762  ILE779  LEU786  VAL792 
 PHE793  MET794  SER795  GLU796  ALA797  LYS798  CYS799  TRP800  GLU811  SER814 

> <Gold.Protein.RotatedAtoms>
  151.2356  135.0570  159.9004 H   0  0  0  0  0  0  0  0  0  0  0  0  # atno 6907 bound_to 6896
  152.5399  134.0490  159.8111 H   0  0  0  0  0  0  0  0  0  0  0  0  # atno 6908 bound_to 6896
  151.0676  133.5444  159.2661 H   0  0  0  0  0  0  0  0  0  0  0  0  # atno 6909 bound_to 6896
  146.1656  140.4524  142.8553 H   0  0  0  0  0  0  0  0  0  0  0  0  # atno 7974 bound_to 7965
  155.2220  140.0422  157.2949 H   0  0  0  0  0  0  0  0  0  0  0  0  # atno 8008 bound_to 7997
  154.5943  140.2435  155.7848 H   0  0  0  0  0  0  0  0  0  0  0  0  # atno 8009 bound_to 7997
  156.2280  140.2948  156.0124 H   0  0  0  0  0  0  0  0  0  0  0  0  # atno 8010 bound_to 7997
  140.6230  143.2427  151.5433 H   0  0  0  0  0  0  0  0  0  0  0  0  # atno 10167 bound_to 10162
  156.0025  130.4649  150.4180 H   0  0  0  0  0  0  0  0  0  0  0  0  # atno 10718 bound_to 10713
  153.3641  135.3948  155.1740 H   0  0  0  0  0  0  0  0  0  0  0  0  # atno 10763 bound_to 10752
  154.8684  135.3686  154.5061 H   0  0  0  0  0  0  0  0  0  0  0  0  # atno 10764 bound_to 10752
  153.5523  135.7082  153.5646 H   0  0  0  0  0  0  0  0  0  0  0  0  # atno 10765 bound_to 10752
  140.3111  134.2649  155.7734 H   0  0  0  0  0  0  0  0  0  0  0  0  # atno 11005 bound_to 11000
  144.8088  140.6348  143.6429 LP  0  0  0  0  0  0  0  0  0  0  0  0  # atno 17320 bound_to 7965
  145.4476  139.1527  143.3936 LP  0  0  0  0  0  0  0  0  0  0  0  0  # atno 17321 bound_to 7965
  139.5455  144.2532  152.1434 LP  0  0  0  0  0  0  0  0  0  0  0  0  # atno 17342 bound_to 10162
  140.1757  144.4893  150.6555 LP  0  0  0  0  0  0  0  0  0  0  0  0  # atno 17343 bound_to 10162
  157.2238  131.0488  151.2531 LP  0  0  0  0  0  0  0  0  0  0  0  0  # atno 17370 bound_to 10713
  157.3776  130.7214  149.6607 LP  0  0  0  0  0  0  0  0  0  0  0  0  # atno 17371 bound_to 10713
  141.2108  133.7709  156.9908 LP  0  0  0  0  0  0  0  0  0  0  0  0  # atno 17394 bound_to 11000
  140.1024  134.9527  157.1943 LP  0  0  0  0  0  0  0  0  0  0  0  0  # atno 17395 bound_to 11000

$$$$
