AV-unprocessed.smi:2490|AV-procd|sdf|9808|dock7
  -GOLD-   2272013443D 1   1.00000     0.00000
 Structure written by MMmdl.
 33 34  0  0  0  0  0  0  0  0  1 V2000
  146.2776  143.0644  154.0861 C   0  0  0  0  0  0  0  0  0  0  0  0
  147.6178  142.5961  154.4034 N   0  0  0  0  0  0  0  0  0  0  0  0
  148.0431  141.3369  154.2226 C   0  0  0  0  0  0  0  0  0  0  0  0
  147.3224  140.4467  153.7692 O   0  0  0  0  0  0  0  0  0  0  0  0
  149.4919  141.0409  154.6353 C   0  0  1  0  0  0  0  0  0  0  0  0
  149.7701  141.3766  156.1181 C   0  0  0  0  0  0  0  0  0  0  0  0
  151.1274  140.9915  156.4826 N   0  0  0  0  0  0  0  0  0  0  0  0
  151.6098  141.4754  157.6838 C   0  0  0  0  0  0  0  0  0  0  0  0
  151.4842  142.7873  157.9179 N   0  0  0  0  0  0  0  0  0  0  0  0
  151.9598  143.2461  159.0956 C   0  0  0  0  0  0  0  0  0  0  0  0
  152.5607  142.3853  160.0370 C   0  0  0  0  0  0  0  0  0  0  0  0
  153.0935  142.9010  161.3565 C   0  0  0  0  0  0  0  0  0  0  0  0
  152.6370  141.0227  159.6797 C   0  0  0  0  0  0  0  0  0  0  0  0
  152.1585  140.5715  158.5003 N   0  0  0  0  0  0  0  0  0  0  0  0
  151.4131  139.5968  156.1771 C   0  0  0  0  0  0  0  0  0  0  0  0
  151.1063  139.3059  154.6994 C   0  0  0  0  0  0  0  0  0  0  0  0
  149.7551  139.6542  154.4155 O   0  0  0  0  0  0  0  0  0  0  0  0
  146.1840  144.1204  154.3393 H   0  0  0  0  0  0  0  0  0  0  0  0
  145.5276  142.5102  154.6520 H   0  0  0  0  0  0  0  0  0  0  0  0
  146.0683  142.9487  153.0220 H   0  0  0  0  0  0  0  0  0  0  0  0
  148.2682  143.2703  154.7809 H   0  0  0  0  0  0  0  0  0  0  0  0
  150.1447  141.6360  153.9941 H   0  0  0  0  0  0  0  0  0  0  0  0
  149.6405  142.4457  156.2936 H   0  0  0  0  0  0  0  0  0  0  0  0
  149.0630  140.8557  156.7657 H   0  0  0  0  0  0  0  0  0  0  0  0
  151.8592  144.3044  159.2862 H   0  0  0  0  0  0  0  0  0  0  0  0
  153.4873  142.0877  161.9669 H   0  0  0  0  0  0  0  0  0  0  0  0
  152.3003  143.3961  161.9170 H   0  0  0  0  0  0  0  0  0  0  0  0
  153.8952  143.6195  161.1849 H   0  0  0  0  0  0  0  0  0  0  0  0
  153.0818  140.2914  160.3387 H   0  0  0  0  0  0  0  0  0  0  0  0
  152.4597  139.3778  156.3926 H   0  0  0  0  0  0  0  0  0  0  0  0
  150.8102  138.9543  156.8204 H   0  0  0  0  0  0  0  0  0  0  0  0
  151.7814  139.8598  154.0451 H   0  0  0  0  0  0  0  0  0  0  0  0
  151.2522  138.2470  154.4862 H   0  0  0  0  0  0  0  0  0  0  0  0
  1  2  1  0  0  0  0
  1 18  1  0  0  0  0
  1 19  1  0  0  0  0
  1 20  1  0  0  0  0
  2  3  1  0  0  0  0
  2 21  1  0  0  0  0
  3  4  2  0  0  0  0
  3  5  1  0  0  0  0
  5 17  1  0  0  0  0
  5  6  1  0  0  0  0
  5 22  1  0  0  0  0
  6  7  1  0  0  0  0
  6 23  1  0  0  0  0
  6 24  1  0  0  0  0
  7  8  1  0  0  0  0
  7 15  1  0  0  0  0
  8 14  1  0  0  0  0
  8  9  2  0  0  0  0
  9 10  1  0  0  0  0
 10 11  2  0  0  0  0
 10 25  1  0  0  0  0
 11 12  1  0  0  0  0
 11 13  1  0  0  0  0
 12 26  1  0  0  0  0
 12 27  1  0  0  0  0
 12 28  1  0  0  0  0
 13 14  2  0  0  0  0
 13 29  1  0  0  0  0
 15 16  1  0  0  0  0
 15 30  1  0  0  0  0
 15 31  1  0  0  0  0
 16 17  1  0  0  0  0
 16 32  1  0  0  0  0
 16 33  1  0  0  0  0
M  END
> <s_m_source_file>
AV-unprocessed.smi

> <i_m_source_file_index>
2490

> <i_lp_mmshare_version>
43012

> <i_f3d_flags>
0

> <s_epik_input>
W0NIM11bTkhdQyg9TylbQ0BASF0xW0NIMl1OKFtDSDJdW0NIMl1PMSljMm5bY0hdYyhbQ0gzXSlbY0hdbjI=

> <s_epik_cmdline>
J2VwaWtfcHl0aG9uJywgJy1waCcsICc3LjAnLCAnLXRuJywgJzgnLCAnLW1hJywgJzIwMCcsICctbWV0YWxfYmluZGluZycsICctaW1hZScsICc8aW5maWxlLm1hZT4nLCAnLW9tYWUnLCAnPG91dGZpbGUubWFlPic=

> <r_lp_tautomer_probability>
1

> <r_epik_Ionization_Penalty>
8.72552e-06

> <r_epik_Ionization_Penalty_Charging>
0

> <r_epik_Ionization_Penalty_Neutral>
8.72552e-06

> <r_epik_State_Penalty>
-0

> <r_epik_Charging_Adjusted_Penalty>
0

> <i_epik_Tot_Q>
0

> <i_epik_Tot_abs_Q>
0

> <r_epik_Metal_State_Penalty>
-0

> <b_epik_Metal_Only>
0

> <s_lp_Force_Field>
OPLS_2005

> <r_lp_Energy>
12.5382

> <b_lp_Chiralities_Consistent>
1

> <s_lp_Variant>
AV-unprocessed.smi:2490-2

> <Gold.Version>
5.8.1

> <Gold.Id.Protein>
6NUR|6NUR_protein|mol2

> <Gold.PLP.Fitness>
38.0278

> <Gold.PLP.PLP>
-35.0460

> <Gold.PLP.part.hbond>
-1.0000

> <Gold.PLP.part.metal>
0.0000

> <Gold.PLP.part.buried>
-4.5552

> <Gold.PLP.part.nonpolar>
-29.2063

> <Gold.PLP.part.repulsive>
0.5447

> <Gold.PLP.ligand.clash>
0.0000

> <Gold.PLP.ligand.torsion>
0.1524

> <Gold.PLP.Chemscore.Hbond>
1.0000

> <Gold.PLP.Chemscore.CHOScore>
0.0000

> <Gold.PLP.Chemscore.Metal>
0.0000

> <Gold.Chemscore.Hbonds>
donor molecule, donor type, donor heavy atom, donor atom, acceptor molecule, acceptor atom, score
      L1  H     2    21       P1  8028  1.00

> <Gold.PLP.Chemscore.Internal.Correction>
0.2866

> <Gold.Rescore>
     Score         DG    S(hbond)    S(metal)    S(lipo)     H(rot)  DE(clash)    DE(int)     intcor
     14.06     -14.23       0.98        0.00      75.57       1.31       0.00       0.17       ----

> <Gold.Chemscore.Fitness>
14.0572

> <Gold.Chemscore.DG>
-14.2332

> <Gold.Chemscore.ZeroCoef>
-5.4800

> <Gold.Chemscore.Hbond>
0.9768

> <Gold.Chemscore.Metal>
0.0000

> <Gold.Chemscore.Lipo>
75.5692

> <Gold.Chemscore.Internal_Hbond>
0.0000

> <Gold.Chemscore.DEClash>
0.0021

> <Gold.Chemscore.DEInternal>
0.1740

> <Gold.Chemscore.Rot>
1.3089

> <Gold.Chemscore.Internal.Correction>
   9.000000E+99

> <Gold.Chemscore.Hbonds>
donor molecule, donor type, donor heavy atom, donor atom, acceptor molecule, acceptor atom, score
      L1  H     2    21       P1  8028  0.98

> <Gold.Chemscore.Hbond.Weighted>
-3.2625

> <Gold.Chemscore.Metal.Weighted>
-0.0000

> <Gold.Chemscore.Lipo.Weighted>
-8.8416

> <Gold.Chemscore.Internal_Hbond.Weighted>
0.0000

> <Gold.Chemscore.DEClash.Weighted>
0.0021

> <Gold.Chemscore.DEInternal.Weighted>
0.1740

> <Gold.Chemscore.Rot.Weighted>
3.3509

> <Gold.Chemscore.Internal.Correction.Weighted>
   9.000000E+99

> <Gold.Protein.RotatedTorsions>
[ 6907 6896 6895 6894 ] final   45.01 input  -60.11 | X-H torsion
[ 7974 7965 7964 7962 ] final -121.90 input  175.53 | X-H torsion
[ 8008 7997 7996 7995 ] final -153.60 input   59.86 | X-H torsion
[ 10167 10162 10161 10158 ] final   81.66 input  -65.29 | X-H torsion
[ 10718 10713 10712 10709 ] final  -32.39 input   66.30 | X-H torsion
[ 10763 10752 10751 10750 ] final  -66.69 input  -60.55 | X-H torsion
[ 11005 11000 10999 10996 ] final  -49.20 input  -57.11 | X-H torsion

> <Gold.Protein.ActiveResidues>
 VAL166  LYS551  ARG553  GLY616  TRP617  ASP618  TYR619  PRO620  LYS621  CYS622 
 ASP623  PHE694  ASN695  SER759  ASP760  ASP761  ALA762  ILE779  LEU786  VAL792 
 PHE793  MET794  SER795  GLU796  ALA797  LYS798  CYS799  TRP800  GLU811  SER814 

> <Gold.Protein.RotatedAtoms>
  152.2394  134.8243  160.0462 H   0  0  0  0  0  0  0  0  0  0  0  0  # atno 6907 bound_to 6896
  151.8963  133.3522  159.3823 H   0  0  0  0  0  0  0  0  0  0  0  0  # atno 6908 bound_to 6896
  150.7049  134.4799  159.5509 H   0  0  0  0  0  0  0  0  0  0  0  0  # atno 6909 bound_to 6896
  145.0353  140.8101  143.4299 H   0  0  0  0  0  0  0  0  0  0  0  0  # atno 7974 bound_to 7965
  155.6733  140.0736  157.2512 H   0  0  0  0  0  0  0  0  0  0  0  0  # atno 8008 bound_to 7997
  154.4119  140.1695  156.1954 H   0  0  0  0  0  0  0  0  0  0  0  0  # atno 8009 bound_to 7997
  155.9598  140.3371  155.6483 H   0  0  0  0  0  0  0  0  0  0  0  0  # atno 8010 bound_to 7997
  139.9369  144.6115  150.8289 H   0  0  0  0  0  0  0  0  0  0  0  0  # atno 10167 bound_to 10162
  156.3755  130.4347  149.7510 H   0  0  0  0  0  0  0  0  0  0  0  0  # atno 10718 bound_to 10713
  154.3636  135.6110  153.5703 H   0  0  0  0  0  0  0  0  0  0  0  0  # atno 10763 bound_to 10752
  152.9792  135.5821  154.4605 H   0  0  0  0  0  0  0  0  0  0  0  0  # atno 10764 bound_to 10752
  154.4346  135.2848  155.1866 H   0  0  0  0  0  0  0  0  0  0  0  0  # atno 10765 bound_to 10752
  141.0745  133.6669  156.3551 H   0  0  0  0  0  0  0  0  0  0  0  0  # atno 11005 bound_to 11000
  145.1717  139.2400  143.5338 LP  0  0  0  0  0  0  0  0  0  0  0  0  # atno 17320 bound_to 7965
  146.3503  140.1470  142.8593 LP  0  0  0  0  0  0  0  0  0  0  0  0  # atno 17321 bound_to 7965
  140.7622  143.3192  151.2662 LP  0  0  0  0  0  0  0  0  0  0  0  0  # atno 17342 bound_to 10162
  139.6736  143.9977  152.2767 LP  0  0  0  0  0  0  0  0  0  0  0  0  # atno 17343 bound_to 10162
  156.4621  130.7957  151.2977 LP  0  0  0  0  0  0  0  0  0  0  0  0  # atno 17370 bound_to 10713
  157.7488  131.0062  150.3144 LP  0  0  0  0  0  0  0  0  0  0  0  0  # atno 17371 bound_to 10713
  140.5602  134.5942  157.5431 LP  0  0  0  0  0  0  0  0  0  0  0  0  # atno 17394 bound_to 11000
  139.9558  134.7538  156.0346 LP  0  0  0  0  0  0  0  0  0  0  0  0  # atno 17395 bound_to 11000

$$$$
