AV-unprocessed.smi:3194|AV-procd|sdf|12209|dock9
  -GOLD-   2272018 43D 1   1.00000     0.00000
 Structure written by MMmdl.
 28 28  0  0  0  0  0  0  0  0  1 V2000
  150.2258  138.6130  154.4682 C   0  0  0  0  0  0  0  0  0  0  0  0
  150.1840  140.1182  154.7728 C   0  0  1  0  0  0  0  0  0  0  0  0
  148.7926  140.7297  154.5161 C   0  0  0  0  0  0  0  0  0  0  0  0
  148.2694  140.2698  153.2878 O   0  0  0  0  0  0  0  0  0  0  0  0
  150.5852  140.3330  156.1602 N   0  0  0  0  0  0  0  0  0  0  0  0
  151.7960  140.0641  156.6773 C   0  0  0  0  0  0  0  0  0  0  0  0
  152.7253  139.6090  156.0094 O   0  0  0  0  0  0  0  0  0  0  0  0
  151.9861  140.3426  158.1760 C   0  0  0  0  0  0  0  0  0  0  0  0
  150.9963  139.7540  158.8514 F   0  0  0  0  0  0  0  0  0  0  0  0
  153.1361  139.7989  158.5833 F   0  0  0  0  0  0  0  0  0  0  0  0
  151.9892  141.8461  158.4394 C   0  0  0  0  0  0  0  0  0  0  0  0
  152.3883  142.3649  159.6922 C   0  0  0  0  0  0  0  0  0  0  0  0
  152.3596  143.7593  159.8863 C   0  0  0  0  0  0  0  0  0  0  0  0
  151.9334  144.5837  158.8278 C   0  0  0  0  0  0  0  0  0  0  0  0
  151.5514  143.9736  157.6172 C   0  0  0  0  0  0  0  0  0  0  0  0
  151.5748  142.6380  157.4210 N   0  0  0  0  0  0  0  0  0  0  0  0
  150.9122  140.6120  154.1261 H   0  0  0  0  0  0  0  0  0  0  0  0
  149.9759  138.4134  153.4259 H   0  0  0  0  0  0  0  0  0  0  0  0
  149.5207  138.0614  155.0908 H   0  0  0  0  0  0  0  0  0  0  0  0
  151.2204  138.2044  154.6493 H   0  0  0  0  0  0  0  0  0  0  0  0
  148.1014  140.4865  155.3238 H   0  0  0  0  0  0  0  0  0  0  0  0
  148.8529  141.8172  154.4612 H   0  0  0  0  0  0  0  0  0  0  0  0
  148.9027  140.4431  152.6080 H   0  0  0  0  0  0  0  0  0  0  0  0
  149.8811  140.7012  156.7838 H   0  0  0  0  0  0  0  0  0  0  0  0
  152.7052  141.7119  160.4920 H   0  0  0  0  0  0  0  0  0  0  0  0
  152.6578  144.1884  160.8315 H   0  0  0  0  0  0  0  0  0  0  0  0
  151.8988  145.6572  158.9410 H   0  0  0  0  0  0  0  0  0  0  0  0
  151.2174  144.5741  156.7840 H   0  0  0  0  0  0  0  0  0  0  0  0
  1  2  1  0  0  0  0
  1 18  1  0  0  0  0
  1 19  1  0  0  0  0
  1 20  1  0  0  0  0
  2 17  1  0  0  0  0
  2  3  1  0  0  0  0
  2  5  1  0  0  0  0
  3  4  1  0  0  0  0
  3 21  1  0  0  0  0
  3 22  1  0  0  0  0
  4 23  1  0  0  0  0
  5  6  1  0  0  0  0
  5 24  1  0  0  0  0
  6  7  2  0  0  0  0
  6  8  1  0  0  0  0
  8  9  1  0  0  0  0
  8 10  1  0  0  0  0
  8 11  1  0  0  0  0
 11 16  1  0  0  0  0
 11 12  2  0  0  0  0
 12 13  1  0  0  0  0
 12 25  1  0  0  0  0
 13 14  2  0  0  0  0
 13 26  1  0  0  0  0
 14 15  1  0  0  0  0
 14 27  1  0  0  0  0
 15 16  2  0  0  0  0
 15 28  1  0  0  0  0
M  END
> <s_m_source_file>
AV-unprocessed.smi

> <i_m_source_file_index>
3194

> <i_lp_mmshare_version>
43012

> <i_f3d_flags>
0

> <s_epik_input>
W09IXVtDSDJdW0NASF0oW0NIM10pW05IXUMoPU8pQyhGKShGKWMxW2NIXVtjSF1bY0hdW2NIXW4x

> <s_epik_cmdline>
J2VwaWtfcHl0aG9uJywgJy1waCcsICc3LjAnLCAnLXRuJywgJzgnLCAnLW1hJywgJzIwMCcsICctbWV0YWxfYmluZGluZycsICctaW1hZScsICc8aW5maWxlLm1hZT4nLCAnLW9tYWUnLCAnPG91dGZpbGUubWFlPic=

> <r_lp_tautomer_probability>
1

> <r_epik_Ionization_Penalty>
3.67967e-05

> <r_epik_Ionization_Penalty_Charging>
0

> <r_epik_Ionization_Penalty_Neutral>
3.67967e-05

> <r_epik_State_Penalty>
-0

> <r_epik_Charging_Adjusted_Penalty>
0

> <i_epik_Tot_Q>
0

> <i_epik_Tot_abs_Q>
0

> <r_epik_Metal_State_Penalty>
0.0311521

> <b_epik_Metal_Only>
0

> <s_lp_Force_Field>
OPLS_2005

> <r_lp_Energy>
9.58736

> <b_lp_Chiralities_Consistent>
1

> <s_lp_Variant>
AV-unprocessed.smi:3194-1

> <Gold.Version>
5.8.1

> <Gold.Id.Protein>
6NUR|6NUR_protein|mol2

> <Gold.PLP.Fitness>
41.1435

> <Gold.PLP.PLP>
-33.7549

> <Gold.PLP.part.hbond>
-1.9379

> <Gold.PLP.part.metal>
0.0000

> <Gold.PLP.part.buried>
-1.3854

> <Gold.PLP.part.nonpolar>
-30.7567

> <Gold.PLP.part.repulsive>
0.1387

> <Gold.PLP.ligand.clash>
0.0000

> <Gold.PLP.ligand.torsion>
0.8186

> <Gold.PLP.Chemscore.Hbond>
2.0000

> <Gold.PLP.Chemscore.CHOScore>
0.9982

> <Gold.PLP.Chemscore.Metal>
0.0000

> <Gold.Chemscore.Hbonds>
donor molecule, donor type, donor heavy atom, donor atom, acceptor molecule, acceptor atom, score
      L1  H     4    23       P1  7957  1.00
      P1  H  7997  8010       L1     7  1.00
      L1  C    15    28       P1  8028  0.94

> <Gold.PLP.Chemscore.Internal.Correction>
0.0311

> <Gold.Rescore>
     Score         DG    S(hbond)    S(metal)    S(lipo)     H(rot)  DE(clash)    DE(int)     intcor
     13.23     -15.49       1.99        0.00      83.48       2.50       0.28       1.99       ----

> <Gold.Chemscore.Fitness>
13.2260

> <Gold.Chemscore.DG>
-15.4929

> <Gold.Chemscore.ZeroCoef>
-5.4800

> <Gold.Chemscore.Hbond>
1.9874

> <Gold.Chemscore.Metal>
0.0000

> <Gold.Chemscore.Lipo>
83.4799

> <Gold.Chemscore.Internal_Hbond>
0.0000

> <Gold.Chemscore.DEClash>
0.2787

> <Gold.Chemscore.DEInternal>
1.9882

> <Gold.Chemscore.Rot>
2.4970

> <Gold.Chemscore.Internal.Correction>
   9.000000E+99

> <Gold.Chemscore.Hbonds>
donor molecule, donor type, donor heavy atom, donor atom, acceptor molecule, acceptor atom, score
      L1  H     4    23       P1  7957  0.94
      P1  H  7997  8010       L1     7  0.98

> <Gold.Chemscore.Hbond.Weighted>
-6.6380

> <Gold.Chemscore.Metal.Weighted>
-0.0000

> <Gold.Chemscore.Lipo.Weighted>
-9.7672

> <Gold.Chemscore.Internal_Hbond.Weighted>
0.0000

> <Gold.Chemscore.DEClash.Weighted>
0.2787

> <Gold.Chemscore.DEInternal.Weighted>
1.9882

> <Gold.Chemscore.Rot.Weighted>
6.3922

> <Gold.Chemscore.Internal.Correction.Weighted>
   9.000000E+99

> <Gold.Protein.RotatedTorsions>
[ 6907 6896 6895 6894 ] final   99.64 input  -60.11 | X-H torsion
[ 7974 7965 7964 7962 ] final  -18.63 input  175.53 | X-H torsion
[ 8008 7997 7996 7995 ] final   81.41 input   59.86 | X-H torsion
[ 10167 10162 10161 10158 ] final   78.60 input  -65.29 | X-H torsion
[ 10718 10713 10712 10709 ] final -109.28 input   66.30 | X-H torsion
[ 10763 10752 10751 10750 ] final  -28.71 input  -60.55 | X-H torsion
[ 11005 11000 10999 10996 ] final  -37.51 input  -57.11 | X-H torsion

> <Gold.Protein.ActiveResidues>
 VAL166  LYS551  ARG553  GLY616  TRP617  ASP618  TYR619  PRO620  LYS621  CYS622 
 ASP623  PHE694  ASN695  SER759  ASP760  ASP761  ALA762  ILE779  LEU786  VAL792 
 PHE793  MET794  SER795  GLU796  ALA797  LYS798  CYS799  TRP800  GLU811  SER814 

> <Gold.Protein.RotatedAtoms>
  152.5388  134.0398  159.8062 H   0  0  0  0  0  0  0  0  0  0  0  0  # atno 6907 bound_to 6896
  151.0556  133.5580  159.2646 H   0  0  0  0  0  0  0  0  0  0  0  0  # atno 6908 bound_to 6896
  151.2498  135.0626  159.9111 H   0  0  0  0  0  0  0  0  0  0  0  0  # atno 6909 bound_to 6896
  146.1882  140.3948  142.8468 H   0  0  0  0  0  0  0  0  0  0  0  0  # atno 7974 bound_to 7965
  155.8967  140.3435  155.5996 H   0  0  0  0  0  0  0  0  0  0  0  0  # atno 8008 bound_to 7997
  155.7547  140.0824  157.2203 H   0  0  0  0  0  0  0  0  0  0  0  0  # atno 8009 bound_to 7997
  154.4039  140.1547  156.2752 H   0  0  0  0  0  0  0  0  0  0  0  0  # atno 8010 bound_to 7997
  139.9692  144.5906  150.8001 H   0  0  0  0  0  0  0  0  0  0  0  0  # atno 10167 bound_to 10162
  156.0529  130.5756  150.8078 H   0  0  0  0  0  0  0  0  0  0  0  0  # atno 10718 bound_to 10713
  153.7528  135.6925  153.4942 H   0  0  0  0  0  0  0  0  0  0  0  0  # atno 10763 bound_to 10752
  153.1991  135.4443  155.0243 H   0  0  0  0  0  0  0  0  0  0  0  0  # atno 10764 bound_to 10752
  154.8181  135.3408  154.7048 H   0  0  0  0  0  0  0  0  0  0  0  0  # atno 10765 bound_to 10752
  140.9957  133.6981  156.1931 H   0  0  0  0  0  0  0  0  0  0  0  0  # atno 11005 bound_to 11000
  144.8437  140.6896  143.6213 LP  0  0  0  0  0  0  0  0  0  0  0  0  # atno 17320 bound_to 7965
  145.3873  139.1624  143.4248 LP  0  0  0  0  0  0  0  0  0  0  0  0  # atno 17321 bound_to 7965
  140.7527  143.2996  151.3115 LP  0  0  0  0  0  0  0  0  0  0  0  0  # atno 17342 bound_to 10162
  139.6494  144.0390  152.2615 LP  0  0  0  0  0  0  0  0  0  0  0  0  # atno 17343 bound_to 10162
  157.5472  131.0943  150.9746 LP  0  0  0  0  0  0  0  0  0  0  0  0  # atno 17370 bound_to 10713
  157.0014  130.5601  149.5312 LP  0  0  0  0  0  0  0  0  0  0  0  0  # atno 17371 bound_to 10713
  140.6969  134.4606  157.5587 LP  0  0  0  0  0  0  0  0  0  0  0  0  # atno 17394 bound_to 11000
  139.9014  134.8548  156.1882 LP  0  0  0  0  0  0  0  0  0  0  0  0  # atno 17395 bound_to 11000

$$$$
