AV-unprocessed.smi:2499|AV-procd|sdf|9839|dock2
  -GOLD-   2272013463D 1   1.00000     0.00000
 Structure written by MMmdl.
 26 27  0  0  0  0  0  0  0  0  2 V2000
  153.1785  142.0254  160.6525 C   0  0  0  0  0  0  0  0  0  0  0  0
  152.4025  142.2192  159.3424 C   0  0  2  0  0  0  0  0  0  0  0  0
  152.7738  141.1500  158.4197 N   0  0  0  0  0  0  0  0  0  0  0  0
  151.9907  140.6067  157.4761 C   0  0  0  0  0  0  0  0  0  0  0  0
  150.8326  141.0047  157.3310 O   0  0  0  0  0  0  0  0  0  0  0  0
  152.5988  139.6352  156.7586 N   0  5  0  0  0  0  0  0  0  0  0  0
  151.9503  139.0542  155.7366 C   0  0  0  0  0  0  0  0  0  0  0  0
  151.0075  139.6147  154.9770 N   0  0  0  0  0  0  0  0  0  0  0  0
  150.6286  138.6429  154.0640 C   0  0  0  0  0  0  0  0  0  0  0  0
  151.3640  137.5179  154.3191 C   0  0  0  0  0  0  0  0  0  0  0  0
  152.1987  137.7637  155.3740 O   0  0  0  0  0  0  0  0  0  0  0  0
  152.6320  143.6121  158.7792 C   0  0  0  0  0  0  0  0  0  0  0  0
  151.7691  144.7755  159.2075 C   0  0  0  0  0  0  0  0  0  0  0  0
  151.6652  144.2358  157.8001 C   0  0  0  0  0  0  0  0  0  0  0  0
  152.8906  142.7707  161.3944 H   0  0  0  0  0  0  0  0  0  0  0  0
  154.2539  142.1127  160.4935 H   0  0  0  0  0  0  0  0  0  0  0  0
  152.9836  141.0425  161.0832 H   0  0  0  0  0  0  0  0  0  0  0  0
  151.3414  142.1200  159.5791 H   0  0  0  0  0  0  0  0  0  0  0  0
  153.7129  140.7887  158.5001 H   0  0  0  0  0  0  0  0  0  0  0  0
  149.8733  138.8266  153.3145 H   0  0  0  0  0  0  0  0  0  0  0  0
  151.4121  136.5335  153.8787 H   0  0  0  0  0  0  0  0  0  0  0  0
  153.6833  143.8465  158.6215 H   0  0  0  0  0  0  0  0  0  0  0  0
  150.9417  144.5717  159.8840 H   0  0  0  0  0  0  0  0  0  0  0  0
  152.2565  145.7388  159.3428 H   0  0  0  0  0  0  0  0  0  0  0  0
  152.0854  144.8359  156.9957 H   0  0  0  0  0  0  0  0  0  0  0  0
  150.7674  143.6769  157.5441 H   0  0  0  0  0  0  0  0  0  0  0  0
  1  2  1  0  0  0  0
  1 15  1  0  0  0  0
  1 16  1  0  0  0  0
  1 17  1  0  0  0  0
  2  3  1  0  0  0  0
  2 12  1  0  0  0  0
  2 18  1  0  0  0  0
  3 19  1  0  0  0  0
  3  4  1  0  0  0  0
  4  6  1  0  0  0  0
  4  5  2  0  0  0  0
  6  7  1  0  0  0  0
  7 11  1  0  0  0  0
  7  8  2  0  0  0  0
  8  9  1  0  0  0  0
  9 20  1  0  0  0  0
  9 10  2  0  0  0  0
 10 21  1  0  0  0  0
 10 11  1  0  0  0  0
 12 14  1  0  0  0  0
 12 13  1  0  0  0  0
 12 22  1  0  0  0  0
 13 14  1  0  0  0  0
 13 23  1  0  0  0  0
 13 24  1  0  0  0  0
 14 25  1  0  0  0  0
 14 26  1  0  0  0  0
M  CHG  1   6  -1
M  END
> <s_m_source_file>
AV-unprocessed.smi

> <i_m_source_file_index>
2499

> <i_lp_mmshare_version>
43012

> <i_f3d_flags>
0

> <s_epik_input>
W0NIMl0xW0NIMl1bQ0hdMVtDQEhdKFtDSDNdKVtOSF1DKD1PKVtOSF1jMm5bY0hdW2NIXW8y

> <s_epik_cmdline>
J2VwaWtfcHl0aG9uJywgJy1waCcsICc3LjAnLCAnLXRuJywgJzgnLCAnLW1hJywgJzIwMCcsICctbWV0YWxfYmluZGluZycsICctaW1hZScsICc8aW5maWxlLm1hZT4nLCAnLW9tYWUnLCAnPG91dGZpbGUubWFlPic=

> <r_lp_tautomer_probability>
0.107061

> <r_epik_Ionization_Penalty>
11.2144

> <r_epik_Ionization_Penalty_Charging>
7.87172

> <r_epik_Ionization_Penalty_Neutral>
3.3427

> <r_epik_State_Penalty>
5.96777

> <r_epik_Charging_Adjusted_Penalty>
13.8395

> <i_epik_Tot_Q>
-1

> <i_epik_Tot_abs_Q>
1

> <r_epik_Metal_State_Penalty>
1.88989

> <b_epik_Metal_Only>
1

> <s_lp_Force_Field>
OPLS_2005

> <r_lp_Energy>
7.95905

> <b_lp_Chiralities_Consistent>
1

> <s_lp_Variant>
AV-unprocessed.smi:2499-9

> <Gold.Version>
5.8.1

> <Gold.Id.Protein>
6NUR|6NUR_protein|mol2

> <Gold.PLP.Fitness>
46.5459

> <Gold.PLP.PLP>
-34.7028

> <Gold.PLP.part.hbond>
-2.0000

> <Gold.PLP.part.metal>
0.0000

> <Gold.PLP.part.buried>
-3.5524

> <Gold.PLP.part.nonpolar>
-29.4875

> <Gold.PLP.part.repulsive>
0.1945

> <Gold.PLP.ligand.clash>
0.0000

> <Gold.PLP.ligand.torsion>
1.0828

> <Gold.PLP.Chemscore.Hbond>
2.3000

> <Gold.PLP.Chemscore.CHOScore>
2.0000

> <Gold.PLP.Chemscore.Metal>
0.0000

> <Gold.Chemscore.Hbonds>
donor molecule, donor type, donor heavy atom, donor atom, acceptor molecule, acceptor atom, score
      P1  H  7989  7998       L1     8  0.59
      P1  H  7997  8009       L1     6  2.00
      L1  C     9    20       P1  7957  1.00
      L1  C    10    21       P1  7949  0.94

> <Gold.PLP.Chemscore.Internal.Correction>
1.1087

> <Gold.Rescore>
     Score         DG    S(hbond)    S(metal)    S(lipo)     H(rot)  DE(clash)    DE(int)     intcor
     11.46     -14.11       0.78        0.00      79.31       1.28       0.03       2.62       ----

> <Gold.Chemscore.Fitness>
11.4636

> <Gold.Chemscore.DG>
-14.1093

> <Gold.Chemscore.ZeroCoef>
-5.4800

> <Gold.Chemscore.Hbond>
0.7847

> <Gold.Chemscore.Metal>
0.0000

> <Gold.Chemscore.Lipo>
79.3122

> <Gold.Chemscore.Internal_Hbond>
0.0000

> <Gold.Chemscore.DEClash>
0.0270

> <Gold.Chemscore.DEInternal>
2.6187

> <Gold.Chemscore.Rot>
1.2778

> <Gold.Chemscore.Internal.Correction>
   9.000000E+99

> <Gold.Chemscore.Hbonds>
donor molecule, donor type, donor heavy atom, donor atom, acceptor molecule, acceptor atom, score
      P1  H  7989  7998       L1     8  0.04
      P1  H  7997  8009       L1     6  0.66

> <Gold.Chemscore.Hbond.Weighted>
-2.6209

> <Gold.Chemscore.Metal.Weighted>
-0.0000

> <Gold.Chemscore.Lipo.Weighted>
-9.2795

> <Gold.Chemscore.Internal_Hbond.Weighted>
0.0000

> <Gold.Chemscore.DEClash.Weighted>
0.0270

> <Gold.Chemscore.DEInternal.Weighted>
2.6187

> <Gold.Chemscore.Rot.Weighted>
3.2711

> <Gold.Chemscore.Internal.Correction.Weighted>
   9.000000E+99

> <Gold.Protein.RotatedTorsions>
[ 6907 6896 6895 6894 ] final    4.31 input  -60.11 | X-H torsion
[ 7974 7965 7964 7962 ] final -179.35 input  175.53 | X-H torsion
[ 8008 7997 7996 7995 ] final -170.40 input   59.86 | X-H torsion
[ 10167 10162 10161 10158 ] final  -40.30 input  -65.29 | X-H torsion
[ 10718 10713 10712 10709 ] final  110.16 input   66.30 | X-H torsion
[ 10763 10752 10751 10750 ] final -131.89 input  -60.55 | X-H torsion
[ 11005 11000 10999 10996 ] final   77.05 input  -57.11 | X-H torsion

> <Gold.Protein.ActiveResidues>
 VAL166  LYS551  ARG553  GLY616  TRP617  ASP618  TYR619  PRO620  LYS621  CYS622 
 ASP623  PHE694  ASN695  SER759  ASP760  ASP761  ALA762  ILE779  LEU786  VAL792 
 PHE793  MET794  SER795  GLU796  ALA797  LYS798  CYS799  TRP800  GLU811  SER814 

> <Gold.Protein.RotatedAtoms>
  151.6392  135.1014  160.0137 H   0  0  0  0  0  0  0  0  0  0  0  0  # atno 6907 bound_to 6896
  152.4064  133.6891  159.6368 H   0  0  0  0  0  0  0  0  0  0  0  0  # atno 6908 bound_to 6896
  150.7958  133.8619  159.3275 H   0  0  0  0  0  0  0  0  0  0  0  0  # atno 6909 bound_to 6896
  144.7136  140.0730  143.6428 H   0  0  0  0  0  0  0  0  0  0  0  0  # atno 7974 bound_to 7965
  155.9178  140.1068  157.1230 H   0  0  0  0  0  0  0  0  0  0  0  0  # atno 8008 bound_to 7997
  154.4049  140.1262  156.4705 H   0  0  0  0  0  0  0  0  0  0  0  0  # atno 8009 bound_to 7997
  155.7233  140.3469  155.5028 H   0  0  0  0  0  0  0  0  0  0  0  0  # atno 8010 bound_to 7997
  140.7038  143.3162  151.2905 H   0  0  0  0  0  0  0  0  0  0  0  0  # atno 10167 bound_to 10162
  157.6507  131.0927  150.6561 H   0  0  0  0  0  0  0  0  0  0  0  0  # atno 10718 bound_to 10713
  154.8747  135.3815  154.4321 H   0  0  0  0  0  0  0  0  0  0  0  0  # atno 10763 bound_to 10752
  153.5014  135.7030  153.5835 H   0  0  0  0  0  0  0  0  0  0  0  0  # atno 10764 bound_to 10752
  153.4165  135.3912  155.2050 H   0  0  0  0  0  0  0  0  0  0  0  0  # atno 10765 bound_to 10752
  139.9271  134.7651  156.1473 H   0  0  0  0  0  0  0  0  0  0  0  0  # atno 11005 bound_to 11000
  145.9767  139.2910  143.1066 LP  0  0  0  0  0  0  0  0  0  0  0  0  # atno 17320 bound_to 7965
  145.9056  140.9214  143.0480 LP  0  0  0  0  0  0  0  0  0  0  0  0  # atno 17321 bound_to 7965
  139.6601  144.0205  152.2686 LP  0  0  0  0  0  0  0  0  0  0  0  0  # atno 17342 bound_to 10162
  139.9769  144.6455  150.7936 LP  0  0  0  0  0  0  0  0  0  0  0  0  # atno 17343 bound_to 10162
  156.6873  130.4584  149.5610 LP  0  0  0  0  0  0  0  0  0  0  0  0  # atno 17370 bound_to 10713
  156.1887  130.6545  151.1036 LP  0  0  0  0  0  0  0  0  0  0  0  0  # atno 17371 bound_to 10713
  141.0836  133.6744  156.2388 LP  0  0  0  0  0  0  0  0  0  0  0  0  # atno 17394 bound_to 11000
  140.6305  134.5269  157.5559 LP  0  0  0  0  0  0  0  0  0  0  0  0  # atno 17395 bound_to 11000

$$$$
