AV-unprocessed.smi:65|AV-procd|sdf|616|dock3
  -GOLD-   2262016513D 1   1.00000     0.00000
 Structure written by MMmdl.
 26 27  0  0  0  0  0  0  0  0  2 V2000
  149.2293  142.1834  154.5396 N   0  0  0  0  0  0  0  0  0  0  0  0
  150.2124  141.7650  155.4027 C   0  0  0  0  0  0  0  0  0  0  0  0
  150.7323  140.5464  155.2306 N   0  0  0  0  0  0  0  0  0  0  0  0
  151.6980  140.1302  156.0720 C   0  0  0  0  0  0  0  0  0  0  0  0
  152.1624  140.9443  157.1183 C   0  0  0  0  0  0  0  0  0  0  0  0
  151.5723  142.2212  157.2545 C   0  0  0  0  0  0  0  0  0  0  0  0
  151.9577  143.1288  158.2590 N   0  0  0  0  0  0  0  0  0  0  0  0
  152.5974  142.6735  159.4867 C   0  0  0  0  0  0  0  0  0  0  0  0
  152.2206  143.7061  160.5566 C   0  0  0  0  0  0  0  0  0  0  0  0
  151.8582  144.9517  159.7461 C   0  0  2  0  0  0  0  0  0  0  0  0
  150.9736  145.8096  160.4342 O   0  0  0  0  0  0  0  0  0  0  0  0
  151.2256  144.3650  158.4853 C   0  0  0  0  0  0  0  0  0  0  0  0
  150.6043  142.5987  156.3764 N   0  3  0  0  0  0  0  0  0  0  0  0
  148.8158  143.0992  154.6420 H   0  0  0  0  0  0  0  0  0  0  0  0
  148.9163  141.5883  153.7862 H   0  0  0  0  0  0  0  0  0  0  0  0
  152.1034  139.1428  155.9076 H   0  0  0  0  0  0  0  0  0  0  0  0
  152.9437  140.5944  157.7769 H   0  0  0  0  0  0  0  0  0  0  0  0
  152.2716  141.6747  159.7793 H   0  0  0  0  0  0  0  0  0  0  0  0
  153.6767  142.6513  159.3334 H   0  0  0  0  0  0  0  0  0  0  0  0
  151.3468  143.3506  161.1055 H   0  0  0  0  0  0  0  0  0  0  0  0
  153.0196  143.8823  161.2776 H   0  0  0  0  0  0  0  0  0  0  0  0
  152.7661  145.4969  159.4841 H   0  0  0  0  0  0  0  0  0  0  0  0
  150.3414  145.2829  160.8996 H   0  0  0  0  0  0  0  0  0  0  0  0
  151.3050  145.0470  157.6379 H   0  0  0  0  0  0  0  0  0  0  0  0
  150.1716  144.1337  158.6475 H   0  0  0  0  0  0  0  0  0  0  0  0
  150.1777  143.5205  156.4674 H   0  0  0  0  0  0  0  0  0  0  0  0
  1  2  1  0  0  0  0
  1 14  1  0  0  0  0
  1 15  1  0  0  0  0
  2 13  1  0  0  0  0
  2  3  2  0  0  0  0
  3  4  1  0  0  0  0
  4  5  2  0  0  0  0
  4 16  1  0  0  0  0
  5  6  1  0  0  0  0
  5 17  1  0  0  0  0
  6  7  1  0  0  0  0
  6 13  2  0  0  0  0
  7 12  1  0  0  0  0
  7  8  1  0  0  0  0
  8  9  1  0  0  0  0
  8 18  1  0  0  0  0
  8 19  1  0  0  0  0
  9 10  1  0  0  0  0
  9 20  1  0  0  0  0
  9 21  1  0  0  0  0
 10 11  1  0  0  0  0
 10 12  1  0  0  0  0
 10 22  1  0  0  0  0
 11 23  1  0  0  0  0
 12 24  1  0  0  0  0
 12 25  1  0  0  0  0
 13 26  1  0  0  0  0
M  CHG  1  13   1
M  END
> <s_m_source_file>
AV-unprocessed.smi

> <i_m_source_file_index>
65

> <i_lp_mmshare_version>
43012

> <i_f3d_flags>
0

> <s_epik_input>
W05IMl1jMW5bY0hdW2NIXWMobjEpTjJbQ0gyXVtDSDJdW0NAQEhdKFtPSF0pW0NIMl0y

> <s_epik_cmdline>
J2VwaWtfcHl0aG9uJywgJy1waCcsICc3LjAnLCAnLXRuJywgJzgnLCAnLW1hJywgJzIwMCcsICctbWV0YWxfYmluZGluZycsICctaW1hZScsICc8aW5maWxlLm1hZT4nLCAnLW9tYWUnLCAnPG91dGZpbGUubWFlPic=

> <r_lp_tautomer_probability>
0.424989

> <r_epik_Ionization_Penalty>
0.57487

> <r_epik_Ionization_Penalty_Charging>
0.574865

> <r_epik_Ionization_Penalty_Neutral>
4.40886e-06

> <r_epik_State_Penalty>
0.845539

> <r_epik_Charging_Adjusted_Penalty>
1.4204

> <i_epik_Tot_Q>
1

> <i_epik_Tot_abs_Q>
1

> <r_epik_Metal_State_Penalty>
1.14248

> <b_epik_Metal_Only>
0

> <s_lp_Force_Field>
OPLS_2005

> <r_lp_Energy>
20.8145

> <b_lp_Chiralities_Consistent>
1

> <s_lp_Variant>
AV-unprocessed.smi:65-6

> <Gold.Version>
5.8.1

> <Gold.Id.Protein>
6NUR|6NUR_protein|mol2

> <Gold.PLP.Fitness>
43.6994

> <Gold.PLP.PLP>
-31.2331

> <Gold.PLP.part.hbond>
-4.9171

> <Gold.PLP.part.metal>
0.0000

> <Gold.PLP.part.buried>
-5.3482

> <Gold.PLP.part.nonpolar>
-20.9160

> <Gold.PLP.part.repulsive>
1.2179

> <Gold.PLP.ligand.clash>
0.0000

> <Gold.PLP.ligand.torsion>
0.1253

> <Gold.PLP.Chemscore.Hbond>
4.1686

> <Gold.PLP.Chemscore.CHOScore>
0.0000

> <Gold.PLP.Chemscore.Metal>
0.0000

> <Gold.Chemscore.Hbonds>
donor molecule, donor type, donor heavy atom, donor atom, acceptor molecule, acceptor atom, score
      L1  H     1    14       P1  8028  1.82
      L1  H    13    26       P1  8028  1.76
      P1  H  7989  7998       L1     3  0.83

> <Gold.PLP.Chemscore.Internal.Correction>
0.2111

> <Gold.Rescore>
     Score         DG    S(hbond)    S(metal)    S(lipo)     H(rot)  DE(clash)    DE(int)     intcor
     15.76     -15.98       1.75        0.00      61.67       1.00       0.10       0.12       ----

> <Gold.Chemscore.Fitness>
15.7628

> <Gold.Chemscore.DG>
-15.9837

> <Gold.Chemscore.ZeroCoef>
-5.4800

> <Gold.Chemscore.Hbond>
1.7512

> <Gold.Chemscore.Metal>
0.0000

> <Gold.Chemscore.Lipo>
61.6651

> <Gold.Chemscore.Internal_Hbond>
0.0000

> <Gold.Chemscore.DEClash>
0.1030

> <Gold.Chemscore.DEInternal>
0.1179

> <Gold.Chemscore.Rot>
1.0000

> <Gold.Chemscore.Internal.Correction>
   9.000000E+99

> <Gold.Chemscore.Hbonds>
donor molecule, donor type, donor heavy atom, donor atom, acceptor molecule, acceptor atom, score
      L1  H     1    14       P1  8028  0.88
      L1  H    13    26       P1  8028  0.86
      P1  H  7989  7998       L1     3  0.07

> <Gold.Chemscore.Hbond.Weighted>
-5.8489

> <Gold.Chemscore.Metal.Weighted>
-0.0000

> <Gold.Chemscore.Lipo.Weighted>
-7.2148

> <Gold.Chemscore.Internal_Hbond.Weighted>
0.0000

> <Gold.Chemscore.DEClash.Weighted>
0.1030

> <Gold.Chemscore.DEInternal.Weighted>
0.1179

> <Gold.Chemscore.Rot.Weighted>
2.5600

> <Gold.Chemscore.Internal.Correction.Weighted>
   9.000000E+99

> <Gold.Protein.RotatedTorsions>
[ 6907 6896 6895 6894 ] final   53.69 input  -60.11 | X-H torsion
[ 7974 7965 7964 7962 ] final   46.24 input  175.53 | X-H torsion
[ 8008 7997 7996 7995 ] final   -3.20 input   59.86 | X-H torsion
[ 10167 10162 10161 10158 ] final -114.63 input  -65.29 | X-H torsion
[ 10718 10713 10712 10709 ] final   67.48 input   66.30 | X-H torsion
[ 10763 10752 10751 10750 ] final   22.53 input  -60.55 | X-H torsion
[ 11005 11000 10999 10996 ] final   65.69 input  -57.11 | X-H torsion

> <Gold.Protein.ActiveResidues>
 VAL166  LYS551  ARG553  GLY616  TRP617  ASP618  TYR619  PRO620  LYS621  CYS622 
 ASP623  PHE694  ASN695  SER759  ASP760  ASP761  ALA762  ILE779  LEU786  VAL792 
 PHE793  MET794  SER795  GLU796  ALA797  LYS798  CYS799  TRP800  GLU811  SER814 

> <Gold.Protein.RotatedAtoms>
  152.3363  134.7194  160.0275 H   0  0  0  0  0  0  0  0  0  0  0  0  # atno 6907 bound_to 6896
  151.7594  133.3327  159.3421 H   0  0  0  0  0  0  0  0  0  0  0  0  # atno 6908 bound_to 6896
  150.7452  134.6052  159.6102 H   0  0  0  0  0  0  0  0  0  0  0  0  # atno 6909 bound_to 6896
  146.0408  139.4878  142.9779 H   0  0  0  0  0  0  0  0  0  0  0  0  # atno 7974 bound_to 7965
  154.6274  140.2515  155.7475 H   0  0  0  0  0  0  0  0  0  0  0  0  # atno 8008 bound_to 7997
  156.2461  140.2914  156.0530 H   0  0  0  0  0  0  0  0  0  0  0  0  # atno 8009 bound_to 7997
  155.1799  140.0388  157.2870 H   0  0  0  0  0  0  0  0  0  0  0  0  # atno 8010 bound_to 7997
  140.0989  143.4631  152.1824 H   0  0  0  0  0  0  0  0  0  0  0  0  # atno 10167 bound_to 10162
  157.6233  130.9323  150.0248 H   0  0  0  0  0  0  0  0  0  0  0  0  # atno 10718 bound_to 10713
  153.0908  135.6646  153.9857 H   0  0  0  0  0  0  0  0  0  0  0  0  # atno 10763 bound_to 10752
  153.9454  135.2989  155.3442 H   0  0  0  0  0  0  0  0  0  0  0  0  # atno 10764 bound_to 10752
  154.7323  135.5117  153.9057 H   0  0  0  0  0  0  0  0  0  0  0  0  # atno 10765 bound_to 10752
  139.9878  134.6639  156.0144 H   0  0  0  0  0  0  0  0  0  0  0  0  # atno 11005 bound_to 11000
  145.6888  141.0170  143.1567 LP  0  0  0  0  0  0  0  0  0  0  0  0  # atno 17320 bound_to 7965
  144.7073  139.8507  143.7426 LP  0  0  0  0  0  0  0  0  0  0  0  0  # atno 17321 bound_to 7965
  139.5682  144.7448  151.3963 LP  0  0  0  0  0  0  0  0  0  0  0  0  # atno 17342 bound_to 10162
  140.6988  143.7682  150.7370 LP  0  0  0  0  0  0  0  0  0  0  0  0  # atno 17343 bound_to 10162
  156.1390  130.3642  149.9611 LP  0  0  0  0  0  0  0  0  0  0  0  0  # atno 17370 bound_to 10713
  156.7656  130.9167  151.3643 LP  0  0  0  0  0  0  0  0  0  0  0  0  # atno 17371 bound_to 10713
  141.1540  133.6545  156.4103 LP  0  0  0  0  0  0  0  0  0  0  0  0  # atno 17394 bound_to 11000
  140.4967  134.6524  157.5232 LP  0  0  0  0  0  0  0  0  0  0  0  0  # atno 17395 bound_to 11000

$$$$
