AV-unprocessed.smi:2490|AV-procd|sdf|9808|dock4
  -GOLD-   2272013443D 1   1.00000     0.00000
 Structure written by MMmdl.
 33 34  0  0  0  0  0  0  0  0  1 V2000
  146.9391  142.6388  154.2327 C   0  0  0  0  0  0  0  0  0  0  0  0
  148.2797  142.1739  154.5530 N   0  0  0  0  0  0  0  0  0  0  0  0
  148.7064  140.9141  154.3798 C   0  0  0  0  0  0  0  0  0  0  0  0
  147.9867  140.0204  153.9316 O   0  0  0  0  0  0  0  0  0  0  0  0
  150.1554  140.6221  154.7945 C   0  0  1  0  0  0  0  0  0  0  0  0
  150.4045  140.8617  156.3009 C   0  0  0  0  0  0  0  0  0  0  0  0
  151.7648  140.4823  156.6601 N   0  0  0  0  0  0  0  0  0  0  0  0
  152.2187  140.8934  157.8989 C   0  0  0  0  0  0  0  0  0  0  0  0
  151.7457  142.0500  158.3788 N   0  0  0  0  0  0  0  0  0  0  0  0
  152.1978  142.4392  159.5903 C   0  0  0  0  0  0  0  0  0  0  0  0
  153.1244  141.6648  160.3184 C   0  0  0  0  0  0  0  0  0  0  0  0
  153.6304  142.1025  161.6761 C   0  0  0  0  0  0  0  0  0  0  0  0
  153.5513  140.4652  159.7112 C   0  0  0  0  0  0  0  0  0  0  0  0
  153.0941  140.0825  158.4995 N   0  0  0  0  0  0  0  0  0  0  0  0
  152.0864  139.1182  156.2652 C   0  0  0  0  0  0  0  0  0  0  0  0
  151.8077  138.9222  154.7664 C   0  0  0  0  0  0  0  0  0  0  0  0
  150.4532  139.2597  154.4853 O   0  0  0  0  0  0  0  0  0  0  0  0
  146.8443  143.6962  154.4796 H   0  0  0  0  0  0  0  0  0  0  0  0
  146.1896  142.0873  154.8018 H   0  0  0  0  0  0  0  0  0  0  0  0
  146.7300  142.5166  153.1692 H   0  0  0  0  0  0  0  0  0  0  0  0
  148.9293  142.8510  154.9265 H   0  0  0  0  0  0  0  0  0  0  0  0
  150.8037  141.2736  154.2057 H   0  0  0  0  0  0  0  0  0  0  0  0
  150.2481  141.9133  156.5465 H   0  0  0  0  0  0  0  0  0  0  0  0
  149.7002  140.2826  156.9003 H   0  0  0  0  0  0  0  0  0  0  0  0
  151.8172  143.3722  159.9792 H   0  0  0  0  0  0  0  0  0  0  0  0
  154.3091  141.3620  162.1007 H   0  0  0  0  0  0  0  0  0  0  0  0
  152.7963  142.2367  162.3651 H   0  0  0  0  0  0  0  0  0  0  0  0
  154.1650  143.0489  161.5926 H   0  0  0  0  0  0  0  0  0  0  0  0
  154.2601  139.8095  160.1956 H   0  0  0  0  0  0  0  0  0  0  0  0
  153.1346  138.9078  156.4819 H   0  0  0  0  0  0  0  0  0  0  0  0
  151.4891  138.4203  156.8536 H   0  0  0  0  0  0  0  0  0  0  0  0
  152.4794  139.5340  154.1621 H   0  0  0  0  0  0  0  0  0  0  0  0
  151.9807  137.8838  154.4841 H   0  0  0  0  0  0  0  0  0  0  0  0
  1  2  1  0  0  0  0
  1 18  1  0  0  0  0
  1 19  1  0  0  0  0
  1 20  1  0  0  0  0
  2  3  1  0  0  0  0
  2 21  1  0  0  0  0
  3  4  2  0  0  0  0
  3  5  1  0  0  0  0
  5 17  1  0  0  0  0
  5  6  1  0  0  0  0
  5 22  1  0  0  0  0
  6  7  1  0  0  0  0
  6 23  1  0  0  0  0
  6 24  1  0  0  0  0
  7  8  1  0  0  0  0
  7 15  1  0  0  0  0
  8 14  1  0  0  0  0
  8  9  2  0  0  0  0
  9 10  1  0  0  0  0
 10 11  2  0  0  0  0
 10 25  1  0  0  0  0
 11 12  1  0  0  0  0
 11 13  1  0  0  0  0
 12 26  1  0  0  0  0
 12 27  1  0  0  0  0
 12 28  1  0  0  0  0
 13 14  2  0  0  0  0
 13 29  1  0  0  0  0
 15 16  1  0  0  0  0
 15 30  1  0  0  0  0
 15 31  1  0  0  0  0
 16 17  1  0  0  0  0
 16 32  1  0  0  0  0
 16 33  1  0  0  0  0
M  END
> <s_m_source_file>
AV-unprocessed.smi

> <i_m_source_file_index>
2490

> <i_lp_mmshare_version>
43012

> <i_f3d_flags>
0

> <s_epik_input>
W0NIM11bTkhdQyg9TylbQ0BASF0xW0NIMl1OKFtDSDJdW0NIMl1PMSljMm5bY0hdYyhbQ0gzXSlbY0hdbjI=

> <s_epik_cmdline>
J2VwaWtfcHl0aG9uJywgJy1waCcsICc3LjAnLCAnLXRuJywgJzgnLCAnLW1hJywgJzIwMCcsICctbWV0YWxfYmluZGluZycsICctaW1hZScsICc8aW5maWxlLm1hZT4nLCAnLW9tYWUnLCAnPG91dGZpbGUubWFlPic=

> <r_lp_tautomer_probability>
1

> <r_epik_Ionization_Penalty>
8.72552e-06

> <r_epik_Ionization_Penalty_Charging>
0

> <r_epik_Ionization_Penalty_Neutral>
8.72552e-06

> <r_epik_State_Penalty>
-0

> <r_epik_Charging_Adjusted_Penalty>
0

> <i_epik_Tot_Q>
0

> <i_epik_Tot_abs_Q>
0

> <r_epik_Metal_State_Penalty>
-0

> <b_epik_Metal_Only>
0

> <s_lp_Force_Field>
OPLS_2005

> <r_lp_Energy>
12.5382

> <b_lp_Chiralities_Consistent>
1

> <s_lp_Variant>
AV-unprocessed.smi:2490-2

> <Gold.Version>
5.8.1

> <Gold.Id.Protein>
6NUR|6NUR_protein|mol2

> <Gold.PLP.Fitness>
38.1262

> <Gold.PLP.PLP>
-33.3277

> <Gold.PLP.part.hbond>
-2.4861

> <Gold.PLP.part.metal>
0.0000

> <Gold.PLP.part.buried>
-2.1205

> <Gold.PLP.part.nonpolar>
-28.4757

> <Gold.PLP.part.repulsive>
0.4865

> <Gold.PLP.ligand.clash>
0.0000

> <Gold.PLP.ligand.torsion>
0.5029

> <Gold.PLP.Chemscore.Hbond>
1.8393

> <Gold.PLP.Chemscore.CHOScore>
0.0000

> <Gold.PLP.Chemscore.Metal>
0.0000

> <Gold.Chemscore.Hbonds>
donor molecule, donor type, donor heavy atom, donor atom, acceptor molecule, acceptor atom, score
      L1  H     2    21       P1  8028  0.75
      P1  H  7997  8009       L1    14  0.80

> <Gold.PLP.Chemscore.Internal.Correction>
0.2866

> <Gold.Rescore>
     Score         DG    S(hbond)    S(metal)    S(lipo)     H(rot)  DE(clash)    DE(int)     intcor
     14.56     -15.35       1.38        0.00      73.49       1.31       0.26       0.53       ----

> <Gold.Chemscore.Fitness>
14.5619

> <Gold.Chemscore.DG>
-15.3503

> <Gold.Chemscore.ZeroCoef>
-5.4800

> <Gold.Chemscore.Hbond>
1.3840

> <Gold.Chemscore.Metal>
0.0000

> <Gold.Chemscore.Lipo>
73.4926

> <Gold.Chemscore.Internal_Hbond>
0.0000

> <Gold.Chemscore.DEClash>
0.2628

> <Gold.Chemscore.DEInternal>
0.5256

> <Gold.Chemscore.Rot>
1.3089

> <Gold.Chemscore.Internal.Correction>
   9.000000E+99

> <Gold.Chemscore.Hbonds>
donor molecule, donor type, donor heavy atom, donor atom, acceptor molecule, acceptor atom, score
      L1  H     2    21       P1  8028  0.71
      P1  H  7997  8009       L1    14  0.14

> <Gold.Chemscore.Hbond.Weighted>
-4.6225

> <Gold.Chemscore.Metal.Weighted>
-0.0000

> <Gold.Chemscore.Lipo.Weighted>
-8.5986

> <Gold.Chemscore.Internal_Hbond.Weighted>
0.0000

> <Gold.Chemscore.DEClash.Weighted>
0.2628

> <Gold.Chemscore.DEInternal.Weighted>
0.5256

> <Gold.Chemscore.Rot.Weighted>
3.3509

> <Gold.Chemscore.Internal.Correction.Weighted>
   9.000000E+99

> <Gold.Protein.RotatedTorsions>
[ 6907 6896 6895 6894 ] final  151.79 input  -60.11 | X-H torsion
[ 7974 7965 7964 7962 ] final  -45.95 input  175.53 | X-H torsion
[ 8008 7997 7996 7995 ] final  155.28 input   59.86 | X-H torsion
[ 10167 10162 10161 10158 ] final   69.06 input  -65.29 | X-H torsion
[ 10718 10713 10712 10709 ] final  179.02 input   66.30 | X-H torsion
[ 10763 10752 10751 10750 ] final  166.24 input  -60.55 | X-H torsion
[ 11005 11000 10999 10996 ] final  -36.11 input  -57.11 | X-H torsion

> <Gold.Protein.ActiveResidues>
 VAL166  LYS551  ARG553  GLY616  TRP617  ASP618  TYR619  PRO620  LYS621  CYS622 
 ASP623  PHE694  ASN695  SER759  ASP760  ASP761  ALA762  ILE779  LEU786  VAL792 
 PHE793  MET794  SER795  GLU796  ALA797  LYS798  CYS799  TRP800  GLU811  SER814 

> <Gold.Protein.RotatedAtoms>
  152.0957  133.4223  159.4563 H   0  0  0  0  0  0  0  0  0  0  0  0  # atno 6907 bound_to 6896
  150.6863  134.2819  159.4640 H   0  0  0  0  0  0  0  0  0  0  0  0  # atno 6908 bound_to 6896
  152.0675  134.9555  160.0625 H   0  0  0  0  0  0  0  0  0  0  0  0  # atno 6909 bound_to 6896
  145.9769  140.7325  142.9383 H   0  0  0  0  0  0  0  0  0  0  0  0  # atno 7974 bound_to 7965
  156.2487  140.1944  156.6776 H   0  0  0  0  0  0  0  0  0  0  0  0  # atno 8008 bound_to 7997
  154.6346  140.0591  156.9799 H   0  0  0  0  0  0  0  0  0  0  0  0  # atno 8009 bound_to 7997
  155.1657  140.3264  155.4405 H   0  0  0  0  0  0  0  0  0  0  0  0  # atno 8010 bound_to 7997
  140.0719  144.5145  150.7221 H   0  0  0  0  0  0  0  0  0  0  0  0  # atno 10167 bound_to 10162
  156.8820  130.9819  151.3061 H   0  0  0  0  0  0  0  0  0  0  0  0  # atno 10718 bound_to 10713
  154.3361  135.2754  155.2447 H   0  0  0  0  0  0  0  0  0  0  0  0  # atno 10763 bound_to 10752
  154.4737  135.5876  153.6343 H   0  0  0  0  0  0  0  0  0  0  0  0  # atno 10764 bound_to 10752
  152.9862  135.6094  154.3558 H   0  0  0  0  0  0  0  0  0  0  0  0  # atno 10765 bound_to 10752
  140.9849  133.7036  156.1748 H   0  0  0  0  0  0  0  0  0  0  0  0  # atno 11005 bound_to 11000
  144.6851  140.2843  143.7287 LP  0  0  0  0  0  0  0  0  0  0  0  0  # atno 17320 bound_to 7965
  145.7826  139.1897  143.2149 LP  0  0  0  0  0  0  0  0  0  0  0  0  # atno 17321 bound_to 7965
  140.7121  143.2514  151.4548 LP  0  0  0  0  0  0  0  0  0  0  0  0  # atno 17342 bound_to 10162
  139.5831  144.1665  152.1994 LP  0  0  0  0  0  0  0  0  0  0  0  0  # atno 17343 bound_to 10162
  157.6135  130.8600  149.8989 LP  0  0  0  0  0  0  0  0  0  0  0  0  # atno 17370 bound_to 10713
  156.0672  130.3690  150.0852 LP  0  0  0  0  0  0  0  0  0  0  0  0  # atno 17371 bound_to 10713
  140.7130  134.4441  157.5580 LP  0  0  0  0  0  0  0  0  0  0  0  0  # atno 17394 bound_to 11000
  139.8966  134.8656  156.2080 LP  0  0  0  0  0  0  0  0  0  0  0  0  # atno 17395 bound_to 11000

$$$$
