AV-unprocessed.smi:1543|AV-procd|sdf|6211|dock4
  -GOLD-   22720 6383D 1   1.00000     0.00000
 Structure written by MMmdl.
 49 50  0  0  0  0  0  0  0  0  2 V2000
  151.5340  137.7051  155.8159 C   0  0  0  0  0  0  0  0  0  0  0  0
  151.2174  138.6812  154.6683 C   0  0  1  0  0  0  0  0  0  0  0  0
  149.7884  138.5314  154.1104 C   0  0  0  0  0  0  0  0  0  0  0  0
  148.7796  139.0765  155.0622 N   0  3  2  0  0  0  0  0  0  0  0  0
  147.3361  138.8077  154.7196 C   0  0  0  0  0  0  0  0  0  0  0  0
  146.4134  139.7168  155.5700 C   0  0  0  0  0  0  0  0  0  0  0  0
  147.0791  139.2018  153.2432 C   0  0  0  0  0  0  0  0  0  0  0  0
  146.9672  137.3127  154.9609 C   0  0  0  0  0  0  0  0  0  0  0  0
  147.1455  136.4683  153.7798 N   0  0  0  0  0  0  0  0  0  0  0  0
  146.1856  135.7444  153.1859 C   0  0  0  0  0  0  0  0  0  0  0  0
  145.0221  135.7038  153.5850 O   0  0  0  0  0  0  0  0  0  0  0  0
  146.6623  135.0953  152.1102 N   0  0  0  0  0  0  0  0  0  0  0  0
  145.9756  134.2114  151.2344 C   0  0  0  0  0  0  0  0  0  0  0  0
  144.5993  134.3132  150.9168 C   0  0  0  0  0  0  0  0  0  0  0  0
  144.0303  133.3619  150.0482 C   0  0  0  0  0  0  0  0  0  0  0  0
  144.8536  132.3403  149.5363 C   0  0  0  0  0  0  0  0  0  0  0  0
  146.1628  132.2225  149.8420 N   0  0  0  0  0  0  0  0  0  0  0  0
  146.7016  133.1382  150.6752 C   0  0  0  0  0  0  0  0  0  0  0  0
  149.1183  140.4915  155.3792 C   0  0  0  0  0  0  0  0  0  0  0  0
  150.5420  140.5904  155.9547 C   0  0  2  0  0  0  0  0  0  0  0  0
  150.9527  142.0428  156.2215 C   0  0  0  0  0  0  0  0  0  0  0  0
  151.4693  140.0384  155.0260 O   0  0  0  0  0  0  0  0  0  0  0  0
  151.4646  136.6721  155.4741 H   0  0  0  0  0  0  0  0  0  0  0  0
  150.8473  137.8132  156.6550 H   0  0  0  0  0  0  0  0  0  0  0  0
  152.5466  137.8597  156.1891 H   0  0  0  0  0  0  0  0  0  0  0  0
  151.9134  138.4504  153.8611 H   0  0  0  0  0  0  0  0  0  0  0  0
  149.7200  139.0631  153.1608 H   0  0  0  0  0  0  0  0  0  0  0  0
  149.6216  137.4781  153.8946 H   0  0  0  0  0  0  0  0  0  0  0  0
  145.3868  139.7072  155.2015 H   0  0  0  0  0  0  0  0  0  0  0  0
  146.7489  140.7544  155.5506 H   0  0  0  0  0  0  0  0  0  0  0  0
  146.3619  139.3983  156.6110 H   0  0  0  0  0  0  0  0  0  0  0  0
  146.0139  139.2300  153.0113 H   0  0  0  0  0  0  0  0  0  0  0  0
  147.5206  138.4957  152.5404 H   0  0  0  0  0  0  0  0  0  0  0  0
  147.4773  140.1923  153.0207 H   0  0  0  0  0  0  0  0  0  0  0  0
  147.5355  136.8980  155.7939 H   0  0  0  0  0  0  0  0  0  0  0  0
  145.9193  137.2223  155.2448 H   0  0  0  0  0  0  0  0  0  0  0  0
  148.0719  136.4420  153.3792 H   0  0  0  0  0  0  0  0  0  0  0  0
  147.6183  135.2972  151.8562 H   0  0  0  0  0  0  0  0  0  0  0  0
  143.9692  135.0861  151.3286 H   0  0  0  0  0  0  0  0  0  0  0  0
  142.9841  133.4115  149.7844 H   0  0  0  0  0  0  0  0  0  0  0  0
  144.4478  131.5944  148.8689 H   0  0  0  0  0  0  0  0  0  0  0  0
  147.7508  133.0108  150.8993 H   0  0  0  0  0  0  0  0  0  0  0  0
  149.0453  141.1051  154.4806 H   0  0  0  0  0  0  0  0  0  0  0  0
  148.4332  140.9133  156.1115 H   0  0  0  0  0  0  0  0  0  0  0  0
  150.5950  140.0470  156.8983 H   0  0  0  0  0  0  0  0  0  0  0  0
  150.2781  142.5173  156.9347 H   0  0  0  0  0  0  0  0  0  0  0  0
  150.9385  142.6328  155.3047 H   0  0  0  0  0  0  0  0  0  0  0  0
  151.9606  142.0936  156.6342 H   0  0  0  0  0  0  0  0  0  0  0  0
  148.9318  138.5700  155.9229 H   0  0  0  0  0  0  0  0  0  0  0  0
  1  2  1  0  0  0  0
  1 23  1  0  0  0  0
  1 24  1  0  0  0  0
  1 25  1  0  0  0  0
  2 22  1  0  0  0  0
  2  3  1  0  0  0  0
  2 26  1  0  0  0  0
  3  4  1  0  0  0  0
  3 27  1  0  0  0  0
  3 28  1  0  0  0  0
  4  5  1  0  0  0  0
  4 19  1  0  0  0  0
  4 49  1  0  0  0  0
  5  6  1  0  0  0  0
  5  7  1  0  0  0  0
  5  8  1  0  0  0  0
  6 29  1  0  0  0  0
  6 30  1  0  0  0  0
  6 31  1  0  0  0  0
  7 32  1  0  0  0  0
  7 33  1  0  0  0  0
  7 34  1  0  0  0  0
  8  9  1  0  0  0  0
  8 35  1  0  0  0  0
  8 36  1  0  0  0  0
  9 10  1  0  0  0  0
  9 37  1  0  0  0  0
 10 11  2  0  0  0  0
 10 12  1  0  0  0  0
 12 13  1  0  0  0  0
 12 38  1  0  0  0  0
 13 18  1  0  0  0  0
 13 14  2  0  0  0  0
 14 15  1  0  0  0  0
 14 39  1  0  0  0  0
 15 16  2  0  0  0  0
 15 40  1  0  0  0  0
 16 17  1  0  0  0  0
 16 41  1  0  0  0  0
 17 18  2  0  0  0  0
 18 42  1  0  0  0  0
 19 20  1  0  0  0  0
 19 43  1  0  0  0  0
 19 44  1  0  0  0  0
 20 21  1  0  0  0  0
 20 22  1  0  0  0  0
 20 45  1  0  0  0  0
 21 46  1  0  0  0  0
 21 47  1  0  0  0  0
 21 48  1  0  0  0  0
M  CHG  1   4   1
M  END
> <s_m_source_file>
AV-unprocessed.smi

> <i_m_source_file_index>
1543

> <i_lp_mmshare_version>
43012

> <i_f3d_flags>
0

> <s_epik_input>
W0NIM11bQ0BASF0xW0NIMl1OKFtDSDJdW0NASF0oTzEpW0NIM10pQyhbQ0gzXSkoW0NIM10pW0NIMl1bTkhdQyg9TylbTkhdYzJbY0hdW2NIXVtjSF1uW2NIXTI=

> <s_epik_cmdline>
J2VwaWtfcHl0aG9uJywgJy1waCcsICc3LjAnLCAnLXRuJywgJzgnLCAnLW1hJywgJzIwMCcsICctbWV0YWxfYmluZGluZycsICctaW1hZScsICc8aW5maWxlLm1hZT4nLCAnLW9tYWUnLCAnPG91dGZpbGUubWFlPic=

> <r_epik_Ionization_Penalty>
0.60676

> <r_epik_Ionization_Penalty_Charging>
0.602531

> <r_epik_Ionization_Penalty_Neutral>
0.00422967

> <r_epik_State_Penalty>
0.607492

> <r_epik_Charging_Adjusted_Penalty>
1.21002

> <i_epik_Tot_Q>
1

> <i_epik_Tot_abs_Q>
1

> <r_epik_Metal_State_Penalty>
0.604589

> <b_epik_Metal_Only>
0

> <s_lp_Force_Field>
OPLS_2005

> <r_lp_Energy>
30.6823

> <b_lp_Chiralities_Consistent>
1

> <s_lp_Variant>
AV-unprocessed.smi:1543-7

> <Gold.Version>
5.8.1

> <Gold.Id.Protein>
6NUR|6NUR_protein|mol2

> <Gold.PLP.Fitness>
41.6385

> <Gold.PLP.PLP>
-32.9509

> <Gold.PLP.part.hbond>
-3.0000

> <Gold.PLP.part.metal>
0.0000

> <Gold.PLP.part.buried>
-5.1523

> <Gold.PLP.part.nonpolar>
-25.1435

> <Gold.PLP.part.repulsive>
0.3351

> <Gold.PLP.ligand.clash>
0.0000

> <Gold.PLP.ligand.torsion>
1.2943

> <Gold.PLP.Chemscore.Hbond>
2.8800

> <Gold.PLP.Chemscore.CHOScore>
0.8413

> <Gold.PLP.Chemscore.Metal>
0.0000

> <Gold.Chemscore.Hbonds>
donor molecule, donor type, donor heavy atom, donor atom, acceptor molecule, acceptor atom, score
      L1  H     9    37       P1  7948  0.86
      L1  H    12    38       P1  7948  1.00
      P1  H  7989  7998       L1    22  1.00
      L1  C    18    42       P1 10747  0.80

> <Gold.PLP.Chemscore.Internal.Correction>
0.1125

> <Gold.Rescore>
     Score         DG    S(hbond)    S(metal)    S(lipo)     H(rot)  DE(clash)    DE(int)     intcor
     18.79     -20.96       2.58        0.00      90.76       1.46       0.12       2.05       ----

> <Gold.Chemscore.Fitness>
18.7884

> <Gold.Chemscore.DG>
-20.9559

> <Gold.Chemscore.ZeroCoef>
-5.4800

> <Gold.Chemscore.Hbond>
2.5757

> <Gold.Chemscore.Metal>
0.0000

> <Gold.Chemscore.Lipo>
90.7599

> <Gold.Chemscore.Internal_Hbond>
0.0000

> <Gold.Chemscore.DEClash>
0.1168

> <Gold.Chemscore.DEInternal>
2.0508

> <Gold.Chemscore.Rot>
1.4632

> <Gold.Chemscore.Internal.Correction>
   9.000000E+99

> <Gold.Chemscore.Hbonds>
donor molecule, donor type, donor heavy atom, donor atom, acceptor molecule, acceptor atom, score
      L1  H     9    37       P1  7948  0.87
      L1  H    12    38       P1  7948  0.91
      P1  H  7989  7998       L1    22  0.46

> <Gold.Chemscore.Hbond.Weighted>
-8.6029

> <Gold.Chemscore.Metal.Weighted>
-0.0000

> <Gold.Chemscore.Lipo.Weighted>
-10.6189

> <Gold.Chemscore.Internal_Hbond.Weighted>
0.0000

> <Gold.Chemscore.DEClash.Weighted>
0.1168

> <Gold.Chemscore.DEInternal.Weighted>
2.0508

> <Gold.Chemscore.Rot.Weighted>
3.7459

> <Gold.Chemscore.Internal.Correction.Weighted>
   9.000000E+99

> <Gold.Protein.RotatedTorsions>
[ 6907 6896 6895 6894 ] final   18.19 input  -60.11 | X-H torsion
[ 7974 7965 7964 7962 ] final  -77.21 input  175.53 | X-H torsion
[ 8008 7997 7996 7995 ] final   50.01 input   59.86 | X-H torsion
[ 10167 10162 10161 10158 ] final  176.83 input  -65.29 | X-H torsion
[ 10718 10713 10712 10709 ] final   -9.61 input   66.30 | X-H torsion
[ 10763 10752 10751 10750 ] final  -77.58 input  -60.55 | X-H torsion
[ 11005 11000 10999 10996 ] final  -26.84 input  -57.11 | X-H torsion

> <Gold.Protein.ActiveResidues>
 VAL166  LYS551  ARG553  GLY616  TRP617  ASP618  TYR619  PRO620  LYS621  CYS622 
 ASP623  PHE694  ASN695  SER759  ASP760  ASP761  ALA762  ILE779  LEU786  VAL792 
 PHE793  MET794  SER795  GLU796  ALA797  LYS798  CYS799  TRP800  GLU811  SER814 

> <Gold.Protein.RotatedAtoms>
  151.8614  135.0522  160.0469 H   0  0  0  0  0  0  0  0  0  0  0  0  # atno 6907 bound_to 6896
  152.2660  133.5335  159.5418 H   0  0  0  0  0  0  0  0  0  0  0  0  # atno 6908 bound_to 6896
  150.7134  134.0680  159.3897 H   0  0  0  0  0  0  0  0  0  0  0  0  # atno 6909 bound_to 6896
  145.6027  140.9405  143.1232 H   0  0  0  0  0  0  0  0  0  0  0  0  # atno 7974 bound_to 7965
  155.4117  140.3442  155.4264 H   0  0  0  0  0  0  0  0  0  0  0  0  # atno 8008 bound_to 7997
  156.1445  140.1552  156.8900 H   0  0  0  0  0  0  0  0  0  0  0  0  # atno 8009 bound_to 7997
  154.4999  140.0817  156.7756 H   0  0  0  0  0  0  0  0  0  0  0  0  # atno 8010 bound_to 7997
  139.5229  144.2870  152.0497 H   0  0  0  0  0  0  0  0  0  0  0  0  # atno 10167 bound_to 10162
  156.6856  130.5050  149.5958 H   0  0  0  0  0  0  0  0  0  0  0  0  # atno 10718 bound_to 10713
  154.5148  135.5759  153.6634 H   0  0  0  0  0  0  0  0  0  0  0  0  # atno 10763 bound_to 10752
  152.9904  135.6167  154.2831 H   0  0  0  0  0  0  0  0  0  0  0  0  # atno 10764 bound_to 10752
  154.2748  135.2852  155.2702 H   0  0  0  0  0  0  0  0  0  0  0  0  # atno 10765 bound_to 10752
  140.9065  133.7489  156.0614 H   0  0  0  0  0  0  0  0  0  0  0  0  # atno 11005 bound_to 11000
  144.7303  139.7747  143.7350 LP  0  0  0  0  0  0  0  0  0  0  0  0  # atno 17320 bound_to 7965
  146.1564  139.4663  143.0016 LP  0  0  0  0  0  0  0  0  0  0  0  0  # atno 17321 bound_to 7965
  140.2322  144.4356  150.6295 LP  0  0  0  0  0  0  0  0  0  0  0  0  # atno 17342 bound_to 10162
  140.6347  143.2193  151.6420 LP  0  0  0  0  0  0  0  0  0  0  0  0  # atno 17343 bound_to 10162
  156.1835  130.6514  151.0980 LP  0  0  0  0  0  0  0  0  0  0  0  0  # atno 17370 bound_to 10713
  157.7028  131.0769  150.6766 LP  0  0  0  0  0  0  0  0  0  0  0  0  # atno 17371 bound_to 10713
  140.8164  134.3340  157.5396 LP  0  0  0  0  0  0  0  0  0  0  0  0  # atno 17394 bound_to 11000
  139.8750  134.9284  156.3449 LP  0  0  0  0  0  0  0  0  0  0  0  0  # atno 17395 bound_to 11000

$$$$
