AV-unprocessed.smi:468|AV-procd|sdf|2652|dock3
  -GOLD-   2262023 63D 1   1.00000     0.00000
 Structure written by MMmdl.
 49 50  0  0  0  0  0  0  0  0  2 V2000
  144.4431  135.5683  156.7551 C   0  0  0  0  0  0  0  0  0  0  0  0
  145.4393  135.4999  157.7588 O   0  0  0  0  0  0  0  0  0  0  0  0
  146.3682  134.4519  157.5388 C   0  0  0  0  0  0  0  0  0  0  0  0
  147.3276  134.3599  158.7367 C   0  0  0  0  0  0  0  0  0  0  0  0
  148.1910  135.5459  158.8629 N   0  0  0  0  0  0  0  0  0  0  0  0
  148.2320  136.2609  160.0186 C   0  0  0  0  0  0  0  0  0  0  0  0
  149.0199  137.1958  160.1743 O   0  0  0  0  0  0  0  0  0  0  0  0
  147.2357  135.9260  161.1530 C   0  0  0  0  0  0  0  0  0  0  0  0
  147.5619  136.5234  162.5376 C   0  0  0  0  0  0  0  0  0  0  0  0
  147.2120  135.1672  163.1558 C   0  0  0  0  0  0  0  0  0  0  0  0
  147.4465  134.5378  161.7803 C   0  0  0  0  0  0  0  0  0  0  0  0
  148.9959  135.8663  157.7536 C   0  0  0  0  0  0  0  0  0  0  0  0
  148.9949  137.0999  157.1808 C   0  0  0  0  0  0  0  0  0  0  0  0
  148.1797  138.1123  157.6667 N   0  0  0  0  0  0  0  0  0  0  0  0
  149.8314  137.3657  156.0632 N   0  0  0  0  0  0  0  0  0  0  0  0
  149.7976  138.7156  155.4535 C   0  0  0  0  0  0  0  0  0  0  0  0
  151.0021  139.6012  155.8576 C   0  0  0  0  0  0  0  0  0  0  0  0
  150.6987  141.1070  155.7778 C   0  0  0  0  0  0  0  0  0  0  0  0
  152.2325  139.2555  155.0060 C   0  0  0  0  0  0  0  0  0  0  0  0
  150.6513  136.3916  155.5582 C   0  0  0  0  0  0  0  0  0  0  0  0
  151.3620  136.6437  154.5844 O   0  0  0  0  0  0  0  0  0  0  0  0
  150.6569  135.1599  156.1437 N   0  5  0  0  0  0  0  0  0  0  0  0
  149.8828  134.8319  157.2113 C   0  0  0  0  0  0  0  0  0  0  0  0
  149.9139  133.7135  157.7254 O   0  0  0  0  0  0  0  0  0  0  0  0
  143.7619  136.3906  156.9738 H   0  0  0  0  0  0  0  0  0  0  0  0
  143.8583  134.6484  156.7176 H   0  0  0  0  0  0  0  0  0  0  0  0
  144.8833  135.7457  155.7733 H   0  0  0  0  0  0  0  0  0  0  0  0
  145.8535  133.5034  157.3775 H   0  0  0  0  0  0  0  0  0  0  0  0
  146.9385  134.6681  156.6344 H   0  0  0  0  0  0  0  0  0  0  0  0
  146.7533  134.2271  159.6551 H   0  0  0  0  0  0  0  0  0  0  0  0
  147.9302  133.4544  158.6472 H   0  0  0  0  0  0  0  0  0  0  0  0
  146.1904  136.1110  160.9007 H   0  0  0  0  0  0  0  0  0  0  0  0
  148.6078  136.7896  162.6968 H   0  0  0  0  0  0  0  0  0  0  0  0
  146.8982  137.3322  162.8444 H   0  0  0  0  0  0  0  0  0  0  0  0
  147.8971  134.8297  163.9341 H   0  0  0  0  0  0  0  0  0  0  0  0
  146.1706  135.1052  163.4756 H   0  0  0  0  0  0  0  0  0  0  0  0
  146.6965  133.7984  161.4978 H   0  0  0  0  0  0  0  0  0  0  0  0
  148.4587  134.1485  161.6573 H   0  0  0  0  0  0  0  0  0  0  0  0
  147.5692  137.9566  158.4558 H   0  0  0  0  0  0  0  0  0  0  0  0
  147.9882  138.9351  157.1136 H   0  0  0  0  0  0  0  0  0  0  0  0
  149.7579  138.6186  154.3679 H   0  0  0  0  0  0  0  0  0  0  0  0
  148.8723  139.2439  155.6875 H   0  0  0  0  0  0  0  0  0  0  0  0
  151.2610  139.3808  156.8933 H   0  0  0  0  0  0  0  0  0  0  0  0
  150.3851  141.3951  154.7741 H   0  0  0  0  0  0  0  0  0  0  0  0
  151.5772  141.6990  156.0353 H   0  0  0  0  0  0  0  0  0  0  0  0
  149.9068  141.3924  156.4704 H   0  0  0  0  0  0  0  0  0  0  0  0
  152.0549  139.4654  153.9507 H   0  0  0  0  0  0  0  0  0  0  0  0
  152.4898  138.1999  155.0974 H   0  0  0  0  0  0  0  0  0  0  0  0
  153.1030  139.8328  155.3187 H   0  0  0  0  0  0  0  0  0  0  0  0
  1  2  1  0  0  0  0
  1 25  1  0  0  0  0
  1 26  1  0  0  0  0
  1 27  1  0  0  0  0
  2  3  1  0  0  0  0
  3  4  1  0  0  0  0
  3 28  1  0  0  0  0
  3 29  1  0  0  0  0
  4  5  1  0  0  0  0
  4 30  1  0  0  0  0
  4 31  1  0  0  0  0
  5  6  1  0  0  0  0
  5 12  1  0  0  0  0
  6  7  2  0  0  0  0
  6  8  1  0  0  0  0
  8 11  1  0  0  0  0
  8  9  1  0  0  0  0
  8 32  1  0  0  0  0
  9 10  1  0  0  0  0
  9 33  1  0  0  0  0
  9 34  1  0  0  0  0
 10 11  1  0  0  0  0
 10 35  1  0  0  0  0
 10 36  1  0  0  0  0
 11 37  1  0  0  0  0
 11 38  1  0  0  0  0
 12 23  1  0  0  0  0
 12 13  2  0  0  0  0
 13 14  1  0  0  0  0
 13 15  1  0  0  0  0
 14 39  1  0  0  0  0
 14 40  1  0  0  0  0
 15 16  1  0  0  0  0
 15 20  1  0  0  0  0
 16 17  1  0  0  0  0
 16 41  1  0  0  0  0
 16 42  1  0  0  0  0
 17 18  1  0  0  0  0
 17 19  1  0  0  0  0
 17 43  1  0  0  0  0
 18 44  1  0  0  0  0
 18 45  1  0  0  0  0
 18 46  1  0  0  0  0
 19 47  1  0  0  0  0
 19 48  1  0  0  0  0
 19 49  1  0  0  0  0
 20 21  2  0  0  0  0
 20 22  1  0  0  0  0
 22 23  1  0  0  0  0
 23 24  2  0  0  0  0
M  CHG  1  22  -1
M  END
> <s_m_source_file>
AV-unprocessed.smi

> <i_m_source_file_index>
468

> <i_lp_mmshare_version>
43012

> <i_f3d_flags>
0

> <s_epik_input>
W0NIMl0xW0NIMl1bQ0gyXVtDSF0xQyg9TylOKFtDSDJdW0NIMl1PW0NIM10pYzJjKFtOSDJdKW4oW0NIMl1bQ0hdKFtDSDNdKVtDSDNdKWMoPU8pW25IXWMyPU8=

> <s_epik_cmdline>
J2VwaWtfcHl0aG9uJywgJy1waCcsICc3LjAnLCAnLXRuJywgJzgnLCAnLW1hJywgJzIwMCcsICctbWV0YWxfYmluZGluZycsICctaW1hZScsICc8aW5maWxlLm1hZT4nLCAnLW9tYWUnLCAnPG91dGZpbGUubWFlPic=

> <r_lp_tautomer_probability>
1

> <r_epik_Ionization_Penalty>
5.91772

> <r_epik_Ionization_Penalty_Charging>
1.97379e-07

> <r_epik_Ionization_Penalty_Neutral>
5.91772

> <r_epik_State_Penalty>
5.91769

> <r_epik_Charging_Adjusted_Penalty>
5.91769

> <i_epik_Tot_Q>
-1

> <i_epik_Tot_abs_Q>
1

> <r_epik_Metal_State_Penalty>
1.85156

> <b_epik_Metal_Only>
1

> <s_lp_Force_Field>
OPLS_2005

> <r_lp_Energy>
46.8311

> <b_lp_Chiralities_Consistent>
1

> <s_lp_Variant>
AV-unprocessed.smi:468-2

> <Gold.Version>
5.8.1

> <Gold.Id.Protein>
6NUR|6NUR_protein|mol2

> <Gold.PLP.Fitness>
39.7296

> <Gold.PLP.PLP>
-33.2220

> <Gold.PLP.part.hbond>
-3.0000

> <Gold.PLP.part.metal>
0.0000

> <Gold.PLP.part.buried>
-4.6348

> <Gold.PLP.part.nonpolar>
-26.7674

> <Gold.PLP.part.repulsive>
0.3453

> <Gold.PLP.ligand.clash>
0.2123

> <Gold.PLP.ligand.torsion>
1.7648

> <Gold.PLP.Chemscore.Hbond>
2.5062

> <Gold.PLP.Chemscore.CHOScore>
0.0000

> <Gold.PLP.Chemscore.Metal>
0.0000

> <Gold.Chemscore.Hbonds>
donor molecule, donor type, donor heavy atom, donor atom, acceptor molecule, acceptor atom, score
      P1  H  6896  6907       L1    24  1.00
      P1  H  6931  6943       L1     7  0.51
      P1  H 10752 10763       L1    21  1.00

> <Gold.PLP.Chemscore.Internal.Correction>
2.7309

> <Gold.Rescore>
     Score         DG    S(hbond)    S(metal)    S(lipo)     H(rot)  DE(clash)    DE(int)     intcor
     11.55     -15.99       2.40        0.00      65.77       2.04       0.10       4.34       ----

> <Gold.Chemscore.Fitness>
11.5521

> <Gold.Chemscore.DG>
-15.9939

> <Gold.Chemscore.ZeroCoef>
-5.4800

> <Gold.Chemscore.Hbond>
2.4047

> <Gold.Chemscore.Metal>
0.0000

> <Gold.Chemscore.Lipo>
65.7665

> <Gold.Chemscore.Internal_Hbond>
0.0000

> <Gold.Chemscore.DEClash>
0.1042

> <Gold.Chemscore.DEInternal>
4.3376

> <Gold.Chemscore.Rot>
2.0362

> <Gold.Chemscore.Internal.Correction>
   9.000000E+99

> <Gold.Chemscore.Hbonds>
donor molecule, donor type, donor heavy atom, donor atom, acceptor molecule, acceptor atom, score
      P1  H  6896  6907       L1    24  0.82
      P1  H  6931  6943       L1     7  0.49
      P1  H 10752 10763       L1    21  0.98

> <Gold.Chemscore.Hbond.Weighted>
-8.0319

> <Gold.Chemscore.Metal.Weighted>
-0.0000

> <Gold.Chemscore.Lipo.Weighted>
-7.6947

> <Gold.Chemscore.Internal_Hbond.Weighted>
0.0000

> <Gold.Chemscore.DEClash.Weighted>
0.1042

> <Gold.Chemscore.DEInternal.Weighted>
4.3376

> <Gold.Chemscore.Rot.Weighted>
5.2126

> <Gold.Chemscore.Internal.Correction.Weighted>
   9.000000E+99

> <Gold.Protein.RotatedTorsions>
[ 6907 6896 6895 6894 ] final -131.19 input  -60.11 | X-H torsion
[ 7974 7965 7964 7962 ] final  177.79 input  175.53 | X-H torsion
[ 8008 7997 7996 7995 ] final -120.40 input   59.86 | X-H torsion
[ 10167 10162 10161 10158 ] final -116.16 input  -65.29 | X-H torsion
[ 10718 10713 10712 10709 ] final  -71.98 input   66.30 | X-H torsion
[ 10763 10752 10751 10750 ] final   35.11 input  -60.55 | X-H torsion
[ 11005 11000 10999 10996 ] final -171.27 input  -57.11 | X-H torsion

> <Gold.Protein.ActiveResidues>
 VAL166  LYS551  ARG553  GLY616  TRP617  ASP618  TYR619  PRO620  LYS621  CYS622 
 ASP623  PHE694  ASN695  SER759  ASP760  ASP761  ALA762  ILE779  LEU786  VAL792 
 PHE793  MET794  SER795  GLU796  ALA797  LYS798  CYS799  TRP800  GLU811  SER814 

> <Gold.Protein.RotatedAtoms>
  150.9482  133.6579  159.2777 H   0  0  0  0  0  0  0  0  0  0  0  0  # atno 6907 bound_to 6896
  151.3945  135.0960  159.9546 H   0  0  0  0  0  0  0  0  0  0  0  0  # atno 6908 bound_to 6896
  152.5098  133.8989  159.7486 H   0  0  0  0  0  0  0  0  0  0  0  0  # atno 6909 bound_to 6896
  144.7164  140.0300  143.6439 H   0  0  0  0  0  0  0  0  0  0  0  0  # atno 7974 bound_to 7965
  155.1312  140.0400  157.2775 H   0  0  0  0  0  0  0  0  0  0  0  0  # atno 8008 bound_to 7997
  154.6541  140.2576  155.7154 H   0  0  0  0  0  0  0  0  0  0  0  0  # atno 8009 bound_to 7997
  156.2590  140.2830  156.0987 H   0  0  0  0  0  0  0  0  0  0  0  0  # atno 8010 bound_to 7997
  140.0822  143.4777  152.1919 H   0  0  0  0  0  0  0  0  0  0  0  0  # atno 10167 bound_to 10162
  156.0339  130.4363  150.2525 H   0  0  0  0  0  0  0  0  0  0  0  0  # atno 10718 bound_to 10713
  153.0133  135.6342  154.1775 H   0  0  0  0  0  0  0  0  0  0  0  0  # atno 10763 bound_to 10752
  154.1516  135.2828  155.3135 H   0  0  0  0  0  0  0  0  0  0  0  0  # atno 10764 bound_to 10752
  154.6049  135.5575  153.7473 H   0  0  0  0  0  0  0  0  0  0  0  0  # atno 10765 bound_to 10752
  140.5101  134.5810  157.5016 H   0  0  0  0  0  0  0  0  0  0  0  0  # atno 11005 bound_to 11000
  146.0110  139.3170  143.0870 LP  0  0  0  0  0  0  0  0  0  0  0  0  # atno 17320 bound_to 7965
  145.8682  140.9436  143.0664 LP  0  0  0  0  0  0  0  0  0  0  0  0  # atno 17321 bound_to 7965
  139.5773  144.7493  151.3732 LP  0  0  0  0  0  0  0  0  0  0  0  0  # atno 17342 bound_to 10162
  140.7072  143.7484  150.7502 LP  0  0  0  0  0  0  0  0  0  0  0  0  # atno 17343 bound_to 10162
  157.0626  131.0094  151.3217 LP  0  0  0  0  0  0  0  0  0  0  0  0  # atno 17370 bound_to 10713
  157.5059  130.7908  149.7653 LP  0  0  0  0  0  0  0  0  0  0  0  0  # atno 17371 bound_to 10713
  139.9664  134.7366  156.0131 LP  0  0  0  0  0  0  0  0  0  0  0  0  # atno 17394 bound_to 11000
  141.1390  133.6569  156.3675 LP  0  0  0  0  0  0  0  0  0  0  0  0  # atno 17395 bound_to 11000

$$$$
