AV-unprocessed.smi:2991|AV-procd|sdf|11398|dock5
  -GOLD-   2272016323D 1   1.00000     0.00000
 Structure written by MMmdl.
 37 38  0  0  0  0  0  0  0  0  1 V2000
  153.8430  141.4979  160.8840 C   0  0  0  0  0  0  0  0  0  0  0  0
  152.8666  142.5348  160.3611 C   0  0  0  0  0  0  0  0  0  0  0  0
  152.7536  143.6580  161.1031 N   0  0  0  0  0  0  0  0  0  0  0  0
  151.9037  144.6153  160.6794 C   0  0  0  0  0  0  0  0  0  0  0  0
  151.1269  144.5003  159.5107 C   0  0  0  0  0  0  0  0  0  0  0  0
  151.2316  143.3186  158.7381 C   0  0  0  0  0  0  0  0  0  0  0  0
  150.5124  143.1048  157.5289 N   0  0  0  0  0  0  0  0  0  0  0  0
  149.9213  141.9830  157.0842 C   0  0  0  0  0  0  0  0  0  0  0  0
  149.9137  140.8991  157.6676 O   0  0  0  0  0  0  0  0  0  0  0  0
  149.3403  142.1863  155.8930 N   0  0  0  0  0  0  0  0  0  0  0  0
  148.6329  141.1794  155.1006 C   0  0  1  0  0  0  0  0  0  0  0  0
  147.8183  141.8627  153.9792 C   0  0  0  0  0  0  0  0  0  0  0  0
  146.6500  141.0157  153.4505 C   0  0  0  0  0  0  0  0  0  0  0  0
  147.0614  139.6970  152.7791 C   0  0  0  0  0  0  0  0  0  0  0  0
  147.7167  138.6913  153.7413 C   0  0  0  0  0  0  0  0  0  0  0  0
  149.1167  138.9991  154.0053 N   0  0  0  0  0  0  0  0  0  0  0  0
  149.6079  140.0957  154.6023 C   0  0  0  0  0  0  0  0  0  0  0  0
  150.8224  140.2379  154.7434 O   0  0  0  0  0  0  0  0  0  0  0  0
  152.1340  142.3182  159.1704 C   0  0  0  0  0  0  0  0  0  0  0  0
  152.3350  140.8553  158.2646 Cl  0  0  0  0  0  0  0  0  0  0  0  0
  153.3257  140.5606  161.0896 H   0  0  0  0  0  0  0  0  0  0  0  0
  154.3226  141.8270  161.8069 H   0  0  0  0  0  0  0  0  0  0  0  0
  154.6247  141.3079  160.1482 H   0  0  0  0  0  0  0  0  0  0  0  0
  151.8454  145.5058  161.2878 H   0  0  0  0  0  0  0  0  0  0  0  0
  150.4842  145.3192  159.2276 H   0  0  0  0  0  0  0  0  0  0  0  0
  150.5005  143.8902  156.8945 H   0  0  0  0  0  0  0  0  0  0  0  0
  149.4077  143.1070  155.4835 H   0  0  0  0  0  0  0  0  0  0  0  0
  147.9379  140.6766  155.7759 H   0  0  0  0  0  0  0  0  0  0  0  0
  147.3961  142.7971  154.3518 H   0  0  0  0  0  0  0  0  0  0  0  0
  148.4769  142.1465  153.1571 H   0  0  0  0  0  0  0  0  0  0  0  0
  145.9537  140.8090  154.2643 H   0  0  0  0  0  0  0  0  0  0  0  0
  146.0920  141.6120  152.7281 H   0  0  0  0  0  0  0  0  0  0  0  0
  146.1634  139.2376  152.3647 H   0  0  0  0  0  0  0  0  0  0  0  0
  147.7161  139.8915  151.9287 H   0  0  0  0  0  0  0  0  0  0  0  0
  147.1597  138.6177  154.6763 H   0  0  0  0  0  0  0  0  0  0  0  0
  147.6895  137.6988  153.2911 H   0  0  0  0  0  0  0  0  0  0  0  0
  149.7874  138.3120  153.6924 H   0  0  0  0  0  0  0  0  0  0  0  0
  1  2  1  0  0  0  0
  1 21  1  0  0  0  0
  1 22  1  0  0  0  0
  1 23  1  0  0  0  0
  2 19  1  0  0  0  0
  2  3  2  0  0  0  0
  3  4  1  0  0  0  0
  4  5  2  0  0  0  0
  4 24  1  0  0  0  0
  5  6  1  0  0  0  0
  5 25  1  0  0  0  0
  6  7  1  0  0  0  0
  6 19  2  0  0  0  0
  7  8  1  0  0  0  0
  7 26  1  0  0  0  0
  8  9  2  0  0  0  0
  8 10  1  0  0  0  0
 10 11  1  0  0  0  0
 10 27  1  0  0  0  0
 11 17  1  0  0  0  0
 11 12  1  0  0  0  0
 11 28  1  0  0  0  0
 12 13  1  0  0  0  0
 12 29  1  0  0  0  0
 12 30  1  0  0  0  0
 13 14  1  0  0  0  0
 13 31  1  0  0  0  0
 13 32  1  0  0  0  0
 14 15  1  0  0  0  0
 14 33  1  0  0  0  0
 14 34  1  0  0  0  0
 15 16  1  0  0  0  0
 15 35  1  0  0  0  0
 15 36  1  0  0  0  0
 16 17  1  0  0  0  0
 16 37  1  0  0  0  0
 17 18  2  0  0  0  0
 19 20  1  0  0  0  0
M  END
> <s_m_source_file>
AV-unprocessed.smi

> <i_m_source_file_index>
2991

> <i_lp_mmshare_version>
43012

> <i_f3d_flags>
0

> <s_epik_input>
W0NIM11jMW5bY0hdW2NIXWMoYzFDbClbTkhdQyg9TylbTkhdW0NAQEhdMltDSDJdW0NIMl1bQ0gyXVtDSDJdW05IXUMyPU8=

> <s_epik_cmdline>
J2VwaWtfcHl0aG9uJywgJy1waCcsICc3LjAnLCAnLXRuJywgJzgnLCAnLW1hJywgJzIwMCcsICctbWV0YWxfYmluZGluZycsICctaW1hZScsICc8aW5maWxlLm1hZT4nLCAnLW9tYWUnLCAnPG91dGZpbGUubWFlPic=

> <r_epik_Ionization_Penalty>
0.00809016

> <r_epik_Ionization_Penalty_Charging>
0

> <r_epik_Ionization_Penalty_Neutral>
0.00809016

> <r_epik_State_Penalty>
0.00605324

> <r_epik_Charging_Adjusted_Penalty>
0.00605324

> <i_epik_Tot_Q>
0

> <i_epik_Tot_abs_Q>
0

> <r_epik_Metal_State_Penalty>
0.00597181

> <b_epik_Metal_Only>
0

> <s_lp_Force_Field>
OPLS_2005

> <r_lp_Energy>
16.2223

> <b_lp_Chiralities_Consistent>
1

> <s_lp_Variant>
AV-unprocessed.smi:2991-2

> <Gold.Version>
5.8.1

> <Gold.Id.Protein>
6NUR|6NUR_protein|mol2

> <Gold.PLP.Fitness>
43.0512

> <Gold.PLP.PLP>
-39.8609

> <Gold.PLP.part.hbond>
-4.0000

> <Gold.PLP.part.metal>
0.0000

> <Gold.PLP.part.buried>
-2.5438

> <Gold.PLP.part.nonpolar>
-34.4747

> <Gold.PLP.part.repulsive>
0.3761

> <Gold.PLP.ligand.clash>
3.0616

> <Gold.PLP.ligand.torsion>
0.4271

> <Gold.PLP.Chemscore.Hbond>
2.3597

> <Gold.PLP.Chemscore.CHOScore>
0.0000

> <Gold.PLP.Chemscore.Metal>
0.0000

> <Gold.Chemscore.Hbonds>
donor molecule, donor type, donor heavy atom, donor atom, acceptor molecule, acceptor atom, score
      L1  H     7    26       P1  8028  0.41
      L1  H    10    27       P1  8028  0.88
      P1  H  7989  7998       L1    18  1.00

> <Gold.PLP.Chemscore.Internal.Correction>
0.0270

> <Gold.Rescore>
     Score         DG    S(hbond)    S(metal)    S(lipo)     H(rot)  DE(clash)    DE(int)     intcor
     17.98     -23.25       2.50        0.00     102.40       1.00       0.29       4.98       ----

> <Gold.Chemscore.Fitness>
17.9822

> <Gold.Chemscore.DG>
-23.2496

> <Gold.Chemscore.ZeroCoef>
-5.4800

> <Gold.Chemscore.Hbond>
2.4997

> <Gold.Chemscore.Metal>
0.0000

> <Gold.Chemscore.Lipo>
102.3981

> <Gold.Chemscore.Internal_Hbond>
0.0000

> <Gold.Chemscore.DEClash>
0.2883

> <Gold.Chemscore.DEInternal>
4.9791

> <Gold.Chemscore.Rot>
1.0000

> <Gold.Chemscore.Internal.Correction>
   9.000000E+99

> <Gold.Chemscore.Hbonds>
donor molecule, donor type, donor heavy atom, donor atom, acceptor molecule, acceptor atom, score
      L1  H     7    26       P1  8028  0.40
      L1  H    10    27       P1  8028  0.86
      P1  H  7989  7998       L1    18  0.93

> <Gold.Chemscore.Hbond.Weighted>
-8.3490

> <Gold.Chemscore.Metal.Weighted>
-0.0000

> <Gold.Chemscore.Lipo.Weighted>
-11.9806

> <Gold.Chemscore.Internal_Hbond.Weighted>
0.0000

> <Gold.Chemscore.DEClash.Weighted>
0.2883

> <Gold.Chemscore.DEInternal.Weighted>
4.9791

> <Gold.Chemscore.Rot.Weighted>
2.5600

> <Gold.Chemscore.Internal.Correction.Weighted>
   9.000000E+99

> <Gold.Protein.RotatedTorsions>
[ 6907 6896 6895 6894 ] final -125.29 input  -60.11 | X-H torsion
[ 7974 7965 7964 7962 ] final  154.03 input  175.53 | X-H torsion
[ 8008 7997 7996 7995 ] final -172.44 input   59.86 | X-H torsion
[ 10167 10162 10161 10158 ] final  -45.31 input  -65.29 | X-H torsion
[ 10718 10713 10712 10709 ] final   82.18 input   66.30 | X-H torsion
[ 10763 10752 10751 10750 ] final  165.65 input  -60.55 | X-H torsion
[ 11005 11000 10999 10996 ] final   42.75 input  -57.11 | X-H torsion

> <Gold.Protein.ActiveResidues>
 VAL166  LYS551  ARG553  GLY616  TRP617  ASP618  TYR619  PRO620  LYS621  CYS622 
 ASP623  PHE694  ASN695  SER759  ASP760  ASP761  ALA762  ILE779  LEU786  VAL792 
 PHE793  MET794  SER795  GLU796  ALA797  LYS798  CYS799  TRP800  GLU811  SER814 

> <Gold.Protein.RotatedAtoms>
  150.8853  133.7316  159.2919 H   0  0  0  0  0  0  0  0  0  0  0  0  # atno 6907 bound_to 6896
  151.4884  135.1055  159.9806 H   0  0  0  0  0  0  0  0  0  0  0  0  # atno 6908 bound_to 6896
  152.4786  133.8152  159.7080 H   0  0  0  0  0  0  0  0  0  0  0  0  # atno 6909 bound_to 6896
  144.8115  139.6880  143.6139 H   0  0  0  0  0  0  0  0  0  0  0  0  # atno 7974 bound_to 7965
  155.9446  140.1115  157.1027 H   0  0  0  0  0  0  0  0  0  0  0  0  # atno 8008 bound_to 7997
  154.4096  140.1212  156.5038 H   0  0  0  0  0  0  0  0  0  0  0  0  # atno 8009 bound_to 7997
  155.6919  140.3472  155.4899 H   0  0  0  0  0  0  0  0  0  0  0  0  # atno 8010 bound_to 7997
  140.6863  143.2886  151.3620 H   0  0  0  0  0  0  0  0  0  0  0  0  # atno 10167 bound_to 10162
  157.6851  131.0037  150.2337 H   0  0  0  0  0  0  0  0  0  0  0  0  # atno 10718 bound_to 10713
  154.3271  135.2755  155.2490 H   0  0  0  0  0  0  0  0  0  0  0  0  # atno 10763 bound_to 10752
  154.4818  135.5856  153.6398 H   0  0  0  0  0  0  0  0  0  0  0  0  # atno 10764 bound_to 10752
  152.9870  135.6113  154.3461 H   0  0  0  0  0  0  0  0  0  0  0  0  # atno 10765 bound_to 10752
  140.1709  134.4223  155.8258 H   0  0  0  0  0  0  0  0  0  0  0  0  # atno 11005 bound_to 11000
  146.2414  139.6009  142.9489 LP  0  0  0  0  0  0  0  0  0  0  0  0  # atno 17320 bound_to 7965
  145.5313  141.0427  143.2381 LP  0  0  0  0  0  0  0  0  0  0  0  0  # atno 17321 bound_to 7965
  139.6225  144.0880  152.2404 LP  0  0  0  0  0  0  0  0  0  0  0  0  # atno 17342 bound_to 10162
  140.0328  144.6067  150.7474 LP  0  0  0  0  0  0  0  0  0  0  0  0  # atno 17343 bound_to 10162
  156.2965  130.3752  149.7791 LP  0  0  0  0  0  0  0  0  0  0  0  0  # atno 17370 bound_to 10713
  156.5435  130.8310  151.3276 LP  0  0  0  0  0  0  0  0  0  0  0  0  # atno 17371 bound_to 10713
  141.2217  133.6956  156.7762 LP  0  0  0  0  0  0  0  0  0  0  0  0  # atno 17394 bound_to 11000
  140.2378  134.8636  157.3543 LP  0  0  0  0  0  0  0  0  0  0  0  0  # atno 17395 bound_to 11000

$$$$
