AV-unprocessed.smi:483|AV-procd|sdf|2686|dock8
  -GOLD-   2262023113D 1   1.00000     0.00000
 Structure written by MMmdl.
 44 44  0  0  0  0  0  0  0  0  1 V2000
  152.0296  145.3184  159.5675 C   0  0  0  0  0  0  0  0  0  0  0  0
  151.0770  144.2690  158.9750 C   0  0  0  0  0  0  0  0  0  0  0  0
  151.3969  143.8711  157.5221 C   0  0  0  0  0  0  0  0  0  0  0  0
  150.6335  142.7010  157.0994 N   0  0  0  0  0  0  0  0  0  0  0  0
  150.7615  141.4649  157.6059 C   0  0  0  0  0  0  0  0  0  0  0  0
  151.6008  141.1649  158.4567 O   0  0  0  0  0  0  0  0  0  0  0  0
  149.7635  140.4139  157.0934 C   0  0  1  0  0  0  0  0  0  0  0  0
  149.8890  140.3040  155.5642 C   0  0  0  0  0  0  0  0  0  0  0  0
  150.1034  139.1182  157.6770 N   0  0  0  0  0  0  0  0  0  0  0  0
  149.2233  138.2855  158.2559 C   0  0  0  0  0  0  0  0  0  0  0  0
  148.0068  138.4799  158.2504 O   0  0  0  0  0  0  0  0  0  0  0  0
  149.8067  137.0511  158.9556 C   0  0  0  0  0  0  0  0  0  0  0  0
  148.7827  136.3086  159.7054 N   0  0  0  0  0  0  0  0  0  0  0  0
  148.1678  137.0415  160.7017 N   0  0  0  0  0  0  0  0  0  0  0  0
  147.2878  136.5079  161.4838 C   0  0  0  0  0  0  0  0  0  0  0  0
  146.6917  137.4003  162.5389 C   0  0  0  0  0  0  0  0  0  0  0  0
  146.9248  135.1044  161.3138 C   0  0  0  0  0  0  0  0  0  0  0  0
  145.8897  134.5279  162.2699 C   0  0  0  0  0  0  0  0  0  0  0  0
  147.5250  134.3991  160.3227 C   0  0  0  0  0  0  0  0  0  0  0  0
  147.2424  133.0202  160.0866 C   0  0  0  0  0  0  0  0  0  0  0  0
  146.9936  131.9048  159.9016 N   0  0  0  0  0  0  0  0  0  0  0  0
  148.5149  134.9997  159.4265 C   0  0  0  0  0  0  0  0  0  0  0  0
  149.0688  134.3906  158.5097 O   0  0  0  0  0  0  0  0  0  0  0  0
  151.7090  145.6147  160.5664 H   0  0  0  0  0  0  0  0  0  0  0  0
  152.0637  146.2157  158.9492 H   0  0  0  0  0  0  0  0  0  0  0  0
  153.0447  144.9318  159.6535 H   0  0  0  0  0  0  0  0  0  0  0  0
  151.0846  143.3803  159.6071 H   0  0  0  0  0  0  0  0  0  0  0  0
  150.0589  144.6580  159.0141 H   0  0  0  0  0  0  0  0  0  0  0  0
  151.1383  144.6950  156.8569 H   0  0  0  0  0  0  0  0  0  0  0  0
  152.4697  143.7117  157.4022 H   0  0  0  0  0  0  0  0  0  0  0  0
  149.9134  142.8544  156.4084 H   0  0  0  0  0  0  0  0  0  0  0  0
  148.7407  140.6925  157.3557 H   0  0  0  0  0  0  0  0  0  0  0  0
  149.6654  141.2559  155.0808 H   0  0  0  0  0  0  0  0  0  0  0  0
  149.1879  139.5679  155.1698 H   0  0  0  0  0  0  0  0  0  0  0  0
  150.8905  140.0004  155.2553 H   0  0  0  0  0  0  0  0  0  0  0  0
  151.0840  138.8822  157.7231 H   0  0  0  0  0  0  0  0  0  0  0  0
  150.2642  136.4147  158.1960 H   0  0  0  0  0  0  0  0  0  0  0  0
  150.6182  137.3436  159.6250 H   0  0  0  0  0  0  0  0  0  0  0  0
  145.6195  137.5193  162.3834 H   0  0  0  0  0  0  0  0  0  0  0  0
  147.1386  138.3956  162.5301 H   0  0  0  0  0  0  0  0  0  0  0  0
  146.8459  136.9810  163.5334 H   0  0  0  0  0  0  0  0  0  0  0  0
  145.6336  133.4970  162.0278 H   0  0  0  0  0  0  0  0  0  0  0  0
  144.9675  135.1086  162.2354 H   0  0  0  0  0  0  0  0  0  0  0  0
  146.2671  134.5416  163.2930 H   0  0  0  0  0  0  0  0  0  0  0  0
  1  2  1  0  0  0  0
  1 24  1  0  0  0  0
  1 25  1  0  0  0  0
  1 26  1  0  0  0  0
  2  3  1  0  0  0  0
  2 27  1  0  0  0  0
  2 28  1  0  0  0  0
  3  4  1  0  0  0  0
  3 29  1  0  0  0  0
  3 30  1  0  0  0  0
  4  5  1  0  0  0  0
  4 31  1  0  0  0  0
  5  6  2  0  0  0  0
  5  7  1  0  0  0  0
  7  8  1  0  0  0  0
  7  9  1  0  0  0  0
  7 32  1  0  0  0  0
  8 33  1  0  0  0  0
  8 34  1  0  0  0  0
  8 35  1  0  0  0  0
  9 10  1  0  0  0  0
  9 36  1  0  0  0  0
 10 11  2  0  0  0  0
 10 12  1  0  0  0  0
 12 13  1  0  0  0  0
 12 37  1  0  0  0  0
 12 38  1  0  0  0  0
 13 22  1  0  0  0  0
 13 14  1  0  0  0  0
 14 15  2  0  0  0  0
 15 16  1  0  0  0  0
 15 17  1  0  0  0  0
 16 39  1  0  0  0  0
 16 40  1  0  0  0  0
 16 41  1  0  0  0  0
 17 18  1  0  0  0  0
 17 19  2  0  0  0  0
 18 42  1  0  0  0  0
 18 43  1  0  0  0  0
 18 44  1  0  0  0  0
 19 20  1  0  0  0  0
 19 22  1  0  0  0  0
 20 21  3  0  0  0  0
 22 23  2  0  0  0  0
M  END
> <s_m_source_file>
AV-unprocessed.smi

> <i_m_source_file_index>
483

> <i_lp_mmshare_version>
43012

> <i_f3d_flags>
0

> <s_epik_input>
W0NIM11bQ0gyXVtDSDJdW05IXUMoPU8pW0NASF0oW0NIM10pW05IXUMoPU8pW0NIMl1uMW5jKFtDSDNdKWMoW0NIM10pYyhDI04pYzE9Tw==

> <s_epik_cmdline>
J2VwaWtfcHl0aG9uJywgJy1waCcsICc3LjAnLCAnLXRuJywgJzgnLCAnLW1hJywgJzIwMCcsICctbWV0YWxfYmluZGluZycsICctaW1hZScsICc8aW5maWxlLm1hZT4nLCAnLW9tYWUnLCAnPG91dGZpbGUubWFlPic=

> <r_lp_tautomer_probability>
1

> <r_epik_Ionization_Penalty>
5.96698e-08

> <r_epik_Ionization_Penalty_Charging>
1.88177e-11

> <r_epik_Ionization_Penalty_Neutral>
5.9651e-08

> <r_epik_State_Penalty>
-0

> <r_epik_Charging_Adjusted_Penalty>
1.88177e-11

> <i_epik_Tot_Q>
0

> <i_epik_Tot_abs_Q>
0

> <r_epik_Metal_State_Penalty>
-0

> <b_epik_Metal_Only>
0

> <s_lp_Force_Field>
OPLS_2005

> <r_lp_Energy>
18.0289

> <b_lp_Chiralities_Consistent>
1

> <s_lp_Variant>
AV-unprocessed.smi:483-2

> <Gold.Version>
5.8.1

> <Gold.Id.Protein>
6NUR|6NUR_protein|mol2

> <Gold.PLP.Fitness>
47.8570

> <Gold.PLP.PLP>
-38.9140

> <Gold.PLP.part.hbond>
-5.0000

> <Gold.PLP.part.metal>
0.0000

> <Gold.PLP.part.buried>
-3.4593

> <Gold.PLP.part.nonpolar>
-31.6282

> <Gold.PLP.part.repulsive>
0.1326

> <Gold.PLP.ligand.clash>
0.0000

> <Gold.PLP.ligand.torsion>
0.2454

> <Gold.PLP.Chemscore.Hbond>
3.1217

> <Gold.PLP.Chemscore.CHOScore>
0.0000

> <Gold.PLP.Chemscore.Metal>
0.0000

> <Gold.Chemscore.Hbonds>
donor molecule, donor type, donor heavy atom, donor atom, acceptor molecule, acceptor atom, score
      L1  H     4    31       P1  8028  0.28
      P1  H  6896  6909       L1    23  0.80
      P1  H  6931  6943       L1    14  0.90
      P1  H  6934  6947       L1    14  0.21

> <Gold.PLP.Chemscore.Internal.Correction>
0.0687

> <Gold.Rescore>
     Score         DG    S(hbond)    S(metal)    S(lipo)     H(rot)  DE(clash)    DE(int)     intcor
     15.24     -17.15       2.37        0.00      84.14       2.38       0.13       1.77       ----

> <Gold.Chemscore.Fitness>
15.2411

> <Gold.Chemscore.DG>
-17.1500

> <Gold.Chemscore.ZeroCoef>
-5.4800

> <Gold.Chemscore.Hbond>
2.3697

> <Gold.Chemscore.Metal>
0.0000

> <Gold.Chemscore.Lipo>
84.1381

> <Gold.Chemscore.Internal_Hbond>
0.0000

> <Gold.Chemscore.DEClash>
0.1348

> <Gold.Chemscore.DEInternal>
1.7742

> <Gold.Chemscore.Rot>
2.3785

> <Gold.Chemscore.Internal.Correction>
   9.000000E+99

> <Gold.Chemscore.Hbonds>
donor molecule, donor type, donor heavy atom, donor atom, acceptor molecule, acceptor atom, score
      L1  H     4    31       P1  8028  0.28
      P1  H  6896  6909       L1    23  0.12
      P1  H  6931  6943       L1    14  0.30
      P1  H  6934  6947       L1    14  0.01

> <Gold.Chemscore.Hbond.Weighted>
-7.9148

> <Gold.Chemscore.Metal.Weighted>
-0.0000

> <Gold.Chemscore.Lipo.Weighted>
-9.8442

> <Gold.Chemscore.Internal_Hbond.Weighted>
0.0000

> <Gold.Chemscore.DEClash.Weighted>
0.1348

> <Gold.Chemscore.DEInternal.Weighted>
1.7742

> <Gold.Chemscore.Rot.Weighted>
6.0890

> <Gold.Chemscore.Internal.Correction.Weighted>
   9.000000E+99

> <Gold.Protein.RotatedTorsions>
[ 6907 6896 6895 6894 ] final   22.08 input  -60.11 | X-H torsion
[ 7974 7965 7964 7962 ] final  -23.09 input  175.53 | X-H torsion
[ 8008 7997 7996 7995 ] final -165.38 input   59.86 | X-H torsion
[ 10167 10162 10161 10158 ] final  115.80 input  -65.29 | X-H torsion
[ 10718 10713 10712 10709 ] final  -92.64 input   66.30 | X-H torsion
[ 10763 10752 10751 10750 ] final  132.34 input  -60.55 | X-H torsion
[ 11005 11000 10999 10996 ] final  154.19 input  -57.11 | X-H torsion

> <Gold.Protein.ActiveResidues>
 VAL166  LYS551  ARG553  GLY616  TRP617  ASP618  TYR619  PRO620  LYS621  CYS622 
 ASP623  PHE694  ASN695  SER759  ASP760  ASP761  ALA762  ILE779  LEU786  VAL792 
 PHE793  MET794  SER795  GLU796  ALA797  LYS798  CYS799  TRP800  GLU811  SER814 

> <Gold.Protein.RotatedAtoms>
  151.9217  135.0295  160.0522 H   0  0  0  0  0  0  0  0  0  0  0  0  # atno 6907 bound_to 6896
  152.2194  133.4967  159.5162 H   0  0  0  0  0  0  0  0  0  0  0  0  # atno 6908 bound_to 6896
  150.6996  134.1279  159.4101 H   0  0  0  0  0  0  0  0  0  0  0  0  # atno 6909 bound_to 6896
  146.1637  140.4568  142.8561 H   0  0  0  0  0  0  0  0  0  0  0  0  # atno 7974 bound_to 7965
  155.8490  140.0960  157.1687 H   0  0  0  0  0  0  0  0  0  0  0  0  # atno 8008 bound_to 7997
  154.3984  140.1387  156.3882 H   0  0  0  0  0  0  0  0  0  0  0  0  # atno 8009 bound_to 7997
  155.7982  140.3453  155.5390 H   0  0  0  0  0  0  0  0  0  0  0  0  # atno 8010 bound_to 7997
  139.6292  144.7112  151.2469 H   0  0  0  0  0  0  0  0  0  0  0  0  # atno 10167 bound_to 10162
  156.0004  130.4995  150.5657 H   0  0  0  0  0  0  0  0  0  0  0  0  # atno 10718 bound_to 10713
  153.7891  135.3157  155.3376 H   0  0  0  0  0  0  0  0  0  0  0  0  # atno 10763 bound_to 10752
  154.8133  135.4653  154.0576 H   0  0  0  0  0  0  0  0  0  0  0  0  # atno 10764 bound_to 10752
  153.1889  135.6905  153.8465 H   0  0  0  0  0  0  0  0  0  0  0  0  # atno 10765 bound_to 10752
  140.1466  134.8703  157.2401 H   0  0  0  0  0  0  0  0  0  0  0  0  # atno 11005 bound_to 11000
  144.8062  140.6304  143.6445 LP  0  0  0  0  0  0  0  0  0  0  0  0  # atno 17320 bound_to 7965
  145.4522  139.1522  143.3912 LP  0  0  0  0  0  0  0  0  0  0  0  0  # atno 17321 bound_to 7965
  140.7429  143.6512  150.8247 LP  0  0  0  0  0  0  0  0  0  0  0  0  # atno 17342 bound_to 10162
  140.0134  143.5618  152.2830 LP  0  0  0  0  0  0  0  0  0  0  0  0  # atno 17343 bound_to 10162
  157.3559  131.0741  151.1676 LP  0  0  0  0  0  0  0  0  0  0  0  0  # atno 17370 bound_to 10713
  157.2476  130.6599  149.5917 LP  0  0  0  0  0  0  0  0  0  0  0  0  # atno 17371 bound_to 10713
  140.2656  134.3520  155.7391 LP  0  0  0  0  0  0  0  0  0  0  0  0  # atno 17394 bound_to 11000
  141.2193  133.7394  156.9145 LP  0  0  0  0  0  0  0  0  0  0  0  0  # atno 17395 bound_to 11000

$$$$
