AV-unprocessed.smi:717|AV-procd|sdf|3490|dock2
  -GOLD-   22720 0483D 1   1.00000     0.00000
 Structure written by MMmdl.
 43 44  0  0  0  0  0  0  0  0  1 V2000
  145.9578  136.1797  153.0901 O   0  0  0  0  0  0  0  0  0  0  0  0
  145.4015  136.5571  152.0585 C   0  0  0  0  0  0  0  0  0  0  0  0
  144.3115  135.6984  151.4122 C   0  0  0  0  0  0  0  0  0  0  0  0
  144.8688  134.3539  150.9795 C   0  0  0  0  0  0  0  0  0  0  0  0
  144.0437  133.3938  150.3575 C   0  0  0  0  0  0  0  0  0  0  0  0
  144.6058  132.1599  149.9782 C   0  0  0  0  0  0  0  0  0  0  0  0
  145.9731  131.9380  150.2374 C   0  0  0  0  0  0  0  0  0  0  0  0
  146.7732  132.8499  150.8309 N   0  0  0  0  0  0  0  0  0  0  0  0
  146.2261  134.0305  151.1921 C   0  0  0  0  0  0  0  0  0  0  0  0
  145.6946  137.7132  151.4435 N   0  0  0  0  0  0  0  0  0  0  0  0
  146.6952  138.6741  151.8933 C   0  0  0  0  0  0  0  0  0  0  0  0
  146.5153  139.0307  153.3784 C   0  0  0  0  0  0  0  0  0  0  0  0
  147.7633  139.6923  153.9796 C   0  0  0  0  0  0  0  0  0  0  0  0
  148.9377  138.7116  154.1228 C   0  0  0  0  0  0  0  0  0  0  0  0
  150.2672  139.4019  154.4754 C   0  0  0  0  0  0  0  0  0  0  0  0
  151.4237  138.4235  154.6879 C   0  0  0  0  0  0  0  0  0  0  0  0
  152.4797  139.2404  155.4343 C   0  0  0  0  0  0  0  0  0  0  0  0
  151.7018  140.2799  156.2544 C   0  0  0  0  0  0  0  0  0  0  0  0
  150.2428  140.2050  155.7819 C   0  0  0  0  0  0  0  0  0  0  0  0
  143.5018  135.5528  152.1280 H   0  0  0  0  0  0  0  0  0  0  0  0
  143.8818  136.2069  150.5473 H   0  0  0  0  0  0  0  0  0  0  0  0
  142.9981  133.5966  150.1768 H   0  0  0  0  0  0  0  0  0  0  0  0
  144.0033  131.4010  149.5014 H   0  0  0  0  0  0  0  0  0  0  0  0
  146.4361  131.0027  149.9603 H   0  0  0  0  0  0  0  0  0  0  0  0
  146.8910  134.7371  151.6669 H   0  0  0  0  0  0  0  0  0  0  0  0
  145.1886  137.9436  150.6005 H   0  0  0  0  0  0  0  0  0  0  0  0
  147.6972  138.2815  151.7121 H   0  0  0  0  0  0  0  0  0  0  0  0
  146.5983  139.5713  151.2814 H   0  0  0  0  0  0  0  0  0  0  0  0
  145.6601  139.6982  153.4921 H   0  0  0  0  0  0  0  0  0  0  0  0
  146.2806  138.1289  153.9452 H   0  0  0  0  0  0  0  0  0  0  0  0
  148.0670  140.5295  153.3499 H   0  0  0  0  0  0  0  0  0  0  0  0
  147.5140  140.1131  154.9542 H   0  0  0  0  0  0  0  0  0  0  0  0
  148.6994  137.9587  154.8753 H   0  0  0  0  0  0  0  0  0  0  0  0
  149.0622  138.1723  153.1829 H   0  0  0  0  0  0  0  0  0  0  0  0
  150.5453  140.0745  153.6622 H   0  0  0  0  0  0  0  0  0  0  0  0
  151.0985  137.5897  155.3119 H   0  0  0  0  0  0  0  0  0  0  0  0
  151.8014  138.0106  153.7519 H   0  0  0  0  0  0  0  0  0  0  0  0
  153.1189  138.6131  156.0565 H   0  0  0  0  0  0  0  0  0  0  0  0
  153.1217  139.7507  154.7152 H   0  0  0  0  0  0  0  0  0  0  0  0
  151.7692  140.0727  157.3229 H   0  0  0  0  0  0  0  0  0  0  0  0
  152.1147  141.2759  156.0898 H   0  0  0  0  0  0  0  0  0  0  0  0
  149.8016  141.1936  155.6512 H   0  0  0  0  0  0  0  0  0  0  0  0
  149.6493  139.6792  156.5313 H   0  0  0  0  0  0  0  0  0  0  0  0
  1  2  2  0  0  0  0
  2  3  1  0  0  0  0
  2 10  1  0  0  0  0
  3  4  1  0  0  0  0
  3 20  1  0  0  0  0
  3 21  1  0  0  0  0
  4  9  1  0  0  0  0
  4  5  2  0  0  0  0
  5  6  1  0  0  0  0
  5 22  1  0  0  0  0
  6  7  2  0  0  0  0
  6 23  1  0  0  0  0
  7  8  1  0  0  0  0
  7 24  1  0  0  0  0
  8  9  2  0  0  0  0
  9 25  1  0  0  0  0
 10 11  1  0  0  0  0
 10 26  1  0  0  0  0
 11 12  1  0  0  0  0
 11 27  1  0  0  0  0
 11 28  1  0  0  0  0
 12 13  1  0  0  0  0
 12 29  1  0  0  0  0
 12 30  1  0  0  0  0
 13 14  1  0  0  0  0
 13 31  1  0  0  0  0
 13 32  1  0  0  0  0
 14 15  1  0  0  0  0
 14 33  1  0  0  0  0
 14 34  1  0  0  0  0
 15 19  1  0  0  0  0
 15 16  1  0  0  0  0
 15 35  1  0  0  0  0
 16 17  1  0  0  0  0
 16 36  1  0  0  0  0
 16 37  1  0  0  0  0
 17 18  1  0  0  0  0
 17 38  1  0  0  0  0
 17 39  1  0  0  0  0
 18 19  1  0  0  0  0
 18 40  1  0  0  0  0
 18 41  1  0  0  0  0
 19 42  1  0  0  0  0
 19 43  1  0  0  0  0
M  END
> <s_m_source_file>
AV-unprocessed.smi

> <i_m_source_file_index>
717

> <i_lp_mmshare_version>
43012

> <i_f3d_flags>
0

> <s_epik_input>
W2NIXTFuW2NIXVtjSF1bY0hdYzFbQ0gyXUMoPU8pW05IXVtDSDJdW0NIMl1bQ0gyXVtDSDJdW0NIXTJbQ0gyXVtDSDJdW0NIMl1bQ0gyXTI=

> <s_epik_cmdline>
J2VwaWtfcHl0aG9uJywgJy1waCcsICc3LjAnLCAnLXRuJywgJzgnLCAnLW1hJywgJzIwMCcsICctbWV0YWxfYmluZGluZycsICctaW1hZScsICc8aW5maWxlLm1hZT4nLCAnLW9tYWUnLCAnPG91dGZpbGUubWFlPic=

> <r_epik_Ionization_Penalty>
0.00412097

> <r_epik_Ionization_Penalty_Charging>
0

> <r_epik_Ionization_Penalty_Neutral>
0.00412097

> <r_epik_State_Penalty>
0.00295657

> <r_epik_Charging_Adjusted_Penalty>
0.00295657

> <i_epik_Tot_Q>
0

> <i_epik_Tot_abs_Q>
0

> <r_epik_Metal_State_Penalty>
-0

> <b_epik_Metal_Only>
0

> <s_lp_Force_Field>
OPLS_2005

> <r_lp_Energy>
20.3192

> <b_lp_Chiralities_Consistent>
1

> <s_lp_Variant>
AV-unprocessed.smi:717-1

> <Gold.Version>
5.8.1

> <Gold.Id.Protein>
6NUR|6NUR_protein|mol2

> <Gold.PLP.Fitness>
48.8983

> <Gold.PLP.PLP>
-40.9240

> <Gold.PLP.part.hbond>
-1.0000

> <Gold.PLP.part.metal>
0.0000

> <Gold.PLP.part.buried>
-4.3953

> <Gold.PLP.part.nonpolar>
-37.6786

> <Gold.PLP.part.repulsive>
1.1446

> <Gold.PLP.ligand.clash>
0.0000

> <Gold.PLP.ligand.torsion>
0.1726

> <Gold.PLP.Chemscore.Hbond>
1.0000

> <Gold.PLP.Chemscore.CHOScore>
1.7276

> <Gold.PLP.Chemscore.Metal>
0.0000

> <Gold.Chemscore.Hbonds>
donor molecule, donor type, donor heavy atom, donor atom, acceptor molecule, acceptor atom, score
      L1  H    10    26       P1 10171  1.00
      L1  C     7    24       P1 10747  0.71
      L1  C     9    25       P1  7948  1.00

> <Gold.PLP.Chemscore.Internal.Correction>
0.1366

> <Gold.Rescore>
     Score         DG    S(hbond)    S(metal)    S(lipo)     H(rot)  DE(clash)    DE(int)     intcor
     14.74     -17.40       0.99        0.00     110.08       1.67       0.18       2.48       ----

> <Gold.Chemscore.Fitness>
14.7423

> <Gold.Chemscore.DG>
-17.4026

> <Gold.Chemscore.ZeroCoef>
-5.4800

> <Gold.Chemscore.Hbond>
0.9918

> <Gold.Chemscore.Metal>
0.0000

> <Gold.Chemscore.Lipo>
110.0779

> <Gold.Chemscore.Internal_Hbond>
0.0000

> <Gold.Chemscore.DEClash>
0.1829

> <Gold.Chemscore.DEInternal>
2.4774

> <Gold.Chemscore.Rot>
1.6676

> <Gold.Chemscore.Internal.Correction>
   9.000000E+99

> <Gold.Chemscore.Hbonds>
donor molecule, donor type, donor heavy atom, donor atom, acceptor molecule, acceptor atom, score
      L1  H    10    26       P1 10171  0.96

> <Gold.Chemscore.Hbond.Weighted>
-3.3125

> <Gold.Chemscore.Metal.Weighted>
-0.0000

> <Gold.Chemscore.Lipo.Weighted>
-12.8791

> <Gold.Chemscore.Internal_Hbond.Weighted>
0.0000

> <Gold.Chemscore.DEClash.Weighted>
0.1829

> <Gold.Chemscore.DEInternal.Weighted>
2.4774

> <Gold.Chemscore.Rot.Weighted>
4.2690

> <Gold.Chemscore.Internal.Correction.Weighted>
   9.000000E+99

> <Gold.Protein.RotatedTorsions>
[ 6907 6896 6895 6894 ] final  -58.59 input  -60.11 | X-H torsion
[ 7974 7965 7964 7962 ] final   90.10 input  175.53 | X-H torsion
[ 8008 7997 7996 7995 ] final -179.53 input   59.86 | X-H torsion
[ 10167 10162 10161 10158 ] final   31.80 input  -65.29 | X-H torsion
[ 10718 10713 10712 10709 ] final  135.55 input   66.30 | X-H torsion
[ 10763 10752 10751 10750 ] final -118.43 input  -60.55 | X-H torsion
[ 11005 11000 10999 10996 ] final  142.19 input  -57.11 | X-H torsion

> <Gold.Protein.ActiveResidues>
 VAL166  LYS551  ARG553  GLY616  TRP617  ASP618  TYR619  PRO620  LYS621  CYS622 
 ASP623  PHE694  ASN695  SER759  ASP760  ASP761  ALA762  ILE779  LEU786  VAL792 
 PHE793  MET794  SER795  GLU796  ALA797  LYS798  CYS799  TRP800  GLU811  SER814 

> <Gold.Protein.RotatedAtoms>
  150.7995  134.7078  159.6586 H   0  0  0  0  0  0  0  0  0  0  0  0  # atno 6907 bound_to 6896
  152.4111  134.6120  160.0038 H   0  0  0  0  0  0  0  0  0  0  0  0  # atno 6908 bound_to 6896
  151.6363  133.3292  159.3156 H   0  0  0  0  0  0  0  0  0  0  0  0  # atno 6909 bound_to 6896
  145.5235  139.2280  143.2658 H   0  0  0  0  0  0  0  0  0  0  0  0  # atno 7974 bound_to 7965
  156.0316  140.1283  157.0252 H   0  0  0  0  0  0  0  0  0  0  0  0  # atno 8008 bound_to 7997
  154.4352  140.1048  156.6178 H   0  0  0  0  0  0  0  0  0  0  0  0  # atno 8009 bound_to 7997
  155.5799  140.3468  155.4539 H   0  0  0  0  0  0  0  0  0  0  0  0  # atno 8010 bound_to 7997
  140.4556  144.0983  150.6201 H   0  0  0  0  0  0  0  0  0  0  0  0  # atno 10167 bound_to 10162
  157.4559  131.1069  150.9978 H   0  0  0  0  0  0  0  0  0  0  0  0  # atno 10718 bound_to 10713
  154.8587  135.4274  154.2137 H   0  0  0  0  0  0  0  0  0  0  0  0  # atno 10763 bound_to 10752
  153.3157  135.6979  153.7081 H   0  0  0  0  0  0  0  0  0  0  0  0  # atno 10764 bound_to 10752
  153.6156  135.3511  155.2967 H   0  0  0  0  0  0  0  0  0  0  0  0  # atno 10765 bound_to 10752
  140.0458  134.9281  157.0928 H   0  0  0  0  0  0  0  0  0  0  0  0  # atno 11005 bound_to 11000
  146.2091  140.6048  142.9068 LP  0  0  0  0  0  0  0  0  0  0  0  0  # atno 17320 bound_to 7965
  144.7663  140.5538  143.6700 LP  0  0  0  0  0  0  0  0  0  0  0  0  # atno 17321 bound_to 7965
  140.4155  143.2636  151.9780 LP  0  0  0  0  0  0  0  0  0  0  0  0  # atno 17342 bound_to 10162
  139.4801  144.5877  151.7824 LP  0  0  0  0  0  0  0  0  0  0  0  0  # atno 17343 bound_to 10162
  157.0792  130.5896  149.5417 LP  0  0  0  0  0  0  0  0  0  0  0  0  # atno 17370 bound_to 10713
  156.0007  130.5085  150.7652 LP  0  0  0  0  0  0  0  0  0  0  0  0  # atno 17371 bound_to 10713
  140.3995  134.2097  155.7164 LP  0  0  0  0  0  0  0  0  0  0  0  0  # atno 17394 bound_to 11000
  141.1906  133.8213  157.0911 LP  0  0  0  0  0  0  0  0  0  0  0  0  # atno 17395 bound_to 11000

$$$$
