AV-unprocessed.smi:100|AV-procd|sdf|906|dock3
  -GOLD-   2262017403D 1   1.00000     0.00000
 Structure written by MMmdl.
 31 33  0  0  0  0  0  0  0  0  1 V2000
  147.8784  140.0188  153.1678 N   0  0  0  0  0  0  0  0  0  0  0  0
  147.8774  140.6586  154.3455 C   0  0  0  0  0  0  0  0  0  0  0  0
  146.6986  141.1200  154.8254 N   0  0  0  0  0  0  0  0  0  0  0  0
  146.6718  141.7610  155.9984 C   0  0  0  0  0  0  0  0  0  0  0  0
  147.6854  142.0359  156.8234 N   0  0  0  0  0  0  0  0  0  0  0  0
  148.8730  141.5704  156.3382 C   0  0  0  0  0  0  0  0  0  0  0  0
  149.0514  140.8738  155.1109 C   0  0  0  0  0  0  0  0  0  0  0  0
  150.3910  140.5526  154.9394 N   0  0  0  0  0  0  0  0  0  0  0  0
  150.9682  141.0361  156.0067 C   0  0  0  0  0  0  0  0  0  0  0  0
  150.1292  141.6621  156.9029 N   0  0  0  0  0  0  0  0  0  0  0  0
  150.5020  142.3033  158.2000 C   0  0  1  0  0  0  0  0  0  0  0  0
  151.0974  141.3372  159.0115 O   0  0  0  0  0  0  0  0  0  0  0  0
  152.1343  141.9336  159.7925 C   0  0  1  0  0  0  0  0  0  0  0  0
  153.4429  141.1306  159.6470 C   0  0  0  0  0  0  0  0  0  0  0  0
  153.4026  140.2020  158.5832 O   0  0  0  0  0  0  0  0  0  0  0  0
  152.1980  143.4113  159.3753 C   0  0  2  0  0  0  0  0  0  0  0  0
  151.4548  144.1070  160.2413 F   0  0  0  0  0  0  0  0  0  0  0  0
  151.5472  143.3995  157.9995 C   0  0  2  0  0  0  0  0  0  0  0  0
  150.9967  144.6650  157.6906 O   0  0  0  0  0  0  0  0  0  0  0  0
  148.7450  139.6650  152.7890 H   0  0  0  0  0  0  0  0  0  0  0  0
  147.0136  139.8916  152.6626 H   0  0  0  0  0  0  0  0  0  0  0  0
  145.7002  142.1025  156.3235 H   0  0  0  0  0  0  0  0  0  0  0  0
  152.0321  140.9458  156.1722 H   0  0  0  0  0  0  0  0  0  0  0  0
  149.5701  142.6527  158.6486 H   0  0  0  0  0  0  0  0  0  0  0  0
  151.8228  141.8618  160.8358 H   0  0  0  0  0  0  0  0  0  0  0  0
  154.2660  141.8154  159.4426 H   0  0  0  0  0  0  0  0  0  0  0  0
  153.6843  140.6160  160.5776 H   0  0  0  0  0  0  0  0  0  0  0  0
  152.5026  139.9556  158.4333 H   0  0  0  0  0  0  0  0  0  0  0  0
  153.2000  143.8412  159.3865 H   0  0  0  0  0  0  0  0  0  0  0  0
  152.2663  143.0950  157.2383 H   0  0  0  0  0  0  0  0  0  0  0  0
  150.1560  144.5321  157.2799 H   0  0  0  0  0  0  0  0  0  0  0  0
  1  2  1  0  0  0  0
  1 20  1  0  0  0  0
  1 21  1  0  0  0  0
  2  7  1  0  0  0  0
  2  3  2  0  0  0  0
  3  4  1  0  0  0  0
  4  5  2  0  0  0  0
  4 22  1  0  0  0  0
  5  6  1  0  0  0  0
  6 10  1  0  0  0  0
  6  7  2  0  0  0  0
  7  8  1  0  0  0  0
  8  9  2  0  0  0  0
  9 10  1  0  0  0  0
  9 23  1  0  0  0  0
 10 11  1  0  0  0  0
 11 18  1  0  0  0  0
 11 12  1  0  0  0  0
 11 24  1  0  0  0  0
 12 13  1  0  0  0  0
 13 14  1  0  0  0  0
 13 16  1  0  0  0  0
 13 25  1  0  0  0  0
 14 15  1  0  0  0  0
 14 26  1  0  0  0  0
 14 27  1  0  0  0  0
 15 28  1  0  0  0  0
 16 17  1  0  0  0  0
 16 18  1  0  0  0  0
 16 29  1  0  0  0  0
 18 19  1  0  0  0  0
 18 30  1  0  0  0  0
 19 31  1  0  0  0  0
M  END
> <s_m_source_file>
AV-unprocessed.smi

> <i_m_source_file_index>
100

> <i_lp_mmshare_version>
43012

> <i_f3d_flags>
0

> <s_epik_input>
bjFbY0hdbmMoW05IMl0pYyhjMTIpbltjSF1uMltDQEBIXTNPW0NAQEhdKFtDSDJdW09IXSlbQ0BIXShGKVtDQEhdM1tPSF0=

> <s_epik_cmdline>
J2VwaWtfcHl0aG9uJywgJy1waCcsICc3LjAnLCAnLXRuJywgJzgnLCAnLW1hJywgJzIwMCcsICctbWV0YWxfYmluZGluZycsICctaW1hZScsICc8aW5maWxlLm1hZT4nLCAnLW9tYWUnLCAnPG91dGZpbGUubWFlPic=

> <r_lp_tautomer_probability>
1

> <r_epik_Ionization_Penalty>
0.000750324

> <r_epik_Ionization_Penalty_Charging>
0

> <r_epik_Ionization_Penalty_Neutral>
0.000750324

> <r_epik_State_Penalty>
-0

> <r_epik_Charging_Adjusted_Penalty>
0

> <i_epik_Tot_Q>
0

> <i_epik_Tot_abs_Q>
0

> <r_epik_Metal_State_Penalty>
-0

> <b_epik_Metal_Only>
0

> <s_epik_Chemistry_Notes>
This compound contains an acetal/aminal-like group ( X-CH(R)-Y where X, Y are N, S, or O) that may be acid/base labile, releasing an aldehyde.

> <s_lp_Force_Field>
OPLS_2005

> <r_lp_Energy>
36.265

> <b_lp_Chiralities_Consistent>
1

> <s_lp_Variant>
AV-unprocessed.smi:100-10

> <Gold.Version>
5.8.1

> <Gold.Id.Protein>
6NUR|6NUR_protein|mol2

> <Gold.PLP.Fitness>
43.0116

> <Gold.PLP.PLP>
-33.7769

> <Gold.PLP.part.hbond>
-4.0000

> <Gold.PLP.part.metal>
0.0000

> <Gold.PLP.part.buried>
-5.1010

> <Gold.PLP.part.nonpolar>
-25.6336

> <Gold.PLP.part.repulsive>
0.5303

> <Gold.PLP.ligand.clash>
0.0000

> <Gold.PLP.ligand.torsion>
0.6808

> <Gold.PLP.Chemscore.Hbond>
3.5280

> <Gold.PLP.Chemscore.CHOScore>
0.0000

> <Gold.PLP.Chemscore.Metal>
0.0000

> <Gold.Chemscore.Hbonds>
donor molecule, donor type, donor heavy atom, donor atom, acceptor molecule, acceptor atom, score
      L1  H     1    20       P1  7957  0.61
      L1  H    19    31       P1  8028  0.99
      P1  H  7989  7998       L1     8  0.96
      P1  H  7997  8009       L1    15  0.94

> <Gold.PLP.Chemscore.Internal.Correction>
0.0124

> <Gold.Rescore>
     Score         DG    S(hbond)    S(metal)    S(lipo)     H(rot)  DE(clash)    DE(int)     intcor
     10.79     -11.53       2.61        0.00      46.92       3.19       0.06       0.68       ----

> <Gold.Chemscore.Fitness>
10.7905

> <Gold.Chemscore.DG>
-11.5293

> <Gold.Chemscore.ZeroCoef>
-5.4800

> <Gold.Chemscore.Hbond>
2.6127

> <Gold.Chemscore.Metal>
0.0000

> <Gold.Chemscore.Lipo>
46.9191

> <Gold.Chemscore.Internal_Hbond>
0.0000

> <Gold.Chemscore.DEClash>
0.0580

> <Gold.Chemscore.DEInternal>
0.6808

> <Gold.Chemscore.Rot>
3.1901

> <Gold.Chemscore.Internal.Correction>
   9.000000E+99

> <Gold.Chemscore.Hbonds>
donor molecule, donor type, donor heavy atom, donor atom, acceptor molecule, acceptor atom, score
      L1  H     1    20       P1  7957  0.60
      L1  H    19    31       P1  8028  0.39
      P1  H  7989  7998       L1     8  0.46
      P1  H  7997  8009       L1    15  0.86

> <Gold.Chemscore.Hbond.Weighted>
-8.7264

> <Gold.Chemscore.Metal.Weighted>
-0.0000

> <Gold.Chemscore.Lipo.Weighted>
-5.4895

> <Gold.Chemscore.Internal_Hbond.Weighted>
0.0000

> <Gold.Chemscore.DEClash.Weighted>
0.0580

> <Gold.Chemscore.DEInternal.Weighted>
0.6808

> <Gold.Chemscore.Rot.Weighted>
8.1667

> <Gold.Chemscore.Internal.Correction.Weighted>
   9.000000E+99

> <Gold.Protein.RotatedTorsions>
[ 6907 6896 6895 6894 ] final   -5.55 input  -60.11 | X-H torsion
[ 7974 7965 7964 7962 ] final   -0.02 input  175.53 | X-H torsion
[ 8008 7997 7996 7995 ] final  149.26 input   59.86 | X-H torsion
[ 10167 10162 10161 10158 ] final  -13.85 input  -65.29 | X-H torsion
[ 10718 10713 10712 10709 ] final -141.76 input   66.30 | X-H torsion
[ 10763 10752 10751 10750 ] final  175.23 input  -60.55 | X-H torsion
[ 11005 11000 10999 10996 ] final   60.92 input  -57.11 | X-H torsion

> <Gold.Protein.ActiveResidues>
 VAL166  LYS551  ARG553  GLY616  TRP617  ASP618  TYR619  PRO620  LYS621  CYS622 
 ASP623  PHE694  ASN695  SER759  ASP760  ASP761  ALA762  ILE779  LEU786  VAL792 
 PHE793  MET794  SER795  GLU796  ALA797  LYS798  CYS799  TRP800  GLU811  SER814 

> <Gold.Protein.RotatedAtoms>
  151.4799  135.1051  159.9774 H   0  0  0  0  0  0  0  0  0  0  0  0  # atno 6907 bound_to 6896
  152.4783  133.8189  159.7053 H   0  0  0  0  0  0  0  0  0  0  0  0  # atno 6908 bound_to 6896
  150.8837  133.7276  159.2951 H   0  0  0  0  0  0  0  0  0  0  0  0  # atno 6909 bound_to 6896
  146.2431  140.1207  142.8340 H   0  0  0  0  0  0  0  0  0  0  0  0  # atno 7974 bound_to 7965
  156.2761  140.2106  156.5829 H   0  0  0  0  0  0  0  0  0  0  0  0  # atno 8008 bound_to 7997
  154.7044  140.0518  157.0513 H   0  0  0  0  0  0  0  0  0  0  0  0  # atno 8009 bound_to 7997
  155.0690  140.3174  155.4639 H   0  0  0  0  0  0  0  0  0  0  0  0  # atno 8010 bound_to 7997
  140.7190  143.5383  150.9438 H   0  0  0  0  0  0  0  0  0  0  0  0  # atno 10167 bound_to 10162
  156.3379  130.7621  151.1752 H   0  0  0  0  0  0  0  0  0  0  0  0  # atno 10718 bound_to 10713
  154.4648  135.2769  155.1686 H   0  0  0  0  0  0  0  0  0  0  0  0  # atno 10763 bound_to 10752
  154.3459  135.6160  153.5622 H   0  0  0  0  0  0  0  0  0  0  0  0  # atno 10764 bound_to 10752
  152.9858  135.5800  154.5017 H   0  0  0  0  0  0  0  0  0  0  0  0  # atno 10765 bound_to 10752
  140.0198  134.6171  155.9657 H   0  0  0  0  0  0  0  0  0  0  0  0  # atno 11005 bound_to 11000
  145.0409  140.8944  143.5053 LP  0  0  0  0  0  0  0  0  0  0  0  0  # atno 17320 bound_to 7965
  145.1287  139.2646  143.5550 LP  0  0  0  0  0  0  0  0  0  0  0  0  # atno 17321 bound_to 7965
  139.9105  143.6726  152.3116 LP  0  0  0  0  0  0  0  0  0  0  0  0  # atno 17342 bound_to 10162
  139.7107  144.7620  151.1117 LP  0  0  0  0  0  0  0  0  0  0  0  0  # atno 17343 bound_to 10162
  157.7442  131.0463  150.4886 LP  0  0  0  0  0  0  0  0  0  0  0  0  # atno 17370 bound_to 10713
  156.5062  130.4128  149.6326 LP  0  0  0  0  0  0  0  0  0  0  0  0  # atno 17371 bound_to 10713
  141.1766  133.6541  156.4853 LP  0  0  0  0  0  0  0  0  0  0  0  0  # atno 17394 bound_to 11000
  140.4408  134.7017  157.4990 LP  0  0  0  0  0  0  0  0  0  0  0  0  # atno 17395 bound_to 11000

$$$$
