AV-unprocessed.smi:527|AV-procd|sdf|2815|dock9
  -GOLD-   2262023293D 1   1.00000     0.00000
 Structure written by MMmdl.
 42 43  0  0  0  0  0  0  0  0  1 V2000
  152.2921  137.8956  154.3853 C   0  0  0  0  0  0  0  0  0  0  0  0
  150.7537  137.8653  154.3421 C   0  0  2  0  0  0  0  0  0  0  0  0
  150.2041  139.3067  154.3591 C   0  0  0  0  0  0  0  0  0  0  0  0
  148.6712  139.3434  154.3042 C   0  0  0  0  0  0  0  0  0  0  0  0
  148.0617  138.5259  155.4517 C   0  0  0  0  0  0  0  0  0  0  0  0
  148.5798  137.0734  155.4578 C   0  0  1  0  0  0  0  0  0  0  0  0
  148.0548  136.3261  154.3137 N   0  0  0  0  0  0  0  0  0  0  0  0
  147.2598  135.2485  154.3810 C   0  0  0  0  0  0  0  0  0  0  0  0
  146.7188  134.8675  155.4213 O   0  0  0  0  0  0  0  0  0  0  0  0
  147.1407  134.6654  153.1734 N   0  0  0  0  0  0  0  0  0  0  0  0
  146.4260  133.5658  152.8559 C   0  0  0  0  0  0  0  0  0  0  0  0
  145.7647  132.8952  153.6505 O   0  0  0  0  0  0  0  0  0  0  0  0
  146.4719  133.1448  151.3845 C   0  0  0  0  0  0  0  0  0  0  0  0
  145.1399  132.9371  150.8448 N   0  0  0  0  0  0  0  0  0  0  0  0
  143.9300  133.2409  151.4566 C   0  0  0  0  0  0  0  0  0  0  0  0
  142.9396  132.8648  150.5777 C   0  0  0  0  0  0  0  0  0  0  0  0
  143.5129  132.3317  149.4256 N   0  0  0  0  0  0  0  0  0  0  0  0
  144.8172  132.4090  149.6554 C   0  0  0  0  0  0  0  0  0  0  0  0
  150.1300  137.0255  155.4922 C   0  0  1  0  0  0  0  0  0  0  0  0
  150.6434  135.5715  155.5248 C   0  0  0  0  0  0  0  0  0  0  0  0
  152.6548  138.2753  155.3409 H   0  0  0  0  0  0  0  0  0  0  0  0
  152.6922  138.5388  153.6009 H   0  0  0  0  0  0  0  0  0  0  0  0
  152.7217  136.9061  154.2312 H   0  0  0  0  0  0  0  0  0  0  0  0
  150.4663  137.4123  153.3923 H   0  0  0  0  0  0  0  0  0  0  0  0
  150.5446  139.8187  155.2603 H   0  0  0  0  0  0  0  0  0  0  0  0
  150.6074  139.8695  153.5166 H   0  0  0  0  0  0  0  0  0  0  0  0
  148.3234  140.3753  154.3603 H   0  0  0  0  0  0  0  0  0  0  0  0
  148.3267  138.9546  153.3451 H   0  0  0  0  0  0  0  0  0  0  0  0
  148.3149  138.9997  156.4009 H   0  0  0  0  0  0  0  0  0  0  0  0
  146.9731  138.5456  155.3870 H   0  0  0  0  0  0  0  0  0  0  0  0
  148.2148  136.5923  156.3673 H   0  0  0  0  0  0  0  0  0  0  0  0
  148.3168  136.6648  153.3996 H   0  0  0  0  0  0  0  0  0  0  0  0
  147.6322  135.1098  152.4123 H   0  0  0  0  0  0  0  0  0  0  0  0
  146.9807  133.9117  150.7990 H   0  0  0  0  0  0  0  0  0  0  0  0
  147.0425  132.2216  151.2735 H   0  0  0  0  0  0  0  0  0  0  0  0
  143.8746  133.6851  152.4397 H   0  0  0  0  0  0  0  0  0  0  0  0
  141.8672  132.9362  150.6850 H   0  0  0  0  0  0  0  0  0  0  0  0
  145.5561  132.0691  148.9443 H   0  0  0  0  0  0  0  0  0  0  0  0
  150.4368  137.4858  156.4329 H   0  0  0  0  0  0  0  0  0  0  0  0
  150.5002  135.0716  154.5664 H   0  0  0  0  0  0  0  0  0  0  0  0
  150.1209  134.9896  156.2844 H   0  0  0  0  0  0  0  0  0  0  0  0
  151.7045  135.5261  155.7678 H   0  0  0  0  0  0  0  0  0  0  0  0
  1  2  1  0  0  0  0
  1 21  1  0  0  0  0
  1 22  1  0  0  0  0
  1 23  1  0  0  0  0
  2 19  1  0  0  0  0
  2  3  1  0  0  0  0
  2 24  1  0  0  0  0
  3  4  1  0  0  0  0
  3 25  1  0  0  0  0
  3 26  1  0  0  0  0
  4  5  1  0  0  0  0
  4 27  1  0  0  0  0
  4 28  1  0  0  0  0
  5  6  1  0  0  0  0
  5 29  1  0  0  0  0
  5 30  1  0  0  0  0
  6  7  1  0  0  0  0
  6 19  1  0  0  0  0
  6 31  1  0  0  0  0
  7  8  1  0  0  0  0
  7 32  1  0  0  0  0
  8  9  2  0  0  0  0
  8 10  1  0  0  0  0
 10 11  1  0  0  0  0
 10 33  1  0  0  0  0
 11 12  2  0  0  0  0
 11 13  1  0  0  0  0
 13 14  1  0  0  0  0
 13 34  1  0  0  0  0
 13 35  1  0  0  0  0
 14 18  1  0  0  0  0
 14 15  1  0  0  0  0
 15 16  2  0  0  0  0
 15 36  1  0  0  0  0
 16 17  1  0  0  0  0
 16 37  1  0  0  0  0
 17 18  2  0  0  0  0
 18 38  1  0  0  0  0
 19 20  1  0  0  0  0
 19 39  1  0  0  0  0
 20 40  1  0  0  0  0
 20 41  1  0  0  0  0
 20 42  1  0  0  0  0
M  END
> <s_m_source_file>
AV-unprocessed.smi

> <i_m_source_file_index>
527

> <i_lp_mmshare_version>
43012

> <i_f3d_flags>
0

> <s_epik_input>
W0NIM11bQ0BASF0xW0NIMl1bQ0gyXVtDSDJdW0NASF0oW0NASF0xW0NIM10pW05IXUMoPU8pW05IXUMoPU8pW0NIMl1uMltjSF1bY0hdbltjSF0y

> <s_epik_cmdline>
J2VwaWtfcHl0aG9uJywgJy1waCcsICc3LjAnLCAnLXRuJywgJzgnLCAnLW1hJywgJzIwMCcsICctbWV0YWxfYmluZGluZycsICctaW1hZScsICc8aW5maWxlLm1hZT4nLCAnLW9tYWUnLCAnPG91dGZpbGUubWFlPic=

> <r_lp_tautomer_probability>
1

> <r_epik_Ionization_Penalty>
0.172132

> <r_epik_Ionization_Penalty_Charging>
0.172105

> <r_epik_Ionization_Penalty_Neutral>
2.71747e-05

> <r_epik_State_Penalty>
0.161503

> <r_epik_Charging_Adjusted_Penalty>
0.333607

> <i_epik_Tot_Q>
0

> <i_epik_Tot_abs_Q>
0

> <r_epik_Metal_State_Penalty>
0.124763

> <b_epik_Metal_Only>
0

> <s_lp_Force_Field>
OPLS_2005

> <r_lp_Energy>
14.2901

> <b_lp_Chiralities_Consistent>
1

> <s_lp_Variant>
AV-unprocessed.smi:527-1

> <Gold.Version>
5.8.1

> <Gold.Id.Protein>
6NUR|6NUR_protein|mol2

> <Gold.PLP.Fitness>
44.2801

> <Gold.PLP.PLP>
-32.8366

> <Gold.PLP.part.hbond>
-3.0000

> <Gold.PLP.part.metal>
0.0000

> <Gold.PLP.part.buried>
-4.3340

> <Gold.PLP.part.nonpolar>
-27.0678

> <Gold.PLP.part.repulsive>
0.3607

> <Gold.PLP.ligand.clash>
0.0000

> <Gold.PLP.ligand.torsion>
0.1843

> <Gold.PLP.Chemscore.Hbond>
2.6800

> <Gold.PLP.Chemscore.CHOScore>
1.2522

> <Gold.PLP.Chemscore.Metal>
0.0000

> <Gold.Chemscore.Hbonds>
donor molecule, donor type, donor heavy atom, donor atom, acceptor molecule, acceptor atom, score
      L1  H     7    32       P1  7948  0.90
      L1  H    10    33       P1  7948  0.99
      P1  H 10785 10796       L1    17  0.29
      L1  C    16    37       P1 10186  0.70

> <Gold.PLP.Chemscore.Internal.Correction>
0.0154

> <Gold.Rescore>
     Score         DG    S(hbond)    S(metal)    S(lipo)     H(rot)  DE(clash)    DE(int)     intcor
     15.25     -17.07       2.54        0.00      62.80       1.66       0.08       1.74       ----

> <Gold.Chemscore.Fitness>
15.2450

> <Gold.Chemscore.DG>
-17.0661

> <Gold.Chemscore.ZeroCoef>
-5.4800

> <Gold.Chemscore.Hbond>
2.5435

> <Gold.Chemscore.Metal>
0.0000

> <Gold.Chemscore.Lipo>
62.8001

> <Gold.Chemscore.Internal_Hbond>
0.0000

> <Gold.Chemscore.DEClash>
0.0795

> <Gold.Chemscore.DEInternal>
1.7416

> <Gold.Chemscore.Rot>
1.6629

> <Gold.Chemscore.Internal.Correction>
   9.000000E+99

> <Gold.Chemscore.Hbonds>
donor molecule, donor type, donor heavy atom, donor atom, acceptor molecule, acceptor atom, score
      L1  H     7    32       P1  7948  0.88
      L1  H    10    33       P1  7948  0.93
      P1  H 10785 10796       L1    17  0.12

> <Gold.Chemscore.Hbond.Weighted>
-8.4954

> <Gold.Chemscore.Metal.Weighted>
-0.0000

> <Gold.Chemscore.Lipo.Weighted>
-7.3476

> <Gold.Chemscore.Internal_Hbond.Weighted>
0.0000

> <Gold.Chemscore.DEClash.Weighted>
0.0795

> <Gold.Chemscore.DEInternal.Weighted>
1.7416

> <Gold.Chemscore.Rot.Weighted>
4.2569

> <Gold.Chemscore.Internal.Correction.Weighted>
   9.000000E+99

> <Gold.Protein.RotatedTorsions>
[ 6907 6896 6895 6894 ] final  -50.17 input  -60.11 | X-H torsion
[ 7974 7965 7964 7962 ] final   84.10 input  175.53 | X-H torsion
[ 8008 7997 7996 7995 ] final    0.67 input   59.86 | X-H torsion
[ 10167 10162 10161 10158 ] final -152.11 input  -65.29 | X-H torsion
[ 10718 10713 10712 10709 ] final   81.32 input   66.30 | X-H torsion
[ 10763 10752 10751 10750 ] final  178.04 input  -60.55 | X-H torsion
[ 11005 11000 10999 10996 ] final   94.16 input  -57.11 | X-H torsion

> <Gold.Protein.ActiveResidues>
 VAL166  LYS551  ARG553  GLY616  TRP617  ASP618  TYR619  PRO620  LYS621  CYS622 
 ASP623  PHE694  ASN695  SER759  ASP760  ASP761  ALA762  ILE779  LEU786  VAL792 
 PHE793  MET794  SER795  GLU796  ALA797  LYS798  CYS799  TRP800  GLU811  SER814 

> <Gold.Protein.RotatedAtoms>
  150.8734  134.8112  159.7171 H   0  0  0  0  0  0  0  0  0  0  0  0  # atno 6907 bound_to 6896
  152.4730  134.4911  159.9705 H   0  0  0  0  0  0  0  0  0  0  0  0  # atno 6908 bound_to 6896
  151.4996  133.3468  159.2902 H   0  0  0  0  0  0  0  0  0  0  0  0  # atno 6909 bound_to 6896
  145.6031  139.2355  143.2234 H   0  0  0  0  0  0  0  0  0  0  0  0  # atno 7974 bound_to 7965
  154.6708  140.2611  155.7009 H   0  0  0  0  0  0  0  0  0  0  0  0  # atno 8008 bound_to 7997
  156.2658  140.2830  156.1138 H   0  0  0  0  0  0  0  0  0  0  0  0  # atno 8009 bound_to 7997
  155.1172  140.0376  157.2730 H   0  0  0  0  0  0  0  0  0  0  0  0  # atno 8010 bound_to 7997
  139.7210  143.8958  152.2503 H   0  0  0  0  0  0  0  0  0  0  0  0  # atno 10167 bound_to 10162
  157.6830  130.9999  150.2210 H   0  0  0  0  0  0  0  0  0  0  0  0  # atno 10718 bound_to 10713
  154.5024  135.2784  155.1410 H   0  0  0  0  0  0  0  0  0  0  0  0  # atno 10763 bound_to 10752
  154.3038  135.6243  153.5439 H   0  0  0  0  0  0  0  0  0  0  0  0  # atno 10764 bound_to 10752
  152.9904  135.5703  154.5470 H   0  0  0  0  0  0  0  0  0  0  0  0  # atno 10765 bound_to 10752
  139.8801  134.8830  156.3823 H   0  0  0  0  0  0  0  0  0  0  0  0  # atno 11005 bound_to 11000
  146.1561  140.6856  142.9299 LP  0  0  0  0  0  0  0  0  0  0  0  0  # atno 17320 bound_to 7965
  144.7301  140.4646  143.6944 LP  0  0  0  0  0  0  0  0  0  0  0  0  # atno 17321 bound_to 7965
  139.8854  144.6995  150.8831 LP  0  0  0  0  0  0  0  0  0  0  0  0  # atno 17342 bound_to 10162
  140.7753  143.3628  151.1795 LP  0  0  0  0  0  0  0  0  0  0  0  0  # atno 17343 bound_to 10162
  156.2861  130.3739  149.7887 LP  0  0  0  0  0  0  0  0  0  0  0  0  # atno 17370 bound_to 10713
  156.5560  130.8363  151.3314 LP  0  0  0  0  0  0  0  0  0  0  0  0  # atno 17371 bound_to 10713
  140.9390  133.7527  156.0122 LP  0  0  0  0  0  0  0  0  0  0  0  0  # atno 17394 bound_to 11000
  140.8242  134.3254  157.5371 LP  0  0  0  0  0  0  0  0  0  0  0  0  # atno 17395 bound_to 11000

$$$$
