AV-unprocessed.smi:1867|AV-procd|sdf|7561|dock9
  -GOLD-   22720 9283D 1   1.00000     0.00000
 Structure written by MMmdl.
 52 55  0  0  0  0  0  0  0  0  2 V2000
  147.3576  140.3650  154.5598 O   0  0  0  0  0  0  0  0  0  0  0  0
  148.1812  139.5222  154.2129 C   0  0  0  0  0  0  0  0  0  0  0  0
  149.4284  139.4161  154.7115 N   0  0  0  0  0  0  0  0  0  0  0  0
  150.0806  140.2533  155.6554 C   0  0  0  0  0  0  0  0  0  0  0  0
  149.3902  141.3892  156.1196 C   0  0  0  0  0  0  0  0  0  0  0  0
  150.0026  142.2278  157.0696 C   0  0  0  0  0  0  0  0  0  0  0  0
  151.2974  141.9033  157.5386 C   0  0  0  0  0  0  0  0  0  0  0  0
  151.9478  142.7149  158.4893 N   0  0  0  0  0  0  0  0  0  0  0  0
  152.8224  142.1454  159.5057 C   0  0  0  0  0  0  0  0  0  0  0  0
  152.7821  143.1241  160.6854 C   0  0  0  0  0  0  0  0  0  0  0  0
  152.2914  144.4345  160.0698 C   0  0  0  0  0  0  0  0  0  0  0  0
  151.3636  143.9647  158.9512 C   0  0  0  0  0  0  0  0  0  0  0  0
  151.9528  140.7985  157.1099 N   0  0  0  0  0  0  0  0  0  0  0  0
  151.3628  139.9987  156.1970 C   0  0  0  0  0  0  0  0  0  0  0  0
  147.8776  138.6006  153.2805 N   0  0  0  0  0  0  0  0  0  0  0  0
  146.6251  138.4253  152.5385 C   0  0  1  0  0  0  0  0  0  0  0  0
  146.8000  138.6369  151.0220 C   0  0  0  0  0  0  0  0  0  0  0  0
  145.9377  137.5488  150.3753 C   0  0  0  0  0  0  0  0  0  0  0  0
  146.0519  136.4357  151.3237 N   0  3  2  0  0  0  0  0  0  0  0  0
  145.1549  135.2738  151.1606 C   0  0  0  0  0  0  0  0  0  0  0  0
  145.5990  134.1734  152.1481 C   0  0  0  0  0  0  0  0  0  0  0  0
  145.7107  134.6982  153.5976 C   0  0  0  0  0  0  0  0  0  0  0  0
  146.5552  135.9885  153.6790 C   0  0  0  0  0  0  0  0  0  0  0  0
  145.9972  137.0160  152.6769 C   0  0  1  0  0  0  0  0  0  0  0  0
  149.9623  138.6169  154.4038 H   0  0  0  0  0  0  0  0  0  0  0  0
  148.4007  141.6204  155.7525 H   0  0  0  0  0  0  0  0  0  0  0  0
  149.4725  143.0974  157.4284 H   0  0  0  0  0  0  0  0  0  0  0  0
  152.4999  141.1511  159.8162 H   0  0  0  0  0  0  0  0  0  0  0  0
  153.8317  142.0689  159.1005 H   0  0  0  0  0  0  0  0  0  0  0  0
  152.0583  142.7753  161.4229 H   0  0  0  0  0  0  0  0  0  0  0  0
  153.7462  143.2235  161.1848 H   0  0  0  0  0  0  0  0  0  0  0  0
  151.7936  145.0859  160.7886 H   0  0  0  0  0  0  0  0  0  0  0  0
  153.1352  144.9805  159.6457 H   0  0  0  0  0  0  0  0  0  0  0  0
  151.2953  144.6992  158.1480 H   0  0  0  0  0  0  0  0  0  0  0  0
  150.3602  143.7781  159.3364 H   0  0  0  0  0  0  0  0  0  0  0  0
  151.9383  139.1285  155.9235 H   0  0  0  0  0  0  0  0  0  0  0  0
  148.6131  137.9469  153.0530 H   0  0  0  0  0  0  0  0  0  0  0  0
  145.8965  139.1622  152.8812 H   0  0  0  0  0  0  0  0  0  0  0  0
  146.5151  139.6395  150.7011 H   0  0  0  0  0  0  0  0  0  0  0  0
  147.8422  138.4844  150.7358 H   0  0  0  0  0  0  0  0  0  0  0  0
  144.8975  137.8716  150.3065 H   0  0  0  0  0  0  0  0  0  0  0  0
  146.2832  137.2739  149.3782 H   0  0  0  0  0  0  0  0  0  0  0  0
  144.1202  135.5678  151.3433 H   0  0  0  0  0  0  0  0  0  0  0  0
  145.2118  134.9043  150.1361 H   0  0  0  0  0  0  0  0  0  0  0  0
  144.9062  133.3324  152.1069 H   0  0  0  0  0  0  0  0  0  0  0  0
  146.5693  133.7850  151.8360 H   0  0  0  0  0  0  0  0  0  0  0  0
  144.7102  134.8995  153.9830 H   0  0  0  0  0  0  0  0  0  0  0  0
  146.1377  133.9294  154.2424 H   0  0  0  0  0  0  0  0  0  0  0  0
  146.5216  136.3817  154.6951 H   0  0  0  0  0  0  0  0  0  0  0  0
  147.6000  135.7674  153.4567 H   0  0  0  0  0  0  0  0  0  0  0  0
  144.9444  137.1768  152.9202 H   0  0  0  0  0  0  0  0  0  0  0  0
  146.9929  136.0861  151.2110 H   0  0  0  0  0  0  0  0  0  0  0  0
  1  2  2  0  0  0  0
  2  3  1  0  0  0  0
  2 15  1  0  0  0  0
  3  4  1  0  0  0  0
  3 25  1  0  0  0  0
  4 14  1  0  0  0  0
  4  5  2  0  0  0  0
  5  6  1  0  0  0  0
  5 26  1  0  0  0  0
  6  7  2  0  0  0  0
  6 27  1  0  0  0  0
  7  8  1  0  0  0  0
  7 13  1  0  0  0  0
  8 12  1  0  0  0  0
  8  9  1  0  0  0  0
  9 10  1  0  0  0  0
  9 28  1  0  0  0  0
  9 29  1  0  0  0  0
 10 11  1  0  0  0  0
 10 30  1  0  0  0  0
 10 31  1  0  0  0  0
 11 12  1  0  0  0  0
 11 32  1  0  0  0  0
 11 33  1  0  0  0  0
 12 34  1  0  0  0  0
 12 35  1  0  0  0  0
 13 14  2  0  0  0  0
 14 36  1  0  0  0  0
 15 16  1  0  0  0  0
 15 37  1  0  0  0  0
 16 24  1  0  0  0  0
 16 17  1  0  0  0  0
 16 38  1  0  0  0  0
 17 18  1  0  0  0  0
 17 39  1  0  0  0  0
 17 40  1  0  0  0  0
 18 19  1  0  0  0  0
 18 41  1  0  0  0  0
 18 42  1  0  0  0  0
 19 24  1  0  0  0  0
 19 20  1  0  0  0  0
 19 52  1  0  0  0  0
 20 21  1  0  0  0  0
 20 43  1  0  0  0  0
 20 44  1  0  0  0  0
 21 22  1  0  0  0  0
 21 45  1  0  0  0  0
 21 46  1  0  0  0  0
 22 23  1  0  0  0  0
 22 47  1  0  0  0  0
 22 48  1  0  0  0  0
 23 24  1  0  0  0  0
 23 49  1  0  0  0  0
 23 50  1  0  0  0  0
 24 51  1  0  0  0  0
M  CHG  1  19   1
M  END
> <s_m_source_file>
AV-unprocessed.smi

> <i_m_source_file_index>
1867

> <i_lp_mmshare_version>
43012

> <i_f3d_flags>
0

> <s_epik_input>
W0NIMl0xW0NIMl1bQ0gyXVtDSDJdW0NASF0oTjEyKVtDQEBIXShbQ0gyXVtDSDJdMilbTkhdQyg9TylbTkhdYzNbY0hdW2NIXWMobltjSF0zKU40W0NIMl1bQ0gyXVtDSDJdW0NIMl00

> <s_epik_cmdline>
J2VwaWtfcHl0aG9uJywgJy1waCcsICc3LjAnLCAnLXRuJywgJzgnLCAnLW1hJywgJzIwMCcsICctbWV0YWxfYmluZGluZycsICctaW1hZScsICc8aW5maWxlLm1hZT4nLCAnLW9tYWUnLCAnPG91dGZpbGUubWFlPic=

> <r_lp_tautomer_probability>
1

> <r_epik_Ionization_Penalty>
0.0751123

> <r_epik_Ionization_Penalty_Charging>
0.000974069

> <r_epik_Ionization_Penalty_Neutral>
0.0741382

> <r_epik_State_Penalty>
0.0647261

> <r_epik_Charging_Adjusted_Penalty>
0.0657002

> <i_epik_Tot_Q>
1

> <i_epik_Tot_abs_Q>
1

> <r_epik_Metal_State_Penalty>
0.0580571

> <b_epik_Metal_Only>
0

> <s_lp_Force_Field>
OPLS_2005

> <r_lp_Energy>
77.0679

> <b_lp_Chiralities_Consistent>
1

> <s_lp_Variant>
AV-unprocessed.smi:1867-2

> <Gold.Version>
5.8.1

> <Gold.Id.Protein>
6NUR|6NUR_protein|mol2

> <Gold.PLP.Fitness>
45.8361

> <Gold.PLP.PLP>
-38.4199

> <Gold.PLP.part.hbond>
-2.6601

> <Gold.PLP.part.metal>
0.0000

> <Gold.PLP.part.buried>
8.7184

> <Gold.PLP.part.nonpolar>
-44.0936

> <Gold.PLP.part.repulsive>
0.2694

> <Gold.PLP.ligand.clash>
0.0000

> <Gold.PLP.ligand.torsion>
0.2598

> <Gold.PLP.Chemscore.Hbond>
2.5775

> <Gold.PLP.Chemscore.CHOScore>
0.0000

> <Gold.PLP.Chemscore.Metal>
0.0000

> <Gold.Chemscore.Hbonds>
donor molecule, donor type, donor heavy atom, donor atom, acceptor molecule, acceptor atom, score
      L1  H    15    37       P1  7948  0.68
      L1  H    19    52       P1  7948  1.89

> <Gold.PLP.Chemscore.Internal.Correction>
0.2033

> <Gold.Rescore>
     Score         DG    S(hbond)    S(metal)    S(lipo)     H(rot)  DE(clash)    DE(int)     intcor
     16.97     -20.49       1.34        0.00     111.78       1.00       1.86       1.66       ----

> <Gold.Chemscore.Fitness>
16.9701

> <Gold.Chemscore.DG>
-20.4901

> <Gold.Chemscore.ZeroCoef>
-5.4800

> <Gold.Chemscore.Hbond>
1.3448

> <Gold.Chemscore.Metal>
0.0000

> <Gold.Chemscore.Lipo>
111.7818

> <Gold.Chemscore.Internal_Hbond>
0.0000

> <Gold.Chemscore.DEClash>
1.8596

> <Gold.Chemscore.DEInternal>
1.6604

> <Gold.Chemscore.Rot>
1.0000

> <Gold.Chemscore.Internal.Correction>
   9.000000E+99

> <Gold.Chemscore.Hbonds>
donor molecule, donor type, donor heavy atom, donor atom, acceptor molecule, acceptor atom, score
      L1  H    15    37       P1  7948  0.67
      L1  H    19    52       P1  7948  0.85

> <Gold.Chemscore.Hbond.Weighted>
-4.4916

> <Gold.Chemscore.Metal.Weighted>
-0.0000

> <Gold.Chemscore.Lipo.Weighted>
-13.0785

> <Gold.Chemscore.Internal_Hbond.Weighted>
0.0000

> <Gold.Chemscore.DEClash.Weighted>
1.8596

> <Gold.Chemscore.DEInternal.Weighted>
1.6604

> <Gold.Chemscore.Rot.Weighted>
2.5600

> <Gold.Chemscore.Internal.Correction.Weighted>
   9.000000E+99

> <Gold.Protein.RotatedTorsions>
[ 6907 6896 6895 6894 ] final   21.90 input  -60.11 | X-H torsion
[ 7974 7965 7964 7962 ] final  -59.81 input  175.53 | X-H torsion
[ 8008 7997 7996 7995 ] final   50.95 input   59.86 | X-H torsion
[ 10167 10162 10161 10158 ] final -138.90 input  -65.29 | X-H torsion
[ 10718 10713 10712 10709 ] final  -96.75 input   66.30 | X-H torsion
[ 10763 10752 10751 10750 ] final  102.49 input  -60.55 | X-H torsion
[ 11005 11000 10999 10996 ] final  -73.85 input  -57.11 | X-H torsion

> <Gold.Protein.ActiveResidues>
 VAL166  LYS551  ARG553  GLY616  TRP617  ASP618  TYR619  PRO620  LYS621  CYS622 
 ASP623  PHE694  ASN695  SER759  ASP760  ASP761  ALA762  ILE779  LEU786  VAL792 
 PHE793  MET794  SER795  GLU796  ALA797  LYS798  CYS799  TRP800  GLU811  SER814 

> <Gold.Protein.RotatedAtoms>
  151.9189  135.0307  160.0520 H   0  0  0  0  0  0  0  0  0  0  0  0  # atno 6907 bound_to 6896
  152.2217  133.4984  159.5174 H   0  0  0  0  0  0  0  0  0  0  0  0  # atno 6908 bound_to 6896
  150.7001  134.1251  159.4091 H   0  0  0  0  0  0  0  0  0  0  0  0  # atno 6909 bound_to 6896
  145.8231  140.8528  143.0122 H   0  0  0  0  0  0  0  0  0  0  0  0  # atno 7974 bound_to 7965
  155.4272  140.3449  155.4276 H   0  0  0  0  0  0  0  0  0  0  0  0  # atno 8008 bound_to 7997
  156.1358  140.1527  156.9028 H   0  0  0  0  0  0  0  0  0  0  0  0  # atno 8009 bound_to 7997
  154.4930  140.0835  156.7617 H   0  0  0  0  0  0  0  0  0  0  0  0  # atno 8010 bound_to 7997
  139.8432  143.7294  152.2662 H   0  0  0  0  0  0  0  0  0  0  0  0  # atno 10167 bound_to 10162
  156.0069  130.5165  150.6273 H   0  0  0  0  0  0  0  0  0  0  0  0  # atno 10718 bound_to 10713
  153.3403  135.4008  155.1566 H   0  0  0  0  0  0  0  0  0  0  0  0  # atno 10763 bound_to 10752
  154.8642  135.3632  154.5354 H   0  0  0  0  0  0  0  0  0  0  0  0  # atno 10764 bound_to 10752
  153.5798  135.7077  153.5527 H   0  0  0  0  0  0  0  0  0  0  0  0  # atno 10765 bound_to 10752
  141.1628  133.6892  156.7275 H   0  0  0  0  0  0  0  0  0  0  0  0  # atno 11005 bound_to 11000
  144.6746  140.0562  143.7477 LP  0  0  0  0  0  0  0  0  0  0  0  0  # atno 17320 bound_to 7965
  145.9654  139.2830  143.1131 LP  0  0  0  0  0  0  0  0  0  0  0  0  # atno 17321 bound_to 7965
  139.7538  144.7526  151.0466 LP  0  0  0  0  0  0  0  0  0  0  0  0  # atno 17342 bound_to 10162
  140.7796  143.4829  150.9994 LP  0  0  0  0  0  0  0  0  0  0  0  0  # atno 17343 bound_to 10162
  157.4077  131.0819  151.1250 LP  0  0  0  0  0  0  0  0  0  0  0  0  # atno 17370 bound_to 10713
  157.1891  130.6344  149.5698 LP  0  0  0  0  0  0  0  0  0  0  0  0  # atno 17371 bound_to 10713
  140.2770  134.8347  157.3899 LP  0  0  0  0  0  0  0  0  0  0  0  0  # atno 17394 bound_to 11000
  140.1469  134.4900  155.7990 LP  0  0  0  0  0  0  0  0  0  0  0  0  # atno 17395 bound_to 11000

$$$$
