AV-unprocessed.smi:1409|AV-procd|sdf|5728|dock10
  -GOLD-   22720 5363D 1   1.00000     0.00000
 Structure written by MMmdl.
 37 38  0  0  0  0  0  0  0  0  1 V2000
  147.9767  131.7841  153.2103 C   0  0  0  0  0  0  0  0  0  0  0  0
  147.4577  132.9696  152.6172 O   0  0  0  0  0  0  0  0  0  0  0  0
  146.3149  132.8763  151.8454 C   0  0  0  0  0  0  0  0  0  0  0  0
  145.8100  131.6432  151.5898 N   0  0  0  0  0  0  0  0  0  0  0  0
  144.6941  131.5487  150.8388 C   0  0  0  0  0  0  0  0  0  0  0  0
  144.0253  132.6675  150.3109 C   0  0  0  0  0  0  0  0  0  0  0  0
  144.5455  133.9477  150.5756 C   0  0  0  0  0  0  0  0  0  0  0  0
  145.7228  134.0647  151.3558 C   0  0  0  0  0  0  0  0  0  0  0  0
  146.3403  135.3012  151.7002 N   0  0  0  0  0  0  0  0  0  0  0  0
  145.7826  136.4691  152.0628 C   0  0  0  0  0  0  0  0  0  0  0  0
  144.5761  136.6907  152.1567 O   0  0  0  0  0  0  0  0  0  0  0  0
  146.7235  137.3914  152.3112 N   0  0  0  0  0  0  0  0  0  0  0  0
  146.4764  138.7685  152.7289 C   0  0  0  0  0  0  0  0  0  0  0  0
  147.7745  139.4802  153.1545 C   0  0  1  0  0  0  0  0  0  0  0  0
  147.5115  140.8926  153.7120 C   0  0  0  0  0  0  0  0  0  0  0  0
  148.8070  141.4215  154.3348 C   0  0  0  0  0  0  0  0  0  0  0  0
  149.6427  139.9565  155.0484 S   0  0  0  0  0  0  0  0  0  0  0  0
  151.0129  139.8826  154.5192 O   0  0  0  0  0  0  0  0  0  0  0  0
  149.3855  139.9017  156.4953 O   0  0  0  0  0  0  0  0  0  0  0  0
  148.5922  138.7116  154.2075 C   0  0  0  0  0  0  0  0  0  0  0  0
  148.8752  132.0285  153.7765 H   0  0  0  0  0  0  0  0  0  0  0  0
  148.2520  131.0458  152.4559 H   0  0  0  0  0  0  0  0  0  0  0  0
  147.2604  131.3397  153.9028 H   0  0  0  0  0  0  0  0  0  0  0  0
  144.3215  130.5515  150.6562 H   0  0  0  0  0  0  0  0  0  0  0  0
  143.1307  132.5467  149.7180 H   0  0  0  0  0  0  0  0  0  0  0  0
  144.0216  134.8024  150.1798 H   0  0  0  0  0  0  0  0  0  0  0  0
  147.3478  135.3011  151.6333 H   0  0  0  0  0  0  0  0  0  0  0  0
  147.6900  137.1189  152.2058 H   0  0  0  0  0  0  0  0  0  0  0  0
  146.0350  139.2938  151.8817 H   0  0  0  0  0  0  0  0  0  0  0  0
  145.7360  138.8104  153.5296 H   0  0  0  0  0  0  0  0  0  0  0  0
  148.4062  139.5981  152.2725 H   0  0  0  0  0  0  0  0  0  0  0  0
  147.1360  141.5681  152.9431 H   0  0  0  0  0  0  0  0  0  0  0  0
  146.7461  140.8357  154.4872 H   0  0  0  0  0  0  0  0  0  0  0  0
  149.4598  141.8438  153.5706 H   0  0  0  0  0  0  0  0  0  0  0  0
  148.6367  142.1740  155.1051 H   0  0  0  0  0  0  0  0  0  0  0  0
  147.9415  138.2641  154.9596 H   0  0  0  0  0  0  0  0  0  0  0  0
  149.2130  137.9260  153.7765 H   0  0  0  0  0  0  0  0  0  0  0  0
  1  2  1  0  0  0  0
  1 21  1  0  0  0  0
  1 22  1  0  0  0  0
  1 23  1  0  0  0  0
  2  3  1  0  0  0  0
  3  8  1  0  0  0  0
  3  4  2  0  0  0  0
  4  5  1  0  0  0  0
  5  6  2  0  0  0  0
  5 24  1  0  0  0  0
  6  7  1  0  0  0  0
  6 25  1  0  0  0  0
  7  8  2  0  0  0  0
  7 26  1  0  0  0  0
  8  9  1  0  0  0  0
  9 10  1  0  0  0  0
  9 27  1  0  0  0  0
 10 11  2  0  0  0  0
 10 12  1  0  0  0  0
 12 13  1  0  0  0  0
 12 28  1  0  0  0  0
 13 14  1  0  0  0  0
 13 29  1  0  0  0  0
 13 30  1  0  0  0  0
 14 20  1  0  0  0  0
 14 15  1  0  0  0  0
 14 31  1  0  0  0  0
 15 16  1  0  0  0  0
 15 32  1  0  0  0  0
 15 33  1  0  0  0  0
 16 17  1  0  0  0  0
 16 34  1  0  0  0  0
 16 35  1  0  0  0  0
 17 18  2  0  0  0  0
 17 19  2  0  0  0  0
 17 20  1  0  0  0  0
 20 36  1  0  0  0  0
 20 37  1  0  0  0  0
M  END
> <s_m_source_file>
AV-unprocessed.smi

> <i_m_source_file_index>
1409

> <i_lp_mmshare_version>
43012

> <i_f3d_flags>
0

> <s_epik_input>
W0NIM11PYzFuW2NIXVtjSF1bY0hdYzFbTkhdQyg9TylbTkhdW0NIMl1bQ0BASF0oW0NIMl0yKVtDSDJdW0NIMl1TMig9Tyk9Tw==

> <s_epik_cmdline>
J2VwaWtfcHl0aG9uJywgJy1waCcsICc3LjAnLCAnLXRuJywgJzgnLCAnLW1hJywgJzIwMCcsICctbWV0YWxfYmluZGluZycsICctaW1hZScsICc8aW5maWxlLm1hZT4nLCAnLW9tYWUnLCAnPG91dGZpbGUubWFlPic=

> <r_lp_tautomer_probability>
1

> <r_epik_Ionization_Penalty>
9.0549e-05

> <r_epik_Ionization_Penalty_Charging>
0

> <r_epik_Ionization_Penalty_Neutral>
9.0549e-05

> <r_epik_State_Penalty>
-0

> <r_epik_Charging_Adjusted_Penalty>
0

> <i_epik_Tot_Q>
0

> <i_epik_Tot_abs_Q>
0

> <r_epik_Metal_State_Penalty>
-0

> <b_epik_Metal_Only>
0

> <s_lp_Force_Field>
OPLS_2005

> <r_lp_Energy>
6.49732

> <b_lp_Chiralities_Consistent>
1

> <s_lp_Variant>
AV-unprocessed.smi:1409-2

> <Gold.Version>
5.8.1

> <Gold.Id.Protein>
6NUR|6NUR_protein|mol2

> <Gold.PLP.Fitness>
41.5534

> <Gold.PLP.PLP>
-33.4042

> <Gold.PLP.part.hbond>
-3.0000

> <Gold.PLP.part.metal>
0.0000

> <Gold.PLP.part.buried>
-2.7317

> <Gold.PLP.part.nonpolar>
-28.9379

> <Gold.PLP.part.repulsive>
0.8846

> <Gold.PLP.ligand.clash>
0.0000

> <Gold.PLP.ligand.torsion>
0.4153

> <Gold.PLP.Chemscore.Hbond>
2.9920

> <Gold.PLP.Chemscore.CHOScore>
0.0000

> <Gold.PLP.Chemscore.Metal>
0.0000

> <Gold.Chemscore.Hbonds>
donor molecule, donor type, donor heavy atom, donor atom, acceptor molecule, acceptor atom, score
      L1  H     9    27       P1  7948  0.99
      L1  H    12    28       P1  7948  1.00
      P1  H  7989  7998       L1    18  1.00

> <Gold.PLP.Chemscore.Internal.Correction>
0.0039

> <Gold.Rescore>
     Score         DG    S(hbond)    S(metal)    S(lipo)     H(rot)  DE(clash)    DE(int)     intcor
     18.27     -19.12       2.85        0.00      69.96       1.59       0.49       0.37       ----

> <Gold.Chemscore.Fitness>
18.2660

> <Gold.Chemscore.DG>
-19.1233

> <Gold.Chemscore.ZeroCoef>
-5.4800

> <Gold.Chemscore.Hbond>
2.8543

> <Gold.Chemscore.Metal>
0.0000

> <Gold.Chemscore.Lipo>
69.9596

> <Gold.Chemscore.Internal_Hbond>
0.0000

> <Gold.Chemscore.DEClash>
0.4875

> <Gold.Chemscore.DEInternal>
0.3697

> <Gold.Chemscore.Rot>
1.5919

> <Gold.Chemscore.Internal.Correction>
   9.000000E+99

> <Gold.Chemscore.Hbonds>
donor molecule, donor type, donor heavy atom, donor atom, acceptor molecule, acceptor atom, score
      L1  H     9    27       P1  7948  0.89
      L1  H    12    28       P1  7948  0.96
      P1  H  7989  7998       L1    18  0.95

> <Gold.Chemscore.Hbond.Weighted>
-9.5333

> <Gold.Chemscore.Metal.Weighted>
-0.0000

> <Gold.Chemscore.Lipo.Weighted>
-8.1853

> <Gold.Chemscore.Internal_Hbond.Weighted>
0.0000

> <Gold.Chemscore.DEClash.Weighted>
0.4875

> <Gold.Chemscore.DEInternal.Weighted>
0.3697

> <Gold.Chemscore.Rot.Weighted>
4.0754

> <Gold.Chemscore.Internal.Correction.Weighted>
   9.000000E+99

> <Gold.Protein.RotatedTorsions>
[ 6907 6896 6895 6894 ] final -140.35 input  -60.11 | X-H torsion
[ 7974 7965 7964 7962 ] final   74.61 input  175.53 | X-H torsion
[ 8008 7997 7996 7995 ] final   55.83 input   59.86 | X-H torsion
[ 10167 10162 10161 10158 ] final  126.80 input  -65.29 | X-H torsion
[ 10718 10713 10712 10709 ] final  100.55 input   66.30 | X-H torsion
[ 10763 10752 10751 10750 ] final   42.85 input  -60.55 | X-H torsion
[ 11005 11000 10999 10996 ] final   15.08 input  -57.11 | X-H torsion

> <Gold.Protein.ActiveResidues>
 VAL166  LYS551  ARG553  GLY616  TRP617  ASP618  TYR619  PRO620  LYS621  CYS622 
 ASP623  PHE694  ASN695  SER759  ASP760  ASP761  ALA762  ILE779  LEU786  VAL792 
 PHE793  MET794  SER795  GLU796  ALA797  LYS798  CYS799  TRP800  GLU811  SER814 

> <Gold.Protein.RotatedAtoms>
  151.0596  133.5555  159.2635 H   0  0  0  0  0  0  0  0  0  0  0  0  # atno 6907 bound_to 6896
  151.2536  135.0629  159.9081 H   0  0  0  0  0  0  0  0  0  0  0  0  # atno 6908 bound_to 6896
  152.5395  134.0352  159.8097 H   0  0  0  0  0  0  0  0  0  0  0  0  # atno 6909 bound_to 6896
  145.7260  139.2666  143.1568 H   0  0  0  0  0  0  0  0  0  0  0  0  # atno 7974 bound_to 7965
  155.5076  140.3476  155.4382 H   0  0  0  0  0  0  0  0  0  0  0  0  # atno 8008 bound_to 7997
  156.0871  140.1401  156.9666 H   0  0  0  0  0  0  0  0  0  0  0  0  # atno 8009 bound_to 7997
  154.4613  140.0934  156.6877 H   0  0  0  0  0  0  0  0  0  0  0  0  # atno 8010 bound_to 7997
  139.5612  144.6882  151.4038 H   0  0  0  0  0  0  0  0  0  0  0  0  # atno 10167 bound_to 10162
  157.6851  131.0701  150.5117 H   0  0  0  0  0  0  0  0  0  0  0  0  # atno 10718 bound_to 10713
  152.9873  135.6119  154.3016 H   0  0  0  0  0  0  0  0  0  0  0  0  # atno 10763 bound_to 10752
  154.2737  135.2779  155.2729 H   0  0  0  0  0  0  0  0  0  0  0  0  # atno 10764 bound_to 10752
  154.5100  135.5843  153.6654 H   0  0  0  0  0  0  0  0  0  0  0  0  # atno 10765 bound_to 10752
  140.4623  134.1115  155.7718 H   0  0  0  0  0  0  0  0  0  0  0  0  # atno 11005 bound_to 11000
  146.0581  140.7999  142.9748 LP  0  0  0  0  0  0  0  0  0  0  0  0  # atno 17320 bound_to 7965
  144.6904  140.3155  143.7241 LP  0  0  0  0  0  0  0  0  0  0  0  0  # atno 17321 bound_to 7965
  140.6891  143.7903  150.7230 LP  0  0  0  0  0  0  0  0  0  0  0  0  # atno 17342 bound_to 10162
  140.1380  143.4467  152.2212 LP  0  0  0  0  0  0  0  0  0  0  0  0  # atno 17343 bound_to 10162
  156.5434  130.4213  149.6143 LP  0  0  0  0  0  0  0  0  0  0  0  0  # atno 17370 bound_to 10713
  156.2965  130.7153  151.2015 LP  0  0  0  0  0  0  0  0  0  0  0  0  # atno 17371 bound_to 10713
  141.1615  133.8783  157.1833 LP  0  0  0  0  0  0  0  0  0  0  0  0  # atno 17394 bound_to 11000
  139.9937  135.0055  157.0035 LP  0  0  0  0  0  0  0  0  0  0  0  0  # atno 17395 bound_to 11000

$$$$
