AV-unprocessed.smi:2845|AV-procd|sdf|10944|dock6
  -GOLD-   2272015393D 1   1.00000     0.00000
 Structure written by MMmdl.
 42 44  0  0  0  0  0  0  0  0  1 V2000
  152.8406  142.6100  161.9145 C   0  0  0  0  0  0  0  0  0  0  0  0
  152.3458  142.3316  160.5061 C   0  0  0  0  0  0  0  0  0  0  0  0
  152.7848  141.1638  159.8411 C   0  0  0  0  0  0  0  0  0  0  0  0
  152.3483  140.8688  158.5307 C   0  0  0  0  0  0  0  0  0  0  0  0
  152.6439  139.8006  157.6998 N   0  0  0  0  0  0  0  0  0  0  0  0
  151.9300  140.0962  156.6165 C   0  0  0  0  0  0  0  0  0  0  0  0
  151.2090  141.2332  156.6480 N   0  0  0  0  0  0  0  0  0  0  0  0
  150.3541  141.7729  155.6093 C   0  0  0  0  0  0  0  0  0  0  0  0
  148.9274  141.1868  155.6765 C   0  0  1  0  0  0  0  0  0  0  0  0
  147.9844  142.2300  155.5377 O   0  0  0  0  0  0  0  0  0  0  0  0
  148.6500  140.1093  154.6083 C   0  0  0  0  0  0  0  0  0  0  0  0
  149.5821  138.9966  154.6807 N   0  0  0  0  0  0  0  0  0  0  0  0
  150.3000  138.3994  153.7247 C   0  0  0  0  0  0  0  0  0  0  0  0
  151.0692  137.4112  154.1649 N   0  0  0  0  0  0  0  0  0  0  0  0
  150.7357  137.4555  155.4874 C   0  0  0  0  0  0  0  0  0  0  0  0
  151.5166  136.3518  156.7062 S   0  0  1  0  0  0  0  0  0  0  0  0
  151.1074  134.7760  155.8172 C   0  0  0  0  0  0  0  0  0  0  0  0
  153.0266  136.5595  156.5700 O   0  0  0  0  0  0  0  0  0  0  0  0
  149.8355  138.3648  155.8520 N   0  0  0  0  0  0  0  0  0  0  0  0
  151.4535  141.7815  157.9013 C   0  0  0  0  0  0  0  0  0  0  0  0
  151.0100  142.9464  158.5512 C   0  0  0  0  0  0  0  0  0  0  0  0
  151.4559  143.2266  159.8590 C   0  0  0  0  0  0  0  0  0  0  0  0
  150.9722  144.4894  160.5495 C   0  0  0  0  0  0  0  0  0  0  0  0
  153.5253  141.8336  162.2570 H   0  0  0  0  0  0  0  0  0  0  0  0
  152.0036  142.6497  162.6120 H   0  0  0  0  0  0  0  0  0  0  0  0
  153.3696  143.5625  161.9527 H   0  0  0  0  0  0  0  0  0  0  0  0
  153.4629  140.4826  160.3338 H   0  0  0  0  0  0  0  0  0  0  0  0
  151.9319  139.4509  155.7502 H   0  0  0  0  0  0  0  0  0  0  0  0
  150.3329  142.8609  155.6870 H   0  0  0  0  0  0  0  0  0  0  0  0
  150.8276  141.5424  154.6549 H   0  0  0  0  0  0  0  0  0  0  0  0
  148.7672  140.7431  156.6603 H   0  0  0  0  0  0  0  0  0  0  0  0
  148.3694  143.0273  155.8689 H   0  0  0  0  0  0  0  0  0  0  0  0
  147.6399  139.7132  154.7207 H   0  0  0  0  0  0  0  0  0  0  0  0
  148.7102  140.5447  153.6097 H   0  0  0  0  0  0  0  0  0  0  0  0
  150.2720  138.7044  152.6888 H   0  0  0  0  0  0  0  0  0  0  0  0
  150.1779  134.3581  156.2035 H   0  0  0  0  0  0  0  0  0  0  0  0
  151.9025  134.0454  155.9645 H   0  0  0  0  0  0  0  0  0  0  0  0
  150.9930  134.9457  154.7464 H   0  0  0  0  0  0  0  0  0  0  0  0
  150.3347  143.6207  158.0457 H   0  0  0  0  0  0  0  0  0  0  0  0
  150.2957  145.0572  159.9105 H   0  0  0  0  0  0  0  0  0  0  0  0
  151.8141  145.1348  160.8000 H   0  0  0  0  0  0  0  0  0  0  0  0
  150.4378  144.2431  161.4672 H   0  0  0  0  0  0  0  0  0  0  0  0
  1  2  1  0  0  0  0
  1 24  1  0  0  0  0
  1 25  1  0  0  0  0
  1 26  1  0  0  0  0
  2 22  1  0  0  0  0
  2  3  2  0  0  0  0
  3  4  1  0  0  0  0
  3 27  1  0  0  0  0
  4 20  2  0  0  0  0
  4  5  1  0  0  0  0
  5  6  2  0  0  0  0
  6  7  1  0  0  0  0
  6 28  1  0  0  0  0
  7  8  1  0  0  0  0
  7 20  1  0  0  0  0
  8  9  1  0  0  0  0
  8 29  1  0  0  0  0
  8 30  1  0  0  0  0
  9 10  1  0  0  0  0
  9 11  1  0  0  0  0
  9 31  1  0  0  0  0
 10 32  1  0  0  0  0
 11 12  1  0  0  0  0
 11 33  1  0  0  0  0
 11 34  1  0  0  0  0
 12 19  1  0  0  0  0
 12 13  1  0  0  0  0
 13 14  2  0  0  0  0
 13 35  1  0  0  0  0
 14 15  1  0  0  0  0
 15 16  1  0  0  0  0
 15 19  2  0  0  0  0
 16 17  1  0  0  0  0
 16 18  2  0  0  0  0
 17 36  1  0  0  0  0
 17 37  1  0  0  0  0
 17 38  1  0  0  0  0
 20 21  1  0  0  0  0
 21 22  2  0  0  0  0
 21 39  1  0  0  0  0
 22 23  1  0  0  0  0
 23 40  1  0  0  0  0
 23 41  1  0  0  0  0
 23 42  1  0  0  0  0
M  END
> <s_m_source_file>
AV-unprocessed.smi

> <i_m_source_file_index>
2845

> <i_lp_mmshare_version>
43012

> <i_f3d_flags>
0

> <s_epik_input>
W0NIM11jKFtjSF0xKWMoW0NIM10pW2NIXWMoYzEyKW4oW2NIXW4yKVtDSDJdW0NASF0oW09IXSlbQ0gyXW4zW2NIXW5jKG4zKVtTQF0oPU8pW0NIM10=

> <s_epik_cmdline>
J2VwaWtfcHl0aG9uJywgJy1waCcsICc3LjAnLCAnLXRuJywgJzgnLCAnLW1hJywgJzIwMCcsICctbWV0YWxfYmluZGluZycsICctaW1hZScsICc8aW5maWxlLm1hZT4nLCAnLW9tYWUnLCAnPG91dGZpbGUubWFlPic=

> <r_lp_tautomer_probability>
1

> <r_epik_Ionization_Penalty>
0.0968684

> <r_epik_Ionization_Penalty_Charging>
0

> <r_epik_Ionization_Penalty_Neutral>
0.0968684

> <r_epik_State_Penalty>
0.0870047

> <r_epik_Charging_Adjusted_Penalty>
0.0870047

> <i_epik_Tot_Q>
0

> <i_epik_Tot_abs_Q>
0

> <r_epik_Metal_State_Penalty>
0.0746849

> <b_epik_Metal_Only>
0

> <s_lp_Force_Field>
OPLS_2005

> <r_lp_Energy>
8.02323

> <b_lp_Chiralities_Consistent>
1

> <s_lp_Variant>
AV-unprocessed.smi:2845-2

> <Gold.Version>
5.8.1

> <Gold.Id.Protein>
6NUR|6NUR_protein|mol2

> <Gold.PLP.Fitness>
51.5418

> <Gold.PLP.PLP>
-41.9135

> <Gold.PLP.part.hbond>
-3.0000

> <Gold.PLP.part.metal>
0.0000

> <Gold.PLP.part.buried>
-5.5635

> <Gold.PLP.part.nonpolar>
-33.6550

> <Gold.PLP.part.repulsive>
0.2207

> <Gold.PLP.ligand.clash>
0.0000

> <Gold.PLP.ligand.torsion>
2.0946

> <Gold.PLP.Chemscore.Hbond>
3.0000

> <Gold.PLP.Chemscore.CHOScore>
1.2579

> <Gold.PLP.Chemscore.Metal>
0.0000

> <Gold.Chemscore.Hbonds>
donor molecule, donor type, donor heavy atom, donor atom, acceptor molecule, acceptor atom, score
      L1  H    10    32       P1  8028  1.00
      P1  H  7997  8010       L1     5  0.94
      P1  H 10752 10765       L1    18  0.85
      L1  C    13    35       P1  7948  0.04
      L1  C    13    35       P1  7957  1.00

> <Gold.PLP.Chemscore.Internal.Correction>
1.0438

> <Gold.Rescore>
     Score         DG    S(hbond)    S(metal)    S(lipo)     H(rot)  DE(clash)    DE(int)     intcor
     16.38     -18.27       2.51        0.00      97.05       2.71       0.04       1.85       ----

> <Gold.Chemscore.Fitness>
16.3822

> <Gold.Chemscore.DG>
-18.2730

> <Gold.Chemscore.ZeroCoef>
-5.4800

> <Gold.Chemscore.Hbond>
2.5081

> <Gold.Chemscore.Metal>
0.0000

> <Gold.Chemscore.Lipo>
97.0549

> <Gold.Chemscore.Internal_Hbond>
0.0000

> <Gold.Chemscore.DEClash>
0.0400

> <Gold.Chemscore.DEInternal>
1.8508

> <Gold.Chemscore.Rot>
2.7108

> <Gold.Chemscore.Internal.Correction>
   9.000000E+99

> <Gold.Chemscore.Hbonds>
donor molecule, donor type, donor heavy atom, donor atom, acceptor molecule, acceptor atom, score
      L1  H    10    32       P1  8028  0.90
      P1  H  7997  8010       L1     5  0.17
      P1  H 10752 10765       L1    18  0.16

> <Gold.Chemscore.Hbond.Weighted>
-8.3772

> <Gold.Chemscore.Metal.Weighted>
-0.0000

> <Gold.Chemscore.Lipo.Weighted>
-11.3554

> <Gold.Chemscore.Internal_Hbond.Weighted>
0.0000

> <Gold.Chemscore.DEClash.Weighted>
0.0400

> <Gold.Chemscore.DEInternal.Weighted>
1.8508

> <Gold.Chemscore.Rot.Weighted>
6.9396

> <Gold.Chemscore.Internal.Correction.Weighted>
   9.000000E+99

> <Gold.Protein.RotatedTorsions>
[ 6907 6896 6895 6894 ] final  -91.68 input  -60.11 | X-H torsion
[ 7974 7965 7964 7962 ] final -144.65 input  175.53 | X-H torsion
[ 8008 7997 7996 7995 ] final   37.44 input   59.86 | X-H torsion
[ 10167 10162 10161 10158 ] final  -92.87 input  -65.29 | X-H torsion
[ 10718 10713 10712 10709 ] final  -90.72 input   66.30 | X-H torsion
[ 10763 10752 10751 10750 ] final -140.48 input  -60.55 | X-H torsion
[ 11005 11000 10999 10996 ] final    0.07 input  -57.11 | X-H torsion

> <Gold.Protein.ActiveResidues>
 VAL166  LYS551  ARG553  GLY616  TRP617  ASP618  TYR619  PRO620  LYS621  CYS622 
 ASP623  PHE694  ASN695  SER759  ASP760  ASP761  ALA762  ILE779  LEU786  VAL792 
 PHE793  MET794  SER795  GLU796  ALA797  LYS798  CYS799  TRP800  GLU811  SER814 

> <Gold.Protein.RotatedAtoms>
  150.6896  134.2239  159.4407 H   0  0  0  0  0  0  0  0  0  0  0  0  # atno 6907 bound_to 6896
  152.0194  134.9829  160.0579 H   0  0  0  0  0  0  0  0  0  0  0  0  # atno 6908 bound_to 6896
  152.1412  133.4430  159.4804 H   0  0  0  0  0  0  0  0  0  0  0  0  # atno 6909 bound_to 6896
  144.8282  140.5683  143.5532 H   0  0  0  0  0  0  0  0  0  0  0  0  # atno 7974 bound_to 7965
  155.2039  140.3318  155.4339 H   0  0  0  0  0  0  0  0  0  0  0  0  # atno 8008 bound_to 7997
  156.2396  140.1889  156.7074 H   0  0  0  0  0  0  0  0  0  0  0  0  # atno 8009 bound_to 7997
  154.6123  140.0607  156.9495 H   0  0  0  0  0  0  0  0  0  0  0  0  # atno 8010 bound_to 7997
  140.3305  143.2998  151.9947 H   0  0  0  0  0  0  0  0  0  0  0  0  # atno 10167 bound_to 10162
  155.9989  130.4920  150.5365 H   0  0  0  0  0  0  0  0  0  0  0  0  # atno 10718 bound_to 10713
  154.8577  135.3552  154.5714 H   0  0  0  0  0  0  0  0  0  0  0  0  # atno 10763 bound_to 10752
  153.6326  135.7001  153.5274 H   0  0  0  0  0  0  0  0  0  0  0  0  # atno 10764 bound_to 10752
  153.3036  135.4199  155.1234 H   0  0  0  0  0  0  0  0  0  0  0  0  # atno 10765 bound_to 10752
  140.6306  133.9578  155.8272 H   0  0  0  0  0  0  0  0  0  0  0  0  # atno 11005 bound_to 11000
  145.4953  139.1486  143.3687 LP  0  0  0  0  0  0  0  0  0  0  0  0  # atno 17320 bound_to 7965
  146.2587  140.5091  142.8863 LP  0  0  0  0  0  0  0  0  0  0  0  0  # atno 17321 bound_to 7965
  139.4857  144.6239  151.7202 LP  0  0  0  0  0  0  0  0  0  0  0  0  # atno 17342 bound_to 10162
  140.5402  144.0592  150.6085 LP  0  0  0  0  0  0  0  0  0  0  0  0  # atno 17343 bound_to 10162
  157.3307  131.0699  151.1863 LP  0  0  0  0  0  0  0  0  0  0  0  0  # atno 17370 bound_to 10713
  157.2744  130.6720  149.6035 LP  0  0  0  0  0  0  0  0  0  0  0  0  # atno 17371 bound_to 10713
  141.0678  134.0251  157.3569 LP  0  0  0  0  0  0  0  0  0  0  0  0  # atno 17394 bound_to 11000
  139.9117  135.0191  156.7720 LP  0  0  0  0  0  0  0  0  0  0  0  0  # atno 17395 bound_to 11000

$$$$
