AV-unprocessed.smi:52|AV-procd|sdf|510|dock9
  -GOLD-   2262016383D 1   1.00000     0.00000
 Structure written by MMmdl.
 27 28  0  0  0  0  0  0  0  0  3 V2000
  151.7528  137.2966  154.8081 O   0  0  0  0  0  0  0  0  0  0  0  0
  152.1549  138.4334  155.1402 C   0  0  0  0  0  0  0  0  0  0  0  0
  153.3329  138.6379  155.5070 O   0  5  0  0  0  0  0  0  0  0  0  0
  151.2032  139.5733  155.1027 C   0  0  0  0  0  0  0  0  0  0  0  0
  151.3086  140.7556  155.7907 C   0  0  0  0  0  0  0  0  0  0  0  0
  150.2401  141.5532  155.4817 O   0  0  0  0  0  0  0  0  0  0  0  0
  149.5121  140.8105  154.6044 C   0  0  0  0  0  0  0  0  0  0  0  0
  148.2655  141.3905  154.0230 C   0  0  0  0  0  0  0  0  0  0  0  0
  147.7125  142.2264  155.1148 N   0  3  1  0  0  0  0  0  0  0  0  0
  146.4304  142.9144  154.8122 C   0  0  0  0  0  0  0  0  0  0  0  0
  145.5158  142.7051  156.0259 C   0  0  0  0  0  0  0  0  0  0  0  0
  146.4700  142.2943  157.1432 C   0  0  1  0  0  0  0  0  0  0  0  0
  145.8294  141.5163  158.1316 O   0  0  0  0  0  0  0  0  0  0  0  0
  147.5409  141.5070  156.3928 C   0  0  0  0  0  0  0  0  0  0  0  0
  150.0407  139.6178  154.3438 N   0  0  0  0  0  0  0  0  0  0  0  0
  146.9114  143.1808  157.6012 H   0  0  0  0  0  0  0  0  0  0  0  0
  152.0334  141.1546  156.4853 H   0  0  0  0  0  0  0  0  0  0  0  0
  148.4822  141.9749  153.1278 H   0  0  0  0  0  0  0  0  0  0  0  0
  147.5803  140.5834  153.7615 H   0  0  0  0  0  0  0  0  0  0  0  0
  146.6347  143.9740  154.6558 H   0  0  0  0  0  0  0  0  0  0  0  0
  145.9559  142.5338  153.9063 H   0  0  0  0  0  0  0  0  0  0  0  0
  144.9296  143.5906  156.2730 H   0  0  0  0  0  0  0  0  0  0  0  0
  144.8181  141.8936  155.8119 H   0  0  0  0  0  0  0  0  0  0  0  0
  146.4666  140.9377  158.5229 H   0  0  0  0  0  0  0  0  0  0  0  0
  147.1876  140.4936  156.1913 H   0  0  0  0  0  0  0  0  0  0  0  0
  148.4779  141.4345  156.9460 H   0  0  0  0  0  0  0  0  0  0  0  0
  148.3870  142.9566  155.2946 H   0  0  0  0  0  0  0  0  0  0  0  0
  1  2  2  0  0  0  0
  2  3  1  0  0  0  0
  2  4  1  0  0  0  0
  4 15  1  0  0  0  0
  4  5  2  0  0  0  0
  5  6  1  0  0  0  0
  5 17  1  0  0  0  0
  6  7  1  0  0  0  0
  7  8  1  0  0  0  0
  7 15  2  0  0  0  0
  8  9  1  0  0  0  0
  8 18  1  0  0  0  0
  8 19  1  0  0  0  0
  9 14  1  0  0  0  0
  9 10  1  0  0  0  0
  9 27  1  0  0  0  0
 10 11  1  0  0  0  0
 10 20  1  0  0  0  0
 10 21  1  0  0  0  0
 11 12  1  0  0  0  0
 11 22  1  0  0  0  0
 11 23  1  0  0  0  0
 12 16  1  0  0  0  0
 12 13  1  0  0  0  0
 12 14  1  0  0  0  0
 13 24  1  0  0  0  0
 14 25  1  0  0  0  0
 14 26  1  0  0  0  0
M  CHG  1   3  -1
M  CHG  1   9   1
M  END
> <s_m_source_file>
AV-unprocessed.smi

> <i_m_source_file_index>
52

> <i_lp_mmshare_version>
43012

> <i_f3d_flags>
0

> <s_epik_input>
Tz1DKFtPSF0pYzFbY0hdb2MobjEpW0NIMl1OMltDSDJdW0NIMl1bQ0BIXShbT0hdKVtDSDJdMg==

> <s_epik_cmdline>
J2VwaWtfcHl0aG9uJywgJy1waCcsICc3LjAnLCAnLXRuJywgJzgnLCAnLW1hJywgJzIwMCcsICctbWV0YWxfYmluZGluZycsICctaW1hZScsICc8aW5maWxlLm1hZT4nLCAnLW9tYWUnLCAnPG91dGZpbGUubWFlPic=

> <r_epik_Ionization_Penalty>
0.0376014

> <r_epik_Ionization_Penalty_Charging>
0.0376013

> <r_epik_Ionization_Penalty_Neutral>
1.78687e-08

> <r_epik_State_Penalty>
0.0314164

> <r_epik_Charging_Adjusted_Penalty>
0.0690177

> <i_epik_Tot_Q>
0

> <i_epik_Tot_abs_Q>
2

> <r_epik_Metal_State_Penalty>
0.0314164

> <b_epik_Metal_Only>
0

> <s_lp_Force_Field>
OPLS_2005

> <r_lp_Energy>
19.8896

> <b_lp_Chiralities_Consistent>
1

> <s_lp_Variant>
AV-unprocessed.smi:52-4

> <Gold.Version>
5.8.1

> <Gold.Id.Protein>
6NUR|6NUR_protein|mol2

> <Gold.PLP.Fitness>
42.4631

> <Gold.PLP.PLP>
-26.1873

> <Gold.PLP.part.hbond>
-3.8611

> <Gold.PLP.part.metal>
0.0000

> <Gold.PLP.part.buried>
-3.4719

> <Gold.PLP.part.nonpolar>
-19.6030

> <Gold.PLP.part.repulsive>
0.4426

> <Gold.PLP.ligand.clash>
0.0000

> <Gold.PLP.ligand.torsion>
0.5791

> <Gold.PLP.Chemscore.Hbond>
5.8080

> <Gold.PLP.Chemscore.CHOScore>
0.0000

> <Gold.PLP.Chemscore.Metal>
0.0000

> <Gold.Chemscore.Hbonds>
donor molecule, donor type, donor heavy atom, donor atom, acceptor molecule, acceptor atom, score
      L1  H     9    27       P1  8028  2.00
      P1  H  7997  8009       L1     3  1.89
      P1  H 10752 10764       L1     1  1.77

> <Gold.PLP.Chemscore.Internal.Correction>
0.0099

> <Gold.Rescore>
     Score         DG    S(hbond)    S(metal)    S(lipo)     H(rot)  DE(clash)    DE(int)     intcor
     11.63     -13.36       2.71        0.00      33.59       1.99       0.10       1.63       ----

> <Gold.Chemscore.Fitness>
11.6324

> <Gold.Chemscore.DG>
-13.3610

> <Gold.Chemscore.ZeroCoef>
-5.4800

> <Gold.Chemscore.Hbond>
2.7097

> <Gold.Chemscore.Metal>
0.0000

> <Gold.Chemscore.Lipo>
33.5867

> <Gold.Chemscore.Internal_Hbond>
0.0000

> <Gold.Chemscore.DEClash>
0.0966

> <Gold.Chemscore.DEInternal>
1.6320

> <Gold.Chemscore.Rot>
1.9919

> <Gold.Chemscore.Internal.Correction>
   9.000000E+99

> <Gold.Chemscore.Hbonds>
donor molecule, donor type, donor heavy atom, donor atom, acceptor molecule, acceptor atom, score
      L1  H     9    27       P1  8028  0.96
      P1  H  7997  8009       L1     3  0.91
      P1  H 10752 10764       L1     1  0.82

> <Gold.Chemscore.Hbond.Weighted>
-9.0505

> <Gold.Chemscore.Metal.Weighted>
-0.0000

> <Gold.Chemscore.Lipo.Weighted>
-3.9296

> <Gold.Chemscore.Internal_Hbond.Weighted>
0.0000

> <Gold.Chemscore.DEClash.Weighted>
0.0966

> <Gold.Chemscore.DEInternal.Weighted>
1.6320

> <Gold.Chemscore.Rot.Weighted>
5.0991

> <Gold.Chemscore.Internal.Correction.Weighted>
   9.000000E+99

> <Gold.Protein.RotatedTorsions>
[ 6907 6896 6895 6894 ] final   61.49 input  -60.11 | X-H torsion
[ 7974 7965 7964 7962 ] final  -84.10 input  175.53 | X-H torsion
[ 8008 7997 7996 7995 ] final -143.11 input   59.86 | X-H torsion
[ 10167 10162 10161 10158 ] final -161.43 input  -65.29 | X-H torsion
[ 10718 10713 10712 10709 ] final   15.22 input   66.30 | X-H torsion
[ 10763 10752 10751 10750 ] final  -72.81 input  -60.55 | X-H torsion
[ 11005 11000 10999 10996 ] final -112.36 input  -57.11 | X-H torsion

> <Gold.Protein.ActiveResidues>
 VAL166  LYS551  ARG553  GLY616  TRP617  ASP618  TYR619  PRO620  LYS621  CYS622 
 ASP623  PHE694  ASN695  SER759  ASP760  ASP761  ALA762  ILE779  LEU786  VAL792 
 PHE793  MET794  SER795  GLU796  ALA797  LYS798  CYS799  TRP800  GLU811  SER814 

> <Gold.Protein.RotatedAtoms>
  152.4093  134.6152  160.0036 H   0  0  0  0  0  0  0  0  0  0  0  0  # atno 6907 bound_to 6896
  151.6334  133.3325  159.3122 H   0  0  0  0  0  0  0  0  0  0  0  0  # atno 6908 bound_to 6896
  150.7985  134.7103  159.6645 H   0  0  0  0  0  0  0  0  0  0  0  0  # atno 6909 bound_to 6896
  145.5112  140.9540  143.1706 H   0  0  0  0  0  0  0  0  0  0  0  0  # atno 7974 bound_to 7965
  155.5053  140.0579  157.2932 H   0  0  0  0  0  0  0  0  0  0  0  0  # atno 8008 bound_to 7997
  154.4572  140.1978  156.0296 H   0  0  0  0  0  0  0  0  0  0  0  0  # atno 8009 bound_to 7997
  156.0821  140.3245  155.7711 H   0  0  0  0  0  0  0  0  0  0  0  0  # atno 8010 bound_to 7997
  139.6466  144.0161  152.2131 H   0  0  0  0  0  0  0  0  0  0  0  0  # atno 10167 bound_to 10162
  157.0503  130.6267  149.5766 H   0  0  0  0  0  0  0  0  0  0  0  0  # atno 10718 bound_to 10713
  154.4508  135.5918  153.6190 H   0  0  0  0  0  0  0  0  0  0  0  0  # atno 10763 bound_to 10752
  152.9813  135.6020  154.3607 H   0  0  0  0  0  0  0  0  0  0  0  0  # atno 10764 bound_to 10752
  154.3468  135.2841  155.2372 H   0  0  0  0  0  0  0  0  0  0  0  0  # atno 10765 bound_to 10752
  141.0679  133.9428  157.2542 H   0  0  0  0  0  0  0  0  0  0  0  0  # atno 11005 bound_to 11000
  144.7726  139.6700  143.7188 LP  0  0  0  0  0  0  0  0  0  0  0  0  # atno 17320 bound_to 7965
  146.2165  139.5559  142.9646 LP  0  0  0  0  0  0  0  0  0  0  0  0  # atno 17321 bound_to 7965
  139.9864  144.6392  150.7854 LP  0  0  0  0  0  0  0  0  0  0  0  0  # atno 17342 bound_to 10162
  140.7517  143.2978  151.3159 LP  0  0  0  0  0  0  0  0  0  0  0  0  # atno 17343 bound_to 10162
  156.0010  130.5088  150.7661 LP  0  0  0  0  0  0  0  0  0  0  0  0  # atno 17370 bound_to 10713
  157.5035  131.0920  151.0285 LP  0  0  0  0  0  0  0  0  0  0  0  0  # atno 17371 bound_to 10713
  139.9495  135.0178  156.8951 LP  0  0  0  0  0  0  0  0  0  0  0  0  # atno 17394 bound_to 11000
  140.5734  134.0421  155.7438 LP  0  0  0  0  0  0  0  0  0  0  0  0  # atno 17395 bound_to 11000

$$$$
