AV-unprocessed.smi:1464|AV-procd|sdf|5947|dock8
  -GOLD-   22720 6 33D 1   1.00000     0.00000
 Structure written by MMmdl.
 41 42  0  0  0  0  0  0  0  0  1 V2000
  152.6915  144.6945  157.9949 C   0  0  0  0  0  0  0  0  0  0  0  0
  151.5313  144.0529  158.7835 C   0  0  2  0  0  0  0  0  0  0  0  0
  151.7240  144.2089  160.3056 C   0  0  0  0  0  0  0  0  0  0  0  0
  152.8317  143.2922  160.8472 C   0  0  0  0  0  0  0  0  0  0  0  0
  152.5616  141.8252  160.4862 C   0  0  0  0  0  0  0  0  0  0  0  0
  152.3680  141.6293  158.9701 C   0  0  1  0  0  0  0  0  0  0  0  0
  152.0331  140.2274  158.7231 N   0  0  0  0  0  0  0  0  0  0  0  0
  152.9004  139.2042  158.6744 C   0  0  0  0  0  0  0  0  0  0  0  0
  154.1170  139.3373  158.8152 O   0  0  0  0  0  0  0  0  0  0  0  0
  152.2881  137.8239  158.3958 C   0  0  0  0  0  0  0  0  0  0  0  0
  151.7140  137.7000  157.0483 N   0  0  0  0  0  0  0  0  0  0  0  0
  151.5071  138.9118  156.4067 N   0  0  0  0  0  0  0  0  0  0  0  0
  151.0157  138.9337  155.2140 C   0  0  0  0  0  0  0  0  0  0  0  0
  150.8302  140.1551  154.6148 O   0  0  0  0  0  0  0  0  0  0  0  0
  150.6685  137.7109  154.5246 C   0  0  0  0  0  0  0  0  0  0  0  0
  150.8704  136.5353  155.1590 C   0  0  0  0  0  0  0  0  0  0  0  0
  151.4266  136.4741  156.5119 C   0  0  0  0  0  0  0  0  0  0  0  0
  151.6193  135.4183  157.1145 O   0  0  0  0  0  0  0  0  0  0  0  0
  151.2611  142.5680  158.4199 C   0  0  2  0  0  0  0  0  0  0  0  0
  150.9939  142.3744  156.9138 C   0  0  0  0  0  0  0  0  0  0  0  0
  150.7761  140.7767  155.3243 H   0  0  0  0  0  0  0  0  0  0  0  0
  153.6321  144.1643  158.1401 H   0  0  0  0  0  0  0  0  0  0  0  0
  152.8476  145.7276  158.3058 H   0  0  0  0  0  0  0  0  0  0  0  0
  152.4859  144.7146  156.9250 H   0  0  0  0  0  0  0  0  0  0  0  0
  150.6365  144.6195  158.5217 H   0  0  0  0  0  0  0  0  0  0  0  0
  151.9442  145.2474  160.5551 H   0  0  0  0  0  0  0  0  0  0  0  0
  150.7876  143.9705  160.8117 H   0  0  0  0  0  0  0  0  0  0  0  0
  153.7994  143.5976  160.4485 H   0  0  0  0  0  0  0  0  0  0  0  0
  152.9012  143.3983  161.9300 H   0  0  0  0  0  0  0  0  0  0  0  0
  153.3859  141.2046  160.8400 H   0  0  0  0  0  0  0  0  0  0  0  0
  151.6715  141.4854  161.0180 H   0  0  0  0  0  0  0  0  0  0  0  0
  153.3107  141.8762  158.4795 H   0  0  0  0  0  0  0  0  0  0  0  0
  151.0551  140.0174  158.5859 H   0  0  0  0  0  0  0  0  0  0  0  0
  153.0438  137.0510  158.5491 H   0  0  0  0  0  0  0  0  0  0  0  0
  151.5224  137.6376  159.1511 H   0  0  0  0  0  0  0  0  0  0  0  0
  150.2579  137.7470  153.5263 H   0  0  0  0  0  0  0  0  0  0  0  0
  150.6157  135.6143  154.6559 H   0  0  0  0  0  0  0  0  0  0  0  0
  150.3338  142.2947  158.9267 H   0  0  0  0  0  0  0  0  0  0  0  0
  151.9050  142.4919  156.3267 H   0  0  0  0  0  0  0  0  0  0  0  0
  150.2629  143.0954  156.5477 H   0  0  0  0  0  0  0  0  0  0  0  0
  150.5966  141.3813  156.7034 H   0  0  0  0  0  0  0  0  0  0  0  0
  1  2  1  0  0  0  0
  1 22  1  0  0  0  0
  1 23  1  0  0  0  0
  1 24  1  0  0  0  0
  2 19  1  0  0  0  0
  2  3  1  0  0  0  0
  2 25  1  0  0  0  0
  3  4  1  0  0  0  0
  3 26  1  0  0  0  0
  3 27  1  0  0  0  0
  4  5  1  0  0  0  0
  4 28  1  0  0  0  0
  4 29  1  0  0  0  0
  5  6  1  0  0  0  0
  5 30  1  0  0  0  0
  5 31  1  0  0  0  0
  6  7  1  0  0  0  0
  6 19  1  0  0  0  0
  6 32  1  0  0  0  0
  7  8  1  0  0  0  0
  7 33  1  0  0  0  0
  8  9  2  0  0  0  0
  8 10  1  0  0  0  0
 10 34  1  0  0  0  0
 10 35  1  0  0  0  0
 10 11  1  0  0  0  0
 11 12  1  0  0  0  0
 11 17  1  0  0  0  0
 12 13  2  0  0  0  0
 13 14  1  0  0  0  0
 13 15  1  0  0  0  0
 14 21  1  0  0  0  0
 15 36  1  0  0  0  0
 15 16  2  0  0  0  0
 16 37  1  0  0  0  0
 16 17  1  0  0  0  0
 17 18  2  0  0  0  0
 19 20  1  0  0  0  0
 19 38  1  0  0  0  0
 20 39  1  0  0  0  0
 20 40  1  0  0  0  0
 20 41  1  0  0  0  0
M  END
> <s_m_source_file>
AV-unprocessed.smi

> <i_m_source_file_index>
1464

> <i_lp_mmshare_version>
43012

> <i_f3d_flags>
0

> <s_epik_input>
W0NIM11bQ0BASF0xW0NIMl1bQ0gyXVtDSDJdW0NASF0oW0NASF0xW0NIM10pW05IXUMoPU8pW0NIMl1uMltuSF1jKD1PKVtjSF1bY0hdYzI9Tw==

> <s_epik_cmdline>
J2VwaWtfcHl0aG9uJywgJy1waCcsICc3LjAnLCAnLXRuJywgJzgnLCAnLW1hJywgJzIwMCcsICctbWV0YWxfYmluZGluZycsICctaW1hZScsICc8aW5maWxlLm1hZT4nLCAnLW9tYWUnLCAnPG91dGZpbGUubWFlPic=

> <r_lp_tautomer_probability>
0.9996

> <r_epik_Ionization_Penalty>
2.10335

> <r_epik_Ionization_Penalty_Charging>
3.98079e-08

> <r_epik_Ionization_Penalty_Neutral>
2.10335

> <r_epik_State_Penalty>
1.67957

> <r_epik_Charging_Adjusted_Penalty>
1.67957

> <i_epik_Tot_Q>
0

> <i_epik_Tot_abs_Q>
0

> <r_epik_Metal_State_Penalty>
1.67957

> <b_epik_Metal_Only>
0

> <s_lp_Force_Field>
OPLS_2005

> <r_lp_Energy>
25.8074

> <b_lp_Chiralities_Consistent>
1

> <s_lp_Variant>
AV-unprocessed.smi:1464-13

> <Gold.Version>
5.8.1

> <Gold.Id.Protein>
6NUR|6NUR_protein|mol2

> <Gold.PLP.Fitness>
45.0486

> <Gold.PLP.PLP>
-40.1599

> <Gold.PLP.part.hbond>
-2.7740

> <Gold.PLP.part.metal>
0.0000

> <Gold.PLP.part.buried>
-6.8276

> <Gold.PLP.part.nonpolar>
-31.5975

> <Gold.PLP.part.repulsive>
0.1226

> <Gold.PLP.ligand.clash>
0.0000

> <Gold.PLP.ligand.torsion>
0.5592

> <Gold.PLP.Chemscore.Hbond>
2.0000

> <Gold.PLP.Chemscore.CHOScore>
0.0000

> <Gold.PLP.Chemscore.Metal>
0.0000

> <Gold.Chemscore.Hbonds>
donor molecule, donor type, donor heavy atom, donor atom, acceptor molecule, acceptor atom, score
      P1  H  7989  7998       L1    14  1.00
      P1  H  7997  8009       L1     9  1.00

> <Gold.PLP.Chemscore.Internal.Correction>
0.0072

> <Gold.Rescore>
     Score         DG    S(hbond)    S(metal)    S(lipo)     H(rot)  DE(clash)    DE(int)     intcor
     16.38     -18.46       1.94        0.00     104.34       2.22       0.00       2.08       ----

> <Gold.Chemscore.Fitness>
16.3809

> <Gold.Chemscore.DG>
-18.4612

> <Gold.Chemscore.ZeroCoef>
-5.4800

> <Gold.Chemscore.Hbond>
1.9351

> <Gold.Chemscore.Metal>
0.0000

> <Gold.Chemscore.Lipo>
104.3361

> <Gold.Chemscore.Internal_Hbond>
0.0000

> <Gold.Chemscore.DEClash>
0.0015

> <Gold.Chemscore.DEInternal>
2.0788

> <Gold.Chemscore.Rot>
2.2224

> <Gold.Chemscore.Internal.Correction>
   9.000000E+99

> <Gold.Chemscore.Hbonds>
donor molecule, donor type, donor heavy atom, donor atom, acceptor molecule, acceptor atom, score
      P1  H  7989  7998       L1    14  0.48
      P1  H  7997  8009       L1     9  0.55

> <Gold.Chemscore.Hbond.Weighted>
-6.4632

> <Gold.Chemscore.Metal.Weighted>
-0.0000

> <Gold.Chemscore.Lipo.Weighted>
-12.2073

> <Gold.Chemscore.Internal_Hbond.Weighted>
0.0000

> <Gold.Chemscore.DEClash.Weighted>
0.0015

> <Gold.Chemscore.DEInternal.Weighted>
2.0788

> <Gold.Chemscore.Rot.Weighted>
5.6893

> <Gold.Chemscore.Internal.Correction.Weighted>
   9.000000E+99

> <Gold.Protein.RotatedTorsions>
[ 6907 6896 6895 6894 ] final -157.64 input  -60.11 | X-H torsion
[ 7974 7965 7964 7962 ] final -103.31 input  175.53 | X-H torsion
[ 8008 7997 7996 7995 ] final  142.99 input   59.86 | X-H torsion
[ 10167 10162 10161 10158 ] final  -84.66 input  -65.29 | X-H torsion
[ 10718 10713 10712 10709 ] final  173.49 input   66.30 | X-H torsion
[ 10763 10752 10751 10750 ] final  126.77 input  -60.55 | X-H torsion
[ 11005 11000 10999 10996 ] final  147.66 input  -57.11 | X-H torsion

> <Gold.Protein.ActiveResidues>
 VAL166  LYS551  ARG553  GLY616  TRP617  ASP618  TYR619  PRO620  LYS621  CYS622 
 ASP623  PHE694  ASN695  SER759  ASP760  ASP761  ALA762  ILE779  LEU786  VAL792 
 PHE793  MET794  SER795  GLU796  ALA797  LYS798  CYS799  TRP800  GLU811  SER814 

> <Gold.Protein.RotatedAtoms>
  151.3059  133.4101  159.2642 H   0  0  0  0  0  0  0  0  0  0  0  0  # atno 6907 bound_to 6896
  151.0155  134.9430  159.8041 H   0  0  0  0  0  0  0  0  0  0  0  0  # atno 6908 bound_to 6896
  152.5311  134.3023  159.9135 H   0  0  0  0  0  0  0  0  0  0  0  0  # atno 6909 bound_to 6896
  145.2576  140.9258  143.3059 H   0  0  0  0  0  0  0  0  0  0  0  0  # atno 7974 bound_to 7965
  156.2939  140.2274  156.4818 H   0  0  0  0  0  0  0  0  0  0  0  0  # atno 8008 bound_to 7997
  154.7846  140.0458  157.1175 H   0  0  0  0  0  0  0  0  0  0  0  0  # atno 8009 bound_to 7997
  154.9718  140.3067  155.4988 H   0  0  0  0  0  0  0  0  0  0  0  0  # atno 8010 bound_to 7997
  140.4111  143.2622  151.9016 H   0  0  0  0  0  0  0  0  0  0  0  0  # atno 10167 bound_to 10162
  156.9636  131.0068  151.2922 H   0  0  0  0  0  0  0  0  0  0  0  0  # atno 10718 bound_to 10713
  153.6987  135.3287  155.3219 H   0  0  0  0  0  0  0  0  0  0  0  0  # atno 10763 bound_to 10752
  154.8419  135.4449  154.1433 H   0  0  0  0  0  0  0  0  0  0  0  0  # atno 10764 bound_to 10752
  153.2495  135.6980  153.7773 H   0  0  0  0  0  0  0  0  0  0  0  0  # atno 10765 bound_to 10752
  140.0894  134.9050  157.1627 H   0  0  0  0  0  0  0  0  0  0  0  0  # atno 11005 bound_to 11000
  144.9447  139.4149  143.6431 LP  0  0  0  0  0  0  0  0  0  0  0  0  # atno 17320 bound_to 7965
  146.3285  139.8425  142.8888 LP  0  0  0  0  0  0  0  0  0  0  0  0  # atno 17321 bound_to 7965
  139.4782  144.5536  151.8348 LP  0  0  0  0  0  0  0  0  0  0  0  0  # atno 17342 bound_to 10162
  140.4637  144.1686  150.5909 LP  0  0  0  0  0  0  0  0  0  0  0  0  # atno 17343 bound_to 10162
  157.5641  130.8265  149.8304 LP  0  0  0  0  0  0  0  0  0  0  0  0  # atno 17370 bound_to 10713
  156.0312  130.3764  150.1683 LP  0  0  0  0  0  0  0  0  0  0  0  0  # atno 17371 bound_to 10713
  140.3373  134.2742  155.7218 LP  0  0  0  0  0  0  0  0  0  0  0  0  # atno 17394 bound_to 11000
  141.2073  133.7809  157.0127 LP  0  0  0  0  0  0  0  0  0  0  0  0  # atno 17395 bound_to 11000

$$$$
