AV-unprocessed.smi:1005|AV-procd|sdf|4370|dock10
  -GOLD-   22720 2283D 1   1.00000     0.00000
 Structure written by MMmdl.
 57 59  0  0  0  0  0  0  0  0  3 V2000
  152.5099  141.9860  159.6748 C   0  0  0  0  0  0  0  0  0  0  0  0
  151.7825  141.6463  158.3859 C   0  0  0  0  0  0  0  0  0  0  0  0
  151.6280  140.2897  158.0212 C   0  0  0  0  0  0  0  0  0  0  0  0
  150.9577  139.9309  156.8314 C   0  0  0  0  0  0  0  0  0  0  0  0
  150.6826  138.6857  156.2931 N   0  0  0  0  0  0  0  0  0  0  0  0
  150.0239  139.0102  155.1843 C   0  0  0  0  0  0  0  0  0  0  0  0
  149.8325  140.3214  154.9437 N   0  0  0  0  0  0  0  0  0  0  0  0
  149.1234  140.9098  153.8211 C   0  0  0  0  0  0  0  0  0  0  0  0
  147.6014  140.6574  153.8776 C   0  0  2  0  0  0  0  0  0  0  0  0
  147.2160  140.0795  152.6470 O   0  0  0  0  0  0  0  0  0  0  0  0
  146.7774  141.9433  154.1122 C   0  0  0  0  0  0  0  0  0  0  0  0
  145.3848  141.6927  154.5715 N   0  3  1  0  0  0  0  0  0  0  0  0
  145.2630  140.8279  155.7735 C   0  0  0  0  0  0  0  0  0  0  0  0
  145.6065  141.5970  157.0641 C   0  0  0  0  0  0  0  0  0  0  0  0
  144.8109  142.7744  157.1517 O   0  0  0  0  0  0  0  0  0  0  0  0
  145.0291  143.6660  156.0640 C   0  0  2  0  0  0  0  0  0  0  0  0
  144.2098  144.9434  156.3323 C   0  0  0  0  0  0  0  0  0  0  0  0
  144.7200  145.7464  157.4749 N   0  3  0  0  0  0  0  0  0  0  0  0
  144.4060  147.1844  157.3213 C   0  0  0  0  0  0  0  0  0  0  0  0
  144.2899  145.2376  158.7990 C   0  0  0  0  0  0  0  0  0  0  0  0
  144.6103  142.9440  154.7622 C   0  0  0  0  0  0  0  0  0  0  0  0
  150.4460  140.9754  156.0079 C   0  0  0  0  0  0  0  0  0  0  0  0
  150.5990  142.3295  156.3571 C   0  0  0  0  0  0  0  0  0  0  0  0
  151.2640  142.6700  157.5530 C   0  0  0  0  0  0  0  0  0  0  0  0
  151.4148  144.1342  157.9258 C   0  0  0  0  0  0  0  0  0  0  0  0
  152.8694  141.0881  160.1783 H   0  0  0  0  0  0  0  0  0  0  0  0
  151.8459  142.5111  160.3616 H   0  0  0  0  0  0  0  0  0  0  0  0
  153.3719  142.6219  159.4714 H   0  0  0  0  0  0  0  0  0  0  0  0
  152.0226  139.5099  158.6562 H   0  0  0  0  0  0  0  0  0  0  0  0
  149.6495  138.2510  154.5127 H   0  0  0  0  0  0  0  0  0  0  0  0
  149.3324  141.9807  153.8117 H   0  0  0  0  0  0  0  0  0  0  0  0
  149.5408  140.5049  152.8978 H   0  0  0  0  0  0  0  0  0  0  0  0
  147.4059  139.9339  154.6683 H   0  0  0  0  0  0  0  0  0  0  0  0
  147.9882  139.9420  152.1193 H   0  0  0  0  0  0  0  0  0  0  0  0
  147.2740  142.5854  154.8371 H   0  0  0  0  0  0  0  0  0  0  0  0
  146.7505  142.5042  153.1769 H   0  0  0  0  0  0  0  0  0  0  0  0
  144.2308  140.4804  155.8333 H   0  0  0  0  0  0  0  0  0  0  0  0
  145.8745  139.9315  155.6855 H   0  0  0  0  0  0  0  0  0  0  0  0
  145.4023  140.9726  157.9337 H   0  0  0  0  0  0  0  0  0  0  0  0
  146.6661  141.8522  157.1073 H   0  0  0  0  0  0  0  0  0  0  0  0
  146.0895  143.9162  156.0416 H   0  0  0  0  0  0  0  0  0  0  0  0
  144.2173  145.5537  155.4277 H   0  0  0  0  0  0  0  0  0  0  0  0
  143.1656  144.6864  156.5175 H   0  0  0  0  0  0  0  0  0  0  0  0
  143.3282  147.3523  157.3284 H   0  0  0  0  0  0  0  0  0  0  0  0
  144.8064  147.5721  156.3840 H   0  0  0  0  0  0  0  0  0  0  0  0
  144.8480  147.7656  158.1313 H   0  0  0  0  0  0  0  0  0  0  0  0
  143.2023  145.2197  158.8777 H   0  0  0  0  0  0  0  0  0  0  0  0
  144.6752  145.8725  159.5974 H   0  0  0  0  0  0  0  0  0  0  0  0
  144.6647  144.2321  158.9867 H   0  0  0  0  0  0  0  0  0  0  0  0
  144.7301  143.5952  153.8958 H   0  0  0  0  0  0  0  0  0  0  0  0
  143.5505  142.6901  154.8078 H   0  0  0  0  0  0  0  0  0  0  0  0
  150.2037  143.1002  155.7125 H   0  0  0  0  0  0  0  0  0  0  0  0
  150.9021  144.7813  157.2137 H   0  0  0  0  0  0  0  0  0  0  0  0
  152.4678  144.4164  157.9388 H   0  0  0  0  0  0  0  0  0  0  0  0
  150.9928  144.3251  158.9127 H   0  0  0  0  0  0  0  0  0  0  0  0
  145.7276  145.6814  157.4505 H   0  0  0  0  0  0  0  0  0  0  0  0
  144.9423  141.1956  153.8109 H   0  0  0  0  0  0  0  0  0  0  0  0
  1  2  1  0  0  0  0
  1 26  1  0  0  0  0
  1 27  1  0  0  0  0
  1 28  1  0  0  0  0
  2 24  1  0  0  0  0
  2  3  2  0  0  0  0
  3  4  1  0  0  0  0
  3 29  1  0  0  0  0
  4 22  2  0  0  0  0
  4  5  1  0  0  0  0
  5  6  2  0  0  0  0
  6  7  1  0  0  0  0
  6 30  1  0  0  0  0
  7  8  1  0  0  0  0
  7 22  1  0  0  0  0
  8  9  1  0  0  0  0
  8 31  1  0  0  0  0
  8 32  1  0  0  0  0
  9 10  1  0  0  0  0
  9 11  1  0  0  0  0
  9 33  1  0  0  0  0
 10 34  1  0  0  0  0
 11 12  1  0  0  0  0
 11 35  1  0  0  0  0
 11 36  1  0  0  0  0
 12 21  1  0  0  0  0
 12 13  1  0  0  0  0
 12 57  1  0  0  0  0
 13 14  1  0  0  0  0
 13 37  1  0  0  0  0
 13 38  1  0  0  0  0
 14 15  1  0  0  0  0
 14 39  1  0  0  0  0
 14 40  1  0  0  0  0
 15 16  1  0  0  0  0
 16 17  1  0  0  0  0
 16 21  1  0  0  0  0
 16 41  1  0  0  0  0
 17 18  1  0  0  0  0
 17 42  1  0  0  0  0
 17 43  1  0  0  0  0
 18 19  1  0  0  0  0
 18 20  1  0  0  0  0
 18 56  1  0  0  0  0
 19 44  1  0  0  0  0
 19 45  1  0  0  0  0
 19 46  1  0  0  0  0
 20 47  1  0  0  0  0
 20 48  1  0  0  0  0
 20 49  1  0  0  0  0
 21 50  1  0  0  0  0
 21 51  1  0  0  0  0
 22 23  1  0  0  0  0
 23 24  2  0  0  0  0
 23 52  1  0  0  0  0
 24 25  1  0  0  0  0
 25 53  1  0  0  0  0
 25 54  1  0  0  0  0
 25 55  1  0  0  0  0
M  CHG  1  12   1
M  CHG  1  18   1
M  END
> <s_m_source_file>
AV-unprocessed.smi

> <i_m_source_file_index>
1005

> <i_lp_mmshare_version>
43012

> <i_f3d_flags>
0

> <s_epik_input>
W0NIM11jKFtjSF0xKWMoW0NIM10pW2NIXWMoYzEyKW4oW2NIXW4yKVtDSDJdW0NASF0oW09IXSlbQ0gyXU4zW0NIMl1bQ0gyXU9bQ0BIXShbQ0gyXTMpW0NIMl1OKFtDSDNdKVtDSDNd

> <s_epik_cmdline>
J2VwaWtfcHl0aG9uJywgJy1waCcsICc3LjAnLCAnLXRuJywgJzgnLCAnLW1hJywgJzIwMCcsICctbWV0YWxfYmluZGluZycsICctaW1hZScsICc8aW5maWxlLm1hZT4nLCAnLW9tYWUnLCAnPG91dGZpbGUubWFlPic=

> <r_epik_Ionization_Penalty>
1.0968

> <r_epik_Ionization_Penalty_Charging>
1.0096

> <r_epik_Ionization_Penalty_Neutral>
0.0871956

> <r_epik_State_Penalty>
1.31185

> <r_epik_Charging_Adjusted_Penalty>
2.32145

> <i_epik_Tot_Q>
2

> <i_epik_Tot_abs_Q>
2

> <r_epik_Metal_State_Penalty>
1.22442

> <b_epik_Metal_Only>
0

> <s_lp_Force_Field>
OPLS_2005

> <r_lp_Energy>
36.3086

> <b_lp_Chiralities_Consistent>
1

> <s_lp_Variant>
AV-unprocessed.smi:1005-9

> <Gold.Version>
5.8.1

> <Gold.Id.Protein>
6NUR|6NUR_protein|mol2

> <Gold.PLP.Fitness>
54.2652

> <Gold.PLP.PLP>
-41.7218

> <Gold.PLP.part.hbond>
-3.0000

> <Gold.PLP.part.metal>
0.0000

> <Gold.PLP.part.buried>
-0.4065

> <Gold.PLP.part.nonpolar>
-37.7000

> <Gold.PLP.part.repulsive>
0.0725

> <Gold.PLP.ligand.clash>
0.0000

> <Gold.PLP.ligand.torsion>
1.2789

> <Gold.PLP.Chemscore.Hbond>
5.0000

> <Gold.PLP.Chemscore.CHOScore>
0.0000

> <Gold.PLP.Chemscore.Metal>
0.0000

> <Gold.Chemscore.Hbonds>
donor molecule, donor type, donor heavy atom, donor atom, acceptor molecule, acceptor atom, score
      L1  H    10    34       P1  7957  1.00
      L1  H    12    57       P1 10175  2.00
      L1  H    18    56       P1  8029  1.59

> <Gold.PLP.Chemscore.Internal.Correction>
0.1012

> <Gold.Rescore>
     Score         DG    S(hbond)    S(metal)    S(lipo)     H(rot)  DE(clash)    DE(int)     intcor
     15.90     -19.15       2.11        0.00     110.93       2.48       0.96       2.29       ----

> <Gold.Chemscore.Fitness>
15.8995

> <Gold.Chemscore.DG>
-19.1545

> <Gold.Chemscore.ZeroCoef>
-5.4800

> <Gold.Chemscore.Hbond>
2.1102

> <Gold.Chemscore.Metal>
0.0000

> <Gold.Chemscore.Lipo>
110.9300

> <Gold.Chemscore.Internal_Hbond>
0.0000

> <Gold.Chemscore.DEClash>
0.9622

> <Gold.Chemscore.DEInternal>
2.2927

> <Gold.Chemscore.Rot>
2.4814

> <Gold.Chemscore.Internal.Correction>
   9.000000E+99

> <Gold.Chemscore.Hbonds>
donor molecule, donor type, donor heavy atom, donor atom, acceptor molecule, acceptor atom, score
      L1  H    10    34       P1  7957  1.00
      L1  H    12    57       P1 10175  0.55
      L1  H    18    56       P1  8029  0.27

> <Gold.Chemscore.Hbond.Weighted>
-7.0480

> <Gold.Chemscore.Metal.Weighted>
-0.0000

> <Gold.Chemscore.Lipo.Weighted>
-12.9788

> <Gold.Chemscore.Internal_Hbond.Weighted>
0.0000

> <Gold.Chemscore.DEClash.Weighted>
0.9622

> <Gold.Chemscore.DEInternal.Weighted>
2.2927

> <Gold.Chemscore.Rot.Weighted>
6.3524

> <Gold.Chemscore.Internal.Correction.Weighted>
   9.000000E+99

> <Gold.Protein.RotatedTorsions>
[ 6907 6896 6895 6894 ] final   32.33 input  -60.11 | X-H torsion
[ 7974 7965 7964 7962 ] final  112.92 input  175.53 | X-H torsion
[ 8008 7997 7996 7995 ] final -117.71 input   59.86 | X-H torsion
[ 10167 10162 10161 10158 ] final  174.83 input  -65.29 | X-H torsion
[ 10718 10713 10712 10709 ] final  119.22 input   66.30 | X-H torsion
[ 10763 10752 10751 10750 ] final  125.21 input  -60.55 | X-H torsion
[ 11005 11000 10999 10996 ] final  -99.26 input  -57.11 | X-H torsion

> <Gold.Protein.ActiveResidues>
 VAL166  LYS551  ARG553  GLY616  TRP617  ASP618  TYR619  PRO620  LYS621  CYS622 
 ASP623  PHE694  ASN695  SER759  ASP760  ASP761  ALA762  ILE779  LEU786  VAL792 
 PHE793  MET794  SER795  GLU796  ALA797  LYS798  CYS799  TRP800  GLU811  SER814 

> <Gold.Protein.RotatedAtoms>
  152.0730  134.9521  160.0574 H   0  0  0  0  0  0  0  0  0  0  0  0  # atno 6907 bound_to 6896
  152.0839  133.4162  159.4522 H   0  0  0  0  0  0  0  0  0  0  0  0  # atno 6908 bound_to 6896
  150.6836  134.2869  159.4694 H   0  0  0  0  0  0  0  0  0  0  0  0  # atno 6909 bound_to 6896
  145.2234  139.2852  143.4206 H   0  0  0  0  0  0  0  0  0  0  0  0  # atno 7974 bound_to 7965
  155.0880  140.0395  157.2660 H   0  0  0  0  0  0  0  0  0  0  0  0  # atno 8008 bound_to 7997
  154.6854  140.2642  155.6841 H   0  0  0  0  0  0  0  0  0  0  0  0  # atno 8009 bound_to 7997
  156.2710  140.2770  156.1414 H   0  0  0  0  0  0  0  0  0  0  0  0  # atno 8010 bound_to 7997
  139.5155  144.3102  152.0299 H   0  0  0  0  0  0  0  0  0  0  0  0  # atno 10167 bound_to 10162
  157.5976  131.1056  150.7866 H   0  0  0  0  0  0  0  0  0  0  0  0  # atno 10718 bound_to 10713
  153.6736  135.3326  155.3160 H   0  0  0  0  0  0  0  0  0  0  0  0  # atno 10763 bound_to 10752
  154.8484  135.4392  154.1679 H   0  0  0  0  0  0  0  0  0  0  0  0  # atno 10764 bound_to 10752
  153.2677  135.6997  153.7589 H   0  0  0  0  0  0  0  0  0  0  0  0  # atno 10765 bound_to 10752
  141.1315  133.8308  157.0948 H   0  0  0  0  0  0  0  0  0  0  0  0  # atno 11005 bound_to 11000
  146.3370  140.2547  142.8600 LP  0  0  0  0  0  0  0  0  0  0  0  0  # atno 17320 bound_to 7965
  144.9744  140.8400  143.5435 LP  0  0  0  0  0  0  0  0  0  0  0  0  # atno 17321 bound_to 7965
  140.2546  144.4132  150.6208 LP  0  0  0  0  0  0  0  0  0  0  0  0  # atno 17342 bound_to 10162
  140.6200  143.2175  151.6713 LP  0  0  0  0  0  0  0  0  0  0  0  0  # atno 17343 bound_to 10162
  156.8273  130.5004  149.5336 LP  0  0  0  0  0  0  0  0  0  0  0  0  # atno 17370 bound_to 10713
  156.1042  130.5992  150.9944 LP  0  0  0  0  0  0  0  0  0  0  0  0  # atno 17371 bound_to 10713
  140.0370  134.9873  157.0889 LP  0  0  0  0  0  0  0  0  0  0  0  0  # atno 17394 bound_to 11000
  140.4195  134.1895  155.7164 LP  0  0  0  0  0  0  0  0  0  0  0  0  # atno 17395 bound_to 11000

$$$$
