AV-unprocessed.smi:3290|AV-procd|sdf|12614|dock8
  -GOLD-   2272018543D 1   1.00000     0.00000
 Structure written by MMmdl.
 43 44  0  0  0  0  0  0  0  0  2 V2000
  151.0075  145.4945  160.1759 C   0  0  0  0  0  0  0  0  0  0  0  0
  152.0578  144.3727  160.0865 C   0  0  1  0  0  0  0  0  0  0  0  0
  152.1219  143.6214  161.4334 C   0  0  0  0  0  0  0  0  0  0  0  0
  153.1865  142.5166  161.4295 C   0  0  0  0  0  0  0  0  0  0  0  0
  152.9449  141.5334  160.2792 C   0  0  0  0  0  0  0  0  0  0  0  0
  152.8937  142.2695  158.9336 C   0  0  0  0  0  0  0  0  0  0  0  0
  151.8176  143.3782  158.9119 C   0  0  2  0  0  0  0  0  0  0  0  0
  151.8045  144.0511  157.5203 C   0  0  0  0  0  0  0  0  0  0  0  0
  151.1190  143.2239  156.5069 N   0  3  0  0  0  0  0  0  0  0  0  0
  150.6013  141.9407  157.0227 C   0  0  0  0  0  0  0  0  0  0  0  0
  149.9104  141.1244  155.9164 C   0  0  2  0  0  0  0  0  0  0  0  0
  148.6324  140.7256  156.3732 O   0  0  0  0  0  0  0  0  0  0  0  0
  150.7583  139.9313  155.5046 C   0  0  0  0  0  0  0  0  0  0  0  0
  152.0122  139.6847  156.1048 C   0  0  0  0  0  0  0  0  0  0  0  0
  152.7557  138.5663  155.6779 C   0  0  0  0  0  0  0  0  0  0  0  0
  152.3304  137.7160  154.7192 N   0  0  0  0  0  0  0  0  0  0  0  0
  151.1319  137.9577  154.1468 C   0  0  0  0  0  0  0  0  0  0  0  0
  150.3107  139.0474  154.5004 C   0  0  0  0  0  0  0  0  0  0  0  0
  149.9963  145.0895  160.2258 H   0  0  0  0  0  0  0  0  0  0  0  0
  151.0636  146.1703  159.3233 H   0  0  0  0  0  0  0  0  0  0  0  0
  151.1624  146.1040  161.0668 H   0  0  0  0  0  0  0  0  0  0  0  0
  153.0273  144.8495  159.9329 H   0  0  0  0  0  0  0  0  0  0  0  0
  152.3374  144.3206  162.2423 H   0  0  0  0  0  0  0  0  0  0  0  0
  151.1478  143.1844  161.6580 H   0  0  0  0  0  0  0  0  0  0  0  0
  154.1781  142.9606  161.3324 H   0  0  0  0  0  0  0  0  0  0  0  0
  153.1760  141.9858  162.3820 H   0  0  0  0  0  0  0  0  0  0  0  0
  153.7330  140.7799  160.2622 H   0  0  0  0  0  0  0  0  0  0  0  0
  152.0082  140.9987  160.4423 H   0  0  0  0  0  0  0  0  0  0  0  0
  153.8725  142.7015  158.7196 H   0  0  0  0  0  0  0  0  0  0  0  0
  152.6995  141.5438  158.1428 H   0  0  0  0  0  0  0  0  0  0  0  0
  150.8535  142.8890  159.0634 H   0  0  0  0  0  0  0  0  0  0  0  0
  151.3436  145.0382  157.5770 H   0  0  0  0  0  0  0  0  0  0  0  0
  152.8267  144.2031  157.1709 H   0  0  0  0  0  0  0  0  0  0  0  0
  150.3417  143.7506  156.1338 H   0  0  0  0  0  0  0  0  0  0  0  0
  151.4361  141.3697  157.4322 H   0  0  0  0  0  0  0  0  0  0  0  0
  149.9095  142.1300  157.8452 H   0  0  0  0  0  0  0  0  0  0  0  0
  149.7595  141.7590  155.0417 H   0  0  0  0  0  0  0  0  0  0  0  0
  147.9950  140.9476  155.7106 H   0  0  0  0  0  0  0  0  0  0  0  0
  152.4005  140.3353  156.8748 H   0  0  0  0  0  0  0  0  0  0  0  0
  153.7180  138.3500  156.1177 H   0  0  0  0  0  0  0  0  0  0  0  0
  150.8175  137.2625  153.3825 H   0  0  0  0  0  0  0  0  0  0  0  0
  149.3603  139.1948  154.0088 H   0  0  0  0  0  0  0  0  0  0  0  0
  151.7673  143.0320  155.7569 H   0  0  0  0  0  0  0  0  0  0  0  0
  1  2  1  0  0  0  0
  1 19  1  0  0  0  0
  1 20  1  0  0  0  0
  1 21  1  0  0  0  0
  2  7  1  0  0  0  0
  2  3  1  0  0  0  0
  2 22  1  0  0  0  0
  3  4  1  0  0  0  0
  3 23  1  0  0  0  0
  3 24  1  0  0  0  0
  4  5  1  0  0  0  0
  4 25  1  0  0  0  0
  4 26  1  0  0  0  0
  5  6  1  0  0  0  0
  5 27  1  0  0  0  0
  5 28  1  0  0  0  0
  6  7  1  0  0  0  0
  6 29  1  0  0  0  0
  6 30  1  0  0  0  0
  7  8  1  0  0  0  0
  7 31  1  0  0  0  0
  8  9  1  0  0  0  0
  8 32  1  0  0  0  0
  8 33  1  0  0  0  0
  9 10  1  0  0  0  0
  9 34  1  0  0  0  0
  9 43  1  0  0  0  0
 10 11  1  0  0  0  0
 10 35  1  0  0  0  0
 10 36  1  0  0  0  0
 11 12  1  0  0  0  0
 11 13  1  0  0  0  0
 11 37  1  0  0  0  0
 12 38  1  0  0  0  0
 13 18  1  0  0  0  0
 13 14  2  0  0  0  0
 14 15  1  0  0  0  0
 14 39  1  0  0  0  0
 15 16  2  0  0  0  0
 15 40  1  0  0  0  0
 16 17  1  0  0  0  0
 17 18  2  0  0  0  0
 17 41  1  0  0  0  0
 18 42  1  0  0  0  0
M  CHG  1   9   1
M  END
> <s_m_source_file>
AV-unprocessed.smi

> <i_m_source_file_index>
3290

> <i_lp_mmshare_version>
43012

> <i_f3d_flags>
0

> <s_epik_input>
W0NIM11bQ0BASF0xW0NIMl1bQ0gyXVtDSDJdW0NIMl1bQ0BIXTFbQ0gyXVtOSF1bQ0gyXVtDQEhdKFtPSF0pYzJbY0hdW2NIXW5bY0hdW2NIXTI=

> <s_epik_cmdline>
J2VwaWtfcHl0aG9uJywgJy1waCcsICc3LjAnLCAnLXRuJywgJzgnLCAnLW1hJywgJzIwMCcsICctbWV0YWxfYmluZGluZycsICctaW1hZScsICc8aW5maWxlLm1hZT4nLCAnLW9tYWUnLCAnPG91dGZpbGUubWFlPic=

> <r_lp_tautomer_probability>
1

> <r_epik_Ionization_Penalty>
0.00420552

> <r_epik_Ionization_Penalty_Charging>
0.00207255

> <r_epik_Ionization_Penalty_Neutral>
0.00213297

> <r_epik_State_Penalty>
-0

> <r_epik_Charging_Adjusted_Penalty>
0.00207255

> <i_epik_Tot_Q>
1

> <i_epik_Tot_abs_Q>
1

> <r_epik_Metal_State_Penalty>
-0

> <b_epik_Metal_Only>
0

> <s_lp_Force_Field>
OPLS_2005

> <r_lp_Energy>
17.7323

> <b_lp_Chiralities_Consistent>
1

> <s_lp_Variant>
AV-unprocessed.smi:3290-4

> <Gold.Version>
5.8.1

> <Gold.Id.Protein>
6NUR|6NUR_protein|mol2

> <Gold.PLP.Fitness>
53.4374

> <Gold.PLP.PLP>
-48.2219

> <Gold.PLP.part.hbond>
-2.0000

> <Gold.PLP.part.metal>
0.0000

> <Gold.PLP.part.buried>
-4.8207

> <Gold.PLP.part.nonpolar>
-43.0918

> <Gold.PLP.part.repulsive>
0.1536

> <Gold.PLP.ligand.clash>
2.9606

> <Gold.PLP.ligand.torsion>
1.2365

> <Gold.PLP.Chemscore.Hbond>
2.4477

> <Gold.PLP.Chemscore.CHOScore>
1.0798

> <Gold.PLP.Chemscore.Metal>
0.0000

> <Gold.Chemscore.Hbonds>
donor molecule, donor type, donor heavy atom, donor atom, acceptor molecule, acceptor atom, score
      L1  H     9    34       P1  8028  2.00
      P1  H 10752 10765       L1    16  0.44
      L1  C    17    41       P1  7948  0.25
      L1  C    17    41       P1  7949  0.84

> <Gold.PLP.Chemscore.Internal.Correction>
0.0667

> <Gold.Rescore>
     Score         DG    S(hbond)    S(metal)    S(lipo)     H(rot)  DE(clash)    DE(int)     intcor
     20.67     -22.03       1.71        0.00     137.57       2.05       0.00       1.35       ----

> <Gold.Chemscore.Fitness>
20.6734

> <Gold.Chemscore.DG>
-22.0256

> <Gold.Chemscore.ZeroCoef>
-5.4800

> <Gold.Chemscore.Hbond>
1.7057

> <Gold.Chemscore.Metal>
0.0000

> <Gold.Chemscore.Lipo>
137.5734

> <Gold.Chemscore.Internal_Hbond>
0.0000

> <Gold.Chemscore.DEClash>
0.0015

> <Gold.Chemscore.DEInternal>
1.3507

> <Gold.Chemscore.Rot>
2.0498

> <Gold.Chemscore.Internal.Correction>
   9.000000E+99

> <Gold.Chemscore.Hbonds>
donor molecule, donor type, donor heavy atom, donor atom, acceptor molecule, acceptor atom, score
      L1  H     9    34       P1  8028  1.00
      P1  H 10752 10765       L1    16  0.35

> <Gold.Chemscore.Hbond.Weighted>
-5.6970

> <Gold.Chemscore.Metal.Weighted>
-0.0000

> <Gold.Chemscore.Lipo.Weighted>
-16.0961

> <Gold.Chemscore.Internal_Hbond.Weighted>
0.0000

> <Gold.Chemscore.DEClash.Weighted>
0.0015

> <Gold.Chemscore.DEInternal.Weighted>
1.3507

> <Gold.Chemscore.Rot.Weighted>
5.2475

> <Gold.Chemscore.Internal.Correction.Weighted>
   9.000000E+99

> <Gold.Protein.RotatedTorsions>
[ 6907 6896 6895 6894 ] final   57.58 input  -60.11 | X-H torsion
[ 7974 7965 7964 7962 ] final  175.49 input  175.53 | X-H torsion
[ 8008 7997 7996 7995 ] final  136.54 input   59.86 | X-H torsion
[ 10167 10162 10161 10158 ] final -143.06 input  -65.29 | X-H torsion
[ 10718 10713 10712 10709 ] final -151.15 input   66.30 | X-H torsion
[ 10763 10752 10751 10750 ] final  166.20 input  -60.55 | X-H torsion
[ 11005 11000 10999 10996 ] final  -12.62 input  -57.11 | X-H torsion

> <Gold.Protein.ActiveResidues>
 VAL166  LYS551  ARG553  GLY616  TRP617  ASP618  TYR619  PRO620  LYS621  CYS622 
 ASP623  PHE694  ASN695  SER759  ASP760  ASP761  ALA762  ILE779  LEU786  VAL792 
 PHE793  MET794  SER795  GLU796  ALA797  LYS798  CYS799  TRP800  GLU811  SER814 

> <Gold.Protein.RotatedAtoms>
  152.3744  134.6685  160.0164 H   0  0  0  0  0  0  0  0  0  0  0  0  # atno 6907 bound_to 6896
  151.6968  133.3305  159.3264 H   0  0  0  0  0  0  0  0  0  0  0  0  # atno 6908 bound_to 6896
  150.7698  134.6586  159.6371 H   0  0  0  0  0  0  0  0  0  0  0  0  # atno 6909 bound_to 6896
  144.7201  139.9955  143.6440 H   0  0  0  0  0  0  0  0  0  0  0  0  # atno 7974 bound_to 7965
  156.3004  140.2442  156.3762 H   0  0  0  0  0  0  0  0  0  0  0  0  # atno 8008 bound_to 7997
  154.8743  140.0415  157.1763 H   0  0  0  0  0  0  0  0  0  0  0  0  # atno 8009 bound_to 7997
  154.8762  140.2942  155.5456 H   0  0  0  0  0  0  0  0  0  0  0  0  # atno 8010 bound_to 7997
  139.8029  143.7808  152.2659 H   0  0  0  0  0  0  0  0  0  0  0  0  # atno 10167 bound_to 10162
  156.4554  130.8188  151.2419 H   0  0  0  0  0  0  0  0  0  0  0  0  # atno 10718 bound_to 10713
  154.3354  135.2754  155.2450 H   0  0  0  0  0  0  0  0  0  0  0  0  # atno 10763 bound_to 10752
  154.4744  135.5874  153.6348 H   0  0  0  0  0  0  0  0  0  0  0  0  # atno 10764 bound_to 10752
  152.9862  135.6096  154.3550 H   0  0  0  0  0  0  0  0  0  0  0  0  # atno 10765 bound_to 10752
  140.7677  133.8464  155.9179 H   0  0  0  0  0  0  0  0  0  0  0  0  # atno 11005 bound_to 11000
  146.0377  139.3393  143.0716 LP  0  0  0  0  0  0  0  0  0  0  0  0  # atno 17320 bound_to 7965
  145.8374  140.9599  143.0817 LP  0  0  0  0  0  0  0  0  0  0  0  0  # atno 17321 bound_to 7965
  139.7934  144.7402  150.9924 LP  0  0  0  0  0  0  0  0  0  0  0  0  # atno 17342 bound_to 10162
  140.7820  143.4419  151.0539 LP  0  0  0  0  0  0  0  0  0  0  0  0  # atno 17343 bound_to 10162
  157.7501  131.0124  150.3384 LP  0  0  0  0  0  0  0  0  0  0  0  0  # atno 17370 bound_to 10713
  156.3772  130.3874  149.7129 LP  0  0  0  0  0  0  0  0  0  0  0  0  # atno 17371 bound_to 10713
  140.9604  134.1663  157.4659 LP  0  0  0  0  0  0  0  0  0  0  0  0  # atno 17394 bound_to 11000
  139.8760  134.9942  156.5684 LP  0  0  0  0  0  0  0  0  0  0  0  0  # atno 17395 bound_to 11000

$$$$
