AV-unprocessed.smi:1067|AV-procd|sdf|4673|dock1
  -GOLD-   22720 3183D 1   1.00000     0.00000
 Structure written by MMmdl.
 51 53  0  0  0  0  0  0  0  0  2 V2000
  147.4310  135.9639  153.9529 N   0  0  0  0  0  0  0  0  0  0  0  0
  146.0971  135.9928  153.8712 C   0  0  0  0  0  0  0  0  0  0  0  0
  145.3997  135.6458  154.8236 O   0  0  0  0  0  0  0  0  0  0  0  0
  145.4453  136.4949  152.5507 C   0  0  0  0  0  0  0  0  0  0  0  0
  145.9249  137.9453  152.2638 C   0  0  0  0  0  0  0  0  0  0  0  0
  147.2608  138.2363  152.7891 N   0  0  0  0  0  0  0  0  0  0  0  0
  147.5686  139.2243  153.6416 C   0  0  0  0  0  0  0  0  0  0  0  0
  146.7415  140.0108  154.1022 O   0  0  0  0  0  0  0  0  0  0  0  0
  148.8879  139.2505  153.8976 N   0  0  0  0  0  0  0  0  0  0  0  0
  149.5986  140.1024  154.7860 C   0  0  0  0  0  0  0  0  0  0  0  0
  150.8269  139.6400  155.3037 C   0  0  0  0  0  0  0  0  0  0  0  0
  151.5545  140.4424  156.2064 C   0  0  0  0  0  0  0  0  0  0  0  0
  151.0409  141.7019  156.5957 C   0  0  0  0  0  0  0  0  0  0  0  0
  151.7109  142.5567  157.4915 N   0  0  0  0  0  0  0  0  0  0  0  0
  151.2768  143.9293  157.6996 C   0  0  0  0  0  0  0  0  0  0  0  0
  152.1336  144.4341  158.8595 C   0  0  0  0  0  0  0  0  0  0  0  0
  152.3507  143.1768  159.7017 C   0  0  0  0  0  0  0  0  0  0  0  0
  152.3826  142.0380  158.6753 C   0  0  0  0  0  0  0  0  0  0  0  0
  149.8556  142.1035  156.0778 N   0  3  0  0  0  0  0  0  0  0  0  0
  149.1276  141.3681  155.2101 C   0  0  0  0  0  0  0  0  0  0  0  0
  145.8075  135.5958  151.3364 C   0  0  0  0  0  0  0  0  0  0  0  0
  145.1627  134.1983  151.4191 C   0  0  0  0  0  0  0  0  0  0  0  0
  143.7494  134.3248  151.5156 O   0  0  0  0  0  0  0  0  0  0  0  0
  143.3335  135.0282  152.6798 C   0  0  0  0  0  0  0  0  0  0  0  0
  143.8952  136.4634  152.6549 C   0  0  0  0  0  0  0  0  0  0  0  0
  147.8735  135.6442  154.8025 H   0  0  0  0  0  0  0  0  0  0  0  0
  147.9918  136.2636  153.1688 H   0  0  0  0  0  0  0  0  0  0  0  0
  145.8713  138.1444  151.1920 H   0  0  0  0  0  0  0  0  0  0  0  0
  145.2402  138.6584  152.7241 H   0  0  0  0  0  0  0  0  0  0  0  0
  148.0107  137.6469  152.4581 H   0  0  0  0  0  0  0  0  0  0  0  0
  149.4545  138.6021  153.3707 H   0  0  0  0  0  0  0  0  0  0  0  0
  151.2167  138.6764  155.0090 H   0  0  0  0  0  0  0  0  0  0  0  0
  152.4994  140.0827  156.5860 H   0  0  0  0  0  0  0  0  0  0  0  0
  151.4126  144.5369  156.8044 H   0  0  0  0  0  0  0  0  0  0  0  0
  150.2200  143.9409  157.9699 H   0  0  0  0  0  0  0  0  0  0  0  0
  153.0916  144.7954  158.4834 H   0  0  0  0  0  0  0  0  0  0  0  0
  151.6615  145.2446  159.4155 H   0  0  0  0  0  0  0  0  0  0  0  0
  153.2543  143.2230  160.3101 H   0  0  0  0  0  0  0  0  0  0  0  0
  151.5024  143.0397  160.3737 H   0  0  0  0  0  0  0  0  0  0  0  0
  151.8969  141.1455  159.0707 H   0  0  0  0  0  0  0  0  0  0  0  0
  153.4098  141.7829  158.4132 H   0  0  0  0  0  0  0  0  0  0  0  0
  148.1954  141.8200  154.9060 H   0  0  0  0  0  0  0  0  0  0  0  0
  145.4588  136.0732  150.4195 H   0  0  0  0  0  0  0  0  0  0  0  0
  146.8873  135.5027  151.2153 H   0  0  0  0  0  0  0  0  0  0  0  0
  145.3990  133.6278  150.5208 H   0  0  0  0  0  0  0  0  0  0  0  0
  145.5475  133.6253  152.2636 H   0  0  0  0  0  0  0  0  0  0  0  0
  142.2440  135.0570  152.6966 H   0  0  0  0  0  0  0  0  0  0  0  0
  143.6458  134.4902  153.5761 H   0  0  0  0  0  0  0  0  0  0  0  0
  143.5432  137.0068  153.5327 H   0  0  0  0  0  0  0  0  0  0  0  0
  143.4650  136.9850  151.7988 H   0  0  0  0  0  0  0  0  0  0  0  0
  149.4875  143.0113  156.3622 H   0  0  0  0  0  0  0  0  0  0  0  0
  1  2  1  0  0  0  0
  1 26  1  0  0  0  0
  1 27  1  0  0  0  0
  2  3  2  0  0  0  0
  2  4  1  0  0  0  0
  4 25  1  0  0  0  0
  4  5  1  0  0  0  0
  4 21  1  0  0  0  0
  5  6  1  0  0  0  0
  5 28  1  0  0  0  0
  5 29  1  0  0  0  0
  6  7  1  0  0  0  0
  6 30  1  0  0  0  0
  7  8  2  0  0  0  0
  7  9  1  0  0  0  0
  9 10  1  0  0  0  0
  9 31  1  0  0  0  0
 10 20  1  0  0  0  0
 10 11  2  0  0  0  0
 11 12  1  0  0  0  0
 11 32  1  0  0  0  0
 12 13  2  0  0  0  0
 12 33  1  0  0  0  0
 13 14  1  0  0  0  0
 13 19  1  0  0  0  0
 14 18  1  0  0  0  0
 14 15  1  0  0  0  0
 15 16  1  0  0  0  0
 15 34  1  0  0  0  0
 15 35  1  0  0  0  0
 16 17  1  0  0  0  0
 16 36  1  0  0  0  0
 16 37  1  0  0  0  0
 17 18  1  0  0  0  0
 17 38  1  0  0  0  0
 17 39  1  0  0  0  0
 18 40  1  0  0  0  0
 18 41  1  0  0  0  0
 19 20  2  0  0  0  0
 19 51  1  0  0  0  0
 20 42  1  0  0  0  0
 21 22  1  0  0  0  0
 21 43  1  0  0  0  0
 21 44  1  0  0  0  0
 22 23  1  0  0  0  0
 22 45  1  0  0  0  0
 22 46  1  0  0  0  0
 23 24  1  0  0  0  0
 24 25  1  0  0  0  0
 24 47  1  0  0  0  0
 24 48  1  0  0  0  0
 25 49  1  0  0  0  0
 25 50  1  0  0  0  0
M  CHG  1  19   1
M  END
> <s_m_source_file>
AV-unprocessed.smi

> <i_m_source_file_index>
1067

> <i_lp_mmshare_version>
43012

> <i_f3d_flags>
0

> <s_epik_input>
W0NIMl0xW0NIMl1PW0NIMl1bQ0gyXUMxKEMoPU8pW05IMl0pW0NIMl1bTkhdQyg9TylbTkhdYzJbY0hdW2NIXWMobltjSF0yKU4zW0NIMl1bQ0gyXVtDSDJdW0NIMl0z

> <s_epik_cmdline>
J2VwaWtfcHl0aG9uJywgJy1waCcsICc3LjAnLCAnLXRuJywgJzgnLCAnLW1hJywgJzIwMCcsICctbWV0YWxfYmluZGluZycsICctaW1hZScsICc8aW5maWxlLm1hZT4nLCAnLW9tYWUnLCAnPG91dGZpbGUubWFlPic=

> <r_lp_tautomer_probability>
0.999994

> <r_epik_Ionization_Penalty>
1.13762

> <r_epik_Ionization_Penalty_Charging>
1.1376

> <r_epik_Ionization_Penalty_Neutral>
1.9017e-05

> <r_epik_State_Penalty>
1.19785

> <r_epik_Charging_Adjusted_Penalty>
2.33545

> <i_epik_Tot_Q>
1

> <i_epik_Tot_abs_Q>
1

> <r_epik_Metal_State_Penalty>
1.2801

> <b_epik_Metal_Only>
0

> <s_lp_Force_Field>
OPLS_2005

> <r_lp_Energy>
40.299

> <b_lp_Chiralities_Consistent>
1

> <s_lp_Variant>
AV-unprocessed.smi:1067-2

> <Gold.Version>
5.8.1

> <Gold.Id.Protein>
6NUR|6NUR_protein|mol2

> <Gold.PLP.Fitness>
57.5266

> <Gold.PLP.PLP>
-47.4440

> <Gold.PLP.part.hbond>
-4.5697

> <Gold.PLP.part.metal>
0.0000

> <Gold.PLP.part.buried>
-3.1320

> <Gold.PLP.part.nonpolar>
-40.9723

> <Gold.PLP.part.repulsive>
0.6457

> <Gold.PLP.ligand.clash>
0.0280

> <Gold.PLP.ligand.torsion>
1.0694

> <Gold.PLP.Chemscore.Hbond>
4.0000

> <Gold.PLP.Chemscore.CHOScore>
0.0000

> <Gold.PLP.Chemscore.Metal>
0.0000

> <Gold.Chemscore.Hbonds>
donor molecule, donor type, donor heavy atom, donor atom, acceptor molecule, acceptor atom, score
      L1  H     1    27       P1  7948  1.00
      L1  H     6    30       P1  7948  1.00
      L1  H    19    51       P1  8028  1.70

> <Gold.PLP.Chemscore.Internal.Correction>
0.2494

> <Gold.Rescore>
     Score         DG    S(hbond)    S(metal)    S(lipo)     H(rot)  DE(clash)    DE(int)     intcor
     18.28     -21.68       2.50        0.00     107.00       1.83       0.39       3.01       ----

> <Gold.Chemscore.Fitness>
18.2760

> <Gold.Chemscore.DG>
-21.6768

> <Gold.Chemscore.ZeroCoef>
-5.4800

> <Gold.Chemscore.Hbond>
2.5025

> <Gold.Chemscore.Metal>
0.0000

> <Gold.Chemscore.Lipo>
107.0003

> <Gold.Chemscore.Internal_Hbond>
0.0000

> <Gold.Chemscore.DEClash>
0.3877

> <Gold.Chemscore.DEInternal>
3.0130

> <Gold.Chemscore.Rot>
1.8283

> <Gold.Chemscore.Internal.Correction>
   9.000000E+99

> <Gold.Chemscore.Hbonds>
donor molecule, donor type, donor heavy atom, donor atom, acceptor molecule, acceptor atom, score
      L1  H     1    27       P1  7948  0.99
      L1  H     6    30       P1  7948  1.00
      L1  H    19    51       P1  8028  0.84

> <Gold.Chemscore.Hbond.Weighted>
-8.3583

> <Gold.Chemscore.Metal.Weighted>
-0.0000

> <Gold.Chemscore.Lipo.Weighted>
-12.5190

> <Gold.Chemscore.Internal_Hbond.Weighted>
0.0000

> <Gold.Chemscore.DEClash.Weighted>
0.3877

> <Gold.Chemscore.DEInternal.Weighted>
3.0130

> <Gold.Chemscore.Rot.Weighted>
4.6805

> <Gold.Chemscore.Internal.Correction.Weighted>
   9.000000E+99

> <Gold.Protein.RotatedTorsions>
[ 6907 6896 6895 6894 ] final -160.36 input  -60.11 | X-H torsion
[ 7974 7965 7964 7962 ] final  -18.94 input  175.53 | X-H torsion
[ 8008 7997 7996 7995 ] final   93.51 input   59.86 | X-H torsion
[ 10167 10162 10161 10158 ] final -116.49 input  -65.29 | X-H torsion
[ 10718 10713 10712 10709 ] final   98.92 input   66.30 | X-H torsion
[ 10763 10752 10751 10750 ] final  -52.01 input  -60.55 | X-H torsion
[ 11005 11000 10999 10996 ] final   -3.72 input  -57.11 | X-H torsion

> <Gold.Protein.ActiveResidues>
 VAL166  LYS551  ARG553  GLY616  TRP617  ASP618  TYR619  PRO620  LYS621  CYS622 
 ASP623  PHE694  ASN695  SER759  ASP760  ASP761  ALA762  ILE779  LEU786  VAL792 
 PHE793  MET794  SER795  GLU796  ALA797  LYS798  CYS799  TRP800  GLU811  SER814 

> <Gold.Protein.RotatedAtoms>
  151.3479  133.3937  159.2677 H   0  0  0  0  0  0  0  0  0  0  0  0  # atno 6907 bound_to 6896
  150.9825  134.9178  159.7863 H   0  0  0  0  0  0  0  0  0  0  0  0  # atno 6908 bound_to 6896
  152.5221  134.3443  159.9280 H   0  0  0  0  0  0  0  0  0  0  0  0  # atno 6909 bound_to 6896
  146.1867  140.3992  142.8474 H   0  0  0  0  0  0  0  0  0  0  0  0  # atno 7974 bound_to 7965
  156.0476  140.3312  155.7314 H   0  0  0  0  0  0  0  0  0  0  0  0  # atno 8008 bound_to 7997
  155.5650  140.0622  157.2837 H   0  0  0  0  0  0  0  0  0  0  0  0  # atno 8009 bound_to 7997
  154.4421  140.1870  156.0810 H   0  0  0  0  0  0  0  0  0  0  0  0  # atno 8010 bound_to 7997
  140.0787  143.4808  152.1938 H   0  0  0  0  0  0  0  0  0  0  0  0  # atno 10167 bound_to 10162
  157.6886  131.0654  150.4869 H   0  0  0  0  0  0  0  0  0  0  0  0  # atno 10718 bound_to 10713
  154.1357  135.6513  153.4931 H   0  0  0  0  0  0  0  0  0  0  0  0  # atno 10763 bound_to 10752
  153.0181  135.5303  154.6955 H   0  0  0  0  0  0  0  0  0  0  0  0  # atno 10764 bound_to 10752
  154.6203  135.2964  155.0304 H   0  0  0  0  0  0  0  0  0  0  0  0  # atno 10765 bound_to 10752
  140.6725  133.9224  155.8503 H   0  0  0  0  0  0  0  0  0  0  0  0  # atno 11005 bound_to 11000
  144.8410  140.6856  143.6229 LP  0  0  0  0  0  0  0  0  0  0  0  0  # atno 17320 bound_to 7965
  145.3918  139.1615  143.4225 LP  0  0  0  0  0  0  0  0  0  0  0  0  # atno 17321 bound_to 7965
  139.5793  144.7502  151.3683 LP  0  0  0  0  0  0  0  0  0  0  0  0  # atno 17342 bound_to 10162
  140.7089  143.7442  150.7531 LP  0  0  0  0  0  0  0  0  0  0  0  0  # atno 17343 bound_to 10162
  156.5198  130.4159  149.6257 LP  0  0  0  0  0  0  0  0  0  0  0  0  # atno 17370 bound_to 10713
  156.3165  130.7257  151.2160 LP  0  0  0  0  0  0  0  0  0  0  0  0  # atno 17371 bound_to 10713
  141.0381  134.0660  157.3935 LP  0  0  0  0  0  0  0  0  0  0  0  0  # atno 17394 bound_to 11000
  139.8977  135.0151  156.7114 LP  0  0  0  0  0  0  0  0  0  0  0  0  # atno 17395 bound_to 11000

$$$$
