AV-unprocessed.smi:2923|AV-procd|sdf|11216|dock6
  -GOLD-   2272016103D 1   1.00000     0.00000
 Structure written by MMmdl.
 46 48  0  0  0  0  0  0  0  0  1 V2000
  145.8537  131.9021  150.3704 C   0  0  0  0  0  0  0  0  0  0  0  0
  144.6301  132.6401  150.6580 N   0  0  0  0  0  0  0  0  0  0  0  0
  143.3324  132.0021  150.4612 C   0  0  0  0  0  0  0  0  0  0  0  0
  144.6952  133.9830  151.0955 C   0  0  0  0  0  0  0  0  0  0  0  0
  143.6298  134.5794  151.8145 C   0  0  0  0  0  0  0  0  0  0  0  0
  143.7426  135.9191  152.2329 C   0  0  0  0  0  0  0  0  0  0  0  0
  144.9168  136.6405  151.9173 C   0  0  0  0  0  0  0  0  0  0  0  0
  145.1631  137.9861  152.3033 N   0  0  0  0  0  0  0  0  0  0  0  0
  146.3306  138.5670  152.6284 C   0  0  0  0  0  0  0  0  0  0  0  0
  147.4139  137.9902  152.7200 O   0  0  0  0  0  0  0  0  0  0  0  0
  146.1711  139.8761  152.8618 N   0  0  0  0  0  0  0  0  0  0  0  0
  147.2544  140.7877  153.2100 C   0  0  2  0  0  0  0  0  0  0  0  0
  148.2081  140.1944  154.2471 C   0  0  1  0  0  0  0  0  0  0  0  0
  149.6341  139.7728  154.2353 C   0  0  0  0  0  0  0  0  0  0  0  0
  150.0690  140.4590  155.5580 C   0  0  0  0  0  0  0  0  0  0  0  0
  148.9725  141.3273  155.9346 O   0  0  0  0  0  0  0  0  0  0  0  0
  148.3491  141.6331  154.7043 C   0  0  2  0  0  0  0  0  0  0  0  0
  146.8674  141.8297  154.3268 C   0  0  0  0  0  0  0  0  0  0  0  0
  146.5040  143.2260  153.8207 C   0  0  0  0  0  0  0  0  0  0  0  0
  145.8034  141.4616  155.3811 C   0  0  0  0  0  0  0  0  0  0  0  0
  145.9261  135.9613  151.2078 C   0  0  0  0  0  0  0  0  0  0  0  0
  145.8219  134.6779  150.8049 N   0  0  0  0  0  0  0  0  0  0  0  0
  146.4248  132.3984  149.5854 H   0  0  0  0  0  0  0  0  0  0  0  0
  145.6367  130.8886  150.0325 H   0  0  0  0  0  0  0  0  0  0  0  0
  146.4759  131.8286  151.2628 H   0  0  0  0  0  0  0  0  0  0  0  0
  142.7515  132.5394  149.7109 H   0  0  0  0  0  0  0  0  0  0  0  0
  142.7676  131.9885  151.3940 H   0  0  0  0  0  0  0  0  0  0  0  0
  143.4416  130.9717  150.1230 H   0  0  0  0  0  0  0  0  0  0  0  0
  142.7299  134.0363  152.0595 H   0  0  0  0  0  0  0  0  0  0  0  0
  142.9340  136.3549  152.7981 H   0  0  0  0  0  0  0  0  0  0  0  0
  144.3448  138.5746  152.3597 H   0  0  0  0  0  0  0  0  0  0  0  0
  145.2469  140.2725  152.7741 H   0  0  0  0  0  0  0  0  0  0  0  0
  147.7723  141.2205  152.3490 H   0  0  0  0  0  0  0  0  0  0  0  0
  147.6575  139.5715  154.9558 H   0  0  0  0  0  0  0  0  0  0  0  0
  149.7571  138.6901  154.2650 H   0  0  0  0  0  0  0  0  0  0  0  0
  150.1705  140.1700  153.3724 H   0  0  0  0  0  0  0  0  0  0  0  0
  150.2493  139.7347  156.3526 H   0  0  0  0  0  0  0  0  0  0  0  0
  150.9820  141.0380  155.4135 H   0  0  0  0  0  0  0  0  0  0  0  0
  149.0141  142.2350  154.0744 H   0  0  0  0  0  0  0  0  0  0  0  0
  146.5407  143.9639  154.6225 H   0  0  0  0  0  0  0  0  0  0  0  0
  145.5009  143.2502  153.3940 H   0  0  0  0  0  0  0  0  0  0  0  0
  147.1901  143.5612  153.0422 H   0  0  0  0  0  0  0  0  0  0  0  0
  145.8193  142.1639  156.2150 H   0  0  0  0  0  0  0  0  0  0  0  0
  145.9336  140.4696  155.8089 H   0  0  0  0  0  0  0  0  0  0  0  0
  144.7992  141.4886  154.9566 H   0  0  0  0  0  0  0  0  0  0  0  0
  146.8487  136.4615  150.9524 H   0  0  0  0  0  0  0  0  0  0  0  0
  1  2  1  0  0  0  0
  1 23  1  0  0  0  0
  1 24  1  0  0  0  0
  1 25  1  0  0  0  0
  2  3  1  0  0  0  0
  2  4  1  0  0  0  0
  3 26  1  0  0  0  0
  3 27  1  0  0  0  0
  3 28  1  0  0  0  0
  4 22  1  0  0  0  0
  4  5  2  0  0  0  0
  5  6  1  0  0  0  0
  5 29  1  0  0  0  0
  6  7  2  0  0  0  0
  6 30  1  0  0  0  0
  7  8  1  0  0  0  0
  7 21  1  0  0  0  0
  8  9  1  0  0  0  0
  8 31  1  0  0  0  0
  9 10  2  0  0  0  0
  9 11  1  0  0  0  0
 11 12  1  0  0  0  0
 11 32  1  0  0  0  0
 12 18  1  0  0  0  0
 12 13  1  0  0  0  0
 12 33  1  0  0  0  0
 13 17  1  0  0  0  0
 13 14  1  0  0  0  0
 13 34  1  0  0  0  0
 14 15  1  0  0  0  0
 14 35  1  0  0  0  0
 14 36  1  0  0  0  0
 15 16  1  0  0  0  0
 15 37  1  0  0  0  0
 15 38  1  0  0  0  0
 16 17  1  0  0  0  0
 17 18  1  0  0  0  0
 17 39  1  0  0  0  0
 18 19  1  0  0  0  0
 18 20  1  0  0  0  0
 19 40  1  0  0  0  0
 19 41  1  0  0  0  0
 19 42  1  0  0  0  0
 20 43  1  0  0  0  0
 20 44  1  0  0  0  0
 20 45  1  0  0  0  0
 21 22  2  0  0  0  0
 21 46  1  0  0  0  0
M  END
> <s_m_source_file>
AV-unprocessed.smi

> <i_m_source_file_index>
2923

> <i_lp_mmshare_version>
43012

> <i_f3d_flags>
0

> <s_epik_input>
W0NIM11OKFtDSDNdKWMxW2NIXVtjSF1jKFtjSF1uMSlbTkhdQyg9TylbTkhdW0NASF0yQyhbQ0gzXSkoW0NIM10pW0NAQEhdKFtDQEhdMjMpT1tDSDJdW0NIMl0z

> <s_epik_cmdline>
J2VwaWtfcHl0aG9uJywgJy1waCcsICc3LjAnLCAnLXRuJywgJzgnLCAnLW1hJywgJzIwMCcsICctbWV0YWxfYmluZGluZycsICctaW1hZScsICc8aW5maWxlLm1hZT4nLCAnLW9tYWUnLCAnPG91dGZpbGUubWFlPic=

> <r_lp_tautomer_probability>
1

> <r_epik_Ionization_Penalty>
0.628785

> <r_epik_Ionization_Penalty_Charging>
0

> <r_epik_Ionization_Penalty_Neutral>
0.628785

> <r_epik_State_Penalty>
0.644286

> <r_epik_Charging_Adjusted_Penalty>
0.644286

> <i_epik_Tot_Q>
0

> <i_epik_Tot_abs_Q>
0

> <r_epik_Metal_State_Penalty>
0.308404

> <b_epik_Metal_Only>
0

> <s_lp_Force_Field>
OPLS_2005

> <r_lp_Energy>
62.6556

> <b_lp_Chiralities_Consistent>
1

> <s_lp_Variant>
AV-unprocessed.smi:2923-15

> <Gold.Version>
5.8.1

> <Gold.Id.Protein>
6NUR|6NUR_protein|mol2

> <Gold.PLP.Fitness>
44.6059

> <Gold.PLP.PLP>
-36.9362

> <Gold.PLP.part.hbond>
-3.0000

> <Gold.PLP.part.metal>
0.0000

> <Gold.PLP.part.buried>
-0.3570

> <Gold.PLP.part.nonpolar>
-37.7186

> <Gold.PLP.part.repulsive>
4.6849

> <Gold.PLP.ligand.clash>
0.0000

> <Gold.PLP.ligand.torsion>
0.6913

> <Gold.PLP.Chemscore.Hbond>
1.9280

> <Gold.PLP.Chemscore.CHOScore>
1.0000

> <Gold.PLP.Chemscore.Metal>
0.0000

> <Gold.Chemscore.Hbonds>
donor molecule, donor type, donor heavy atom, donor atom, acceptor molecule, acceptor atom, score
      L1  H     8    31       P1 10175  0.93
      L1  H    11    32       P1 10175  1.00
      L1  C    21    46       P1  7948  1.00

> <Gold.PLP.Chemscore.Internal.Correction>
0.2682

> <Gold.Rescore>
     Score         DG    S(hbond)    S(metal)    S(lipo)     H(rot)  DE(clash)    DE(int)     intcor
     14.12     -19.76       1.87        0.00      90.45       1.00       2.26       3.37       ----

> <Gold.Chemscore.Fitness>
14.1185

> <Gold.Chemscore.DG>
-19.7565

> <Gold.Chemscore.ZeroCoef>
-5.4800

> <Gold.Chemscore.Hbond>
1.8722

> <Gold.Chemscore.Metal>
0.0000

> <Gold.Chemscore.Lipo>
90.4549

> <Gold.Chemscore.Internal_Hbond>
0.0000

> <Gold.Chemscore.DEClash>
2.2637

> <Gold.Chemscore.DEInternal>
3.3742

> <Gold.Chemscore.Rot>
1.0000

> <Gold.Chemscore.Internal.Correction>
   9.000000E+99

> <Gold.Chemscore.Hbonds>
donor molecule, donor type, donor heavy atom, donor atom, acceptor molecule, acceptor atom, score
      L1  H     8    31       P1 10175  0.87
      L1  H    11    32       P1 10175  0.93

> <Gold.Chemscore.Hbond.Weighted>
-6.2533

> <Gold.Chemscore.Metal.Weighted>
-0.0000

> <Gold.Chemscore.Lipo.Weighted>
-10.5832

> <Gold.Chemscore.Internal_Hbond.Weighted>
0.0000

> <Gold.Chemscore.DEClash.Weighted>
2.2637

> <Gold.Chemscore.DEInternal.Weighted>
3.3742

> <Gold.Chemscore.Rot.Weighted>
2.5600

> <Gold.Chemscore.Internal.Correction.Weighted>
   9.000000E+99

> <Gold.Protein.RotatedTorsions>
[ 6907 6896 6895 6894 ] final   81.24 input  -60.11 | X-H torsion
[ 7974 7965 7964 7962 ] final  -80.67 input  175.53 | X-H torsion
[ 8008 7997 7996 7995 ] final -119.38 input   59.86 | X-H torsion
[ 10167 10162 10161 10158 ] final  177.60 input  -65.29 | X-H torsion
[ 10718 10713 10712 10709 ] final   59.70 input   66.30 | X-H torsion
[ 10763 10752 10751 10750 ] final   81.38 input  -60.55 | X-H torsion
[ 11005 11000 10999 10996 ] final   57.88 input  -57.11 | X-H torsion

> <Gold.Protein.ActiveResidues>
 VAL166  LYS551  ARG553  GLY616  TRP617  ASP618  TYR619  PRO620  LYS621  CYS622 
 ASP623  PHE694  ASN695  SER759  ASP760  ASP761  ALA762  ILE779  LEU786  VAL792 
 PHE793  MET794  SER795  GLU796  ALA797  LYS798  CYS799  TRP800  GLU811  SER814 

> <Gold.Protein.RotatedAtoms>
  152.5262  134.3234  159.9156 H   0  0  0  0  0  0  0  0  0  0  0  0  # atno 6907 bound_to 6896
  151.3183  133.4044  159.2660 H   0  0  0  0  0  0  0  0  0  0  0  0  # atno 6908 bound_to 6896
  150.9980  134.9316  159.7995 H   0  0  0  0  0  0  0  0  0  0  0  0  # atno 6909 bound_to 6896
  145.5569  140.9488  143.1469 H   0  0  0  0  0  0  0  0  0  0  0  0  # atno 7974 bound_to 7965
  155.1148  140.0398  157.2734 H   0  0  0  0  0  0  0  0  0  0  0  0  # atno 8008 bound_to 7997
  154.6658  140.2601  155.7034 H   0  0  0  0  0  0  0  0  0  0  0  0  # atno 8009 bound_to 7997
  156.2638  140.2808  156.1147 H   0  0  0  0  0  0  0  0  0  0  0  0  # atno 8010 bound_to 7997
  139.5259  144.2779  152.0572 H   0  0  0  0  0  0  0  0  0  0  0  0  # atno 10167 bound_to 10162
  157.5696  130.8897  149.9244 H   0  0  0  0  0  0  0  0  0  0  0  0  # atno 10718 bound_to 10713
  153.1112  135.4768  154.9037 H   0  0  0  0  0  0  0  0  0  0  0  0  # atno 10763 bound_to 10752
  154.7482  135.3099  154.8608 H   0  0  0  0  0  0  0  0  0  0  0  0  # atno 10764 bound_to 10752
  153.9197  135.6856  153.4801 H   0  0  0  0  0  0  0  0  0  0  0  0  # atno 10765 bound_to 10752
  140.0419  134.5861  155.9371 H   0  0  0  0  0  0  0  0  0  0  0  0  # atno 11005 bound_to 11000
  144.7502  139.7214  143.7276 LP  0  0  0  0  0  0  0  0  0  0  0  0  # atno 17320 bound_to 7965
  146.1878  139.5103  142.9824 LP  0  0  0  0  0  0  0  0  0  0  0  0  # atno 17321 bound_to 7965
  140.2236  144.4441  150.6331 LP  0  0  0  0  0  0  0  0  0  0  0  0  # atno 17342 bound_to 10162
  140.6402  143.2202  151.6307 LP  0  0  0  0  0  0  0  0  0  0  0  0  # atno 17343 bound_to 10162
  156.0742  130.3681  150.0713 LP  0  0  0  0  0  0  0  0  0  0  0  0  # atno 17370 bound_to 10713
  156.8867  130.9575  151.3593 LP  0  0  0  0  0  0  0  0  0  0  0  0  # atno 17371 bound_to 10713
  141.1887  133.6563  156.5337 LP  0  0  0  0  0  0  0  0  0  0  0  0  # atno 17394 bound_to 11000
  140.4055  134.7319  157.4805 LP  0  0  0  0  0  0  0  0  0  0  0  0  # atno 17395 bound_to 11000

$$$$
