AV-unprocessed.smi:1284|AV-procd|sdf|5366|dock6
  -GOLD-   22720 4503D 1   1.00000     0.00000
 Structure written by MMmdl.
 40 42  0  0  0  0  0  0  0  0  2 V2000
  149.8575  135.6876  154.6410 N   0  0  0  0  0  0  0  0  0  0  0  0
  150.9700  136.2577  155.1105 C   0  0  0  0  0  0  0  0  0  0  0  0
  151.5707  135.8106  156.0859 O   0  0  0  0  0  0  0  0  0  0  0  0
  151.4710  137.5082  154.3808 C   0  0  0  0  0  0  0  0  0  0  0  0
  150.3888  138.5368  154.2560 C   0  0  0  0  0  0  0  0  0  0  0  0
  149.2517  138.4096  153.5143 N   0  3  0  0  0  0  0  0  0  0  0  0
  148.4757  139.5624  153.6356 C   0  0  0  0  0  0  0  0  0  0  0  0
  147.2468  139.8943  153.0737 C   0  0  0  0  0  0  0  0  0  0  0  0
  146.7204  141.1599  153.4051 C   0  0  0  0  0  0  0  0  0  0  0  0
  147.4119  142.0402  154.2619 C   0  0  0  0  0  0  0  0  0  0  0  0
  148.6588  141.6939  154.8218 C   0  0  0  0  0  0  0  0  0  0  0  0
  149.1723  140.4391  154.4925 C   0  0  0  0  0  0  0  0  0  0  0  0
  150.3442  139.7625  154.8557 N   0  0  0  0  0  0  0  0  0  0  0  0
  151.3060  140.4061  155.7663 C   0  0  0  0  0  0  0  0  0  0  0  0
  150.7187  140.6613  157.1695 C   0  0  1  0  0  0  0  0  0  0  0  0
  150.8225  139.4648  157.9133 O   0  0  0  0  0  0  0  0  0  0  0  0
  151.3764  141.8398  157.8741 C   0  0  0  0  0  0  0  0  0  0  0  0
  151.3176  143.1381  157.3203 C   0  0  0  0  0  0  0  0  0  0  0  0
  151.9064  144.2249  157.9955 C   0  0  0  0  0  0  0  0  0  0  0  0
  152.5571  144.0208  159.2274 C   0  0  0  0  0  0  0  0  0  0  0  0
  152.6195  142.7290  159.7838 C   0  0  0  0  0  0  0  0  0  0  0  0
  152.0318  141.6418  159.1087 C   0  0  0  0  0  0  0  0  0  0  0  0
  149.4875  134.8652  155.0963 H   0  0  0  0  0  0  0  0  0  0  0  0
  149.3843  136.0801  153.8399 H   0  0  0  0  0  0  0  0  0  0  0  0
  152.3173  137.9453  154.9126 H   0  0  0  0  0  0  0  0  0  0  0  0
  151.8296  137.2242  153.3915 H   0  0  0  0  0  0  0  0  0  0  0  0
  146.7150  139.2214  152.4172 H   0  0  0  0  0  0  0  0  0  0  0  0
  145.7679  141.4613  152.9941 H   0  0  0  0  0  0  0  0  0  0  0  0
  146.9781  143.0016  154.4956 H   0  0  0  0  0  0  0  0  0  0  0  0
  149.1746  142.3777  155.4790 H   0  0  0  0  0  0  0  0  0  0  0  0
  152.1641  139.7369  155.8405 H   0  0  0  0  0  0  0  0  0  0  0  0
  151.6825  141.3246  155.3158 H   0  0  0  0  0  0  0  0  0  0  0  0
  149.6523  140.8696  157.0757 H   0  0  0  0  0  0  0  0  0  0  0  0
  151.5406  139.5510  158.5217 H   0  0  0  0  0  0  0  0  0  0  0  0
  150.8125  143.3067  156.3804 H   0  0  0  0  0  0  0  0  0  0  0  0
  151.8569  145.2161  157.5692 H   0  0  0  0  0  0  0  0  0  0  0  0
  153.0080  144.8544  159.7453 H   0  0  0  0  0  0  0  0  0  0  0  0
  153.1173  142.5721  160.7293 H   0  0  0  0  0  0  0  0  0  0  0  0
  152.0776  140.6554  159.5468 H   0  0  0  0  0  0  0  0  0  0  0  0
  149.0264  137.5922  152.9623 H   0  0  0  0  0  0  0  0  0  0  0  0
  1  2  1  0  0  0  0
  1 23  1  0  0  0  0
  1 24  1  0  0  0  0
  2  3  2  0  0  0  0
  2  4  1  0  0  0  0
  4  5  1  0  0  0  0
  4 25  1  0  0  0  0
  4 26  1  0  0  0  0
  5 13  1  0  0  0  0
  5  6  2  0  0  0  0
  6  7  1  0  0  0  0
  6 40  1  0  0  0  0
  7 12  2  0  0  0  0
  7  8  1  0  0  0  0
  8  9  2  0  0  0  0
  8 27  1  0  0  0  0
  9 10  1  0  0  0  0
  9 28  1  0  0  0  0
 10 11  2  0  0  0  0
 10 29  1  0  0  0  0
 11 12  1  0  0  0  0
 11 30  1  0  0  0  0
 12 13  1  0  0  0  0
 13 14  1  0  0  0  0
 14 15  1  0  0  0  0
 14 31  1  0  0  0  0
 14 32  1  0  0  0  0
 15 16  1  0  0  0  0
 15 17  1  0  0  0  0
 15 33  1  0  0  0  0
 16 34  1  0  0  0  0
 17 22  1  0  0  0  0
 17 18  2  0  0  0  0
 18 19  1  0  0  0  0
 18 35  1  0  0  0  0
 19 20  2  0  0  0  0
 19 36  1  0  0  0  0
 20 21  1  0  0  0  0
 20 37  1  0  0  0  0
 21 22  2  0  0  0  0
 21 38  1  0  0  0  0
 22 39  1  0  0  0  0
M  CHG  1   6   1
M  END
> <s_m_source_file>
AV-unprocessed.smi

> <i_m_source_file_index>
1284

> <i_lp_mmshare_version>
43012

> <i_f3d_flags>
0

> <s_epik_input>
W2NIXTFbY0hdW2NIXVtjSF1jKGMxMiluKGMobjIpW0NIMl1DKD1PKVtOSDJdKVtDSDJdW0NASF0oW09IXSljM1tjSF1bY0hdW2NIXVtjSF1bY0hdMw==

> <s_epik_cmdline>
J2VwaWtfcHl0aG9uJywgJy1waCcsICc3LjAnLCAnLXRuJywgJzgnLCAnLW1hJywgJzIwMCcsICctbWV0YWxfYmluZGluZycsICctaW1hZScsICc8aW5maWxlLm1hZT4nLCAnLW9tYWUnLCAnPG91dGZpbGUubWFlPic=

> <r_epik_Ionization_Penalty>
1.66646

> <r_epik_Ionization_Penalty_Charging>
1.66645

> <r_epik_Ionization_Penalty_Neutral>
1.67657e-06

> <r_epik_State_Penalty>
1.76975

> <r_epik_Charging_Adjusted_Penalty>
3.43621

> <i_epik_Tot_Q>
1

> <i_epik_Tot_abs_Q>
1

> <r_epik_Metal_State_Penalty>
1.80493

> <b_epik_Metal_Only>
0

> <s_lp_Force_Field>
OPLS_2005

> <r_lp_Energy>
14.9388

> <b_lp_Chiralities_Consistent>
1

> <s_lp_Variant>
AV-unprocessed.smi:1284-4

> <Gold.Version>
5.8.1

> <Gold.Id.Protein>
6NUR|6NUR_protein|mol2

> <Gold.PLP.Fitness>
61.5511

> <Gold.PLP.PLP>
-50.4398

> <Gold.PLP.part.hbond>
-4.0000

> <Gold.PLP.part.metal>
0.0000

> <Gold.PLP.part.buried>
2.3172

> <Gold.PLP.part.nonpolar>
-49.4630

> <Gold.PLP.part.repulsive>
0.1351

> <Gold.PLP.ligand.clash>
0.0000

> <Gold.PLP.ligand.torsion>
0.3865

> <Gold.PLP.Chemscore.Hbond>
3.9500

> <Gold.PLP.Chemscore.CHOScore>
0.0000

> <Gold.PLP.Chemscore.Metal>
0.0000

> <Gold.Chemscore.Hbonds>
donor molecule, donor type, donor heavy atom, donor atom, acceptor molecule, acceptor atom, score
      L1  H     1    24       P1  7948  1.00
      L1  H     6    40       P1  7948  2.00
      P1  H 10752 10763       L1     3  0.94

> <Gold.PLP.Chemscore.Internal.Correction>
0.0343

> <Gold.Rescore>
     Score         DG    S(hbond)    S(metal)    S(lipo)     H(rot)  DE(clash)    DE(int)     intcor
     18.26     -21.19       2.47        0.00     127.63       2.92       1.68       1.25       ----

> <Gold.Chemscore.Fitness>
18.2574

> <Gold.Chemscore.DG>
-21.1864

> <Gold.Chemscore.ZeroCoef>
-5.4800

> <Gold.Chemscore.Hbond>
2.4715

> <Gold.Chemscore.Metal>
0.0000

> <Gold.Chemscore.Lipo>
127.6316

> <Gold.Chemscore.Internal_Hbond>
0.0000

> <Gold.Chemscore.DEClash>
1.6813

> <Gold.Chemscore.DEInternal>
1.2477

> <Gold.Chemscore.Rot>
2.9223

> <Gold.Chemscore.Internal.Correction>
   9.000000E+99

> <Gold.Chemscore.Hbonds>
donor molecule, donor type, donor heavy atom, donor atom, acceptor molecule, acceptor atom, score
      L1  H     1    24       P1  7948  0.69
      L1  H     6    40       P1  7948  1.00
      P1  H 10752 10763       L1     3  0.20

> <Gold.Chemscore.Hbond.Weighted>
-8.2547

> <Gold.Chemscore.Metal.Weighted>
-0.0000

> <Gold.Chemscore.Lipo.Weighted>
-14.9329

> <Gold.Chemscore.Internal_Hbond.Weighted>
0.0000

> <Gold.Chemscore.DEClash.Weighted>
1.6813

> <Gold.Chemscore.DEInternal.Weighted>
1.2477

> <Gold.Chemscore.Rot.Weighted>
7.4812

> <Gold.Chemscore.Internal.Correction.Weighted>
   9.000000E+99

> <Gold.Protein.RotatedTorsions>
[ 6907 6896 6895 6894 ] final   -7.76 input  -60.11 | X-H torsion
[ 7974 7965 7964 7962 ] final  -56.87 input  175.53 | X-H torsion
[ 8008 7997 7996 7995 ] final  -98.43 input   59.86 | X-H torsion
[ 10167 10162 10161 10158 ] final -125.38 input  -65.29 | X-H torsion
[ 10718 10713 10712 10709 ] final -147.18 input   66.30 | X-H torsion
[ 10763 10752 10751 10750 ] final  104.38 input  -60.55 | X-H torsion
[ 11005 11000 10999 10996 ] final  135.01 input  -57.11 | X-H torsion

> <Gold.Protein.ActiveResidues>
 VAL166  LYS551  ARG553  GLY616  TRP617  ASP618  TYR619  PRO620  LYS621  CYS622 
 ASP623  PHE694  ASN695  SER759  ASP760  ASP761  ALA762  ILE779  LEU786  VAL792 
 PHE793  MET794  SER795  GLU796  ALA797  LYS798  CYS799  TRP800  GLU811  SER814 

> <Gold.Protein.RotatedAtoms>
  151.4444  135.1023  159.9679 H   0  0  0  0  0  0  0  0  0  0  0  0  # atno 6907 bound_to 6896
  152.4911  133.8499  159.7206 H   0  0  0  0  0  0  0  0  0  0  0  0  # atno 6908 bound_to 6896
  150.9066  133.6992  159.2893 H   0  0  0  0  0  0  0  0  0  0  0  0  # atno 6909 bound_to 6896
  145.8577  140.8308  142.9953 H   0  0  0  0  0  0  0  0  0  0  0  0  # atno 7974 bound_to 7965
  154.8011  140.0455  157.1273 H   0  0  0  0  0  0  0  0  0  0  0  0  # atno 8008 bound_to 7997
  154.9478  140.3061  155.5069 H   0  0  0  0  0  0  0  0  0  0  0  0  # atno 8009 bound_to 7997
  156.2961  140.2293  156.4553 H   0  0  0  0  0  0  0  0  0  0  0  0  # atno 8010 bound_to 7997
  139.9828  143.5724  152.2372 H   0  0  0  0  0  0  0  0  0  0  0  0  # atno 10167 bound_to 10162
  156.4043  130.7949  151.2162 H   0  0  0  0  0  0  0  0  0  0  0  0  # atno 10718 bound_to 10713
  153.3652  135.3945  155.1748 H   0  0  0  0  0  0  0  0  0  0  0  0  # atno 10763 bound_to 10752
  154.8685  135.3689  154.5048 H   0  0  0  0  0  0  0  0  0  0  0  0  # atno 10764 bound_to 10752
  153.5511  135.7083  153.5651 H   0  0  0  0  0  0  0  0  0  0  0  0  # atno 10765 bound_to 10752
  139.9952  134.9500  156.9947 H   0  0  0  0  0  0  0  0  0  0  0  0  # atno 11005 bound_to 11000
  144.6727  140.1048  143.7458 LP  0  0  0  0  0  0  0  0  0  0  0  0  # atno 17320 bound_to 7965
  145.9285  139.2591  143.1339 LP  0  0  0  0  0  0  0  0  0  0  0  0  # atno 17321 bound_to 7965
  139.6397  144.7653  151.2364 LP  0  0  0  0  0  0  0  0  0  0  0  0  # atno 17342 bound_to 10162
  140.7483  143.6337  150.8399 LP  0  0  0  0  0  0  0  0  0  0  0  0  # atno 17343 bound_to 10162
  157.7505  131.0277  150.4017 LP  0  0  0  0  0  0  0  0  0  0  0  0  # atno 17370 bound_to 10713
  156.4303  130.3970  149.6765 LP  0  0  0  0  0  0  0  0  0  0  0  0  # atno 17371 bound_to 10713
  140.4832  134.1268  155.7220 LP  0  0  0  0  0  0  0  0  0  0  0  0  # atno 17394 bound_to 11000
  141.1598  133.8814  157.1878 LP  0  0  0  0  0  0  0  0  0  0  0  0  # atno 17395 bound_to 11000

$$$$
