AV-unprocessed.smi:2060|AV-procd|sdf|8357|dock9
  -GOLD-   2272011 23D 1   1.00000     0.00000
 Structure written by MMmdl.
 46 47  0  0  0  0  0  0  0  0  2 V2000
  149.0871  140.1726  154.2945 C   0  0  0  0  0  0  0  0  0  0  0  0
  148.5367  138.7452  154.1227 C   0  0  0  0  0  0  0  0  0  0  0  0
  147.0818  138.6446  153.5692 C   0  0  2  0  0  0  0  0  0  0  0  0
  146.9807  139.6129  152.3610 C   0  0  0  0  0  0  0  0  0  0  0  0
  146.0806  139.0879  154.6819 C   0  0  0  0  0  0  0  0  0  0  0  0
  144.6778  139.0304  154.2712 N   0  0  0  0  0  0  0  0  0  0  0  0
  143.7210  138.2982  154.8607 C   0  0  0  0  0  0  0  0  0  0  0  0
  143.9258  137.5626  155.8266 O   0  0  0  0  0  0  0  0  0  0  0  0
  142.5324  138.4737  154.2590 N   0  0  0  0  0  0  0  0  0  0  0  0
  141.2976  137.8599  154.5898 C   0  0  0  0  0  0  0  0  0  0  0  0
  140.1272  138.1229  153.8297 C   0  0  0  0  0  0  0  0  0  0  0  0
  139.1787  137.3608  154.4517 C   0  0  0  0  0  0  0  0  0  0  0  0
  137.7261  137.1442  154.1977 C   0  0  0  0  0  0  0  0  0  0  0  0
  139.7250  136.6870  155.5002 O   0  0  0  0  0  0  0  0  0  0  0  0
  141.0843  137.0112  155.5838 N   0  0  0  0  0  0  0  0  0  0  0  0
  146.7884  137.2336  153.1216 N   0  3  0  0  0  0  0  0  0  0  0  0
  146.6917  136.2130  154.2040 C   0  0  0  0  0  0  0  0  0  0  0  0
  146.5995  134.8000  153.6055 C   0  0  0  0  0  0  0  0  0  0  0  0
  145.4721  134.7206  152.7449 O   0  0  0  0  0  0  0  0  0  0  0  0
  145.5783  135.6259  151.6555 C   0  0  0  0  0  0  0  0  0  0  0  0
  145.6427  137.0697  152.1816 C   0  0  0  0  0  0  0  0  0  0  0  0
  150.1042  140.1421  154.6854 H   0  0  0  0  0  0  0  0  0  0  0  0
  148.4906  140.7560  154.9954 H   0  0  0  0  0  0  0  0  0  0  0  0
  149.1210  140.7131  153.3487 H   0  0  0  0  0  0  0  0  0  0  0  0
  149.2234  138.1743  153.4981 H   0  0  0  0  0  0  0  0  0  0  0  0
  148.5904  138.2563  155.0961 H   0  0  0  0  0  0  0  0  0  0  0  0
  147.4116  140.5888  152.5870 H   0  0  0  0  0  0  0  0  0  0  0  0
  145.9467  139.7969  152.0689 H   0  0  0  0  0  0  0  0  0  0  0  0
  147.5048  139.2268  151.4866 H   0  0  0  0  0  0  0  0  0  0  0  0
  146.2202  138.5020  155.5906 H   0  0  0  0  0  0  0  0  0  0  0  0
  146.2632  140.1231  154.9678 H   0  0  0  0  0  0  0  0  0  0  0  0
  144.4144  139.6030  153.4825 H   0  0  0  0  0  0  0  0  0  0  0  0
  142.5060  139.1155  153.4806 H   0  0  0  0  0  0  0  0  0  0  0  0
  140.0005  138.7645  152.9704 H   0  0  0  0  0  0  0  0  0  0  0  0
  137.2974  137.9852  153.6526 H   0  0  0  0  0  0  0  0  0  0  0  0
  137.1785  137.0355  155.1342 H   0  0  0  0  0  0  0  0  0  0  0  0
  137.5687  136.2420  153.6064 H   0  0  0  0  0  0  0  0  0  0  0  0
  147.5577  136.2416  154.8619 H   0  0  0  0  0  0  0  0  0  0  0  0
  145.8121  136.3966  154.8214 H   0  0  0  0  0  0  0  0  0  0  0  0
  147.5108  134.5455  153.0617 H   0  0  0  0  0  0  0  0  0  0  0  0
  146.4870  134.0628  154.4008 H   0  0  0  0  0  0  0  0  0  0  0  0
  146.4586  135.3910  151.0548 H   0  0  0  0  0  0  0  0  0  0  0  0
  144.7098  135.5013  151.0085 H   0  0  0  0  0  0  0  0  0  0  0  0
  144.7053  137.3154  152.6810 H   0  0  0  0  0  0  0  0  0  0  0  0
  145.7300  137.7280  151.3195 H   0  0  0  0  0  0  0  0  0  0  0  0
  147.6021  136.9699  152.5844 H   0  0  0  0  0  0  0  0  0  0  0  0
  1  2  1  0  0  0  0
  1 22  1  0  0  0  0
  1 23  1  0  0  0  0
  1 24  1  0  0  0  0
  2  3  1  0  0  0  0
  2 25  1  0  0  0  0
  2 26  1  0  0  0  0
  3  4  1  0  0  0  0
  3  5  1  0  0  0  0
  3 16  1  0  0  0  0
  4 27  1  0  0  0  0
  4 28  1  0  0  0  0
  4 29  1  0  0  0  0
  5  6  1  0  0  0  0
  5 30  1  0  0  0  0
  5 31  1  0  0  0  0
  6  7  1  0  0  0  0
  6 32  1  0  0  0  0
  7  8  2  0  0  0  0
  7  9  1  0  0  0  0
  9 10  1  0  0  0  0
  9 33  1  0  0  0  0
 10 15  2  0  0  0  0
 10 11  1  0  0  0  0
 11 12  2  0  0  0  0
 11 34  1  0  0  0  0
 12 13  1  0  0  0  0
 12 14  1  0  0  0  0
 13 35  1  0  0  0  0
 13 36  1  0  0  0  0
 13 37  1  0  0  0  0
 14 15  1  0  0  0  0
 16 21  1  0  0  0  0
 16 17  1  0  0  0  0
 16 46  1  0  0  0  0
 17 18  1  0  0  0  0
 17 38  1  0  0  0  0
 17 39  1  0  0  0  0
 18 19  1  0  0  0  0
 18 40  1  0  0  0  0
 18 41  1  0  0  0  0
 19 20  1  0  0  0  0
 20 21  1  0  0  0  0
 20 42  1  0  0  0  0
 20 43  1  0  0  0  0
 21 44  1  0  0  0  0
 21 45  1  0  0  0  0
M  CHG  1  16   1
M  END
> <s_m_source_file>
AV-unprocessed.smi

> <i_m_source_file_index>
2060

> <i_lp_mmshare_version>
43012

> <i_f3d_flags>
0

> <s_epik_input>
W0NIMl0xW0NIMl1PW0NIMl1bQ0gyXU4xW0NAQF0oW0NIM10pKFtDSDJdW0NIM10pW0NIMl1bTkhdQyg9TylbTkhdYzJbY0hdYyhbQ0gzXSlvbjI=

> <s_epik_cmdline>
J2VwaWtfcHl0aG9uJywgJy1waCcsICc3LjAnLCAnLXRuJywgJzgnLCAnLW1hJywgJzIwMCcsICctbWV0YWxfYmluZGluZycsICctaW1hZScsICc8aW5maWxlLm1hZT4nLCAnLW9tYWUnLCAnPG91dGZpbGUubWFlPic=

> <r_epik_Ionization_Penalty>
0.563843

> <r_epik_Ionization_Penalty_Charging>
0.563819

> <r_epik_Ionization_Penalty_Neutral>
2.4442e-05

> <r_epik_State_Penalty>
0.575199

> <r_epik_Charging_Adjusted_Penalty>
1.13902

> <i_epik_Tot_Q>
1

> <i_epik_Tot_abs_Q>
1

> <r_epik_Metal_State_Penalty>
0.577669

> <b_epik_Metal_Only>
0

> <s_lp_Force_Field>
OPLS_2005

> <r_lp_Energy>
25.7644

> <b_lp_Chiralities_Consistent>
1

> <s_lp_Variant>
AV-unprocessed.smi:2060-4

> <Gold.Version>
5.8.1

> <Gold.Id.Protein>
6NUR|6NUR_protein|mol2

> <Gold.PLP.Fitness>
39.3904

> <Gold.PLP.PLP>
-26.2980

> <Gold.PLP.part.hbond>
-4.6626

> <Gold.PLP.part.metal>
0.0000

> <Gold.PLP.part.buried>
-0.2089

> <Gold.PLP.part.nonpolar>
-21.5446

> <Gold.PLP.part.repulsive>
0.1629

> <Gold.PLP.ligand.clash>
0.0000

> <Gold.PLP.ligand.torsion>
0.4284

> <Gold.PLP.Chemscore.Hbond>
4.5960

> <Gold.PLP.Chemscore.CHOScore>
0.0000

> <Gold.PLP.Chemscore.Metal>
0.0000

> <Gold.Chemscore.Hbonds>
donor molecule, donor type, donor heavy atom, donor atom, acceptor molecule, acceptor atom, score
      L1  H     6    32       P1 10175  0.96
      L1  H     9    33       P1 10175  0.86
      L1  H    16    46       P1  7948  2.00
      P1  H 11000 11005       L1    14  0.80

> <Gold.PLP.Chemscore.Internal.Correction>
0.1612

> <Gold.Rescore>
     Score         DG    S(hbond)    S(metal)    S(lipo)     H(rot)  DE(clash)    DE(int)     intcor
     15.84     -17.85       2.88        0.00      62.06       1.77       0.14       1.88       ----

> <Gold.Chemscore.Fitness>
15.8383

> <Gold.Chemscore.DG>
-17.8517

> <Gold.Chemscore.ZeroCoef>
-5.4800

> <Gold.Chemscore.Hbond>
2.8845

> <Gold.Chemscore.Metal>
0.0000

> <Gold.Chemscore.Lipo>
62.0586

> <Gold.Chemscore.Internal_Hbond>
0.0000

> <Gold.Chemscore.DEClash>
0.1373

> <Gold.Chemscore.DEInternal>
1.8762

> <Gold.Chemscore.Rot>
1.7670

> <Gold.Chemscore.Internal.Correction>
   9.000000E+99

> <Gold.Chemscore.Hbonds>
donor molecule, donor type, donor heavy atom, donor atom, acceptor molecule, acceptor atom, score
      L1  H     6    32       P1 10175  0.91
      L1  H     9    33       P1 10175  0.82
      L1  H    16    46       P1  7948  1.00
      P1  H 11000 11005       L1    14  0.12

> <Gold.Chemscore.Hbond.Weighted>
-9.6343

> <Gold.Chemscore.Metal.Weighted>
-0.0000

> <Gold.Chemscore.Lipo.Weighted>
-7.2609

> <Gold.Chemscore.Internal_Hbond.Weighted>
0.0000

> <Gold.Chemscore.DEClash.Weighted>
0.1373

> <Gold.Chemscore.DEInternal.Weighted>
1.8762

> <Gold.Chemscore.Rot.Weighted>
4.5235

> <Gold.Chemscore.Internal.Correction.Weighted>
   9.000000E+99

> <Gold.Protein.RotatedTorsions>
[ 6907 6896 6895 6894 ] final -164.53 input  -60.11 | X-H torsion
[ 7974 7965 7964 7962 ] final    5.63 input  175.53 | X-H torsion
[ 8008 7997 7996 7995 ] final -140.89 input   59.86 | X-H torsion
[ 10167 10162 10161 10158 ] final   57.71 input  -65.29 | X-H torsion
[ 10718 10713 10712 10709 ] final  155.17 input   66.30 | X-H torsion
[ 10763 10752 10751 10750 ] final   58.23 input  -60.55 | X-H torsion
[ 11005 11000 10999 10996 ] final   94.61 input  -57.11 | X-H torsion

> <Gold.Protein.ActiveResidues>
 VAL166  LYS551  ARG553  GLY616  TRP617  ASP618  TYR619  PRO620  LYS621  CYS622 
 ASP623  PHE694  ASN695  SER759  ASP760  ASP761  ALA762  ILE779  LEU786  VAL792 
 PHE793  MET794  SER795  GLU796  ALA797  LYS798  CYS799  TRP800  GLU811  SER814 

> <Gold.Protein.RotatedAtoms>
  151.4133  133.3720  159.2746 H   0  0  0  0  0  0  0  0  0  0  0  0  # atno 6907 bound_to 6896
  150.9347  134.8761  159.7584 H   0  0  0  0  0  0  0  0  0  0  0  0  # atno 6908 bound_to 6896
  152.5044  134.4080  159.9491 H   0  0  0  0  0  0  0  0  0  0  0  0  # atno 6909 bound_to 6896
  146.2439  140.0355  142.8386 H   0  0  0  0  0  0  0  0  0  0  0  0  # atno 7974 bound_to 7965
  155.4688  140.0551  157.2982 H   0  0  0  0  0  0  0  0  0  0  0  0  # atno 8008 bound_to 7997
  154.4707  140.2039  155.9957 H   0  0  0  0  0  0  0  0  0  0  0  0  # atno 8009 bound_to 7997
  156.1050  140.3213  155.7999 H   0  0  0  0  0  0  0  0  0  0  0  0  # atno 8010 bound_to 7997
  140.1951  144.4046  150.6554 H   0  0  0  0  0  0  0  0  0  0  0  0  # atno 10167 bound_to 10162
  157.2219  131.0720  151.1907 H   0  0  0  0  0  0  0  0  0  0  0  0  # atno 10718 bound_to 10713
  152.9866  135.5614  154.5519 H   0  0  0  0  0  0  0  0  0  0  0  0  # atno 10763 bound_to 10752
  154.4954  135.2795  155.1465 H   0  0  0  0  0  0  0  0  0  0  0  0  # atno 10764 bound_to 10752
  154.2918  135.6325  153.5441 H   0  0  0  0  0  0  0  0  0  0  0  0  # atno 10765 bound_to 10752
  139.8797  134.8855  156.3890 H   0  0  0  0  0  0  0  0  0  0  0  0  # atno 11005 bound_to 11000
  145.1116  140.9408  143.4653 LP  0  0  0  0  0  0  0  0  0  0  0  0  # atno 17320 bound_to 7965
  145.0570  139.3136  143.5899 LP  0  0  0  0  0  0  0  0  0  0  0  0  # atno 17321 bound_to 7965
  140.6429  143.2207  151.6250 LP  0  0  0  0  0  0  0  0  0  0  0  0  # atno 17342 bound_to 10162
  139.5240  144.3117  152.0987 LP  0  0  0  0  0  0  0  0  0  0  0  0  # atno 17343 bound_to 10162
  157.3567  130.7110  149.6475 LP  0  0  0  0  0  0  0  0  0  0  0  0  # atno 17370 bound_to 10713
  155.9681  130.4237  150.4575 LP  0  0  0  0  0  0  0  0  0  0  0  0  # atno 17371 bound_to 10713
  140.9346  133.7556  156.0068 LP  0  0  0  0  0  0  0  0  0  0  0  0  # atno 17394 bound_to 11000
  140.8290  134.3200  157.5355 LP  0  0  0  0  0  0  0  0  0  0  0  0  # atno 17395 bound_to 11000

$$$$
