AV-unprocessed.smi:1460|AV-procd|sdf|5928|dock8
  -GOLD-   22720 6 13D 1   1.00000     0.00000
 Structure written by MMmdl.
 41 42  0  0  0  0  0  0  0  0  1 V2000
  149.2823  135.9362  155.8025 C   0  0  0  0  0  0  0  0  0  0  0  0
  148.9967  134.5051  155.3179 C   0  0  2  0  0  0  0  0  0  0  0  0
  150.2757  133.6595  155.1281 C   0  0  0  0  0  0  0  0  0  0  0  0
  150.0011  132.2949  154.7157 N   0  0  0  0  0  0  0  0  0  0  0  0
  150.4275  131.1211  155.3007 C   0  0  0  0  0  0  0  0  0  0  0  0
  149.9249  130.0913  154.5582 C   0  0  0  0  0  0  0  0  0  0  0  0
  149.2003  130.7440  153.5220 C   0  0  0  0  0  0  0  0  0  0  0  0
  149.2508  132.0628  153.6169 N   0  0  0  0  0  0  0  0  0  0  0  0
  148.2483  134.5666  154.0659 N   0  0  0  0  0  0  0  0  0  0  0  0
  146.9373  134.3137  153.9273 C   0  0  0  0  0  0  0  0  0  0  0  0
  146.2074  133.9953  154.8665 O   0  0  0  0  0  0  0  0  0  0  0  0
  146.3654  134.4369  152.5090 C   0  0  0  0  0  0  0  0  0  0  0  0
  144.8327  134.6380  152.5452 C   0  0  0  0  0  0  0  0  0  0  0  0
  144.2406  134.6346  151.1244 C   0  0  0  0  0  0  0  0  0  0  0  0
  144.6032  133.3698  150.4633 N   0  0  0  0  0  0  0  0  0  0  0  0
  143.7733  132.3238  150.2209 C   0  0  0  0  0  0  0  0  0  0  0  0
  142.4683  132.6126  150.2421 N   0  0  0  0  0  0  0  0  0  0  0  0
  144.1634  131.1842  149.9727 O   0  0  0  0  0  0  0  0  0  0  0  0
  146.0551  133.2694  150.2685 C   0  0  0  0  0  0  0  0  0  0  0  0
  146.7398  133.2088  151.6461 C   0  0  0  0  0  0  0  0  0  0  0  0
  149.7651  135.9392  156.7799 H   0  0  0  0  0  0  0  0  0  0  0  0
  148.3592  136.5088  155.8983 H   0  0  0  0  0  0  0  0  0  0  0  0
  149.9334  136.4676  155.1076 H   0  0  0  0  0  0  0  0  0  0  0  0
  148.3711  134.0265  156.0739 H   0  0  0  0  0  0  0  0  0  0  0  0
  150.9286  134.1154  154.3822 H   0  0  0  0  0  0  0  0  0  0  0  0
  150.8440  133.6260  156.0589 H   0  0  0  0  0  0  0  0  0  0  0  0
  151.0433  131.1167  156.1879 H   0  0  0  0  0  0  0  0  0  0  0  0
  150.0564  129.0332  154.7279 H   0  0  0  0  0  0  0  0  0  0  0  0
  148.6447  130.3018  152.7083 H   0  0  0  0  0  0  0  0  0  0  0  0
  148.7685  134.8209  153.2389 H   0  0  0  0  0  0  0  0  0  0  0  0
  146.8035  135.3175  152.0353 H   0  0  0  0  0  0  0  0  0  0  0  0
  144.3591  133.8488  153.1319 H   0  0  0  0  0  0  0  0  0  0  0  0
  144.5911  135.5790  153.0410 H   0  0  0  0  0  0  0  0  0  0  0  0
  143.1674  134.8174  151.1719 H   0  0  0  0  0  0  0  0  0  0  0  0
  144.6485  135.4676  150.5497 H   0  0  0  0  0  0  0  0  0  0  0  0
  141.7891  131.8869  150.0667 H   0  0  0  0  0  0  0  0  0  0  0  0
  142.1691  133.5582  150.4300 H   0  0  0  0  0  0  0  0  0  0  0  0
  146.3409  132.4017  149.6723 H   0  0  0  0  0  0  0  0  0  0  0  0
  146.4073  134.1383  149.7107 H   0  0  0  0  0  0  0  0  0  0  0  0
  147.8217  133.1583  151.5170 H   0  0  0  0  0  0  0  0  0  0  0  0
  146.4459  132.2855  152.1483 H   0  0  0  0  0  0  0  0  0  0  0  0
  1  2  1  0  0  0  0
  1 21  1  0  0  0  0
  1 22  1  0  0  0  0
  1 23  1  0  0  0  0
  2  3  1  0  0  0  0
  2  9  1  0  0  0  0
  2 24  1  0  0  0  0
  3  4  1  0  0  0  0
  3 25  1  0  0  0  0
  3 26  1  0  0  0  0
  4  8  1  0  0  0  0
  4  5  1  0  0  0  0
  5  6  2  0  0  0  0
  5 27  1  0  0  0  0
  6  7  1  0  0  0  0
  6 28  1  0  0  0  0
  7  8  2  0  0  0  0
  7 29  1  0  0  0  0
  9 10  1  0  0  0  0
  9 30  1  0  0  0  0
 10 11  2  0  0  0  0
 10 12  1  0  0  0  0
 12 20  1  0  0  0  0
 12 13  1  0  0  0  0
 12 31  1  0  0  0  0
 13 14  1  0  0  0  0
 13 32  1  0  0  0  0
 13 33  1  0  0  0  0
 14 15  1  0  0  0  0
 14 34  1  0  0  0  0
 14 35  1  0  0  0  0
 15 16  1  0  0  0  0
 15 19  1  0  0  0  0
 16 17  1  0  0  0  0
 16 18  2  0  0  0  0
 17 36  1  0  0  0  0
 17 37  1  0  0  0  0
 19 20  1  0  0  0  0
 19 38  1  0  0  0  0
 19 39  1  0  0  0  0
 20 40  1  0  0  0  0
 20 41  1  0  0  0  0
M  END
> <s_m_source_file>
AV-unprocessed.smi

> <i_m_source_file_index>
1460

> <i_lp_mmshare_version>
43012

> <i_f3d_flags>
0

> <s_epik_input>
bjFbY0hdW2NIXVtjSF1uMVtDSDJdW0NAQEhdKFtDSDNdKVtOSF1DKD1PKVtDSF0yW0NIMl1bQ0gyXU4oQyg9TylbTkgyXSlbQ0gyXVtDSDJdMg==

> <s_epik_cmdline>
J2VwaWtfcHl0aG9uJywgJy1waCcsICc3LjAnLCAnLXRuJywgJzgnLCAnLW1hJywgJzIwMCcsICctbWV0YWxfYmluZGluZycsICctaW1hZScsICc8aW5maWxlLm1hZT4nLCAnLW9tYWUnLCAnPG91dGZpbGUubWFlPic=

> <r_lp_tautomer_probability>
1

> <r_epik_Ionization_Penalty>
0.000387527

> <r_epik_Ionization_Penalty_Charging>
0

> <r_epik_Ionization_Penalty_Neutral>
0.000387527

> <r_epik_State_Penalty>
-0

> <r_epik_Charging_Adjusted_Penalty>
0

> <i_epik_Tot_Q>
0

> <i_epik_Tot_abs_Q>
0

> <r_epik_Metal_State_Penalty>
-0

> <b_epik_Metal_Only>
0

> <s_lp_Force_Field>
OPLS_2005

> <r_lp_Energy>
26.2675

> <b_lp_Chiralities_Consistent>
1

> <s_lp_Variant>
AV-unprocessed.smi:1460-1

> <Gold.Version>
5.8.1

> <Gold.Id.Protein>
6NUR|6NUR_protein|mol2

> <Gold.PLP.Fitness>
40.0501

> <Gold.PLP.PLP>
-30.3266

> <Gold.PLP.part.hbond>
-3.4289

> <Gold.PLP.part.metal>
0.0000

> <Gold.PLP.part.buried>
-1.7660

> <Gold.PLP.part.nonpolar>
-23.7977

> <Gold.PLP.part.repulsive>
0.3848

> <Gold.PLP.ligand.clash>
0.0000

> <Gold.PLP.ligand.torsion>
0.7942

> <Gold.PLP.Chemscore.Hbond>
2.9040

> <Gold.PLP.Chemscore.CHOScore>
0.8434

> <Gold.PLP.Chemscore.Metal>
0.0000

> <Gold.Chemscore.Hbonds>
donor molecule, donor type, donor heavy atom, donor atom, acceptor molecule, acceptor atom, score
      L1  H     9    30       P1  7948  0.90
      L1  H    17    36       P1 10952  1.00
      L1  H    17    37       P1 10186  0.51
      P1  H 10785 10796       L1    18  0.51
      L1  C     7    29       P1 10747  0.89

> <Gold.PLP.Chemscore.Internal.Correction>
0.0696

> <Gold.Rescore>
     Score         DG    S(hbond)    S(metal)    S(lipo)     H(rot)  DE(clash)    DE(int)     intcor
     14.04     -16.26       2.71        0.00      54.49       1.82       1.43       0.79       ----

> <Gold.Chemscore.Fitness>
14.0380

> <Gold.Chemscore.DG>
-16.2552

> <Gold.Chemscore.ZeroCoef>
-5.4800

> <Gold.Chemscore.Hbond>
2.7128

> <Gold.Chemscore.Metal>
0.0000

> <Gold.Chemscore.Lipo>
54.4890

> <Gold.Chemscore.Internal_Hbond>
0.0000

> <Gold.Chemscore.DEClash>
1.4254

> <Gold.Chemscore.DEInternal>
0.7917

> <Gold.Chemscore.Rot>
1.8206

> <Gold.Chemscore.Internal.Correction>
   9.000000E+99

> <Gold.Chemscore.Hbonds>
donor molecule, donor type, donor heavy atom, donor atom, acceptor molecule, acceptor atom, score
      L1  H     9    30       P1  7948  0.30
      L1  H    17    36       P1 10952  0.78
      L1  H    17    37       P1 10186  0.51
      P1  H 10785 10796       L1    18  0.51

> <Gold.Chemscore.Hbond.Weighted>
-9.0606

> <Gold.Chemscore.Metal.Weighted>
-0.0000

> <Gold.Chemscore.Lipo.Weighted>
-6.3752

> <Gold.Chemscore.Internal_Hbond.Weighted>
0.0000

> <Gold.Chemscore.DEClash.Weighted>
1.4254

> <Gold.Chemscore.DEInternal.Weighted>
0.7917

> <Gold.Chemscore.Rot.Weighted>
4.6607

> <Gold.Chemscore.Internal.Correction.Weighted>
   9.000000E+99

> <Gold.Protein.RotatedTorsions>
[ 6907 6896 6895 6894 ] final   14.01 input  -60.11 | X-H torsion
[ 7974 7965 7964 7962 ] final  -14.60 input  175.53 | X-H torsion
[ 8008 7997 7996 7995 ] final -137.53 input   59.86 | X-H torsion
[ 10167 10162 10161 10158 ] final -116.38 input  -65.29 | X-H torsion
[ 10718 10713 10712 10709 ] final  -44.15 input   66.30 | X-H torsion
[ 10763 10752 10751 10750 ] final  -12.70 input  -60.55 | X-H torsion
[ 11005 11000 10999 10996 ] final -150.14 input  -57.11 | X-H torsion

> <Gold.Protein.ActiveResidues>
 VAL166  LYS551  ARG553  GLY616  TRP617  ASP618  TYR619  PRO620  LYS621  CYS622 
 ASP623  PHE694  ASN695  SER759  ASP760  ASP761  ALA762  ILE779  LEU786  VAL792 
 PHE793  MET794  SER795  GLU796  ALA797  LYS798  CYS799  TRP800  GLU811  SER814 

> <Gold.Protein.RotatedAtoms>
  151.7954  135.0724  160.0392 H   0  0  0  0  0  0  0  0  0  0  0  0  # atno 6907 bound_to 6896
  152.3127  133.5765  159.5699 H   0  0  0  0  0  0  0  0  0  0  0  0  # atno 6908 bound_to 6896
  150.7328  134.0045  159.3691 H   0  0  0  0  0  0  0  0  0  0  0  0  # atno 6909 bound_to 6896
  146.2067  140.3372  142.8404 H   0  0  0  0  0  0  0  0  0  0  0  0  # atno 7974 bound_to 7965
  155.4133  140.0513  157.3030 H   0  0  0  0  0  0  0  0  0  0  0  0  # atno 8008 bound_to 7997
  154.4936  140.2129  155.9455 H   0  0  0  0  0  0  0  0  0  0  0  0  # atno 8009 bound_to 7997
  156.1375  140.3160  155.8449 H   0  0  0  0  0  0  0  0  0  0  0  0  # atno 8010 bound_to 7997
  140.0798  143.4798  152.1932 H   0  0  0  0  0  0  0  0  0  0  0  0  # atno 10167 bound_to 10162
  156.2415  130.4180  149.8755 H   0  0  0  0  0  0  0  0  0  0  0  0  # atno 10718 bound_to 10713
  153.5024  135.7017  153.5824 H   0  0  0  0  0  0  0  0  0  0  0  0  # atno 10763 bound_to 10752
  153.3950  135.3886  155.1949 H   0  0  0  0  0  0  0  0  0  0  0  0  # atno 10764 bound_to 10752
  154.8709  135.3867  154.4496 H   0  0  0  0  0  0  0  0  0  0  0  0  # atno 10765 bound_to 10752
  140.7433  134.3490  157.5142 H   0  0  0  0  0  0  0  0  0  0  0  0  # atno 11005 bound_to 11000
  144.8810  140.7401  143.5986 LP  0  0  0  0  0  0  0  0  0  0  0  0  # atno 17320 bound_to 7965
  145.3293  139.1764  143.4545 LP  0  0  0  0  0  0  0  0  0  0  0  0  # atno 17321 bound_to 7965
  139.5786  144.7499  151.3699 LP  0  0  0  0  0  0  0  0  0  0  0  0  # atno 17342 bound_to 10162
  140.7083  143.7456  150.7521 LP  0  0  0  0  0  0  0  0  0  0  0  0  # atno 17343 bound_to 10162
  156.6334  130.8675  151.3500 LP  0  0  0  0  0  0  0  0  0  0  0  0  # atno 17370 bound_to 10713
  157.7177  130.9518  150.1318 LP  0  0  0  0  0  0  0  0  0  0  0  0  # atno 17371 bound_to 10713
  139.8802  134.9095  156.2991 LP  0  0  0  0  0  0  0  0  0  0  0  0  # atno 17394 bound_to 11000
  140.9817  133.7263  156.0682 LP  0  0  0  0  0  0  0  0  0  0  0  0  # atno 17395 bound_to 11000

$$$$
