AV-unprocessed.smi:2718|AV-procd|sdf|10487|dock7
  -GOLD-   2272014533D 1   1.00000     0.00000
 Structure written by MMmdl.
 47 48  0  0  0  0  0  0  0  0  1 V2000
  145.8008  142.1656  158.4016 C   0  0  0  0  0  0  0  0  0  0  0  0
  145.7689  142.1783  156.8863 C   0  0  0  0  0  0  0  0  0  0  0  0
  144.4605  142.6611  156.2853 C   0  0  0  0  0  0  0  0  0  0  0  0
  146.8311  141.7904  156.1539 C   0  0  0  0  0  0  0  0  0  0  0  0
  146.9355  141.7645  154.6655 C   0  0  1  0  0  0  0  0  0  0  0  0
  148.2450  141.6224  153.8965 C   0  0  1  0  0  0  0  0  0  0  0  0
  149.5471  141.5045  154.6385 C   0  0  0  0  0  0  0  0  0  0  0  0
  150.3672  140.6024  154.4658 O   0  0  0  0  0  0  0  0  0  0  0  0
  149.7260  142.4671  155.5561 N   0  0  0  0  0  0  0  0  0  0  0  0
  150.8426  142.5260  156.4941 C   0  0  0  0  0  0  0  0  0  0  0  0
  150.4105  142.1744  157.9339 C   0  0  2  0  0  0  0  0  0  0  0  0
  149.0880  142.8447  158.3461 C   0  0  0  0  0  0  0  0  0  0  0  0
  151.5051  142.4746  158.9187 C   0  0  0  0  0  0  0  0  0  0  0  0
  152.0212  141.5636  159.7551 N   0  0  0  0  0  0  0  0  0  0  0  0
  152.9794  142.2310  160.4910 N   0  0  0  0  0  0  0  0  0  0  0  0
  152.9458  143.4801  160.0292 C   0  0  0  0  0  0  0  0  0  0  0  0
  152.0527  143.7015  159.0532 N   0  0  0  0  0  0  0  0  0  0  0  0
  151.7723  144.9398  158.3531 C   0  0  0  0  0  0  0  0  0  0  0  0
  147.2237  140.4878  153.8896 C   0  0  0  0  0  0  0  0  0  0  0  0
  147.4375  139.1561  154.6069 C   0  0  0  0  0  0  0  0  0  0  0  0
  146.4754  140.2314  152.5924 C   0  0  0  0  0  0  0  0  0  0  0  0
  145.0176  141.5153  158.7915 H   0  0  0  0  0  0  0  0  0  0  0  0
  145.6377  143.1712  158.7901 H   0  0  0  0  0  0  0  0  0  0  0  0
  146.7587  141.8078  158.7804 H   0  0  0  0  0  0  0  0  0  0  0  0
  144.2646  143.6882  156.5932 H   0  0  0  0  0  0  0  0  0  0  0  0
  143.6359  142.0389  156.6330 H   0  0  0  0  0  0  0  0  0  0  0  0
  144.4642  142.6310  155.1963 H   0  0  0  0  0  0  0  0  0  0  0  0
  147.7122  141.4511  156.6787 H   0  0  0  0  0  0  0  0  0  0  0  0
  146.1997  142.4352  154.2256 H   0  0  0  0  0  0  0  0  0  0  0  0
  148.3052  142.2086  152.9804 H   0  0  0  0  0  0  0  0  0  0  0  0
  149.0149  143.1786  155.6450 H   0  0  0  0  0  0  0  0  0  0  0  0
  151.6319  141.8492  156.1615 H   0  0  0  0  0  0  0  0  0  0  0  0
  151.2673  143.5297  156.4624 H   0  0  0  0  0  0  0  0  0  0  0  0
  150.2273  141.1010  157.9593 H   0  0  0  0  0  0  0  0  0  0  0  0
  148.7936  142.5392  159.3506 H   0  0  0  0  0  0  0  0  0  0  0  0
  148.2744  142.5740  157.6732 H   0  0  0  0  0  0  0  0  0  0  0  0
  149.1753  143.9317  158.3409 H   0  0  0  0  0  0  0  0  0  0  0  0
  153.5901  144.2560  160.4164 H   0  0  0  0  0  0  0  0  0  0  0  0
  152.4168  145.7366  158.7258 H   0  0  0  0  0  0  0  0  0  0  0  0
  150.7312  145.2237  158.5102 H   0  0  0  0  0  0  0  0  0  0  0  0
  151.9530  144.8095  157.2858 H   0  0  0  0  0  0  0  0  0  0  0  0
  148.1591  138.5476  154.0614 H   0  0  0  0  0  0  0  0  0  0  0  0
  146.4992  138.6037  154.6658 H   0  0  0  0  0  0  0  0  0  0  0  0
  147.7976  139.2831  155.6258 H   0  0  0  0  0  0  0  0  0  0  0  0
  147.0460  139.5588  151.9514 H   0  0  0  0  0  0  0  0  0  0  0  0
  146.3095  141.1621  152.0490 H   0  0  0  0  0  0  0  0  0  0  0  0
  145.5035  139.7808  152.7956 H   0  0  0  0  0  0  0  0  0  0  0  0
  1  2  1  0  0  0  0
  1 22  1  0  0  0  0
  1 23  1  0  0  0  0
  1 24  1  0  0  0  0
  2  3  1  0  0  0  0
  2  4  2  0  0  0  0
  3 25  1  0  0  0  0
  3 26  1  0  0  0  0
  3 27  1  0  0  0  0
  4  5  1  0  0  0  0
  4 28  1  0  0  0  0
  5 19  1  0  0  0  0
  5  6  1  0  0  0  0
  5 29  1  0  0  0  0
  6  7  1  0  0  0  0
  6 19  1  0  0  0  0
  6 30  1  0  0  0  0
  7  8  2  0  0  0  0
  7  9  1  0  0  0  0
  9 10  1  0  0  0  0
  9 31  1  0  0  0  0
 10 11  1  0  0  0  0
 10 32  1  0  0  0  0
 10 33  1  0  0  0  0
 11 12  1  0  0  0  0
 11 13  1  0  0  0  0
 11 34  1  0  0  0  0
 12 35  1  0  0  0  0
 12 36  1  0  0  0  0
 12 37  1  0  0  0  0
 13 17  1  0  0  0  0
 13 14  2  0  0  0  0
 14 15  1  0  0  0  0
 15 16  2  0  0  0  0
 16 17  1  0  0  0  0
 16 38  1  0  0  0  0
 17 18  1  0  0  0  0
 18 39  1  0  0  0  0
 18 40  1  0  0  0  0
 18 41  1  0  0  0  0
 19 20  1  0  0  0  0
 19 21  1  0  0  0  0
 20 42  1  0  0  0  0
 20 43  1  0  0  0  0
 20 44  1  0  0  0  0
 21 45  1  0  0  0  0
 21 46  1  0  0  0  0
 21 47  1  0  0  0  0
M  END
> <s_m_source_file>
AV-unprocessed.smi

> <i_m_source_file_index>
2718

> <i_lp_mmshare_version>
43012

> <i_f3d_flags>
0

> <s_epik_input>
W0NIM11DKFtDSDNdKT1bQ0hdW0NAQEhdKEMxKFtDSDNdKVtDSDNdKVtDQEhdMUMoPU8pW05IXVtDSDJdW0NASF0oW0NIM10pYzJubltjSF1uMltDSDNd

> <s_epik_cmdline>
J2VwaWtfcHl0aG9uJywgJy1waCcsICc3LjAnLCAnLXRuJywgJzgnLCAnLW1hJywgJzIwMCcsICctbWV0YWxfYmluZGluZycsICctaW1hZScsICc8aW5maWxlLm1hZT4nLCAnLW9tYWUnLCAnPG91dGZpbGUubWFlPic=

> <r_lp_tautomer_probability>
1

> <r_epik_Ionization_Penalty>
0.000449586

> <r_epik_Ionization_Penalty_Charging>
0

> <r_epik_Ionization_Penalty_Neutral>
0.000449586

> <r_epik_State_Penalty>
0.000243372

> <r_epik_Charging_Adjusted_Penalty>
0.000243372

> <i_epik_Tot_Q>
0

> <i_epik_Tot_abs_Q>
0

> <r_epik_Metal_State_Penalty>
-0

> <b_epik_Metal_Only>
0

> <s_lp_Force_Field>
OPLS_2005

> <r_lp_Energy>
16.2745

> <b_lp_Chiralities_Consistent>
1

> <s_lp_Variant>
AV-unprocessed.smi:2718-2

> <Gold.Version>
5.8.1

> <Gold.Id.Protein>
6NUR|6NUR_protein|mol2

> <Gold.PLP.Fitness>
44.7391

> <Gold.PLP.PLP>
-39.2955

> <Gold.PLP.part.hbond>
-2.1226

> <Gold.PLP.part.metal>
0.0000

> <Gold.PLP.part.buried>
-1.4008

> <Gold.PLP.part.nonpolar>
-34.7362

> <Gold.PLP.part.repulsive>
0.2701

> <Gold.PLP.ligand.clash>
0.0000

> <Gold.PLP.ligand.torsion>
0.4289

> <Gold.PLP.Chemscore.Hbond>
2.0000

> <Gold.PLP.Chemscore.CHOScore>
0.0000

> <Gold.PLP.Chemscore.Metal>
0.0000

> <Gold.Chemscore.Hbonds>
donor molecule, donor type, donor heavy atom, donor atom, acceptor molecule, acceptor atom, score
      L1  H     9    31       P1  8028  0.80
      P1  H  7989  7998       L1     8  0.90

> <Gold.PLP.Chemscore.Internal.Correction>
0.3014

> <Gold.Rescore>
     Score         DG    S(hbond)    S(metal)    S(lipo)     H(rot)  DE(clash)    DE(int)     intcor
     12.21     -14.09       1.67        0.00      68.74       1.95       1.42       0.46       ----

> <Gold.Chemscore.Fitness>
12.2135

> <Gold.Chemscore.DG>
-14.0926

> <Gold.Chemscore.ZeroCoef>
-5.4800

> <Gold.Chemscore.Hbond>
1.6679

> <Gold.Chemscore.Metal>
0.0000

> <Gold.Chemscore.Lipo>
68.7399

> <Gold.Chemscore.Internal_Hbond>
0.0000

> <Gold.Chemscore.DEClash>
1.4239

> <Gold.Chemscore.DEInternal>
0.4553

> <Gold.Chemscore.Rot>
1.9533

> <Gold.Chemscore.Internal.Correction>
   9.000000E+99

> <Gold.Chemscore.Hbonds>
donor molecule, donor type, donor heavy atom, donor atom, acceptor molecule, acceptor atom, score
      L1  H     9    31       P1  8028  0.75
      P1  H  7989  7998       L1     8  0.83

> <Gold.Chemscore.Hbond.Weighted>
-5.5706

> <Gold.Chemscore.Metal.Weighted>
-0.0000

> <Gold.Chemscore.Lipo.Weighted>
-8.0426

> <Gold.Chemscore.Internal_Hbond.Weighted>
0.0000

> <Gold.Chemscore.DEClash.Weighted>
1.4239

> <Gold.Chemscore.DEInternal.Weighted>
0.4553

> <Gold.Chemscore.Rot.Weighted>
5.0005

> <Gold.Chemscore.Internal.Correction.Weighted>
   9.000000E+99

> <Gold.Protein.RotatedTorsions>
[ 6907 6896 6895 6894 ] final   14.49 input  -60.11 | X-H torsion
[ 7974 7965 7964 7962 ] final  -80.67 input  175.53 | X-H torsion
[ 8008 7997 7996 7995 ] final  -77.60 input   59.86 | X-H torsion
[ 10167 10162 10161 10158 ] final   83.55 input  -65.29 | X-H torsion
[ 10718 10713 10712 10709 ] final    9.12 input   66.30 | X-H torsion
[ 10763 10752 10751 10750 ] final -131.37 input  -60.55 | X-H torsion
[ 11005 11000 10999 10996 ] final   44.91 input  -57.11 | X-H torsion

> <Gold.Protein.ActiveResidues>
 VAL166  LYS551  ARG553  GLY616  TRP617  ASP618  TYR619  PRO620  LYS621  CYS622 
 ASP623  PHE694  ASN695  SER759  ASP760  ASP761  ALA762  ILE779  LEU786  VAL792 
 PHE793  MET794  SER795  GLU796  ALA797  LYS798  CYS799  TRP800  GLU811  SER814 

> <Gold.Protein.RotatedAtoms>
  151.8030  135.0703  160.0402 H   0  0  0  0  0  0  0  0  0  0  0  0  # atno 6907 bound_to 6896
  152.3075  133.5714  159.5667 H   0  0  0  0  0  0  0  0  0  0  0  0  # atno 6908 bound_to 6896
  150.7303  134.0117  159.3714 H   0  0  0  0  0  0  0  0  0  0  0  0  # atno 6909 bound_to 6896
  145.5568  140.9488  143.1469 H   0  0  0  0  0  0  0  0  0  0  0  0  # atno 7974 bound_to 7965
  154.5611  140.0708  156.8820 H   0  0  0  0  0  0  0  0  0  0  0  0  # atno 8008 bound_to 7997
  155.2810  140.3371  155.4240 H   0  0  0  0  0  0  0  0  0  0  0  0  # atno 8009 bound_to 7997
  156.2043  140.1734  156.7820 H   0  0  0  0  0  0  0  0  0  0  0  0  # atno 8010 bound_to 7997
  139.9172  144.6235  150.8477 H   0  0  0  0  0  0  0  0  0  0  0  0  # atno 10167 bound_to 10162
  156.9616  130.5935  149.5662 H   0  0  0  0  0  0  0  0  0  0  0  0  # atno 10718 bound_to 10713
  154.8751  135.3832  154.4236 H   0  0  0  0  0  0  0  0  0  0  0  0  # atno 10763 bound_to 10752
  153.4937  135.7030  153.5875 H   0  0  0  0  0  0  0  0  0  0  0  0  # atno 10764 bound_to 10752
  153.4237  135.3895  155.2094 H   0  0  0  0  0  0  0  0  0  0  0  0  # atno 10765 bound_to 10752
  140.1508  134.4464  155.8383 H   0  0  0  0  0  0  0  0  0  0  0  0  # atno 11005 bound_to 11000
  144.7502  139.7214  143.7276 LP  0  0  0  0  0  0  0  0  0  0  0  0  # atno 17320 bound_to 7965
  146.1878  139.5103  142.9824 LP  0  0  0  0  0  0  0  0  0  0  0  0  # atno 17321 bound_to 7965
  140.7671  143.3323  151.2384 LP  0  0  0  0  0  0  0  0  0  0  0  0  # atno 17342 bound_to 10162
  139.6892  143.9721  152.2850 LP  0  0  0  0  0  0  0  0  0  0  0  0  # atno 17343 bound_to 10162
  156.0320  130.5410  150.8557 LP  0  0  0  0  0  0  0  0  0  0  0  0  # atno 17370 bound_to 10713
  157.5653  131.0946  150.9498 LP  0  0  0  0  0  0  0  0  0  0  0  0  # atno 17371 bound_to 10713
  141.2198  133.6872  156.7419 LP  0  0  0  0  0  0  0  0  0  0  0  0  # atno 17394 bound_to 11000
  140.2607  134.8469  157.3755 LP  0  0  0  0  0  0  0  0  0  0  0  0  # atno 17395 bound_to 11000

$$$$
