AV-unprocessed.smi:2093|AV-procd|sdf|8548|dock9
  -GOLD-   2272011273D 1   1.00000     0.00000
 Structure written by MMmdl.
 30 31  0  0  0  0  0  0  0  0  2 V2000
  152.6571  141.6098  160.9695 C   0  0  0  0  0  0  0  0  0  0  0  0
  151.8150  141.5841  159.6809 C   0  0  2  0  0  0  0  0  0  0  0  0
  152.5436  140.8770  158.6295 N   0  0  0  0  0  0  0  0  0  0  0  0
  152.1076  139.8124  157.9407 C   0  0  0  0  0  0  0  0  0  0  0  0
  150.9974  139.3335  158.1836 O   0  0  0  0  0  0  0  0  0  0  0  0
  152.9862  139.3679  157.0133 N   0  5  0  0  0  0  0  0  0  0  0  0
  152.5490  138.9788  155.8046 C   0  0  0  0  0  0  0  0  0  0  0  0
  153.0759  137.9456  155.1376 N   0  0  0  0  0  0  0  0  0  0  0  0
  152.4748  137.7204  153.8980 C   0  0  0  0  0  0  0  0  0  0  0  0
  151.4728  138.6084  153.6099 C   0  0  0  0  0  0  0  0  0  0  0  0
  151.2533  139.7617  154.8949 S   0  0  0  0  0  0  0  0  0  0  0  0
  151.4634  143.0007  159.1856 C   0  0  2  0  0  0  0  0  0  0  0  0
  152.6667  143.9208  158.9753 C   0  0  0  0  0  0  0  0  0  0  0  0
  152.0298  145.2876  159.0754 C   0  0  0  0  0  0  0  0  0  0  0  0
  150.9916  145.0743  160.1732 C   0  0  0  0  0  0  0  0  0  0  0  0
  150.6678  143.6864  160.1506 O   0  0  0  0  0  0  0  0  0  0  0  0
  152.1197  142.0905  161.7869 H   0  0  0  0  0  0  0  0  0  0  0  0
  153.5920  142.1510  160.8206 H   0  0  0  0  0  0  0  0  0  0  0  0
  152.9069  140.6009  161.2995 H   0  0  0  0  0  0  0  0  0  0  0  0
  150.8823  141.0542  159.8828 H   0  0  0  0  0  0  0  0  0  0  0  0
  153.4568  141.2356  158.3920 H   0  0  0  0  0  0  0  0  0  0  0  0
  152.8258  136.9044  153.2842 H   0  0  0  0  0  0  0  0  0  0  0  0
  150.8551  138.6562  152.7262 H   0  0  0  0  0  0  0  0  0  0  0  0
  150.8890  142.9465  158.2590 H   0  0  0  0  0  0  0  0  0  0  0  0
  153.3966  143.7897  159.7754 H   0  0  0  0  0  0  0  0  0  0  0  0
  153.1689  143.7559  158.0217 H   0  0  0  0  0  0  0  0  0  0  0  0
  152.7430  146.0782  159.3105 H   0  0  0  0  0  0  0  0  0  0  0  0
  151.5368  145.5392  158.1352 H   0  0  0  0  0  0  0  0  0  0  0  0
  151.4111  145.3146  161.1508 H   0  0  0  0  0  0  0  0  0  0  0  0
  150.1044  145.6902  160.0247 H   0  0  0  0  0  0  0  0  0  0  0  0
  1  2  1  0  0  0  0
  1 17  1  0  0  0  0
  1 18  1  0  0  0  0
  1 19  1  0  0  0  0
  2  3  1  0  0  0  0
  2 12  1  0  0  0  0
  2 20  1  0  0  0  0
  3  4  1  0  0  0  0
  3 21  1  0  0  0  0
  4  5  2  0  0  0  0
  4  6  1  0  0  0  0
  6  7  1  0  0  0  0
  7 11  1  0  0  0  0
  7  8  2  0  0  0  0
  8  9  1  0  0  0  0
  9 10  2  0  0  0  0
  9 22  1  0  0  0  0
 10 11  1  0  0  0  0
 10 23  1  0  0  0  0
 12 16  1  0  0  0  0
 12 13  1  0  0  0  0
 12 24  1  0  0  0  0
 13 14  1  0  0  0  0
 13 25  1  0  0  0  0
 13 26  1  0  0  0  0
 14 15  1  0  0  0  0
 14 27  1  0  0  0  0
 14 28  1  0  0  0  0
 15 16  1  0  0  0  0
 15 29  1  0  0  0  0
 15 30  1  0  0  0  0
M  CHG  1   6  -1
M  END
> <s_m_source_file>
AV-unprocessed.smi

> <i_m_source_file_index>
2093

> <i_lp_mmshare_version>
43012

> <i_f3d_flags>
0

> <s_epik_input>
TzFbQ0gyXVtDSDJdW0NIMl1bQ0BIXTFbQ0BIXShbQ0gzXSlbTkhdQyg9TylbTkhdYzJuW2NIXVtjSF1zMg==

> <s_epik_cmdline>
J2VwaWtfcHl0aG9uJywgJy1waCcsICc3LjAnLCAnLXRuJywgJzgnLCAnLW1hJywgJzIwMCcsICctbWV0YWxfYmluZGluZycsICctaW1hZScsICc8aW5maWxlLm1hZT4nLCAnLW9tYWUnLCAnPG91dGZpbGUubWFlPic=

> <r_lp_tautomer_probability>
0.999

> <r_epik_Ionization_Penalty>
8.26346

> <r_epik_Ionization_Penalty_Charging>
6.6559

> <r_epik_Ionization_Penalty_Neutral>
1.60756

> <r_epik_State_Penalty>
6.65607

> <r_epik_Charging_Adjusted_Penalty>
13.312

> <i_epik_Tot_Q>
-1

> <i_epik_Tot_abs_Q>
1

> <r_epik_Metal_State_Penalty>
2.5789

> <b_epik_Metal_Only>
1

> <s_lp_Force_Field>
OPLS_2005

> <r_lp_Energy>
13.8271

> <b_lp_Chiralities_Consistent>
1

> <s_lp_Variant>
AV-unprocessed.smi:2093-5

> <Gold.Version>
5.8.1

> <Gold.Id.Protein>
6NUR|6NUR_protein|mol2

> <Gold.PLP.Fitness>
47.9214

> <Gold.PLP.PLP>
-35.3431

> <Gold.PLP.part.hbond>
-2.0954

> <Gold.PLP.part.metal>
0.0000

> <Gold.PLP.part.buried>
-2.0211

> <Gold.PLP.part.nonpolar>
-30.7794

> <Gold.PLP.part.repulsive>
0.2167

> <Gold.PLP.ligand.clash>
0.0000

> <Gold.PLP.ligand.torsion>
0.6610

> <Gold.PLP.Chemscore.Hbond>
2.0000

> <Gold.PLP.Chemscore.CHOScore>
2.6242

> <Gold.PLP.Chemscore.Metal>
0.0000

> <Gold.Chemscore.Hbonds>
donor molecule, donor type, donor heavy atom, donor atom, acceptor molecule, acceptor atom, score
      P1  H  7997  8008       L1     6  2.00
      L1  C     9    22       P1  7949  0.64
      L1  C    10    23       P1  7957  0.63

> <Gold.PLP.Chemscore.Internal.Correction>
0.0276

> <Gold.Rescore>
     Score         DG    S(hbond)    S(metal)    S(lipo)     H(rot)  DE(clash)    DE(int)     intcor
     14.78     -16.25       0.87        0.00      95.00       1.28       0.36       1.10       ----

> <Gold.Chemscore.Fitness>
14.7775

> <Gold.Chemscore.DG>
-16.2453

> <Gold.Chemscore.ZeroCoef>
-5.4800

> <Gold.Chemscore.Hbond>
0.8746

> <Gold.Chemscore.Metal>
0.0000

> <Gold.Chemscore.Lipo>
95.0007

> <Gold.Chemscore.Internal_Hbond>
0.0000

> <Gold.Chemscore.DEClash>
0.3641

> <Gold.Chemscore.DEInternal>
1.1036

> <Gold.Chemscore.Rot>
1.2778

> <Gold.Chemscore.Internal.Correction>
   9.000000E+99

> <Gold.Chemscore.Hbonds>
donor molecule, donor type, donor heavy atom, donor atom, acceptor molecule, acceptor atom, score
      P1  H  7997  8008       L1     6  0.49

> <Gold.Chemscore.Hbond.Weighted>
-2.9213

> <Gold.Chemscore.Metal.Weighted>
-0.0000

> <Gold.Chemscore.Lipo.Weighted>
-11.1151

> <Gold.Chemscore.Internal_Hbond.Weighted>
0.0000

> <Gold.Chemscore.DEClash.Weighted>
0.3641

> <Gold.Chemscore.DEInternal.Weighted>
1.1036

> <Gold.Chemscore.Rot.Weighted>
3.2711

> <Gold.Chemscore.Internal.Correction.Weighted>
   9.000000E+99

> <Gold.Protein.RotatedTorsions>
[ 6907 6896 6895 6894 ] final   74.03 input  -60.11 | X-H torsion
[ 7974 7965 7964 7962 ] final   86.41 input  175.53 | X-H torsion
[ 8008 7997 7996 7995 ] final  -66.84 input   59.86 | X-H torsion
[ 10167 10162 10161 10158 ] final  -17.43 input  -65.29 | X-H torsion
[ 10718 10713 10712 10709 ] final -170.92 input   66.30 | X-H torsion
[ 10763 10752 10751 10750 ] final   64.64 input  -60.55 | X-H torsion
[ 11005 11000 10999 10996 ] final -177.66 input  -57.11 | X-H torsion

> <Gold.Protein.ActiveResidues>
 VAL166  LYS551  ARG553  GLY616  TRP617  ASP618  TYR619  PRO620  LYS621  CYS622 
 ASP623  PHE694  ASN695  SER759  ASP760  ASP761  ALA762  ILE779  LEU786  VAL792 
 PHE793  MET794  SER795  GLU796  ALA797  LYS798  CYS799  TRP800  GLU811  SER814 

> <Gold.Protein.RotatedAtoms>
  152.4954  134.4333  159.9519 H   0  0  0  0  0  0  0  0  0  0  0  0  # atno 6907 bound_to 6896
  151.4313  133.3663  159.2777 H   0  0  0  0  0  0  0  0  0  0  0  0  # atno 6908 bound_to 6896
  150.9153  134.8593  159.7512 H   0  0  0  0  0  0  0  0  0  0  0  0  # atno 6909 bound_to 6896
  145.5727  139.2315  143.2397 H   0  0  0  0  0  0  0  0  0  0  0  0  # atno 7974 bound_to 7965
  154.4760  140.0904  156.7263 H   0  0  0  0  0  0  0  0  0  0  0  0  # atno 8008 bound_to 7997
  155.4595  140.3460  155.4292 H   0  0  0  0  0  0  0  0  0  0  0  0  # atno 8009 bound_to 7997
  156.1117  140.1449  156.9317 H   0  0  0  0  0  0  0  0  0  0  0  0  # atno 8010 bound_to 7997
  140.7247  143.5016  150.9862 H   0  0  0  0  0  0  0  0  0  0  0  0  # atno 10167 bound_to 10162
  156.7333  130.9314  151.3106 H   0  0  0  0  0  0  0  0  0  0  0  0  # atno 10718 bound_to 10713
  153.0064  135.5386  154.6541 H   0  0  0  0  0  0  0  0  0  0  0  0  # atno 10763 bound_to 10752
  154.5766  135.2846  155.0777 H   0  0  0  0  0  0  0  0  0  0  0  0  # atno 10764 bound_to 10752
  154.1922  135.6498  153.5115 H   0  0  0  0  0  0  0  0  0  0  0  0  # atno 10765 bound_to 10752
  140.4385  134.6453  157.4746 H   0  0  0  0  0  0  0  0  0  0  0  0  # atno 11005 bound_to 11000
  146.1773  140.6553  142.9205 LP  0  0  0  0  0  0  0  0  0  0  0  0  # atno 17320 bound_to 7965
  144.7430  140.4994  143.6855 LP  0  0  0  0  0  0  0  0  0  0  0  0  # atno 17321 bound_to 7965
  139.8726  143.7173  152.3165 LP  0  0  0  0  0  0  0  0  0  0  0  0  # atno 17342 bound_to 10162
  139.7427  144.7555  151.0627 LP  0  0  0  0  0  0  0  0  0  0  0  0  # atno 17343 bound_to 10162
  157.6850  130.9176  150.0362 LP  0  0  0  0  0  0  0  0  0  0  0  0  # atno 17370 bound_to 10713
  156.1514  130.3642  149.9432 LP  0  0  0  0  0  0  0  0  0  0  0  0  # atno 17371 bound_to 10713
  140.0086  134.6725  155.9416 LP  0  0  0  0  0  0  0  0  0  0  0  0  # atno 17394 bound_to 11000
  141.1716  133.6537  156.4671 LP  0  0  0  0  0  0  0  0  0  0  0  0  # atno 17395 bound_to 11000

$$$$
