AV-unprocessed.smi:1246|AV-procd|sdf|5241|dock7
  -GOLD-   22720 4353D 1   1.00000     0.00000
 Structure written by MMmdl.
 35 36  0  0  0  0  0  0  0  0  1 V2000
  150.8209  142.1550  156.3884 C   0  0  0  0  0  0  0  0  0  0  0  0
  150.5069  140.9336  155.5756 C   0  0  0  0  0  0  0  0  0  0  0  0
  149.2863  140.6083  154.9155 C   0  0  0  0  0  0  0  0  0  0  0  0
  149.5678  139.3983  154.3423 C   0  0  0  0  0  0  0  0  0  0  0  0
  148.7657  138.6021  153.5866 N   0  0  0  0  0  0  0  0  0  0  0  0
  147.4242  138.6006  153.4990 C   0  0  0  0  0  0  0  0  0  0  0  0
  146.6667  139.3560  154.1084 O   0  0  0  0  0  0  0  0  0  0  0  0
  146.9980  137.6599  152.6447 N   0  0  0  0  0  0  0  0  0  0  0  0
  145.6026  137.4077  152.3040 C   0  0  0  0  0  0  0  0  0  0  0  0
  145.4502  136.1388  151.4493 C   0  0  2  0  0  0  0  0  0  0  0  0
  144.0117  135.6433  151.3346 C   0  0  0  0  0  0  0  0  0  0  0  0
  144.2226  134.1970  150.9462 C   0  0  0  0  0  0  0  0  0  0  0  0
  145.4744  133.8213  151.7389 C   0  0  0  0  0  0  0  0  0  0  0  0
  146.1420  135.0447  152.0421 O   0  0  0  0  0  0  0  0  0  0  0  0
  150.8636  139.0498  154.6516 N   0  0  0  0  0  0  0  0  0  0  0  0
  151.6124  137.8656  154.2786 C   0  0  0  0  0  0  0  0  0  0  0  0
  151.4408  140.0028  155.4149 N   0  0  0  0  0  0  0  0  0  0  0  0
  149.9621  142.8244  156.4416 H   0  0  0  0  0  0  0  0  0  0  0  0
  151.6501  142.7131  155.9533 H   0  0  0  0  0  0  0  0  0  0  0  0
  151.0965  141.8877  157.4087 H   0  0  0  0  0  0  0  0  0  0  0  0
  148.3711  141.1798  154.8828 H   0  0  0  0  0  0  0  0  0  0  0  0
  149.2486  137.9268  153.0124 H   0  0  0  0  0  0  0  0  0  0  0  0
  147.6877  137.0859  152.1827 H   0  0  0  0  0  0  0  0  0  0  0  0
  145.0355  137.3069  153.2296 H   0  0  0  0  0  0  0  0  0  0  0  0
  145.1878  138.2696  151.7788 H   0  0  0  0  0  0  0  0  0  0  0  0
  145.8526  136.2980  150.4472 H   0  0  0  0  0  0  0  0  0  0  0  0
  143.5058  135.7015  152.2995 H   0  0  0  0  0  0  0  0  0  0  0  0
  143.4256  136.2014  150.6041 H   0  0  0  0  0  0  0  0  0  0  0  0
  143.3665  133.5619  151.1749 H   0  0  0  0  0  0  0  0  0  0  0  0
  144.4226  134.1266  149.8761 H   0  0  0  0  0  0  0  0  0  0  0  0
  145.2088  133.3292  152.6750 H   0  0  0  0  0  0  0  0  0  0  0  0
  146.1232  133.1500  151.1759 H   0  0  0  0  0  0  0  0  0  0  0  0
  151.5908  137.7436  153.1957 H   0  0  0  0  0  0  0  0  0  0  0  0
  151.1640  136.9887  154.7455 H   0  0  0  0  0  0  0  0  0  0  0  0
  152.6503  137.9485  154.6036 H   0  0  0  0  0  0  0  0  0  0  0  0
  1  2  1  0  0  0  0
  1 18  1  0  0  0  0
  1 19  1  0  0  0  0
  1 20  1  0  0  0  0
  2 17  2  0  0  0  0
  2  3  1  0  0  0  0
  3  4  2  0  0  0  0
  3 21  1  0  0  0  0
  4  5  1  0  0  0  0
  4 15  1  0  0  0  0
  5  6  1  0  0  0  0
  5 22  1  0  0  0  0
  6  7  2  0  0  0  0
  6  8  1  0  0  0  0
  8  9  1  0  0  0  0
  8 23  1  0  0  0  0
  9 10  1  0  0  0  0
  9 24  1  0  0  0  0
  9 25  1  0  0  0  0
 10 14  1  0  0  0  0
 10 11  1  0  0  0  0
 10 26  1  0  0  0  0
 11 12  1  0  0  0  0
 11 27  1  0  0  0  0
 11 28  1  0  0  0  0
 12 13  1  0  0  0  0
 12 29  1  0  0  0  0
 12 30  1  0  0  0  0
 13 14  1  0  0  0  0
 13 31  1  0  0  0  0
 13 32  1  0  0  0  0
 15 16  1  0  0  0  0
 15 17  1  0  0  0  0
 16 33  1  0  0  0  0
 16 34  1  0  0  0  0
 16 35  1  0  0  0  0
M  END
> <s_m_source_file>
AV-unprocessed.smi

> <i_m_source_file_index>
1246

> <i_lp_mmshare_version>
43012

> <i_f3d_flags>
0

> <s_epik_input>
W0NIM11jMVtjSF1jKG4objEpW0NIM10pW05IXUMoPU8pW05IXVtDSDJdW0NAQEhdMltDSDJdW0NIMl1bQ0gyXU8y

> <s_epik_cmdline>
J2VwaWtfcHl0aG9uJywgJy1waCcsICc3LjAnLCAnLXRuJywgJzgnLCAnLW1hJywgJzIwMCcsICctbWV0YWxfYmluZGluZycsICctaW1hZScsICc8aW5maWxlLm1hZT4nLCAnLW9tYWUnLCAnPG91dGZpbGUubWFlPic=

> <r_lp_tautomer_probability>
1

> <r_epik_Ionization_Penalty>
9.6187e-05

> <r_epik_Ionization_Penalty_Charging>
0

> <r_epik_Ionization_Penalty_Neutral>
9.6187e-05

> <r_epik_State_Penalty>
-0

> <r_epik_Charging_Adjusted_Penalty>
0

> <i_epik_Tot_Q>
0

> <i_epik_Tot_abs_Q>
0

> <r_epik_Metal_State_Penalty>
-0

> <b_epik_Metal_Only>
0

> <s_lp_Force_Field>
OPLS_2005

> <r_lp_Energy>
17.9178

> <b_lp_Chiralities_Consistent>
1

> <s_lp_Variant>
AV-unprocessed.smi:1246-1

> <Gold.Version>
5.8.1

> <Gold.Id.Protein>
6NUR|6NUR_protein|mol2

> <Gold.PLP.Fitness>
37.4606

> <Gold.PLP.PLP>
-32.2128

> <Gold.PLP.part.hbond>
-3.9276

> <Gold.PLP.part.metal>
0.0000

> <Gold.PLP.part.buried>
-4.2838

> <Gold.PLP.part.nonpolar>
-26.9503

> <Gold.PLP.part.repulsive>
1.1483

> <Gold.PLP.ligand.clash>
0.0000

> <Gold.PLP.ligand.torsion>
0.1872

> <Gold.PLP.Chemscore.Hbond>
1.8723

> <Gold.PLP.Chemscore.CHOScore>
0.0000

> <Gold.PLP.Chemscore.Metal>
0.0000

> <Gold.Chemscore.Hbonds>
donor molecule, donor type, donor heavy atom, donor atom, acceptor molecule, acceptor atom, score
      L1  H     5    22       P1  7948  0.86
      L1  H     8    23       P1  7948  1.00

> <Gold.PLP.Chemscore.Internal.Correction>
0.0053

> <Gold.Rescore>
     Score         DG    S(hbond)    S(metal)    S(lipo)     H(rot)  DE(clash)    DE(int)     intcor
     14.24     -15.44       1.93        0.00      57.50       1.25       0.06       1.14       ----

> <Gold.Chemscore.Fitness>
14.2433

> <Gold.Chemscore.DG>
-15.4442

> <Gold.Chemscore.ZeroCoef>
-5.4800

> <Gold.Chemscore.Hbond>
1.9254

> <Gold.Chemscore.Metal>
0.0000

> <Gold.Chemscore.Lipo>
57.5012

> <Gold.Chemscore.Internal_Hbond>
0.0000

> <Gold.Chemscore.DEClash>
0.0635

> <Gold.Chemscore.DEInternal>
1.1373

> <Gold.Chemscore.Rot>
1.2478

> <Gold.Chemscore.Internal.Correction>
   9.000000E+99

> <Gold.Chemscore.Hbonds>
donor molecule, donor type, donor heavy atom, donor atom, acceptor molecule, acceptor atom, score
      L1  H     5    22       P1  7948  0.78
      L1  H     8    23       P1  7948  0.94

> <Gold.Chemscore.Hbond.Weighted>
-6.4310

> <Gold.Chemscore.Metal.Weighted>
-0.0000

> <Gold.Chemscore.Lipo.Weighted>
-6.7276

> <Gold.Chemscore.Internal_Hbond.Weighted>
0.0000

> <Gold.Chemscore.DEClash.Weighted>
0.0635

> <Gold.Chemscore.DEInternal.Weighted>
1.1373

> <Gold.Chemscore.Rot.Weighted>
3.1944

> <Gold.Chemscore.Internal.Correction.Weighted>
   9.000000E+99

> <Gold.Protein.RotatedTorsions>
[ 6907 6896 6895 6894 ] final   32.16 input  -60.11 | X-H torsion
[ 7974 7965 7964 7962 ] final   42.75 input  175.53 | X-H torsion
[ 8008 7997 7996 7995 ] final  -76.68 input   59.86 | X-H torsion
[ 10167 10162 10161 10158 ] final  159.84 input  -65.29 | X-H torsion
[ 10718 10713 10712 10709 ] final -108.25 input   66.30 | X-H torsion
[ 10763 10752 10751 10750 ] final  -49.73 input  -60.55 | X-H torsion
[ 11005 11000 10999 10996 ] final  -65.86 input  -57.11 | X-H torsion

> <Gold.Protein.ActiveResidues>
 VAL166  LYS551  ARG553  GLY616  TRP617  ASP618  TYR619  PRO620  LYS621  CYS622 
 ASP623  PHE694  ASN695  SER759  ASP760  ASP761  ALA762  ILE779  LEU786  VAL792 
 PHE793  MET794  SER795  GLU796  ALA797  LYS798  CYS799  TRP800  GLU811  SER814 

> <Gold.Protein.RotatedAtoms>
  152.0705  134.9536  160.0574 H   0  0  0  0  0  0  0  0  0  0  0  0  # atno 6907 bound_to 6896
  152.0864  133.4173  159.4532 H   0  0  0  0  0  0  0  0  0  0  0  0  # atno 6908 bound_to 6896
  150.6836  134.2842  159.4683 H   0  0  0  0  0  0  0  0  0  0  0  0  # atno 6909 bound_to 6896
  146.0714  139.5265  142.9595 H   0  0  0  0  0  0  0  0  0  0  0  0  # atno 7974 bound_to 7965
  154.5527  140.0723  156.8694 H   0  0  0  0  0  0  0  0  0  0  0  0  # atno 8008 bound_to 7997
  155.2961  140.3381  155.4232 H   0  0  0  0  0  0  0  0  0  0  0  0  # atno 8009 bound_to 7997
  156.1975  140.1709  156.7953 H   0  0  0  0  0  0  0  0  0  0  0  0  # atno 8010 bound_to 7997
  139.4835  144.4691  151.8600 H   0  0  0  0  0  0  0  0  0  0  0  0  # atno 10167 bound_to 10162
  156.0476  130.5703  150.7935 H   0  0  0  0  0  0  0  0  0  0  0  0  # atno 10718 bound_to 10713
  154.0988  135.6566  153.4865 H   0  0  0  0  0  0  0  0  0  0  0  0  # atno 10763 bound_to 10752
  153.0296  135.5220  154.7307 H   0  0  0  0  0  0  0  0  0  0  0  0  # atno 10764 bound_to 10752
  154.6453  135.2994  155.0023 H   0  0  0  0  0  0  0  0  0  0  0  0  # atno 10765 bound_to 10752
  141.1466  133.6689  156.6051 H   0  0  0  0  0  0  0  0  0  0  0  0  # atno 11005 bound_to 11000
  145.6385  141.0289  143.1825 LP  0  0  0  0  0  0  0  0  0  0  0  0  # atno 17320 bound_to 7965
  144.7234  139.7955  143.7374 LP  0  0  0  0  0  0  0  0  0  0  0  0  # atno 17321 bound_to 7965
  140.4159  144.2308  150.5888 LP  0  0  0  0  0  0  0  0  0  0  0  0  # atno 17342 bound_to 10162
  140.4921  143.2344  151.8803 LP  0  0  0  0  0  0  0  0  0  0  0  0  # atno 17343 bound_to 10162
  157.5369  131.0939  150.9880 LP  0  0  0  0  0  0  0  0  0  0  0  0  # atno 17370 bound_to 10713
  157.0172  130.5660  149.5327 LP  0  0  0  0  0  0  0  0  0  0  0  0  # atno 17371 bound_to 10713
  140.3658  134.7648  157.4565 LP  0  0  0  0  0  0  0  0  0  0  0  0  # atno 17394 bound_to 11000
  140.0749  134.5811  155.8602 LP  0  0  0  0  0  0  0  0  0  0  0  0  # atno 17395 bound_to 11000

$$$$
