AV-unprocessed.smi:1102|AV-procd|sdf|4768|dock5
  -GOLD-   22720 3303D 1   1.00000     0.00000
 Structure written by MMmdl.
 40 41  0  0  0  0  0  0  0  0  2 V2000
  151.4868  144.3894  157.6076 C   0  0  0  0  0  0  0  0  0  0  0  0
  151.6507  142.9483  157.7639 N   0  0  0  0  0  0  0  0  0  0  0  0
  152.4267  142.4120  158.8743 C   0  0  0  0  0  0  0  0  0  0  0  0
  151.0663  142.0703  156.8256 C   0  0  0  0  0  0  0  0  0  0  0  0
  151.4631  140.7189  156.6751 C   0  0  0  0  0  0  0  0  0  0  0  0
  150.8298  139.9046  155.7140 C   0  0  0  0  0  0  0  0  0  0  0  0
  149.7982  140.4355  154.9118 C   0  0  0  0  0  0  0  0  0  0  0  0
  149.2001  139.5780  153.9482 N   0  0  0  0  0  0  0  0  0  0  0  0
  147.9529  139.6163  153.4482 C   0  0  0  0  0  0  0  0  0  0  0  0
  147.0794  140.4186  153.7758 O   0  0  0  0  0  0  0  0  0  0  0  0
  147.7641  138.6431  152.5460 N   0  0  0  0  0  0  0  0  0  0  0  0
  146.5222  138.3883  151.8222 C   0  0  0  0  0  0  0  0  0  0  0  0
  145.8778  137.0562  152.2417 C   0  0  1  0  0  0  0  0  0  0  0  0
  144.3910  137.1337  152.5906 C   0  0  0  0  0  0  0  0  0  0  0  0
  143.9501  135.7081  152.3521 C   0  0  0  0  0  0  0  0  0  0  0  0
  144.7614  135.3350  151.1147 C   0  0  0  0  0  0  0  0  0  0  0  0
  145.9534  136.1156  151.1736 O   0  0  0  0  0  0  0  0  0  0  0  0
  149.4445  141.7938  155.0925 C   0  0  0  0  0  0  0  0  0  0  0  0
  150.0786  142.5383  156.0241 N   0  3  0  0  0  0  0  0  0  0  0  0
  151.8953  144.7195  156.6519 H   0  0  0  0  0  0  0  0  0  0  0  0
  152.0027  144.9363  158.3971 H   0  0  0  0  0  0  0  0  0  0  0  0
  150.4316  144.6618  157.6474 H   0  0  0  0  0  0  0  0  0  0  0  0
  153.2909  141.8583  158.5061 H   0  0  0  0  0  0  0  0  0  0  0  0
  151.8160  141.7436  159.4820 H   0  0  0  0  0  0  0  0  0  0  0  0
  152.7925  143.2081  159.5229 H   0  0  0  0  0  0  0  0  0  0  0  0
  152.2474  140.2908  157.2813 H   0  0  0  0  0  0  0  0  0  0  0  0
  151.1359  138.8749  155.5994 H   0  0  0  0  0  0  0  0  0  0  0  0
  149.7794  138.8156  153.6280 H   0  0  0  0  0  0  0  0  0  0  0  0
  148.5376  138.0269  152.3427 H   0  0  0  0  0  0  0  0  0  0  0  0
  145.8166  139.2114  151.9467 H   0  0  0  0  0  0  0  0  0  0  0  0
  146.7622  138.3535  150.7594 H   0  0  0  0  0  0  0  0  0  0  0  0
  146.4215  136.6298  153.0864 H   0  0  0  0  0  0  0  0  0  0  0  0
  144.2081  137.4744  153.6101 H   0  0  0  0  0  0  0  0  0  0  0  0
  143.8686  137.8037  151.9062 H   0  0  0  0  0  0  0  0  0  0  0  0
  144.2399  135.0808  153.1962 H   0  0  0  0  0  0  0  0  0  0  0  0
  142.8745  135.6084  152.2038 H   0  0  0  0  0  0  0  0  0  0  0  0
  144.9851  134.2687  151.0723 H   0  0  0  0  0  0  0  0  0  0  0  0
  144.2180  135.6029  150.2078 H   0  0  0  0  0  0  0  0  0  0  0  0
  148.6925  142.3239  154.5284 H   0  0  0  0  0  0  0  0  0  0  0  0
  149.7972  143.5133  156.1281 H   0  0  0  0  0  0  0  0  0  0  0  0
  1  2  1  0  0  0  0
  1 20  1  0  0  0  0
  1 21  1  0  0  0  0
  1 22  1  0  0  0  0
  2  3  1  0  0  0  0
  2  4  1  0  0  0  0
  3 23  1  0  0  0  0
  3 24  1  0  0  0  0
  3 25  1  0  0  0  0
  4 19  1  0  0  0  0
  4  5  2  0  0  0  0
  5  6  1  0  0  0  0
  5 26  1  0  0  0  0
  6  7  2  0  0  0  0
  6 27  1  0  0  0  0
  7  8  1  0  0  0  0
  7 18  1  0  0  0  0
  8  9  1  0  0  0  0
  8 28  1  0  0  0  0
  9 10  2  0  0  0  0
  9 11  1  0  0  0  0
 11 12  1  0  0  0  0
 11 29  1  0  0  0  0
 12 13  1  0  0  0  0
 12 30  1  0  0  0  0
 12 31  1  0  0  0  0
 13 17  1  0  0  0  0
 13 14  1  0  0  0  0
 13 32  1  0  0  0  0
 14 15  1  0  0  0  0
 14 33  1  0  0  0  0
 14 34  1  0  0  0  0
 15 16  1  0  0  0  0
 15 35  1  0  0  0  0
 15 36  1  0  0  0  0
 16 17  1  0  0  0  0
 16 37  1  0  0  0  0
 16 38  1  0  0  0  0
 18 19  2  0  0  0  0
 18 39  1  0  0  0  0
 19 40  1  0  0  0  0
M  CHG  1  19   1
M  END
> <s_m_source_file>
AV-unprocessed.smi

> <i_m_source_file_index>
1102

> <i_lp_mmshare_version>
43012

> <i_f3d_flags>
0

> <s_epik_input>
W0NIM11OKFtDSDNdKWMxW2NIXVtjSF1jKFtjSF1uMSlbTkhdQyg9TylbTkhdW0NIMl1bQ0BASF0yW0NIMl1bQ0gyXVtDSDJdTzI=

> <s_epik_cmdline>
J2VwaWtfcHl0aG9uJywgJy1waCcsICc3LjAnLCAnLXRuJywgJzgnLCAnLW1hJywgJzIwMCcsICctbWV0YWxfYmluZGluZycsICctaW1hZScsICc8aW5maWxlLm1hZT4nLCAnLW9tYWUnLCAnPG91dGZpbGUubWFlPic=

> <r_lp_tautomer_probability>
0.999994

> <r_epik_Ionization_Penalty>
0.265123

> <r_epik_Ionization_Penalty_Charging>
0.265104

> <r_epik_Ionization_Penalty_Neutral>
1.89079e-05

> <r_epik_State_Penalty>
0.257001

> <r_epik_Charging_Adjusted_Penalty>
0.522106

> <i_epik_Tot_Q>
1

> <i_epik_Tot_abs_Q>
1

> <r_epik_Metal_State_Penalty>
0.543599

> <b_epik_Metal_Only>
0

> <s_lp_Force_Field>
OPLS_2005

> <r_lp_Energy>
27.717

> <b_lp_Chiralities_Consistent>
1

> <s_lp_Variant>
AV-unprocessed.smi:1102-2

> <Gold.Version>
5.8.1

> <Gold.Id.Protein>
6NUR|6NUR_protein|mol2

> <Gold.PLP.Fitness>
44.7434

> <Gold.PLP.PLP>
-38.1256

> <Gold.PLP.part.hbond>
-3.9235

> <Gold.PLP.part.metal>
0.0000

> <Gold.PLP.part.buried>
-0.3283

> <Gold.PLP.part.nonpolar>
-34.4482

> <Gold.PLP.part.repulsive>
0.9580

> <Gold.PLP.ligand.clash>
0.0000

> <Gold.PLP.ligand.torsion>
1.0397

> <Gold.PLP.Chemscore.Hbond>
2.8960

> <Gold.PLP.Chemscore.CHOScore>
0.0000

> <Gold.PLP.Chemscore.Metal>
0.0000

> <Gold.Chemscore.Hbonds>
donor molecule, donor type, donor heavy atom, donor atom, acceptor molecule, acceptor atom, score
      L1  H    11    29       P1  7948  0.88
      L1  H    19    40       P1  8028  1.98

> <Gold.PLP.Chemscore.Internal.Correction>
0.0092

> <Gold.Rescore>
     Score         DG    S(hbond)    S(metal)    S(lipo)     H(rot)  DE(clash)    DE(int)     intcor
     15.48     -17.72       1.85        0.00      78.66       1.23       0.64       1.60       ----

> <Gold.Chemscore.Fitness>
15.4765

> <Gold.Chemscore.DG>
-17.7153

> <Gold.Chemscore.ZeroCoef>
-5.4800

> <Gold.Chemscore.Hbond>
1.8483

> <Gold.Chemscore.Metal>
0.0000

> <Gold.Chemscore.Lipo>
78.6552

> <Gold.Chemscore.Internal_Hbond>
0.0000

> <Gold.Chemscore.DEClash>
0.6426

> <Gold.Chemscore.DEInternal>
1.5962

> <Gold.Chemscore.Rot>
1.2268

> <Gold.Chemscore.Internal.Correction>
   9.000000E+99

> <Gold.Chemscore.Hbonds>
donor molecule, donor type, donor heavy atom, donor atom, acceptor molecule, acceptor atom, score
      L1  H    11    29       P1  7948  0.86
      L1  H    19    40       P1  8028  0.92

> <Gold.Chemscore.Hbond.Weighted>
-6.1732

> <Gold.Chemscore.Metal.Weighted>
-0.0000

> <Gold.Chemscore.Lipo.Weighted>
-9.2027

> <Gold.Chemscore.Internal_Hbond.Weighted>
0.0000

> <Gold.Chemscore.DEClash.Weighted>
0.6426

> <Gold.Chemscore.DEInternal.Weighted>
1.5962

> <Gold.Chemscore.Rot.Weighted>
3.1406

> <Gold.Chemscore.Internal.Correction.Weighted>
   9.000000E+99

> <Gold.Protein.RotatedTorsions>
[ 6907 6896 6895 6894 ] final  151.23 input  -60.11 | X-H torsion
[ 7974 7965 7964 7962 ] final  110.68 input  175.53 | X-H torsion
[ 8008 7997 7996 7995 ] final   -3.23 input   59.86 | X-H torsion
[ 10167 10162 10161 10158 ] final  -33.89 input  -65.29 | X-H torsion
[ 10718 10713 10712 10709 ] final  143.77 input   66.30 | X-H torsion
[ 10763 10752 10751 10750 ] final   66.15 input  -60.55 | X-H torsion
[ 11005 11000 10999 10996 ] final  136.99 input  -57.11 | X-H torsion

> <Gold.Protein.ActiveResidues>
 VAL166  LYS551  ARG553  GLY616  TRP617  ASP618  TYR619  PRO620  LYS621  CYS622 
 ASP623  PHE694  ASN695  SER759  ASP760  ASP761  ALA762  ILE779  LEU786  VAL792 
 PHE793  MET794  SER795  GLU796  ALA797  LYS798  CYS799  TRP800  GLU811  SER814 

> <Gold.Protein.RotatedAtoms>
  152.1035  133.4262  159.4597 H   0  0  0  0  0  0  0  0  0  0  0  0  # atno 6907 bound_to 6896
  150.6865  134.2732  159.4606 H   0  0  0  0  0  0  0  0  0  0  0  0  # atno 6908 bound_to 6896
  152.0594  134.9603  160.0625 H   0  0  0  0  0  0  0  0  0  0  0  0  # atno 6909 bound_to 6896
  145.2518  139.2736  143.4063 H   0  0  0  0  0  0  0  0  0  0  0  0  # atno 7974 bound_to 7965
  154.6272  140.2514  155.7478 H   0  0  0  0  0  0  0  0  0  0  0  0  # atno 8008 bound_to 7997
  156.2459  140.2914  156.0526 H   0  0  0  0  0  0  0  0  0  0  0  0  # atno 8009 bound_to 7997
  155.1803  140.0389  157.2871 H   0  0  0  0  0  0  0  0  0  0  0  0  # atno 8010 bound_to 7997
  140.7196  143.3588  151.2006 H   0  0  0  0  0  0  0  0  0  0  0  0  # atno 10167 bound_to 10162
  157.3650  131.0970  151.0881 H   0  0  0  0  0  0  0  0  0  0  0  0  # atno 10718 bound_to 10713
  153.0127  135.5331  154.6778 H   0  0  0  0  0  0  0  0  0  0  0  0  # atno 10763 bound_to 10752
  154.5946  135.2862  155.0602 H   0  0  0  0  0  0  0  0  0  0  0  0  # atno 10764 bound_to 10752
  154.1682  135.6536  153.5055 H   0  0  0  0  0  0  0  0  0  0  0  0  # atno 10765 bound_to 10752
  140.0083  134.9449  157.0224 H   0  0  0  0  0  0  0  0  0  0  0  0  # atno 11005 bound_to 11000
  146.3300  140.2911  142.8615 LP  0  0  0  0  0  0  0  0  0  0  0  0  # atno 17320 bound_to 7965
  144.9496  140.8164  143.5580 LP  0  0  0  0  0  0  0  0  0  0  0  0  # atno 17321 bound_to 7965
  139.7135  143.9338  152.2957 LP  0  0  0  0  0  0  0  0  0  0  0  0  # atno 17342 bound_to 10162
  139.9071  144.6878  150.8602 LP  0  0  0  0  0  0  0  0  0  0  0  0  # atno 17343 bound_to 10162
  157.2006  130.6393  149.5737 LP  0  0  0  0  0  0  0  0  0  0  0  0  # atno 17370 bound_to 10713
  155.9744  130.4692  150.6387 LP  0  0  0  0  0  0  0  0  0  0  0  0  # atno 17371 bound_to 10713
  140.4600  134.1494  155.7190 LP  0  0  0  0  0  0  0  0  0  0  0  0  # atno 17394 bound_to 11000
  141.1693  133.8641  157.1620 LP  0  0  0  0  0  0  0  0  0  0  0  0  # atno 17395 bound_to 11000

$$$$
