AV-unprocessed.smi:1539|AV-procd|sdf|6196|dock3
  -GOLD-   22720 6363D 1   1.00000     0.00000
 Structure written by MMmdl.
 42 43  0  0  0  0  0  0  0  0  2 V2000
  147.9695  138.3944  158.0250 C   0  0  0  0  0  0  0  0  0  0  0  0
  147.8288  139.6033  157.0967 C   0  0  0  0  0  0  0  0  0  0  0  0
  147.1934  140.5764  157.5031 O   0  0  0  0  0  0  0  0  0  0  0  0
  148.3907  139.5618  155.8636 N   0  0  0  0  0  0  0  0  0  0  0  0
  149.1843  138.4063  155.4182 C   0  0  0  0  0  0  0  0  0  0  0  0
  150.6595  138.5330  155.8546 C   0  0  0  0  0  0  0  0  0  0  0  0
  151.3528  139.8086  155.3260 C   0  0  0  0  0  0  0  0  0  0  0  0
  150.6969  141.0309  155.8290 N   0  0  0  0  0  0  0  0  0  0  0  0
  150.9450  141.6085  157.0336 C   0  0  0  0  0  0  0  0  0  0  0  0
  151.4853  141.0179  157.9701 O   0  0  0  0  0  0  0  0  0  0  0  0
  150.5710  142.8968  157.1272 N   0  0  0  0  0  0  0  0  0  0  0  0
  150.7632  143.7413  158.2996 C   0  0  0  0  0  0  0  0  0  0  0  0
  152.2365  143.7705  158.7378 C   0  0  0  0  0  0  0  0  0  0  0  0
  152.3700  143.6523  160.1902 N   0  0  0  0  0  0  0  0  0  0  0  0
  152.9939  142.6488  160.8856 C   0  0  0  0  0  0  0  0  0  0  0  0
  152.8722  142.9610  162.2151 C   0  0  0  0  0  0  0  0  0  0  0  0
  152.1798  144.1409  162.2745 N   0  3  0  0  0  0  0  0  0  0  0  0
  151.8767  144.5608  161.0414 C   0  0  0  0  0  0  0  0  0  0  0  0
  149.6520  141.5485  154.9264 C   0  0  0  0  0  0  0  0  0  0  0  0
  148.3667  140.6772  154.9004 C   0  0  0  0  0  0  0  0  0  0  0  0
  147.6288  137.4820  157.5354 H   0  0  0  0  0  0  0  0  0  0  0  0
  147.3697  138.5303  158.9255 H   0  0  0  0  0  0  0  0  0  0  0  0
  149.0073  138.2646  158.3320 H   0  0  0  0  0  0  0  0  0  0  0  0
  148.7628  137.4769  155.8047 H   0  0  0  0  0  0  0  0  0  0  0  0
  149.1362  138.3067  154.3333 H   0  0  0  0  0  0  0  0  0  0  0  0
  150.7237  138.4984  156.9427 H   0  0  0  0  0  0  0  0  0  0  0  0
  151.2070  137.6602  155.4978 H   0  0  0  0  0  0  0  0  0  0  0  0
  152.4124  139.7969  155.5848 H   0  0  0  0  0  0  0  0  0  0  0  0
  151.3359  139.7957  154.2355 H   0  0  0  0  0  0  0  0  0  0  0  0
  150.1425  143.3238  156.3185 H   0  0  0  0  0  0  0  0  0  0  0  0
  150.4038  144.7508  158.0921 H   0  0  0  0  0  0  0  0  0  0  0  0
  150.1410  143.3510  159.1054 H   0  0  0  0  0  0  0  0  0  0  0  0
  152.7980  142.9595  158.2716 H   0  0  0  0  0  0  0  0  0  0  0  0
  152.7146  144.7048  158.4398 H   0  0  0  0  0  0  0  0  0  0  0  0
  153.4661  141.8097  160.3945 H   0  0  0  0  0  0  0  0  0  0  0  0
  153.2174  142.4455  163.0997 H   0  0  0  0  0  0  0  0  0  0  0  0
  151.3395  145.4567  160.7852 H   0  0  0  0  0  0  0  0  0  0  0  0
  149.3767  142.5733  155.1789 H   0  0  0  0  0  0  0  0  0  0  0  0
  150.0583  141.6252  153.9171 H   0  0  0  0  0  0  0  0  0  0  0  0
  148.2401  140.2715  153.8960 H   0  0  0  0  0  0  0  0  0  0  0  0
  147.4897  141.3107  155.0305 H   0  0  0  0  0  0  0  0  0  0  0  0
  151.9317  144.6273  163.1271 H   0  0  0  0  0  0  0  0  0  0  0  0
  1  2  1  0  0  0  0
  1 21  1  0  0  0  0
  1 22  1  0  0  0  0
  1 23  1  0  0  0  0
  2  3  2  0  0  0  0
  2  4  1  0  0  0  0
  4 20  1  0  0  0  0
  4  5  1  0  0  0  0
  5  6  1  0  0  0  0
  5 24  1  0  0  0  0
  5 25  1  0  0  0  0
  6  7  1  0  0  0  0
  6 26  1  0  0  0  0
  6 27  1  0  0  0  0
  7  8  1  0  0  0  0
  7 28  1  0  0  0  0
  7 29  1  0  0  0  0
  8  9  1  0  0  0  0
  8 19  1  0  0  0  0
  9 10  2  0  0  0  0
  9 11  1  0  0  0  0
 11 12  1  0  0  0  0
 11 30  1  0  0  0  0
 12 13  1  0  0  0  0
 12 31  1  0  0  0  0
 12 32  1  0  0  0  0
 13 14  1  0  0  0  0
 13 33  1  0  0  0  0
 13 34  1  0  0  0  0
 14 18  1  0  0  0  0
 14 15  1  0  0  0  0
 15 16  2  0  0  0  0
 15 35  1  0  0  0  0
 16 17  1  0  0  0  0
 16 36  1  0  0  0  0
 17 18  2  0  0  0  0
 17 42  1  0  0  0  0
 18 37  1  0  0  0  0
 19 20  1  0  0  0  0
 19 38  1  0  0  0  0
 19 39  1  0  0  0  0
 20 40  1  0  0  0  0
 20 41  1  0  0  0  0
M  CHG  1  17   1
M  END
> <s_m_source_file>
AV-unprocessed.smi

> <i_m_source_file_index>
1539

> <i_lp_mmshare_version>
43012

> <i_f3d_flags>
0

> <s_epik_input>
W0NIM11DKD1PKU4xW0NIMl1bQ0gyXVtDSDJdTihbQ0gyXVtDSDJdMSlDKD1PKVtOSF1bQ0gyXVtDSDJdbjJbY0hdW2NIXW5bY0hdMg==

> <s_epik_cmdline>
J2VwaWtfcHl0aG9uJywgJy1waCcsICc3LjAnLCAnLXRuJywgJzgnLCAnLW1hJywgJzIwMCcsICctbWV0YWxfYmluZGluZycsICctaW1hZScsICc8aW5maWxlLm1hZT4nLCAnLW9tYWUnLCAnPG91dGZpbGUubWFlPic=

> <r_lp_tautomer_probability>
1

> <r_epik_Ionization_Penalty>
0.254079

> <r_epik_Ionization_Penalty_Charging>
0

> <r_epik_Ionization_Penalty_Neutral>
0.254079

> <r_epik_State_Penalty>
0.245493

> <r_epik_Charging_Adjusted_Penalty>
0.245493

> <i_epik_Tot_Q>
1

> <i_epik_Tot_abs_Q>
1

> <r_epik_Metal_State_Penalty>
0.535648

> <b_epik_Metal_Only>
0

> <s_lp_Force_Field>
OPLS_2005

> <r_lp_Energy>
43.2206

> <b_lp_Chiralities_Consistent>
1

> <s_lp_Variant>
AV-unprocessed.smi:1539-1

> <Gold.Version>
5.8.1

> <Gold.Id.Protein>
6NUR|6NUR_protein|mol2

> <Gold.PLP.Fitness>
42.6840

> <Gold.PLP.PLP>
-41.3127

> <Gold.PLP.part.hbond>
-2.8583

> <Gold.PLP.part.metal>
0.0000

> <Gold.PLP.part.buried>
-4.2696

> <Gold.PLP.part.nonpolar>
-34.5747

> <Gold.PLP.part.repulsive>
0.0955

> <Gold.PLP.ligand.clash>
0.3746

> <Gold.PLP.ligand.torsion>
0.5295

> <Gold.PLP.Chemscore.Hbond>
0.9280

> <Gold.PLP.Chemscore.CHOScore>
0.0000

> <Gold.PLP.Chemscore.Metal>
0.0000

> <Gold.Chemscore.Hbonds>
donor molecule, donor type, donor heavy atom, donor atom, acceptor molecule, acceptor atom, score
      L1  H    11    30       P1  8028  0.91

> <Gold.PLP.Chemscore.Internal.Correction>
0.0209

> <Gold.Rescore>
     Score         DG    S(hbond)    S(metal)    S(lipo)     H(rot)  DE(clash)    DE(int)     intcor
     11.31     -13.02       0.97        0.00      74.07       1.70       0.21       1.50       ----

> <Gold.Chemscore.Fitness>
11.3063

> <Gold.Chemscore.DG>
-13.0215

> <Gold.Chemscore.ZeroCoef>
-5.4800

> <Gold.Chemscore.Hbond>
0.9690

> <Gold.Chemscore.Metal>
0.0000

> <Gold.Chemscore.Lipo>
74.0716

> <Gold.Chemscore.Internal_Hbond>
0.0000

> <Gold.Chemscore.DEClash>
0.2111

> <Gold.Chemscore.DEInternal>
1.5041

> <Gold.Chemscore.Rot>
1.7036

> <Gold.Chemscore.Internal.Correction>
   9.000000E+99

> <Gold.Chemscore.Hbonds>
donor molecule, donor type, donor heavy atom, donor atom, acceptor molecule, acceptor atom, score
      L1  H    11    30       P1  8028  0.87

> <Gold.Chemscore.Hbond.Weighted>
-3.2364

> <Gold.Chemscore.Metal.Weighted>
-0.0000

> <Gold.Chemscore.Lipo.Weighted>
-8.6664

> <Gold.Chemscore.Internal_Hbond.Weighted>
0.0000

> <Gold.Chemscore.DEClash.Weighted>
0.2111

> <Gold.Chemscore.DEInternal.Weighted>
1.5041

> <Gold.Chemscore.Rot.Weighted>
4.3613

> <Gold.Chemscore.Internal.Correction.Weighted>
   9.000000E+99

> <Gold.Protein.RotatedTorsions>
[ 6907 6896 6895 6894 ] final   96.60 input  -60.11 | X-H torsion
[ 7974 7965 7964 7962 ] final  -35.40 input  175.53 | X-H torsion
[ 8008 7997 7996 7995 ] final  145.69 input   59.86 | X-H torsion
[ 10167 10162 10161 10158 ] final -140.22 input  -65.29 | X-H torsion
[ 10718 10713 10712 10709 ] final  103.63 input   66.30 | X-H torsion
[ 10763 10752 10751 10750 ] final  109.16 input  -60.55 | X-H torsion
[ 11005 11000 10999 10996 ] final  159.73 input  -57.11 | X-H torsion

> <Gold.Protein.ActiveResidues>
 VAL166  LYS551  ARG553  GLY616  TRP617  ASP618  TYR619  PRO620  LYS621  CYS622 
 ASP623  PHE694  ASN695  SER759  ASP760  ASP761  ALA762  ILE779  LEU786  VAL792 
 PHE793  MET794  SER795  GLU796  ALA797  LYS798  CYS799  TRP800  GLU811  SER814 

> <Gold.Protein.RotatedAtoms>
  152.5433  134.0862  159.8256 H   0  0  0  0  0  0  0  0  0  0  0  0  # atno 6907 bound_to 6896
  151.0957  133.5274  159.2620 H   0  0  0  0  0  0  0  0  0  0  0  0  # atno 6908 bound_to 6896
  151.2048  135.0466  159.8941 H   0  0  0  0  0  0  0  0  0  0  0  0  # atno 6909 bound_to 6896
  146.0750  140.6154  142.8935 H   0  0  0  0  0  0  0  0  0  0  0  0  # atno 7974 bound_to 7965
  156.2876  140.2202  156.5255 H   0  0  0  0  0  0  0  0  0  0  0  0  # atno 8008 bound_to 7997
  154.7492  140.0481  157.0901 H   0  0  0  0  0  0  0  0  0  0  0  0  # atno 8009 bound_to 7997
  155.0131  140.3115  155.4825 H   0  0  0  0  0  0  0  0  0  0  0  0  # atno 8010 bound_to 7997
  139.8303  143.7456  152.2666 H   0  0  0  0  0  0  0  0  0  0  0  0  # atno 10167 bound_to 10162
  157.6766  131.0784  150.5585 H   0  0  0  0  0  0  0  0  0  0  0  0  # atno 10718 bound_to 10713
  153.4308  135.3789  155.2169 H   0  0  0  0  0  0  0  0  0  0  0  0  # atno 10763 bound_to 10752
  154.8750  135.3839  154.4270 H   0  0  0  0  0  0  0  0  0  0  0  0  # atno 10764 bound_to 10752
  153.4802  135.7088  153.6005 H   0  0  0  0  0  0  0  0  0  0  0  0  # atno 10765 bound_to 10752
  140.1990  134.8351  157.2997 H   0  0  0  0  0  0  0  0  0  0  0  0  # atno 11005 bound_to 11000
  144.7255  140.4512  143.6976 LP  0  0  0  0  0  0  0  0  0  0  0  0  # atno 17320 bound_to 7965
  145.6323  139.1538  143.2962 LP  0  0  0  0  0  0  0  0  0  0  0  0  # atno 17321 bound_to 7965
  139.7662  144.7491  151.0292 LP  0  0  0  0  0  0  0  0  0  0  0  0  # atno 17342 bound_to 10162
  140.7807  143.4696  151.0165 LP  0  0  0  0  0  0  0  0  0  0  0  0  # atno 17343 bound_to 10162
  156.5888  130.4324  149.5945 LP  0  0  0  0  0  0  0  0  0  0  0  0  # atno 17370 bound_to 10713
  156.2600  130.6957  151.1723 LP  0  0  0  0  0  0  0  0  0  0  0  0  # atno 17371 bound_to 10713
  140.2075  134.4179  155.7630 LP  0  0  0  0  0  0  0  0  0  0  0  0  # atno 17394 bound_to 11000
  141.2227  133.7102  156.8284 LP  0  0  0  0  0  0  0  0  0  0  0  0  # atno 17395 bound_to 11000

$$$$
