AV-unprocessed.smi:206|AV-procd|sdf|1601|dock4
  -GOLD-   2262019513D 1   1.00000     0.00000
 Structure written by MMmdl.
 47 50  0  0  0  0  0  0  0  0  1 V2000
  152.5962  140.3966  157.9861 O   0  0  0  0  0  0  0  0  0  0  0  0
  152.9251  140.8216  159.0925 C   0  0  0  0  0  0  0  0  0  0  0  0
  153.9681  140.1455  159.9634 C   0  0  0  0  0  0  0  0  0  0  0  0
  154.0101  141.0431  161.1114 N   0  0  0  0  0  0  0  0  0  0  0  0
  154.7579  140.7977  162.2183 C   0  0  0  0  0  0  0  0  0  0  0  0
  155.5287  139.6787  162.2350 N   0  0  0  0  0  0  0  0  0  0  0  0
  156.2839  139.3889  163.2977 C   0  0  0  0  0  0  0  0  0  0  0  0
  156.4167  140.0704  164.4359 N   0  0  0  0  0  0  0  0  0  0  0  0
  155.6487  141.1970  164.4311 C   0  0  0  0  0  0  0  0  0  0  0  0
  154.8000  141.6356  163.3728 C   0  0  0  0  0  0  0  0  0  0  0  0
  154.1934  142.8340  163.7329 N   0  0  0  0  0  0  0  0  0  0  0  0
  154.6562  143.0884  164.9256 C   0  0  0  0  0  0  0  0  0  0  0  0
  155.5246  142.1474  165.4311 N   0  0  0  0  0  0  0  0  0  0  0  0
  156.1995  142.1814  166.6987 C   0  0  0  0  0  0  0  0  0  0  0  0
  156.0768  141.0418  167.7162 C   0  0  0  0  0  0  0  0  0  0  0  0
  156.0652  142.0649  168.8751 C   0  0  0  0  0  0  0  0  0  0  0  0
  154.9648  141.8505  169.9260 C   0  0  0  0  0  0  0  0  0  0  0  0
  155.1136  140.6094  170.5854 O   0  0  0  0  0  0  0  0  0  0  0  0
  157.3899  142.2776  169.6415 C   0  0  0  0  0  0  0  0  0  0  0  0
  157.3373  143.3520  170.5583 O   0  0  0  0  0  0  0  0  0  0  0  0
  155.7210  143.1244  167.8035 C   0  0  0  0  0  0  0  0  0  0  0  0
  153.0729  142.1511  160.9885 C   0  0  0  0  0  0  0  0  0  0  0  0
  152.4468  141.9142  159.6982 N   0  0  0  0  0  0  0  0  0  0  0  0
  151.4398  142.8344  159.1745 C   0  0  0  0  0  0  0  0  0  0  0  0
  151.9881  144.2608  158.9909 C   0  0  0  0  0  0  0  0  0  0  0  0
  151.1438  144.9548  158.2290 F   0  0  0  0  0  0  0  0  0  0  0  0
  152.1106  144.8851  160.1620 F   0  0  0  0  0  0  0  0  0  0  0  0
  153.1756  144.2267  158.3861 F   0  0  0  0  0  0  0  0  0  0  0  0
  153.6446  139.1423  160.2437 H   0  0  0  0  0  0  0  0  0  0  0  0
  154.9317  140.0979  159.4551 H   0  0  0  0  0  0  0  0  0  0  0  0
  156.8626  138.4796  163.2266 H   0  0  0  0  0  0  0  0  0  0  0  0
  154.3724  143.9788  165.4665 H   0  0  0  0  0  0  0  0  0  0  0  0
  157.2531  142.3599  166.4805 H   0  0  0  0  0  0  0  0  0  0  0  0
  155.1398  140.4898  167.6361 H   0  0  0  0  0  0  0  0  0  0  0  0
  156.9261  140.3579  167.7236 H   0  0  0  0  0  0  0  0  0  0  0  0
  154.9675  142.6486  170.6691 H   0  0  0  0  0  0  0  0  0  0  0  0
  153.9768  141.8643  169.4644 H   0  0  0  0  0  0  0  0  0  0  0  0
  154.3102  140.4133  171.0430 H   0  0  0  0  0  0  0  0  0  0  0  0
  157.6606  141.3804  170.1990 H   0  0  0  0  0  0  0  0  0  0  0  0
  158.2128  142.4775  168.9547 H   0  0  0  0  0  0  0  0  0  0  0  0
  157.2262  142.9997  171.4282 H   0  0  0  0  0  0  0  0  0  0  0  0
  156.2894  144.0523  167.8750 H   0  0  0  0  0  0  0  0  0  0  0  0
  154.6517  143.3311  167.7344 H   0  0  0  0  0  0  0  0  0  0  0  0
  152.3275  142.1311  161.7847 H   0  0  0  0  0  0  0  0  0  0  0  0
  153.5924  143.1103  160.9951 H   0  0  0  0  0  0  0  0  0  0  0  0
  151.0772  142.4553  158.2181 H   0  0  0  0  0  0  0  0  0  0  0  0
  150.5768  142.8490  159.8422 H   0  0  0  0  0  0  0  0  0  0  0  0
  1  2  2  0  0  0  0
  2 23  1  0  0  0  0
  2  3  1  0  0  0  0
  3  4  1  0  0  0  0
  3 29  1  0  0  0  0
  3 30  1  0  0  0  0
  4  5  1  0  0  0  0
  4 22  1  0  0  0  0
  5 10  1  0  0  0  0
  5  6  2  0  0  0  0
  6  7  1  0  0  0  0
  7  8  2  0  0  0  0
  7 31  1  0  0  0  0
  8  9  1  0  0  0  0
  9 13  1  0  0  0  0
  9 10  2  0  0  0  0
 10 11  1  0  0  0  0
 11 12  2  0  0  0  0
 12 13  1  0  0  0  0
 12 32  1  0  0  0  0
 13 14  1  0  0  0  0
 14 21  1  0  0  0  0
 14 15  1  0  0  0  0
 14 33  1  0  0  0  0
 15 16  1  0  0  0  0
 15 34  1  0  0  0  0
 15 35  1  0  0  0  0
 16 17  1  0  0  0  0
 16 19  1  0  0  0  0
 16 21  1  0  0  0  0
 17 18  1  0  0  0  0
 17 36  1  0  0  0  0
 17 37  1  0  0  0  0
 18 38  1  0  0  0  0
 19 20  1  0  0  0  0
 19 39  1  0  0  0  0
 19 40  1  0  0  0  0
 20 41  1  0  0  0  0
 21 42  1  0  0  0  0
 21 43  1  0  0  0  0
 22 23  1  0  0  0  0
 22 44  1  0  0  0  0
 22 45  1  0  0  0  0
 23 24  1  0  0  0  0
 24 25  1  0  0  0  0
 24 46  1  0  0  0  0
 24 47  1  0  0  0  0
 25 26  1  0  0  0  0
 25 27  1  0  0  0  0
 25 28  1  0  0  0  0
M  END
> <s_m_source_file>
AV-unprocessed.smi

> <i_m_source_file_index>
206

> <i_lp_mmshare_version>
43012

> <i_f3d_flags>
0

> <s_epik_input>
RkMoRikoRilbQ0gyXU4xW0NIMl1OKFtDSDJdQzE9TyljKG5bY0hdbjIpYyhjMjMpbltjSF1uM1tDSF0oW0NIMl00KVtDSDJdQzQoW0NIMl1bT0hdKVtDSDJdW09IXQ==

> <s_epik_cmdline>
J2VwaWtfcHl0aG9uJywgJy1waCcsICc3LjAnLCAnLXRuJywgJzgnLCAnLW1hJywgJzIwMCcsICctbWV0YWxfYmluZGluZycsICctaW1hZScsICc8aW5maWxlLm1hZT4nLCAnLW9tYWUnLCAnPG91dGZpbGUubWFlPic=

> <r_lp_tautomer_probability>
1

> <r_epik_Ionization_Penalty>
0.000251167

> <r_epik_Ionization_Penalty_Charging>
0

> <r_epik_Ionization_Penalty_Neutral>
0.000251167

> <r_epik_State_Penalty>
-0

> <r_epik_Charging_Adjusted_Penalty>
0

> <i_epik_Tot_Q>
0

> <i_epik_Tot_abs_Q>
0

> <r_epik_Metal_State_Penalty>
-0

> <b_epik_Metal_Only>
0

> <s_epik_Chemistry_Notes>
This compound contains an acetal/aminal-like group ( X-CH(R)-Y where X, Y are N, S, or O) that may be acid/base labile, releasing an aldehyde.

> <s_lp_Force_Field>
OPLS_2005

> <r_lp_Energy>
40.1188

> <b_lp_Chiralities_Consistent>
1

> <s_lp_Variant>
AV-unprocessed.smi:206-1

> <Gold.Version>
5.8.1

> <Gold.Id.Protein>
6NUR|6NUR_protein|mol2

> <Gold.PLP.Fitness>
54.2649

> <Gold.PLP.PLP>
-53.0740

> <Gold.PLP.part.hbond>
-3.7944

> <Gold.PLP.part.metal>
0.0000

> <Gold.PLP.part.buried>
-1.2655

> <Gold.PLP.part.nonpolar>
-47.1552

> <Gold.PLP.part.repulsive>
0.0418

> <Gold.PLP.ligand.clash>
0.0000

> <Gold.PLP.ligand.torsion>
0.5367

> <Gold.PLP.Chemscore.Hbond>
0.5897

> <Gold.PLP.Chemscore.CHOScore>
0.0000

> <Gold.PLP.Chemscore.Metal>
0.0000

> <Gold.Chemscore.Hbonds>
donor molecule, donor type, donor heavy atom, donor atom, acceptor molecule, acceptor atom, score
      P1  H  7997  8008       L1     1  0.47

> <Gold.PLP.Chemscore.Internal.Correction>
0.4953

> <Gold.Rescore>
     Score         DG    S(hbond)    S(metal)    S(lipo)     H(rot)  DE(clash)    DE(int)     intcor
      1.17      -4.51       0.39        0.00      63.59       3.79       1.14       2.21       ----

> <Gold.Chemscore.Fitness>
1.1664

> <Gold.Chemscore.DG>
-4.5126

> <Gold.Chemscore.ZeroCoef>
-5.4800

> <Gold.Chemscore.Hbond>
0.3903

> <Gold.Chemscore.Metal>
0.0000

> <Gold.Chemscore.Lipo>
63.5872

> <Gold.Chemscore.Internal_Hbond>
0.0000

> <Gold.Chemscore.DEClash>
1.1359

> <Gold.Chemscore.DEInternal>
2.2104

> <Gold.Chemscore.Rot>
3.7932

> <Gold.Chemscore.Internal.Correction>
   9.000000E+99

> <Gold.Chemscore.Hbonds>
donor molecule, donor type, donor heavy atom, donor atom, acceptor molecule, acceptor atom, score
      P1  H  7997  8008       L1     1  0.33

> <Gold.Chemscore.Hbond.Weighted>
-1.3036

> <Gold.Chemscore.Metal.Weighted>
-0.0000

> <Gold.Chemscore.Lipo.Weighted>
-7.4397

> <Gold.Chemscore.Internal_Hbond.Weighted>
0.0000

> <Gold.Chemscore.DEClash.Weighted>
1.1359

> <Gold.Chemscore.DEInternal.Weighted>
2.2104

> <Gold.Chemscore.Rot.Weighted>
9.7107

> <Gold.Chemscore.Internal.Correction.Weighted>
   9.000000E+99

> <Gold.Protein.RotatedTorsions>
[ 6907 6896 6895 6894 ] final  -52.81 input  -60.11 | X-H torsion
[ 7974 7965 7964 7962 ] final   66.71 input  175.53 | X-H torsion
[ 8008 7997 7996 7995 ] final  -67.10 input   59.86 | X-H torsion
[ 10167 10162 10161 10158 ] final -131.47 input  -65.29 | X-H torsion
[ 10718 10713 10712 10709 ] final   31.40 input   66.30 | X-H torsion
[ 10763 10752 10751 10750 ] final  177.83 input  -60.55 | X-H torsion
[ 11005 11000 10999 10996 ] final   40.79 input  -57.11 | X-H torsion

> <Gold.Protein.ActiveResidues>
 VAL166  LYS551  ARG553  GLY616  TRP617  ASP618  TYR619  PRO620  LYS621  CYS622 
 ASP623  PHE694  ASN695  SER759  ASP760  ASP761  ALA762  ILE779  LEU786  VAL792 
 PHE793  MET794  SER795  GLU796  ALA797  LYS798  CYS799  TRP800  GLU811  SER814 

> <Gold.Protein.RotatedAtoms>
  150.8484  134.7800  159.6988 H   0  0  0  0  0  0  0  0  0  0  0  0  # atno 6907 bound_to 6896
  152.4555  134.5298  159.9817 H   0  0  0  0  0  0  0  0  0  0  0  0  # atno 6908 bound_to 6896
  151.5424  133.3392  159.2973 H   0  0  0  0  0  0  0  0  0  0  0  0  # atno 6909 bound_to 6896
  145.8233  139.3097  143.1030 H   0  0  0  0  0  0  0  0  0  0  0  0  # atno 7974 bound_to 7965
  154.4777  140.0899  156.7303 H   0  0  0  0  0  0  0  0  0  0  0  0  # atno 8008 bound_to 7997
  155.4552  140.3459  155.4287 H   0  0  0  0  0  0  0  0  0  0  0  0  # atno 8009 bound_to 7997
  156.1143  140.1456  156.9283 H   0  0  0  0  0  0  0  0  0  0  0  0  # atno 8010 bound_to 7997
  139.9186  143.6409  152.2559 H   0  0  0  0  0  0  0  0  0  0  0  0  # atno 10167 bound_to 10162
  157.2720  130.7212  149.6509 H   0  0  0  0  0  0  0  0  0  0  0  0  # atno 10718 bound_to 10713
  154.4997  135.2783  155.1430 H   0  0  0  0  0  0  0  0  0  0  0  0  # atno 10763 bound_to 10752
  154.3069  135.6237  153.5452 H   0  0  0  0  0  0  0  0  0  0  0  0  # atno 10764 bound_to 10752
  152.9900  135.5710  154.5437 H   0  0  0  0  0  0  0  0  0  0  0  0  # atno 10765 bound_to 10752
  140.1897  134.4002  155.8153 H   0  0  0  0  0  0  0  0  0  0  0  0  # atno 11005 bound_to 11000
  145.9651  140.8805  143.0191 LP  0  0  0  0  0  0  0  0  0  0  0  0  # atno 17320 bound_to 7965
  144.6746  140.1866  143.7400 LP  0  0  0  0  0  0  0  0  0  0  0  0  # atno 17321 bound_to 7965
  139.6881  144.7649  151.1487 LP  0  0  0  0  0  0  0  0  0  0  0  0  # atno 17342 bound_to 10162
  140.7668  143.5628  150.9080 LP  0  0  0  0  0  0  0  0  0  0  0  0  # atno 17343 bound_to 10162
  155.9663  130.4364  150.5134 LP  0  0  0  0  0  0  0  0  0  0  0  0  # atno 17370 bound_to 10713
  157.3061  131.0654  151.2034 LP  0  0  0  0  0  0  0  0  0  0  0  0  # atno 17371 bound_to 10713
  141.2226  133.7040  156.8073 LP  0  0  0  0  0  0  0  0  0  0  0  0  # atno 17394 bound_to 11000
  140.2174  134.8782  157.3340 LP  0  0  0  0  0  0  0  0  0  0  0  0  # atno 17395 bound_to 11000

$$$$
