AV-unprocessed.smi:1883|AV-procd|sdf|7645|dock3
  -GOLD-   22720 9373D 1   1.00000     0.00000
 Structure written by MMmdl.
 36 38  0  0  0  0  0  0  0  0  2 V2000
  151.9010  137.9310  154.8140 C   0  0  0  0  0  0  0  0  0  0  0  0
  150.7040  138.7768  154.5356 C   0  0  0  0  0  0  0  0  0  0  0  0
  149.6545  138.4423  153.7326 N   0  3  0  0  0  0  0  0  0  0  0  0
  148.7254  139.4837  153.7115 C   0  0  0  0  0  0  0  0  0  0  0  0
  147.5106  139.6093  153.0449 C   0  0  0  0  0  0  0  0  0  0  0  0
  146.8032  140.8139  153.2402 C   0  0  0  0  0  0  0  0  0  0  0  0
  147.3072  141.8353  154.0717 C   0  0  0  0  0  0  0  0  0  0  0  0
  148.5401  141.6966  154.7428 C   0  0  0  0  0  0  0  0  0  0  0  0
  149.2328  140.5030  154.5428 C   0  0  0  0  0  0  0  0  0  0  0  0
  150.4538  140.0236  155.0282 N   0  0  0  0  0  0  0  0  0  0  0  0
  151.2467  140.8690  155.9332 C   0  0  0  0  0  0  0  0  0  0  0  0
  150.4211  141.4467  157.0999 C   0  0  1  0  0  0  0  0  0  0  0  0
  149.6338  140.4246  157.6813 O   0  0  0  0  0  0  0  0  0  0  0  0
  151.3209  142.1451  158.1104 C   0  0  0  0  0  0  0  0  0  0  0  0
  151.1991  143.5337  158.3436 C   0  0  0  0  0  0  0  0  0  0  0  0
  152.0233  144.1717  159.2907 C   0  0  0  0  0  0  0  0  0  0  0  0
  151.9004  145.5023  159.5078 F   0  0  0  0  0  0  0  0  0  0  0  0
  152.9730  143.4260  160.0138 C   0  0  0  0  0  0  0  0  0  0  0  0
  153.0956  142.0414  159.7915 C   0  0  0  0  0  0  0  0  0  0  0  0
  152.2713  141.4009  158.8458 C   0  0  0  0  0  0  0  0  0  0  0  0
  152.3933  140.0652  158.6534 F   0  0  0  0  0  0  0  0  0  0  0  0
  151.7788  136.9383  154.3801 H   0  0  0  0  0  0  0  0  0  0  0  0
  152.0462  137.8233  155.8890 H   0  0  0  0  0  0  0  0  0  0  0  0
  152.7922  138.3901  154.3860 H   0  0  0  0  0  0  0  0  0  0  0  0
  147.1223  138.8283  152.4077 H   0  0  0  0  0  0  0  0  0  0  0  0
  145.8549  140.9570  152.7425 H   0  0  0  0  0  0  0  0  0  0  0  0
  146.7366  142.7440  154.1977 H   0  0  0  0  0  0  0  0  0  0  0  0
  148.9174  142.4835  155.3790 H   0  0  0  0  0  0  0  0  0  0  0  0
  152.0722  140.2666  156.3145 H   0  0  0  0  0  0  0  0  0  0  0  0
  151.6983  141.6683  155.3439 H   0  0  0  0  0  0  0  0  0  0  0  0
  149.7157  142.1803  156.7091 H   0  0  0  0  0  0  0  0  0  0  0  0
  149.3993  140.6892  158.5579 H   0  0  0  0  0  0  0  0  0  0  0  0
  150.4697  144.1170  157.8007 H   0  0  0  0  0  0  0  0  0  0  0  0
  153.6041  143.9148  160.7413 H   0  0  0  0  0  0  0  0  0  0  0  0
  153.8213  141.4688  160.3500 H   0  0  0  0  0  0  0  0  0  0  0  0
  149.5822  137.5644  153.2348 H   0  0  0  0  0  0  0  0  0  0  0  0
  1  2  1  0  0  0  0
  1 22  1  0  0  0  0
  1 23  1  0  0  0  0
  1 24  1  0  0  0  0
  2 10  1  0  0  0  0
  2  3  2  0  0  0  0
  3  4  1  0  0  0  0
  3 36  1  0  0  0  0
  4  9  2  0  0  0  0
  4  5  1  0  0  0  0
  5  6  2  0  0  0  0
  5 25  1  0  0  0  0
  6  7  1  0  0  0  0
  6 26  1  0  0  0  0
  7  8  2  0  0  0  0
  7 27  1  0  0  0  0
  8  9  1  0  0  0  0
  8 28  1  0  0  0  0
  9 10  1  0  0  0  0
 10 11  1  0  0  0  0
 11 12  1  0  0  0  0
 11 29  1  0  0  0  0
 11 30  1  0  0  0  0
 12 13  1  0  0  0  0
 12 14  1  0  0  0  0
 12 31  1  0  0  0  0
 13 32  1  0  0  0  0
 14 20  1  0  0  0  0
 14 15  2  0  0  0  0
 15 16  1  0  0  0  0
 15 33  1  0  0  0  0
 16 17  1  0  0  0  0
 16 18  2  0  0  0  0
 18 19  1  0  0  0  0
 18 34  1  0  0  0  0
 19 20  2  0  0  0  0
 19 35  1  0  0  0  0
 20 21  1  0  0  0  0
M  CHG  1   3   1
M  END
> <s_m_source_file>
AV-unprocessed.smi

> <i_m_source_file_index>
1883

> <i_lp_mmshare_version>
43012

> <i_f3d_flags>
0

> <s_epik_input>
W2NIXTFbY0hdW2NIXVtjSF1jKGMxMiluKGMobjIpW0NIM10pW0NIMl1bQ0BIXShbT0hdKWMzW2NIXWMoRilbY0hdW2NIXWMzRg==

> <s_epik_cmdline>
J2VwaWtfcHl0aG9uJywgJy1waCcsICc3LjAnLCAnLXRuJywgJzgnLCAnLW1hJywgJzIwMCcsICctbWV0YWxfYmluZGluZycsICctaW1hZScsICc8aW5maWxlLm1hZT4nLCAnLW9tYWUnLCAnPG91dGZpbGUubWFlPic=

> <r_epik_Ionization_Penalty>
0.963871

> <r_epik_Ionization_Penalty_Charging>
0.963868

> <r_epik_Ionization_Penalty_Neutral>
3.53208e-06

> <r_epik_State_Penalty>
1.00924

> <r_epik_Charging_Adjusted_Penalty>
1.9731

> <i_epik_Tot_Q>
1

> <i_epik_Tot_abs_Q>
1

> <r_epik_Metal_State_Penalty>
4.98304

> <b_epik_Metal_Only>
0

> <s_lp_Force_Field>
OPLS_2005

> <r_lp_Energy>
14.9969

> <b_lp_Chiralities_Consistent>
1

> <s_lp_Variant>
AV-unprocessed.smi:1883-4

> <Gold.Version>
5.8.1

> <Gold.Id.Protein>
6NUR|6NUR_protein|mol2

> <Gold.PLP.Fitness>
57.4293

> <Gold.PLP.PLP>
-51.7868

> <Gold.PLP.part.hbond>
-2.0000

> <Gold.PLP.part.metal>
0.0000

> <Gold.PLP.part.buried>
2.0436

> <Gold.PLP.part.nonpolar>
-52.0734

> <Gold.PLP.part.repulsive>
0.0633

> <Gold.PLP.ligand.clash>
0.0000

> <Gold.PLP.ligand.torsion>
0.1900

> <Gold.PLP.Chemscore.Hbond>
2.0000

> <Gold.PLP.Chemscore.CHOScore>
0.0000

> <Gold.PLP.Chemscore.Metal>
0.0000

> <Gold.Chemscore.Hbonds>
donor molecule, donor type, donor heavy atom, donor atom, acceptor molecule, acceptor atom, score
      L1  H     3    36       P1  7948  2.00

> <Gold.PLP.Chemscore.Internal.Correction>
0.0225

> <Gold.Rescore>
     Score         DG    S(hbond)    S(metal)    S(lipo)     H(rot)  DE(clash)    DE(int)     intcor
     15.85     -18.41       0.94        0.00     125.98       1.94       0.19       2.37       ----

> <Gold.Chemscore.Fitness>
15.8494

> <Gold.Chemscore.DG>
-18.4065

> <Gold.Chemscore.ZeroCoef>
-5.4800

> <Gold.Chemscore.Hbond>
0.9420

> <Gold.Chemscore.Metal>
0.0000

> <Gold.Chemscore.Lipo>
125.9846

> <Gold.Chemscore.Internal_Hbond>
0.0000

> <Gold.Chemscore.DEClash>
0.1863

> <Gold.Chemscore.DEInternal>
2.3707

> <Gold.Chemscore.Rot>
1.9375

> <Gold.Chemscore.Internal.Correction>
   9.000000E+99

> <Gold.Chemscore.Hbonds>
donor molecule, donor type, donor heavy atom, donor atom, acceptor molecule, acceptor atom, score
      L1  H     3    36       P1  7948  0.80

> <Gold.Chemscore.Hbond.Weighted>
-3.1462

> <Gold.Chemscore.Metal.Weighted>
-0.0000

> <Gold.Chemscore.Lipo.Weighted>
-14.7402

> <Gold.Chemscore.Internal_Hbond.Weighted>
0.0000

> <Gold.Chemscore.DEClash.Weighted>
0.1863

> <Gold.Chemscore.DEInternal.Weighted>
2.3707

> <Gold.Chemscore.Rot.Weighted>
4.9599

> <Gold.Chemscore.Internal.Correction.Weighted>
   9.000000E+99

> <Gold.Protein.RotatedTorsions>
[ 6907 6896 6895 6894 ] final  147.97 input  -60.11 | X-H torsion
[ 7974 7965 7964 7962 ] final   81.67 input  175.53 | X-H torsion
[ 8008 7997 7996 7995 ] final  132.97 input   59.86 | X-H torsion
[ 10167 10162 10161 10158 ] final -147.30 input  -65.29 | X-H torsion
[ 10718 10713 10712 10709 ] final -175.11 input   66.30 | X-H torsion
[ 10763 10752 10751 10750 ] final  -91.98 input  -60.55 | X-H torsion
[ 11005 11000 10999 10996 ] final   44.89 input  -57.11 | X-H torsion

> <Gold.Protein.ActiveResidues>
 VAL166  LYS551  ARG553  GLY616  TRP617  ASP618  TYR619  PRO620  LYS621  CYS622 
 ASP623  PHE694  ASN695  SER759  ASP760  ASP761  ALA762  ILE779  LEU786  VAL792 
 PHE793  MET794  SER795  GLU796  ALA797  LYS798  CYS799  TRP800  GLU811  SER814 

> <Gold.Protein.RotatedAtoms>
  152.1477  133.4503  159.4797 H   0  0  0  0  0  0  0  0  0  0  0  0  # atno 6907 bound_to 6896
  150.6892  134.2227  159.4412 H   0  0  0  0  0  0  0  0  0  0  0  0  # atno 6908 bound_to 6896
  152.0122  134.9869  160.0619 H   0  0  0  0  0  0  0  0  0  0  0  0  # atno 6909 bound_to 6896
  145.6352  139.2413  143.2062 H   0  0  0  0  0  0  0  0  0  0  0  0  # atno 7974 bound_to 7965
  156.2988  140.2533  156.3176 H   0  0  0  0  0  0  0  0  0  0  0  0  # atno 8008 bound_to 7997
  154.9266  140.0399  157.2045 H   0  0  0  0  0  0  0  0  0  0  0  0  # atno 8009 bound_to 7997
  154.8258  140.2867  155.5759 H   0  0  0  0  0  0  0  0  0  0  0  0  # atno 8010 bound_to 7997
  139.7634  143.8343  152.2611 H   0  0  0  0  0  0  0  0  0  0  0  0  # atno 10167 bound_to 10162
  156.7950  130.9532  151.3120 H   0  0  0  0  0  0  0  0  0  0  0  0  # atno 10718 bound_to 10713
  154.6815  135.5248  153.8270 H   0  0  0  0  0  0  0  0  0  0  0  0  # atno 10763 bound_to 10752
  153.0568  135.6553  154.0568 H   0  0  0  0  0  0  0  0  0  0  0  0  # atno 10764 bound_to 10752
  154.0454  135.2973  155.3328 H   0  0  0  0  0  0  0  0  0  0  0  0  # atno 10765 bound_to 10752
  140.1510  134.4462  155.8382 H   0  0  0  0  0  0  0  0  0  0  0  0  # atno 11005 bound_to 11000
  146.1325  140.7166  142.9405 LP  0  0  0  0  0  0  0  0  0  0  0  0  # atno 17320 bound_to 7965
  144.7178  140.4271  143.7031 LP  0  0  0  0  0  0  0  0  0  0  0  0  # atno 17321 bound_to 7965
  139.8356  144.7234  150.9395 LP  0  0  0  0  0  0  0  0  0  0  0  0  # atno 17342 bound_to 10162
  140.7809  143.4030  151.1118 LP  0  0  0  0  0  0  0  0  0  0  0  0  # atno 17343 bound_to 10162
  157.6582  130.8942  149.9773 LP  0  0  0  0  0  0  0  0  0  0  0  0  # atno 17370 bound_to 10713
  156.1136  130.3649  150.0007 LP  0  0  0  0  0  0  0  0  0  0  0  0  # atno 17371 bound_to 10713
  141.2199  133.6872  156.7421 LP  0  0  0  0  0  0  0  0  0  0  0  0  # atno 17394 bound_to 11000
  140.2605  134.8470  157.3754 LP  0  0  0  0  0  0  0  0  0  0  0  0  # atno 17395 bound_to 11000

$$$$
