AV-unprocessed.smi:1872|AV-procd|sdf|7606|dock4
  -GOLD-   22720 9323D 1   1.00000     0.00000
 Structure written by MMmdl.
 40 42  0  0  0  0  0  0  0  0  2 V2000
  149.5730  132.7295  154.0272 C   0  0  0  0  0  0  0  0  0  0  0  0
  148.2998  133.0787  153.3325 C   0  0  0  0  0  0  0  0  0  0  0  0
  147.9668  132.7499  152.0526 N   0  3  0  0  0  0  0  0  0  0  0  0
  146.6982  133.2479  151.7520 C   0  0  0  0  0  0  0  0  0  0  0  0
  145.9414  133.1685  150.5869 C   0  0  0  0  0  0  0  0  0  0  0  0
  144.6766  133.7921  150.6102 C   0  0  0  0  0  0  0  0  0  0  0  0
  144.2096  134.4617  151.7597 C   0  0  0  0  0  0  0  0  0  0  0  0
  144.9855  134.5349  152.9351 C   0  0  0  0  0  0  0  0  0  0  0  0
  146.2341  133.9137  152.9054 C   0  0  0  0  0  0  0  0  0  0  0  0
  147.2546  133.7808  153.8552 N   0  0  0  0  0  0  0  0  0  0  0  0
  147.0887  134.3661  155.1951 C   0  0  0  0  0  0  0  0  0  0  0  0
  148.0846  135.5072  155.4822 C   0  0  1  0  0  0  0  0  0  0  0  0
  147.8453  136.5961  154.6115 O   0  0  0  0  0  0  0  0  0  0  0  0
  148.0408  135.9132  156.9469 C   0  0  0  0  0  0  0  0  0  0  0  0
  146.8670  136.4835  157.4816 C   0  0  0  0  0  0  0  0  0  0  0  0
  146.8207  136.8787  158.8322 C   0  0  0  0  0  0  0  0  0  0  0  0
  147.9456  136.7198  159.6661 C   0  0  0  0  0  0  0  0  0  0  0  0
  147.8324  137.1157  160.9798 O   0  0  0  0  0  0  0  0  0  0  0  0
  147.9036  136.1830  161.9668 C   0  0  0  0  0  0  0  0  0  0  0  0
  147.7261  136.7767  163.1715 F   0  0  0  0  0  0  0  0  0  0  0  0
  146.9225  135.2593  161.8173 F   0  0  0  0  0  0  0  0  0  0  0  0
  149.1202  136.1387  159.1310 C   0  0  0  0  0  0  0  0  0  0  0  0
  149.1678  135.7442  157.7799 C   0  0  0  0  0  0  0  0  0  0  0  0
  150.2450  132.1977  153.3532 H   0  0  0  0  0  0  0  0  0  0  0  0
  149.3689  132.0925  154.8880 H   0  0  0  0  0  0  0  0  0  0  0  0
  150.0740  133.6337  154.3731 H   0  0  0  0  0  0  0  0  0  0  0  0
  146.2980  132.6573  149.7045 H   0  0  0  0  0  0  0  0  0  0  0  0
  144.0531  133.7576  149.7284 H   0  0  0  0  0  0  0  0  0  0  0  0
  143.2364  134.9305  151.7396 H   0  0  0  0  0  0  0  0  0  0  0  0
  144.6194  135.0564  153.8069 H   0  0  0  0  0  0  0  0  0  0  0  0
  146.0581  134.6984  155.3200 H   0  0  0  0  0  0  0  0  0  0  0  0
  147.2335  133.5602  155.9158 H   0  0  0  0  0  0  0  0  0  0  0  0
  149.0934  135.1555  155.2617 H   0  0  0  0  0  0  0  0  0  0  0  0
  148.4463  136.5347  153.8845 H   0  0  0  0  0  0  0  0  0  0  0  0
  145.9967  136.6228  156.8570 H   0  0  0  0  0  0  0  0  0  0  0  0
  145.9153  137.3128  159.2304 H   0  0  0  0  0  0  0  0  0  0  0  0
  148.8730  135.6841  161.9818 H   0  0  0  0  0  0  0  0  0  0  0  0
  149.9937  135.9860  159.7472 H   0  0  0  0  0  0  0  0  0  0  0  0
  150.0759  135.3112  157.3867 H   0  0  0  0  0  0  0  0  0  0  0  0
  148.5662  132.2222  151.4310 H   0  0  0  0  0  0  0  0  0  0  0  0
  1  2  1  0  0  0  0
  1 24  1  0  0  0  0
  1 25  1  0  0  0  0
  1 26  1  0  0  0  0
  2 10  1  0  0  0  0
  2  3  2  0  0  0  0
  3  4  1  0  0  0  0
  3 40  1  0  0  0  0
  4  9  2  0  0  0  0
  4  5  1  0  0  0  0
  5  6  2  0  0  0  0
  5 27  1  0  0  0  0
  6  7  1  0  0  0  0
  6 28  1  0  0  0  0
  7  8  2  0  0  0  0
  7 29  1  0  0  0  0
  8  9  1  0  0  0  0
  8 30  1  0  0  0  0
  9 10  1  0  0  0  0
 10 11  1  0  0  0  0
 11 12  1  0  0  0  0
 11 31  1  0  0  0  0
 11 32  1  0  0  0  0
 12 13  1  0  0  0  0
 12 14  1  0  0  0  0
 12 33  1  0  0  0  0
 13 34  1  0  0  0  0
 14 23  1  0  0  0  0
 14 15  2  0  0  0  0
 15 16  1  0  0  0  0
 15 35  1  0  0  0  0
 16 17  2  0  0  0  0
 16 36  1  0  0  0  0
 17 18  1  0  0  0  0
 17 22  1  0  0  0  0
 18 19  1  0  0  0  0
 19 20  1  0  0  0  0
 19 21  1  0  0  0  0
 19 37  1  0  0  0  0
 22 23  2  0  0  0  0
 22 38  1  0  0  0  0
 23 39  1  0  0  0  0
M  CHG  1   3   1
M  END
> <s_m_source_file>
AV-unprocessed.smi

> <i_m_source_file_index>
1872

> <i_lp_mmshare_version>
43012

> <i_f3d_flags>
0

> <s_epik_input>
W2NIXTFbY0hdW2NIXVtjSF1jKGMxMiluKGMobjIpW0NIM10pW0NIMl1bQ0BIXShbT0hdKWMzW2NIXVtjSF1jKE9bQ0hdKEYpRilbY0hdW2NIXTM=

> <s_epik_cmdline>
J2VwaWtfcHl0aG9uJywgJy1waCcsICc3LjAnLCAnLXRuJywgJzgnLCAnLW1hJywgJzIwMCcsICctbWV0YWxfYmluZGluZycsICctaW1hZScsICc8aW5maWxlLm1hZT4nLCAnLW9tYWUnLCAnPG91dGZpbGUubWFlPic=

> <r_lp_tautomer_probability>
1

> <r_epik_Ionization_Penalty>
0.963868

> <r_epik_Ionization_Penalty_Charging>
0.963868

> <r_epik_Ionization_Penalty_Neutral>
2.50501e-07

> <r_epik_State_Penalty>
1.00924

> <r_epik_Charging_Adjusted_Penalty>
1.9731

> <i_epik_Tot_Q>
1

> <i_epik_Tot_abs_Q>
1

> <r_epik_Metal_State_Penalty>
4.98304

> <b_epik_Metal_Only>
0

> <s_lp_Force_Field>
OPLS_2005

> <r_lp_Energy>
14.447

> <b_lp_Chiralities_Consistent>
1

> <s_lp_Variant>
AV-unprocessed.smi:1872-4

> <Gold.Version>
5.8.1

> <Gold.Id.Protein>
6NUR|6NUR_protein|mol2

> <Gold.PLP.Fitness>
47.4062

> <Gold.PLP.PLP>
-37.3248

> <Gold.PLP.part.hbond>
-4.0000

> <Gold.PLP.part.metal>
0.0000

> <Gold.PLP.part.buried>
-5.6538

> <Gold.PLP.part.nonpolar>
-28.5968

> <Gold.PLP.part.repulsive>
0.0266

> <Gold.PLP.ligand.clash>
0.0000

> <Gold.PLP.ligand.torsion>
0.1042

> <Gold.PLP.Chemscore.Hbond>
3.4136

> <Gold.PLP.Chemscore.CHOScore>
0.0000

> <Gold.PLP.Chemscore.Metal>
0.0000

> <Gold.Chemscore.Hbonds>
donor molecule, donor type, donor heavy atom, donor atom, acceptor molecule, acceptor atom, score
      L1  H     3    40       P1 10747  1.00
      L1  H    13    34       P1  7948  0.83
      P1  H  6931  6943       L1    18  0.57
      P1  H  6934  6947       L1    18  0.83

> <Gold.PLP.Chemscore.Internal.Correction>
0.0492

> <Gold.Rescore>
     Score         DG    S(hbond)    S(metal)    S(lipo)     H(rot)  DE(clash)    DE(int)     intcor
     16.61     -16.65       2.87        0.00      64.39       2.32       0.00       0.04       ----

> <Gold.Chemscore.Fitness>
16.6112

> <Gold.Chemscore.DG>
-16.6513

> <Gold.Chemscore.ZeroCoef>
-5.4800

> <Gold.Chemscore.Hbond>
2.8668

> <Gold.Chemscore.Metal>
0.0000

> <Gold.Chemscore.Lipo>
64.3936

> <Gold.Chemscore.Internal_Hbond>
0.0000

> <Gold.Chemscore.DEClash>
0.0037

> <Gold.Chemscore.DEInternal>
0.0364

> <Gold.Chemscore.Rot>
2.3195

> <Gold.Chemscore.Internal.Correction>
   9.000000E+99

> <Gold.Chemscore.Hbonds>
donor molecule, donor type, donor heavy atom, donor atom, acceptor molecule, acceptor atom, score
      L1  H     3    40       P1 10747  0.98
      L1  H    13    34       P1  7948  0.79
      P1  H  6931  6943       L1    18  0.04
      P1  H  6934  6947       L1    18  0.44

> <Gold.Chemscore.Hbond.Weighted>
-9.5752

> <Gold.Chemscore.Metal.Weighted>
-0.0000

> <Gold.Chemscore.Lipo.Weighted>
-7.5341

> <Gold.Chemscore.Internal_Hbond.Weighted>
0.0000

> <Gold.Chemscore.DEClash.Weighted>
0.0037

> <Gold.Chemscore.DEInternal.Weighted>
0.0364

> <Gold.Chemscore.Rot.Weighted>
5.9379

> <Gold.Chemscore.Internal.Correction.Weighted>
   9.000000E+99

> <Gold.Protein.RotatedTorsions>
[ 6907 6896 6895 6894 ] final -175.12 input  -60.11 | X-H torsion
[ 7974 7965 7964 7962 ] final   13.30 input  175.53 | X-H torsion
[ 8008 7997 7996 7995 ] final  -80.86 input   59.86 | X-H torsion
[ 10167 10162 10161 10158 ] final    6.53 input  -65.29 | X-H torsion
[ 10718 10713 10712 10709 ] final  -93.29 input   66.30 | X-H torsion
[ 10763 10752 10751 10750 ] final    4.32 input  -60.55 | X-H torsion
[ 11005 11000 10999 10996 ] final   44.59 input  -57.11 | X-H torsion

> <Gold.Protein.ActiveResidues>
 VAL166  LYS551  ARG553  GLY616  TRP617  ASP618  TYR619  PRO620  LYS621  CYS622 
 ASP623  PHE694  ASN695  SER759  ASP760  ASP761  ALA762  ILE779  LEU786  VAL792 
 PHE793  MET794  SER795  GLU796  ALA797  LYS798  CYS799  TRP800  GLU811  SER814 

> <Gold.Protein.RotatedAtoms>
  151.5834  133.3375  159.3012 H   0  0  0  0  0  0  0  0  0  0  0  0  # atno 6907 bound_to 6896
  150.8301  134.7553  159.6857 H   0  0  0  0  0  0  0  0  0  0  0  0  # atno 6908 bound_to 6896
  152.4385  134.5644  159.9955 H   0  0  0  0  0  0  0  0  0  0  0  0  # atno 6909 bound_to 6896
  146.2332  139.9209  142.8510 H   0  0  0  0  0  0  0  0  0  0  0  0  # atno 7974 bound_to 7965
  154.5925  140.0656  156.9258 H   0  0  0  0  0  0  0  0  0  0  0  0  # atno 8008 bound_to 7997
  155.2271  140.3334  155.4290 H   0  0  0  0  0  0  0  0  0  0  0  0  # atno 8009 bound_to 7997
  156.2265  140.1821  156.7334 H   0  0  0  0  0  0  0  0  0  0  0  0  # atno 8010 bound_to 7997
  140.6422  143.7746  150.7445 H   0  0  0  0  0  0  0  0  0  0  0  0  # atno 10167 bound_to 10162
  156.0011  130.5021  150.5753 H   0  0  0  0  0  0  0  0  0  0  0  0  # atno 10718 bound_to 10713
  153.2727  135.6933  153.7464 H   0  0  0  0  0  0  0  0  0  0  0  0  # atno 10763 bound_to 10752
  153.6482  135.3381  155.3093 H   0  0  0  0  0  0  0  0  0  0  0  0  # atno 10764 bound_to 10752
  154.8469  135.4448  154.1754 H   0  0  0  0  0  0  0  0  0  0  0  0  # atno 10765 bound_to 10752
  140.1538  134.4428  155.8363 H   0  0  0  0  0  0  0  0  0  0  0  0  # atno 11005 bound_to 11000
  145.2137  140.9906  143.4085 LP  0  0  0  0  0  0  0  0  0  0  0  0  # atno 17320 bound_to 7965
  144.9669  139.3921  143.6328 LP  0  0  0  0  0  0  0  0  0  0  0  0  # atno 17321 bound_to 7965
  140.1380  143.4466  152.2212 LP  0  0  0  0  0  0  0  0  0  0  0  0  # atno 17342 bound_to 10162
  139.5632  144.7419  151.4097 LP  0  0  0  0  0  0  0  0  0  0  0  0  # atno 17343 bound_to 10162
  157.3642  131.0755  151.1611 LP  0  0  0  0  0  0  0  0  0  0  0  0  # atno 17370 bound_to 10713
  157.2386  130.6559  149.5880 LP  0  0  0  0  0  0  0  0  0  0  0  0  # atno 17371 bound_to 10713
  141.2202  133.6884  156.7470 LP  0  0  0  0  0  0  0  0  0  0  0  0  # atno 17394 bound_to 11000
  140.2572  134.8495  157.3724 LP  0  0  0  0  0  0  0  0  0  0  0  0  # atno 17395 bound_to 11000

$$$$
