AV-unprocessed.smi:595|AV-procd|sdf|3018|dock3
  -GOLD-   2262023523D 1   1.00000     0.00000
 Structure written by MMmdl.
 39 40  0  0  0  0  0  0  0  0  1 V2000
  151.4711  137.3047  159.8226 O   0  0  0  0  0  0  0  0  0  0  0  0
  151.0443  138.0098  158.9046 C   0  0  0  0  0  0  0  0  0  0  0  0
  151.9959  138.9684  158.1727 C   0  0  0  0  0  0  0  0  0  0  0  0
  152.4974  140.0468  159.0405 N   0  0  0  0  0  0  0  0  0  0  0  0
  151.9794  141.3368  158.8121 C   0  0  0  0  0  0  0  0  0  0  0  0
  152.3374  142.4109  159.5414 C   0  0  0  0  0  0  0  0  0  0  0  0
  151.7976  143.8000  159.2382 C   0  0  0  0  0  0  0  0  0  0  0  0
  150.4645  143.8064  159.2335 F   0  0  0  0  0  0  0  0  0  0  0  0
  152.2180  144.6874  160.1406 F   0  0  0  0  0  0  0  0  0  0  0  0
  152.2191  144.1977  158.0386 F   0  0  0  0  0  0  0  0  0  0  0  0
  153.3310  142.1872  160.5731 C   0  0  0  0  0  0  0  0  0  0  0  0
  153.8412  140.9612  160.8007 C   0  0  0  0  0  0  0  0  0  0  0  0
  153.4194  139.7972  160.0179 C   0  0  0  0  0  0  0  0  0  0  0  0
  153.8664  138.6699  160.2293 O   0  0  0  0  0  0  0  0  0  0  0  0
  149.7684  138.0255  158.4538 N   0  0  0  0  0  0  0  0  0  0  0  0
  148.6752  137.3307  158.8493 C   0  0  0  0  0  0  0  0  0  0  0  0
  147.6875  137.2518  158.1204 O   0  0  0  0  0  0  0  0  0  0  0  0
  148.7254  136.7399  160.0582 N   0  0  0  0  0  0  0  0  0  0  0  0
  147.6135  136.0562  160.7119 C   0  0  0  0  0  0  0  0  0  0  0  0
  147.2669  136.7471  162.0428 C   0  0  0  0  0  0  0  0  0  0  0  0
  147.7691  135.8118  163.1424 C   0  0  0  0  0  0  0  0  0  0  0  0
  147.6110  134.4180  162.5431 C   0  0  0  0  0  0  0  0  0  0  0  0
  147.9692  134.5970  161.0666 C   0  0  0  0  0  0  0  0  0  0  0  0
  152.8113  138.3847  157.7428 H   0  0  0  0  0  0  0  0  0  0  0  0
  151.4815  139.4071  157.3156 H   0  0  0  0  0  0  0  0  0  0  0  0
  151.2644  141.3945  158.0037 H   0  0  0  0  0  0  0  0  0  0  0  0
  153.6697  143.0159  161.1776 H   0  0  0  0  0  0  0  0  0  0  0  0
  154.5786  140.8313  161.5791 H   0  0  0  0  0  0  0  0  0  0  0  0
  149.5997  138.6646  157.6908 H   0  0  0  0  0  0  0  0  0  0  0  0
  149.6023  136.7655  160.5598 H   0  0  0  0  0  0  0  0  0  0  0  0
  146.7378  136.0859  160.0609 H   0  0  0  0  0  0  0  0  0  0  0  0
  147.6856  137.7507  162.1330 H   0  0  0  0  0  0  0  0  0  0  0  0
  146.1835  136.8441  162.1248 H   0  0  0  0  0  0  0  0  0  0  0  0
  148.8232  136.0093  163.3415 H   0  0  0  0  0  0  0  0  0  0  0  0
  147.2233  135.9316  164.0785 H   0  0  0  0  0  0  0  0  0  0  0  0
  148.2336  133.6731  163.0390 H   0  0  0  0  0  0  0  0  0  0  0  0
  146.5723  134.0972  162.6327 H   0  0  0  0  0  0  0  0  0  0  0  0
  147.4450  133.8811  160.4327 H   0  0  0  0  0  0  0  0  0  0  0  0
  149.0377  134.4179  160.9374 H   0  0  0  0  0  0  0  0  0  0  0  0
  1  2  2  0  0  0  0
  2  3  1  0  0  0  0
  2 15  1  0  0  0  0
  3  4  1  0  0  0  0
  3 24  1  0  0  0  0
  3 25  1  0  0  0  0
  4 13  1  0  0  0  0
  4  5  1  0  0  0  0
  5  6  2  0  0  0  0
  5 26  1  0  0  0  0
  6  7  1  0  0  0  0
  6 11  1  0  0  0  0
  7  8  1  0  0  0  0
  7  9  1  0  0  0  0
  7 10  1  0  0  0  0
 11 12  2  0  0  0  0
 11 27  1  0  0  0  0
 12 13  1  0  0  0  0
 12 28  1  0  0  0  0
 13 14  2  0  0  0  0
 15 16  1  0  0  0  0
 15 29  1  0  0  0  0
 16 17  2  0  0  0  0
 16 18  1  0  0  0  0
 18 19  1  0  0  0  0
 18 30  1  0  0  0  0
 19 23  1  0  0  0  0
 19 20  1  0  0  0  0
 19 31  1  0  0  0  0
 20 21  1  0  0  0  0
 20 32  1  0  0  0  0
 20 33  1  0  0  0  0
 21 22  1  0  0  0  0
 21 34  1  0  0  0  0
 21 35  1  0  0  0  0
 22 23  1  0  0  0  0
 22 36  1  0  0  0  0
 22 37  1  0  0  0  0
 23 38  1  0  0  0  0
 23 39  1  0  0  0  0
M  END
> <s_m_source_file>
AV-unprocessed.smi

> <i_m_source_file_index>
595

> <i_lp_mmshare_version>
43012

> <i_f3d_flags>
0

> <s_epik_input>
W0NIMl0xW0NIMl1bQ0gyXVtDSDJdW0NIXTFbTkhdQyg9TylbTkhdQyg9TylbQ0gyXW4yW2NIXWMoQyhGKShGKUYpW2NIXVtjSF1jMj1P

> <s_epik_cmdline>
J2VwaWtfcHl0aG9uJywgJy1waCcsICc3LjAnLCAnLXRuJywgJzgnLCAnLW1hJywgJzIwMCcsICctbWV0YWxfYmluZGluZycsICctaW1hZScsICc8aW5maWxlLm1hZT4nLCAnLW9tYWUnLCAnPG91dGZpbGUubWFlPic=

> <r_lp_tautomer_probability>
1

> <r_epik_Ionization_Penalty>
3.29047e-05

> <r_epik_Ionization_Penalty_Charging>
1.42456e-08

> <r_epik_Ionization_Penalty_Neutral>
3.28905e-05

> <r_epik_State_Penalty>
-0

> <r_epik_Charging_Adjusted_Penalty>
1.42456e-08

> <i_epik_Tot_Q>
0

> <i_epik_Tot_abs_Q>
0

> <r_epik_Metal_State_Penalty>
-0

> <b_epik_Metal_Only>
0

> <s_lp_Force_Field>
OPLS_2005

> <r_lp_Energy>
34.7393

> <b_lp_Chiralities_Consistent>
1

> <s_lp_Variant>
AV-unprocessed.smi:595-1

> <Gold.Version>
5.8.1

> <Gold.Id.Protein>
6NUR|6NUR_protein|mol2

> <Gold.PLP.Fitness>
53.1744

> <Gold.PLP.PLP>
-51.9578

> <Gold.PLP.part.hbond>
-0.4635

> <Gold.PLP.part.metal>
0.0000

> <Gold.PLP.part.buried>
-6.8051

> <Gold.PLP.part.nonpolar>
-45.1355

> <Gold.PLP.part.repulsive>
0.3826

> <Gold.PLP.ligand.clash>
0.0000

> <Gold.PLP.ligand.torsion>
0.3875

> <Gold.PLP.Chemscore.Hbond>
0.6175

> <Gold.PLP.Chemscore.CHOScore>
0.0000

> <Gold.PLP.Chemscore.Metal>
0.0000

> <Gold.Chemscore.Hbonds>
donor molecule, donor type, donor heavy atom, donor atom, acceptor molecule, acceptor atom, score
      P1  H  6896  6908       L1     1  0.73

> <Gold.PLP.Chemscore.Internal.Correction>
0.1392

> <Gold.Rescore>
     Score         DG    S(hbond)    S(metal)    S(lipo)     H(rot)  DE(clash)    DE(int)     intcor
     12.87     -14.58       0.90        0.00      88.73       1.68       0.08       1.62       ----

> <Gold.Chemscore.Fitness>
12.8723

> <Gold.Chemscore.DG>
-14.5774

> <Gold.Chemscore.ZeroCoef>
-5.4800

> <Gold.Chemscore.Hbond>
0.8994

> <Gold.Chemscore.Metal>
0.0000

> <Gold.Chemscore.Lipo>
88.7318

> <Gold.Chemscore.Internal_Hbond>
0.0000

> <Gold.Chemscore.DEClash>
0.0836

> <Gold.Chemscore.DEInternal>
1.6216

> <Gold.Chemscore.Rot>
1.6750

> <Gold.Chemscore.Internal.Correction>
   9.000000E+99

> <Gold.Chemscore.Hbonds>
donor molecule, donor type, donor heavy atom, donor atom, acceptor molecule, acceptor atom, score
      P1  H  6896  6908       L1     1  0.73

> <Gold.Chemscore.Hbond.Weighted>
-3.0039

> <Gold.Chemscore.Metal.Weighted>
-0.0000

> <Gold.Chemscore.Lipo.Weighted>
-10.3816

> <Gold.Chemscore.Internal_Hbond.Weighted>
0.0000

> <Gold.Chemscore.DEClash.Weighted>
0.0836

> <Gold.Chemscore.DEInternal.Weighted>
1.6216

> <Gold.Chemscore.Rot.Weighted>
4.2881

> <Gold.Chemscore.Internal.Correction.Weighted>
   9.000000E+99

> <Gold.Protein.RotatedTorsions>
[ 6907 6896 6895 6894 ] final -123.35 input  -60.11 | X-H torsion
[ 7974 7965 7964 7962 ] final   75.68 input  175.53 | X-H torsion
[ 8008 7997 7996 7995 ] final -174.07 input   59.86 | X-H torsion
[ 10167 10162 10161 10158 ] final   99.70 input  -65.29 | X-H torsion
[ 10718 10713 10712 10709 ] final -168.55 input   66.30 | X-H torsion
[ 10763 10752 10751 10750 ] final   40.40 input  -60.55 | X-H torsion
[ 11005 11000 10999 10996 ] final  -39.65 input  -57.11 | X-H torsion

> <Gold.Protein.ActiveResidues>
 VAL166  LYS551  ARG553  GLY616  TRP617  ASP618  TYR619  PRO620  LYS621  CYS622 
 ASP623  PHE694  ASN695  SER759  ASP760  ASP761  ALA762  ILE779  LEU786  VAL792 
 PHE793  MET794  SER795  GLU796  ALA797  LYS798  CYS799  TRP800  GLU811  SER814 

> <Gold.Protein.RotatedAtoms>
  150.8662  133.7571  159.2975 H   0  0  0  0  0  0  0  0  0  0  0  0  # atno 6907 bound_to 6896
  151.5198  135.1065  159.9885 H   0  0  0  0  0  0  0  0  0  0  0  0  # atno 6908 bound_to 6896
  152.4662  133.7885  159.6945 H   0  0  0  0  0  0  0  0  0  0  0  0  # atno 6909 bound_to 6896
  145.7125  139.2620  143.1642 H   0  0  0  0  0  0  0  0  0  0  0  0  # atno 7974 bound_to 7965
  155.9655  140.1153  157.0858 H   0  0  0  0  0  0  0  0  0  0  0  0  # atno 8008 bound_to 7997
  154.4143  140.1173  156.5303 H   0  0  0  0  0  0  0  0  0  0  0  0  # atno 8009 bound_to 7997
  155.6665  140.3473  155.4804 H   0  0  0  0  0  0  0  0  0  0  0  0  # atno 8010 bound_to 7997
  139.7593  144.6959  151.0315 H   0  0  0  0  0  0  0  0  0  0  0  0  # atno 10167 bound_to 10162
  156.6985  130.9187  151.3077 H   0  0  0  0  0  0  0  0  0  0  0  0  # atno 10718 bound_to 10713
  152.9937  135.6192  154.2620 H   0  0  0  0  0  0  0  0  0  0  0  0  # atno 10763 bound_to 10752
  154.2355  135.2790  155.2875 H   0  0  0  0  0  0  0  0  0  0  0  0  # atno 10764 bound_to 10752
  154.5413  135.5760  153.6900 H   0  0  0  0  0  0  0  0  0  0  0  0  # atno 10765 bound_to 10752
  141.0117  133.6905  156.2215 H   0  0  0  0  0  0  0  0  0  0  0  0  # atno 11005 bound_to 11000
  146.0699  140.7880  142.9693 LP  0  0  0  0  0  0  0  0  0  0  0  0  # atno 17320 bound_to 7965
  144.6938  140.3326  143.7213 LP  0  0  0  0  0  0  0  0  0  0  0  0  # atno 17321 bound_to 7965
  140.7806  143.4715  151.0139 LP  0  0  0  0  0  0  0  0  0  0  0  0  # atno 17342 bound_to 10162
  139.8402  143.7574  152.3180 LP  0  0  0  0  0  0  0  0  0  0  0  0  # atno 17343 bound_to 10162
  157.6982  130.9304  150.0706 LP  0  0  0  0  0  0  0  0  0  0  0  0  # atno 17370 bound_to 10713
  156.1746  130.3647  149.9118 LP  0  0  0  0  0  0  0  0  0  0  0  0  # atno 17371 bound_to 10713
  140.6722  134.4855  157.5587 LP  0  0  0  0  0  0  0  0  0  0  0  0  # atno 17394 bound_to 11000
  139.9094  134.8378  156.1585 LP  0  0  0  0  0  0  0  0  0  0  0  0  # atno 17395 bound_to 11000

$$$$
