AV-unprocessed.smi:1728|AV-procd|sdf|6967|dock7
  -GOLD-   22720 8183D 1   1.00000     0.00000
 Structure written by MMmdl.
 46 47  0  0  0  0  0  0  0  0  1 V2000
  151.7933  138.3222  154.4088 C   0  0  0  0  0  0  0  0  0  0  0  0
  150.4234  138.1433  154.0659 O   0  0  0  0  0  0  0  0  0  0  0  0
  149.5638  139.2180  154.1947 C   0  0  0  0  0  0  0  0  0  0  0  0
  150.0707  140.3999  154.6277 N   0  0  0  0  0  0  0  0  0  0  0  0
  149.2350  141.4512  154.7500 C   0  0  0  0  0  0  0  0  0  0  0  0
  147.8638  141.3843  154.4440 C   0  0  0  0  0  0  0  0  0  0  0  0
  147.3356  140.1602  153.9937 C   0  0  0  0  0  0  0  0  0  0  0  0
  148.1974  139.0421  153.8722 C   0  0  0  0  0  0  0  0  0  0  0  0
  147.7829  137.7587  153.4164 N   0  0  0  0  0  0  0  0  0  0  0  0
  146.6306  137.1048  153.6419 C   0  0  0  0  0  0  0  0  0  0  0  0
  145.6903  137.5181  154.3195 O   0  0  0  0  0  0  0  0  0  0  0  0
  146.6295  135.9121  153.0346 N   0  0  0  0  0  0  0  0  0  0  0  0
  145.5206  134.9635  153.0691 C   0  0  0  0  0  0  0  0  0  0  0  0
  145.8300  133.6691  152.2639 C   0  0  0  0  0  0  0  0  0  0  0  0
  144.4721  132.9479  152.0667 C   0  0  0  0  0  0  0  0  0  0  0  0
  146.3254  134.1055  150.8641 C   0  0  0  0  0  0  0  0  0  0  0  0
  146.8013  132.7954  152.9806 N   0  0  0  0  0  0  0  0  0  0  0  0
  146.8256  131.3984  152.5324 C   0  0  0  0  0  0  0  0  0  0  0  0
  147.7575  130.5303  153.3955 C   0  0  0  0  0  0  0  0  0  0  0  0
  149.0690  131.0809  153.3898 O   0  0  0  0  0  0  0  0  0  0  0  0
  149.0979  132.4183  153.8731 C   0  0  0  0  0  0  0  0  0  0  0  0
  148.1790  133.3006  153.0117 C   0  0  0  0  0  0  0  0  0  0  0  0
  152.3288  137.3865  154.2502 H   0  0  0  0  0  0  0  0  0  0  0  0
  151.9113  138.5965  155.4581 H   0  0  0  0  0  0  0  0  0  0  0  0
  152.2642  139.0824  153.7841 H   0  0  0  0  0  0  0  0  0  0  0  0
  149.6733  142.3750  155.0975 H   0  0  0  0  0  0  0  0  0  0  0  0
  147.2317  142.2536  154.5485 H   0  0  0  0  0  0  0  0  0  0  0  0
  146.2881  140.1140  153.7425 H   0  0  0  0  0  0  0  0  0  0  0  0
  148.4761  137.2538  152.8833 H   0  0  0  0  0  0  0  0  0  0  0  0
  147.4408  135.6431  152.4969 H   0  0  0  0  0  0  0  0  0  0  0  0
  145.3016  134.7144  154.1092 H   0  0  0  0  0  0  0  0  0  0  0  0
  144.6209  135.4556  152.6976 H   0  0  0  0  0  0  0  0  0  0  0  0
  143.7047  133.6313  151.7012 H   0  0  0  0  0  0  0  0  0  0  0  0
  144.1048  132.5174  152.9990 H   0  0  0  0  0  0  0  0  0  0  0  0
  144.5335  132.1439  151.3333 H   0  0  0  0  0  0  0  0  0  0  0  0
  145.5887  134.7389  150.3685 H   0  0  0  0  0  0  0  0  0  0  0  0
  146.5012  133.2555  150.2052 H   0  0  0  0  0  0  0  0  0  0  0  0
  147.2494  134.6810  150.9159 H   0  0  0  0  0  0  0  0  0  0  0  0
  145.8309  130.9586  152.5741 H   0  0  0  0  0  0  0  0  0  0  0  0
  147.1548  131.3413  151.4949 H   0  0  0  0  0  0  0  0  0  0  0  0
  147.3865  130.4651  154.4196 H   0  0  0  0  0  0  0  0  0  0  0  0
  147.7971  129.5137  153.0040 H   0  0  0  0  0  0  0  0  0  0  0  0
  148.7868  132.4432  154.9186 H   0  0  0  0  0  0  0  0  0  0  0  0
  150.1223  132.7888  153.8352 H   0  0  0  0  0  0  0  0  0  0  0  0
  148.5856  133.3503  152.0017 H   0  0  0  0  0  0  0  0  0  0  0  0
  148.2155  134.3097  153.4179 H   0  0  0  0  0  0  0  0  0  0  0  0
  1  2  1  0  0  0  0
  1 23  1  0  0  0  0
  1 24  1  0  0  0  0
  1 25  1  0  0  0  0
  2  3  1  0  0  0  0
  3  8  1  0  0  0  0
  3  4  2  0  0  0  0
  4  5  1  0  0  0  0
  5  6  2  0  0  0  0
  5 26  1  0  0  0  0
  6  7  1  0  0  0  0
  6 27  1  0  0  0  0
  7  8  2  0  0  0  0
  7 28  1  0  0  0  0
  8  9  1  0  0  0  0
  9 10  1  0  0  0  0
  9 29  1  0  0  0  0
 10 11  2  0  0  0  0
 10 12  1  0  0  0  0
 12 13  1  0  0  0  0
 12 30  1  0  0  0  0
 13 14  1  0  0  0  0
 13 31  1  0  0  0  0
 13 32  1  0  0  0  0
 14 15  1  0  0  0  0
 14 16  1  0  0  0  0
 14 17  1  0  0  0  0
 15 33  1  0  0  0  0
 15 34  1  0  0  0  0
 15 35  1  0  0  0  0
 16 36  1  0  0  0  0
 16 37  1  0  0  0  0
 16 38  1  0  0  0  0
 17 22  1  0  0  0  0
 17 18  1  0  0  0  0
 18 19  1  0  0  0  0
 18 39  1  0  0  0  0
 18 40  1  0  0  0  0
 19 20  1  0  0  0  0
 19 41  1  0  0  0  0
 19 42  1  0  0  0  0
 20 21  1  0  0  0  0
 21 22  1  0  0  0  0
 21 43  1  0  0  0  0
 21 44  1  0  0  0  0
 22 45  1  0  0  0  0
 22 46  1  0  0  0  0
M  END
> <s_m_source_file>
AV-unprocessed.smi

> <i_m_source_file_index>
1728

> <i_lp_mmshare_version>
43012

> <i_f3d_flags>
0

> <s_epik_input>
W0NIM11PYzFuW2NIXVtjSF1bY0hdYzFbTkhdQyg9TylbTkhdW0NIMl1DKFtDSDNdKShbQ0gzXSlOMltDSDJdW0NIMl1PW0NIMl1bQ0gyXTI=

> <s_epik_cmdline>
J2VwaWtfcHl0aG9uJywgJy1waCcsICc3LjAnLCAnLXRuJywgJzgnLCAnLW1hJywgJzIwMCcsICctbWV0YWxfYmluZGluZycsICctaW1hZScsICc8aW5maWxlLm1hZT4nLCAnLW9tYWUnLCAnPG91dGZpbGUubWFlPic=

> <r_lp_tautomer_probability>
1

> <r_epik_Ionization_Penalty>
0.266086

> <r_epik_Ionization_Penalty_Charging>
0

> <r_epik_Ionization_Penalty_Neutral>
0.266086

> <r_epik_State_Penalty>
0.257924

> <r_epik_Charging_Adjusted_Penalty>
0.257924

> <i_epik_Tot_Q>
0

> <i_epik_Tot_abs_Q>
0

> <r_epik_Metal_State_Penalty>
0.257921

> <b_epik_Metal_Only>
0

> <s_lp_Force_Field>
OPLS_2005

> <r_lp_Energy>
44.4816

> <b_lp_Chiralities_Consistent>
1

> <s_lp_Variant>
AV-unprocessed.smi:1728-1

> <Gold.Version>
5.8.1

> <Gold.Id.Protein>
6NUR|6NUR_protein|mol2

> <Gold.PLP.Fitness>
43.6162

> <Gold.PLP.PLP>
-33.4753

> <Gold.PLP.part.hbond>
-2.8296

> <Gold.PLP.part.metal>
0.0000

> <Gold.PLP.part.buried>
-3.2273

> <Gold.PLP.part.nonpolar>
-27.5379

> <Gold.PLP.part.repulsive>
0.6883

> <Gold.PLP.ligand.clash>
0.0000

> <Gold.PLP.ligand.torsion>
0.7032

> <Gold.PLP.Chemscore.Hbond>
2.8313

> <Gold.PLP.Chemscore.CHOScore>
1.0000

> <Gold.PLP.Chemscore.Metal>
0.0000

> <Gold.Chemscore.Hbonds>
donor molecule, donor type, donor heavy atom, donor atom, acceptor molecule, acceptor atom, score
      L1  H     9    29       P1  7948  0.96
      L1  H    12    30       P1  7948  0.90
      P1  H  7989  7998       L1     4  0.96
      L1  C     5    26       P1  8028  1.00

> <Gold.PLP.Chemscore.Internal.Correction>
0.0534

> <Gold.Rescore>
     Score         DG    S(hbond)    S(metal)    S(lipo)     H(rot)  DE(clash)    DE(int)     intcor
     16.73     -17.67       2.30        0.00      75.77       1.70       0.15       0.80       ----

> <Gold.Chemscore.Fitness>
16.7251

> <Gold.Chemscore.DG>
-17.6693

> <Gold.Chemscore.ZeroCoef>
-5.4800

> <Gold.Chemscore.Hbond>
2.3002

> <Gold.Chemscore.Metal>
0.0000

> <Gold.Chemscore.Lipo>
75.7676

> <Gold.Chemscore.Internal_Hbond>
0.0000

> <Gold.Chemscore.DEClash>
0.1477

> <Gold.Chemscore.DEInternal>
0.7964

> <Gold.Chemscore.Rot>
1.7024

> <Gold.Chemscore.Internal.Correction>
   9.000000E+99

> <Gold.Chemscore.Hbonds>
donor molecule, donor type, donor heavy atom, donor atom, acceptor molecule, acceptor atom, score
      L1  H     9    29       P1  7948  0.89
      L1  H    12    30       P1  7948  0.88
      P1  H  7989  7998       L1     4  0.47

> <Gold.Chemscore.Hbond.Weighted>
-7.6827

> <Gold.Chemscore.Metal.Weighted>
-0.0000

> <Gold.Chemscore.Lipo.Weighted>
-8.8648

> <Gold.Chemscore.Internal_Hbond.Weighted>
0.0000

> <Gold.Chemscore.DEClash.Weighted>
0.1477

> <Gold.Chemscore.DEInternal.Weighted>
0.7964

> <Gold.Chemscore.Rot.Weighted>
4.3583

> <Gold.Chemscore.Internal.Correction.Weighted>
   9.000000E+99

> <Gold.Protein.RotatedTorsions>
[ 6907 6896 6895 6894 ] final  -89.95 input  -60.11 | X-H torsion
[ 7974 7965 7964 7962 ] final  -90.25 input  175.53 | X-H torsion
[ 8008 7997 7996 7995 ] final -106.65 input   59.86 | X-H torsion
[ 10167 10162 10161 10158 ] final   -5.78 input  -65.29 | X-H torsion
[ 10718 10713 10712 10709 ] final -132.00 input   66.30 | X-H torsion
[ 10763 10752 10751 10750 ] final  -25.23 input  -60.55 | X-H torsion
[ 11005 11000 10999 10996 ] final    3.35 input  -57.11 | X-H torsion

> <Gold.Protein.ActiveResidues>
 VAL166  LYS551  ARG553  GLY616  TRP617  ASP618  TYR619  PRO620  LYS621  CYS622 
 ASP623  PHE694  ASN695  SER759  ASP760  ASP761  ALA762  ILE779  LEU786  VAL792 
 PHE793  MET794  SER795  GLU796  ALA797  LYS798  CYS799  TRP800  GLU811  SER814 

> <Gold.Protein.RotatedAtoms>
  150.6877  134.2507  159.4509 H   0  0  0  0  0  0  0  0  0  0  0  0  # atno 6907 bound_to 6896
  152.0445  134.9689  160.0583 H   0  0  0  0  0  0  0  0  0  0  0  0  # atno 6908 bound_to 6896
  152.1177  133.4301  159.4698 H   0  0  0  0  0  0  0  0  0  0  0  0  # atno 6909 bound_to 6896
  145.4289  140.9555  143.2139 H   0  0  0  0  0  0  0  0  0  0  0  0  # atno 7974 bound_to 7965
  154.9176  140.0408  157.1980 H   0  0  0  0  0  0  0  0  0  0  0  0  # atno 8008 bound_to 7997
  154.8285  140.2895  155.5717 H   0  0  0  0  0  0  0  0  0  0  0  0  # atno 8009 bound_to 7997
  156.2985  140.2505  156.3206 H   0  0  0  0  0  0  0  0  0  0  0  0  # atno 8010 bound_to 7997
  140.6975  143.6269  150.8559 H   0  0  0  0  0  0  0  0  0  0  0  0  # atno 10167 bound_to 10162
  156.2301  130.7032  151.0849 H   0  0  0  0  0  0  0  0  0  0  0  0  # atno 10718 bound_to 10713
  153.6966  135.6958  153.5075 H   0  0  0  0  0  0  0  0  0  0  0  0  # atno 10763 bound_to 10752
  153.2373  135.4317  155.0660 H   0  0  0  0  0  0  0  0  0  0  0  0  # atno 10764 bound_to 10752
  154.8357  135.3499  154.6506 H   0  0  0  0  0  0  0  0  0  0  0  0  # atno 10765 bound_to 10752
  140.5941  133.9896  155.8102 H   0  0  0  0  0  0  0  0  0  0  0  0  # atno 11005 bound_to 11000
  144.8195  139.5816  143.6993 LP  0  0  0  0  0  0  0  0  0  0  0  0  # atno 17320 bound_to 7965
  146.2617  139.6426  142.9357 LP  0  0  0  0  0  0  0  0  0  0  0  0  # atno 17321 bound_to 7965
  139.9988  143.5766  152.2883 LP  0  0  0  0  0  0  0  0  0  0  0  0  # atno 17342 bound_to 10162
  139.6448  144.7657  151.2265 LP  0  0  0  0  0  0  0  0  0  0  0  0  # atno 17343 bound_to 10162
  157.7129  131.0725  150.6436 LP  0  0  0  0  0  0  0  0  0  0  0  0  # atno 17370 bound_to 10713
  156.6503  130.4483  149.5722 LP  0  0  0  0  0  0  0  0  0  0  0  0  # atno 17371 bound_to 10713
  141.0915  133.9909  157.3229 LP  0  0  0  0  0  0  0  0  0  0  0  0  # atno 17394 bound_to 11000
  139.9261  135.0201  156.8238 LP  0  0  0  0  0  0  0  0  0  0  0  0  # atno 17395 bound_to 11000

$$$$
