AV-unprocessed.smi:3263|AV-procd|sdf|12486|dock4
  -GOLD-   2272018383D 1   1.00000     0.00000
 Structure written by MMmdl.
 41 43  0  0  0  0  0  0  0  0  1 V2000
  151.1654  140.8647  157.2424 O   0  0  0  0  0  0  0  0  0  0  0  0
  150.4682  141.7296  156.7125 C   0  0  0  0  0  0  0  0  0  0  0  0
  149.7478  141.4360  155.3938 C   0  0  0  0  0  0  0  0  0  0  0  0
  148.2207  141.6566  155.4816 C   0  0  2  0  0  0  0  0  0  0  0  0
  147.4481  140.4730  156.1026 C   0  0  0  0  0  0  0  0  0  0  0  0
  146.3204  140.2235  155.0828 C   0  0  2  0  0  0  0  0  0  0  0  0
  146.9121  139.5558  153.8277 C   0  0  0  0  0  0  0  0  0  0  0  0
  147.6871  140.7092  153.1652 C   0  0  0  0  0  0  0  0  0  0  0  0
  147.4651  141.8787  154.1464 C   0  0  1  0  0  0  0  0  0  0  0  0
  146.0237  141.6315  154.5790 C   0  0  0  0  0  0  0  0  0  0  0  0
  150.2789  142.9495  157.2378 N   0  0  0  0  0  0  0  0  0  0  0  0
  150.8152  143.4021  158.5155 C   0  0  0  0  0  0  0  0  0  0  0  0
  152.3271  143.1364  158.6144 C   0  0  0  0  0  0  0  0  0  0  0  0
  152.7640  142.8160  160.0310 C   0  0  0  0  0  0  0  0  0  0  0  0
  152.2887  143.5753  161.1217 C   0  0  0  0  0  0  0  0  0  0  0  0
  152.7298  143.2388  162.4161 C   0  0  0  0  0  0  0  0  0  0  0  0
  153.6244  142.1620  162.5694 C   0  0  0  0  0  0  0  0  0  0  0  0
  154.0402  141.4668  161.4164 C   0  0  0  0  0  0  0  0  0  0  0  0
  153.6233  141.7814  160.1709 N   0  0  0  0  0  0  0  0  0  0  0  0
  150.1773  142.0385  154.5924 H   0  0  0  0  0  0  0  0  0  0  0  0
  149.9475  140.3985  155.1248 H   0  0  0  0  0  0  0  0  0  0  0  0
  148.0468  142.5328  156.1095 H   0  0  0  0  0  0  0  0  0  0  0  0
  148.0677  139.5870  156.2467 H   0  0  0  0  0  0  0  0  0  0  0  0
  147.0410  140.7516  157.0753 H   0  0  0  0  0  0  0  0  0  0  0  0
  145.4645  139.6912  155.4985 H   0  0  0  0  0  0  0  0  0  0  0  0
  147.5542  138.7090  154.0726 H   0  0  0  0  0  0  0  0  0  0  0  0
  146.1219  139.1969  153.1671 H   0  0  0  0  0  0  0  0  0  0  0  0
  148.7381  140.4735  153.0024 H   0  0  0  0  0  0  0  0  0  0  0  0
  147.2551  140.9440  152.1915 H   0  0  0  0  0  0  0  0  0  0  0  0
  147.6398  142.8594  153.7022 H   0  0  0  0  0  0  0  0  0  0  0  0
  145.3121  141.6549  153.7518 H   0  0  0  0  0  0  0  0  0  0  0  0
  145.6817  142.3092  155.3634 H   0  0  0  0  0  0  0  0  0  0  0  0
  149.6947  143.5993  156.7315 H   0  0  0  0  0  0  0  0  0  0  0  0
  150.5994  144.4624  158.6581 H   0  0  0  0  0  0  0  0  0  0  0  0
  150.2928  142.8686  159.3102 H   0  0  0  0  0  0  0  0  0  0  0  0
  152.6019  142.3092  157.9585 H   0  0  0  0  0  0  0  0  0  0  0  0
  152.8886  144.0037  158.2637 H   0  0  0  0  0  0  0  0  0  0  0  0
  151.6028  144.3964  160.9723 H   0  0  0  0  0  0  0  0  0  0  0  0
  152.3888  143.7967  163.2757 H   0  0  0  0  0  0  0  0  0  0  0  0
  153.9836  141.8756  163.5468 H   0  0  0  0  0  0  0  0  0  0  0  0
  154.7265  140.6366  161.4964 H   0  0  0  0  0  0  0  0  0  0  0  0
  1  2  2  0  0  0  0
  2  3  1  0  0  0  0
  2 11  1  0  0  0  0
  3  4  1  0  0  0  0
  3 20  1  0  0  0  0
  3 21  1  0  0  0  0
  4  9  1  0  0  0  0
  4  5  1  0  0  0  0
  4 22  1  0  0  0  0
  5  6  1  0  0  0  0
  5 23  1  0  0  0  0
  5 24  1  0  0  0  0
  6 10  1  0  0  0  0
  6  7  1  0  0  0  0
  6 25  1  0  0  0  0
  7  8  1  0  0  0  0
  7 26  1  0  0  0  0
  7 27  1  0  0  0  0
  8  9  1  0  0  0  0
  8 28  1  0  0  0  0
  8 29  1  0  0  0  0
  9 10  1  0  0  0  0
  9 30  1  0  0  0  0
 10 31  1  0  0  0  0
 10 32  1  0  0  0  0
 11 12  1  0  0  0  0
 11 33  1  0  0  0  0
 12 13  1  0  0  0  0
 12 34  1  0  0  0  0
 12 35  1  0  0  0  0
 13 14  1  0  0  0  0
 13 36  1  0  0  0  0
 13 37  1  0  0  0  0
 14 19  1  0  0  0  0
 14 15  2  0  0  0  0
 15 16  1  0  0  0  0
 15 38  1  0  0  0  0
 16 17  2  0  0  0  0
 16 39  1  0  0  0  0
 17 18  1  0  0  0  0
 17 40  1  0  0  0  0
 18 19  2  0  0  0  0
 18 41  1  0  0  0  0
M  END
> <s_m_source_file>
AV-unprocessed.smi

> <i_m_source_file_index>
3263

> <i_lp_mmshare_version>
43012

> <i_f3d_flags>
0

> <s_epik_input>
W0NIMl0xW0NIMl1bQ0BASF0oW0NIMl0yKVtDQEBIXShbQ0gyXVtDQEhdMTIpW0NIMl1DKD1PKVtOSF1bQ0gyXVtDSDJdYzNbY0hdW2NIXVtjSF1bY0hdbjM=

> <s_epik_cmdline>
J2VwaWtfcHl0aG9uJywgJy1waCcsICc3LjAnLCAnLXRuJywgJzgnLCAnLW1hJywgJzIwMCcsICctbWV0YWxfYmluZGluZycsICctaW1hZScsICc8aW5maWxlLm1hZT4nLCAnLW9tYWUnLCAnPG91dGZpbGUubWFlPic=

> <r_epik_Ionization_Penalty>
0.0273541

> <r_epik_Ionization_Penalty_Charging>
0

> <r_epik_Ionization_Penalty_Neutral>
0.0273541

> <r_epik_State_Penalty>
0.0223838

> <r_epik_Charging_Adjusted_Penalty>
0.0223838

> <i_epik_Tot_Q>
0

> <i_epik_Tot_abs_Q>
0

> <r_epik_Metal_State_Penalty>
0.0213927

> <b_epik_Metal_Only>
0

> <s_lp_Force_Field>
OPLS_2005

> <r_lp_Energy>
46.2802

> <b_lp_Chiralities_Consistent>
1

> <s_lp_Variant>
AV-unprocessed.smi:3263-1

> <Gold.Version>
5.8.1

> <Gold.Id.Protein>
6NUR|6NUR_protein|mol2

> <Gold.PLP.Fitness>
44.2287

> <Gold.PLP.PLP>
-42.5389

> <Gold.PLP.part.hbond>
-1.0000

> <Gold.PLP.part.metal>
0.0000

> <Gold.PLP.part.buried>
-2.9235

> <Gold.PLP.part.nonpolar>
-39.0412

> <Gold.PLP.part.repulsive>
0.0163

> <Gold.PLP.ligand.clash>
0.0000

> <Gold.PLP.ligand.torsion>
0.6827

> <Gold.PLP.Chemscore.Hbond>
1.0000

> <Gold.PLP.Chemscore.CHOScore>
0.0000

> <Gold.PLP.Chemscore.Metal>
0.0000

> <Gold.Chemscore.Hbonds>
donor molecule, donor type, donor heavy atom, donor atom, acceptor molecule, acceptor atom, score
      L1  H    11    33       P1  8028  1.00

> <Gold.PLP.Chemscore.Internal.Correction>
0.0551

> <Gold.Rescore>
     Score         DG    S(hbond)    S(metal)    S(lipo)     H(rot)  DE(clash)    DE(int)     intcor
     16.54     -19.34       1.00        0.00     121.76       1.46       1.18       1.62       ----

> <Gold.Chemscore.Fitness>
16.5420

> <Gold.Chemscore.DG>
-19.3383

> <Gold.Chemscore.ZeroCoef>
-5.4800

> <Gold.Chemscore.Hbond>
0.9995

> <Gold.Chemscore.Metal>
0.0000

> <Gold.Chemscore.Lipo>
121.7605

> <Gold.Chemscore.Internal_Hbond>
0.0000

> <Gold.Chemscore.DEClash>
1.1787

> <Gold.Chemscore.DEInternal>
1.6177

> <Gold.Chemscore.Rot>
1.4555

> <Gold.Chemscore.Internal.Correction>
   9.000000E+99

> <Gold.Chemscore.Hbonds>
donor molecule, donor type, donor heavy atom, donor atom, acceptor molecule, acceptor atom, score
      L1  H    11    33       P1  8028  1.00

> <Gold.Chemscore.Hbond.Weighted>
-3.3384

> <Gold.Chemscore.Metal.Weighted>
-0.0000

> <Gold.Chemscore.Lipo.Weighted>
-14.2460

> <Gold.Chemscore.Internal_Hbond.Weighted>
0.0000

> <Gold.Chemscore.DEClash.Weighted>
1.1787

> <Gold.Chemscore.DEInternal.Weighted>
1.6177

> <Gold.Chemscore.Rot.Weighted>
3.7260

> <Gold.Chemscore.Internal.Correction.Weighted>
   9.000000E+99

> <Gold.Protein.RotatedTorsions>
[ 6907 6896 6895 6894 ] final  171.02 input  -60.11 | X-H torsion
[ 7974 7965 7964 7962 ] final  -61.71 input  175.53 | X-H torsion
[ 8008 7997 7996 7995 ] final  -81.26 input   59.86 | X-H torsion
[ 10167 10162 10161 10158 ] final  -38.73 input  -65.29 | X-H torsion
[ 10718 10713 10712 10709 ] final -159.02 input   66.30 | X-H torsion
[ 10763 10752 10751 10750 ] final -108.68 input  -60.55 | X-H torsion
[ 11005 11000 10999 10996 ] final  126.67 input  -57.11 | X-H torsion

> <Gold.Protein.ActiveResidues>
 VAL166  LYS551  ARG553  GLY616  TRP617  ASP618  TYR619  PRO620  LYS621  CYS622 
 ASP623  PHE694  ASN695  SER759  ASP760  ASP761  ALA762  ILE779  LEU786  VAL792 
 PHE793  MET794  SER795  GLU796  ALA797  LYS798  CYS799  TRP800  GLU811  SER814 

> <Gold.Protein.RotatedAtoms>
  151.8069  133.3377  159.3543 H   0  0  0  0  0  0  0  0  0  0  0  0  # atno 6907 bound_to 6896
  150.7339  134.5701  159.5895 H   0  0  0  0  0  0  0  0  0  0  0  0  # atno 6908 bound_to 6896
  152.3103  134.7506  160.0389 H   0  0  0  0  0  0  0  0  0  0  0  0  # atno 6909 bound_to 6896
  145.8001  140.8660  143.0235 H   0  0  0  0  0  0  0  0  0  0  0  0  # atno 7974 bound_to 7965
  154.5966  140.0650  156.9312 H   0  0  0  0  0  0  0  0  0  0  0  0  # atno 8008 bound_to 7997
  155.2204  140.3329  155.4298 H   0  0  0  0  0  0  0  0  0  0  0  0  # atno 8009 bound_to 7997
  156.2291  140.1832  156.7272 H   0  0  0  0  0  0  0  0  0  0  0  0  # atno 8010 bound_to 7997
  140.7084  143.3259  151.2682 H   0  0  0  0  0  0  0  0  0  0  0  0  # atno 10167 bound_to 10162
  156.5623  130.8652  151.2813 H   0  0  0  0  0  0  0  0  0  0  0  0  # atno 10718 bound_to 10713
  154.8149  135.4629  154.0617 H   0  0  0  0  0  0  0  0  0  0  0  0  # atno 10763 bound_to 10752
  153.2018  135.6870  153.8229 H   0  0  0  0  0  0  0  0  0  0  0  0  # atno 10764 bound_to 10752
  153.7711  135.3270  155.3329 H   0  0  0  0  0  0  0  0  0  0  0  0  # atno 10765 bound_to 10752
  139.9468  134.9628  156.8742 H   0  0  0  0  0  0  0  0  0  0  0  0  # atno 11005 bound_to 11000
  144.6770  140.0247  143.7483 LP  0  0  0  0  0  0  0  0  0  0  0  0  # atno 17320 bound_to 7965
  145.9886  139.2997  143.0998 LP  0  0  0  0  0  0  0  0  0  0  0  0  # atno 17321 bound_to 7965
  139.6726  143.9993  152.2762 LP  0  0  0  0  0  0  0  0  0  0  0  0  # atno 17342 bound_to 10162
  139.9596  144.6566  150.8092 LP  0  0  0  0  0  0  0  0  0  0  0  0  # atno 17343 bound_to 10162
  157.7366  130.9781  150.2145 LP  0  0  0  0  0  0  0  0  0  0  0  0  # atno 17370 bound_to 10713
  156.2788  130.3731  149.7956 LP  0  0  0  0  0  0  0  0  0  0  0  0  # atno 17371 bound_to 10713
  140.5815  134.0348  155.7466 LP  0  0  0  0  0  0  0  0  0  0  0  0  # atno 17394 bound_to 11000
  141.1121  133.9600  157.2891 LP  0  0  0  0  0  0  0  0  0  0  0  0  # atno 17395 bound_to 11000

$$$$
