AV-unprocessed.smi:1847|AV-procd|sdf|7518|dock3
  -GOLD-   22720 9223D 1   1.00000     0.00000
 Structure written by MMmdl.
 25 26  0  0  0  0  0  0  0  0  1 V2000
  152.4207  139.8001  157.7452 O   0  0  0  0  0  0  0  0  0  0  0  0
  151.7263  140.7801  157.4670 C   0  0  0  0  0  0  0  0  0  0  0  0
  150.6828  140.8532  156.5474 N   0  0  0  0  0  0  0  0  0  0  0  0
  150.4444  139.9960  155.6218 C   0  0  0  0  0  0  0  0  0  0  0  0
  149.2885  140.2984  154.7430 C   0  0  0  0  0  0  0  0  0  0  0  0
  148.9723  139.4605  153.7345 C   0  0  0  0  0  0  0  0  0  0  0  0
  149.6821  138.2984  153.4628 N   0  0  0  0  0  0  0  0  0  0  0  0
  150.7624  137.9679  154.2707 C   0  0  0  0  0  0  0  0  0  0  0  0
  151.1748  138.7264  155.3079 C   0  0  0  0  0  0  0  0  0  0  0  0
  151.9267  142.0796  158.1044 C   0  0  0  0  0  0  0  0  0  0  0  0
  151.3418  143.1821  157.5787 C   0  0  0  0  0  0  0  0  0  0  0  0
  151.5034  144.4475  158.0850 O   0  0  0  0  0  0  0  0  0  0  0  0
  152.5345  144.5706  159.0572 C   0  0  0  0  0  0  0  0  0  0  0  0
  152.5213  143.3622  160.0037 C   0  0  0  0  0  0  0  0  0  0  0  0
  152.6721  142.1574  159.2613 O   0  0  0  0  0  0  0  0  0  0  0  0
  148.7265  141.1997  154.9428 H   0  0  0  0  0  0  0  0  0  0  0  0
  148.1412  139.6378  153.0680 H   0  0  0  0  0  0  0  0  0  0  0  0
  151.2481  137.0419  154.0000 H   0  0  0  0  0  0  0  0  0  0  0  0
  152.0153  138.4107  155.9002 H   0  0  0  0  0  0  0  0  0  0  0  0
  150.7253  143.1904  156.6912 H   0  0  0  0  0  0  0  0  0  0  0  0
  153.4979  144.6475  158.5516 H   0  0  0  0  0  0  0  0  0  0  0  0
  152.3899  145.4953  159.6160 H   0  0  0  0  0  0  0  0  0  0  0  0
  153.3299  143.4372  160.7310 H   0  0  0  0  0  0  0  0  0  0  0  0
  151.5862  143.3250  160.5642 H   0  0  0  0  0  0  0  0  0  0  0  0
  149.4121  137.6991  152.6955 H   0  0  0  0  0  0  0  0  0  0  0  0
  1  2  2  0  0  0  0
  2  3  1  0  0  0  0
  2 10  1  0  0  0  0
  3  4  2  0  0  0  0
  4  9  1  0  0  0  0
  4  5  1  0  0  0  0
  5  6  2  0  0  0  0
  5 16  1  0  0  0  0
  6  7  1  0  0  0  0
  6 17  1  0  0  0  0
  7  8  1  0  0  0  0
  7 25  1  0  0  0  0
  8  9  2  0  0  0  0
  8 18  1  0  0  0  0
  9 19  1  0  0  0  0
 10 15  1  0  0  0  0
 10 11  2  0  0  0  0
 11 12  1  0  0  0  0
 11 20  1  0  0  0  0
 12 13  1  0  0  0  0
 13 14  1  0  0  0  0
 13 21  1  0  0  0  0
 13 22  1  0  0  0  0
 14 15  1  0  0  0  0
 14 23  1  0  0  0  0
 14 24  1  0  0  0  0
M  END
> <s_m_source_file>
AV-unprocessed.smi

> <i_m_source_file_index>
1847

> <i_lp_mmshare_version>
43012

> <i_f3d_flags>
0

> <s_epik_input>
TzFbQ0gyXVtDSDJdT1tDSF09QzFDKD1PKVtOSF1jMltjSF1bY0hdbltjSF1bY0hdMg==

> <s_epik_cmdline>
J2VwaWtfcHl0aG9uJywgJy1waCcsICc3LjAnLCAnLXRuJywgJzgnLCAnLW1hJywgJzIwMCcsICctbWV0YWxfYmluZGluZycsICctaW1hZScsICc8aW5maWxlLm1hZT4nLCAnLW9tYWUnLCAnPG91dGZpbGUubWFlPic=

> <r_epik_Ionization_Penalty>
6.73206

> <r_epik_Ionization_Penalty_Charging>
6.73206

> <r_epik_Ionization_Penalty_Neutral>
0

> <r_epik_State_Penalty>
8.39127

> <r_epik_Charging_Adjusted_Penalty>
15.1233

> <i_epik_Tot_Q>
0

> <i_epik_Tot_abs_Q>
0

> <r_epik_Metal_State_Penalty>
11.2314

> <b_epik_Metal_Only>
1

> <s_lp_Force_Field>
OPLS_2005

> <r_lp_Energy>
18.4122

> <b_lp_Chiralities_Consistent>
1

> <s_lp_Variant>
AV-unprocessed.smi:1847-4

> <Gold.Version>
5.8.1

> <Gold.Id.Protein>
6NUR|6NUR_protein|mol2

> <Gold.PLP.Fitness>
41.9080

> <Gold.PLP.PLP>
-29.9320

> <Gold.PLP.part.hbond>
-3.0000

> <Gold.PLP.part.metal>
0.0000

> <Gold.PLP.part.buried>
-2.5705

> <Gold.PLP.part.nonpolar>
-24.1052

> <Gold.PLP.part.repulsive>
0.2633

> <Gold.PLP.ligand.clash>
0.0000

> <Gold.PLP.ligand.torsion>
0.1572

> <Gold.PLP.Chemscore.Hbond>
2.0000

> <Gold.PLP.Chemscore.CHOScore>
2.0964

> <Gold.PLP.Chemscore.Metal>
0.0000

> <Gold.Chemscore.Hbonds>
donor molecule, donor type, donor heavy atom, donor atom, acceptor molecule, acceptor atom, score
      L1  H     7    25       P1  7948  1.00
      P1  H  7997  8010       L1     1  0.47
      L1  C     6    17       P1  7957  0.27
      L1  C     8    18       P1  7949  0.45
      L1  C    11    20       P1  8028  0.84

> <Gold.PLP.Chemscore.Internal.Correction>
0.0012

> <Gold.Rescore>
     Score         DG    S(hbond)    S(metal)    S(lipo)     H(rot)  DE(clash)    DE(int)     intcor
     19.65     -21.12       1.98        0.00      77.04       0.00       0.08       1.39       ----

> <Gold.Chemscore.Fitness>
19.6474

> <Gold.Chemscore.DG>
-21.1156

> <Gold.Chemscore.ZeroCoef>
-5.4800

> <Gold.Chemscore.Hbond>
1.9825

> <Gold.Chemscore.Metal>
0.0000

> <Gold.Chemscore.Lipo>
77.0436

> <Gold.Chemscore.Internal_Hbond>
0.0000

> <Gold.Chemscore.DEClash>
0.0814

> <Gold.Chemscore.DEInternal>
1.3868

> <Gold.Chemscore.Rot>
0.0000

> <Gold.Chemscore.Internal.Correction>
   9.000000E+99

> <Gold.Chemscore.Hbonds>
donor molecule, donor type, donor heavy atom, donor atom, acceptor molecule, acceptor atom, score
      L1  H     7    25       P1  7948  0.82
      P1  H  7997  8010       L1     1  0.31

> <Gold.Chemscore.Hbond.Weighted>
-6.6215

> <Gold.Chemscore.Metal.Weighted>
-0.0000

> <Gold.Chemscore.Lipo.Weighted>
-9.0141

> <Gold.Chemscore.Internal_Hbond.Weighted>
0.0000

> <Gold.Chemscore.DEClash.Weighted>
0.0814

> <Gold.Chemscore.DEInternal.Weighted>
1.3868

> <Gold.Chemscore.Rot.Weighted>
0.0000

> <Gold.Chemscore.Internal.Correction.Weighted>
   9.000000E+99

> <Gold.Protein.RotatedTorsions>
[ 6907 6896 6895 6894 ] final  154.80 input  -60.11 | X-H torsion
[ 7974 7965 7964 7962 ] final  164.60 input  175.53 | X-H torsion
[ 8008 7997 7996 7995 ] final   53.30 input   59.86 | X-H torsion
[ 10167 10162 10161 10158 ] final  -63.34 input  -65.29 | X-H torsion
[ 10718 10713 10712 10709 ] final  -66.22 input   66.30 | X-H torsion
[ 10763 10752 10751 10750 ] final  -41.28 input  -60.55 | X-H torsion
[ 11005 11000 10999 10996 ] final  171.81 input  -57.11 | X-H torsion

> <Gold.Protein.ActiveResidues>
 VAL166  LYS551  ARG553  GLY616  TRP617  ASP618  TYR619  PRO620  LYS621  CYS622 
 ASP623  PHE694  ASN695  SER759  ASP760  ASP761  ALA762  ILE779  LEU786  VAL792 
 PHE793  MET794  SER795  GLU796  ALA797  LYS798  CYS799  TRP800  GLU811  SER814 

> <Gold.Protein.RotatedAtoms>
  152.0534  133.4029  159.4386 H   0  0  0  0  0  0  0  0  0  0  0  0  # atno 6907 bound_to 6896
  150.6869  134.3283  159.4825 H   0  0  0  0  0  0  0  0  0  0  0  0  # atno 6908 bound_to 6896
  152.1095  134.9284  160.0618 H   0  0  0  0  0  0  0  0  0  0  0  0  # atno 6909 bound_to 6896
  144.7538  139.8349  143.6357 H   0  0  0  0  0  0  0  0  0  0  0  0  # atno 7974 bound_to 7965
  155.4659  140.3463  155.4319 H   0  0  0  0  0  0  0  0  0  0  0  0  # atno 8008 bound_to 7997
  156.1131  140.1466  156.9340 H   0  0  0  0  0  0  0  0  0  0  0  0  # atno 8009 bound_to 7997
  154.4770  140.0882  156.7265 H   0  0  0  0  0  0  0  0  0  0  0  0  # atno 8010 bound_to 7997
  140.5877  143.2336  151.6207 H   0  0  0  0  0  0  0  0  0  0  0  0  # atno 10167 bound_to 10162
  156.0624  130.4259  150.1678 H   0  0  0  0  0  0  0  0  0  0  0  0  # atno 10718 bound_to 10713
  153.9599  135.6741  153.4745 H   0  0  0  0  0  0  0  0  0  0  0  0  # atno 10763 bound_to 10752
  153.0843  135.4907  154.8562 H   0  0  0  0  0  0  0  0  0  0  0  0  # atno 10764 bound_to 10752
  154.7278  135.3131  154.8901 H   0  0  0  0  0  0  0  0  0  0  0  0  # atno 10765 bound_to 10752
  140.3230  134.7422  157.4078 H   0  0  0  0  0  0  0  0  0  0  0  0  # atno 11005 bound_to 11000
  146.1523  139.4610  143.0041 LP  0  0  0  0  0  0  0  0  0  0  0  0  # atno 17320 bound_to 7965
  145.6850  141.0180  143.1586 LP  0  0  0  0  0  0  0  0  0  0  0  0  # atno 17321 bound_to 7965
  139.5208  144.3212  152.0909 LP  0  0  0  0  0  0  0  0  0  0  0  0  # atno 17342 bound_to 10162
  140.2372  144.4307  150.6275 LP  0  0  0  0  0  0  0  0  0  0  0  0  # atno 17343 bound_to 10162
  156.9744  130.9844  151.3452 LP  0  0  0  0  0  0  0  0  0  0  0  0  # atno 17370 bound_to 10713
  157.5643  130.8267  149.8306 LP  0  0  0  0  0  0  0  0  0  0  0  0  # atno 17371 bound_to 10713
  140.0926  134.5581  155.8430 LP  0  0  0  0  0  0  0  0  0  0  0  0  # atno 17394 bound_to 11000
  141.2082  133.6671  156.6356 LP  0  0  0  0  0  0  0  0  0  0  0  0  # atno 17395 bound_to 11000

$$$$
