AV-unprocessed.smi:1703|AV-procd|sdf|6864|dock2
  -GOLD-   22720 8 53D 1   1.00000     0.00000
 Structure written by MMmdl.
 49 51  0  0  0  0  0  0  0  0  2 V2000
  145.2880  138.8861  154.7852 C   0  0  0  0  0  0  0  0  0  0  0  0
  145.6739  139.8090  155.9548 C   0  0  1  0  0  0  0  0  0  0  0  0
  147.1857  140.0979  156.0373 C   0  0  0  0  0  0  0  0  0  0  0  0
  147.6108  141.0379  154.9737 N   0  3  2  0  0  0  0  0  0  0  0  0
  149.0756  141.2805  154.9833 C   0  0  0  0  0  0  0  0  0  0  0  0
  149.6747  141.2400  156.4065 C   0  0  2  0  0  0  0  0  0  0  0  0
  149.0944  142.2724  157.1777 O   0  0  0  0  0  0  0  0  0  0  0  0
  151.2045  141.4294  156.4419 C   0  0  0  0  0  0  0  0  0  0  0  0
  151.7047  141.7020  157.7830 N   0  0  0  0  0  0  0  0  0  0  0  0
  152.2181  140.8319  158.6908 C   0  0  0  0  0  0  0  0  0  0  0  0
  152.3530  139.3655  158.4146 C   0  0  0  0  0  0  0  0  0  0  0  0
  153.1746  139.0936  157.2998 O   0  0  0  0  0  0  0  0  0  0  0  0
  152.5931  141.3635  159.8545 N   0  0  0  0  0  0  0  0  0  0  0  0
  152.3102  142.7042  159.6833 C   0  0  0  0  0  0  0  0  0  0  0  0
  152.4837  143.7987  160.5601 C   0  0  0  0  0  0  0  0  0  0  0  0
  152.1176  145.1000  160.1582 C   0  0  0  0  0  0  0  0  0  0  0  0
  151.5732  145.3248  158.8774 C   0  0  0  0  0  0  0  0  0  0  0  0
  151.3898  144.2479  157.9892 C   0  0  0  0  0  0  0  0  0  0  0  0
  151.7566  142.9506  158.3952 C   0  0  0  0  0  0  0  0  0  0  0  0
  146.8010  142.2786  155.0337 C   0  0  0  0  0  0  0  0  0  0  0  0
  145.3032  141.9451  154.9147 C   0  0  2  0  0  0  0  0  0  0  0  0
  144.4247  143.1932  155.0548 C   0  0  0  0  0  0  0  0  0  0  0  0
  144.9367  141.0316  155.9457 O   0  0  0  0  0  0  0  0  0  0  0  0
  145.7660  137.9116  154.8888 H   0  0  0  0  0  0  0  0  0  0  0  0
  145.5886  139.2913  153.8195 H   0  0  0  0  0  0  0  0  0  0  0  0
  144.2107  138.7221  154.7594 H   0  0  0  0  0  0  0  0  0  0  0  0
  145.3863  139.2911  156.8704 H   0  0  0  0  0  0  0  0  0  0  0  0
  147.4241  140.5321  157.0098 H   0  0  0  0  0  0  0  0  0  0  0  0
  147.7455  139.1648  155.9627 H   0  0  0  0  0  0  0  0  0  0  0  0
  149.5530  140.5471  154.3321 H   0  0  0  0  0  0  0  0  0  0  0  0
  149.2893  142.2578  154.5479 H   0  0  0  0  0  0  0  0  0  0  0  0
  149.4364  140.2928  156.8882 H   0  0  0  0  0  0  0  0  0  0  0  0
  149.1262  143.0762  156.6811 H   0  0  0  0  0  0  0  0  0  0  0  0
  151.7052  140.5517  156.0344 H   0  0  0  0  0  0  0  0  0  0  0  0
  151.4919  142.2641  155.8012 H   0  0  0  0  0  0  0  0  0  0  0  0
  152.7795  138.8714  159.2884 H   0  0  0  0  0  0  0  0  0  0  0  0
  151.3676  138.9271  158.2579 H   0  0  0  0  0  0  0  0  0  0  0  0
  152.6580  138.6476  156.6460 H   0  0  0  0  0  0  0  0  0  0  0  0
  152.9011  143.6376  161.5430 H   0  0  0  0  0  0  0  0  0  0  0  0
  152.2570  145.9295  160.8358 H   0  0  0  0  0  0  0  0  0  0  0  0
  151.2976  146.3253  158.5771 H   0  0  0  0  0  0  0  0  0  0  0  0
  150.9751  144.4186  157.0068 H   0  0  0  0  0  0  0  0  0  0  0  0
  146.9993  142.7982  155.9727 H   0  0  0  0  0  0  0  0  0  0  0  0
  147.0815  142.9583  154.2302 H   0  0  0  0  0  0  0  0  0  0  0  0
  145.1029  141.5002  153.9396 H   0  0  0  0  0  0  0  0  0  0  0  0
  144.6532  143.9237  154.2781 H   0  0  0  0  0  0  0  0  0  0  0  0
  144.5732  143.6754  156.0214 H   0  0  0  0  0  0  0  0  0  0  0  0
  143.3683  142.9375  154.9689 H   0  0  0  0  0  0  0  0  0  0  0  0
  147.4024  140.5869  154.0939 H   0  0  0  0  0  0  0  0  0  0  0  0
  1  2  1  0  0  0  0
  1 24  1  0  0  0  0
  1 25  1  0  0  0  0
  1 26  1  0  0  0  0
  2 23  1  0  0  0  0
  2  3  1  0  0  0  0
  2 27  1  0  0  0  0
  3  4  1  0  0  0  0
  3 28  1  0  0  0  0
  3 29  1  0  0  0  0
  4  5  1  0  0  0  0
  4 20  1  0  0  0  0
  4 49  1  0  0  0  0
  5  6  1  0  0  0  0
  5 30  1  0  0  0  0
  5 31  1  0  0  0  0
  6  7  1  0  0  0  0
  6  8  1  0  0  0  0
  6 32  1  0  0  0  0
  7 33  1  0  0  0  0
  8  9  1  0  0  0  0
  8 34  1  0  0  0  0
  8 35  1  0  0  0  0
  9 19  1  0  0  0  0
  9 10  1  0  0  0  0
 10 11  1  0  0  0  0
 10 13  2  0  0  0  0
 11 12  1  0  0  0  0
 11 36  1  0  0  0  0
 11 37  1  0  0  0  0
 12 38  1  0  0  0  0
 13 14  1  0  0  0  0
 14 19  2  0  0  0  0
 14 15  1  0  0  0  0
 15 16  2  0  0  0  0
 15 39  1  0  0  0  0
 16 17  1  0  0  0  0
 16 40  1  0  0  0  0
 17 18  2  0  0  0  0
 17 41  1  0  0  0  0
 18 19  1  0  0  0  0
 18 42  1  0  0  0  0
 20 21  1  0  0  0  0
 20 43  1  0  0  0  0
 20 44  1  0  0  0  0
 21 22  1  0  0  0  0
 21 23  1  0  0  0  0
 21 45  1  0  0  0  0
 22 46  1  0  0  0  0
 22 47  1  0  0  0  0
 22 48  1  0  0  0  0
M  CHG  1   4   1
M  END
> <s_m_source_file>
AV-unprocessed.smi

> <i_m_source_file_index>
1703

> <i_lp_mmshare_version>
43012

> <i_f3d_flags>
0

> <s_epik_input>
W0NIM11bQ0BASF0xW0NIMl1OKFtDSDJdW0NASF0oTzEpW0NIM10pW0NIMl1bQ0BIXShbT0hdKVtDSDJdbihjKG4yKVtDSDJdW09IXSljKGMyMylbY0hdW2NIXVtjSF1bY0hdMw==

> <s_epik_cmdline>
J2VwaWtfcHl0aG9uJywgJy1waCcsICc3LjAnLCAnLXRuJywgJzgnLCAnLW1hJywgJzIwMCcsICctbWV0YWxfYmluZGluZycsICctaW1hZScsICc8aW5maWxlLm1hZT4nLCAnLW9tYWUnLCAnPG91dGZpbGUubWFlPic=

> <r_epik_Ionization_Penalty>
0.655661

> <r_epik_Ionization_Penalty_Charging>
0.608065

> <r_epik_Ionization_Penalty_Neutral>
0.0475963

> <r_epik_State_Penalty>
0.695267

> <r_epik_Charging_Adjusted_Penalty>
1.30333

> <i_epik_Tot_Q>
1

> <i_epik_Tot_abs_Q>
1

> <r_epik_Metal_State_Penalty>
0.653591

> <b_epik_Metal_Only>
0

> <s_lp_Force_Field>
OPLS_2005

> <r_lp_Energy>
25.3139

> <b_lp_Chiralities_Consistent>
1

> <s_lp_Variant>
AV-unprocessed.smi:1703-12

> <Gold.Version>
5.8.1

> <Gold.Id.Protein>
6NUR|6NUR_protein|mol2

> <Gold.PLP.Fitness>
46.0619

> <Gold.PLP.PLP>
-41.5777

> <Gold.PLP.part.hbond>
-2.0000

> <Gold.PLP.part.metal>
0.0000

> <Gold.PLP.part.buried>
-5.1945

> <Gold.PLP.part.nonpolar>
-34.3169

> <Gold.PLP.part.repulsive>
0.1135

> <Gold.PLP.ligand.clash>
0.0000

> <Gold.PLP.ligand.torsion>
0.8176

> <Gold.PLP.Chemscore.Hbond>
2.0000

> <Gold.PLP.Chemscore.CHOScore>
0.0000

> <Gold.PLP.Chemscore.Metal>
0.0000

> <Gold.Chemscore.Hbonds>
donor molecule, donor type, donor heavy atom, donor atom, acceptor molecule, acceptor atom, score
      L1  H     7    33       P1  8028  1.00
      P1  H  7997  8009       L1    12  1.00

> <Gold.PLP.Chemscore.Internal.Correction>
0.1194

> <Gold.Rescore>
     Score         DG    S(hbond)    S(metal)    S(lipo)     H(rot)  DE(clash)    DE(int)     intcor
     15.63     -17.33       1.95        0.00     110.38       2.96       0.05       1.65       ----

> <Gold.Chemscore.Fitness>
15.6305

> <Gold.Chemscore.DG>
-17.3339

> <Gold.Chemscore.ZeroCoef>
-5.4800

> <Gold.Chemscore.Hbond>
1.9519

> <Gold.Chemscore.Metal>
0.0000

> <Gold.Chemscore.Lipo>
110.3826

> <Gold.Chemscore.Internal_Hbond>
0.0000

> <Gold.Chemscore.DEClash>
0.0499

> <Gold.Chemscore.DEInternal>
1.6535

> <Gold.Chemscore.Rot>
2.9611

> <Gold.Chemscore.Internal.Correction>
   9.000000E+99

> <Gold.Chemscore.Hbonds>
donor molecule, donor type, donor heavy atom, donor atom, acceptor molecule, acceptor atom, score
      L1  H     7    33       P1  8028  0.97
      P1  H  7997  8009       L1    12  0.90

> <Gold.Chemscore.Hbond.Weighted>
-6.5195

> <Gold.Chemscore.Metal.Weighted>
-0.0000

> <Gold.Chemscore.Lipo.Weighted>
-12.9148

> <Gold.Chemscore.Internal_Hbond.Weighted>
0.0000

> <Gold.Chemscore.DEClash.Weighted>
0.0499

> <Gold.Chemscore.DEInternal.Weighted>
1.6535

> <Gold.Chemscore.Rot.Weighted>
7.5803

> <Gold.Chemscore.Internal.Correction.Weighted>
   9.000000E+99

> <Gold.Protein.RotatedTorsions>
[ 6907 6896 6895 6894 ] final -132.37 input  -60.11 | X-H torsion
[ 7974 7965 7964 7962 ] final   97.24 input  175.53 | X-H torsion
[ 8008 7997 7996 7995 ] final  176.63 input   59.86 | X-H torsion
[ 10167 10162 10161 10158 ] final  -72.76 input  -65.29 | X-H torsion
[ 10718 10713 10712 10709 ] final    9.76 input   66.30 | X-H torsion
[ 10763 10752 10751 10750 ] final   74.35 input  -60.55 | X-H torsion
[ 11005 11000 10999 10996 ] final  116.49 input  -57.11 | X-H torsion

> <Gold.Protein.ActiveResidues>
 VAL166  LYS551  ARG553  GLY616  TRP617  ASP618  TYR619  PRO620  LYS621  CYS622 
 ASP623  PHE694  ASN695  SER759  ASP760  ASP761  ALA762  ILE779  LEU786  VAL792 
 PHE793  MET794  SER795  GLU796  ALA797  LYS798  CYS799  TRP800  GLU811  SER814 

> <Gold.Protein.RotatedAtoms>
  150.9616  133.6439  159.2753 H   0  0  0  0  0  0  0  0  0  0  0  0  # atno 6907 bound_to 6896
  151.3760  135.0930  159.9490 H   0  0  0  0  0  0  0  0  0  0  0  0  # atno 6908 bound_to 6896
  152.5150  133.9160  159.7566 H   0  0  0  0  0  0  0  0  0  0  0  0  # atno 6909 bound_to 6896
  145.4281  139.2313  143.3159 H   0  0  0  0  0  0  0  0  0  0  0  0  # atno 7974 bound_to 7965
  156.0744  140.1379  156.9789 H   0  0  0  0  0  0  0  0  0  0  0  0  # atno 8008 bound_to 7997
  154.4549  140.0965  156.6780 H   0  0  0  0  0  0  0  0  0  0  0  0  # atno 8009 bound_to 7997
  155.5176  140.3455  155.4403 H   0  0  0  0  0  0  0  0  0  0  0  0  # atno 8010 bound_to 7997
  140.5166  143.2337  151.7503 H   0  0  0  0  0  0  0  0  0  0  0  0  # atno 10167 bound_to 10162
  156.9710  130.5969  149.5669 H   0  0  0  0  0  0  0  0  0  0  0  0  # atno 10718 bound_to 10713
  153.0581  135.5029  154.8029 H   0  0  0  0  0  0  0  0  0  0  0  0  # atno 10763 bound_to 10752
  154.6839  135.2973  154.9577 H   0  0  0  0  0  0  0  0  0  0  0  0  # atno 10764 bound_to 10752
  154.0354  135.6724  153.4837 H   0  0  0  0  0  0  0  0  0  0  0  0  # atno 10765 bound_to 10752
  139.9043  134.9598  156.7207 H   0  0  0  0  0  0  0  0  0  0  0  0  # atno 11005 bound_to 11000
  146.2621  140.5014  142.8849 LP  0  0  0  0  0  0  0  0  0  0  0  0  # atno 17320 bound_to 7965
  144.8201  140.6535  143.6359 LP  0  0  0  0  0  0  0  0  0  0  0  0  # atno 17321 bound_to 7965
  139.4911  144.4315  151.9866 LP  0  0  0  0  0  0  0  0  0  0  0  0  # atno 17342 bound_to 10162
  140.3410  144.3203  150.5967 LP  0  0  0  0  0  0  0  0  0  0  0  0  # atno 17343 bound_to 10162
  156.0283  130.5375  150.8465 LP  0  0  0  0  0  0  0  0  0  0  0  0  # atno 17370 bound_to 10713
  157.5592  131.0945  150.9584 LP  0  0  0  0  0  0  0  0  0  0  0  0  # atno 17371 bound_to 10713
  140.7003  133.9312  155.8020 LP  0  0  0  0  0  0  0  0  0  0  0  0  # atno 17394 bound_to 11000
  141.0376  134.0667  157.3940 LP  0  0  0  0  0  0  0  0  0  0  0  0  # atno 17395 bound_to 11000

$$$$
