AV-unprocessed.smi:1417|AV-procd|sdf|5771|dock7
  -GOLD-   22720 5413D 1   1.00000     0.00000
 Structure written by MMmdl.
 39 40  0  0  0  0  0  0  0  0  3 V2000
  151.9440  144.7414  160.2838 C   0  0  0  0  0  0  0  0  0  0  0  0
  151.1826  143.7876  159.4286 C   0  0  0  0  0  0  0  0  0  0  0  0
  150.6621  143.8809  158.1688 C   0  0  0  0  0  0  0  0  0  0  0  0
  150.0638  142.6016  157.9750 C   0  0  0  0  0  0  0  0  0  0  0  0
  149.3716  142.1632  156.8165 N   0  0  0  0  0  0  0  0  0  0  0  0
  148.9236  140.9295  156.5291 C   0  0  0  0  0  0  0  0  0  0  0  0
  149.0238  139.9454  157.2616 O   0  0  0  0  0  0  0  0  0  0  0  0
  148.3440  140.8922  155.3201 N   0  0  0  0  0  0  0  0  0  0  0  0
  147.7761  139.6990  154.6986 C   0  0  2  0  0  0  0  0  0  0  0  0
  147.4884  139.9434  153.2058 C   0  0  0  0  0  0  0  0  0  0  0  0
  146.7927  138.7311  152.5660 C   0  0  0  0  0  0  0  0  0  0  0  0
  145.5412  138.3849  153.2920 N   0  3  1  0  0  0  0  0  0  0  0  0
  144.7670  137.3019  152.6365 C   0  0  0  0  0  0  0  0  0  0  0  0
  143.3817  137.1786  153.2800 C   0  0  0  0  0  0  0  0  0  0  0  0
  142.6299  138.2808  153.0983 N   0  5  0  0  0  0  0  0  0  0  0  0
  143.0843  136.1532  153.8895 O   0  0  0  0  0  0  0  0  0  0  0  0
  145.8022  138.1045  154.7264 C   0  0  0  0  0  0  0  0  0  0  0  0
  146.4740  139.3054  155.4141 C   0  0  0  0  0  0  0  0  0  0  0  0
  150.2096  141.8085  159.0203 N   0  0  0  0  0  0  0  0  0  0  0  0
  150.9272  142.5608  159.9575 O   0  0  0  0  0  0  0  0  0  0  0  0
  151.8554  145.7597  159.9044 H   0  0  0  0  0  0  0  0  0  0  0  0
  153.0017  144.4796  160.3061 H   0  0  0  0  0  0  0  0  0  0  0  0
  151.5701  144.7294  161.3076 H   0  0  0  0  0  0  0  0  0  0  0  0
  150.7111  144.7339  157.5092 H   0  0  0  0  0  0  0  0  0  0  0  0
  149.2114  142.8738  156.1179 H   0  0  0  0  0  0  0  0  0  0  0  0
  148.3012  141.7482  154.7867 H   0  0  0  0  0  0  0  0  0  0  0  0
  148.4843  138.8737  154.7961 H   0  0  0  0  0  0  0  0  0  0  0  0
  146.8571  140.8257  153.0889 H   0  0  0  0  0  0  0  0  0  0  0  0
  148.4152  140.1543  152.6713 H   0  0  0  0  0  0  0  0  0  0  0  0
  146.5739  138.9591  151.5225 H   0  0  0  0  0  0  0  0  0  0  0  0
  147.4642  137.8711  152.5652 H   0  0  0  0  0  0  0  0  0  0  0  0
  144.7210  137.4648  151.5572 H   0  0  0  0  0  0  0  0  0  0  0  0
  145.2676  136.3437  152.7828 H   0  0  0  0  0  0  0  0  0  0  0  0
  143.0295  139.0693  152.5750 H   0  0  0  0  0  0  0  0  0  0  0  0
  144.8632  137.8821  155.2350 H   0  0  0  0  0  0  0  0  0  0  0  0
  146.4304  137.2169  154.8159 H   0  0  0  0  0  0  0  0  0  0  0  0
  146.6782  139.0642  156.4580 H   0  0  0  0  0  0  0  0  0  0  0  0
  145.7830  140.1499  155.4207 H   0  0  0  0  0  0  0  0  0  0  0  0
  144.9476  139.2018  153.2632 H   0  0  0  0  0  0  0  0  0  0  0  0
  1  2  1  0  0  0  0
  1 21  1  0  0  0  0
  1 22  1  0  0  0  0
  1 23  1  0  0  0  0
  2 20  1  0  0  0  0
  2  3  2  0  0  0  0
  3  4  1  0  0  0  0
  3 24  1  0  0  0  0
  4  5  1  0  0  0  0
  4 19  2  0  0  0  0
  5  6  1  0  0  0  0
  5 25  1  0  0  0  0
  6  7  2  0  0  0  0
  6  8  1  0  0  0  0
  8  9  1  0  0  0  0
  8 26  1  0  0  0  0
  9 18  1  0  0  0  0
  9 10  1  0  0  0  0
  9 27  1  0  0  0  0
 10 11  1  0  0  0  0
 10 28  1  0  0  0  0
 10 29  1  0  0  0  0
 11 12  1  0  0  0  0
 11 30  1  0  0  0  0
 11 31  1  0  0  0  0
 12 13  1  0  0  0  0
 12 17  1  0  0  0  0
 12 39  1  0  0  0  0
 13 14  1  0  0  0  0
 13 32  1  0  0  0  0
 13 33  1  0  0  0  0
 14 15  1  0  0  0  0
 14 16  2  0  0  0  0
 15 34  1  0  0  0  0
 17 18  1  0  0  0  0
 17 35  1  0  0  0  0
 17 36  1  0  0  0  0
 18 37  1  0  0  0  0
 18 38  1  0  0  0  0
 19 20  1  0  0  0  0
M  CHG  1  12   1
M  CHG  1  15  -1
M  END
> <s_m_source_file>
AV-unprocessed.smi

> <i_m_source_file_index>
1417

> <i_lp_mmshare_version>
43012

> <i_f3d_flags>
0

> <s_epik_input>
W0NIM11jMVtjSF1jKG5vMSlbTkhdQyg9TylbTkhdW0NIXTJbQ0gyXVtDSDJdTihbQ0gyXVtDSDJdMilbQ0gyXUMoPU8pW05IMl0=

> <s_epik_cmdline>
J2VwaWtfcHl0aG9uJywgJy1waCcsICc3LjAnLCAnLXRuJywgJzgnLCAnLW1hJywgJzIwMCcsICctbWV0YWxfYmluZGluZycsICctaW1hZScsICc8aW5maWxlLm1hZT4nLCAnLW9tYWUnLCAnPG91dGZpbGUubWFlPic=

> <r_epik_Ionization_Penalty>
5.73218

> <r_epik_Ionization_Penalty_Charging>
5.73215

> <r_epik_Ionization_Penalty_Neutral>
3.37968e-05

> <r_epik_State_Penalty>
6.58009

> <r_epik_Charging_Adjusted_Penalty>
12.3122

> <i_epik_Tot_Q>
0

> <i_epik_Tot_abs_Q>
2

> <r_epik_Metal_State_Penalty>
2.55295

> <b_epik_Metal_Only>
1

> <s_lp_Force_Field>
OPLS_2005

> <r_lp_Energy>
6.84109

> <b_lp_Chiralities_Consistent>
1

> <s_lp_Variant>
AV-unprocessed.smi:1417-7

> <Gold.Version>
5.8.1

> <Gold.Id.Protein>
6NUR|6NUR_protein|mol2

> <Gold.PLP.Fitness>
37.3149

> <Gold.PLP.PLP>
-25.6896

> <Gold.PLP.part.hbond>
-4.4588

> <Gold.PLP.part.metal>
0.0000

> <Gold.PLP.part.buried>
-1.9599

> <Gold.PLP.part.nonpolar>
-19.9995

> <Gold.PLP.part.repulsive>
0.1662

> <Gold.PLP.ligand.clash>
0.0000

> <Gold.PLP.ligand.torsion>
0.1995

> <Gold.PLP.Chemscore.Hbond>
4.0000

> <Gold.PLP.Chemscore.CHOScore>
0.0000

> <Gold.PLP.Chemscore.Metal>
0.0000

> <Gold.Chemscore.Hbonds>
donor molecule, donor type, donor heavy atom, donor atom, acceptor molecule, acceptor atom, score
      L1  H     5    25       P1  8028  0.99
      L1  H    12    39       P1 10175  2.00
      L1  H    15    34       P1 10175  0.89

> <Gold.PLP.Chemscore.Internal.Correction>
0.0242

> <Gold.Rescore>
     Score         DG    S(hbond)    S(metal)    S(lipo)     H(rot)  DE(clash)    DE(int)     intcor
     15.22     -16.79       2.86        0.00      59.07       2.02       0.07       1.51       ----

> <Gold.Chemscore.Fitness>
15.2154

> <Gold.Chemscore.DG>
-16.7929

> <Gold.Chemscore.ZeroCoef>
-5.4800

> <Gold.Chemscore.Hbond>
2.8645

> <Gold.Chemscore.Metal>
0.0000

> <Gold.Chemscore.Lipo>
59.0659

> <Gold.Chemscore.Internal_Hbond>
0.0000

> <Gold.Chemscore.DEClash>
0.0691

> <Gold.Chemscore.DEInternal>
1.5084

> <Gold.Chemscore.Rot>
2.0176

> <Gold.Chemscore.Internal.Correction>
   9.000000E+99

> <Gold.Chemscore.Hbonds>
donor molecule, donor type, donor heavy atom, donor atom, acceptor molecule, acceptor atom, score
      L1  H     5    25       P1  8028  0.94
      L1  H    12    39       P1 10175  0.97
      L1  H    15    34       P1 10175  0.83

> <Gold.Chemscore.Hbond.Weighted>
-9.5673

> <Gold.Chemscore.Metal.Weighted>
-0.0000

> <Gold.Chemscore.Lipo.Weighted>
-6.9107

> <Gold.Chemscore.Internal_Hbond.Weighted>
0.0000

> <Gold.Chemscore.DEClash.Weighted>
0.0691

> <Gold.Chemscore.DEInternal.Weighted>
1.5084

> <Gold.Chemscore.Rot.Weighted>
5.1651

> <Gold.Chemscore.Internal.Correction.Weighted>
   9.000000E+99

> <Gold.Protein.RotatedTorsions>
[ 6907 6896 6895 6894 ] final   67.95 input  -60.11 | X-H torsion
[ 7974 7965 7964 7962 ] final   69.76 input  175.53 | X-H torsion
[ 8008 7997 7996 7995 ] final   36.36 input   59.86 | X-H torsion
[ 10167 10162 10161 10158 ] final   -9.60 input  -65.29 | X-H torsion
[ 10718 10713 10712 10709 ] final   16.84 input   66.30 | X-H torsion
[ 10763 10752 10751 10750 ] final -142.69 input  -60.55 | X-H torsion
[ 11005 11000 10999 10996 ] final   25.76 input  -57.11 | X-H torsion

> <Gold.Protein.ActiveResidues>
 VAL166  LYS551  ARG553  GLY616  TRP617  ASP618  TYR619  PRO620  LYS621  CYS622 
 ASP623  PHE694  ASN695  SER759  ASP760  ASP761  ALA762  ILE779  LEU786  VAL792 
 PHE793  MET794  SER795  GLU796  ALA797  LYS798  CYS799  TRP800  GLU811  SER814 

> <Gold.Protein.RotatedAtoms>
  152.4587  134.5233  159.9788 H   0  0  0  0  0  0  0  0  0  0  0  0  # atno 6907 bound_to 6896
  151.5287  133.3447  159.2922 H   0  0  0  0  0  0  0  0  0  0  0  0  # atno 6908 bound_to 6896
  150.8541  134.7905  159.7094 H   0  0  0  0  0  0  0  0  0  0  0  0  # atno 6909 bound_to 6896
  145.7865  139.2913  143.1235 H   0  0  0  0  0  0  0  0  0  0  0  0  # atno 7974 bound_to 7965
  155.1861  140.3304  155.4366 H   0  0  0  0  0  0  0  0  0  0  0  0  # atno 8008 bound_to 7997
  156.2459  140.1918  156.6906 H   0  0  0  0  0  0  0  0  0  0  0  0  # atno 8009 bound_to 7997
  154.6238  140.0592  156.9634 H   0  0  0  0  0  0  0  0  0  0  0  0  # atno 8010 bound_to 7997
  140.7091  143.5840  150.8962 H   0  0  0  0  0  0  0  0  0  0  0  0  # atno 10167 bound_to 10162
  157.0735  130.6358  149.5811 H   0  0  0  0  0  0  0  0  0  0  0  0  # atno 10718 bound_to 10713
  154.8499  135.3489  154.6069 H   0  0  0  0  0  0  0  0  0  0  0  0  # atno 10763 bound_to 10752
  153.6677  135.6986  153.5161 H   0  0  0  0  0  0  0  0  0  0  0  0  # atno 10764 bound_to 10752
  153.2767  135.4276  155.0997 H   0  0  0  0  0  0  0  0  0  0  0  0  # atno 10765 bound_to 10752
  140.3444  134.2297  155.7686 H   0  0  0  0  0  0  0  0  0  0  0  0  # atno 11005 bound_to 11000
  146.0020  140.8511  143.0013 LP  0  0  0  0  0  0  0  0  0  0  0  0  # atno 17320 bound_to 7965
  144.6788  140.2366  143.7349 LP  0  0  0  0  0  0  0  0  0  0  0  0  # atno 17321 bound_to 7965
  139.9566  143.6211  152.3014 LP  0  0  0  0  0  0  0  0  0  0  0  0  # atno 17342 bound_to 10162
  139.6749  144.7659  151.1715 LP  0  0  0  0  0  0  0  0  0  0  0  0  # atno 17343 bound_to 10162
  155.9943  130.5007  150.7416 LP  0  0  0  0  0  0  0  0  0  0  0  0  # atno 17370 bound_to 10713
  157.4858  131.0906  151.0484 LP  0  0  0  0  0  0  0  0  0  0  0  0  # atno 17371 bound_to 10713
  141.2030  133.7924  157.0364 LP  0  0  0  0  0  0  0  0  0  0  0  0  # atno 17394 bound_to 11000
  140.0754  134.9678  157.1537 LP  0  0  0  0  0  0  0  0  0  0  0  0  # atno 17395 bound_to 11000

$$$$
