AV-unprocessed.smi:1029|AV-procd|sdf|4476|dock3
  -GOLD-   22720 2453D 1   1.00000     0.00000
 Structure written by MMmdl.
 46 47  0  0  0  0  0  0  0  0  2 V2000
  151.6966  140.2149  158.4218 C   0  0  0  0  0  0  0  0  0  0  0  0
  151.4584  139.9377  156.9666 C   0  0  0  0  0  0  0  0  0  0  0  0
  150.2279  139.9678  156.2535 C   0  0  0  0  0  0  0  0  0  0  0  0
  150.6070  139.6376  154.9794 C   0  0  0  0  0  0  0  0  0  0  0  0
  149.8304  139.5197  153.8703 N   0  0  0  0  0  0  0  0  0  0  0  0
  148.5905  139.0106  153.7599 C   0  0  0  0  0  0  0  0  0  0  0  0
  147.9331  138.5197  154.6778 O   0  0  0  0  0  0  0  0  0  0  0  0
  148.1349  139.1031  152.5034 N   0  0  0  0  0  0  0  0  0  0  0  0
  146.8069  138.6732  152.0837 C   0  0  0  0  0  0  0  0  0  0  0  0
  146.8620  137.3153  151.3627 C   0  0  2  0  0  0  0  0  0  0  0  0
  146.8765  137.5557  149.9685 O   0  0  0  0  0  0  0  0  0  0  0  0
  145.6199  136.4576  151.6798 C   0  0  0  0  0  0  0  0  0  0  0  0
  145.5718  135.2084  150.8769 N   0  3  2  0  0  0  0  0  0  0  0  0
  144.1845  134.8198  150.5154 C   0  0  0  0  0  0  0  0  0  0  0  0
  144.1761  133.6149  149.5572 C   0  0  0  0  0  0  0  0  0  0  0  0
  144.9438  132.4092  150.1289 C   0  0  2  0  0  0  0  0  0  0  0  0
  144.1724  131.6905  151.2497 C   0  0  0  0  0  0  0  0  0  0  0  0
  146.3508  132.8577  150.5653 C   0  0  0  0  0  0  0  0  0  0  0  0
  146.3107  134.0794  151.5013 C   0  0  0  0  0  0  0  0  0  0  0  0
  151.9426  139.4205  154.9056 O   0  0  0  0  0  0  0  0  0  0  0  0
  152.4780  139.6148  156.1846 N   0  0  0  0  0  0  0  0  0  0  0  0
  150.8498  140.7386  158.8661 H   0  0  0  0  0  0  0  0  0  0  0  0
  152.5811  140.8355  158.5677 H   0  0  0  0  0  0  0  0  0  0  0  0
  151.8430  139.2881  158.9770 H   0  0  0  0  0  0  0  0  0  0  0  0
  149.2439  140.1972  156.6335 H   0  0  0  0  0  0  0  0  0  0  0  0
  150.2391  139.8828  153.0221 H   0  0  0  0  0  0  0  0  0  0  0  0
  148.7294  139.5200  151.8019 H   0  0  0  0  0  0  0  0  0  0  0  0
  146.1876  138.5885  152.9780 H   0  0  0  0  0  0  0  0  0  0  0  0
  146.3432  139.4305  151.4484 H   0  0  0  0  0  0  0  0  0  0  0  0
  147.7735  136.7887  151.6463 H   0  0  0  0  0  0  0  0  0  0  0  0
  145.9857  137.6582  149.6688 H   0  0  0  0  0  0  0  0  0  0  0  0
  145.5871  136.2031  152.7405 H   0  0  0  0  0  0  0  0  0  0  0  0
  144.7289  137.0581  151.4882 H   0  0  0  0  0  0  0  0  0  0  0  0
  143.6171  134.5975  151.4201 H   0  0  0  0  0  0  0  0  0  0  0  0
  143.6842  135.6582  150.0293 H   0  0  0  0  0  0  0  0  0  0  0  0
  143.1502  133.3320  149.3188 H   0  0  0  0  0  0  0  0  0  0  0  0
  144.6334  133.9127  148.6126 H   0  0  0  0  0  0  0  0  0  0  0  0
  145.0642  131.6831  149.3237 H   0  0  0  0  0  0  0  0  0  0  0  0
  143.9950  132.3370  152.1087 H   0  0  0  0  0  0  0  0  0  0  0  0
  144.7208  130.8166  151.6025 H   0  0  0  0  0  0  0  0  0  0  0  0
  143.2019  131.3431  150.8940 H   0  0  0  0  0  0  0  0  0  0  0  0
  146.8765  132.0327  151.0474 H   0  0  0  0  0  0  0  0  0  0  0  0
  146.9354  133.1113  149.6797 H   0  0  0  0  0  0  0  0  0  0  0  0
  147.3325  134.3789  151.7317 H   0  0  0  0  0  0  0  0  0  0  0  0
  145.8431  133.8161  152.4511 H   0  0  0  0  0  0  0  0  0  0  0  0
  146.0374  135.4191  150.0053 H   0  0  0  0  0  0  0  0  0  0  0  0
  1  2  1  0  0  0  0
  1 22  1  0  0  0  0
  1 23  1  0  0  0  0
  1 24  1  0  0  0  0
  2 21  2  0  0  0  0
  2  3  1  0  0  0  0
  3  4  2  0  0  0  0
  3 25  1  0  0  0  0
  4  5  1  0  0  0  0
  4 20  1  0  0  0  0
  5  6  1  0  0  0  0
  5 26  1  0  0  0  0
  6  7  2  0  0  0  0
  6  8  1  0  0  0  0
  8  9  1  0  0  0  0
  8 27  1  0  0  0  0
  9 10  1  0  0  0  0
  9 28  1  0  0  0  0
  9 29  1  0  0  0  0
 10 11  1  0  0  0  0
 10 12  1  0  0  0  0
 10 30  1  0  0  0  0
 11 31  1  0  0  0  0
 12 13  1  0  0  0  0
 12 32  1  0  0  0  0
 12 33  1  0  0  0  0
 13 19  1  0  0  0  0
 13 14  1  0  0  0  0
 13 46  1  0  0  0  0
 14 15  1  0  0  0  0
 14 34  1  0  0  0  0
 14 35  1  0  0  0  0
 15 16  1  0  0  0  0
 15 36  1  0  0  0  0
 15 37  1  0  0  0  0
 16 17  1  0  0  0  0
 16 18  1  0  0  0  0
 16 38  1  0  0  0  0
 17 39  1  0  0  0  0
 17 40  1  0  0  0  0
 17 41  1  0  0  0  0
 18 19  1  0  0  0  0
 18 42  1  0  0  0  0
 18 43  1  0  0  0  0
 19 44  1  0  0  0  0
 19 45  1  0  0  0  0
 20 21  1  0  0  0  0
M  CHG  1  13   1
M  END
> <s_m_source_file>
AV-unprocessed.smi

> <i_m_source_file_index>
1029

> <i_lp_mmshare_version>
43012

> <i_f3d_flags>
0

> <s_epik_input>
W0NIM11jMVtjSF1jKG9uMSlbTkhdQyg9TylbTkhdW0NIMl1bQ0BIXShbT0hdKVtDSDJdTjJbQ0gyXVtDSDJdW0NIXShbQ0gzXSlbQ0gyXVtDSDJdMg==

> <s_epik_cmdline>
J2VwaWtfcHl0aG9uJywgJy1waCcsICc3LjAnLCAnLXRuJywgJzgnLCAnLW1hJywgJzIwMCcsICctbWV0YWxfYmluZGluZycsICctaW1hZScsICc8aW5maWxlLm1hZT4nLCAnLW9tYWUnLCAnPG91dGZpbGUubWFlPic=

> <r_lp_tautomer_probability>
1

> <r_epik_Ionization_Penalty>
0.00211787

> <r_epik_Ionization_Penalty_Charging>
0.00153238

> <r_epik_Ionization_Penalty_Neutral>
0.000585488

> <r_epik_State_Penalty>
-0

> <r_epik_Charging_Adjusted_Penalty>
0.00153238

> <i_epik_Tot_Q>
1

> <i_epik_Tot_abs_Q>
1

> <r_epik_Metal_State_Penalty>
-0

> <b_epik_Metal_Only>
0

> <s_lp_Force_Field>
OPLS_2005

> <r_lp_Energy>
23.9078

> <b_lp_Chiralities_Consistent>
1

> <s_lp_Variant>
AV-unprocessed.smi:1029-3

> <Gold.Version>
5.8.1

> <Gold.Id.Protein>
6NUR|6NUR_protein|mol2

> <Gold.PLP.Fitness>
49.8221

> <Gold.PLP.PLP>
-36.7759

> <Gold.PLP.part.hbond>
-6.3293

> <Gold.PLP.part.metal>
0.0000

> <Gold.PLP.part.buried>
-1.4084

> <Gold.PLP.part.nonpolar>
-30.2322

> <Gold.PLP.part.repulsive>
0.3846

> <Gold.PLP.ligand.clash>
0.0000

> <Gold.PLP.ligand.torsion>
1.3167

> <Gold.PLP.Chemscore.Hbond>
5.2037

> <Gold.PLP.Chemscore.CHOScore>
0.0000

> <Gold.PLP.Chemscore.Metal>
0.0000

> <Gold.Chemscore.Hbonds>
donor molecule, donor type, donor heavy atom, donor atom, acceptor molecule, acceptor atom, score
      L1  H     5    26       P1  7957  0.69
      L1  H     8    27       P1  7957  0.13
      L1  H    11    31       P1 10171  0.36
      P1  H  7954  7966       L1    11  0.25
      P1  H  7997  8010       L1    21  1.00

> <Gold.PLP.Chemscore.Internal.Correction>
0.0687

> <Gold.Rescore>
     Score         DG    S(hbond)    S(metal)    S(lipo)     H(rot)  DE(clash)    DE(int)     intcor
     18.40     -21.51       3.78        0.00      83.03       2.46       1.53       1.58       ----

> <Gold.Chemscore.Fitness>
18.4021

> <Gold.Chemscore.DG>
-21.5072

> <Gold.Chemscore.ZeroCoef>
-5.4800

> <Gold.Chemscore.Hbond>
3.7775

> <Gold.Chemscore.Metal>
0.0000

> <Gold.Chemscore.Lipo>
83.0258

> <Gold.Chemscore.Internal_Hbond>
0.0000

> <Gold.Chemscore.DEClash>
1.5252

> <Gold.Chemscore.DEInternal>
1.5799

> <Gold.Chemscore.Rot>
2.4624

> <Gold.Chemscore.Internal.Correction>
   9.000000E+99

> <Gold.Chemscore.Hbonds>
donor molecule, donor type, donor heavy atom, donor atom, acceptor molecule, acceptor atom, score
      L1  H     5    26       P1  7957  0.69
      L1  H     8    27       P1  7957  0.16
      L1  H    11    31       P1 10171  0.34
      L1  H    13    46       P1  7921  0.05
      P1  H  7954  7966       L1    11  0.05
      P1  H  7997  8010       L1    21  0.90

> <Gold.Chemscore.Hbond.Weighted>
-12.6169

> <Gold.Chemscore.Metal.Weighted>
-0.0000

> <Gold.Chemscore.Lipo.Weighted>
-9.7140

> <Gold.Chemscore.Internal_Hbond.Weighted>
0.0000

> <Gold.Chemscore.DEClash.Weighted>
1.5252

> <Gold.Chemscore.DEInternal.Weighted>
1.5799

> <Gold.Chemscore.Rot.Weighted>
6.3037

> <Gold.Chemscore.Internal.Correction.Weighted>
   9.000000E+99

> <Gold.Protein.RotatedTorsions>
[ 6907 6896 6895 6894 ] final   35.03 input  -60.11 | X-H torsion
[ 7974 7965 7964 7962 ] final  -55.47 input  175.53 | X-H torsion
[ 8008 7997 7996 7995 ] final   84.46 input   59.86 | X-H torsion
[ 10167 10162 10161 10158 ] final  102.62 input  -65.29 | X-H torsion
[ 10718 10713 10712 10709 ] final    9.47 input   66.30 | X-H torsion
[ 10763 10752 10751 10750 ] final  -88.27 input  -60.55 | X-H torsion
[ 11005 11000 10999 10996 ] final  122.15 input  -57.11 | X-H torsion

> <Gold.Protein.ActiveResidues>
 VAL166  LYS551  ARG553  GLY616  TRP617  ASP618  TYR619  PRO620  LYS621  CYS622 
 ASP623  PHE694  ASN695  SER759  ASP760  ASP761  ALA762  ILE779  LEU786  VAL792 
 PHE793  MET794  SER795  GLU796  ALA797  LYS798  CYS799  TRP800  GLU811  SER814 

> <Gold.Protein.RotatedAtoms>
  152.1106  134.9277  160.0566 H   0  0  0  0  0  0  0  0  0  0  0  0  # atno 6907 bound_to 6896
  152.0456  133.3992  159.4363 H   0  0  0  0  0  0  0  0  0  0  0  0  # atno 6908 bound_to 6896
  150.6843  134.3286  159.4861 H   0  0  0  0  0  0  0  0  0  0  0  0  # atno 6909 bound_to 6896
  145.8738  140.8196  142.9875 H   0  0  0  0  0  0  0  0  0  0  0  0  # atno 7974 bound_to 7965
  155.9373  140.3410  155.6298 H   0  0  0  0  0  0  0  0  0  0  0  0  # atno 8008 bound_to 7997
  155.7083  140.0768  157.2400 H   0  0  0  0  0  0  0  0  0  0  0  0  # atno 8009 bound_to 7997
  154.4096  140.1627  156.2255 H   0  0  0  0  0  0  0  0  0  0  0  0  # atno 8010 bound_to 7997
  139.7334  144.7030  151.0686 H   0  0  0  0  0  0  0  0  0  0  0  0  # atno 10167 bound_to 10162
  156.9668  130.5954  149.5666 H   0  0  0  0  0  0  0  0  0  0  0  0  # atno 10718 bound_to 10713
  154.6427  135.5383  153.7808 H   0  0  0  0  0  0  0  0  0  0  0  0  # atno 10763 bound_to 10752
  153.0342  135.6463  154.1135 H   0  0  0  0  0  0  0  0  0  0  0  0  # atno 10764 bound_to 10752
  154.1058  135.2930  155.3221 H   0  0  0  0  0  0  0  0  0  0  0  0  # atno 10765 bound_to 10752
  139.9256  134.9640  156.8066 H   0  0  0  0  0  0  0  0  0  0  0  0  # atno 11005 bound_to 11000
  144.6726  140.1279  143.7445 LP  0  0  0  0  0  0  0  0  0  0  0  0  # atno 17320 bound_to 7965
  145.9105  139.2484  143.1440 LP  0  0  0  0  0  0  0  0  0  0  0  0  # atno 17321 bound_to 7965
  140.7775  143.5014  150.9766 LP  0  0  0  0  0  0  0  0  0  0  0  0  # atno 17342 bound_to 10162
  139.8702  143.7202  152.3167 LP  0  0  0  0  0  0  0  0  0  0  0  0  # atno 17343 bound_to 10162
  156.0299  130.5391  150.8507 LP  0  0  0  0  0  0  0  0  0  0  0  0  # atno 17370 bound_to 10713
  157.5620  131.0946  150.9545 LP  0  0  0  0  0  0  0  0  0  0  0  0  # atno 17371 bound_to 10713
  140.6346  133.9874  155.7678 LP  0  0  0  0  0  0  0  0  0  0  0  0  # atno 17394 bound_to 11000
  141.0811  134.0061  157.3384 LP  0  0  0  0  0  0  0  0  0  0  0  0  # atno 17395 bound_to 11000

$$$$
