AV-unprocessed.smi:3187|AV-procd|sdf|12180|dock8
  -GOLD-   2272018 23D 1   1.00000     0.00000
 Structure written by MMmdl.
 42 43  0  0  0  0  0  0  0  0  3 V2000
  151.8995  144.9790  158.9367 C   0  0  0  0  0  0  0  0  0  0  0  0
  152.2159  143.6604  159.6228 C   0  0  0  0  0  0  0  0  0  0  0  0
  152.6595  143.6589  160.8945 C   0  0  0  0  0  0  0  0  0  0  0  0
  153.0751  142.4181  161.6504 C   0  0  0  0  0  0  0  0  0  0  0  0
  153.4192  141.2799  160.6873 C   0  0  0  0  0  0  0  0  0  0  0  0
  152.3109  141.0746  159.6416 C   0  0  2  0  0  0  0  0  0  0  0  0
  152.6623  139.8632  158.7559 C   0  0  0  0  0  0  0  0  0  0  0  0
  152.0333  142.3636  158.8072 C   0  0  1  0  0  0  0  0  0  0  0  0
  150.6380  142.2707  158.1339 C   0  0  0  0  0  0  0  0  0  0  0  0
  150.6805  142.5450  156.6808 N   0  3  0  0  0  0  0  0  0  0  0  0
  150.4151  141.3779  155.8123 C   0  0  0  0  0  0  0  0  0  0  0  0
  151.6209  140.4275  155.7104 C   0  0  0  0  0  0  0  0  0  0  0  0
  151.2322  139.1108  155.1988 N   0  0  0  0  0  0  0  0  0  0  0  0
  151.6096  137.8861  155.6884 C   0  0  0  0  0  0  0  0  0  0  0  0
  151.0040  136.9448  154.8961 C   0  0  0  0  0  0  0  0  0  0  0  0
  150.2837  137.6337  153.9570 N   0  3  0  0  0  0  0  0  0  0  0  0
  150.4229  138.9505  154.1431 C   0  0  0  0  0  0  0  0  0  0  0  0
  152.4058  145.0400  157.9731 H   0  0  0  0  0  0  0  0  0  0  0  0
  152.2319  145.8269  159.5369 H   0  0  0  0  0  0  0  0  0  0  0  0
  150.8266  145.0919  158.7838 H   0  0  0  0  0  0  0  0  0  0  0  0
  152.7509  144.5897  161.4355 H   0  0  0  0  0  0  0  0  0  0  0  0
  153.9410  142.6501  162.2709 H   0  0  0  0  0  0  0  0  0  0  0  0
  152.2661  142.1296  162.3223 H   0  0  0  0  0  0  0  0  0  0  0  0
  154.3606  141.5027  160.1826 H   0  0  0  0  0  0  0  0  0  0  0  0
  153.5838  140.3635  161.2554 H   0  0  0  0  0  0  0  0  0  0  0  0
  151.4021  140.8279  160.1933 H   0  0  0  0  0  0  0  0  0  0  0  0
  153.5634  140.0502  158.1710 H   0  0  0  0  0  0  0  0  0  0  0  0
  151.8642  139.6080  158.0604 H   0  0  0  0  0  0  0  0  0  0  0  0
  152.8457  138.9768  159.3640 H   0  0  0  0  0  0  0  0  0  0  0  0
  152.7901  142.4067  158.0221 H   0  0  0  0  0  0  0  0  0  0  0  0
  150.2116  141.2785  158.2649 H   0  0  0  0  0  0  0  0  0  0  0  0
  149.9515  142.9650  158.6207 H   0  0  0  0  0  0  0  0  0  0  0  0
  149.9696  143.2366  156.4878 H   0  0  0  0  0  0  0  0  0  0  0  0
  149.5303  140.8483  156.1685 H   0  0  0  0  0  0  0  0  0  0  0  0
  150.1714  141.7574  154.8194 H   0  0  0  0  0  0  0  0  0  0  0  0
  152.3860  140.8401  155.0505 H   0  0  0  0  0  0  0  0  0  0  0  0
  152.0862  140.2724  156.6842 H   0  0  0  0  0  0  0  0  0  0  0  0
  152.2640  137.7760  156.5415 H   0  0  0  0  0  0  0  0  0  0  0  0
  151.0313  135.8652  154.9286 H   0  0  0  0  0  0  0  0  0  0  0  0
  149.9700  139.7284  153.5544 H   0  0  0  0  0  0  0  0  0  0  0  0
  151.5799  142.9398  156.4444 H   0  0  0  0  0  0  0  0  0  0  0  0
  149.7267  137.2093  153.2255 H   0  0  0  0  0  0  0  0  0  0  0  0
  1  2  1  0  0  0  0
  1 18  1  0  0  0  0
  1 19  1  0  0  0  0
  1 20  1  0  0  0  0
  2  8  1  0  0  0  0
  2  3  2  0  0  0  0
  3  4  1  0  0  0  0
  3 21  1  0  0  0  0
  4  5  1  0  0  0  0
  4 22  1  0  0  0  0
  4 23  1  0  0  0  0
  5  6  1  0  0  0  0
  5 24  1  0  0  0  0
  5 25  1  0  0  0  0
  6  7  1  0  0  0  0
  6  8  1  0  0  0  0
  6 26  1  0  0  0  0
  7 27  1  0  0  0  0
  7 28  1  0  0  0  0
  7 29  1  0  0  0  0
  8  9  1  0  0  0  0
  8 30  1  0  0  0  0
  9 10  1  0  0  0  0
  9 31  1  0  0  0  0
  9 32  1  0  0  0  0
 10 11  1  0  0  0  0
 10 33  1  0  0  0  0
 10 41  1  0  0  0  0
 11 12  1  0  0  0  0
 11 34  1  0  0  0  0
 11 35  1  0  0  0  0
 12 13  1  0  0  0  0
 12 36  1  0  0  0  0
 12 37  1  0  0  0  0
 13 17  1  0  0  0  0
 13 14  1  0  0  0  0
 14 15  2  0  0  0  0
 14 38  1  0  0  0  0
 15 16  1  0  0  0  0
 15 39  1  0  0  0  0
 16 17  2  0  0  0  0
 16 42  1  0  0  0  0
 17 40  1  0  0  0  0
M  CHG  1  10   1
M  CHG  1  16   1
M  END
> <s_m_source_file>
AV-unprocessed.smi

> <i_m_source_file_index>
3187

> <i_lp_mmshare_version>
43012

> <i_f3d_flags>
0

> <s_epik_input>
W0NIM11DMT1bQ0hdW0NIMl1bQ0gyXVtDQEBIXShbQ0gzXSlbQ0BIXTFbQ0gyXVtOSF1bQ0gyXVtDSDJdbjJbY0hdW2NIXW5bY0hdMg==

> <s_epik_cmdline>
J2VwaWtfcHl0aG9uJywgJy1waCcsICc3LjAnLCAnLXRuJywgJzgnLCAnLW1hJywgJzIwMCcsICctbWV0YWxfYmluZGluZycsICctaW1hZScsICc8aW5maWxlLm1hZT4nLCAnLW9tYWUnLCAnPG91dGZpbGUubWFlPic=

> <r_lp_tautomer_probability>
1

> <r_epik_Ionization_Penalty>
1.51066

> <r_epik_Ionization_Penalty_Charging>
0.0026721

> <r_epik_Ionization_Penalty_Neutral>
1.50798

> <r_epik_State_Penalty>
1.12593

> <r_epik_Charging_Adjusted_Penalty>
1.12861

> <i_epik_Tot_Q>
2

> <i_epik_Tot_abs_Q>
2

> <r_epik_Metal_State_Penalty>
5.12155

> <b_epik_Metal_Only>
0

> <s_lp_Force_Field>
OPLS_2005

> <r_lp_Energy>
26.137

> <b_lp_Chiralities_Consistent>
1

> <s_lp_Variant>
AV-unprocessed.smi:3187-6

> <Gold.Version>
5.8.1

> <Gold.Id.Protein>
6NUR|6NUR_protein|mol2

> <Gold.PLP.Fitness>
57.1806

> <Gold.PLP.PLP>
-44.7628

> <Gold.PLP.part.hbond>
-2.8462

> <Gold.PLP.part.metal>
0.0000

> <Gold.PLP.part.buried>
-3.7270

> <Gold.PLP.part.nonpolar>
-37.7833

> <Gold.PLP.part.repulsive>
0.1207

> <Gold.PLP.ligand.clash>
0.0000

> <Gold.PLP.ligand.torsion>
1.3449

> <Gold.PLP.Chemscore.Hbond>
4.0000

> <Gold.PLP.Chemscore.CHOScore>
1.0000

> <Gold.PLP.Chemscore.Metal>
0.0000

> <Gold.Chemscore.Hbonds>
donor molecule, donor type, donor heavy atom, donor atom, acceptor molecule, acceptor atom, score
      L1  H    10    33       P1  8028  2.00
      L1  H    16    42       P1  7948  2.00
      L1  C    17    40       P1  7957  1.00

> <Gold.PLP.Chemscore.Internal.Correction>
0.1077

> <Gold.Rescore>
     Score         DG    S(hbond)    S(metal)    S(lipo)     H(rot)  DE(clash)    DE(int)     intcor
     19.11     -20.47       1.91        0.00     116.84       1.97       0.02       1.33       ----

> <Gold.Chemscore.Fitness>
19.1139

> <Gold.Chemscore.DG>
-20.4670

> <Gold.Chemscore.ZeroCoef>
-5.4800

> <Gold.Chemscore.Hbond>
1.9066

> <Gold.Chemscore.Metal>
0.0000

> <Gold.Chemscore.Lipo>
116.8392

> <Gold.Chemscore.Internal_Hbond>
0.0000

> <Gold.Chemscore.DEClash>
0.0195

> <Gold.Chemscore.DEInternal>
1.3335

> <Gold.Chemscore.Rot>
1.9732

> <Gold.Chemscore.Internal.Correction>
   9.000000E+99

> <Gold.Chemscore.Hbonds>
donor molecule, donor type, donor heavy atom, donor atom, acceptor molecule, acceptor atom, score
      L1  H    10    33       P1  8028  0.95
      L1  H    16    42       P1  7948  0.55

> <Gold.Chemscore.Hbond.Weighted>
-6.3681

> <Gold.Chemscore.Metal.Weighted>
-0.0000

> <Gold.Chemscore.Lipo.Weighted>
-13.6702

> <Gold.Chemscore.Internal_Hbond.Weighted>
0.0000

> <Gold.Chemscore.DEClash.Weighted>
0.0195

> <Gold.Chemscore.DEInternal.Weighted>
1.3335

> <Gold.Chemscore.Rot.Weighted>
5.0514

> <Gold.Chemscore.Internal.Correction.Weighted>
   9.000000E+99

> <Gold.Protein.RotatedTorsions>
[ 6907 6896 6895 6894 ] final  142.25 input  -60.11 | X-H torsion
[ 7974 7965 7964 7962 ] final   27.09 input  175.53 | X-H torsion
[ 8008 7997 7996 7995 ] final  128.65 input   59.86 | X-H torsion
[ 10167 10162 10161 10158 ] final -137.27 input  -65.29 | X-H torsion
[ 10718 10713 10712 10709 ] final   61.51 input   66.30 | X-H torsion
[ 10763 10752 10751 10750 ] final   44.74 input  -60.55 | X-H torsion
[ 11005 11000 10999 10996 ] final -103.63 input  -57.11 | X-H torsion

> <Gold.Protein.ActiveResidues>
 VAL166  LYS551  ARG553  GLY616  TRP617  ASP618  TYR619  PRO620  LYS621  CYS622 
 ASP623  PHE694  ASN695  SER759  ASP760  ASP761  ALA762  ILE779  LEU786  VAL792 
 PHE793  MET794  SER795  GLU796  ALA797  LYS798  CYS799  TRP800  GLU811  SER814 

> <Gold.Protein.RotatedAtoms>
  152.2210  133.4984  159.5162 H   0  0  0  0  0  0  0  0  0  0  0  0  # atno 6907 bound_to 6896
  150.7013  134.1342  159.4090 H   0  0  0  0  0  0  0  0  0  0  0  0  # atno 6908 bound_to 6896
  151.9263  135.0276  160.0576 H   0  0  0  0  0  0  0  0  0  0  0  0  # atno 6909 bound_to 6896
  146.1803  139.7239  142.8905 H   0  0  0  0  0  0  0  0  0  0  0  0  # atno 7974 bound_to 7965
  156.2919  140.2639  156.2470 H   0  0  0  0  0  0  0  0  0  0  0  0  # atno 8008 bound_to 7997
  154.9920  140.0388  157.2342 H   0  0  0  0  0  0  0  0  0  0  0  0  # atno 8009 bound_to 7997
  154.7677  140.2772  155.6167 H   0  0  0  0  0  0  0  0  0  0  0  0  # atno 8010 bound_to 7997
  139.8594  143.7096  152.2651 H   0  0  0  0  0  0  0  0  0  0  0  0  # atno 10167 bound_to 10162
  157.5833  130.8999  149.9470 H   0  0  0  0  0  0  0  0  0  0  0  0  # atno 10718 bound_to 10713
  152.9836  135.6061  154.3323 H   0  0  0  0  0  0  0  0  0  0  0  0  # atno 10763 bound_to 10752
  154.3025  135.2772  155.2606 H   0  0  0  0  0  0  0  0  0  0  0  0  # atno 10764 bound_to 10752
  154.4852  135.5907  153.6474 H   0  0  0  0  0  0  0  0  0  0  0  0  # atno 10765 bound_to 10752
  141.1137  133.8656  157.1510 H   0  0  0  0  0  0  0  0  0  0  0  0  # atno 11005 bound_to 11000
  145.4095  141.0395  143.3025 LP  0  0  0  0  0  0  0  0  0  0  0  0  # atno 17320 bound_to 7965
  144.8304  139.5638  143.6946 LP  0  0  0  0  0  0  0  0  0  0  0  0  # atno 17321 bound_to 7965
  139.7388  144.7564  151.0685 LP  0  0  0  0  0  0  0  0  0  0  0  0  # atno 17342 bound_to 10162
  140.7777  143.4997  150.9787 LP  0  0  0  0  0  0  0  0  0  0  0  0  # atno 17343 bound_to 10162
  156.0880  130.3666  150.0449 LP  0  0  0  0  0  0  0  0  0  0  0  0  # atno 17370 bound_to 10713
  156.8585  130.9483  151.3620 LP  0  0  0  0  0  0  0  0  0  0  0  0  # atno 17371 bound_to 10713
  140.0046  135.0014  157.0264 LP  0  0  0  0  0  0  0  0  0  0  0  0  # atno 17394 bound_to 11000
  140.4705  134.1391  155.7202 LP  0  0  0  0  0  0  0  0  0  0  0  0  # atno 17395 bound_to 11000

$$$$
