AV-unprocessed.smi:1424|AV-procd|sdf|5799|dock3
  -GOLD-   22720 5453D 1   1.00000     0.00000
 Structure written by MMmdl.
 45 47  0  0  0  0  0  0  0  0  1 V2000
  151.0028  136.6185  159.1010 O   0  0  0  0  0  0  0  0  0  0  0  0
  149.9632  137.1534  158.7162 C   0  0  0  0  0  0  0  0  0  0  0  0
  148.7930  137.0483  159.3620 N   0  0  0  0  0  0  0  0  0  0  0  0
  148.5635  136.2809  160.5828 C   0  0  0  0  0  0  0  0  0  0  0  0
  147.0939  136.3383  161.0442 C   0  0  2  0  0  0  0  0  0  0  0  0
  146.8057  135.5309  162.3284 C   0  0  0  0  0  0  0  0  0  0  0  0
  145.2885  135.4200  162.5086 C   0  0  0  0  0  0  0  0  0  0  0  0
  144.5986  135.3138  160.8166 S   0  0  0  0  0  0  0  0  0  0  0  0
  144.3270  133.9067  160.4855 O   0  0  0  0  0  0  0  0  0  0  0  0
  143.5613  136.3437  160.6555 O   0  0  0  0  0  0  0  0  0  0  0  0
  146.1285  135.8417  159.9552 C   0  0  0  0  0  0  0  0  0  0  0  0
  149.8361  137.8975  157.6045 N   0  0  0  0  0  0  0  0  0  0  0  0
  150.8264  138.2244  156.6335 C   0  0  0  0  0  0  0  0  0  0  0  0
  152.1488  137.7197  156.6893 C   0  0  0  0  0  0  0  0  0  0  0  0
  153.0723  138.0994  155.6989 C   0  0  0  0  0  0  0  0  0  0  0  0
  152.6445  138.9797  154.6903 C   0  0  0  0  0  0  0  0  0  0  0  0
  151.3951  139.4826  154.6320 N   0  0  0  0  0  0  0  0  0  0  0  0
  150.4963  139.1184  155.5790 C   0  0  0  0  0  0  0  0  0  0  0  0
  149.2086  139.6892  155.5105 N   0  0  0  0  0  0  0  0  0  0  0  0
  149.2101  141.1430  155.6456 C   0  0  0  0  0  0  0  0  0  0  0  0
  148.0874  141.6599  154.7449 C   0  0  0  0  0  0  0  0  0  0  0  0
  148.0188  140.6045  153.6485 C   0  0  0  0  0  0  0  0  0  0  0  0
  148.3208  139.3144  154.4102 C   0  0  0  0  0  0  0  0  0  0  0  0
  147.9927  137.5216  158.9688 H   0  0  0  0  0  0  0  0  0  0  0  0
  148.8365  135.2465  160.3720 H   0  0  0  0  0  0  0  0  0  0  0  0
  149.2289  136.6108  161.3829 H   0  0  0  0  0  0  0  0  0  0  0  0
  146.8377  137.3785  161.2521 H   0  0  0  0  0  0  0  0  0  0  0  0
  147.2234  134.5287  162.2234 H   0  0  0  0  0  0  0  0  0  0  0  0
  147.2712  135.9791  163.2064 H   0  0  0  0  0  0  0  0  0  0  0  0
  144.9876  134.5520  163.0955 H   0  0  0  0  0  0  0  0  0  0  0  0
  144.8886  136.3180  162.9800 H   0  0  0  0  0  0  0  0  0  0  0  0
  145.8966  136.6064  159.2137 H   0  0  0  0  0  0  0  0  0  0  0  0
  146.5328  134.9708  159.4382 H   0  0  0  0  0  0  0  0  0  0  0  0
  148.8985  138.1934  157.3753 H   0  0  0  0  0  0  0  0  0  0  0  0
  152.4772  137.0617  157.4788 H   0  0  0  0  0  0  0  0  0  0  0  0
  154.0861  137.7278  155.7161 H   0  0  0  0  0  0  0  0  0  0  0  0
  153.3254  139.2957  153.9138 H   0  0  0  0  0  0  0  0  0  0  0  0
  149.0580  141.4432  156.6824 H   0  0  0  0  0  0  0  0  0  0  0  0
  150.1682  141.5501  155.3165 H   0  0  0  0  0  0  0  0  0  0  0  0
  147.1467  141.6798  155.2973 H   0  0  0  0  0  0  0  0  0  0  0  0
  148.2775  142.6630  154.3623 H   0  0  0  0  0  0  0  0  0  0  0  0
  147.0571  140.5802  153.1354 H   0  0  0  0  0  0  0  0  0  0  0  0
  148.7967  140.7888  152.9062 H   0  0  0  0  0  0  0  0  0  0  0  0
  148.7176  138.5404  153.7529 H   0  0  0  0  0  0  0  0  0  0  0  0
  147.4031  138.9182  154.8463 H   0  0  0  0  0  0  0  0  0  0  0  0
  1  2  2  0  0  0  0
  2  3  1  0  0  0  0
  2 12  1  0  0  0  0
  3  4  1  0  0  0  0
  3 24  1  0  0  0  0
  4  5  1  0  0  0  0
  4 25  1  0  0  0  0
  4 26  1  0  0  0  0
  5 11  1  0  0  0  0
  5  6  1  0  0  0  0
  5 27  1  0  0  0  0
  6  7  1  0  0  0  0
  6 28  1  0  0  0  0
  6 29  1  0  0  0  0
  7  8  1  0  0  0  0
  7 30  1  0  0  0  0
  7 31  1  0  0  0  0
  8  9  2  0  0  0  0
  8 10  2  0  0  0  0
  8 11  1  0  0  0  0
 11 32  1  0  0  0  0
 11 33  1  0  0  0  0
 12 13  1  0  0  0  0
 12 34  1  0  0  0  0
 13 18  1  0  0  0  0
 13 14  2  0  0  0  0
 14 15  1  0  0  0  0
 14 35  1  0  0  0  0
 15 16  2  0  0  0  0
 15 36  1  0  0  0  0
 16 17  1  0  0  0  0
 16 37  1  0  0  0  0
 17 18  2  0  0  0  0
 18 19  1  0  0  0  0
 19 23  1  0  0  0  0
 19 20  1  0  0  0  0
 20 21  1  0  0  0  0
 20 38  1  0  0  0  0
 20 39  1  0  0  0  0
 21 22  1  0  0  0  0
 21 40  1  0  0  0  0
 21 41  1  0  0  0  0
 22 23  1  0  0  0  0
 22 42  1  0  0  0  0
 22 43  1  0  0  0  0
 23 44  1  0  0  0  0
 23 45  1  0  0  0  0
M  END
> <s_m_source_file>
AV-unprocessed.smi

> <i_m_source_file_index>
1424

> <i_lp_mmshare_version>
43012

> <i_f3d_flags>
0

> <s_epik_input>
Tz1TMSg9TylbQ0gyXVtDSDJdW0NASF0oW0NIMl0xKVtDSDJdW05IXUMoPU8pW05IXWMyW2NIXVtjSF1bY0hdbmMyTjNbQ0gyXVtDSDJdW0NIMl1bQ0gyXTM=

> <s_epik_cmdline>
J2VwaWtfcHl0aG9uJywgJy1waCcsICc3LjAnLCAnLXRuJywgJzgnLCAnLW1hJywgJzIwMCcsICctbWV0YWxfYmluZGluZycsICctaW1hZScsICc8aW5maWxlLm1hZT4nLCAnLW9tYWUnLCAnPG91dGZpbGUubWFlPic=

> <r_lp_tautomer_probability>
1

> <r_epik_Ionization_Penalty>
0.0965651

> <r_epik_Ionization_Penalty_Charging>
0

> <r_epik_Ionization_Penalty_Neutral>
0.0965651

> <r_epik_State_Penalty>
0.0861592

> <r_epik_Charging_Adjusted_Penalty>
0.0861592

> <i_epik_Tot_Q>
0

> <i_epik_Tot_abs_Q>
0

> <r_epik_Metal_State_Penalty>
0.0740444

> <b_epik_Metal_Only>
0

> <s_lp_Force_Field>
OPLS_2005

> <r_lp_Energy>
33.9356

> <b_lp_Chiralities_Consistent>
1

> <s_lp_Variant>
AV-unprocessed.smi:1424-1

> <Gold.Version>
5.8.1

> <Gold.Id.Protein>
6NUR|6NUR_protein|mol2

> <Gold.PLP.Fitness>
34.7943

> <Gold.PLP.PLP>
-28.8283

> <Gold.PLP.part.hbond>
-2.0000

> <Gold.PLP.part.metal>
0.0000

> <Gold.PLP.part.buried>
-2.3734

> <Gold.PLP.part.nonpolar>
-24.8732

> <Gold.PLP.part.repulsive>
0.3691

> <Gold.PLP.ligand.clash>
0.0000

> <Gold.PLP.ligand.torsion>
0.0754

> <Gold.PLP.Chemscore.Hbond>
2.0000

> <Gold.PLP.Chemscore.CHOScore>
0.0000

> <Gold.PLP.Chemscore.Metal>
0.0000

> <Gold.Chemscore.Hbonds>
donor molecule, donor type, donor heavy atom, donor atom, acceptor molecule, acceptor atom, score
      P1  H  6896  6908       L1     1  1.00
      P1  H  7989  7998       L1    17  1.00

> <Gold.PLP.Chemscore.Internal.Correction>
0.1168

> <Gold.Rescore>
     Score         DG    S(hbond)    S(metal)    S(lipo)     H(rot)  DE(clash)    DE(int)     intcor
     14.67     -17.72       1.89        0.00      82.88       1.47       1.67       1.38       ----

> <Gold.Chemscore.Fitness>
14.6721

> <Gold.Chemscore.DG>
-17.7226

> <Gold.Chemscore.ZeroCoef>
-5.4800

> <Gold.Chemscore.Hbond>
1.8921

> <Gold.Chemscore.Metal>
0.0000

> <Gold.Chemscore.Lipo>
82.8834

> <Gold.Chemscore.Internal_Hbond>
0.0000

> <Gold.Chemscore.DEClash>
1.6729

> <Gold.Chemscore.DEInternal>
1.3776

> <Gold.Chemscore.Rot>
1.4744

> <Gold.Chemscore.Internal.Correction>
   9.000000E+99

> <Gold.Chemscore.Hbonds>
donor molecule, donor type, donor heavy atom, donor atom, acceptor molecule, acceptor atom, score
      P1  H  6896  6908       L1     1  0.96
      P1  H  7989  7998       L1    17  0.26

> <Gold.Chemscore.Hbond.Weighted>
-6.3196

> <Gold.Chemscore.Metal.Weighted>
-0.0000

> <Gold.Chemscore.Lipo.Weighted>
-9.6974

> <Gold.Chemscore.Internal_Hbond.Weighted>
0.0000

> <Gold.Chemscore.DEClash.Weighted>
1.6729

> <Gold.Chemscore.DEInternal.Weighted>
1.3776

> <Gold.Chemscore.Rot.Weighted>
3.7744

> <Gold.Chemscore.Internal.Correction.Weighted>
   9.000000E+99

> <Gold.Protein.RotatedTorsions>
[ 6907 6896 6895 6894 ] final -150.44 input  -60.11 | X-H torsion
[ 7974 7965 7964 7962 ] final -154.16 input  175.53 | X-H torsion
[ 8008 7997 7996 7995 ] final   23.84 input   59.86 | X-H torsion
[ 10167 10162 10161 10158 ] final  -73.72 input  -65.29 | X-H torsion
[ 10718 10713 10712 10709 ] final  160.83 input   66.30 | X-H torsion
[ 10763 10752 10751 10750 ] final  113.07 input  -60.55 | X-H torsion
[ 11005 11000 10999 10996 ] final -121.40 input  -57.11 | X-H torsion

> <Gold.Protein.ActiveResidues>
 VAL166  LYS551  ARG553  GLY616  TRP617  ASP618  TYR619  PRO620  LYS621  CYS622 
 ASP623  PHE694  ASN695  SER759  ASP760  ASP761  ALA762  ILE779  LEU786  VAL792 
 PHE793  MET794  SER795  GLU796  ALA797  LYS798  CYS799  TRP800  GLU811  SER814 

> <Gold.Protein.RotatedAtoms>
  151.1986  133.4624  159.2595 H   0  0  0  0  0  0  0  0  0  0  0  0  # atno 6907 bound_to 6896
  151.1092  135.0017  159.8496 H   0  0  0  0  0  0  0  0  0  0  0  0  # atno 6908 bound_to 6896
  152.5449  134.1906  159.8725 H   0  0  0  0  0  0  0  0  0  0  0  0  # atno 6909 bound_to 6896
  144.7703  140.4426  143.5912 H   0  0  0  0  0  0  0  0  0  0  0  0  # atno 7974 bound_to 7965
  154.9871  140.3109  155.4922 H   0  0  0  0  0  0  0  0  0  0  0  0  # atno 8008 bound_to 7997
  156.2945  140.2256  156.4913 H   0  0  0  0  0  0  0  0  0  0  0  0  # atno 8009 bound_to 7997
  154.7737  140.0450  157.1060 H   0  0  0  0  0  0  0  0  0  0  0  0  # atno 8010 bound_to 7997
  140.5087  143.2348  151.7630 H   0  0  0  0  0  0  0  0  0  0  0  0  # atno 10167 bound_to 10162
  157.1449  131.0550  151.2308 H   0  0  0  0  0  0  0  0  0  0  0  0  # atno 10718 bound_to 10713
  153.4871  135.3667  155.2472 H   0  0  0  0  0  0  0  0  0  0  0  0  # atno 10763 bound_to 10752
  154.8753  135.3968  154.3633 H   0  0  0  0  0  0  0  0  0  0  0  0  # atno 10764 bound_to 10752
  153.4246  135.7081  153.6337 H   0  0  0  0  0  0  0  0  0  0  0  0  # atno 10765 bound_to 10752
  141.0073  134.0316  157.3460 H   0  0  0  0  0  0  0  0  0  0  0  0  # atno 11005 bound_to 11000
  145.6343  139.1541  143.2951 LP  0  0  0  0  0  0  0  0  0  0  0  0  # atno 17320 bound_to 7965
  146.1845  140.6444  142.9174 LP  0  0  0  0  0  0  0  0  0  0  0  0  # atno 17321 bound_to 7965
  139.4890  144.4421  151.9752 LP  0  0  0  0  0  0  0  0  0  0  0  0  # atno 17342 bound_to 10162
  140.3512  144.3086  150.5949 LP  0  0  0  0  0  0  0  0  0  0  0  0  # atno 17343 bound_to 10162
  157.4273  130.7471  149.6961 LP  0  0  0  0  0  0  0  0  0  0  0  0  # atno 17370 bound_to 10713
  155.9781  130.4055  150.3668 LP  0  0  0  0  0  0  0  0  0  0  0  0  # atno 17371 bound_to 10713
  139.9070  135.0182  156.7530 LP  0  0  0  0  0  0  0  0  0  0  0  0  # atno 17394 bound_to 11000
  140.6792  133.9490  155.7900 LP  0  0  0  0  0  0  0  0  0  0  0  0  # atno 17395 bound_to 11000

$$$$
