AV-unprocessed.smi:415|AV-procd|sdf|2521|dock2
  -GOLD-   2262022473D 1   1.00000     0.00000
 Structure written by MMmdl.
 53 54  0  0  0  0  0  0  0  0  1 V2000
  143.6194  144.5697  155.7084 C   0  0  0  0  0  0  0  0  0  0  0  0
  143.8942  143.2250  155.3567 O   0  0  0  0  0  0  0  0  0  0  0  0
  145.0628  142.7270  155.9848 C   0  0  0  0  0  0  0  0  0  0  0  0
  145.3640  141.3279  155.4277 C   0  0  0  0  0  0  0  0  0  0  0  0
  146.7826  141.0931  155.2422 N   0  0  0  0  0  0  0  0  0  0  0  0
  147.3713  140.9098  153.9943 C   0  0  0  0  0  0  0  0  0  0  0  0
  146.5900  140.9652  152.8541 N   0  0  0  0  0  0  0  0  0  0  0  0
  148.6992  140.6911  153.8674 C   0  0  0  0  0  0  0  0  0  0  0  0
  149.5851  140.6432  155.0223 C   0  0  0  0  0  0  0  0  0  0  0  0
  150.7929  140.4220  154.9292 O   0  0  0  0  0  0  0  0  0  0  0  0
  148.9709  140.8640  156.2764 N   0  0  0  0  0  0  0  0  0  0  0  0
  149.8071  140.8236  157.4966 C   0  0  0  0  0  0  0  0  0  0  0  0
  150.8706  141.9310  157.5435 C   0  0  0  0  0  0  0  0  0  0  0  0
  150.9806  142.7455  156.6258 O   0  0  0  0  0  0  0  0  0  0  0  0
  151.6431  141.9499  158.6398 N   0  0  0  0  0  0  0  0  0  0  0  0
  152.7186  142.9054  158.9094 C   0  0  1  0  0  0  0  0  0  0  0  0
  152.1951  144.3533  158.8317 C   0  0  0  0  0  0  0  0  0  0  0  0
  151.2602  144.6847  160.0033 C   0  0  0  0  0  0  0  0  0  0  0  0
  151.9514  144.4210  161.3475 C   0  0  0  0  0  0  0  0  0  0  0  0
  152.4620  142.9698  161.4654 C   0  0  2  0  0  0  0  0  0  0  0  0
  153.1332  142.7650  162.8354 C   0  0  0  0  0  0  0  0  0  0  0  0
  153.3968  142.6168  160.2743 C   0  0  1  0  0  0  0  0  0  0  0  0
  153.9362  141.1730  160.3349 C   0  0  0  0  0  0  0  0  0  0  0  0
  147.5827  141.0930  156.4135 C   0  0  0  0  0  0  0  0  0  0  0  0
  147.0905  141.2846  157.5292 O   0  0  0  0  0  0  0  0  0  0  0  0
  142.7130  144.9024  155.2027 H   0  0  0  0  0  0  0  0  0  0  0  0
  144.4341  145.2302  155.4090 H   0  0  0  0  0  0  0  0  0  0  0  0
  143.4616  144.6726  156.7829 H   0  0  0  0  0  0  0  0  0  0  0  0
  145.9033  143.3961  155.7931 H   0  0  0  0  0  0  0  0  0  0  0  0
  144.9149  142.6844  157.0652 H   0  0  0  0  0  0  0  0  0  0  0  0
  144.9689  140.5354  156.0660 H   0  0  0  0  0  0  0  0  0  0  0  0
  144.8838  141.1753  154.4617 H   0  0  0  0  0  0  0  0  0  0  0  0
  145.5954  141.1362  152.8965 H   0  0  0  0  0  0  0  0  0  0  0  0
  146.9872  140.8647  151.9310 H   0  0  0  0  0  0  0  0  0  0  0  0
  149.1259  140.5479  152.8849 H   0  0  0  0  0  0  0  0  0  0  0  0
  149.2000  140.8985  158.3997 H   0  0  0  0  0  0  0  0  0  0  0  0
  150.3000  139.8544  157.5921 H   0  0  0  0  0  0  0  0  0  0  0  0
  151.4774  141.2461  159.3449 H   0  0  0  0  0  0  0  0  0  0  0  0
  153.4799  142.7851  158.1359 H   0  0  0  0  0  0  0  0  0  0  0  0
  153.0415  145.0411  158.8450 H   0  0  0  0  0  0  0  0  0  0  0  0
  151.6830  144.5245  157.8841 H   0  0  0  0  0  0  0  0  0  0  0  0
  150.9494  145.7281  159.9449 H   0  0  0  0  0  0  0  0  0  0  0  0
  150.3493  144.0887  159.9336 H   0  0  0  0  0  0  0  0  0  0  0  0
  152.7853  145.1143  161.4662 H   0  0  0  0  0  0  0  0  0  0  0  0
  151.2551  144.6384  162.1582 H   0  0  0  0  0  0  0  0  0  0  0  0
  151.5946  142.3092  161.4278 H   0  0  0  0  0  0  0  0  0  0  0  0
  154.0540  143.3433  162.9170 H   0  0  0  0  0  0  0  0  0  0  0  0
  153.3764  141.7181  163.0144 H   0  0  0  0  0  0  0  0  0  0  0  0
  152.4732  143.0784  163.6446 H   0  0  0  0  0  0  0  0  0  0  0  0
  154.2639  143.2764  160.3370 H   0  0  0  0  0  0  0  0  0  0  0  0
  153.1294  140.4433  160.4099 H   0  0  0  0  0  0  0  0  0  0  0  0
  154.5973  141.0263  161.1886 H   0  0  0  0  0  0  0  0  0  0  0  0
  154.5161  140.9355  159.4426 H   0  0  0  0  0  0  0  0  0  0  0  0
  1  2  1  0  0  0  0
  1 26  1  0  0  0  0
  1 27  1  0  0  0  0
  1 28  1  0  0  0  0
  2  3  1  0  0  0  0
  3  4  1  0  0  0  0
  3 29  1  0  0  0  0
  3 30  1  0  0  0  0
  4  5  1  0  0  0  0
  4 31  1  0  0  0  0
  4 32  1  0  0  0  0
  5 24  1  0  0  0  0
  5  6  1  0  0  0  0
  6  7  1  0  0  0  0
  6  8  2  0  0  0  0
  7 33  1  0  0  0  0
  7 34  1  0  0  0  0
  8  9  1  0  0  0  0
  8 35  1  0  0  0  0
  9 10  2  0  0  0  0
  9 11  1  0  0  0  0
 11 12  1  0  0  0  0
 11 24  1  0  0  0  0
 12 13  1  0  0  0  0
 12 36  1  0  0  0  0
 12 37  1  0  0  0  0
 13 14  2  0  0  0  0
 13 15  1  0  0  0  0
 15 16  1  0  0  0  0
 15 38  1  0  0  0  0
 16 22  1  0  0  0  0
 16 17  1  0  0  0  0
 16 39  1  0  0  0  0
 17 18  1  0  0  0  0
 17 40  1  0  0  0  0
 17 41  1  0  0  0  0
 18 19  1  0  0  0  0
 18 42  1  0  0  0  0
 18 43  1  0  0  0  0
 19 20  1  0  0  0  0
 19 44  1  0  0  0  0
 19 45  1  0  0  0  0
 20 21  1  0  0  0  0
 20 22  1  0  0  0  0
 20 46  1  0  0  0  0
 21 47  1  0  0  0  0
 21 48  1  0  0  0  0
 21 49  1  0  0  0  0
 22 23  1  0  0  0  0
 22 50  1  0  0  0  0
 23 51  1  0  0  0  0
 23 52  1  0  0  0  0
 23 53  1  0  0  0  0
 24 25  2  0  0  0  0
M  END
> <s_m_source_file>
AV-unprocessed.smi

> <i_m_source_file_index>
415

> <i_lp_mmshare_version>
43012

> <i_f3d_flags>
0

> <s_epik_input>
W0NIM11PW0NIMl1bQ0gyXW4xYyhbTkgyXSlbY0hdYyg9TyluKGMxPU8pW0NIMl1DKD1PKVtOSF1bQ0BASF0yW0NIMl1bQ0gyXVtDSDJdW0NAQEhdKFtDSDNdKVtDQEhdMltDSDNd

> <s_epik_cmdline>
J2VwaWtfcHl0aG9uJywgJy1waCcsICc3LjAnLCAnLXRuJywgJzgnLCAnLW1hJywgJzIwMCcsICctbWV0YWxfYmluZGluZycsICctaW1hZScsICc8aW5maWxlLm1hZT4nLCAnLW9tYWUnLCAnPG91dGZpbGUubWFlPic=

> <r_lp_tautomer_probability>
1

> <r_epik_Ionization_Penalty>
8.6647e-06

> <r_epik_Ionization_Penalty_Charging>
1.81162e-08

> <r_epik_Ionization_Penalty_Neutral>
8.64658e-06

> <r_epik_State_Penalty>
-0

> <r_epik_Charging_Adjusted_Penalty>
1.81162e-08

> <i_epik_Tot_Q>
0

> <i_epik_Tot_abs_Q>
0

> <r_epik_Metal_State_Penalty>
-0

> <b_epik_Metal_Only>
0

> <s_lp_Force_Field>
OPLS_2005

> <r_lp_Energy>
19.0862

> <b_lp_Chiralities_Consistent>
1

> <s_lp_Variant>
AV-unprocessed.smi:415-4

> <Gold.Version>
5.8.1

> <Gold.Id.Protein>
6NUR|6NUR_protein|mol2

> <Gold.PLP.Fitness>
55.5061

> <Gold.PLP.PLP>
-50.1237

> <Gold.PLP.part.hbond>
-2.0000

> <Gold.PLP.part.metal>
0.0000

> <Gold.PLP.part.buried>
-6.5726

> <Gold.PLP.part.nonpolar>
-42.7384

> <Gold.PLP.part.repulsive>
0.4843

> <Gold.PLP.ligand.clash>
0.0000

> <Gold.PLP.ligand.torsion>
0.3269

> <Gold.PLP.Chemscore.Hbond>
1.9920

> <Gold.PLP.Chemscore.CHOScore>
0.0000

> <Gold.PLP.Chemscore.Metal>
0.0000

> <Gold.Chemscore.Hbonds>
donor molecule, donor type, donor heavy atom, donor atom, acceptor molecule, acceptor atom, score
      L1  H     7    33       P1 10175  0.80
      P1  H  7989  7998       L1    10  1.00

> <Gold.PLP.Chemscore.Internal.Correction>
0.0602

> <Gold.Rescore>
     Score         DG    S(hbond)    S(metal)    S(lipo)     H(rot)  DE(clash)    DE(int)     intcor
     15.83     -18.29       1.75        0.00     109.00       2.26       0.62       1.84       ----

> <Gold.Chemscore.Fitness>
15.8294

> <Gold.Chemscore.DG>
-18.2932

> <Gold.Chemscore.ZeroCoef>
-5.4800

> <Gold.Chemscore.Hbond>
1.7536

> <Gold.Chemscore.Metal>
0.0000

> <Gold.Chemscore.Lipo>
109.0034

> <Gold.Chemscore.Internal_Hbond>
0.0000

> <Gold.Chemscore.DEClash>
0.6194

> <Gold.Chemscore.DEInternal>
1.8444

> <Gold.Chemscore.Rot>
2.2645

> <Gold.Chemscore.Internal.Correction>
   9.000000E+99

> <Gold.Chemscore.Hbonds>
donor molecule, donor type, donor heavy atom, donor atom, acceptor molecule, acceptor atom, score
      L1  H     7    33       P1 10175  0.12
      P1  H  7989  7998       L1    10  0.95

> <Gold.Chemscore.Hbond.Weighted>
-5.8570

> <Gold.Chemscore.Metal.Weighted>
-0.0000

> <Gold.Chemscore.Lipo.Weighted>
-12.7534

> <Gold.Chemscore.Internal_Hbond.Weighted>
0.0000

> <Gold.Chemscore.DEClash.Weighted>
0.6194

> <Gold.Chemscore.DEInternal.Weighted>
1.8444

> <Gold.Chemscore.Rot.Weighted>
5.7972

> <Gold.Chemscore.Internal.Correction.Weighted>
   9.000000E+99

> <Gold.Protein.RotatedTorsions>
[ 6907 6896 6895 6894 ] final -139.84 input  -60.11 | X-H torsion
[ 7974 7965 7964 7962 ] final  136.18 input  175.53 | X-H torsion
[ 8008 7997 7996 7995 ] final   47.63 input   59.86 | X-H torsion
[ 10167 10162 10161 10158 ] final -145.15 input  -65.29 | X-H torsion
[ 10718 10713 10712 10709 ] final  102.11 input   66.30 | X-H torsion
[ 10763 10752 10751 10750 ] final -178.61 input  -60.55 | X-H torsion
[ 11005 11000 10999 10996 ] final  -51.15 input  -57.11 | X-H torsion

> <Gold.Protein.ActiveResidues>
 VAL166  LYS551  ARG553  GLY616  TRP617  ASP618  TYR619  PRO620  LYS621  CYS622 
 ASP623  PHE694  ASN695  SER759  ASP760  ASP761  ALA762  ILE779  LEU786  VAL792 
 PHE793  MET794  SER795  GLU796  ALA797  LYS798  CYS799  TRP800  GLU811  SER814 

> <Gold.Protein.RotatedAtoms>
  151.0530  133.5608  159.2640 H   0  0  0  0  0  0  0  0  0  0  0  0  # atno 6907 bound_to 6896
  151.2612  135.0654  159.9109 H   0  0  0  0  0  0  0  0  0  0  0  0  # atno 6908 bound_to 6896
  152.5385  134.0275  159.8063 H   0  0  0  0  0  0  0  0  0  0  0  0  # atno 6909 bound_to 6896
  144.9590  139.4731  143.5488 H   0  0  0  0  0  0  0  0  0  0  0  0  # atno 7974 bound_to 7965
  155.3723  140.3424  155.4243 H   0  0  0  0  0  0  0  0  0  0  0  0  # atno 8008 bound_to 7997
  156.1656  140.1615  156.8572 H   0  0  0  0  0  0  0  0  0  0  0  0  # atno 8009 bound_to 7997
  154.5181  140.0773  156.8103 H   0  0  0  0  0  0  0  0  0  0  0  0  # atno 8010 bound_to 7997
  139.7833  143.8070  152.2641 H   0  0  0  0  0  0  0  0  0  0  0  0  # atno 10167 bound_to 10162
  157.6811  131.0744  150.5354 H   0  0  0  0  0  0  0  0  0  0  0  0  # atno 10718 bound_to 10713
  154.5455  135.2809  155.1056 H   0  0  0  0  0  0  0  0  0  0  0  0  # atno 10763 bound_to 10752
  154.2522  135.6337  153.5248 H   0  0  0  0  0  0  0  0  0  0  0  0  # atno 10764 bound_to 10752
  152.9989  135.5585  154.6007 H   0  0  0  0  0  0  0  0  0  0  0  0  # atno 10765 bound_to 10752
  141.0855  133.6643  156.3834 H   0  0  0  0  0  0  0  0  0  0  0  0  # atno 11005 bound_to 11000
  146.3347  139.8727  142.8837 LP  0  0  0  0  0  0  0  0  0  0  0  0  # atno 17320 bound_to 7965
  145.2728  141.0114  143.3762 LP  0  0  0  0  0  0  0  0  0  0  0  0  # atno 17321 bound_to 7965
  139.8139  144.7324  150.9660 LP  0  0  0  0  0  0  0  0  0  0  0  0  # atno 17342 bound_to 10162
  140.7819  143.4223  151.0821 LP  0  0  0  0  0  0  0  0  0  0  0  0  # atno 17343 bound_to 10162
  156.5663  130.4268  149.6040 LP  0  0  0  0  0  0  0  0  0  0  0  0  # atno 17370 bound_to 10713
  156.2779  130.7054  151.1870 LP  0  0  0  0  0  0  0  0  0  0  0  0  # atno 17371 bound_to 10713
  140.5372  134.6155  157.5369 LP  0  0  0  0  0  0  0  0  0  0  0  0  # atno 17394 bound_to 11000
  139.9673  134.7352  156.0113 LP  0  0  0  0  0  0  0  0  0  0  0  0  # atno 17395 bound_to 11000

$$$$
