AV-unprocessed.smi:1213|AV-procd|sdf|5089|dock10
  -GOLD-   22720 4143D 1   1.00000     0.00000
 Structure written by MMmdl.
 36 37  0  0  0  0  0  0  0  0  3 V2000
  146.5428  138.3472  150.7857 N   0  5  0  0  0  0  0  0  0  0  0  0
  146.2010  138.0469  152.0532 C   0  0  0  0  0  0  0  0  0  0  0  0
  145.3073  137.2945  152.4363 O   0  0  0  0  0  0  0  0  0  0  0  0
  147.0927  138.7488  153.0835 C   0  0  0  0  0  0  0  0  0  0  0  0
  147.9690  137.7617  153.7623 N   0  3  2  0  0  0  0  0  0  0  0  0
  147.1927  136.7268  154.4907 C   0  0  0  0  0  0  0  0  0  0  0  0
  148.1168  135.6346  155.0570 C   0  0  0  0  0  0  0  0  0  0  0  0
  149.2200  136.2216  155.9598 C   0  0  2  0  0  0  0  0  0  0  0  0
  148.6809  136.7247  157.2231 N   0  0  0  0  0  0  0  0  0  0  0  0
  148.5992  136.0244  158.3639 C   0  0  0  0  0  0  0  0  0  0  0  0
  148.9656  134.8536  158.4680 O   0  0  0  0  0  0  0  0  0  0  0  0
  148.0707  136.7655  159.3535 N   0  0  0  0  0  0  0  0  0  0  0  0
  147.8155  136.3814  160.6963 C   0  0  0  0  0  0  0  0  0  0  0  0
  147.6718  137.2403  161.7122 N   0  0  0  0  0  0  0  0  0  0  0  0
  147.4290  136.5850  162.9222 C   0  0  0  0  0  0  0  0  0  0  0  0
  147.3917  135.2177  162.8080 C   0  0  0  0  0  0  0  0  0  0  0  0
  147.6633  134.6950  161.1670 S   0  0  0  0  0  0  0  0  0  0  0  0
  149.9627  137.3398  155.2083 C   0  0  0  0  0  0  0  0  0  0  0  0
  148.9965  138.3921  154.6346 C   0  0  0  0  0  0  0  0  0  0  0  0
  145.8007  138.5280  150.0994 H   0  0  0  0  0  0  0  0  0  0  0  0
  147.6917  139.5526  152.6499 H   0  0  0  0  0  0  0  0  0  0  0  0
  146.4255  139.2156  153.8094 H   0  0  0  0  0  0  0  0  0  0  0  0
  146.6195  137.1953  155.2924 H   0  0  0  0  0  0  0  0  0  0  0  0
  146.4716  136.2654  153.8152 H   0  0  0  0  0  0  0  0  0  0  0  0
  147.5300  134.8911  155.5972 H   0  0  0  0  0  0  0  0  0  0  0  0
  148.5831  135.1013  154.2275 H   0  0  0  0  0  0  0  0  0  0  0  0
  149.9404  135.4352  156.1925 H   0  0  0  0  0  0  0  0  0  0  0  0
  148.3591  137.6816  157.2316 H   0  0  0  0  0  0  0  0  0  0  0  0
  147.8229  137.7158  159.1212 H   0  0  0  0  0  0  0  0  0  0  0  0
  147.2934  137.1716  163.8189 H   0  0  0  0  0  0  0  0  0  0  0  0
  147.2221  134.4894  163.5870 H   0  0  0  0  0  0  0  0  0  0  0  0
  150.6920  137.8175  155.8640 H   0  0  0  0  0  0  0  0  0  0  0  0
  150.5344  136.9014  154.3894 H   0  0  0  0  0  0  0  0  0  0  0  0
  149.5713  139.1268  154.0703 H   0  0  0  0  0  0  0  0  0  0  0  0
  148.5047  138.9357  155.4426 H   0  0  0  0  0  0  0  0  0  0  0  0
  148.4636  137.2813  153.0239 H   0  0  0  0  0  0  0  0  0  0  0  0
  1  2  1  0  0  0  0
  1 20  1  0  0  0  0
  2  3  2  0  0  0  0
  2  4  1  0  0  0  0
  4  5  1  0  0  0  0
  4 21  1  0  0  0  0
  4 22  1  0  0  0  0
  5 19  1  0  0  0  0
  5  6  1  0  0  0  0
  5 36  1  0  0  0  0
  6  7  1  0  0  0  0
  6 23  1  0  0  0  0
  6 24  1  0  0  0  0
  7  8  1  0  0  0  0
  7 25  1  0  0  0  0
  7 26  1  0  0  0  0
  8  9  1  0  0  0  0
  8 18  1  0  0  0  0
  8 27  1  0  0  0  0
  9 10  1  0  0  0  0
  9 28  1  0  0  0  0
 10 11  2  0  0  0  0
 10 12  1  0  0  0  0
 12 13  1  0  0  0  0
 12 29  1  0  0  0  0
 13 17  1  0  0  0  0
 13 14  2  0  0  0  0
 14 15  1  0  0  0  0
 15 16  2  0  0  0  0
 15 30  1  0  0  0  0
 16 17  1  0  0  0  0
 16 31  1  0  0  0  0
 18 19  1  0  0  0  0
 18 32  1  0  0  0  0
 18 33  1  0  0  0  0
 19 34  1  0  0  0  0
 19 35  1  0  0  0  0
M  CHG  1   1  -1
M  CHG  1   5   1
M  END
> <s_m_source_file>
AV-unprocessed.smi

> <i_m_source_file_index>
1213

> <i_lp_mmshare_version>
43012

> <i_f3d_flags>
0

> <s_epik_input>
W05IMl1DKD1PKVtDSDJdTjFbQ0gyXVtDSDJdW0NIXShbQ0gyXVtDSDJdMSlbTkhdQyg9TylbTkhdYzJuW2NIXVtjSF1zMg==

> <s_epik_cmdline>
J2VwaWtfcHl0aG9uJywgJy1waCcsICc3LjAnLCAnLXRuJywgJzgnLCAnLW1hJywgJzIwMCcsICctbWV0YWxfYmluZGluZycsICctaW1hZScsICc8aW5maWxlLm1hZT4nLCAnLW9tYWUnLCAnPG91dGZpbGUubWFlPic=

> <r_lp_tautomer_probability>
0.999

> <r_epik_Ionization_Penalty>
5.73166

> <r_epik_Ionization_Penalty_Charging>
5.73152

> <r_epik_Ionization_Penalty_Neutral>
0.000139308

> <r_epik_State_Penalty>
6.57436

> <r_epik_Charging_Adjusted_Penalty>
12.3059

> <i_epik_Tot_Q>
0

> <i_epik_Tot_abs_Q>
2

> <r_epik_Metal_State_Penalty>
2.57084

> <b_epik_Metal_Only>
1

> <s_lp_Force_Field>
OPLS_2005

> <r_lp_Energy>
6.02298

> <b_lp_Chiralities_Consistent>
1

> <s_lp_Variant>
AV-unprocessed.smi:1213-6

> <Gold.Version>
5.8.1

> <Gold.Id.Protein>
6NUR|6NUR_protein|mol2

> <Gold.PLP.Fitness>
49.9325

> <Gold.PLP.PLP>
-31.1184

> <Gold.PLP.part.hbond>
-6.0000

> <Gold.PLP.part.metal>
0.0000

> <Gold.PLP.part.buried>
-4.2847

> <Gold.PLP.part.nonpolar>
-21.4704

> <Gold.PLP.part.repulsive>
0.4181

> <Gold.PLP.ligand.clash>
0.0000

> <Gold.PLP.ligand.torsion>
0.5544

> <Gold.PLP.Chemscore.Hbond>
6.6337

> <Gold.PLP.Chemscore.CHOScore>
0.0000

> <Gold.PLP.Chemscore.Metal>
0.0000

> <Gold.Chemscore.Hbonds>
donor molecule, donor type, donor heavy atom, donor atom, acceptor molecule, acceptor atom, score
      L1  H     1    20       P1 10171  0.93
      L1  H     5    36       P1  7948  2.00
      P1  H  6896  6909       L1    11  1.00
      P1  H  6931  6943       L1    14  0.99
      P1  H  6934  6947       L1    14  0.70
      P1  H  7954  7966       L1     1  0.99

> <Gold.PLP.Chemscore.Internal.Correction>
0.0218

> <Gold.Rescore>
     Score         DG    S(hbond)    S(metal)    S(lipo)     H(rot)  DE(clash)    DE(int)     intcor
     18.49     -21.38       4.60        0.00      49.17       2.04       0.11       2.78       ----

> <Gold.Chemscore.Fitness>
18.4907

> <Gold.Chemscore.DG>
-21.3836

> <Gold.Chemscore.ZeroCoef>
-5.4800

> <Gold.Chemscore.Hbond>
4.5988

> <Gold.Chemscore.Metal>
0.0000

> <Gold.Chemscore.Lipo>
49.1740

> <Gold.Chemscore.Internal_Hbond>
0.0000

> <Gold.Chemscore.DEClash>
0.1139

> <Gold.Chemscore.DEInternal>
2.7791

> <Gold.Chemscore.Rot>
2.0350

> <Gold.Chemscore.Internal.Correction>
   9.000000E+99

> <Gold.Chemscore.Hbonds>
donor molecule, donor type, donor heavy atom, donor atom, acceptor molecule, acceptor atom, score
      L1  H     1    20       P1 10171  0.89
      L1  H     5    36       P1  7948  1.00
      P1  H  6896  6909       L1    11  0.95
      P1  H  6931  6943       L1    14  0.52
      P1  H  6934  6947       L1    14  0.44
      P1  H  7954  7966       L1     1  0.69

> <Gold.Chemscore.Hbond.Weighted>
-15.3599

> <Gold.Chemscore.Metal.Weighted>
-0.0000

> <Gold.Chemscore.Lipo.Weighted>
-5.7534

> <Gold.Chemscore.Internal_Hbond.Weighted>
0.0000

> <Gold.Chemscore.DEClash.Weighted>
0.1139

> <Gold.Chemscore.DEInternal.Weighted>
2.7791

> <Gold.Chemscore.Rot.Weighted>
5.2096

> <Gold.Chemscore.Internal.Correction.Weighted>
   9.000000E+99

> <Gold.Protein.RotatedTorsions>
[ 6907 6896 6895 6894 ] final   27.78 input  -60.11 | X-H torsion
[ 7974 7965 7964 7962 ] final -110.06 input  175.53 | X-H torsion
[ 8008 7997 7996 7995 ] final   69.10 input   59.86 | X-H torsion
[ 10167 10162 10161 10158 ] final  -24.72 input  -65.29 | X-H torsion
[ 10718 10713 10712 10709 ] final -175.50 input   66.30 | X-H torsion
[ 10763 10752 10751 10750 ] final -145.26 input  -60.55 | X-H torsion
[ 11005 11000 10999 10996 ] final   16.39 input  -57.11 | X-H torsion

> <Gold.Protein.ActiveResidues>
 VAL166  LYS551  ARG553  GLY616  TRP617  ASP618  TYR619  PRO620  LYS621  CYS622 
 ASP623  PHE694  ASN695  SER759  ASP760  ASP761  ALA762  ILE779  LEU786  VAL792 
 PHE793  MET794  SER795  GLU796  ALA797  LYS798  CYS799  TRP800  GLU811  SER814 

> <Gold.Protein.RotatedAtoms>
  152.0073  134.9896  160.0566 H   0  0  0  0  0  0  0  0  0  0  0  0  # atno 6907 bound_to 6896
  152.1462  133.4489  159.4799 H   0  0  0  0  0  0  0  0  0  0  0  0  # atno 6908 bound_to 6896
  150.6870  134.2162  159.4422 H   0  0  0  0  0  0  0  0  0  0  0  0  # atno 6909 bound_to 6896
  145.1729  140.8934  143.3524 H   0  0  0  0  0  0  0  0  0  0  0  0  # atno 7974 bound_to 7965
  155.7185  140.3493  155.5005 H   0  0  0  0  0  0  0  0  0  0  0  0  # atno 8008 bound_to 7997
  155.9291  140.1081  157.1168 H   0  0  0  0  0  0  0  0  0  0  0  0  # atno 8009 bound_to 7997
  154.4082  140.1234  156.4766 H   0  0  0  0  0  0  0  0  0  0  0  0  # atno 8010 bound_to 7997
  140.7288  143.4328  151.0775 H   0  0  0  0  0  0  0  0  0  0  0  0  # atno 10167 bound_to 10162
  156.8008  130.9551  151.3118 H   0  0  0  0  0  0  0  0  0  0  0  0  # atno 10718 bound_to 10713
  154.8391  135.3418  154.6476 H   0  0  0  0  0  0  0  0  0  0  0  0  # atno 10763 bound_to 10752
  153.7088  135.6965  153.5047 H   0  0  0  0  0  0  0  0  0  0  0  0  # atno 10764 bound_to 10752
  153.2467  135.4367  155.0709 H   0  0  0  0  0  0  0  0  0  0  0  0  # atno 10765 bound_to 10752
  140.4477  134.1256  155.7698 H   0  0  0  0  0  0  0  0  0  0  0  0  # atno 11005 bound_to 11000
  145.0214  139.3421  143.6070 LP  0  0  0  0  0  0  0  0  0  0  0  0  # atno 17320 bound_to 7965
  146.3466  139.9516  142.8728 LP  0  0  0  0  0  0  0  0  0  0  0  0  # atno 17321 bound_to 7965
  139.7987  143.8115  152.3160 LP  0  0  0  0  0  0  0  0  0  0  0  0  # atno 17342 bound_to 10162
  139.8124  144.7330  150.9680 LP  0  0  0  0  0  0  0  0  0  0  0  0  # atno 17343 bound_to 10162
  157.6555  130.8920  149.9719 LP  0  0  0  0  0  0  0  0  0  0  0  0  # atno 17370 bound_to 10713
  156.1102  130.3650  150.0062 LP  0  0  0  0  0  0  0  0  0  0  0  0  # atno 17371 bound_to 10713
  141.1678  133.8669  157.1663 LP  0  0  0  0  0  0  0  0  0  0  0  0  # atno 17394 bound_to 11000
  140.0027  135.0021  157.0226 LP  0  0  0  0  0  0  0  0  0  0  0  0  # atno 17395 bound_to 11000

$$$$
