AV-unprocessed.smi:876|AV-procd|sdf|4026|dock2
  -GOLD-   22720 1513D 1   1.00000     0.00000
 Structure written by MMmdl.
 40 41  0  0  0  0  0  0  0  0  1 V2000
  150.9929  142.6263  156.6591 C   0  0  0  0  0  0  0  0  0  0  0  0
  151.0670  141.2126  157.0068 N   0  0  0  0  0  0  0  0  0  0  0  0
  151.9183  140.7782  158.1098 C   0  0  0  0  0  0  0  0  0  0  0  0
  150.3004  140.2628  156.2932 C   0  0  0  0  0  0  0  0  0  0  0  0
  149.2591  139.5320  156.9175 C   0  0  0  0  0  0  0  0  0  0  0  0
  148.5239  138.5954  156.1656 C   0  0  0  0  0  0  0  0  0  0  0  0
  148.8386  138.4129  154.7991 C   0  0  0  0  0  0  0  0  0  0  0  0
  148.1873  137.4906  153.9349 N   0  0  0  0  0  0  0  0  0  0  0  0
  146.8991  137.1062  153.9261 C   0  0  0  0  0  0  0  0  0  0  0  0
  146.0248  137.5151  154.6896 O   0  0  0  0  0  0  0  0  0  0  0  0
  146.6682  136.2147  152.9520 N   0  0  0  0  0  0  0  0  0  0  0  0
  145.3703  135.6149  152.6620 C   0  0  1  0  0  0  0  0  0  0  0  0
  144.9989  135.8292  151.2202 C   0  0  0  0  0  0  0  0  0  0  0  0
  144.7096  134.6931  150.5898 C   0  0  0  0  0  0  0  0  0  0  0  0
  144.8349  133.4827  151.4795 C   0  0  1  0  0  0  0  0  0  0  0  0
  145.7429  132.3914  150.8865 C   0  0  0  0  0  0  0  0  0  0  0  0
  147.0897  132.8169  150.8748 O   0  0  0  0  0  0  0  0  0  0  0  0
  145.3725  134.0702  152.8095 C   0  0  0  0  0  0  0  0  0  0  0  0
  149.8963  139.1768  154.2687 C   0  0  0  0  0  0  0  0  0  0  0  0
  150.6037  140.0743  154.9856 N   0  0  0  0  0  0  0  0  0  0  0  0
  144.5956  136.0655  153.2846 H   0  0  0  0  0  0  0  0  0  0  0  0
  143.8331  133.0809  151.6387 H   0  0  0  0  0  0  0  0  0  0  0  0
  149.9774  143.0010  156.7908 H   0  0  0  0  0  0  0  0  0  0  0  0
  151.2918  142.7826  155.6221 H   0  0  0  0  0  0  0  0  0  0  0  0
  151.6521  143.2248  157.2879 H   0  0  0  0  0  0  0  0  0  0  0  0
  152.6770  140.0792  157.7567 H   0  0  0  0  0  0  0  0  0  0  0  0
  151.3248  140.2853  158.8804 H   0  0  0  0  0  0  0  0  0  0  0  0
  152.4311  141.6212  158.5730 H   0  0  0  0  0  0  0  0  0  0  0  0
  149.0120  139.6655  157.9598 H   0  0  0  0  0  0  0  0  0  0  0  0
  147.7475  138.0321  156.6584 H   0  0  0  0  0  0  0  0  0  0  0  0
  148.7649  137.1111  153.1992 H   0  0  0  0  0  0  0  0  0  0  0  0
  147.4413  135.9341  152.3667 H   0  0  0  0  0  0  0  0  0  0  0  0
  144.9613  136.8126  150.7748 H   0  0  0  0  0  0  0  0  0  0  0  0
  144.4028  134.6182  149.5568 H   0  0  0  0  0  0  0  0  0  0  0  0
  145.6632  131.4656  151.4576 H   0  0  0  0  0  0  0  0  0  0  0  0
  145.4432  132.1665  149.8626 H   0  0  0  0  0  0  0  0  0  0  0  0
  147.6384  132.0728  150.6792 H   0  0  0  0  0  0  0  0  0  0  0  0
  146.3808  133.7021  153.0069 H   0  0  0  0  0  0  0  0  0  0  0  0
  144.7570  133.7578  153.6538 H   0  0  0  0  0  0  0  0  0  0  0  0
  150.1850  139.0687  153.2333 H   0  0  0  0  0  0  0  0  0  0  0  0
  1  2  1  0  0  0  0
  1 23  1  0  0  0  0
  1 24  1  0  0  0  0
  1 25  1  0  0  0  0
  2  3  1  0  0  0  0
  2  4  1  0  0  0  0
  3 26  1  0  0  0  0
  3 27  1  0  0  0  0
  3 28  1  0  0  0  0
  4 20  1  0  0  0  0
  4  5  2  0  0  0  0
  5  6  1  0  0  0  0
  5 29  1  0  0  0  0
  6  7  2  0  0  0  0
  6 30  1  0  0  0  0
  7  8  1  0  0  0  0
  7 19  1  0  0  0  0
  8  9  1  0  0  0  0
  8 31  1  0  0  0  0
  9 10  2  0  0  0  0
  9 11  1  0  0  0  0
 11 12  1  0  0  0  0
 11 32  1  0  0  0  0
 12 21  1  0  0  0  0
 12 18  1  0  0  0  0
 12 13  1  0  0  0  0
 13 14  2  0  0  0  0
 13 33  1  0  0  0  0
 14 15  1  0  0  0  0
 14 34  1  0  0  0  0
 15 22  1  0  0  0  0
 15 16  1  0  0  0  0
 15 18  1  0  0  0  0
 16 17  1  0  0  0  0
 16 35  1  0  0  0  0
 16 36  1  0  0  0  0
 17 37  1  0  0  0  0
 18 38  1  0  0  0  0
 18 39  1  0  0  0  0
 19 20  2  0  0  0  0
 19 40  1  0  0  0  0
M  END
> <s_m_source_file>
AV-unprocessed.smi

> <i_m_source_file_index>
876

> <i_lp_mmshare_version>
43012

> <i_f3d_flags>
0

> <s_epik_input>
W0NIM11OKFtDSDNdKWMxW2NIXVtjSF1jKFtjSF1uMSlbTkhdQyg9TylbTkhdW0NAQEhdMltDSF09W0NIXVtDQEBIXShbQ0gyXTIpW0NIMl1bT0hd

> <s_epik_cmdline>
J2VwaWtfcHl0aG9uJywgJy1waCcsICc3LjAnLCAnLXRuJywgJzgnLCAnLW1hJywgJzIwMCcsICctbWV0YWxfYmluZGluZycsICctaW1hZScsICc8aW5maWxlLm1hZT4nLCAnLW9tYWUnLCAnPG91dGZpbGUubWFlPic=

> <r_lp_tautomer_probability>
1

> <r_epik_Ionization_Penalty>
0.617998

> <r_epik_Ionization_Penalty_Charging>
0

> <r_epik_Ionization_Penalty_Neutral>
0.617998

> <r_epik_State_Penalty>
0.632637

> <r_epik_Charging_Adjusted_Penalty>
0.632637

> <i_epik_Tot_Q>
0

> <i_epik_Tot_abs_Q>
0

> <r_epik_Metal_State_Penalty>
0.305596

> <b_epik_Metal_Only>
0

> <s_lp_Force_Field>
OPLS_2005

> <r_lp_Energy>
21.5566

> <b_lp_Chiralities_Consistent>
1

> <s_lp_Variant>
AV-unprocessed.smi:876-8

> <Gold.Version>
5.8.1

> <Gold.Id.Protein>
6NUR|6NUR_protein|mol2

> <Gold.PLP.Fitness>
39.6299

> <Gold.PLP.PLP>
-28.0058

> <Gold.PLP.part.hbond>
-3.9690

> <Gold.PLP.part.metal>
0.0000

> <Gold.PLP.part.buried>
-3.0636

> <Gold.PLP.part.nonpolar>
-21.3249

> <Gold.PLP.part.repulsive>
0.1341

> <Gold.PLP.ligand.clash>
0.0000

> <Gold.PLP.ligand.torsion>
1.5370

> <Gold.PLP.Chemscore.Hbond>
3.8920

> <Gold.PLP.Chemscore.CHOScore>
1.0000

> <Gold.PLP.Chemscore.Metal>
0.0000

> <Gold.Chemscore.Hbonds>
donor molecule, donor type, donor heavy atom, donor atom, acceptor molecule, acceptor atom, score
      L1  H     8    31       P1  7948  1.00
      L1  H    11    32       P1  7948  0.98
      L1  H    17    37       P1 10747  1.00
      P1  H  7989  7998       L1    20  0.90
      L1  C    19    40       P1  7957  1.00

> <Gold.PLP.Chemscore.Internal.Correction>
0.0221

> <Gold.Rescore>
     Score         DG    S(hbond)    S(metal)    S(lipo)     H(rot)  DE(clash)    DE(int)     intcor
     17.00     -18.84       3.28        0.00      59.85       1.80       0.29       1.55       ----

> <Gold.Chemscore.Fitness>
16.9990

> <Gold.Chemscore.DG>
-18.8397

> <Gold.Chemscore.ZeroCoef>
-5.4800

> <Gold.Chemscore.Hbond>
3.2814

> <Gold.Chemscore.Metal>
0.0000

> <Gold.Chemscore.Lipo>
59.8531

> <Gold.Chemscore.Internal_Hbond>
0.0000

> <Gold.Chemscore.DEClash>
0.2935

> <Gold.Chemscore.DEInternal>
1.5472

> <Gold.Chemscore.Rot>
1.7980

> <Gold.Chemscore.Internal.Correction>
   9.000000E+99

> <Gold.Chemscore.Hbonds>
donor molecule, donor type, donor heavy atom, donor atom, acceptor molecule, acceptor atom, score
      L1  H     8    31       P1  7948  0.96
      L1  H    11    32       P1  7948  0.92
      L1  H    17    37       P1 10747  1.00
      P1  H  7989  7998       L1    20  0.17

> <Gold.Chemscore.Hbond.Weighted>
-10.9598

> <Gold.Chemscore.Metal.Weighted>
-0.0000

> <Gold.Chemscore.Lipo.Weighted>
-7.0028

> <Gold.Chemscore.Internal_Hbond.Weighted>
0.0000

> <Gold.Chemscore.DEClash.Weighted>
0.2935

> <Gold.Chemscore.DEInternal.Weighted>
1.5472

> <Gold.Chemscore.Rot.Weighted>
4.6029

> <Gold.Chemscore.Internal.Correction.Weighted>
   9.000000E+99

> <Gold.Protein.RotatedTorsions>
[ 6907 6896 6895 6894 ] final  -29.93 input  -60.11 | X-H torsion
[ 7974 7965 7964 7962 ] final -135.44 input  175.53 | X-H torsion
[ 8008 7997 7996 7995 ] final  129.89 input   59.86 | X-H torsion
[ 10167 10162 10161 10158 ] final  110.06 input  -65.29 | X-H torsion
[ 10718 10713 10712 10709 ] final  -79.25 input   66.30 | X-H torsion
[ 10763 10752 10751 10750 ] final -136.11 input  -60.55 | X-H torsion
[ 11005 11000 10999 10996 ] final   -0.84 input  -57.11 | X-H torsion

> <Gold.Protein.ActiveResidues>
 VAL166  LYS551  ARG553  GLY616  TRP617  ASP618  TYR619  PRO620  LYS621  CYS622 
 ASP623  PHE694  ASN695  SER759  ASP760  ASP761  ALA762  ILE779  LEU786  VAL792 
 PHE793  MET794  SER795  GLU796  ALA797  LYS798  CYS799  TRP800  GLU811  SER814 

> <Gold.Protein.RotatedAtoms>
  151.1124  135.0034  159.8499 H   0  0  0  0  0  0  0  0  0  0  0  0  # atno 6907 bound_to 6896
  152.5444  134.1820  159.8649 H   0  0  0  0  0  0  0  0  0  0  0  0  # atno 6908 bound_to 6896
  151.1871  133.4645  159.2627 H   0  0  0  0  0  0  0  0  0  0  0  0  # atno 6909 bound_to 6896
  144.9013  140.6775  143.5083 H   0  0  0  0  0  0  0  0  0  0  0  0  # atno 7974 bound_to 7965
  156.2944  140.2609  156.2672 H   0  0  0  0  0  0  0  0  0  0  0  0  # atno 8008 bound_to 7997
  154.9730  140.0391  157.2262 H   0  0  0  0  0  0  0  0  0  0  0  0  # atno 8009 bound_to 7997
  154.7841  140.2800  155.6046 H   0  0  0  0  0  0  0  0  0  0  0  0  # atno 8010 bound_to 7997
  139.6718  144.7125  151.1674 H   0  0  0  0  0  0  0  0  0  0  0  0  # atno 10167 bound_to 10162
  156.0097  130.4540  150.3620 H   0  0  0  0  0  0  0  0  0  0  0  0  # atno 10718 bound_to 10713
  154.8690  135.3682  154.5008 H   0  0  0  0  0  0  0  0  0  0  0  0  # atno 10763 bound_to 10752
  153.5649  135.7022  153.5535 H   0  0  0  0  0  0  0  0  0  0  0  0  # atno 10764 bound_to 10752
  153.3594  135.4050  155.1670 H   0  0  0  0  0  0  0  0  0  0  0  0  # atno 10765 bound_to 10752
  140.6407  133.9492  155.8324 H   0  0  0  0  0  0  0  0  0  0  0  0  # atno 11005 bound_to 11000
  145.3611  139.1681  143.4383 LP  0  0  0  0  0  0  0  0  0  0  0  0  # atno 17320 bound_to 7965
  146.3110  140.3673  142.8670 LP  0  0  0  0  0  0  0  0  0  0  0  0  # atno 17321 bound_to 7965
  140.7621  143.5833  150.8872 LP  0  0  0  0  0  0  0  0  0  0  0  0  # atno 17342 bound_to 10162
  139.9499  143.6285  152.3032 LP  0  0  0  0  0  0  0  0  0  0  0  0  # atno 17343 bound_to 10162
  157.1708  131.0368  151.2796 LP  0  0  0  0  0  0  0  0  0  0  0  0  # atno 17370 bound_to 10713
  157.4231  130.7448  149.6929 LP  0  0  0  0  0  0  0  0  0  0  0  0  # atno 17371 bound_to 10713
  141.0609  134.0348  157.3660 LP  0  0  0  0  0  0  0  0  0  0  0  0  # atno 17394 bound_to 11000
  139.9081  135.0184  156.7575 LP  0  0  0  0  0  0  0  0  0  0  0  0  # atno 17395 bound_to 11000

$$$$
