AV-unprocessed.smi:3133|AV-procd|sdf|11939|dock3
  -GOLD-   2272017323D 1   1.00000     0.00000
 Structure written by MMmdl.
 32 33  0  0  0  0  0  0  0  0  1 V2000
  150.6902  141.5987  156.1015 C   0  0  0  0  0  0  0  0  0  0  0  0
  151.2511  140.2818  156.6760 C   0  0  2  0  0  0  0  0  0  0  0  0
  152.2556  140.5034  157.8201 C   0  0  0  0  0  0  0  0  0  0  0  0
  153.2473  139.7821  157.9369 O   0  0  0  0  0  0  0  0  0  0  0  0
  151.9898  141.5226  158.6532 N   0  0  0  0  0  0  0  0  0  0  0  0
  152.8245  141.9348  159.7755 C   0  0  0  0  0  0  0  0  0  0  0  0
  152.5236  143.3842  160.1888 C   0  0  1  0  0  0  0  0  0  0  0  0
  152.5532  144.3737  159.0261 C   0  0  0  0  0  0  0  0  0  0  0  0
  151.7038  145.5005  159.5680 C   0  0  0  0  0  0  0  0  0  0  0  0
  150.6196  144.7391  160.3265 C   0  0  0  0  0  0  0  0  0  0  0  0
  151.2086  143.5036  160.7257 O   0  0  0  0  0  0  0  0  0  0  0  0
  151.8304  139.4374  155.6376 N   0  0  0  0  0  0  0  0  0  0  0  0
  151.5062  138.1989  155.2592 C   0  0  0  0  0  0  0  0  0  0  0  0
  152.2754  137.7105  154.2965 N   0  0  0  0  0  0  0  0  0  0  0  0
  153.1200  138.7699  154.1205 C   0  0  0  0  0  0  0  0  0  0  0  0
  152.9040  139.8257  154.9048 N   0  0  0  0  0  0  0  0  0  0  0  0
  150.1995  142.1890  156.8761 H   0  0  0  0  0  0  0  0  0  0  0  0
  149.9496  141.3992  155.3267 H   0  0  0  0  0  0  0  0  0  0  0  0
  151.4720  142.2177  155.6594 H   0  0  0  0  0  0  0  0  0  0  0  0
  150.4087  139.7328  157.1000 H   0  0  0  0  0  0  0  0  0  0  0  0
  151.1551  142.0652  158.4856 H   0  0  0  0  0  0  0  0  0  0  0  0
  152.6088  141.2656  160.6088 H   0  0  0  0  0  0  0  0  0  0  0  0
  153.8844  141.8092  159.5476 H   0  0  0  0  0  0  0  0  0  0  0  0
  153.2306  143.7139  160.9523 H   0  0  0  0  0  0  0  0  0  0  0  0
  153.5628  144.6878  158.7598 H   0  0  0  0  0  0  0  0  0  0  0  0
  152.0823  143.9441  158.1406 H   0  0  0  0  0  0  0  0  0  0  0  0
  152.2887  146.1101  160.2582 H   0  0  0  0  0  0  0  0  0  0  0  0
  151.3039  146.1515  158.7903 H   0  0  0  0  0  0  0  0  0  0  0  0
  150.2474  145.2974  161.1860 H   0  0  0  0  0  0  0  0  0  0  0  0
  149.7746  144.5223  159.6720 H   0  0  0  0  0  0  0  0  0  0  0  0
  150.6920  137.6419  155.6993 H   0  0  0  0  0  0  0  0  0  0  0  0
  153.9213  138.7600  153.3963 H   0  0  0  0  0  0  0  0  0  0  0  0
  1  2  1  0  0  0  0
  1 17  1  0  0  0  0
  1 18  1  0  0  0  0
  1 19  1  0  0  0  0
  2  3  1  0  0  0  0
  2 12  1  0  0  0  0
  2 20  1  0  0  0  0
  3  4  2  0  0  0  0
  3  5  1  0  0  0  0
  5  6  1  0  0  0  0
  5 21  1  0  0  0  0
  6  7  1  0  0  0  0
  6 22  1  0  0  0  0
  6 23  1  0  0  0  0
  7 11  1  0  0  0  0
  7  8  1  0  0  0  0
  7 24  1  0  0  0  0
  8  9  1  0  0  0  0
  8 25  1  0  0  0  0
  8 26  1  0  0  0  0
  9 10  1  0  0  0  0
  9 27  1  0  0  0  0
  9 28  1  0  0  0  0
 10 11  1  0  0  0  0
 10 29  1  0  0  0  0
 10 30  1  0  0  0  0
 12 16  1  0  0  0  0
 12 13  1  0  0  0  0
 13 14  2  0  0  0  0
 13 31  1  0  0  0  0
 14 15  1  0  0  0  0
 15 16  2  0  0  0  0
 15 32  1  0  0  0  0
M  END
> <s_m_source_file>
AV-unprocessed.smi

> <i_m_source_file_index>
3133

> <i_lp_mmshare_version>
43012

> <i_f3d_flags>
0

> <s_epik_input>
bjFbY0hdbltjSF1uMVtDQEhdKFtDSDNdKUMoPU8pW05IXVtDSDJdW0NAQEhdMltDSDJdW0NIMl1bQ0gyXU8y

> <s_epik_cmdline>
J2VwaWtfcHl0aG9uJywgJy1waCcsICc3LjAnLCAnLXRuJywgJzgnLCAnLW1hJywgJzIwMCcsICctbWV0YWxfYmluZGluZycsICctaW1hZScsICc8aW5maWxlLm1hZT4nLCAnLW9tYWUnLCAnPG91dGZpbGUubWFlPic=

> <r_lp_tautomer_probability>
1

> <r_epik_Ionization_Penalty>
1.2027e-05

> <r_epik_Ionization_Penalty_Charging>
0

> <r_epik_Ionization_Penalty_Neutral>
1.2027e-05

> <r_epik_State_Penalty>
-0

> <r_epik_Charging_Adjusted_Penalty>
0

> <i_epik_Tot_Q>
0

> <i_epik_Tot_abs_Q>
0

> <r_epik_Metal_State_Penalty>
-0

> <b_epik_Metal_Only>
0

> <s_lp_Force_Field>
OPLS_2005

> <r_lp_Energy>
23.186

> <b_lp_Chiralities_Consistent>
1

> <s_lp_Variant>
AV-unprocessed.smi:3133-3

> <Gold.Version>
5.8.1

> <Gold.Id.Protein>
6NUR|6NUR_protein|mol2

> <Gold.PLP.Fitness>
45.2201

> <Gold.PLP.PLP>
-38.9108

> <Gold.PLP.part.hbond>
-4.5609

> <Gold.PLP.part.metal>
0.0000

> <Gold.PLP.part.buried>
-6.2432

> <Gold.PLP.part.nonpolar>
-28.8264

> <Gold.PLP.part.repulsive>
0.3468

> <Gold.PLP.ligand.clash>
0.0000

> <Gold.PLP.ligand.torsion>
0.7562

> <Gold.PLP.Chemscore.Hbond>
2.5642

> <Gold.PLP.Chemscore.CHOScore>
0.0000

> <Gold.PLP.Chemscore.Metal>
0.0000

> <Gold.Chemscore.Hbonds>
donor molecule, donor type, donor heavy atom, donor atom, acceptor molecule, acceptor atom, score
      P1  H  7989  7998       L1    16  0.15
      P1  H  7997  8008       L1    16  1.00
      P1  H  7997  8010       L1     4  0.54
      P1  H 10752 10765       L1    14  0.53

> <Gold.PLP.Chemscore.Internal.Correction>
0.1291

> <Gold.Rescore>
     Score         DG    S(hbond)    S(metal)    S(lipo)     H(rot)  DE(clash)    DE(int)     intcor
     14.01     -15.55       2.22        0.00      72.17       2.26       0.01       1.53       ----

> <Gold.Chemscore.Fitness>
14.0067

> <Gold.Chemscore.DG>
-15.5537

> <Gold.Chemscore.ZeroCoef>
-5.4800

> <Gold.Chemscore.Hbond>
2.2168

> <Gold.Chemscore.Metal>
0.0000

> <Gold.Chemscore.Lipo>
72.1732

> <Gold.Chemscore.Internal_Hbond>
0.0000

> <Gold.Chemscore.DEClash>
0.0141

> <Gold.Chemscore.DEInternal>
1.5330

> <Gold.Chemscore.Rot>
2.2558

> <Gold.Chemscore.Internal.Correction>
   9.000000E+99

> <Gold.Chemscore.Hbonds>
donor molecule, donor type, donor heavy atom, donor atom, acceptor molecule, acceptor atom, score
      P1  H  7997  8008       L1    16  0.48
      P1  H  7997  8010       L1     4  0.54
      P1  H 10752 10765       L1    14  0.51

> <Gold.Chemscore.Hbond.Weighted>
-7.4042

> <Gold.Chemscore.Metal.Weighted>
-0.0000

> <Gold.Chemscore.Lipo.Weighted>
-8.4443

> <Gold.Chemscore.Internal_Hbond.Weighted>
0.0000

> <Gold.Chemscore.DEClash.Weighted>
0.0141

> <Gold.Chemscore.DEInternal.Weighted>
1.5330

> <Gold.Chemscore.Rot.Weighted>
5.7747

> <Gold.Chemscore.Internal.Correction.Weighted>
   9.000000E+99

> <Gold.Protein.RotatedTorsions>
[ 6907 6896 6895 6894 ] final  138.65 input  -60.11 | X-H torsion
[ 7974 7965 7964 7962 ] final  -92.20 input  175.53 | X-H torsion
[ 8008 7997 7996 7995 ] final    4.08 input   59.86 | X-H torsion
[ 10167 10162 10161 10158 ] final  -95.87 input  -65.29 | X-H torsion
[ 10718 10713 10712 10709 ] final  -95.09 input   66.30 | X-H torsion
[ 10763 10752 10751 10750 ] final  161.86 input  -60.55 | X-H torsion
[ 11005 11000 10999 10996 ] final  101.22 input  -57.11 | X-H torsion

> <Gold.Protein.ActiveResidues>
 VAL166  LYS551  ARG553  GLY616  TRP617  ASP618  TYR619  PRO620  LYS621  CYS622 
 ASP623  PHE694  ASN695  SER759  ASP760  ASP761  ALA762  ILE779  LEU786  VAL792 
 PHE793  MET794  SER795  GLU796  ALA797  LYS798  CYS799  TRP800  GLU811  SER814 

> <Gold.Protein.RotatedAtoms>
  152.2641  133.5323  159.5398 H   0  0  0  0  0  0  0  0  0  0  0  0  # atno 6907 bound_to 6896
  150.7135  134.0789  159.3900 H   0  0  0  0  0  0  0  0  0  0  0  0  # atno 6908 bound_to 6896
  151.8706  135.0491  160.0529 H   0  0  0  0  0  0  0  0  0  0  0  0  # atno 6909 bound_to 6896
  145.4030  140.9539  143.2276 H   0  0  0  0  0  0  0  0  0  0  0  0  # atno 7974 bound_to 7965
  154.7116  140.2693  155.6624 H   0  0  0  0  0  0  0  0  0  0  0  0  # atno 8008 bound_to 7997
  156.2797  140.2752  156.1683 H   0  0  0  0  0  0  0  0  0  0  0  0  # atno 8009 bound_to 7997
  155.0627  140.0371  157.2572 H   0  0  0  0  0  0  0  0  0  0  0  0  # atno 8010 bound_to 7997
  140.2997  143.3170  152.0261 H   0  0  0  0  0  0  0  0  0  0  0  0  # atno 10167 bound_to 10162
  156.0037  130.5095  150.6024 H   0  0  0  0  0  0  0  0  0  0  0  0  # atno 10718 bound_to 10713
  154.2694  135.2766  155.2744 H   0  0  0  0  0  0  0  0  0  0  0  0  # atno 10763 bound_to 10752
  154.5314  135.5728  153.6766 H   0  0  0  0  0  0  0  0  0  0  0  0  # atno 10764 bound_to 10752
  152.9948  135.6229  154.2848 H   0  0  0  0  0  0  0  0  0  0  0  0  # atno 10765 bound_to 10752
  139.8773  134.9174  156.4873 H   0  0  0  0  0  0  0  0  0  0  0  0  # atno 11005 bound_to 11000
  144.8361  139.5548  143.6921 LP  0  0  0  0  0  0  0  0  0  0  0  0  # atno 17320 bound_to 7965
  146.2742  139.6712  142.9274 LP  0  0  0  0  0  0  0  0  0  0  0  0  # atno 17321 bound_to 7965
  139.4918  144.6465  151.6768 LP  0  0  0  0  0  0  0  0  0  0  0  0  # atno 17342 bound_to 10162
  140.5661  144.0187  150.6193 LP  0  0  0  0  0  0  0  0  0  0  0  0  # atno 17343 bound_to 10162
  157.3871  131.0790  151.1426 LP  0  0  0  0  0  0  0  0  0  0  0  0  # atno 17370 bound_to 10713
  157.2130  130.6446  149.5781 LP  0  0  0  0  0  0  0  0  0  0  0  0  # atno 17371 bound_to 10713
  140.8684  133.8007  155.9338 LP  0  0  0  0  0  0  0  0  0  0  0  0  # atno 17394 bound_to 11000
  140.8978  134.2416  157.5059 LP  0  0  0  0  0  0  0  0  0  0  0  0  # atno 17395 bound_to 11000

$$$$
