AV-unprocessed.smi:1662|AV-procd|sdf|6658|dock9
  -GOLD-   22720 7363D 1   1.00000     0.00000
 Structure written by MMmdl.
 47 48  0  0  0  0  0  0  0  0  1 V2000
  153.7897  136.8237  164.9011 C   0  0  0  0  0  0  0  0  0  0  0  0
  154.3982  136.9186  163.5279 C   0  0  0  0  0  0  0  0  0  0  0  0
  154.7747  138.0928  163.1406 N   0  0  0  0  0  0  0  0  0  0  0  0
  155.3408  138.2930  161.8966 N   0  0  0  0  0  0  0  0  0  0  0  0
  155.6933  139.6924  161.6149 C   0  0  0  0  0  0  0  0  0  0  0  0
  154.9597  140.2644  160.3936 C   0  0  0  0  0  0  0  0  0  0  0  0
  155.1216  139.7727  159.2759 O   0  0  0  0  0  0  0  0  0  0  0  0
  154.1436  141.3026  160.6300 N   0  0  0  0  0  0  0  0  0  0  0  0
  153.3743  142.0219  159.6172 C   0  0  1  0  0  0  0  0  0  0  0  0
  152.0613  141.2690  159.3279 C   0  0  0  0  0  0  0  0  0  0  0  0
  151.2396  141.9797  158.2422 C   0  0  0  0  0  0  0  0  0  0  0  0
  150.9765  143.4497  158.6049 C   0  0  0  0  0  0  0  0  0  0  0  0
  152.2897  144.2015  158.9021 C   0  0  1  0  0  0  0  0  0  0  0  0
  152.0442  145.6965  159.1664 C   0  0  0  0  0  0  0  0  0  0  0  0
  153.1112  143.5007  160.0171 C   0  0  1  0  0  0  0  0  0  0  0  0
  152.4942  143.6501  161.4278 C   0  0  0  0  0  0  0  0  0  0  0  0
  155.5661  137.3091  160.9782 C   0  0  0  0  0  0  0  0  0  0  0  0
  156.0823  137.5320  159.8818 O   0  0  0  0  0  0  0  0  0  0  0  0
  155.1367  135.9816  161.4235 C   0  0  0  0  0  0  0  0  0  0  0  0
  155.3466  134.9237  160.4887 C   0  0  0  0  0  0  0  0  0  0  0  0
  155.5118  134.0785  159.7149 N   0  0  0  0  0  0  0  0  0  0  0  0
  154.5767  135.7728  162.6414 C   0  0  0  0  0  0  0  0  0  0  0  0
  154.1148  134.4142  163.1503 C   0  0  0  0  0  0  0  0  0  0  0  0
  154.4270  136.2405  165.5657 H   0  0  0  0  0  0  0  0  0  0  0  0
  152.8122  136.3434  164.8610 H   0  0  0  0  0  0  0  0  0  0  0  0
  153.6521  137.8067  165.3536 H   0  0  0  0  0  0  0  0  0  0  0  0
  155.4603  140.3244  162.4738 H   0  0  0  0  0  0  0  0  0  0  0  0
  156.7723  139.7789  161.4721 H   0  0  0  0  0  0  0  0  0  0  0  0
  154.0664  141.6367  161.5797 H   0  0  0  0  0  0  0  0  0  0  0  0
  153.9564  142.0178  158.6932 H   0  0  0  0  0  0  0  0  0  0  0  0
  152.2799  140.2499  159.0065 H   0  0  0  0  0  0  0  0  0  0  0  0
  151.4668  141.1806  160.2379 H   0  0  0  0  0  0  0  0  0  0  0  0
  151.7742  141.9303  157.2928 H   0  0  0  0  0  0  0  0  0  0  0  0
  150.2939  141.4588  158.0903 H   0  0  0  0  0  0  0  0  0  0  0  0
  150.4497  143.9340  157.7820 H   0  0  0  0  0  0  0  0  0  0  0  0
  150.3087  143.5028  159.4653 H   0  0  0  0  0  0  0  0  0  0  0  0
  152.8927  144.1535  157.9939 H   0  0  0  0  0  0  0  0  0  0  0  0
  151.3596  145.8548  159.9999 H   0  0  0  0  0  0  0  0  0  0  0  0
  151.6056  146.1778  158.2920 H   0  0  0  0  0  0  0  0  0  0  0  0
  152.9766  146.2148  159.3924 H   0  0  0  0  0  0  0  0  0  0  0  0
  154.0801  144.0007  160.0565 H   0  0  0  0  0  0  0  0  0  0  0  0
  151.5033  143.2019  161.4923 H   0  0  0  0  0  0  0  0  0  0  0  0
  152.4016  144.6970  161.7140 H   0  0  0  0  0  0  0  0  0  0  0  0
  153.1165  143.1809  162.1897 H   0  0  0  0  0  0  0  0  0  0  0  0
  154.3712  133.6075  162.4641 H   0  0  0  0  0  0  0  0  0  0  0  0
  153.0320  134.4050  163.2798 H   0  0  0  0  0  0  0  0  0  0  0  0
  154.5786  134.1832  164.1099 H   0  0  0  0  0  0  0  0  0  0  0  0
  1  2  1  0  0  0  0
  1 24  1  0  0  0  0
  1 25  1  0  0  0  0
  1 26  1  0  0  0  0
  2 22  1  0  0  0  0
  2  3  2  0  0  0  0
  3  4  1  0  0  0  0
  4  5  1  0  0  0  0
  4 17  1  0  0  0  0
  5  6  1  0  0  0  0
  5 27  1  0  0  0  0
  5 28  1  0  0  0  0
  6  7  2  0  0  0  0
  6  8  1  0  0  0  0
  8  9  1  0  0  0  0
  8 29  1  0  0  0  0
  9 15  1  0  0  0  0
  9 10  1  0  0  0  0
  9 30  1  0  0  0  0
 10 11  1  0  0  0  0
 10 31  1  0  0  0  0
 10 32  1  0  0  0  0
 11 12  1  0  0  0  0
 11 33  1  0  0  0  0
 11 34  1  0  0  0  0
 12 13  1  0  0  0  0
 12 35  1  0  0  0  0
 12 36  1  0  0  0  0
 13 14  1  0  0  0  0
 13 15  1  0  0  0  0
 13 37  1  0  0  0  0
 14 38  1  0  0  0  0
 14 39  1  0  0  0  0
 14 40  1  0  0  0  0
 15 16  1  0  0  0  0
 15 41  1  0  0  0  0
 16 42  1  0  0  0  0
 16 43  1  0  0  0  0
 16 44  1  0  0  0  0
 17 18  2  0  0  0  0
 17 19  1  0  0  0  0
 19 20  1  0  0  0  0
 19 22  2  0  0  0  0
 20 21  3  0  0  0  0
 22 23  1  0  0  0  0
 23 45  1  0  0  0  0
 23 46  1  0  0  0  0
 23 47  1  0  0  0  0
M  END
> <s_m_source_file>
AV-unprocessed.smi

> <i_m_source_file_index>
1662

> <i_lp_mmshare_version>
43012

> <i_f3d_flags>
0

> <s_epik_input>
TiNDYyhjMVtDSDNdKWMoPU8pbihuYzFbQ0gzXSlbQ0gyXUMoPU8pW05IXVtDQEBIXTJbQ0gyXVtDSDJdW0NIMl1bQ0BASF0oW0NIM10pW0NASF0yW0NIM10=

> <s_epik_cmdline>
J2VwaWtfcHl0aG9uJywgJy1waCcsICc3LjAnLCAnLXRuJywgJzgnLCAnLW1hJywgJzIwMCcsICctbWV0YWxfYmluZGluZycsICctaW1hZScsICc8aW5maWxlLm1hZT4nLCAnLW9tYWUnLCAnPG91dGZpbGUubWFlPic=

> <r_lp_tautomer_probability>
1

> <r_epik_Ionization_Penalty>
1.90709e-08

> <r_epik_Ionization_Penalty_Charging>
2.37982e-11

> <r_epik_Ionization_Penalty_Neutral>
1.90471e-08

> <r_epik_State_Penalty>
-0

> <r_epik_Charging_Adjusted_Penalty>
2.37982e-11

> <i_epik_Tot_Q>
0

> <i_epik_Tot_abs_Q>
0

> <r_epik_Metal_State_Penalty>
-0

> <b_epik_Metal_Only>
0

> <s_lp_Force_Field>
OPLS_2005

> <r_lp_Energy>
29.2459

> <b_lp_Chiralities_Consistent>
1

> <s_lp_Variant>
AV-unprocessed.smi:1662-2

> <Gold.Version>
5.8.1

> <Gold.Id.Protein>
6NUR|6NUR_protein|mol2

> <Gold.PLP.Fitness>
45.9144

> <Gold.PLP.PLP>
-43.6130

> <Gold.PLP.part.hbond>
-1.0000

> <Gold.PLP.part.metal>
0.0000

> <Gold.PLP.part.buried>
-3.3509

> <Gold.PLP.part.nonpolar>
-38.5951

> <Gold.PLP.part.repulsive>
0.0545

> <Gold.PLP.ligand.clash>
0.0000

> <Gold.PLP.ligand.torsion>
0.3556

> <Gold.PLP.Chemscore.Hbond>
1.0000

> <Gold.PLP.Chemscore.CHOScore>
0.0000

> <Gold.PLP.Chemscore.Metal>
0.0000

> <Gold.Chemscore.Hbonds>
donor molecule, donor type, donor heavy atom, donor atom, acceptor molecule, acceptor atom, score
      P1  H  7997  8010       L1     7  1.00

> <Gold.PLP.Chemscore.Internal.Correction>
0.0127

> <Gold.Rescore>
     Score         DG    S(hbond)    S(metal)    S(lipo)     H(rot)  DE(clash)    DE(int)     intcor
     17.92     -19.86       1.00        0.00     126.20       1.45       0.06       1.88       ----

> <Gold.Chemscore.Fitness>
17.9216

> <Gold.Chemscore.DG>
-19.8621

> <Gold.Chemscore.ZeroCoef>
-5.4800

> <Gold.Chemscore.Hbond>
0.9968

> <Gold.Chemscore.Metal>
0.0000

> <Gold.Chemscore.Lipo>
126.2026

> <Gold.Chemscore.Internal_Hbond>
0.0000

> <Gold.Chemscore.DEClash>
0.0630

> <Gold.Chemscore.DEInternal>
1.8776

> <Gold.Chemscore.Rot>
1.4504

> <Gold.Chemscore.Internal.Correction>
   9.000000E+99

> <Gold.Chemscore.Hbonds>
donor molecule, donor type, donor heavy atom, donor atom, acceptor molecule, acceptor atom, score
      P1  H  7997  8010       L1     7  0.96

> <Gold.Chemscore.Hbond.Weighted>
-3.3294

> <Gold.Chemscore.Metal.Weighted>
-0.0000

> <Gold.Chemscore.Lipo.Weighted>
-14.7657

> <Gold.Chemscore.Internal_Hbond.Weighted>
0.0000

> <Gold.Chemscore.DEClash.Weighted>
0.0630

> <Gold.Chemscore.DEInternal.Weighted>
1.8776

> <Gold.Chemscore.Rot.Weighted>
3.7129

> <Gold.Chemscore.Internal.Correction.Weighted>
   9.000000E+99

> <Gold.Protein.RotatedTorsions>
[ 6907 6896 6895 6894 ] final   38.03 input  -60.11 | X-H torsion
[ 7974 7965 7964 7962 ] final  -98.03 input  175.53 | X-H torsion
[ 8008 7997 7996 7995 ] final  -21.21 input   59.86 | X-H torsion
[ 10167 10162 10161 10158 ] final   12.31 input  -65.29 | X-H torsion
[ 10718 10713 10712 10709 ] final  -28.70 input   66.30 | X-H torsion
[ 10763 10752 10751 10750 ] final  -71.27 input  -60.55 | X-H torsion
[ 11005 11000 10999 10996 ] final  170.82 input  -57.11 | X-H torsion

> <Gold.Protein.ActiveResidues>
 VAL166  LYS551  ARG553  GLY616  TRP617  ASP618  TYR619  PRO620  LYS621  CYS622 
 ASP623  PHE694  ASN695  SER759  ASP760  ASP761  ALA762  ILE779  LEU786  VAL792 
 PHE793  MET794  SER795  GLU796  ALA797  LYS798  CYS799  TRP800  GLU811  SER814 

> <Gold.Protein.RotatedAtoms>
  152.1510  134.8988  160.0547 H   0  0  0  0  0  0  0  0  0  0  0  0  # atno 6907 bound_to 6896
  152.0019  133.3824  159.4193 H   0  0  0  0  0  0  0  0  0  0  0  0  # atno 6908 bound_to 6896
  150.6875  134.3746  159.5051 H   0  0  0  0  0  0  0  0  0  0  0  0  # atno 6909 bound_to 6896
  145.3259  140.9431  143.2689 H   0  0  0  0  0  0  0  0  0  0  0  0  # atno 7974 bound_to 7965
  154.4720  140.2041  155.9971 H   0  0  0  0  0  0  0  0  0  0  0  0  # atno 8008 bound_to 7997
  156.1026  140.3241  155.7934 H   0  0  0  0  0  0  0  0  0  0  0  0  # atno 8009 bound_to 7997
  155.4771  140.0535  157.2963 H   0  0  0  0  0  0  0  0  0  0  0  0  # atno 8010 bound_to 7997
  140.6076  143.8475  150.7030 H   0  0  0  0  0  0  0  0  0  0  0  0  # atno 10167 bound_to 10162
  156.4219  130.4428  149.7178 H   0  0  0  0  0  0  0  0  0  0  0  0  # atno 10718 bound_to 10713
  154.4294  135.5967  153.6059 H   0  0  0  0  0  0  0  0  0  0  0  0  # atno 10763 bound_to 10752
  152.9798  135.5971  154.3858 H   0  0  0  0  0  0  0  0  0  0  0  0  # atno 10764 bound_to 10752
  154.3694  135.2841  155.2254 H   0  0  0  0  0  0  0  0  0  0  0  0  # atno 10765 bound_to 10752
  140.3124  134.7505  157.4001 H   0  0  0  0  0  0  0  0  0  0  0  0  # atno 11005 bound_to 11000
  144.8902  139.4785  143.6681 LP  0  0  0  0  0  0  0  0  0  0  0  0  # atno 17320 bound_to 7965
  146.3064  139.7596  142.9053 LP  0  0  0  0  0  0  0  0  0  0  0  0  # atno 17321 bound_to 7965
  140.2036  143.3940  152.1773 LP  0  0  0  0  0  0  0  0  0  0  0  0  # atno 17342 bound_to 10162
  139.5337  144.7186  151.4968 LP  0  0  0  0  0  0  0  0  0  0  0  0  # atno 17343 bound_to 10162
  156.4115  130.7724  151.2737 LP  0  0  0  0  0  0  0  0  0  0  0  0  # atno 17370 bound_to 10713
  157.7508  131.0210  150.3731 LP  0  0  0  0  0  0  0  0  0  0  0  0  # atno 17371 bound_to 10713
  140.1013  134.5469  155.8350 LP  0  0  0  0  0  0  0  0  0  0  0  0  # atno 17394 bound_to 11000
  141.2105  133.6695  156.6515 LP  0  0  0  0  0  0  0  0  0  0  0  0  # atno 17395 bound_to 11000

$$$$
