AV-unprocessed.smi:1674|AV-procd|sdf|6713|dock3
  -GOLD-   22720 7453D 1   1.00000     0.00000
 Structure written by MMmdl.
 47 48  0  0  0  0  0  0  0  0  1 V2000
  145.8554  136.7886  155.3308 C   0  0  0  0  0  0  0  0  0  0  0  0
  147.3427  136.5737  155.4105 C   0  0  0  0  0  0  0  0  0  0  0  0
  148.0879  137.4662  154.8465 N   0  0  0  0  0  0  0  0  0  0  0  0
  149.4647  137.3623  154.8484 N   0  0  0  0  0  0  0  0  0  0  0  0
  150.1298  138.4476  154.1103 C   0  0  0  0  0  0  0  0  0  0  0  0
  149.7347  139.8748  154.5777 C   0  0  2  0  0  0  0  0  0  0  0  0
  149.8446  140.7667  153.4856 O   0  0  0  0  0  0  0  0  0  0  0  0
  150.4492  140.3680  155.8327 C   0  0  0  0  0  0  0  0  0  0  0  0
  150.1553  141.6502  156.3429 C   0  0  0  0  0  0  0  0  0  0  0  0
  150.7827  142.1109  157.5160 C   0  0  0  0  0  0  0  0  0  0  0  0
  151.7139  141.2940  158.1900 C   0  0  0  0  0  0  0  0  0  0  0  0
  152.3917  141.7870  159.4570 C   0  0  0  0  0  0  0  0  0  0  0  0
  151.7890  143.0951  160.0101 C   0  0  0  0  0  0  0  0  0  0  0  0
  152.2134  144.2968  159.1527 C   0  0  0  0  0  0  0  0  0  0  0  0
  152.1437  143.3271  161.4888 C   0  0  0  0  0  0  0  0  0  0  0  0
  152.0105  140.0123  157.6827 C   0  0  0  0  0  0  0  0  0  0  0  0
  151.3834  139.5520  156.5095 C   0  0  0  0  0  0  0  0  0  0  0  0
  150.1651  136.3544  155.4462 C   0  0  0  0  0  0  0  0  0  0  0  0
  151.3957  136.2994  155.4333 O   0  0  0  0  0  0  0  0  0  0  0  0
  149.3146  135.3464  156.0830 C   0  0  0  0  0  0  0  0  0  0  0  0
  150.0074  134.2628  156.7017 C   0  0  0  0  0  0  0  0  0  0  0  0
  150.5766  133.3971  157.2184 N   0  0  0  0  0  0  0  0  0  0  0  0
  147.9610  135.4329  156.0777 C   0  0  0  0  0  0  0  0  0  0  0  0
  147.0348  134.4111  156.7226 C   0  0  0  0  0  0  0  0  0  0  0  0
  145.4395  136.9779  156.3203 H   0  0  0  0  0  0  0  0  0  0  0  0
  145.3571  135.9125  154.9154 H   0  0  0  0  0  0  0  0  0  0  0  0
  145.6010  137.6399  154.6972 H   0  0  0  0  0  0  0  0  0  0  0  0
  151.2134  138.3165  154.1376 H   0  0  0  0  0  0  0  0  0  0  0  0
  149.8847  138.3616  153.0507 H   0  0  0  0  0  0  0  0  0  0  0  0
  148.6678  139.8579  154.8043 H   0  0  0  0  0  0  0  0  0  0  0  0
  149.7299  140.2756  152.6864 H   0  0  0  0  0  0  0  0  0  0  0  0
  149.4365  142.2812  155.8409 H   0  0  0  0  0  0  0  0  0  0  0  0
  150.5460  143.0937  157.8966 H   0  0  0  0  0  0  0  0  0  0  0  0
  152.3515  141.0065  160.2183 H   0  0  0  0  0  0  0  0  0  0  0  0
  153.4494  141.9341  159.2342 H   0  0  0  0  0  0  0  0  0  0  0  0
  150.7028  143.0209  159.9394 H   0  0  0  0  0  0  0  0  0  0  0  0
  153.2952  144.4336  159.1698 H   0  0  0  0  0  0  0  0  0  0  0  0
  151.7564  145.2188  159.5130 H   0  0  0  0  0  0  0  0  0  0  0  0
  151.9104  144.1657  158.1134 H   0  0  0  0  0  0  0  0  0  0  0  0
  153.2234  143.3780  161.6337 H   0  0  0  0  0  0  0  0  0  0  0  0
  151.7596  142.5284  162.1238 H   0  0  0  0  0  0  0  0  0  0  0  0
  151.7150  144.2614  161.8523 H   0  0  0  0  0  0  0  0  0  0  0  0
  152.7191  139.3776  158.1942 H   0  0  0  0  0  0  0  0  0  0  0  0
  151.6127  138.5629  156.1410 H   0  0  0  0  0  0  0  0  0  0  0  0
  147.5824  133.6566  157.2866 H   0  0  0  0  0  0  0  0  0  0  0  0
  146.4504  133.8946  155.9605 H   0  0  0  0  0  0  0  0  0  0  0  0
  146.3462  134.8963  157.4151 H   0  0  0  0  0  0  0  0  0  0  0  0
  1  2  1  0  0  0  0
  1 25  1  0  0  0  0
  1 26  1  0  0  0  0
  1 27  1  0  0  0  0
  2 23  1  0  0  0  0
  2  3  2  0  0  0  0
  3  4  1  0  0  0  0
  4  5  1  0  0  0  0
  4 18  1  0  0  0  0
  5  6  1  0  0  0  0
  5 28  1  0  0  0  0
  5 29  1  0  0  0  0
  6  7  1  0  0  0  0
  6  8  1  0  0  0  0
  6 30  1  0  0  0  0
  7 31  1  0  0  0  0
  8 17  1  0  0  0  0
  8  9  2  0  0  0  0
  9 10  1  0  0  0  0
  9 32  1  0  0  0  0
 10 11  2  0  0  0  0
 10 33  1  0  0  0  0
 11 12  1  0  0  0  0
 11 16  1  0  0  0  0
 12 13  1  0  0  0  0
 12 34  1  0  0  0  0
 12 35  1  0  0  0  0
 13 14  1  0  0  0  0
 13 15  1  0  0  0  0
 13 36  1  0  0  0  0
 14 37  1  0  0  0  0
 14 38  1  0  0  0  0
 14 39  1  0  0  0  0
 15 40  1  0  0  0  0
 15 41  1  0  0  0  0
 15 42  1  0  0  0  0
 16 17  2  0  0  0  0
 16 43  1  0  0  0  0
 17 44  1  0  0  0  0
 18 19  2  0  0  0  0
 18 20  1  0  0  0  0
 20 21  1  0  0  0  0
 20 23  2  0  0  0  0
 21 22  3  0  0  0  0
 23 24  1  0  0  0  0
 24 45  1  0  0  0  0
 24 46  1  0  0  0  0
 24 47  1  0  0  0  0
M  END
> <s_m_source_file>
AV-unprocessed.smi

> <i_m_source_file_index>
1674

> <i_lp_mmshare_version>
43012

> <i_f3d_flags>
0

> <s_epik_input>
TiNDYyhjMVtDSDNdKWMoPU8pbihuYzFbQ0gzXSlbQ0gyXVtDQEhdKFtPSF0pYzJbY0hdW2NIXWMoW2NIXVtjSF0yKVtDSDJdW0NIXShbQ0gzXSlbQ0gzXQ==

> <s_epik_cmdline>
J2VwaWtfcHl0aG9uJywgJy1waCcsICc3LjAnLCAnLXRuJywgJzgnLCAnLW1hJywgJzIwMCcsICctbWV0YWxfYmluZGluZycsICctaW1hZScsICc8aW5maWxlLm1hZT4nLCAnLW9tYWUnLCAnPG91dGZpbGUubWFlPic=

> <r_lp_tautomer_probability>
1

> <r_epik_Ionization_Penalty>
4.60566e-08

> <r_epik_Ionization_Penalty_Charging>
1.40848e-10

> <r_epik_Ionization_Penalty_Neutral>
4.59158e-08

> <r_epik_State_Penalty>
-0

> <r_epik_Charging_Adjusted_Penalty>
1.40848e-10

> <i_epik_Tot_Q>
0

> <i_epik_Tot_abs_Q>
0

> <r_epik_Metal_State_Penalty>
-0

> <b_epik_Metal_Only>
0

> <s_lp_Force_Field>
OPLS_2005

> <r_lp_Energy>
29.2193

> <b_lp_Chiralities_Consistent>
1

> <s_lp_Variant>
AV-unprocessed.smi:1674-1

> <Gold.Version>
5.8.1

> <Gold.Id.Protein>
6NUR|6NUR_protein|mol2

> <Gold.PLP.Fitness>
51.3392

> <Gold.PLP.PLP>
-42.3677

> <Gold.PLP.part.hbond>
-4.6139

> <Gold.PLP.part.metal>
0.0000

> <Gold.PLP.part.buried>
-4.7343

> <Gold.PLP.part.nonpolar>
-34.9828

> <Gold.PLP.part.repulsive>
0.1914

> <Gold.PLP.ligand.clash>
0.0000

> <Gold.PLP.ligand.torsion>
0.5844

> <Gold.PLP.Chemscore.Hbond>
3.3376

> <Gold.PLP.Chemscore.CHOScore>
0.0000

> <Gold.PLP.Chemscore.Metal>
0.0000

> <Gold.Chemscore.Hbonds>
donor molecule, donor type, donor heavy atom, donor atom, acceptor molecule, acceptor atom, score
      L1  H     7    31       P1  7957  1.00
      P1  H  6896  6907       L1    22  0.90
      P1  H  7989  7998       L1     7  0.30
      P1  H  8011  8017       L1     7  0.30
      P1  H 10752 10765       L1    19  1.00

> <Gold.PLP.Chemscore.Internal.Correction>
0.1276

> <Gold.Rescore>
     Score         DG    S(hbond)    S(metal)    S(lipo)     H(rot)  DE(clash)    DE(int)     intcor
     21.13     -21.62       2.66        0.00     108.47       2.13       0.08       0.41       ----

> <Gold.Chemscore.Fitness>
21.1262

> <Gold.Chemscore.DG>
-21.6183

> <Gold.Chemscore.ZeroCoef>
-5.4800

> <Gold.Chemscore.Hbond>
2.6645

> <Gold.Chemscore.Metal>
0.0000

> <Gold.Chemscore.Lipo>
108.4738

> <Gold.Chemscore.Internal_Hbond>
0.0000

> <Gold.Chemscore.DEClash>
0.0786

> <Gold.Chemscore.DEInternal>
0.4135

> <Gold.Chemscore.Rot>
2.1299

> <Gold.Chemscore.Internal.Correction>
   9.000000E+99

> <Gold.Chemscore.Hbonds>
donor molecule, donor type, donor heavy atom, donor atom, acceptor molecule, acceptor atom, score
      L1  H     7    31       P1  7957  0.93
      P1  H  6896  6907       L1    22  0.79
      P1  H  7989  7998       L1     7  0.01
      P1  H 10752 10765       L1    19  1.00

> <Gold.Chemscore.Hbond.Weighted>
-8.8995

> <Gold.Chemscore.Metal.Weighted>
-0.0000

> <Gold.Chemscore.Lipo.Weighted>
-12.6914

> <Gold.Chemscore.Internal_Hbond.Weighted>
0.0000

> <Gold.Chemscore.DEClash.Weighted>
0.0786

> <Gold.Chemscore.DEInternal.Weighted>
0.4135

> <Gold.Chemscore.Rot.Weighted>
5.4526

> <Gold.Chemscore.Internal.Correction.Weighted>
   9.000000E+99

> <Gold.Protein.RotatedTorsions>
[ 6907 6896 6895 6894 ] final -138.20 input  -60.11 | X-H torsion
[ 7974 7965 7964 7962 ] final  -65.14 input  175.53 | X-H torsion
[ 8008 7997 7996 7995 ] final   30.74 input   59.86 | X-H torsion
[ 10167 10162 10161 10158 ] final  102.73 input  -65.29 | X-H torsion
[ 10718 10713 10712 10709 ] final  -57.29 input   66.30 | X-H torsion
[ 10763 10752 10751 10750 ] final -176.61 input  -60.55 | X-H torsion
[ 11005 11000 10999 10996 ] final   14.34 input  -57.11 | X-H torsion

> <Gold.Protein.ActiveResidues>
 VAL166  LYS551  ARG553  GLY616  TRP617  ASP618  TYR619  PRO620  LYS621  CYS622 
 ASP623  PHE694  ASN695  SER759  ASP760  ASP761  ALA762  ILE779  LEU786  VAL792 
 PHE793  MET794  SER795  GLU796  ALA797  LYS798  CYS799  TRP800  GLU811  SER814 

> <Gold.Protein.RotatedAtoms>
  151.0320  133.5782  159.2659 H   0  0  0  0  0  0  0  0  0  0  0  0  # atno 6907 bound_to 6896
  151.2860  135.0727  159.9196 H   0  0  0  0  0  0  0  0  0  0  0  0  # atno 6908 bound_to 6896
  152.5347  134.0027  159.7956 H   0  0  0  0  0  0  0  0  0  0  0  0  # atno 6909 bound_to 6896
  145.7580  140.8876  143.0445 H   0  0  0  0  0  0  0  0  0  0  0  0  # atno 7974 bound_to 7965
  155.0952  140.3224  155.4562 H   0  0  0  0  0  0  0  0  0  0  0  0  # atno 8008 bound_to 7997
  156.2732  140.2071  156.6025 H   0  0  0  0  0  0  0  0  0  0  0  0  # atno 8009 bound_to 7997
  154.6872  140.0520  157.0314 H   0  0  0  0  0  0  0  0  0  0  0  0  # atno 8010 bound_to 7997
  139.7324  144.7032  151.0701 H   0  0  0  0  0  0  0  0  0  0  0  0  # atno 10167 bound_to 10162
  156.1222  130.4165  150.0421 H   0  0  0  0  0  0  0  0  0  0  0  0  # atno 10718 bound_to 10713
  154.5703  135.2827  155.0834 H   0  0  0  0  0  0  0  0  0  0  0  0  # atno 10763 bound_to 10752
  154.2209  135.6391  153.5148 H   0  0  0  0  0  0  0  0  0  0  0  0  # atno 10764 bound_to 10752
  153.0055  135.5514  154.6324 H   0  0  0  0  0  0  0  0  0  0  0  0  # atno 10765 bound_to 10752
  140.4706  134.1035  155.7732 H   0  0  0  0  0  0  0  0  0  0  0  0  # atno 11005 bound_to 11000
  144.6836  139.9683  143.7481 LP  0  0  0  0  0  0  0  0  0  0  0  0  # atno 17320 bound_to 7965
  146.0292  139.3320  143.0765 LP  0  0  0  0  0  0  0  0  0  0  0  0  # atno 17321 bound_to 7965
  140.7773  143.5026  150.9752 LP  0  0  0  0  0  0  0  0  0  0  0  0  # atno 17342 bound_to 10162
  139.8714  143.7187  152.3166 LP  0  0  0  0  0  0  0  0  0  0  0  0  # atno 17343 bound_to 10162
  156.8356  130.9407  151.3635 LP  0  0  0  0  0  0  0  0  0  0  0  0  # atno 17370 bound_to 10713
  157.6405  130.8802  149.9439 LP  0  0  0  0  0  0  0  0  0  0  0  0  # atno 17371 bound_to 10713
  141.1579  133.8849  157.1928 LP  0  0  0  0  0  0  0  0  0  0  0  0  # atno 17394 bound_to 11000
  139.9888  135.0072  156.9925 LP  0  0  0  0  0  0  0  0  0  0  0  0  # atno 17395 bound_to 11000

$$$$
