AV-unprocessed.smi:2734|AV-procd|sdf|10540|dock8
  -GOLD-   2272014583D 1   1.00000     0.00000
 Structure written by MMmdl.
 41 43  0  0  0  0  0  0  0  0  2 V2000
  151.8698  144.6018  160.6005 C   0  0  0  0  0  0  0  0  0  0  0  0
  151.7615  143.4773  159.5848 C   0  0  0  0  0  0  0  0  0  0  0  0
  151.0112  143.7010  158.4085 C   0  0  0  0  0  0  0  0  0  0  0  0
  150.9268  142.6522  157.5004 C   0  0  0  0  0  0  0  0  0  0  0  0
  150.2696  142.5577  156.2721 N   0  3  0  0  0  0  0  0  0  0  0  0
  150.4685  141.3185  155.7441 C   0  0  0  0  0  0  0  0  0  0  0  0
  151.2432  140.6194  156.6170 N   0  0  0  0  0  0  0  0  0  0  0  0
  151.7373  139.2379  156.5288 C   0  0  0  0  0  0  0  0  0  0  0  0
  151.4774  138.5900  155.1534 C   0  0  1  0  0  0  0  0  0  0  0  0
  152.4748  137.6119  154.9442 O   0  0  0  0  0  0  0  0  0  0  0  0
  150.0884  137.9386  155.0225 C   0  0  0  0  0  0  0  0  0  0  0  0
  150.0642  136.2220  155.6204 S   0  0  0  0  0  0  0  0  0  0  0  0
  150.3266  136.5104  157.3438 C   0  0  0  0  0  0  0  0  0  0  0  0
  151.4328  136.2469  158.0313 N   0  0  0  0  0  0  0  0  0  0  0  0
  151.1327  136.6542  159.3170 N   0  0  0  0  0  0  0  0  0  0  0  0
  149.9236  137.1296  159.3907 N   0  0  0  0  0  0  0  0  0  0  0  0
  149.3969  137.0455  158.1448 N   0  0  0  0  0  0  0  0  0  0  0  0
  148.0471  137.4964  157.8696 C   0  0  0  0  0  0  0  0  0  0  0  0
  151.5589  141.4140  157.7266 C   0  0  0  0  0  0  0  0  0  0  0  0
  152.3055  141.1789  158.8793 C   0  0  0  0  0  0  0  0  0  0  0  0
  152.4022  142.2325  159.8159 C   0  0  0  0  0  0  0  0  0  0  0  0
  153.2080  142.0016  161.0830 C   0  0  0  0  0  0  0  0  0  0  0  0
  151.2369  145.4469  160.3285 H   0  0  0  0  0  0  0  0  0  0  0  0
  152.8978  144.9595  160.6639 H   0  0  0  0  0  0  0  0  0  0  0  0
  151.5596  144.2610  161.5886 H   0  0  0  0  0  0  0  0  0  0  0  0
  150.5215  144.6465  158.2250 H   0  0  0  0  0  0  0  0  0  0  0  0
  150.0786  140.9545  154.8043 H   0  0  0  0  0  0  0  0  0  0  0  0
  152.8095  139.2690  156.7273 H   0  0  0  0  0  0  0  0  0  0  0  0
  151.2979  138.6471  157.3327 H   0  0  0  0  0  0  0  0  0  0  0  0
  151.5869  139.3499  154.3788 H   0  0  0  0  0  0  0  0  0  0  0  0
  153.2350  137.8444  155.4558 H   0  0  0  0  0  0  0  0  0  0  0  0
  149.3452  138.5204  155.5689 H   0  0  0  0  0  0  0  0  0  0  0  0
  149.7834  137.9217  153.9766 H   0  0  0  0  0  0  0  0  0  0  0  0
  148.0732  138.3041  157.1379 H   0  0  0  0  0  0  0  0  0  0  0  0
  147.5706  137.8597  158.7810 H   0  0  0  0  0  0  0  0  0  0  0  0
  147.4596  136.6701  157.4687 H   0  0  0  0  0  0  0  0  0  0  0  0
  152.7893  140.2311  159.0618 H   0  0  0  0  0  0  0  0  0  0  0  0
  153.7062  141.0318  161.0682 H   0  0  0  0  0  0  0  0  0  0  0  0
  152.5583  142.0300  161.9580 H   0  0  0  0  0  0  0  0  0  0  0  0
  153.9762  142.7666  161.1958 H   0  0  0  0  0  0  0  0  0  0  0  0
  149.7227  143.2829  155.8259 H   0  0  0  0  0  0  0  0  0  0  0  0
  1  2  1  0  0  0  0
  1 23  1  0  0  0  0
  1 24  1  0  0  0  0
  1 25  1  0  0  0  0
  2 21  1  0  0  0  0
  2  3  2  0  0  0  0
  3  4  1  0  0  0  0
  3 26  1  0  0  0  0
  4 19  2  0  0  0  0
  4  5  1  0  0  0  0
  5  6  2  0  0  0  0
  5 41  1  0  0  0  0
  6  7  1  0  0  0  0
  6 27  1  0  0  0  0
  7  8  1  0  0  0  0
  7 19  1  0  0  0  0
  8  9  1  0  0  0  0
  8 28  1  0  0  0  0
  8 29  1  0  0  0  0
  9 10  1  0  0  0  0
  9 11  1  0  0  0  0
  9 30  1  0  0  0  0
 10 31  1  0  0  0  0
 11 12  1  0  0  0  0
 11 32  1  0  0  0  0
 11 33  1  0  0  0  0
 12 13  1  0  0  0  0
 13 17  1  0  0  0  0
 13 14  2  0  0  0  0
 14 15  1  0  0  0  0
 15 16  2  0  0  0  0
 16 17  1  0  0  0  0
 17 18  1  0  0  0  0
 18 34  1  0  0  0  0
 18 35  1  0  0  0  0
 18 36  1  0  0  0  0
 19 20  1  0  0  0  0
 20 21  2  0  0  0  0
 20 37  1  0  0  0  0
 21 22  1  0  0  0  0
 22 38  1  0  0  0  0
 22 39  1  0  0  0  0
 22 40  1  0  0  0  0
M  CHG  1   5   1
M  END
> <s_m_source_file>
AV-unprocessed.smi

> <i_m_source_file_index>
2734

> <i_lp_mmshare_version>
43012

> <i_f3d_flags>
0

> <s_epik_input>
W0NIM11jKFtjSF0xKWMoW0NIM10pW2NIXWMoYzEyKW4oW2NIXW4yKVtDSDJdW0NASF0oW09IXSlbQ0gyXVNjM25ubm4zW0NIM10=

> <s_epik_cmdline>
J2VwaWtfcHl0aG9uJywgJy1waCcsICc3LjAnLCAnLXRuJywgJzgnLCAnLW1hJywgJzIwMCcsICctbWV0YWxfYmluZGluZycsICctaW1hZScsICc8aW5maWxlLm1hZT4nLCAnLW9tYWUnLCAnPG91dGZpbGUubWFlPic=

> <r_lp_tautomer_probability>
1

> <r_epik_Ionization_Penalty>
1.07429

> <r_epik_Ionization_Penalty_Charging>
1.07429

> <r_epik_Ionization_Penalty_Neutral>
3.30514e-06

> <r_epik_State_Penalty>
1.12915

> <r_epik_Charging_Adjusted_Penalty>
2.20344

> <i_epik_Tot_Q>
1

> <i_epik_Tot_abs_Q>
1

> <r_epik_Metal_State_Penalty>
1.22002

> <b_epik_Metal_Only>
0

> <s_lp_Force_Field>
OPLS_2005

> <r_lp_Energy>
15.3116

> <b_lp_Chiralities_Consistent>
1

> <s_lp_Variant>
AV-unprocessed.smi:2734-4

> <Gold.Version>
5.8.1

> <Gold.Id.Protein>
6NUR|6NUR_protein|mol2

> <Gold.PLP.Fitness>
53.8744

> <Gold.PLP.PLP>
-45.2378

> <Gold.PLP.part.hbond>
-4.3270

> <Gold.PLP.part.metal>
0.0000

> <Gold.PLP.part.buried>
-7.3856

> <Gold.PLP.part.nonpolar>
-33.7779

> <Gold.PLP.part.repulsive>
0.1079

> <Gold.PLP.ligand.clash>
0.0000

> <Gold.PLP.ligand.torsion>
0.8284

> <Gold.PLP.Chemscore.Hbond>
3.4128

> <Gold.PLP.Chemscore.CHOScore>
0.0000

> <Gold.PLP.Chemscore.Metal>
0.0000

> <Gold.Chemscore.Hbonds>
donor molecule, donor type, donor heavy atom, donor atom, acceptor molecule, acceptor atom, score
      L1  H     5    41       P1  8028  2.00
      P1  H  6896  6908       L1    15  0.65
      P1  H 10752 10765       L1    10  0.47

> <Gold.PLP.Chemscore.Internal.Correction>
0.0550

> <Gold.Rescore>
     Score         DG    S(hbond)    S(metal)    S(lipo)     H(rot)  DE(clash)    DE(int)     intcor
     15.75     -16.54       1.79        0.00     107.39       2.92       0.01       0.78       ----

> <Gold.Chemscore.Fitness>
15.7471

> <Gold.Chemscore.DG>
-16.5411

> <Gold.Chemscore.ZeroCoef>
-5.4800

> <Gold.Chemscore.Hbond>
1.7850

> <Gold.Chemscore.Metal>
0.0000

> <Gold.Chemscore.Lipo>
107.3941

> <Gold.Chemscore.Internal_Hbond>
0.0000

> <Gold.Chemscore.DEClash>
0.0110

> <Gold.Chemscore.DEInternal>
0.7829

> <Gold.Chemscore.Rot>
2.9164

> <Gold.Chemscore.Internal.Correction>
   9.000000E+99

> <Gold.Chemscore.Hbonds>
donor molecule, donor type, donor heavy atom, donor atom, acceptor molecule, acceptor atom, score
      L1  H     5    41       P1  8028  0.99
      P1  H  6896  6908       L1    15  0.05
      P1  H 10752 10765       L1    10  0.16

> <Gold.Chemscore.Hbond.Weighted>
-5.9619

> <Gold.Chemscore.Metal.Weighted>
-0.0000

> <Gold.Chemscore.Lipo.Weighted>
-12.5651

> <Gold.Chemscore.Internal_Hbond.Weighted>
0.0000

> <Gold.Chemscore.DEClash.Weighted>
0.0110

> <Gold.Chemscore.DEInternal.Weighted>
0.7829

> <Gold.Chemscore.Rot.Weighted>
7.4660

> <Gold.Chemscore.Internal.Correction.Weighted>
   9.000000E+99

> <Gold.Protein.RotatedTorsions>
[ 6907 6896 6895 6894 ] final -124.00 input  -60.11 | X-H torsion
[ 7974 7965 7964 7962 ] final -151.10 input  175.53 | X-H torsion
[ 8008 7997 7996 7995 ] final   29.39 input   59.86 | X-H torsion
[ 10167 10162 10161 10158 ] final  -55.87 input  -65.29 | X-H torsion
[ 10718 10713 10712 10709 ] final  -30.48 input   66.30 | X-H torsion
[ 10763 10752 10751 10750 ] final  161.35 input  -60.55 | X-H torsion
[ 11005 11000 10999 10996 ] final  106.09 input  -57.11 | X-H torsion

> <Gold.Protein.ActiveResidues>
 VAL166  LYS551  ARG553  GLY616  TRP617  ASP618  TYR619  PRO620  LYS621  CYS622 
 ASP623  PHE694  ASN695  SER759  ASP760  ASP761  ALA762  ILE779  LEU786  VAL792 
 PHE793  MET794  SER795  GLU796  ALA797  LYS798  CYS799  TRP800  GLU811  SER814 

> <Gold.Protein.RotatedAtoms>
  150.8726  133.7484  159.2956 H   0  0  0  0  0  0  0  0  0  0  0  0  # atno 6907 bound_to 6896
  151.5091  135.1063  159.9859 H   0  0  0  0  0  0  0  0  0  0  0  0  # atno 6908 bound_to 6896
  152.4705  133.7974  159.6990 H   0  0  0  0  0  0  0  0  0  0  0  0  # atno 6909 bound_to 6896
  144.7869  140.4843  143.5800 H   0  0  0  0  0  0  0  0  0  0  0  0  # atno 7974 bound_to 7965
  155.0737  140.3203  155.4622 H   0  0  0  0  0  0  0  0  0  0  0  0  # atno 8008 bound_to 7997
  156.2784  140.2107  156.5810 H   0  0  0  0  0  0  0  0  0  0  0  0  # atno 8009 bound_to 7997
  154.7034  140.0505  157.0468 H   0  0  0  0  0  0  0  0  0  0  0  0  # atno 8010 bound_to 7997
  140.6350  143.2477  151.5142 H   0  0  0  0  0  0  0  0  0  0  0  0  # atno 10167 bound_to 10162
  156.3992  130.4387  149.7335 H   0  0  0  0  0  0  0  0  0  0  0  0  # atno 10718 bound_to 10713
  154.2615  135.2768  155.2776 H   0  0  0  0  0  0  0  0  0  0  0  0  # atno 10763 bound_to 10752
  154.5379  135.5711  153.6818 H   0  0  0  0  0  0  0  0  0  0  0  0  # atno 10764 bound_to 10752
  152.9961  135.6244  154.2766 H   0  0  0  0  0  0  0  0  0  0  0  0  # atno 10765 bound_to 10752
  139.8810  134.9358  156.5614 H   0  0  0  0  0  0  0  0  0  0  0  0  # atno 11005 bound_to 11000
  145.5898  139.1495  143.3189 LP  0  0  0  0  0  0  0  0  0  0  0  0  # atno 17320 bound_to 7965
  146.2105  140.6024  142.9062 LP  0  0  0  0  0  0  0  0  0  0  0  0  # atno 17321 bound_to 7965
  139.5561  144.2273  152.1614 LP  0  0  0  0  0  0  0  0  0  0  0  0  # atno 17342 bound_to 10162
  140.1527  144.5100  150.6678 LP  0  0  0  0  0  0  0  0  0  0  0  0  # atno 17343 bound_to 10162
  156.4358  130.7837  151.2857 LP  0  0  0  0  0  0  0  0  0  0  0  0  # atno 17370 bound_to 10713
  157.7503  131.0140  150.3447 LP  0  0  0  0  0  0  0  0  0  0  0  0  # atno 17371 bound_to 10713
  140.8166  133.8386  155.8858 LP  0  0  0  0  0  0  0  0  0  0  0  0  # atno 17394 bound_to 11000
  140.9457  134.1844  157.4765 LP  0  0  0  0  0  0  0  0  0  0  0  0  # atno 17395 bound_to 11000

$$$$
