AV-unprocessed.smi:271|AV-procd|sdf|2051|dock5
  -GOLD-   2262021283D 1   1.00000     0.00000
 Structure written by MMmdl.
 58 60  0  0  0  0  0  0  0  0  1 V2000
  152.1744  145.2256  157.7129 C   0  0  0  0  0  0  0  0  0  0  0  0
  151.4011  144.5228  158.8389 C   0  0  0  0  0  0  0  0  0  0  0  0
  150.6537  145.5573  159.6978 C   0  0  0  0  0  0  0  0  0  0  0  0
  152.3448  143.6437  159.6820 C   0  0  0  0  0  0  0  0  0  0  0  0
  151.8164  142.2106  159.9140 C   0  0  0  0  0  0  0  0  0  0  0  0
  152.3987  141.2127  159.0146 N   0  0  0  0  0  0  0  0  0  0  0  0
  151.7383  141.0948  157.7169 C   0  0  0  0  0  0  0  0  0  0  0  0
  152.4943  140.1925  156.7286 C   0  0  0  0  0  0  0  0  0  0  0  0
  152.0004  140.3358  155.3514 C   0  0  0  0  0  0  0  0  0  0  0  0
  151.6116  140.4481  154.2674 N   0  0  0  0  0  0  0  0  0  0  0  0
  152.6177  140.0138  159.6014 C   0  0  0  0  0  0  0  0  0  0  0  0
  151.9209  138.9532  159.1242 N   0  0  0  0  0  0  0  0  0  0  0  0
  152.1372  137.7331  159.6247 C   0  0  0  0  0  0  0  0  0  0  0  0
  152.9973  137.3607  160.5752 N   0  0  0  0  0  0  0  0  0  0  0  0
  153.6934  138.4286  161.0604 C   0  0  0  0  0  0  0  0  0  0  0  0
  153.5549  139.7827  160.6477 C   0  0  0  0  0  0  0  0  0  0  0  0
  154.4152  140.5928  161.3789 N   0  0  0  0  0  0  0  0  0  0  0  0
  155.0457  139.7615  162.1623 C   0  0  0  0  0  0  0  0  0  0  0  0
  154.6991  138.4375  162.0104 N   0  0  0  0  0  0  0  0  0  0  0  0
  155.2670  137.3054  162.7185 C   0  0  0  0  0  0  0  0  0  0  0  0
  154.3006  136.6331  163.7308 C   0  0  2  0  0  0  0  0  0  0  0  0
  153.7233  137.7128  164.6755 C   0  0  0  0  0  0  0  0  0  0  0  0
  154.6080  138.0061  165.7382 O   0  0  0  0  0  0  0  0  0  0  0  0
  154.9056  135.4204  164.5013 C   0  0  1  0  0  0  0  0  0  0  0  0
  153.9799  134.7984  165.5360 C   0  0  0  0  0  0  0  0  0  0  0  0
  154.6187  133.4366  165.7635 C   0  0  0  0  0  0  0  0  0  0  0  0
  155.0467  133.0326  164.4729 O   0  0  0  0  0  0  0  0  0  0  0  0
  155.2419  134.1806  163.6522 C   0  0  0  0  0  0  0  0  0  0  0  0
  152.9383  145.8929  158.1135 H   0  0  0  0  0  0  0  0  0  0  0  0
  151.5069  145.8208  157.0890 H   0  0  0  0  0  0  0  0  0  0  0  0
  152.6702  144.5029  157.0640 H   0  0  0  0  0  0  0  0  0  0  0  0
  150.6611  143.8743  158.3681 H   0  0  0  0  0  0  0  0  0  0  0  0
  151.3491  146.2154  160.2201 H   0  0  0  0  0  0  0  0  0  0  0  0
  150.0211  145.0809  160.4459 H   0  0  0  0  0  0  0  0  0  0  0  0
  150.0065  146.1826  159.0824 H   0  0  0  0  0  0  0  0  0  0  0  0
  153.3126  143.5722  159.1837 H   0  0  0  0  0  0  0  0  0  0  0  0
  152.5308  144.1491  160.6306 H   0  0  0  0  0  0  0  0  0  0  0  0
  151.9797  141.9024  160.9457 H   0  0  0  0  0  0  0  0  0  0  0  0
  150.7356  142.2092  159.7687 H   0  0  0  0  0  0  0  0  0  0  0  0
  150.7214  140.7250  157.8553 H   0  0  0  0  0  0  0  0  0  0  0  0
  151.6469  142.0920  157.2849 H   0  0  0  0  0  0  0  0  0  0  0  0
  153.5573  140.4355  156.7276 H   0  0  0  0  0  0  0  0  0  0  0  0
  152.3990  139.1414  157.0006 H   0  0  0  0  0  0  0  0  0  0  0  0
  151.5449  136.9397  159.1934 H   0  0  0  0  0  0  0  0  0  0  0  0
  155.8056  140.0908  162.8559 H   0  0  0  0  0  0  0  0  0  0  0  0
  155.6054  136.5765  161.9812 H   0  0  0  0  0  0  0  0  0  0  0  0
  156.1612  137.6586  163.2334 H   0  0  0  0  0  0  0  0  0  0  0  0
  153.4484  136.2564  163.1641 H   0  0  0  0  0  0  0  0  0  0  0  0
  153.5255  138.6324  164.1241 H   0  0  0  0  0  0  0  0  0  0  0  0
  152.7656  137.4005  165.0916 H   0  0  0  0  0  0  0  0  0  0  0  0
  155.0677  137.2149  165.9740 H   0  0  0  0  0  0  0  0  0  0  0  0
  155.8124  135.7410  165.0169 H   0  0  0  0  0  0  0  0  0  0  0  0
  153.9079  135.3805  166.4553 H   0  0  0  0  0  0  0  0  0  0  0  0
  152.9756  134.6740  165.1279 H   0  0  0  0  0  0  0  0  0  0  0  0
  155.4886  133.5249  166.4158 H   0  0  0  0  0  0  0  0  0  0  0  0
  153.9315  132.7139  166.2036 H   0  0  0  0  0  0  0  0  0  0  0  0
  154.5769  134.0928  162.7925 H   0  0  0  0  0  0  0  0  0  0  0  0
  156.2673  134.1997  163.2859 H   0  0  0  0  0  0  0  0  0  0  0  0
  1  2  1  0  0  0  0
  1 29  1  0  0  0  0
  1 30  1  0  0  0  0
  1 31  1  0  0  0  0
  2  3  1  0  0  0  0
  2  4  1  0  0  0  0
  2 32  1  0  0  0  0
  3 33  1  0  0  0  0
  3 34  1  0  0  0  0
  3 35  1  0  0  0  0
  4  5  1  0  0  0  0
  4 36  1  0  0  0  0
  4 37  1  0  0  0  0
  5  6  1  0  0  0  0
  5 38  1  0  0  0  0
  5 39  1  0  0  0  0
  6  7  1  0  0  0  0
  6 11  1  0  0  0  0
  7  8  1  0  0  0  0
  7 40  1  0  0  0  0
  7 41  1  0  0  0  0
  8  9  1  0  0  0  0
  8 42  1  0  0  0  0
  8 43  1  0  0  0  0
  9 10  3  0  0  0  0
 11 16  1  0  0  0  0
 11 12  2  0  0  0  0
 12 13  1  0  0  0  0
 13 14  2  0  0  0  0
 13 44  1  0  0  0  0
 14 15  1  0  0  0  0
 15 19  1  0  0  0  0
 15 16  2  0  0  0  0
 16 17  1  0  0  0  0
 17 18  2  0  0  0  0
 18 19  1  0  0  0  0
 18 45  1  0  0  0  0
 19 20  1  0  0  0  0
 20 21  1  0  0  0  0
 20 46  1  0  0  0  0
 20 47  1  0  0  0  0
 21 22  1  0  0  0  0
 21 24  1  0  0  0  0
 21 48  1  0  0  0  0
 22 23  1  0  0  0  0
 22 49  1  0  0  0  0
 22 50  1  0  0  0  0
 23 51  1  0  0  0  0
 24 28  1  0  0  0  0
 24 25  1  0  0  0  0
 24 52  1  0  0  0  0
 25 26  1  0  0  0  0
 25 53  1  0  0  0  0
 25 54  1  0  0  0  0
 26 27  1  0  0  0  0
 26 55  1  0  0  0  0
 26 56  1  0  0  0  0
 27 28  1  0  0  0  0
 28 57  1  0  0  0  0
 28 58  1  0  0  0  0
M  END
> <s_m_source_file>
AV-unprocessed.smi

> <i_m_source_file_index>
271

> <i_lp_mmshare_version>
43012

> <i_f3d_flags>
0

> <s_epik_input>
W0NIM11bQ0hdKFtDSDNdKVtDSDJdW0NIMl1OKFtDSDJdW0NIMl1DI04pYyhuW2NIXW4xKWMoYzEyKW5bY0hdbjJbQ0gyXVtDQEhdKFtDSDJdW09IXSlbQ0BASF0zW0NIMl1bQ0gyXU9bQ0gyXTM=

> <s_epik_cmdline>
J2VwaWtfcHl0aG9uJywgJy1waCcsICc3LjAnLCAnLXRuJywgJzgnLCAnLW1hJywgJzIwMCcsICctbWV0YWxfYmluZGluZycsICctaW1hZScsICc8aW5maWxlLm1hZT4nLCAnLW9tYWUnLCAnPG91dGZpbGUubWFlPic=

> <r_lp_tautomer_probability>
1

> <r_epik_Ionization_Penalty>
0.000825874

> <r_epik_Ionization_Penalty_Charging>
0

> <r_epik_Ionization_Penalty_Neutral>
0.000825874

> <r_epik_State_Penalty>
0.000396768

> <r_epik_Charging_Adjusted_Penalty>
0.000396768

> <i_epik_Tot_Q>
0

> <i_epik_Tot_abs_Q>
0

> <r_epik_Metal_State_Penalty>
-0

> <b_epik_Metal_Only>
0

> <s_lp_Force_Field>
OPLS_2005

> <r_lp_Energy>
35.9661

> <b_lp_Chiralities_Consistent>
1

> <s_lp_Variant>
AV-unprocessed.smi:271-3

> <Gold.Version>
5.8.1

> <Gold.Id.Protein>
6NUR|6NUR_protein|mol2

> <Gold.PLP.Fitness>
58.4692

> <Gold.PLP.PLP>
-55.7749

> <Gold.PLP.part.hbond>
-2.6011

> <Gold.PLP.part.metal>
0.0000

> <Gold.PLP.part.buried>
-5.6471

> <Gold.PLP.part.nonpolar>
-47.5260

> <Gold.PLP.part.repulsive>
0.1132

> <Gold.PLP.ligand.clash>
0.0000

> <Gold.PLP.ligand.torsion>
1.9900

> <Gold.PLP.Chemscore.Hbond>
1.9440

> <Gold.PLP.Chemscore.CHOScore>
0.0000

> <Gold.PLP.Chemscore.Metal>
0.0000

> <Gold.PLP.Chemscore.Internal.Correction>
0.8422

> <Gold.Rescore>
     Score         DG    S(hbond)    S(metal)    S(lipo)     H(rot)  DE(clash)    DE(int)     intcor
     10.12     -15.03       1.17        0.00     130.65       3.77       1.47       3.44       ----

> <Gold.Chemscore.Fitness>
10.1220

> <Gold.Chemscore.DG>
-15.0289

> <Gold.Chemscore.ZeroCoef>
-5.4800

> <Gold.Chemscore.Hbond>
1.1707

> <Gold.Chemscore.Metal>
0.0000

> <Gold.Chemscore.Lipo>
130.6463

> <Gold.Chemscore.Internal_Hbond>
0.0000

> <Gold.Chemscore.DEClash>
1.4700

> <Gold.Chemscore.DEInternal>
3.4368

> <Gold.Chemscore.Rot>
3.7683

> <Gold.Chemscore.Internal.Correction>
   9.000000E+99

> <Gold.Chemscore.Hbond.Weighted>
-3.9100

> <Gold.Chemscore.Metal.Weighted>
-0.0000

> <Gold.Chemscore.Lipo.Weighted>
-15.2856

> <Gold.Chemscore.Internal_Hbond.Weighted>
0.0000

> <Gold.Chemscore.DEClash.Weighted>
1.4700

> <Gold.Chemscore.DEInternal.Weighted>
3.4368

> <Gold.Chemscore.Rot.Weighted>
9.6468

> <Gold.Chemscore.Internal.Correction.Weighted>
   9.000000E+99

> <Gold.Protein.RotatedTorsions>
[ 6907 6896 6895 6894 ] final   23.04 input  -60.11 | X-H torsion
[ 7974 7965 7964 7962 ] final  -88.21 input  175.53 | X-H torsion
[ 8008 7997 7996 7995 ] final -132.50 input   59.86 | X-H torsion
[ 10167 10162 10161 10158 ] final -161.53 input  -65.29 | X-H torsion
[ 10718 10713 10712 10709 ] final  155.12 input   66.30 | X-H torsion
[ 10763 10752 10751 10750 ] final  126.73 input  -60.55 | X-H torsion
[ 11005 11000 10999 10996 ] final  -59.54 input  -57.11 | X-H torsion

> <Gold.Protein.ActiveResidues>
 VAL166  LYS551  ARG553  GLY616  TRP617  ASP618  TYR619  PRO620  LYS621  CYS622 
 ASP623  PHE694  ASN695  SER759  ASP760  ASP761  ALA762  ILE779  LEU786  VAL792 
 PHE793  MET794  SER795  GLU796  ALA797  LYS798  CYS799  TRP800  GLU811  SER814 

> <Gold.Protein.RotatedAtoms>
  151.9363  135.0234  160.0532 H   0  0  0  0  0  0  0  0  0  0  0  0  # atno 6907 bound_to 6896
  152.2075  133.4882  159.5100 H   0  0  0  0  0  0  0  0  0  0  0  0  # atno 6908 bound_to 6896
  150.6968  134.1427  159.4153 H   0  0  0  0  0  0  0  0  0  0  0  0  # atno 6909 bound_to 6896
  145.4562  140.9561  143.1995 H   0  0  0  0  0  0  0  0  0  0  0  0  # atno 7974 bound_to 7965
  155.3299  140.0466  157.3042 H   0  0  0  0  0  0  0  0  0  0  0  0  # atno 8008 bound_to 7997
  154.5334  140.2264  155.8731 H   0  0  0  0  0  0  0  0  0  0  0  0  # atno 8009 bound_to 7997
  156.1811  140.3073  155.9156 H   0  0  0  0  0  0  0  0  0  0  0  0  # atno 8010 bound_to 7997
  139.6458  144.0174  152.2126 H   0  0  0  0  0  0  0  0  0  0  0  0  # atno 10167 bound_to 10162
  157.2226  131.0722  151.1903 H   0  0  0  0  0  0  0  0  0  0  0  0  # atno 10718 bound_to 10713
  153.6980  135.3288  155.3218 H   0  0  0  0  0  0  0  0  0  0  0  0  # atno 10763 bound_to 10752
  154.8421  135.4447  154.1440 H   0  0  0  0  0  0  0  0  0  0  0  0  # atno 10764 bound_to 10752
  153.2499  135.6980  153.7768 H   0  0  0  0  0  0  0  0  0  0  0  0  # atno 10765 bound_to 10752
  141.1252  133.6617  156.5087 H   0  0  0  0  0  0  0  0  0  0  0  0  # atno 11005 bound_to 11000
  144.8031  139.6103  143.7063 LP  0  0  0  0  0  0  0  0  0  0  0  0  # atno 17320 bound_to 7965
  146.2477  139.6132  142.9448 LP  0  0  0  0  0  0  0  0  0  0  0  0  # atno 17321 bound_to 7965
  139.9876  144.6384  150.7844 LP  0  0  0  0  0  0  0  0  0  0  0  0  # atno 17342 bound_to 10162
  140.7514  143.2972  151.3175 LP  0  0  0  0  0  0  0  0  0  0  0  0  # atno 17343 bound_to 10162
  157.3560  130.7107  149.6471 LP  0  0  0  0  0  0  0  0  0  0  0  0  # atno 17370 bound_to 10713
  155.9681  130.4239  150.4583 LP  0  0  0  0  0  0  0  0  0  0  0  0  # atno 17371 bound_to 10713
  140.4386  134.7036  157.4980 LP  0  0  0  0  0  0  0  0  0  0  0  0  # atno 17394 bound_to 11000
  140.0244  134.6499  155.9193 LP  0  0  0  0  0  0  0  0  0  0  0  0  # atno 17395 bound_to 11000

$$$$
