AV-unprocessed.smi:2731|AV-procd|sdf|10531|dock4
  -GOLD-   2272014573D 1   1.00000     0.00000
 Structure written by MMmdl.
 46 47  0  0  0  0  0  0  0  0  2 V2000
  149.0475  141.6746  155.0110 C   0  0  0  0  0  0  0  0  0  0  0  0
  150.0073  141.8329  156.1413 C   0  0  0  0  0  0  0  0  0  0  0  0
  150.2877  143.0164  156.7495 N   0  3  0  0  0  0  0  0  0  0  0  0
  151.2015  142.8378  157.7140 N   0  0  0  0  0  0  0  0  0  0  0  0
  151.6448  143.9954  158.4916 C   0  0  0  0  0  0  0  0  0  0  0  0
  151.5594  141.5237  157.7851 C   0  0  0  0  0  0  0  0  0  0  0  0
  152.5640  140.9589  158.7364 C   0  0  0  0  0  0  0  0  0  0  0  0
  150.8118  140.8866  156.7861 C   0  0  0  0  0  0  0  0  0  0  0  0
  150.8809  139.4238  156.4367 C   0  0  0  0  0  0  0  0  0  0  0  0
  150.9834  138.4947  157.6633 C   0  0  0  0  0  0  0  0  0  0  0  0
  149.6734  138.0773  158.1586 N   0  0  0  0  0  0  0  0  0  0  0  0
  149.4621  137.1720  159.1269 C   0  0  0  0  0  0  0  0  0  0  0  0
  150.3739  136.5582  159.6839 O   0  0  0  0  0  0  0  0  0  0  0  0
  147.9993  136.9485  159.5317 C   0  0  0  0  0  0  0  0  0  0  0  0
  147.8527  135.9339  160.5840 N   0  0  0  0  0  0  0  0  0  0  0  0
  148.0240  134.5297  160.1901 C   0  0  0  0  0  0  0  0  0  0  0  0
  146.8666  133.6704  160.7267 C   0  0  0  0  0  0  0  0  0  0  0  0
  146.6488  133.8572  162.2422 C   0  0  0  0  0  0  0  0  0  0  0  0
  147.3717  135.0831  162.8437 C   0  0  0  0  0  0  0  0  0  0  0  0
  147.5068  136.2475  161.8540 C   0  0  0  0  0  0  0  0  0  0  0  0
  147.3117  137.3989  162.2428 O   0  0  0  0  0  0  0  0  0  0  0  0
  149.5908  141.5652  154.0724 H   0  0  0  0  0  0  0  0  0  0  0  0
  148.3954  142.5452  154.9361 H   0  0  0  0  0  0  0  0  0  0  0  0
  148.4282  140.7906  155.1609 H   0  0  0  0  0  0  0  0  0  0  0  0
  151.1114  144.0100  159.4422 H   0  0  0  0  0  0  0  0  0  0  0  0
  151.4416  144.9156  157.9422 H   0  0  0  0  0  0  0  0  0  0  0  0
  152.7167  143.9180  158.6746 H   0  0  0  0  0  0  0  0  0  0  0  0
  153.5081  140.7839  158.2207 H   0  0  0  0  0  0  0  0  0  0  0  0
  152.2098  140.0128  159.1445 H   0  0  0  0  0  0  0  0  0  0  0  0
  152.7428  141.6402  159.5681 H   0  0  0  0  0  0  0  0  0  0  0  0
  150.0073  139.1360  155.8519 H   0  0  0  0  0  0  0  0  0  0  0  0
  151.7343  139.2407  155.7832 H   0  0  0  0  0  0  0  0  0  0  0  0
  151.5474  137.6006  157.3969 H   0  0  0  0  0  0  0  0  0  0  0  0
  151.5522  138.9821  158.4569 H   0  0  0  0  0  0  0  0  0  0  0  0
  148.8676  138.5252  157.7465 H   0  0  0  0  0  0  0  0  0  0  0  0
  147.5749  137.8905  159.8824 H   0  0  0  0  0  0  0  0  0  0  0  0
  147.4255  136.6806  158.6431 H   0  0  0  0  0  0  0  0  0  0  0  0
  148.0751  134.4329  159.1052 H   0  0  0  0  0  0  0  0  0  0  0  0
  148.9766  134.1670  160.5789 H   0  0  0  0  0  0  0  0  0  0  0  0
  145.9538  133.9560  160.2016 H   0  0  0  0  0  0  0  0  0  0  0  0
  147.0323  132.6183  160.4943 H   0  0  0  0  0  0  0  0  0  0  0  0
  145.5793  133.9249  162.4445 H   0  0  0  0  0  0  0  0  0  0  0  0
  146.9913  132.9643  162.7661 H   0  0  0  0  0  0  0  0  0  0  0  0
  146.8635  135.4139  163.7502 H   0  0  0  0  0  0  0  0  0  0  0  0
  148.3808  134.7978  163.1436 H   0  0  0  0  0  0  0  0  0  0  0  0
  149.9073  143.9333  156.5520 H   0  0  0  0  0  0  0  0  0  0  0  0
  1  2  1  0  0  0  0
  1 22  1  0  0  0  0
  1 23  1  0  0  0  0
  1 24  1  0  0  0  0
  2  8  1  0  0  0  0
  2  3  2  0  0  0  0
  3  4  1  0  0  0  0
  3 46  1  0  0  0  0
  4  5  1  0  0  0  0
  4  6  1  0  0  0  0
  5 25  1  0  0  0  0
  5 26  1  0  0  0  0
  5 27  1  0  0  0  0
  6  7  1  0  0  0  0
  6  8  2  0  0  0  0
  7 28  1  0  0  0  0
  7 29  1  0  0  0  0
  7 30  1  0  0  0  0
  8  9  1  0  0  0  0
  9 10  1  0  0  0  0
  9 31  1  0  0  0  0
  9 32  1  0  0  0  0
 10 11  1  0  0  0  0
 10 33  1  0  0  0  0
 10 34  1  0  0  0  0
 11 12  1  0  0  0  0
 11 35  1  0  0  0  0
 12 13  2  0  0  0  0
 12 14  1  0  0  0  0
 14 15  1  0  0  0  0
 14 36  1  0  0  0  0
 14 37  1  0  0  0  0
 15 20  1  0  0  0  0
 15 16  1  0  0  0  0
 16 17  1  0  0  0  0
 16 38  1  0  0  0  0
 16 39  1  0  0  0  0
 17 18  1  0  0  0  0
 17 40  1  0  0  0  0
 17 41  1  0  0  0  0
 18 19  1  0  0  0  0
 18 42  1  0  0  0  0
 18 43  1  0  0  0  0
 19 20  1  0  0  0  0
 19 44  1  0  0  0  0
 19 45  1  0  0  0  0
 20 21  2  0  0  0  0
M  CHG  1   3   1
M  END
> <s_m_source_file>
AV-unprocessed.smi

> <i_m_source_file_index>
2731

> <i_lp_mmshare_version>
43012

> <i_f3d_flags>
0

> <s_epik_input>
W0NIM11jMW5uKFtDSDNdKWMoW0NIM10pYzFbQ0gyXVtDSDJdW05IXUMoPU8pW0NIMl1OMltDSDJdW0NIMl1bQ0gyXVtDSDJdQzI9Tw==

> <s_epik_cmdline>
J2VwaWtfcHl0aG9uJywgJy1waCcsICc3LjAnLCAnLXRuJywgJzgnLCAnLW1hJywgJzIwMCcsICctbWV0YWxfYmluZGluZycsICctaW1hZScsICc8aW5maWxlLm1hZT4nLCAnLW9tYWUnLCAnPG91dGZpbGUubWFlPic=

> <r_lp_tautomer_probability>
1

> <r_epik_Ionization_Penalty>
2.35701

> <r_epik_Ionization_Penalty_Charging>
2.357

> <r_epik_Ionization_Penalty_Neutral>
2.49505e-07

> <r_epik_State_Penalty>
2.51177

> <r_epik_Charging_Adjusted_Penalty>
4.86877

> <i_epik_Tot_Q>
1

> <i_epik_Tot_abs_Q>
1

> <r_epik_Metal_State_Penalty>
2.52284

> <b_epik_Metal_Only>
0

> <s_lp_Force_Field>
OPLS_2005

> <r_lp_Energy>
19.064

> <b_lp_Chiralities_Consistent>
1

> <s_lp_Variant>
AV-unprocessed.smi:2731-2

> <Gold.Version>
5.8.1

> <Gold.Id.Protein>
6NUR|6NUR_protein|mol2

> <Gold.PLP.Fitness>
54.9078

> <Gold.PLP.PLP>
-43.0392

> <Gold.PLP.part.hbond>
-3.8588

> <Gold.PLP.part.metal>
0.0000

> <Gold.PLP.part.buried>
-4.4336

> <Gold.PLP.part.nonpolar>
-35.6688

> <Gold.PLP.part.repulsive>
0.1878

> <Gold.PLP.ligand.clash>
0.0000

> <Gold.PLP.ligand.torsion>
0.6429

> <Gold.PLP.Chemscore.Hbond>
4.3760

> <Gold.PLP.Chemscore.CHOScore>
0.0000

> <Gold.PLP.Chemscore.Metal>
0.0000

> <Gold.Chemscore.Hbonds>
donor molecule, donor type, donor heavy atom, donor atom, acceptor molecule, acceptor atom, score
      L1  H     3    46       P1  8028  1.82
      P1  H  6896  6908       L1    13  1.00
      P1  H  6931  6943       L1    21  0.74
      P1  H  6934  6947       L1    21  0.53

> <Gold.PLP.Chemscore.Internal.Correction>
0.0262

> <Gold.Rescore>
     Score         DG    S(hbond)    S(metal)    S(lipo)     H(rot)  DE(clash)    DE(int)     intcor
     22.18     -22.77       3.60        0.00      85.56       1.85       0.02       0.58       ----

> <Gold.Chemscore.Fitness>
22.1756

> <Gold.Chemscore.DG>
-22.7691

> <Gold.Chemscore.ZeroCoef>
-5.4800

> <Gold.Chemscore.Hbond>
3.5973

> <Gold.Chemscore.Metal>
0.0000

> <Gold.Chemscore.Lipo>
85.5582

> <Gold.Chemscore.Internal_Hbond>
0.0000

> <Gold.Chemscore.DEClash>
0.0151

> <Gold.Chemscore.DEInternal>
0.5784

> <Gold.Chemscore.Rot>
1.8501

> <Gold.Chemscore.Internal.Correction>
   9.000000E+99

> <Gold.Chemscore.Hbonds>
donor molecule, donor type, donor heavy atom, donor atom, acceptor molecule, acceptor atom, score
      L1  H     3    46       P1  8028  0.86
      P1  H  6896  6908       L1    13  0.98
      P1  H  6931  6943       L1    21  0.29
      P1  H  6934  6947       L1    21  0.51

> <Gold.Chemscore.Hbond.Weighted>
-12.0149

> <Gold.Chemscore.Metal.Weighted>
-0.0000

> <Gold.Chemscore.Lipo.Weighted>
-10.0103

> <Gold.Chemscore.Internal_Hbond.Weighted>
0.0000

> <Gold.Chemscore.DEClash.Weighted>
0.0151

> <Gold.Chemscore.DEInternal.Weighted>
0.5784

> <Gold.Chemscore.Rot.Weighted>
4.7362

> <Gold.Chemscore.Internal.Correction.Weighted>
   9.000000E+99

> <Gold.Protein.RotatedTorsions>
[ 6907 6896 6895 6894 ] final -166.90 input  -60.11 | X-H torsion
[ 7974 7965 7964 7962 ] final  106.52 input  175.53 | X-H torsion
[ 8008 7997 7996 7995 ] final -153.43 input   59.86 | X-H torsion
[ 10167 10162 10161 10158 ] final -176.89 input  -65.29 | X-H torsion
[ 10718 10713 10712 10709 ] final  130.68 input   66.30 | X-H torsion
[ 10763 10752 10751 10750 ] final   51.71 input  -60.55 | X-H torsion
[ 11005 11000 10999 10996 ] final  148.54 input  -57.11 | X-H torsion

> <Gold.Protein.ActiveResidues>
 VAL166  LYS551  ARG553  GLY616  TRP617  ASP618  TYR619  PRO620  LYS621  CYS622 
 ASP623  PHE694  ASN695  SER759  ASP760  ASP761  ALA762  ILE779  LEU786  VAL792 
 PHE793  MET794  SER795  GLU796  ALA797  LYS798  CYS799  TRP800  GLU811  SER814 

> <Gold.Protein.RotatedAtoms>
  151.4509  133.3618  159.2794 H   0  0  0  0  0  0  0  0  0  0  0  0  # atno 6907 bound_to 6896
  150.9092  134.8509  159.7424 H   0  0  0  0  0  0  0  0  0  0  0  0  # atno 6908 bound_to 6896
  152.4923  134.4437  159.9604 H   0  0  0  0  0  0  0  0  0  0  0  0  # atno 6909 bound_to 6896
  145.3056  139.2556  143.3790 H   0  0  0  0  0  0  0  0  0  0  0  0  # atno 7974 bound_to 7965
  155.6707  140.0733  157.2521 H   0  0  0  0  0  0  0  0  0  0  0  0  # atno 8008 bound_to 7997
  154.4124  140.1699  156.1928 H   0  0  0  0  0  0  0  0  0  0  0  0  # atno 8009 bound_to 7997
  155.9619  140.3369  155.6501 H   0  0  0  0  0  0  0  0  0  0  0  0  # atno 8010 bound_to 7997
  139.5507  144.2117  152.1071 H   0  0  0  0  0  0  0  0  0  0  0  0  # atno 10167 bound_to 10162
  157.5039  131.1095  150.9389 H   0  0  0  0  0  0  0  0  0  0  0  0  # atno 10718 bound_to 10713
  152.9786  135.5837  154.4460 H   0  0  0  0  0  0  0  0  0  0  0  0  # atno 10763 bound_to 10752
  154.4055  135.2769  155.2072 H   0  0  0  0  0  0  0  0  0  0  0  0  # atno 10764 bound_to 10752
  154.3884  135.6131  153.5884 H   0  0  0  0  0  0  0  0  0  0  0  0  # atno 10765 bound_to 10752
  140.0968  134.9007  157.1736 H   0  0  0  0  0  0  0  0  0  0  0  0  # atno 11005 bound_to 11000
  146.3136  140.3580  142.8662 LP  0  0  0  0  0  0  0  0  0  0  0  0  # atno 17320 bound_to 7965
  144.9058  140.7697  143.5838 LP  0  0  0  0  0  0  0  0  0  0  0  0  # atno 17321 bound_to 7965
  140.1612  144.5024  150.6631 LP  0  0  0  0  0  0  0  0  0  0  0  0  # atno 17342 bound_to 10162
  140.6768  143.2309  151.5486 LP  0  0  0  0  0  0  0  0  0  0  0  0  # atno 17343 bound_to 10162
  157.0051  130.5615  149.5315 LP  0  0  0  0  0  0  0  0  0  0  0  0  # atno 17370 bound_to 10713
  156.0246  130.5340  150.8371 LP  0  0  0  0  0  0  0  0  0  0  0  0  # atno 17371 bound_to 10713
  140.3275  134.2847  155.7234 LP  0  0  0  0  0  0  0  0  0  0  0  0  # atno 17394 bound_to 11000
  141.2094  133.7749  156.9996 LP  0  0  0  0  0  0  0  0  0  0  0  0  # atno 17395 bound_to 11000

$$$$
