AV-unprocessed.smi:2159|AV-procd|sdf|8796|dock2
  -GOLD-   2272011573D 1   1.00000     0.00000
 Structure written by MMmdl.
 48 50  0  0  0  0  0  0  0  0  2 V2000
  151.5105  135.9625  156.0949 O   0  0  0  0  0  0  0  0  0  0  0  0
  150.7859  136.3014  155.1584 C   0  0  0  0  0  0  0  0  0  0  0  0
  150.6026  137.7815  154.8109 C   0  0  0  0  0  0  0  0  0  0  0  0
  151.9023  138.5980  154.9571 C   0  0  0  0  0  0  0  0  0  0  0  0
  151.7743  139.6219  155.9970 N   0  0  0  0  0  0  0  0  0  0  0  0
  152.4999  139.6477  157.1312 C   0  0  0  0  0  0  0  0  0  0  0  0
  153.2902  138.7928  157.5295 O   0  0  0  0  0  0  0  0  0  0  0  0
  152.2702  140.9787  157.8321 C   0  0  2  0  0  0  0  0  0  0  0  0
  152.2439  141.1147  159.3551 C   0  0  0  0  0  0  0  0  0  0  0  0
  152.0019  142.6159  159.6666 C   0  0  0  0  0  0  0  0  0  0  0  0
  150.7897  143.2331  158.9079 C   0  0  0  0  0  0  0  0  0  0  0  0
  150.7606  142.9032  157.3918 C   0  0  0  0  0  0  0  0  0  0  0  0
  150.9244  141.3879  157.2663 C   0  0  1  0  0  0  0  0  0  0  0  0
  150.9355  140.6731  155.9236 C   0  0  0  0  0  0  0  0  0  0  0  0
  150.2311  140.9979  154.9684 O   0  0  0  0  0  0  0  0  0  0  0  0
  150.1113  135.4230  154.4004 N   0  0  0  0  0  0  0  0  0  0  0  0
  150.1438  133.9756  154.5751 C   0  0  0  0  0  0  0  0  0  0  0  0
  149.0495  133.2815  153.7462 C   0  0  0  0  0  0  0  0  0  0  0  0
  149.1482  131.7702  153.8151 C   0  0  0  0  0  0  0  0  0  0  0  0
  150.1287  131.1130  154.5897 C   0  0  0  0  0  0  0  0  0  0  0  0
  150.1596  129.7027  154.6091 C   0  0  0  0  0  0  0  0  0  0  0  0
  149.2110  128.9809  153.8550 C   0  0  0  0  0  0  0  0  0  0  0  0
  148.2532  129.6884  153.1002 C   0  0  0  0  0  0  0  0  0  0  0  0
  148.2557  131.0395  153.1080 N   0  3  0  0  0  0  0  0  0  0  0  0
  150.2277  137.8696  153.7898 H   0  0  0  0  0  0  0  0  0  0  0  0
  149.8300  138.1887  155.4641 H   0  0  0  0  0  0  0  0  0  0  0  0
  152.7407  137.9413  155.1974 H   0  0  0  0  0  0  0  0  0  0  0  0
  152.1586  139.0670  154.0053 H   0  0  0  0  0  0  0  0  0  0  0  0
  153.0533  141.6380  157.4503 H   0  0  0  0  0  0  0  0  0  0  0  0
  151.4543  140.4983  159.7872 H   0  0  0  0  0  0  0  0  0  0  0  0
  153.1864  140.7820  159.7913 H   0  0  0  0  0  0  0  0  0  0  0  0
  151.8755  142.7549  160.7406 H   0  0  0  0  0  0  0  0  0  0  0  0
  152.8981  143.1761  159.3967 H   0  0  0  0  0  0  0  0  0  0  0  0
  149.8712  142.8599  159.3629 H   0  0  0  0  0  0  0  0  0  0  0  0
  150.7756  144.3140  159.0510 H   0  0  0  0  0  0  0  0  0  0  0  0
  149.8195  143.2306  156.9486 H   0  0  0  0  0  0  0  0  0  0  0  0
  151.5617  143.4257  156.8671 H   0  0  0  0  0  0  0  0  0  0  0  0
  150.1193  140.9146  157.8336 H   0  0  0  0  0  0  0  0  0  0  0  0
  149.5384  135.7831  153.6508 H   0  0  0  0  0  0  0  0  0  0  0  0
  151.1266  133.6161  154.2683 H   0  0  0  0  0  0  0  0  0  0  0  0
  150.0407  133.7290  155.6334 H   0  0  0  0  0  0  0  0  0  0  0  0
  148.0604  133.5792  154.0972 H   0  0  0  0  0  0  0  0  0  0  0  0
  149.1133  133.5986  152.7044 H   0  0  0  0  0  0  0  0  0  0  0  0
  150.8486  131.6796  155.1624 H   0  0  0  0  0  0  0  0  0  0  0  0
  150.9020  129.1807  155.1948 H   0  0  0  0  0  0  0  0  0  0  0  0
  149.2185  127.9005  153.8560 H   0  0  0  0  0  0  0  0  0  0  0  0
  147.4916  129.2186  152.4946 H   0  0  0  0  0  0  0  0  0  0  0  0
  147.5539  131.5316  152.5538 H   0  0  0  0  0  0  0  0  0  0  0  0
  1  2  2  0  0  0  0
  2  3  1  0  0  0  0
  2 16  1  0  0  0  0
  3  4  1  0  0  0  0
  3 25  1  0  0  0  0
  3 26  1  0  0  0  0
  4  5  1  0  0  0  0
  4 27  1  0  0  0  0
  4 28  1  0  0  0  0
  5 14  1  0  0  0  0
  5  6  1  0  0  0  0
  6  7  2  0  0  0  0
  6  8  1  0  0  0  0
  8 13  1  0  0  0  0
  8  9  1  0  0  0  0
  8 29  1  0  0  0  0
  9 10  1  0  0  0  0
  9 30  1  0  0  0  0
  9 31  1  0  0  0  0
 10 11  1  0  0  0  0
 10 32  1  0  0  0  0
 10 33  1  0  0  0  0
 11 12  1  0  0  0  0
 11 34  1  0  0  0  0
 11 35  1  0  0  0  0
 12 13  1  0  0  0  0
 12 36  1  0  0  0  0
 12 37  1  0  0  0  0
 13 14  1  0  0  0  0
 13 38  1  0  0  0  0
 14 15  2  0  0  0  0
 16 17  1  0  0  0  0
 16 39  1  0  0  0  0
 17 18  1  0  0  0  0
 17 40  1  0  0  0  0
 17 41  1  0  0  0  0
 18 19  1  0  0  0  0
 18 42  1  0  0  0  0
 18 43  1  0  0  0  0
 19 24  1  0  0  0  0
 19 20  2  0  0  0  0
 20 21  1  0  0  0  0
 20 44  1  0  0  0  0
 21 22  2  0  0  0  0
 21 45  1  0  0  0  0
 22 23  1  0  0  0  0
 22 46  1  0  0  0  0
 23 24  2  0  0  0  0
 23 47  1  0  0  0  0
 24 48  1  0  0  0  0
M  CHG  1  24   1
M  END
> <s_m_source_file>
AV-unprocessed.smi

> <i_m_source_file_index>
2159

> <i_lp_mmshare_version>
43012

> <i_f3d_flags>
0

> <s_epik_input>
bjFbY0hdW2NIXVtjSF1bY0hdYzFbQ0gyXVtDSDJdW05IXUMoPU8pW0NIMl1bQ0gyXU4oQzI9TylDKD1PKVtDQEhdKFtDQEBIXTIzKVtDSDJdW0NIMl1bQ0gyXVtDSDJdMw==

> <s_epik_cmdline>
J2VwaWtfcHl0aG9uJywgJy1waCcsICc3LjAnLCAnLXRuJywgJzgnLCAnLW1hJywgJzIwMCcsICctbWV0YWxfYmluZGluZycsICctaW1hZScsICc8aW5maWxlLm1hZT4nLCAnLW9tYWUnLCAnPG91dGZpbGUubWFlPic=

> <r_lp_tautomer_probability>
1

> <r_epik_Ionization_Penalty>
1.85146

> <r_epik_Ionization_Penalty_Charging>
1.85146

> <r_epik_Ionization_Penalty_Neutral>
2.95922e-08

> <r_epik_State_Penalty>
1.96899

> <r_epik_Charging_Adjusted_Penalty>
3.82044

> <i_epik_Tot_Q>
1

> <i_epik_Tot_abs_Q>
1

> <r_epik_Metal_State_Penalty>
1.99467

> <b_epik_Metal_Only>
0

> <s_lp_Force_Field>
OPLS_2005

> <r_lp_Energy>
35.9889

> <b_lp_Chiralities_Consistent>
1

> <s_lp_Variant>
AV-unprocessed.smi:2159-6

> <Gold.Version>
5.8.1

> <Gold.Id.Protein>
6NUR|6NUR_protein|mol2

> <Gold.PLP.Fitness>
52.4934

> <Gold.PLP.PLP>
-44.4770

> <Gold.PLP.part.hbond>
-5.6504

> <Gold.PLP.part.metal>
0.0000

> <Gold.PLP.part.buried>
-1.2384

> <Gold.PLP.part.nonpolar>
-36.8984

> <Gold.PLP.part.repulsive>
0.1900

> <Gold.PLP.ligand.clash>
0.0000

> <Gold.PLP.ligand.torsion>
0.7758

> <Gold.PLP.Chemscore.Hbond>
3.1648

> <Gold.PLP.Chemscore.CHOScore>
0.0000

> <Gold.PLP.Chemscore.Metal>
0.0000

> <Gold.Chemscore.Hbonds>
donor molecule, donor type, donor heavy atom, donor atom, acceptor molecule, acceptor atom, score
      L1  H    16    39       P1  7948  1.00
      P1  H  7989  7998       L1    15  0.67
      P1  H  7997  8010       L1     7  0.45
      P1  H 10752 10763       L1     1  1.00

> <Gold.PLP.Chemscore.Internal.Correction>
0.0736

> <Gold.Rescore>
     Score         DG    S(hbond)    S(metal)    S(lipo)     H(rot)  DE(clash)    DE(int)     intcor
     16.65     -17.60       1.85        0.00      96.58       2.10       0.19       0.77       ----

> <Gold.Chemscore.Fitness>
16.6454

> <Gold.Chemscore.DG>
-17.6044

> <Gold.Chemscore.ZeroCoef>
-5.4800

> <Gold.Chemscore.Hbond>
1.8533

> <Gold.Chemscore.Metal>
0.0000

> <Gold.Chemscore.Lipo>
96.5802

> <Gold.Chemscore.Internal_Hbond>
0.0000

> <Gold.Chemscore.DEClash>
0.1915

> <Gold.Chemscore.DEInternal>
0.7675

> <Gold.Chemscore.Rot>
2.0959

> <Gold.Chemscore.Internal.Correction>
   9.000000E+99

> <Gold.Chemscore.Hbonds>
donor molecule, donor type, donor heavy atom, donor atom, acceptor molecule, acceptor atom, score
      L1  H    16    39       P1  7948  0.30
      P1  H  7989  7998       L1    15  0.14
      P1  H  7997  8010       L1     7  0.03
      P1  H 10752 10763       L1     1  0.29

> <Gold.Chemscore.Hbond.Weighted>
-6.1900

> <Gold.Chemscore.Metal.Weighted>
-0.0000

> <Gold.Chemscore.Lipo.Weighted>
-11.2999

> <Gold.Chemscore.Internal_Hbond.Weighted>
0.0000

> <Gold.Chemscore.DEClash.Weighted>
0.1915

> <Gold.Chemscore.DEInternal.Weighted>
0.7675

> <Gold.Chemscore.Rot.Weighted>
5.3655

> <Gold.Chemscore.Internal.Correction.Weighted>
   9.000000E+99

> <Gold.Protein.RotatedTorsions>
[ 6907 6896 6895 6894 ] final  138.08 input  -60.11 | X-H torsion
[ 7974 7965 7964 7962 ] final -133.39 input  175.53 | X-H torsion
[ 8008 7997 7996 7995 ] final   13.99 input   59.86 | X-H torsion
[ 10167 10162 10161 10158 ] final   67.01 input  -65.29 | X-H torsion
[ 10718 10713 10712 10709 ] final  150.76 input   66.30 | X-H torsion
[ 10763 10752 10751 10750 ] final   94.04 input  -60.55 | X-H torsion
[ 11005 11000 10999 10996 ] final   95.76 input  -57.11 | X-H torsion

> <Gold.Protein.ActiveResidues>
 VAL166  LYS551  ARG553  GLY616  TRP617  ASP618  TYR619  PRO620  LYS621  CYS622 
 ASP623  PHE694  ASN695  SER759  ASP760  ASP761  ALA762  ILE779  LEU786  VAL792 
 PHE793  MET794  SER795  GLU796  ALA797  LYS798  CYS799  TRP800  GLU811  SER814 

> <Gold.Protein.RotatedAtoms>
  152.2707  133.5380  159.5437 H   0  0  0  0  0  0  0  0  0  0  0  0  # atno 6907 bound_to 6896
  150.7158  134.0701  159.3870 H   0  0  0  0  0  0  0  0  0  0  0  0  # atno 6908 bound_to 6896
  151.8616  135.0522  160.0520 H   0  0  0  0  0  0  0  0  0  0  0  0  # atno 6909 bound_to 6896
  144.9198  140.6999  143.4972 H   0  0  0  0  0  0  0  0  0  0  0  0  # atno 7974 bound_to 7965
  154.8422  140.2916  155.5652 H   0  0  0  0  0  0  0  0  0  0  0  0  # atno 8008 bound_to 7997
  156.3012  140.2512  156.3298 H   0  0  0  0  0  0  0  0  0  0  0  0  # atno 8009 bound_to 7997
  154.9112  140.0388  157.1937 H   0  0  0  0  0  0  0  0  0  0  0  0  # atno 8010 bound_to 7997
  140.0942  144.4961  150.7079 H   0  0  0  0  0  0  0  0  0  0  0  0  # atno 10167 bound_to 10162
  157.2794  131.0832  151.1542 H   0  0  0  0  0  0  0  0  0  0  0  0  # atno 10718 bound_to 10713
  153.2372  135.4304  155.0659 H   0  0  0  0  0  0  0  0  0  0  0  0  # atno 10763 bound_to 10752
  154.8324  135.3394  154.6702 H   0  0  0  0  0  0  0  0  0  0  0  0  # atno 10764 bound_to 10752
  153.7127  135.7022  153.5089 H   0  0  0  0  0  0  0  0  0  0  0  0  # atno 10765 bound_to 10752
  139.8786  134.8916  156.4059 H   0  0  0  0  0  0  0  0  0  0  0  0  # atno 11005 bound_to 11000
  145.3315  139.1758  143.4534 LP  0  0  0  0  0  0  0  0  0  0  0  0  # atno 17320 bound_to 7965
  146.3199  140.3345  142.8643 LP  0  0  0  0  0  0  0  0  0  0  0  0  # atno 17321 bound_to 7965
  140.7012  143.2436  151.4858 LP  0  0  0  0  0  0  0  0  0  0  0  0  # atno 17342 bound_to 10162
  139.5707  144.1934  152.1832 LP  0  0  0  0  0  0  0  0  0  0  0  0  # atno 17343 bound_to 10162
  157.2983  130.6830  149.6150 LP  0  0  0  0  0  0  0  0  0  0  0  0  # atno 17370 bound_to 10713
  155.9664  130.4400  150.5281 LP  0  0  0  0  0  0  0  0  0  0  0  0  # atno 17371 bound_to 10713
  140.9234  133.7629  155.9935 LP  0  0  0  0  0  0  0  0  0  0  0  0  # atno 17394 bound_to 11000
  140.8413  134.3063  157.5312 LP  0  0  0  0  0  0  0  0  0  0  0  0  # atno 17395 bound_to 11000

$$$$
