AV-unprocessed.smi:1496|AV-procd|sdf|6056|dock6
  -GOLD-   22720 6173D 1   1.00000     0.00000
 Structure written by MMmdl.
 43 44  0  0  0  0  0  0  0  0  2 V2000
  151.6783  137.7119  153.8621 C   0  0  0  0  0  0  0  0  0  0  0  0
  150.8509  138.5821  154.8326 C   0  0  0  0  0  0  0  0  0  0  0  0
  151.7995  139.5179  155.5995 C   0  0  0  0  0  0  0  0  0  0  0  0
  149.7761  139.4152  154.0946 C   0  0  0  0  0  0  0  0  0  0  0  0
  148.6833  138.5602  153.5710 N   0  3  2  0  0  0  0  0  0  0  0  0
  147.6843  139.3367  152.7948 C   0  0  0  0  0  0  0  0  0  0  0  0
  146.3663  138.5659  152.5873 C   0  0  0  0  0  0  0  0  0  0  0  0
  146.6108  137.2231  152.0734 N   0  0  0  0  0  0  0  0  0  0  0  0
  145.6581  136.3139  151.8226 C   0  0  0  0  0  0  0  0  0  0  0  0
  144.4596  136.5308  151.9974 O   0  0  0  0  0  0  0  0  0  0  0  0
  146.1896  135.1691  151.3597 N   0  0  0  0  0  0  0  0  0  0  0  0
  145.5414  133.9546  151.0007 C   0  0  0  0  0  0  0  0  0  0  0  0
  144.1376  133.7679  150.9577 C   0  0  0  0  0  0  0  0  0  0  0  0
  143.6298  132.5053  150.5956 C   0  0  0  0  0  0  0  0  0  0  0  0
  144.5401  131.4742  150.2946 C   0  0  0  0  0  0  0  0  0  0  0  0
  145.8793  131.6342  150.3393 N   0  0  0  0  0  0  0  0  0  0  0  0
  146.3587  132.8474  150.6869 C   0  0  0  0  0  0  0  0  0  0  0  0
  148.0917  137.7574  154.6674 C   0  0  0  0  0  0  0  0  0  0  0  0
  149.1792  136.9283  155.3654 C   0  0  0  0  0  0  0  0  0  0  0  0
  150.2202  137.7799  155.8342 O   0  0  0  0  0  0  0  0  0  0  0  0
  152.2538  138.3333  153.1753 H   0  0  0  0  0  0  0  0  0  0  0  0
  151.0559  137.0588  153.2513 H   0  0  0  0  0  0  0  0  0  0  0  0
  152.3845  137.0826  154.4045 H   0  0  0  0  0  0  0  0  0  0  0  0
  152.3216  140.1957  154.9233 H   0  0  0  0  0  0  0  0  0  0  0  0
  152.5536  138.9530  156.1487 H   0  0  0  0  0  0  0  0  0  0  0  0
  151.2568  140.1267  156.3233 H   0  0  0  0  0  0  0  0  0  0  0  0
  149.3438  140.1542  154.7717 H   0  0  0  0  0  0  0  0  0  0  0  0
  150.2383  139.9720  153.2780 H   0  0  0  0  0  0  0  0  0  0  0  0
  147.4995  140.2951  153.2826 H   0  0  0  0  0  0  0  0  0  0  0  0
  148.1067  139.5663  151.8154 H   0  0  0  0  0  0  0  0  0  0  0  0
  145.8023  138.5122  153.5202 H   0  0  0  0  0  0  0  0  0  0  0  0
  145.7275  139.0749  151.8666 H   0  0  0  0  0  0  0  0  0  0  0  0
  147.5720  136.9669  151.8995 H   0  0  0  0  0  0  0  0  0  0  0  0
  147.1900  135.1731  151.2246 H   0  0  0  0  0  0  0  0  0  0  0  0
  143.4388  134.5520  151.2006 H   0  0  0  0  0  0  0  0  0  0  0  0
  142.5650  132.3309  150.5524 H   0  0  0  0  0  0  0  0  0  0  0  0
  144.1829  130.4942  150.0145 H   0  0  0  0  0  0  0  0  0  0  0  0
  147.4350  132.9365  150.7144 H   0  0  0  0  0  0  0  0  0  0  0  0
  147.6064  138.4191  155.3865 H   0  0  0  0  0  0  0  0  0  0  0  0
  147.3252  137.0852  154.2842 H   0  0  0  0  0  0  0  0  0  0  0  0
  148.7531  136.4018  156.2196 H   0  0  0  0  0  0  0  0  0  0  0  0
  149.5747  136.1617  154.6990 H   0  0  0  0  0  0  0  0  0  0  0  0
  149.1134  137.9139  152.9246 H   0  0  0  0  0  0  0  0  0  0  0  0
  1  2  1  0  0  0  0
  1 21  1  0  0  0  0
  1 22  1  0  0  0  0
  1 23  1  0  0  0  0
  2 20  1  0  0  0  0
  2  3  1  0  0  0  0
  2  4  1  0  0  0  0
  3 24  1  0  0  0  0
  3 25  1  0  0  0  0
  3 26  1  0  0  0  0
  4  5  1  0  0  0  0
  4 27  1  0  0  0  0
  4 28  1  0  0  0  0
  5  6  1  0  0  0  0
  5 18  1  0  0  0  0
  5 43  1  0  0  0  0
  6  7  1  0  0  0  0
  6 29  1  0  0  0  0
  6 30  1  0  0  0  0
  7  8  1  0  0  0  0
  7 31  1  0  0  0  0
  7 32  1  0  0  0  0
  8  9  1  0  0  0  0
  8 33  1  0  0  0  0
  9 10  2  0  0  0  0
  9 11  1  0  0  0  0
 11 12  1  0  0  0  0
 11 34  1  0  0  0  0
 12 17  1  0  0  0  0
 12 13  2  0  0  0  0
 13 14  1  0  0  0  0
 13 35  1  0  0  0  0
 14 15  2  0  0  0  0
 14 36  1  0  0  0  0
 15 16  1  0  0  0  0
 15 37  1  0  0  0  0
 16 17  2  0  0  0  0
 17 38  1  0  0  0  0
 18 19  1  0  0  0  0
 18 39  1  0  0  0  0
 18 40  1  0  0  0  0
 19 20  1  0  0  0  0
 19 41  1  0  0  0  0
 19 42  1  0  0  0  0
M  CHG  1   5   1
M  END
> <s_m_source_file>
AV-unprocessed.smi

> <i_m_source_file_index>
1496

> <i_lp_mmshare_version>
43012

> <i_f3d_flags>
0

> <s_epik_input>
W0NIM11DMShbQ0gzXSlbQ0gyXU4oW0NIMl1bQ0gyXU8xKVtDSDJdW0NIMl1bTkhdQyg9TylbTkhdYzJbY0hdW2NIXVtjSF1uW2NIXTI=

> <s_epik_cmdline>
J2VwaWtfcHl0aG9uJywgJy1waCcsICc3LjAnLCAnLXRuJywgJzgnLCAnLW1hJywgJzIwMCcsICctbWV0YWxfYmluZGluZycsICctaW1hZScsICc8aW5maWxlLm1hZT4nLCAnLW9tYWUnLCAnPG91dGZpbGUubWFlPic=

> <r_epik_Ionization_Penalty>
0.606681

> <r_epik_Ionization_Penalty_Charging>
0.602531

> <r_epik_Ionization_Penalty_Neutral>
0.00415082

> <r_epik_State_Penalty>
0.607427

> <r_epik_Charging_Adjusted_Penalty>
1.20996

> <i_epik_Tot_Q>
1

> <i_epik_Tot_abs_Q>
1

> <r_epik_Metal_State_Penalty>
0.604583

> <b_epik_Metal_Only>
0

> <s_lp_Force_Field>
OPLS_2005

> <r_lp_Energy>
20.8776

> <b_lp_Chiralities_Consistent>
1

> <s_lp_Variant>
AV-unprocessed.smi:1496-2

> <Gold.Version>
5.8.1

> <Gold.Id.Protein>
6NUR|6NUR_protein|mol2

> <Gold.PLP.Fitness>
45.4741

> <Gold.PLP.PLP>
-32.7484

> <Gold.PLP.part.hbond>
-3.9825

> <Gold.PLP.part.metal>
0.0000

> <Gold.PLP.part.buried>
0.4663

> <Gold.PLP.part.nonpolar>
-30.7320

> <Gold.PLP.part.repulsive>
0.7239

> <Gold.PLP.ligand.clash>
0.0000

> <Gold.PLP.ligand.torsion>
0.2104

> <Gold.PLP.Chemscore.Hbond>
3.7603

> <Gold.PLP.Chemscore.CHOScore>
0.6174

> <Gold.PLP.Chemscore.Metal>
0.0000

> <Gold.Chemscore.Hbonds>
donor molecule, donor type, donor heavy atom, donor atom, acceptor molecule, acceptor atom, score
      L1  H     5    43       P1  7948  1.98
      L1  H     8    33       P1  7948  1.00
      L1  H    11    34       P1  7948  0.70
      L1  C    17    38       P1 10747  0.65

> <Gold.PLP.Chemscore.Internal.Correction>
0.0136

> <Gold.Rescore>
     Score         DG    S(hbond)    S(metal)    S(lipo)     H(rot)  DE(clash)    DE(int)     intcor
     17.36     -20.24       2.43        0.00      89.53       1.50       1.60       1.29       ----

> <Gold.Chemscore.Fitness>
17.3558

> <Gold.Chemscore.DG>
-20.2442

> <Gold.Chemscore.ZeroCoef>
-5.4800

> <Gold.Chemscore.Hbond>
2.4347

> <Gold.Chemscore.Metal>
0.0000

> <Gold.Chemscore.Lipo>
89.5308

> <Gold.Chemscore.Internal_Hbond>
0.0000

> <Gold.Chemscore.DEClash>
1.6014

> <Gold.Chemscore.DEInternal>
1.2870

> <Gold.Chemscore.Rot>
1.5010

> <Gold.Chemscore.Internal.Correction>
   9.000000E+99

> <Gold.Chemscore.Hbonds>
donor molecule, donor type, donor heavy atom, donor atom, acceptor molecule, acceptor atom, score
      L1  H     5    43       P1  7948  0.91
      L1  H     8    33       P1  7948  0.94
      L1  H    11    34       P1  7948  0.48

> <Gold.Chemscore.Hbond.Weighted>
-8.1317

> <Gold.Chemscore.Metal.Weighted>
-0.0000

> <Gold.Chemscore.Lipo.Weighted>
-10.4751

> <Gold.Chemscore.Internal_Hbond.Weighted>
0.0000

> <Gold.Chemscore.DEClash.Weighted>
1.6014

> <Gold.Chemscore.DEInternal.Weighted>
1.2870

> <Gold.Chemscore.Rot.Weighted>
3.8426

> <Gold.Chemscore.Internal.Correction.Weighted>
   9.000000E+99

> <Gold.Protein.RotatedTorsions>
[ 6907 6896 6895 6894 ] final  170.10 input  -60.11 | X-H torsion
[ 7974 7965 7964 7962 ] final -160.49 input  175.53 | X-H torsion
[ 8008 7997 7996 7995 ] final   36.76 input   59.86 | X-H torsion
[ 10167 10162 10161 10158 ] final   23.32 input  -65.29 | X-H torsion
[ 10718 10713 10712 10709 ] final  -32.25 input   66.30 | X-H torsion
[ 10763 10752 10751 10750 ] final  119.49 input  -60.55 | X-H torsion
[ 11005 11000 10999 10996 ] final  128.03 input  -57.11 | X-H torsion

> <Gold.Protein.ActiveResidues>
 VAL166  LYS551  ARG553  GLY616  TRP617  ASP618  TYR619  PRO620  LYS621  CYS622 
 ASP623  PHE694  ASN695  SER759  ASP760  ASP761  ALA762  ILE779  LEU786  VAL792 
 PHE793  MET794  SER795  GLU796  ALA797  LYS798  CYS799  TRP800  GLU811  SER814 

> <Gold.Protein.RotatedAtoms>
  151.8214  133.3395  159.3585 H   0  0  0  0  0  0  0  0  0  0  0  0  # atno 6907 bound_to 6896
  150.7293  134.5570  159.5832 H   0  0  0  0  0  0  0  0  0  0  0  0  # atno 6908 bound_to 6896
  152.3003  134.7620  160.0410 H   0  0  0  0  0  0  0  0  0  0  0  0  # atno 6909 bound_to 6896
  144.7425  140.3534  143.6111 H   0  0  0  0  0  0  0  0  0  0  0  0  # atno 7974 bound_to 7965
  155.1926  140.3309  155.4356 H   0  0  0  0  0  0  0  0  0  0  0  0  # atno 8008 bound_to 7997
  156.2436  140.1907  156.6968 H   0  0  0  0  0  0  0  0  0  0  0  0  # atno 8009 bound_to 7997
  154.6195  140.0597  156.9583 H   0  0  0  0  0  0  0  0  0  0  0  0  # atno 8010 bound_to 7997
  140.5278  143.9893  150.6449 H   0  0  0  0  0  0  0  0  0  0  0  0  # atno 10167 bound_to 10162
  156.3771  130.4349  149.7498 H   0  0  0  0  0  0  0  0  0  0  0  0  # atno 10718 bound_to 10713
  153.5839  135.3478  155.2885 H   0  0  0  0  0  0  0  0  0  0  0  0  # atno 10763 bound_to 10752
  154.8663  135.4188  154.2590 H   0  0  0  0  0  0  0  0  0  0  0  0  # atno 10764 bound_to 10752
  153.3382  135.7048  153.6959 H   0  0  0  0  0  0  0  0  0  0  0  0  # atno 10765 bound_to 10752
  139.9539  134.9617  156.8942 H   0  0  0  0  0  0  0  0  0  0  0  0  # atno 11005 bound_to 11000
  145.7252  139.1721  143.2462 LP  0  0  0  0  0  0  0  0  0  0  0  0  # atno 17320 bound_to 7965
  146.1247  140.7263  142.9440 LP  0  0  0  0  0  0  0  0  0  0  0  0  # atno 17321 bound_to 7965
  140.3260  143.3107  152.0736 LP  0  0  0  0  0  0  0  0  0  0  0  0  # atno 17342 bound_to 10162
  139.4944  144.6542  151.6610 LP  0  0  0  0  0  0  0  0  0  0  0  0  # atno 17343 bound_to 10162
  156.4603  130.7948  151.2969 LP  0  0  0  0  0  0  0  0  0  0  0  0  # atno 17370 bound_to 10713
  157.7489  131.0068  150.3165 LP  0  0  0  0  0  0  0  0  0  0  0  0  # atno 17371 bound_to 10713
  140.5655  134.0494  155.7413 LP  0  0  0  0  0  0  0  0  0  0  0  0  # atno 17394 bound_to 11000
  141.1207  133.9466  157.2735 LP  0  0  0  0  0  0  0  0  0  0  0  0  # atno 17395 bound_to 11000

$$$$
