AV-unprocessed.smi:2964|AV-procd|sdf|11321|dock9
  -GOLD-   2272016223D 1   1.00000     0.00000
 Structure written by MMmdl.
 35 36  0  0  0  0  0  0  0  0  1 V2000
  151.6062  139.9908  155.5662 O   0  0  0  0  0  0  0  0  0  0  0  0
  150.8052  140.3273  156.4397 C   0  0  0  0  0  0  0  0  0  0  0  0
  151.0632  139.9983  157.9172 C   0  0  0  0  0  0  0  0  0  0  0  0
  151.8764  141.0125  158.6098 N   0  0  0  0  0  0  0  0  0  0  0  0
  151.3950  142.3367  158.6008 C   0  0  0  0  0  0  0  0  0  0  0  0
  152.0477  143.3566  159.1917 C   0  0  0  0  0  0  0  0  0  0  0  0
  151.5100  144.7789  159.1966 C   0  0  0  0  0  0  0  0  0  0  0  0
  151.4273  145.2463  157.9511 F   0  0  0  0  0  0  0  0  0  0  0  0
  150.2871  144.8008  159.7252 F   0  0  0  0  0  0  0  0  0  0  0  0
  152.2872  145.6011  159.9030 F   0  0  0  0  0  0  0  0  0  0  0  0
  153.2863  143.0265  159.8665 C   0  0  0  0  0  0  0  0  0  0  0  0
  153.7616  141.7660  159.8830 C   0  0  0  0  0  0  0  0  0  0  0  0
  153.0478  140.6691  159.2250 C   0  0  0  0  0  0  0  0  0  0  0  0
  153.4748  139.5144  159.2280 O   0  0  0  0  0  0  0  0  0  0  0  0
  149.6793  141.0086  156.1788 N   0  0  0  0  0  0  0  0  0  0  0  0
  149.2399  141.4230  154.8493 C   0  0  0  0  0  0  0  0  0  0  0  0
  147.9520  142.2711  154.9073 C   0  0  0  0  0  0  0  0  0  0  0  0
  147.0046  141.6729  153.8664 C   0  0  0  0  0  0  0  0  0  0  0  0
  147.3838  140.1966  153.8187 C   0  0  0  0  0  0  0  0  0  0  0  0
  148.9043  140.1959  153.9818 C   0  0  0  0  0  0  0  0  0  0  0  0
  150.0983  139.8790  158.4118 H   0  0  0  0  0  0  0  0  0  0  0  0
  151.5418  139.0197  157.9894 H   0  0  0  0  0  0  0  0  0  0  0  0
  150.4604  142.4680  158.0749 H   0  0  0  0  0  0  0  0  0  0  0  0
  153.8431  143.8074  160.3634 H   0  0  0  0  0  0  0  0  0  0  0  0
  154.6906  141.5572  160.3930 H   0  0  0  0  0  0  0  0  0  0  0  0
  149.0795  141.2512  156.9541 H   0  0  0  0  0  0  0  0  0  0  0  0
  150.0400  141.9866  154.3657 H   0  0  0  0  0  0  0  0  0  0  0  0
  147.4873  142.1976  155.8919 H   0  0  0  0  0  0  0  0  0  0  0  0
  148.1473  143.3279  154.7221 H   0  0  0  0  0  0  0  0  0  0  0  0
  145.9547  141.8301  154.1146 H   0  0  0  0  0  0  0  0  0  0  0  0
  147.1900  142.1309  152.8940 H   0  0  0  0  0  0  0  0  0  0  0  0
  146.9221  139.6721  154.6565 H   0  0  0  0  0  0  0  0  0  0  0  0
  147.0594  139.7083  152.8994 H   0  0  0  0  0  0  0  0  0  0  0  0
  149.3691  140.3117  153.0017 H   0  0  0  0  0  0  0  0  0  0  0  0
  149.2701  139.2564  154.3985 H   0  0  0  0  0  0  0  0  0  0  0  0
  1  2  2  0  0  0  0
  2  3  1  0  0  0  0
  2 15  1  0  0  0  0
  3  4  1  0  0  0  0
  3 21  1  0  0  0  0
  3 22  1  0  0  0  0
  4 13  1  0  0  0  0
  4  5  1  0  0  0  0
  5  6  2  0  0  0  0
  5 23  1  0  0  0  0
  6  7  1  0  0  0  0
  6 11  1  0  0  0  0
  7  8  1  0  0  0  0
  7  9  1  0  0  0  0
  7 10  1  0  0  0  0
 11 12  2  0  0  0  0
 11 24  1  0  0  0  0
 12 13  1  0  0  0  0
 12 25  1  0  0  0  0
 13 14  2  0  0  0  0
 15 16  1  0  0  0  0
 15 26  1  0  0  0  0
 16 20  1  0  0  0  0
 16 17  1  0  0  0  0
 16 27  1  0  0  0  0
 17 18  1  0  0  0  0
 17 28  1  0  0  0  0
 17 29  1  0  0  0  0
 18 19  1  0  0  0  0
 18 30  1  0  0  0  0
 18 31  1  0  0  0  0
 19 20  1  0  0  0  0
 19 32  1  0  0  0  0
 19 33  1  0  0  0  0
 20 34  1  0  0  0  0
 20 35  1  0  0  0  0
M  END
> <s_m_source_file>
AV-unprocessed.smi

> <i_m_source_file_index>
2964

> <i_lp_mmshare_version>
43012

> <i_f3d_flags>
0

> <s_epik_input>
W0NIMl0xW0NIMl1bQ0gyXVtDSDJdW0NIXTFbTkhdQyg9TylbQ0gyXW4yW2NIXWMoQyhGKShGKUYpW2NIXVtjSF1jMj1P

> <s_epik_cmdline>
J2VwaWtfcHl0aG9uJywgJy1waCcsICc3LjAnLCAnLXRuJywgJzgnLCAnLW1hJywgJzIwMCcsICctbWV0YWxfYmluZGluZycsICctaW1hZScsICc8aW5maWxlLm1hZT4nLCAnLW9tYWUnLCAnPG91dGZpbGUubWFlPic=

> <r_lp_tautomer_probability>
1

> <r_epik_Ionization_Penalty>
3.84201e-08

> <r_epik_Ionization_Penalty_Charging>
1.91184e-08

> <r_epik_Ionization_Penalty_Neutral>
1.93017e-08

> <r_epik_State_Penalty>
-0

> <r_epik_Charging_Adjusted_Penalty>
1.91184e-08

> <i_epik_Tot_Q>
0

> <i_epik_Tot_abs_Q>
0

> <r_epik_Metal_State_Penalty>
-0

> <b_epik_Metal_Only>
0

> <s_lp_Force_Field>
OPLS_2005

> <r_lp_Energy>
29.7678

> <b_lp_Chiralities_Consistent>
1

> <s_lp_Variant>
AV-unprocessed.smi:2964-1

> <Gold.Version>
5.8.1

> <Gold.Id.Protein>
6NUR|6NUR_protein|mol2

> <Gold.PLP.Fitness>
48.1848

> <Gold.PLP.PLP>
-43.6195

> <Gold.PLP.part.hbond>
-2.0000

> <Gold.PLP.part.metal>
0.0000

> <Gold.PLP.part.buried>
-0.0929

> <Gold.PLP.part.nonpolar>
-41.5306

> <Gold.PLP.part.repulsive>
0.0779

> <Gold.PLP.ligand.clash>
0.0000

> <Gold.PLP.ligand.torsion>
0.4231

> <Gold.PLP.Chemscore.Hbond>
1.8000

> <Gold.PLP.Chemscore.CHOScore>
0.0000

> <Gold.PLP.Chemscore.Metal>
0.0000

> <Gold.Chemscore.Hbonds>
donor molecule, donor type, donor heavy atom, donor atom, acceptor molecule, acceptor atom, score
      P1  H  7989  7998       L1     1  0.45

> <Gold.PLP.Chemscore.Internal.Correction>
0.0115

> <Gold.Rescore>
     Score         DG    S(hbond)    S(metal)    S(lipo)     H(rot)  DE(clash)    DE(int)     intcor
     14.69     -16.93       1.46        0.00      90.12       1.56       1.61       0.63       ----

> <Gold.Chemscore.Fitness>
14.6859

> <Gold.Chemscore.DG>
-16.9262

> <Gold.Chemscore.ZeroCoef>
-5.4800

> <Gold.Chemscore.Hbond>
1.4633

> <Gold.Chemscore.Metal>
0.0000

> <Gold.Chemscore.Lipo>
90.1211

> <Gold.Chemscore.Internal_Hbond>
0.0000

> <Gold.Chemscore.DEClash>
1.6108

> <Gold.Chemscore.DEInternal>
0.6295

> <Gold.Chemscore.Rot>
1.5568

> <Gold.Chemscore.Internal.Correction>
   9.000000E+99

> <Gold.Chemscore.Hbonds>
donor molecule, donor type, donor heavy atom, donor atom, acceptor molecule, acceptor atom, score
      P1  H  7989  7998       L1     1  0.44

> <Gold.Chemscore.Hbond.Weighted>
-4.8874

> <Gold.Chemscore.Metal.Weighted>
-0.0000

> <Gold.Chemscore.Lipo.Weighted>
-10.5442

> <Gold.Chemscore.Internal_Hbond.Weighted>
0.0000

> <Gold.Chemscore.DEClash.Weighted>
1.6108

> <Gold.Chemscore.DEInternal.Weighted>
0.6295

> <Gold.Chemscore.Rot.Weighted>
3.9854

> <Gold.Chemscore.Internal.Correction.Weighted>
   9.000000E+99

> <Gold.Protein.RotatedTorsions>
[ 6907 6896 6895 6894 ] final -135.31 input  -60.11 | X-H torsion
[ 7974 7965 7964 7962 ] final   -6.16 input  175.53 | X-H torsion
[ 8008 7997 7996 7995 ] final    5.53 input   59.86 | X-H torsion
[ 10167 10162 10161 10158 ] final  -76.73 input  -65.29 | X-H torsion
[ 10718 10713 10712 10709 ] final -112.77 input   66.30 | X-H torsion
[ 10763 10752 10751 10750 ] final -115.75 input  -60.55 | X-H torsion
[ 11005 11000 10999 10996 ] final    6.54 input  -57.11 | X-H torsion

> <Gold.Protein.ActiveResidues>
 VAL166  LYS551  ARG553  GLY616  TRP617  ASP618  TYR619  PRO620  LYS621  CYS622 
 ASP623  PHE694  ASN695  SER759  ASP760  ASP761  ALA762  ILE779  LEU786  VAL792 
 PHE793  MET794  SER795  GLU796  ALA797  LYS798  CYS799  TRP800  GLU811  SER814 

> <Gold.Protein.RotatedAtoms>
  150.9963  133.6100  159.2700 H   0  0  0  0  0  0  0  0  0  0  0  0  # atno 6907 bound_to 6896
  151.3302  135.0839  159.9346 H   0  0  0  0  0  0  0  0  0  0  0  0  # atno 6908 bound_to 6896
  152.5261  133.9594  159.7764 H   0  0  0  0  0  0  0  0  0  0  0  0  # atno 6909 bound_to 6896
  146.2337  140.2129  142.8335 H   0  0  0  0  0  0  0  0  0  0  0  0  # atno 7974 bound_to 7965
  154.7295  140.2728  155.6468 H   0  0  0  0  0  0  0  0  0  0  0  0  # atno 8008 bound_to 7997
  156.2846  140.2718  156.1916 H   0  0  0  0  0  0  0  0  0  0  0  0  # atno 8009 bound_to 7997
  155.0400  140.0371  157.2496 H   0  0  0  0  0  0  0  0  0  0  0  0  # atno 8010 bound_to 7997
  140.4831  143.2397  151.8026 H   0  0  0  0  0  0  0  0  0  0  0  0  # atno 10167 bound_to 10162
  156.0725  130.5937  150.8553 H   0  0  0  0  0  0  0  0  0  0  0  0  # atno 10718 bound_to 10713
  154.8493  135.4370  154.1713 H   0  0  0  0  0  0  0  0  0  0  0  0  # atno 10763 bound_to 10752
  153.2826  135.6955  153.7377 H   0  0  0  0  0  0  0  0  0  0  0  0  # atno 10764 bound_to 10752
  153.6575  135.3440  155.3092 H   0  0  0  0  0  0  0  0  0  0  0  0  # atno 10765 bound_to 10752
  140.5583  134.0217  155.7962 H   0  0  0  0  0  0  0  0  0  0  0  0  # atno 11005 bound_to 11000
  144.9692  140.8352  143.5466 LP  0  0  0  0  0  0  0  0  0  0  0  0  # atno 17320 bound_to 7965
  145.2109  139.2205  143.5143 LP  0  0  0  0  0  0  0  0  0  0  0  0  # atno 17321 bound_to 7965
  139.4837  144.4746  151.9382 LP  0  0  0  0  0  0  0  0  0  0  0  0  # atno 17342 bound_to 10162
  140.3832  144.2710  150.5906 LP  0  0  0  0  0  0  0  0  0  0  0  0  # atno 17343 bound_to 10162
  157.5804  131.0946  150.9280 LP  0  0  0  0  0  0  0  0  0  0  0  0  # atno 17370 bound_to 10713
  156.9476  130.5408  149.5281 LP  0  0  0  0  0  0  0  0  0  0  0  0  # atno 17371 bound_to 10713
  141.1130  133.9586  157.2875 LP  0  0  0  0  0  0  0  0  0  0  0  0  # atno 17394 bound_to 11000
  139.9420  135.0189  156.8738 LP  0  0  0  0  0  0  0  0  0  0  0  0  # atno 17395 bound_to 11000

$$$$
