AV-unprocessed.smi:1007|AV-procd|sdf|4403|dock6
  -GOLD-   22720 2343D 1   1.00000     0.00000
 Structure written by MMmdl.
 57 59  0  0  0  0  0  0  0  0  3 V2000
  146.2253  135.2332  159.7578 C   0  0  0  0  0  0  0  0  0  0  0  0
  147.1233  134.8063  158.7454 O   0  0  0  0  0  0  0  0  0  0  0  0
  148.3846  135.4582  158.7793 C   0  0  0  0  0  0  0  0  0  0  0  0
  149.2914  134.9853  157.6272 C   0  0  0  0  0  0  0  0  0  0  0  0
  148.6620  135.0021  156.3032 N   0  0  0  0  0  0  0  0  0  0  0  0
  147.8726  136.2099  156.0648 C   0  0  0  0  0  0  0  0  0  0  0  0
  148.7347  137.4722  155.8545 C   0  0  0  0  0  0  0  0  0  0  0  0
  149.6898  137.2709  154.7338 N   0  3  0  0  0  0  0  0  0  0  0  0
  150.4934  138.4889  154.4526 C   0  0  0  0  0  0  0  0  0  0  0  0
  151.7526  138.5972  155.3359 C   0  0  1  0  0  0  0  0  0  0  0  0
  152.6678  139.4905  154.7305 O   0  0  0  0  0  0  0  0  0  0  0  0
  151.4200  139.1014  156.7543 C   0  0  0  0  0  0  0  0  0  0  0  0
  151.1170  140.5385  156.7880 N   0  0  0  0  0  0  0  0  0  0  0  0
  150.3291  141.2893  155.9706 C   0  0  0  0  0  0  0  0  0  0  0  0
  150.3846  142.5756  156.4152 N   0  3  0  0  0  0  0  0  0  0  0  0
  151.2168  142.6466  157.5346 C   0  0  0  0  0  0  0  0  0  0  0  0
  151.5859  143.7255  158.3293 C   0  0  0  0  0  0  0  0  0  0  0  0
  152.4583  143.4624  159.4096 C   0  0  0  0  0  0  0  0  0  0  0  0
  152.8840  144.6202  160.2966 C   0  0  0  0  0  0  0  0  0  0  0  0
  152.9303  142.1483  159.6640 C   0  0  0  0  0  0  0  0  0  0  0  0
  153.8655  141.8768  160.8302 C   0  0  0  0  0  0  0  0  0  0  0  0
  152.5453  141.0648  158.8424 C   0  0  0  0  0  0  0  0  0  0  0  0
  151.6864  141.3422  157.7817 C   0  0  0  0  0  0  0  0  0  0  0  0
  150.5078  136.0482  154.9569 C   0  0  0  0  0  0  0  0  0  0  0  0
  149.5933  134.8278  155.1862 C   0  0  0  0  0  0  0  0  0  0  0  0
  145.2987  134.6639  159.6846 H   0  0  0  0  0  0  0  0  0  0  0  0
  145.9732  136.2887  159.6592 H   0  0  0  0  0  0  0  0  0  0  0  0
  146.6420  135.0638  160.7516 H   0  0  0  0  0  0  0  0  0  0  0  0
  148.2491  136.5400  158.7769 H   0  0  0  0  0  0  0  0  0  0  0  0
  148.8553  135.2054  159.7298 H   0  0  0  0  0  0  0  0  0  0  0  0
  150.1580  135.6474  157.6057 H   0  0  0  0  0  0  0  0  0  0  0  0
  149.6835  133.9940  157.8478 H   0  0  0  0  0  0  0  0  0  0  0  0
  147.2503  136.0576  155.1818 H   0  0  0  0  0  0  0  0  0  0  0  0
  147.1786  136.3682  156.8911 H   0  0  0  0  0  0  0  0  0  0  0  0
  148.0815  138.3158  155.6286 H   0  0  0  0  0  0  0  0  0  0  0  0
  149.2771  137.7308  156.7649 H   0  0  0  0  0  0  0  0  0  0  0  0
  150.8030  138.4875  153.4062 H   0  0  0  0  0  0  0  0  0  0  0  0
  149.8617  139.3694  154.5812 H   0  0  0  0  0  0  0  0  0  0  0  0
  152.2372  137.6259  155.4217 H   0  0  0  0  0  0  0  0  0  0  0  0
  153.4059  139.6085  155.3094 H   0  0  0  0  0  0  0  0  0  0  0  0
  150.5539  138.5728  157.1551 H   0  0  0  0  0  0  0  0  0  0  0  0
  152.2447  138.9093  157.4418 H   0  0  0  0  0  0  0  0  0  0  0  0
  149.7662  140.9327  155.1200 H   0  0  0  0  0  0  0  0  0  0  0  0
  151.2226  144.7232  158.1302 H   0  0  0  0  0  0  0  0  0  0  0  0
  153.9662  144.7482  160.2648 H   0  0  0  0  0  0  0  0  0  0  0  0
  152.5855  144.4422  161.3298 H   0  0  0  0  0  0  0  0  0  0  0  0
  152.4282  145.5575  159.9758 H   0  0  0  0  0  0  0  0  0  0  0  0
  154.1216  140.8190  160.8991 H   0  0  0  0  0  0  0  0  0  0  0  0
  153.3991  142.1671  161.7721 H   0  0  0  0  0  0  0  0  0  0  0  0
  154.7935  142.4374  160.7153 H   0  0  0  0  0  0  0  0  0  0  0  0
  152.9053  140.0654  159.0354 H   0  0  0  0  0  0  0  0  0  0  0  0
  151.1367  135.8491  154.0906 H   0  0  0  0  0  0  0  0  0  0  0  0
  151.1810  136.1956  155.8022 H   0  0  0  0  0  0  0  0  0  0  0  0
  150.1958  133.9312  155.3266 H   0  0  0  0  0  0  0  0  0  0  0  0
  149.0195  134.6480  154.2760 H   0  0  0  0  0  0  0  0  0  0  0  0
  149.1267  137.1016  153.9122 H   0  0  0  0  0  0  0  0  0  0  0  0
  149.8902  143.3464  155.9839 H   0  0  0  0  0  0  0  0  0  0  0  0
  1  2  1  0  0  0  0
  1 26  1  0  0  0  0
  1 27  1  0  0  0  0
  1 28  1  0  0  0  0
  2  3  1  0  0  0  0
  3  4  1  0  0  0  0
  3 29  1  0  0  0  0
  3 30  1  0  0  0  0
  4  5  1  0  0  0  0
  4 31  1  0  0  0  0
  4 32  1  0  0  0  0
  5 25  1  0  0  0  0
  5  6  1  0  0  0  0
  6  7  1  0  0  0  0
  6 33  1  0  0  0  0
  6 34  1  0  0  0  0
  7  8  1  0  0  0  0
  7 35  1  0  0  0  0
  7 36  1  0  0  0  0
  8  9  1  0  0  0  0
  8 24  1  0  0  0  0
  8 56  1  0  0  0  0
  9 10  1  0  0  0  0
  9 37  1  0  0  0  0
  9 38  1  0  0  0  0
 10 11  1  0  0  0  0
 10 12  1  0  0  0  0
 10 39  1  0  0  0  0
 11 40  1  0  0  0  0
 12 13  1  0  0  0  0
 12 41  1  0  0  0  0
 12 42  1  0  0  0  0
 13 23  1  0  0  0  0
 13 14  1  0  0  0  0
 14 15  2  0  0  0  0
 14 43  1  0  0  0  0
 15 16  1  0  0  0  0
 15 57  1  0  0  0  0
 16 23  2  0  0  0  0
 16 17  1  0  0  0  0
 17 18  2  0  0  0  0
 17 44  1  0  0  0  0
 18 19  1  0  0  0  0
 18 20  1  0  0  0  0
 19 45  1  0  0  0  0
 19 46  1  0  0  0  0
 19 47  1  0  0  0  0
 20 21  1  0  0  0  0
 20 22  2  0  0  0  0
 21 48  1  0  0  0  0
 21 49  1  0  0  0  0
 21 50  1  0  0  0  0
 22 23  1  0  0  0  0
 22 51  1  0  0  0  0
 24 25  1  0  0  0  0
 24 52  1  0  0  0  0
 24 53  1  0  0  0  0
 25 54  1  0  0  0  0
 25 55  1  0  0  0  0
M  CHG  1   8   1
M  CHG  1  15   1
M  END
> <s_m_source_file>
AV-unprocessed.smi

> <i_m_source_file_index>
1007

> <i_lp_mmshare_version>
43012

> <i_f3d_flags>
0

> <s_epik_input>
W0NIM11PW0NIMl1bQ0gyXU4xW0NIMl1bQ0gyXU4oW0NIMl1bQ0gyXTEpW0NIMl1bQ0BIXShbT0hdKVtDSDJdbihbY0hdbjIpYyhjMjMpW2NIXWMoW0NIM10pYyhbY0hdMylbQ0gzXQ==

> <s_epik_cmdline>
J2VwaWtfcHl0aG9uJywgJy1waCcsICc3LjAnLCAnLXRuJywgJzgnLCAnLW1hJywgJzIwMCcsICctbWV0YWxfYmluZGluZycsICctaW1hZScsICc8aW5maWxlLm1hZT4nLCAnLW9tYWUnLCAnPG91dGZpbGUubWFlPic=

> <r_epik_Ionization_Penalty>
1.19231

> <r_epik_Ionization_Penalty_Charging>
1.17974

> <r_epik_Ionization_Penalty_Neutral>
0.0125676

> <r_epik_State_Penalty>
1.24499

> <r_epik_Charging_Adjusted_Penalty>
2.42472

> <i_epik_Tot_Q>
2

> <i_epik_Tot_abs_Q>
2

> <r_epik_Metal_State_Penalty>
5.24866

> <b_epik_Metal_Only>
0

> <s_lp_Force_Field>
OPLS_2005

> <r_lp_Energy>
41.9182

> <b_lp_Chiralities_Consistent>
1

> <s_lp_Variant>
AV-unprocessed.smi:1007-6

> <Gold.Version>
5.8.1

> <Gold.Id.Protein>
6NUR|6NUR_protein|mol2

> <Gold.PLP.Fitness>
57.9957

> <Gold.PLP.PLP>
-46.0922

> <Gold.PLP.part.hbond>
-3.6907

> <Gold.PLP.part.metal>
0.0000

> <Gold.PLP.part.buried>
-5.2992

> <Gold.PLP.part.nonpolar>
-37.8951

> <Gold.PLP.part.repulsive>
0.1968

> <Gold.PLP.ligand.clash>
0.0000

> <Gold.PLP.ligand.torsion>
0.8164

> <Gold.PLP.Chemscore.Hbond>
4.4524

> <Gold.PLP.Chemscore.CHOScore>
0.0000

> <Gold.PLP.Chemscore.Metal>
0.0000

> <Gold.Chemscore.Hbonds>
donor molecule, donor type, donor heavy atom, donor atom, acceptor molecule, acceptor atom, score
      L1  H     8    56       P1  7948  1.03
      L1  H    15    57       P1  8028  2.00
      P1  H  7989  7998       L1    11  0.48

> <Gold.PLP.Chemscore.Internal.Correction>
0.1791

> <Gold.Rescore>
     Score         DG    S(hbond)    S(metal)    S(lipo)     H(rot)  DE(clash)    DE(int)     intcor
     20.74     -21.46       2.56        0.00     121.29       2.64       0.19       0.52       ----

> <Gold.Chemscore.Fitness>
20.7439

> <Gold.Chemscore.DG>
-21.4551

> <Gold.Chemscore.ZeroCoef>
-5.4800

> <Gold.Chemscore.Hbond>
2.5600

> <Gold.Chemscore.Metal>
0.0000

> <Gold.Chemscore.Lipo>
121.2929

> <Gold.Chemscore.Internal_Hbond>
0.0000

> <Gold.Chemscore.DEClash>
0.1870

> <Gold.Chemscore.DEInternal>
0.5242

> <Gold.Chemscore.Rot>
2.6432

> <Gold.Chemscore.Internal.Correction>
   9.000000E+99

> <Gold.Chemscore.Hbonds>
donor molecule, donor type, donor heavy atom, donor atom, acceptor molecule, acceptor atom, score
      L1  H     8    56       P1  7948  0.50
      L1  H    15    57       P1  8028  1.00
      P1  H  7989  7998       L1    11  0.39

> <Gold.Chemscore.Hbond.Weighted>
-8.5504

> <Gold.Chemscore.Metal.Weighted>
-0.0000

> <Gold.Chemscore.Lipo.Weighted>
-14.1913

> <Gold.Chemscore.Internal_Hbond.Weighted>
0.0000

> <Gold.Chemscore.DEClash.Weighted>
0.1870

> <Gold.Chemscore.DEInternal.Weighted>
0.5242

> <Gold.Chemscore.Rot.Weighted>
6.7665

> <Gold.Chemscore.Internal.Correction.Weighted>
   9.000000E+99

> <Gold.Protein.RotatedTorsions>
[ 6907 6896 6895 6894 ] final  -81.41 input  -60.11 | X-H torsion
[ 7974 7965 7964 7962 ] final   37.47 input  175.53 | X-H torsion
[ 8008 7997 7996 7995 ] final  -33.26 input   59.86 | X-H torsion
[ 10167 10162 10161 10158 ] final   -8.87 input  -65.29 | X-H torsion
[ 10718 10713 10712 10709 ] final   24.88 input   66.30 | X-H torsion
[ 10763 10752 10751 10750 ] final  -72.96 input  -60.55 | X-H torsion
[ 11005 11000 10999 10996 ] final -159.63 input  -57.11 | X-H torsion

> <Gold.Protein.ActiveResidues>
 VAL166  LYS551  ARG553  GLY616  TRP617  ASP618  TYR619  PRO620  LYS621  CYS622 
 ASP623  PHE694  ASN695  SER759  ASP760  ASP761  ALA762  ILE779  LEU786  VAL792 
 PHE793  MET794  SER795  GLU796  ALA797  LYS798  CYS799  TRP800  GLU811  SER814 

> <Gold.Protein.RotatedAtoms>
  150.6912  134.3821  159.5038 H   0  0  0  0  0  0  0  0  0  0  0  0  # atno 6907 bound_to 6896
  152.1622  134.8900  160.0550 H   0  0  0  0  0  0  0  0  0  0  0  0  # atno 6908 bound_to 6896
  151.9958  133.3772  159.4199 H   0  0  0  0  0  0  0  0  0  0  0  0  # atno 6909 bound_to 6896
  146.1135  139.5891  142.9336 H   0  0  0  0  0  0  0  0  0  0  0  0  # atno 7974 bound_to 7965
  154.4154  140.1715  156.1859 H   0  0  0  0  0  0  0  0  0  0  0  0  # atno 8008 bound_to 7997
  155.9643  140.3391  155.6495 H   0  0  0  0  0  0  0  0  0  0  0  0  # atno 8009 bound_to 7997
  155.6708  140.0711  157.2511 H   0  0  0  0  0  0  0  0  0  0  0  0  # atno 8010 bound_to 7997
  140.7071  143.5921  150.8883 H   0  0  0  0  0  0  0  0  0  0  0  0  # atno 10167 bound_to 10162
  157.1858  130.6823  149.6131 H   0  0  0  0  0  0  0  0  0  0  0  0  # atno 10718 bound_to 10713
  154.4529  135.5913  153.6204 H   0  0  0  0  0  0  0  0  0  0  0  0  # atno 10763 bound_to 10752
  152.9815  135.6025  154.3582 H   0  0  0  0  0  0  0  0  0  0  0  0  # atno 10764 bound_to 10752
  154.3445  135.2841  155.2384 H   0  0  0  0  0  0  0  0  0  0  0  0  # atno 10765 bound_to 10752
  140.6405  134.4556  157.5233 H   0  0  0  0  0  0  0  0  0  0  0  0  # atno 11005 bound_to 11000
  145.5614  141.0404  143.2224 LP  0  0  0  0  0  0  0  0  0  0  0  0  # atno 17320 bound_to 7965
  144.7532  139.7140  143.7264 LP  0  0  0  0  0  0  0  0  0  0  0  0  # atno 17321 bound_to 7965
  139.9646  143.6125  152.2992 LP  0  0  0  0  0  0  0  0  0  0  0  0  # atno 17342 bound_to 10162
  139.6690  144.7661  151.1819 LP  0  0  0  0  0  0  0  0  0  0  0  0  # atno 17343 bound_to 10162
  155.9718  130.4631  150.6170 LP  0  0  0  0  0  0  0  0  0  0  0  0  # atno 17370 bound_to 10713
  157.3908  131.0795  151.1395 LP  0  0  0  0  0  0  0  0  0  0  0  0  # atno 17371 bound_to 10713
  139.9082  134.8402  156.1626 LP  0  0  0  0  0  0  0  0  0  0  0  0  # atno 17394 bound_to 11000
  141.0610  133.6841  156.1953 LP  0  0  0  0  0  0  0  0  0  0  0  0  # atno 17395 bound_to 11000

$$$$
