AV-unprocessed.smi:1184|AV-procd|sdf|4970|dock5
  -GOLD-   22720 3563D 1   1.00000     0.00000
 Structure written by MMmdl.
 43 44  0  0  0  0  0  0  0  0  2 V2000
  145.4629  130.5313  151.5128 C   0  0  0  0  0  0  0  0  0  0  0  0
  145.9973  131.8400  152.1101 C   0  0  0  0  0  0  0  0  0  0  0  0
  147.4212  131.7312  152.5053 N   0  3  2  0  0  0  0  0  0  0  0  0
  147.6989  130.6367  153.4593 C   0  0  0  0  0  0  0  0  0  0  0  0
  148.9386  131.0803  154.2294 C   0  0  0  0  0  0  0  0  0  0  0  0
  148.7161  132.5851  154.3712 C   0  0  1  0  0  0  0  0  0  0  0  0
  149.9876  133.4017  154.6712 C   0  0  0  0  0  0  0  0  0  0  0  0
  149.6737  134.7526  155.1224 N   0  0  0  0  0  0  0  0  0  0  0  0
  150.4457  135.4937  155.9330 C   0  0  0  0  0  0  0  0  0  0  0  0
  151.5210  135.1028  156.3862 O   0  0  0  0  0  0  0  0  0  0  0  0
  149.9346  136.8938  156.2756 C   0  0  0  0  0  0  0  0  0  0  0  0
  150.9529  137.9318  155.8760 C   0  0  0  0  0  0  0  0  0  0  0  0
  150.7932  139.0022  154.9493 C   0  0  0  0  0  0  0  0  0  0  0  0
  149.5805  139.3696  154.1431 C   0  0  0  0  0  0  0  0  0  0  0  0
  151.8935  139.7268  154.8366 N   0  0  0  0  0  0  0  0  0  0  0  0
  152.8266  139.1432  155.6987 O   0  0  0  0  0  0  0  0  0  0  0  0
  152.2434  138.0793  156.3068 C   0  0  0  0  0  0  0  0  0  0  0  0
  153.0911  137.3174  157.2691 C   0  0  0  0  0  0  0  0  0  0  0  0
  148.0219  132.9716  153.0567 C   0  0  0  0  0  0  0  0  0  0  0  0
  144.4017  130.6208  151.2793 H   0  0  0  0  0  0  0  0  0  0  0  0
  145.5784  129.7028  152.2121 H   0  0  0  0  0  0  0  0  0  0  0  0
  145.9797  130.2667  150.5902 H   0  0  0  0  0  0  0  0  0  0  0  0
  145.8666  132.6647  151.4080 H   0  0  0  0  0  0  0  0  0  0  0  0
  145.4073  132.0841  152.9948 H   0  0  0  0  0  0  0  0  0  0  0  0
  146.8622  130.5280  154.1519 H   0  0  0  0  0  0  0  0  0  0  0  0
  147.8389  129.6837  152.9483 H   0  0  0  0  0  0  0  0  0  0  0  0
  149.0422  130.5734  155.1894 H   0  0  0  0  0  0  0  0  0  0  0  0
  149.8357  130.8805  153.6412 H   0  0  0  0  0  0  0  0  0  0  0  0
  147.9972  132.7386  155.1781 H   0  0  0  0  0  0  0  0  0  0  0  0
  150.5722  132.9133  155.4514 H   0  0  0  0  0  0  0  0  0  0  0  0
  150.6282  133.4443  153.7887 H   0  0  0  0  0  0  0  0  0  0  0  0
  148.8029  135.1521  154.8033 H   0  0  0  0  0  0  0  0  0  0  0  0
  148.9839  137.0610  155.7679 H   0  0  0  0  0  0  0  0  0  0  0  0
  149.7150  136.9355  157.3428 H   0  0  0  0  0  0  0  0  0  0  0  0
  149.0001  138.4856  153.8791 H   0  0  0  0  0  0  0  0  0  0  0  0
  149.8538  139.8712  153.2144 H   0  0  0  0  0  0  0  0  0  0  0  0
  148.9287  140.0388  154.7043 H   0  0  0  0  0  0  0  0  0  0  0  0
  152.4807  136.7022  157.9298 H   0  0  0  0  0  0  0  0  0  0  0  0
  153.6782  137.9948  157.8892 H   0  0  0  0  0  0  0  0  0  0  0  0
  153.7802  136.6612  156.7375 H   0  0  0  0  0  0  0  0  0  0  0  0
  148.7384  133.3522  152.3277 H   0  0  0  0  0  0  0  0  0  0  0  0
  147.2832  133.7557  153.2294 H   0  0  0  0  0  0  0  0  0  0  0  0
  147.9449  131.5113  151.6701 H   0  0  0  0  0  0  0  0  0  0  0  0
  1  2  1  0  0  0  0
  1 20  1  0  0  0  0
  1 21  1  0  0  0  0
  1 22  1  0  0  0  0
  2  3  1  0  0  0  0
  2 23  1  0  0  0  0
  2 24  1  0  0  0  0
  3 19  1  0  0  0  0
  3  4  1  0  0  0  0
  3 43  1  0  0  0  0
  4  5  1  0  0  0  0
  4 25  1  0  0  0  0
  4 26  1  0  0  0  0
  5  6  1  0  0  0  0
  5 27  1  0  0  0  0
  5 28  1  0  0  0  0
  6  7  1  0  0  0  0
  6 19  1  0  0  0  0
  6 29  1  0  0  0  0
  7  8  1  0  0  0  0
  7 30  1  0  0  0  0
  7 31  1  0  0  0  0
  8  9  1  0  0  0  0
  8 32  1  0  0  0  0
  9 10  2  0  0  0  0
  9 11  1  0  0  0  0
 11 12  1  0  0  0  0
 11 33  1  0  0  0  0
 11 34  1  0  0  0  0
 12 17  2  0  0  0  0
 12 13  1  0  0  0  0
 13 14  1  0  0  0  0
 13 15  2  0  0  0  0
 14 35  1  0  0  0  0
 14 36  1  0  0  0  0
 14 37  1  0  0  0  0
 15 16  1  0  0  0  0
 16 17  1  0  0  0  0
 17 18  1  0  0  0  0
 18 38  1  0  0  0  0
 18 39  1  0  0  0  0
 18 40  1  0  0  0  0
 19 41  1  0  0  0  0
 19 42  1  0  0  0  0
M  CHG  1   3   1
M  END
> <s_m_source_file>
AV-unprocessed.smi

> <i_m_source_file_index>
1184

> <i_lp_mmshare_version>
43012

> <i_f3d_flags>
0

> <s_epik_input>
W0NIM11bQ0gyXU4xW0NIMl1bQ0gyXVtDQEhdKFtDSDJdMSlbQ0gyXVtOSF1DKD1PKVtDSDJdYzJjKFtDSDNdKW5vYzJbQ0gzXQ==

> <s_epik_cmdline>
J2VwaWtfcHl0aG9uJywgJy1waCcsICc3LjAnLCAnLXRuJywgJzgnLCAnLW1hJywgJzIwMCcsICctbWV0YWxfYmluZGluZycsICctaW1hZScsICc8aW5maWxlLm1hZT4nLCAnLW9tYWUnLCAnPG91dGZpbGUubWFlPic=

> <r_epik_Ionization_Penalty>
0.000590726

> <r_epik_Ionization_Penalty_Charging>
0.000590692

> <r_epik_Ionization_Penalty_Neutral>
3.44741e-08

> <r_epik_State_Penalty>
0.000371644

> <r_epik_Charging_Adjusted_Penalty>
0.000962336

> <i_epik_Tot_Q>
1

> <i_epik_Tot_abs_Q>
1

> <r_epik_Metal_State_Penalty>
-0

> <b_epik_Metal_Only>
0

> <s_lp_Force_Field>
OPLS_2005

> <r_lp_Energy>
22.2982

> <b_lp_Chiralities_Consistent>
1

> <s_lp_Variant>
AV-unprocessed.smi:1184-2

> <Gold.Version>
5.8.1

> <Gold.Id.Protein>
6NUR|6NUR_protein|mol2

> <Gold.PLP.Fitness>
42.4738

> <Gold.PLP.PLP>
-31.0809

> <Gold.PLP.part.hbond>
-4.0000

> <Gold.PLP.part.metal>
0.0000

> <Gold.PLP.part.buried>
-4.0302

> <Gold.PLP.part.nonpolar>
-22.5797

> <Gold.PLP.part.repulsive>
0.1127

> <Gold.PLP.ligand.clash>
0.0000

> <Gold.PLP.ligand.torsion>
0.3068

> <Gold.PLP.Chemscore.Hbond>
3.9920

> <Gold.PLP.Chemscore.CHOScore>
0.0000

> <Gold.PLP.Chemscore.Metal>
0.0000

> <Gold.Chemscore.Hbonds>
donor molecule, donor type, donor heavy atom, donor atom, acceptor molecule, acceptor atom, score
      L1  H     3    43       P1 10747  1.00
      P1  H  7989  7998       L1    15  0.96
      P1  H  7997  8009       L1    16  1.00
      P1  H 10752 10764       L1    10  0.76

> <Gold.PLP.Chemscore.Internal.Correction>
0.0306

> <Gold.Rescore>
     Score         DG    S(hbond)    S(metal)    S(lipo)     H(rot)  DE(clash)    DE(int)     intcor
     21.22     -23.42       3.89        0.00      78.81       1.67       0.55       1.64       ----

> <Gold.Chemscore.Fitness>
21.2214

> <Gold.Chemscore.DG>
-23.4164

> <Gold.Chemscore.ZeroCoef>
-5.4800

> <Gold.Chemscore.Hbond>
3.8884

> <Gold.Chemscore.Metal>
0.0000

> <Gold.Chemscore.Lipo>
78.8060

> <Gold.Chemscore.Internal_Hbond>
0.0000

> <Gold.Chemscore.DEClash>
0.5518

> <Gold.Chemscore.DEInternal>
1.6432

> <Gold.Chemscore.Rot>
1.6684

> <Gold.Chemscore.Internal.Correction>
   9.000000E+99

> <Gold.Chemscore.Hbonds>
donor molecule, donor type, donor heavy atom, donor atom, acceptor molecule, acceptor atom, score
      L1  H     3    43       P1 10747  1.00
      P1  H  7989  7998       L1    15  0.60
      P1  H  7997  8009       L1    16  0.86
      P1  H 10752 10764       L1    10  0.54

> <Gold.Chemscore.Hbond.Weighted>
-12.9873

> <Gold.Chemscore.Metal.Weighted>
-0.0000

> <Gold.Chemscore.Lipo.Weighted>
-9.2203

> <Gold.Chemscore.Internal_Hbond.Weighted>
0.0000

> <Gold.Chemscore.DEClash.Weighted>
0.5518

> <Gold.Chemscore.DEInternal.Weighted>
1.6432

> <Gold.Chemscore.Rot.Weighted>
4.2712

> <Gold.Chemscore.Internal.Correction.Weighted>
   9.000000E+99

> <Gold.Protein.RotatedTorsions>
[ 6907 6896 6895 6894 ] final  150.07 input  -60.11 | X-H torsion
[ 7974 7965 7964 7962 ] final -139.73 input  175.53 | X-H torsion
[ 8008 7997 7996 7995 ] final -136.21 input   59.86 | X-H torsion
[ 10167 10162 10161 10158 ] final -173.00 input  -65.29 | X-H torsion
[ 10718 10713 10712 10709 ] final    9.40 input   66.30 | X-H torsion
[ 10763 10752 10751 10750 ] final  -35.07 input  -60.55 | X-H torsion
[ 11005 11000 10999 10996 ] final   76.80 input  -57.11 | X-H torsion

> <Gold.Protein.ActiveResidues>
 VAL166  LYS551  ARG553  GLY616  TRP617  ASP618  TYR619  PRO620  LYS621  CYS622 
 ASP623  PHE694  ASN695  SER759  ASP760  ASP761  ALA762  ILE779  LEU786  VAL792 
 PHE793  MET794  SER795  GLU796  ALA797  LYS798  CYS799  TRP800  GLU811  SER814 

> <Gold.Protein.RotatedAtoms>
  152.1194  133.4345  159.4668 H   0  0  0  0  0  0  0  0  0  0  0  0  # atno 6907 bound_to 6896
  150.6871  134.2553  159.4536 H   0  0  0  0  0  0  0  0  0  0  0  0  # atno 6908 bound_to 6896
  152.0428  134.9700  160.0624 H   0  0  0  0  0  0  0  0  0  0  0  0  # atno 6909 bound_to 6896
  144.8653  140.6283  143.5302 H   0  0  0  0  0  0  0  0  0  0  0  0  # atno 7974 bound_to 7965
  155.3915  140.0500  157.3040 H   0  0  0  0  0  0  0  0  0  0  0  0  # atno 8008 bound_to 7997
  154.5034  140.2165  155.9262 H   0  0  0  0  0  0  0  0  0  0  0  0  # atno 8009 bound_to 7997
  156.1495  140.3138  155.8630 H   0  0  0  0  0  0  0  0  0  0  0  0  # atno 8010 bound_to 7997
  139.5713  144.1636  152.1387 H   0  0  0  0  0  0  0  0  0  0  0  0  # atno 10167 bound_to 10162
  156.9658  130.5950  149.5665 H   0  0  0  0  0  0  0  0  0  0  0  0  # atno 10718 bound_to 10713
  153.8572  135.6843  153.4786 H   0  0  0  0  0  0  0  0  0  0  0  0  # atno 10763 bound_to 10752
  153.1363  135.4676  154.9425 H   0  0  0  0  0  0  0  0  0  0  0  0  # atno 10764 bound_to 10752
  154.7775  135.3258  154.8009 H   0  0  0  0  0  0  0  0  0  0  0  0  # atno 10765 bound_to 10752
  139.9282  134.7631  156.1442 H   0  0  0  0  0  0  0  0  0  0  0  0  # atno 11005 bound_to 11000
  145.4233  139.1560  143.4062 LP  0  0  0  0  0  0  0  0  0  0  0  0  # atno 17320 bound_to 7965
  146.2891  140.4345  142.8746 LP  0  0  0  0  0  0  0  0  0  0  0  0  # atno 17321 bound_to 7965
  140.1169  144.5408  150.6888 LP  0  0  0  0  0  0  0  0  0  0  0  0  # atno 17342 bound_to 10162
  140.6997  143.2426  151.4900 LP  0  0  0  0  0  0  0  0  0  0  0  0  # atno 17343 bound_to 10162
  156.0303  130.5395  150.8516 LP  0  0  0  0  0  0  0  0  0  0  0  0  # atno 17370 bound_to 10713
  157.5626  131.0946  150.9536 LP  0  0  0  0  0  0  0  0  0  0  0  0  # atno 17371 bound_to 10713
  141.0854  133.6736  156.2424 LP  0  0  0  0  0  0  0  0  0  0  0  0  # atno 17394 bound_to 11000
  140.6276  134.5297  157.5555 LP  0  0  0  0  0  0  0  0  0  0  0  0  # atno 17395 bound_to 11000

$$$$
