AV-unprocessed.smi:2118|AV-procd|sdf|8629|dock3
  -GOLD-   2272011373D 1   1.00000     0.00000
 Structure written by MMmdl.
 39 40  0  0  0  0  0  0  0  0  2 V2000
  151.8373  145.3377  159.7875 C   0  0  0  0  0  0  0  0  0  0  0  0
  152.2822  144.0592  159.0631 C   0  0  0  0  0  0  0  0  0  0  0  0
  151.1414  143.4389  158.2470 C   0  0  0  0  0  0  0  0  0  0  0  0
  151.5947  142.1607  157.5213 C   0  0  0  0  0  0  0  0  0  0  0  0
  152.1728  141.1728  158.4560 N   0  0  0  0  0  0  0  0  0  0  0  0
  152.3836  139.5555  157.8490 S   0  0  0  0  0  0  0  0  0  0  0  0
  153.6695  139.0724  158.3785 O   0  0  0  0  0  0  0  0  0  0  0  0
  151.1658  138.8222  158.2323 O   0  0  0  0  0  0  0  0  0  0  0  0
  152.4598  139.9238  156.2718 N   0  5  0  0  0  0  0  0  0  0  0  0
  151.3737  139.5095  155.4023 C   0  0  0  0  0  0  0  0  0  0  0  0
  150.0688  140.2155  155.8227 C   0  0  0  0  0  0  0  0  0  0  0  0
  148.9514  140.1039  154.7932 C   0  0  0  0  0  0  0  0  0  0  0  0
  148.5262  138.8444  154.3170 C   0  0  0  0  0  0  0  0  0  0  0  0
  147.4817  138.7897  153.3741 C   0  0  0  0  0  0  0  0  0  0  0  0
  146.9004  139.9999  152.9467 C   0  0  0  0  0  0  0  0  0  0  0  0
  147.2911  141.2108  153.3981 N   0  0  0  0  0  0  0  0  0  0  0  0
  148.2938  141.2547  154.3023 C   0  0  0  0  0  0  0  0  0  0  0  0
  153.2523  141.7259  159.3064 C   0  0  0  0  0  0  0  0  0  0  0  0
  152.8044  142.9996  160.0419 C   0  0  0  0  0  0  0  0  0  0  0  0
  151.0311  145.1343  160.4933 H   0  0  0  0  0  0  0  0  0  0  0  0
  151.4793  146.0854  159.0790 H   0  0  0  0  0  0  0  0  0  0  0  0
  152.6635  145.7807  160.3442 H   0  0  0  0  0  0  0  0  0  0  0  0
  153.0899  144.3257  158.3795 H   0  0  0  0  0  0  0  0  0  0  0  0
  150.3013  143.2042  158.9026 H   0  0  0  0  0  0  0  0  0  0  0  0
  150.7705  144.1590  157.5168 H   0  0  0  0  0  0  0  0  0  0  0  0
  150.7384  141.7260  157.0065 H   0  0  0  0  0  0  0  0  0  0  0  0
  152.3354  142.3988  156.7569 H   0  0  0  0  0  0  0  0  0  0  0  0
  151.5815  139.7462  154.3581 H   0  0  0  0  0  0  0  0  0  0  0  0
  151.2238  138.4299  155.4412 H   0  0  0  0  0  0  0  0  0  0  0  0
  149.7117  139.8026  156.7674 H   0  0  0  0  0  0  0  0  0  0  0  0
  150.2631  141.2729  156.0086 H   0  0  0  0  0  0  0  0  0  0  0  0
  148.9937  137.9355  154.6669 H   0  0  0  0  0  0  0  0  0  0  0  0
  147.1348  137.8429  152.9878 H   0  0  0  0  0  0  0  0  0  0  0  0
  146.0978  139.9948  152.2240 H   0  0  0  0  0  0  0  0  0  0  0  0
  148.5817  142.2385  154.6433 H   0  0  0  0  0  0  0  0  0  0  0  0
  153.5740  140.9874  160.0397 H   0  0  0  0  0  0  0  0  0  0  0  0
  154.1192  141.9386  158.6796 H   0  0  0  0  0  0  0  0  0  0  0  0
  153.6411  143.4004  160.6149 H   0  0  0  0  0  0  0  0  0  0  0  0
  152.0281  142.7466  160.7658 H   0  0  0  0  0  0  0  0  0  0  0  0
  1  2  1  0  0  0  0
  1 20  1  0  0  0  0
  1 21  1  0  0  0  0
  1 22  1  0  0  0  0
  2 19  1  0  0  0  0
  2  3  1  0  0  0  0
  2 23  1  0  0  0  0
  3  4  1  0  0  0  0
  3 24  1  0  0  0  0
  3 25  1  0  0  0  0
  4  5  1  0  0  0  0
  4 26  1  0  0  0  0
  4 27  1  0  0  0  0
  5  6  1  0  0  0  0
  5 18  1  0  0  0  0
  6  7  2  0  0  0  0
  6  8  2  0  0  0  0
  6  9  1  0  0  0  0
  9 10  1  0  0  0  0
 10 11  1  0  0  0  0
 10 28  1  0  0  0  0
 10 29  1  0  0  0  0
 11 12  1  0  0  0  0
 11 30  1  0  0  0  0
 11 31  1  0  0  0  0
 12 17  1  0  0  0  0
 12 13  2  0  0  0  0
 13 14  1  0  0  0  0
 13 32  1  0  0  0  0
 14 15  2  0  0  0  0
 14 33  1  0  0  0  0
 15 16  1  0  0  0  0
 15 34  1  0  0  0  0
 16 17  2  0  0  0  0
 17 35  1  0  0  0  0
 18 19  1  0  0  0  0
 18 36  1  0  0  0  0
 18 37  1  0  0  0  0
 19 38  1  0  0  0  0
 19 39  1  0  0  0  0
M  CHG  1   9  -1
M  END
> <s_m_source_file>
AV-unprocessed.smi

> <i_m_source_file_index>
2118

> <i_lp_mmshare_version>
43012

> <i_f3d_flags>
0

> <s_epik_input>
W0NIM11bQ0hdMVtDSDJdW0NIMl1OKFtDSDJdW0NIMl0xKVMoPU8pKD1PKVtOSF1bQ0gyXVtDSDJdYzJbY0hdW2NIXVtjSF1uW2NIXTI=

> <s_epik_cmdline>
J2VwaWtfcHl0aG9uJywgJy1waCcsICc3LjAnLCAnLXRuJywgJzgnLCAnLW1hJywgJzIwMCcsICctbWV0YWxfYmluZGluZycsICctaW1hZScsICc8aW5maWxlLm1hZT4nLCAnLW9tYWUnLCAnPG91dGZpbGUubWFlPic=

> <r_epik_Ionization_Penalty>
1.98317

> <r_epik_Ionization_Penalty_Charging>
1.95606

> <r_epik_Ionization_Penalty_Neutral>
0.0271171

> <r_epik_State_Penalty>
2.28376

> <r_epik_Charging_Adjusted_Penalty>
4.23982

> <i_epik_Tot_Q>
-1

> <i_epik_Tot_abs_Q>
1

> <r_epik_Metal_State_Penalty>
0.598332

> <b_epik_Metal_Only>
0

> <s_lp_Force_Field>
OPLS_2005

> <r_lp_Energy>
6.66289

> <b_lp_Chiralities_Consistent>
1

> <s_lp_Variant>
AV-unprocessed.smi:2118-2

> <Gold.Version>
5.8.1

> <Gold.Id.Protein>
6NUR|6NUR_protein|mol2

> <Gold.PLP.Fitness>
47.6660

> <Gold.PLP.PLP>
-37.8154

> <Gold.PLP.part.hbond>
-2.0000

> <Gold.PLP.part.metal>
0.0000

> <Gold.PLP.part.buried>
-0.7705

> <Gold.PLP.part.nonpolar>
-34.0799

> <Gold.PLP.part.repulsive>
0.1825

> <Gold.PLP.ligand.clash>
1.6604

> <Gold.PLP.ligand.torsion>
1.1170

> <Gold.PLP.Chemscore.Hbond>
2.0706

> <Gold.PLP.Chemscore.CHOScore>
2.0000

> <Gold.PLP.Chemscore.Metal>
0.0000

> <Gold.Chemscore.Hbonds>
donor molecule, donor type, donor heavy atom, donor atom, acceptor molecule, acceptor atom, score
      P1  H  7997  8008       L1     9  1.92
      P1  H  7997  8010       L1     7  0.13
      L1  C    15    34       P1 10175  1.00
      L1  C    17    35       P1  8028  0.63

> <Gold.PLP.Chemscore.Internal.Correction>
1.5334

> <Gold.Rescore>
     Score         DG    S(hbond)    S(metal)    S(lipo)     H(rot)  DE(clash)    DE(int)     intcor
     14.50     -16.49       0.59        0.00     108.38       1.42       0.07       1.92       ----

> <Gold.Chemscore.Fitness>
14.5032

> <Gold.Chemscore.DG>
-16.4905

> <Gold.Chemscore.ZeroCoef>
-5.4800

> <Gold.Chemscore.Hbond>
0.5897

> <Gold.Chemscore.Metal>
0.0000

> <Gold.Chemscore.Lipo>
108.3759

> <Gold.Chemscore.Internal_Hbond>
0.0000

> <Gold.Chemscore.DEClash>
0.0680

> <Gold.Chemscore.DEInternal>
1.9193

> <Gold.Chemscore.Rot>
1.4216

> <Gold.Chemscore.Internal.Correction>
   9.000000E+99

> <Gold.Chemscore.Hbonds>
donor molecule, donor type, donor heavy atom, donor atom, acceptor molecule, acceptor atom, score
      P1  H  7997  8008       L1     9  0.27
      P1  H  7997  8010       L1     7  0.10

> <Gold.Chemscore.Hbond.Weighted>
-1.9698

> <Gold.Chemscore.Metal.Weighted>
-0.0000

> <Gold.Chemscore.Lipo.Weighted>
-12.6800

> <Gold.Chemscore.Internal_Hbond.Weighted>
0.0000

> <Gold.Chemscore.DEClash.Weighted>
0.0680

> <Gold.Chemscore.DEInternal.Weighted>
1.9193

> <Gold.Chemscore.Rot.Weighted>
3.6392

> <Gold.Chemscore.Internal.Correction.Weighted>
   9.000000E+99

> <Gold.Protein.RotatedTorsions>
[ 6907 6896 6895 6894 ] final   88.46 input  -60.11 | X-H torsion
[ 7974 7965 7964 7962 ] final -178.16 input  175.53 | X-H torsion
[ 8008 7997 7996 7995 ] final  -23.23 input   59.86 | X-H torsion
[ 10167 10162 10161 10158 ] final  -82.84 input  -65.29 | X-H torsion
[ 10718 10713 10712 10709 ] final  -35.43 input   66.30 | X-H torsion
[ 10763 10752 10751 10750 ] final  117.28 input  -60.55 | X-H torsion
[ 11005 11000 10999 10996 ] final  -39.60 input  -57.11 | X-H torsion

> <Gold.Protein.ActiveResidues>
 VAL166  LYS551  ARG553  GLY616  TRP617  ASP618  TYR619  PRO620  LYS621  CYS622 
 ASP623  PHE694  ASN695  SER759  ASP760  ASP761  ALA762  ILE779  LEU786  VAL792 
 PHE793  MET794  SER795  GLU796  ALA797  LYS798  CYS799  TRP800  GLU811  SER814 

> <Gold.Protein.RotatedAtoms>
  152.5425  134.2118  159.8752 H   0  0  0  0  0  0  0  0  0  0  0  0  # atno 6907 bound_to 6896
  151.2100  133.4554  159.2605 H   0  0  0  0  0  0  0  0  0  0  0  0  # atno 6908 bound_to 6896
  151.0906  134.9926  159.8456 H   0  0  0  0  0  0  0  0  0  0  0  0  # atno 6909 bound_to 6896
  144.7130  140.0911  143.6421 H   0  0  0  0  0  0  0  0  0  0  0  0  # atno 7974 bound_to 7965
  154.4597  140.1986  156.0279 H   0  0  0  0  0  0  0  0  0  0  0  0  # atno 8008 bound_to 7997
  156.0816  140.3271  155.7673 H   0  0  0  0  0  0  0  0  0  0  0  0  # atno 8009 bound_to 7997
  155.5102  140.0561  157.2915 H   0  0  0  0  0  0  0  0  0  0  0  0  # atno 8010 bound_to 7997
  140.4283  143.2558  151.8795 H   0  0  0  0  0  0  0  0  0  0  0  0  # atno 10167 bound_to 10162
  156.3387  130.4290  149.7807 H   0  0  0  0  0  0  0  0  0  0  0  0  # atno 10718 bound_to 10713
  153.5500  135.3541  155.2755 H   0  0  0  0  0  0  0  0  0  0  0  0  # atno 10763 bound_to 10752
  154.8708  135.4111  154.2947 H   0  0  0  0  0  0  0  0  0  0  0  0  # atno 10764 bound_to 10752
  153.3672  135.7062  153.6735 H   0  0  0  0  0  0  0  0  0  0  0  0  # atno 10765 bound_to 10752
  141.0114  133.6906  156.2208 H   0  0  0  0  0  0  0  0  0  0  0  0  # atno 11005 bound_to 11000
  145.9619  139.2807  143.1150 LP  0  0  0  0  0  0  0  0  0  0  0  0  # atno 17320 bound_to 7965
  145.9211  140.9115  143.0405 LP  0  0  0  0  0  0  0  0  0  0  0  0  # atno 17321 bound_to 7965
  139.4784  144.5363  151.8594 LP  0  0  0  0  0  0  0  0  0  0  0  0  # atno 17342 bound_to 10162
  140.4456  144.1926  150.5894 LP  0  0  0  0  0  0  0  0  0  0  0  0  # atno 17343 bound_to 10162
  156.5052  130.8147  151.3148 LP  0  0  0  0  0  0  0  0  0  0  0  0  # atno 17370 bound_to 10713
  157.7443  130.9932  150.2663 LP  0  0  0  0  0  0  0  0  0  0  0  0  # atno 17371 bound_to 10713
  140.6728  134.4850  157.5587 LP  0  0  0  0  0  0  0  0  0  0  0  0  # atno 17394 bound_to 11000
  139.9092  134.8382  156.1592 LP  0  0  0  0  0  0  0  0  0  0  0  0  # atno 17395 bound_to 11000

$$$$
