AV-unprocessed.smi:1550|AV-procd|sdf|6230|dock3
  -GOLD-   22720 6413D 1   1.00000     0.00000
 Structure written by MMmdl.
 42 43  0  0  0  0  0  0  0  0  2 V2000
  147.2058  140.9306  154.2168 C   0  0  0  0  0  0  0  0  0  0  0  0
  148.0589  139.6560  154.2986 C   0  0  2  0  0  0  0  0  0  0  0  0
  147.3698  138.7312  155.1347 O   0  0  0  0  0  0  0  0  0  0  0  0
  147.2165  137.4211  154.5983 C   0  0  0  0  0  0  0  0  0  0  0  0
  145.9061  137.3376  153.8036 C   0  0  1  0  0  0  0  0  0  0  0  0
  145.7747  136.0346  152.9895 C   0  0  0  0  0  0  0  0  0  0  0  0
  144.4262  135.9932  152.2623 C   0  0  0  0  0  0  0  0  0  0  0  0
  143.2923  136.2364  153.2647 C   0  0  0  0  0  0  0  0  0  0  0  0
  143.5451  137.5290  154.0581 C   0  0  0  0  0  0  0  0  0  0  0  0
  144.8113  137.4677  154.7081 O   0  0  0  0  0  0  0  0  0  0  0  0
  149.4556  139.9490  154.8707 C   0  0  0  0  0  0  0  0  0  0  0  0
  150.4515  139.6271  154.2234 O   0  0  0  0  0  0  0  0  0  0  0  0
  149.4657  140.5619  156.0709 N   0  0  0  0  0  0  0  0  0  0  0  0
  150.5444  140.9928  156.8634 C   0  0  0  0  0  0  0  0  0  0  0  0
  150.6530  142.2194  157.4464 C   0  0  0  0  0  0  0  0  0  0  0  0
  151.8029  142.5989  158.2582 C   0  0  0  0  0  0  0  0  0  0  0  0
  151.9216  143.9282  158.9829 C   0  0  0  0  0  0  0  0  0  0  0  0
  152.2394  143.7491  160.2652 F   0  0  0  0  0  0  0  0  0  0  0  0
  152.8743  144.6689  158.4185 F   0  0  0  0  0  0  0  0  0  0  0  0
  150.7768  144.6088  158.9246 F   0  0  0  0  0  0  0  0  0  0  0  0
  152.7215  141.5742  158.3781 C   0  0  0  0  0  0  0  0  0  0  0  0
  152.6955  140.3403  157.8291 N   0  5  0  0  0  0  0  0  0  0  0  0
  151.6206  139.9994  157.0637 C   0  0  0  0  0  0  0  0  0  0  0  0
  151.5307  138.8881  156.5402 O   0  0  0  0  0  0  0  0  0  0  0  0
  147.6901  141.6927  153.6051 H   0  0  0  0  0  0  0  0  0  0  0  0
  147.0237  141.3576  155.2039 H   0  0  0  0  0  0  0  0  0  0  0  0
  146.2355  140.7164  153.7683 H   0  0  0  0  0  0  0  0  0  0  0  0
  148.1469  139.2411  153.2925 H   0  0  0  0  0  0  0  0  0  0  0  0
  148.0613  137.1801  153.9515 H   0  0  0  0  0  0  0  0  0  0  0  0
  147.1961  136.6767  155.3946 H   0  0  0  0  0  0  0  0  0  0  0  0
  145.8813  138.1868  153.1183 H   0  0  0  0  0  0  0  0  0  0  0  0
  146.5914  135.9522  152.2716 H   0  0  0  0  0  0  0  0  0  0  0  0
  145.8526  135.1708  153.6510 H   0  0  0  0  0  0  0  0  0  0  0  0
  144.4026  136.7600  151.4870 H   0  0  0  0  0  0  0  0  0  0  0  0
  144.2929  135.0343  151.7606 H   0  0  0  0  0  0  0  0  0  0  0  0
  142.3354  136.2937  152.7450 H   0  0  0  0  0  0  0  0  0  0  0  0
  143.2247  135.3937  153.9539 H   0  0  0  0  0  0  0  0  0  0  0  0
  143.5043  138.4006  153.4031 H   0  0  0  0  0  0  0  0  0  0  0  0
  142.7694  137.6625  154.8121 H   0  0  0  0  0  0  0  0  0  0  0  0
  148.5607  140.7367  156.4834 H   0  0  0  0  0  0  0  0  0  0  0  0
  149.8826  142.9626  157.3324 H   0  0  0  0  0  0  0  0  0  0  0  0
  153.6101  141.7754  159.0141 H   0  0  0  0  0  0  0  0  0  0  0  0
  1  2  1  0  0  0  0
  1 25  1  0  0  0  0
  1 26  1  0  0  0  0
  1 27  1  0  0  0  0
  2  3  1  0  0  0  0
  2 11  1  0  0  0  0
  2 28  1  0  0  0  0
  3  4  1  0  0  0  0
  4  5  1  0  0  0  0
  4 29  1  0  0  0  0
  4 30  1  0  0  0  0
  5 10  1  0  0  0  0
  5  6  1  0  0  0  0
  5 31  1  0  0  0  0
  6  7  1  0  0  0  0
  6 32  1  0  0  0  0
  6 33  1  0  0  0  0
  7  8  1  0  0  0  0
  7 34  1  0  0  0  0
  7 35  1  0  0  0  0
  8  9  1  0  0  0  0
  8 36  1  0  0  0  0
  8 37  1  0  0  0  0
  9 10  1  0  0  0  0
  9 38  1  0  0  0  0
  9 39  1  0  0  0  0
 11 12  2  0  0  0  0
 11 13  1  0  0  0  0
 13 14  1  0  0  0  0
 13 40  1  0  0  0  0
 14 23  1  0  0  0  0
 14 15  2  0  0  0  0
 15 16  1  0  0  0  0
 15 41  1  0  0  0  0
 16 17  1  0  0  0  0
 16 21  2  0  0  0  0
 17 18  1  0  0  0  0
 17 19  1  0  0  0  0
 17 20  1  0  0  0  0
 21 22  1  0  0  0  0
 21 42  1  0  0  0  0
 22 23  1  0  0  0  0
 23 24  2  0  0  0  0
M  CHG  1  22  -1
M  END
> <s_m_source_file>
AV-unprocessed.smi

> <i_m_source_file_index>
1550

> <i_lp_mmshare_version>
43012

> <i_f3d_flags>
0

> <s_epik_input>
TzFbQ0gyXVtDSDJdW0NIMl1bQ0gyXVtDQEhdMVtDSDJdT1tDQEBIXShbQ0gzXSlDKD1PKVtOSF1jMltjSF1jKEMoRikoRilGKVtjSF1bbkhdYzI9Tw==

> <s_epik_cmdline>
J2VwaWtfcHl0aG9uJywgJy1waCcsICc3LjAnLCAnLXRuJywgJzgnLCAnLW1hJywgJzIwMCcsICctbWV0YWxfYmluZGluZycsICctaW1hZScsICc8aW5maWxlLm1hZT4nLCAnLW9tYWUnLCAnPG91dGZpbGUubWFlPic=

> <r_epik_Ionization_Penalty>
2.54933

> <r_epik_Ionization_Penalty_Charging>
0.0583423

> <r_epik_Ionization_Penalty_Neutral>
2.49099

> <r_epik_State_Penalty>
2.65532

> <r_epik_Charging_Adjusted_Penalty>
2.71366

> <i_epik_Tot_Q>
-1

> <i_epik_Tot_abs_Q>
1

> <r_epik_Metal_State_Penalty>
0.516364

> <b_epik_Metal_Only>
0

> <s_lp_Force_Field>
OPLS_2005

> <r_lp_Energy>
26.7738

> <b_lp_Chiralities_Consistent>
1

> <s_lp_Variant>
AV-unprocessed.smi:1550-7

> <Gold.Version>
5.8.1

> <Gold.Id.Protein>
6NUR|6NUR_protein|mol2

> <Gold.PLP.Fitness>
41.2200

> <Gold.PLP.PLP>
-35.5253

> <Gold.PLP.part.hbond>
-2.0000

> <Gold.PLP.part.metal>
0.0000

> <Gold.PLP.part.buried>
-4.8097

> <Gold.PLP.part.nonpolar>
-28.6490

> <Gold.PLP.part.repulsive>
0.3190

> <Gold.PLP.ligand.clash>
0.0000

> <Gold.PLP.ligand.torsion>
1.7274

> <Gold.PLP.Chemscore.Hbond>
3.0000

> <Gold.PLP.Chemscore.CHOScore>
0.0000

> <Gold.PLP.Chemscore.Metal>
0.0000

> <Gold.Chemscore.Hbonds>
donor molecule, donor type, donor heavy atom, donor atom, acceptor molecule, acceptor atom, score
      P1  H  7989  7998       L1    12  1.00
      P1  H  7997  8008       L1    22  1.84

> <Gold.PLP.Chemscore.Internal.Correction>
0.1494

> <Gold.Rescore>
     Score         DG    S(hbond)    S(metal)    S(lipo)     H(rot)  DE(clash)    DE(int)     intcor
      8.99     -14.30       1.59        0.00      70.01       1.82       0.03       5.28       ----

> <Gold.Chemscore.Fitness>
8.9894

> <Gold.Chemscore.DG>
-14.3005

> <Gold.Chemscore.ZeroCoef>
-5.4800

> <Gold.Chemscore.Hbond>
1.5863

> <Gold.Chemscore.Metal>
0.0000

> <Gold.Chemscore.Lipo>
70.0058

> <Gold.Chemscore.Internal_Hbond>
0.0000

> <Gold.Chemscore.DEClash>
0.0325

> <Gold.Chemscore.DEInternal>
5.2785

> <Gold.Chemscore.Rot>
1.8236

> <Gold.Chemscore.Internal.Correction>
   9.000000E+99

> <Gold.Chemscore.Hbonds>
donor molecule, donor type, donor heavy atom, donor atom, acceptor molecule, acceptor atom, score
      P1  H  7989  7998       L1    12  0.99
      P1  H  7997  8008       L1    22  0.43

> <Gold.Chemscore.Hbond.Weighted>
-5.2982

> <Gold.Chemscore.Metal.Weighted>
-0.0000

> <Gold.Chemscore.Lipo.Weighted>
-8.1907

> <Gold.Chemscore.Internal_Hbond.Weighted>
0.0000

> <Gold.Chemscore.DEClash.Weighted>
0.0325

> <Gold.Chemscore.DEInternal.Weighted>
5.2785

> <Gold.Chemscore.Rot.Weighted>
4.6684

> <Gold.Chemscore.Internal.Correction.Weighted>
   9.000000E+99

> <Gold.Protein.RotatedTorsions>
[ 6907 6896 6895 6894 ] final  -42.40 input  -60.11 | X-H torsion
[ 7974 7965 7964 7962 ] final -119.22 input  175.53 | X-H torsion
[ 8008 7997 7996 7995 ] final  -73.22 input   59.86 | X-H torsion
[ 10167 10162 10161 10158 ] final -154.26 input  -65.29 | X-H torsion
[ 10718 10713 10712 10709 ] final   -9.21 input   66.30 | X-H torsion
[ 10763 10752 10751 10750 ] final  123.48 input  -60.55 | X-H torsion
[ 11005 11000 10999 10996 ] final  165.86 input  -57.11 | X-H torsion

> <Gold.Protein.ActiveResidues>
 VAL166  LYS551  ARG553  GLY616  TRP617  ASP618  TYR619  PRO620  LYS621  CYS622 
 ASP623  PHE694  ASN695  SER759  ASP760  ASP761  ALA762  ILE779  LEU786  VAL792 
 PHE793  MET794  SER795  GLU796  ALA797  LYS798  CYS799  TRP800  GLU811  SER814 

> <Gold.Protein.RotatedAtoms>
  150.9557  134.8951  159.7699 H   0  0  0  0  0  0  0  0  0  0  0  0  # atno 6907 bound_to 6896
  152.5137  134.3744  159.9339 H   0  0  0  0  0  0  0  0  0  0  0  0  # atno 6908 bound_to 6896
  151.3758  133.3798  159.2739 H   0  0  0  0  0  0  0  0  0  0  0  0  # atno 6909 bound_to 6896
  145.0650  140.8317  143.4130 H   0  0  0  0  0  0  0  0  0  0  0  0  # atno 7974 bound_to 7965
  154.5229  140.0783  156.8206 H   0  0  0  0  0  0  0  0  0  0  0  0  # atno 8008 bound_to 7997
  155.3537  140.3414  155.4221 H   0  0  0  0  0  0  0  0  0  0  0  0  # atno 8009 bound_to 7997
  156.1701  140.1617  156.8449 H   0  0  0  0  0  0  0  0  0  0  0  0  # atno 8010 bound_to 7997
  139.7028  143.9234  152.2436 H   0  0  0  0  0  0  0  0  0  0  0  0  # atno 10167 bound_to 10162
  156.6914  130.5066  149.5942 H   0  0  0  0  0  0  0  0  0  0  0  0  # atno 10718 bound_to 10713
  153.6462  135.3371  155.3086 H   0  0  0  0  0  0  0  0  0  0  0  0  # atno 10763 bound_to 10752
  154.8548  135.4330  154.1953 H   0  0  0  0  0  0  0  0  0  0  0  0  # atno 10764 bound_to 10752
  153.2884  135.7015  153.7391 H   0  0  0  0  0  0  0  0  0  0  0  0  # atno 10765 bound_to 10752
  140.2605  134.7906  157.3585 H   0  0  0  0  0  0  0  0  0  0  0  0  # atno 11005 bound_to 11000
  145.1363  139.2600  143.5513 LP  0  0  0  0  0  0  0  0  0  0  0  0  # atno 17320 bound_to 7965
  146.3526  140.1027  142.8607 LP  0  0  0  0  0  0  0  0  0  0  0  0  # atno 17321 bound_to 7965
  139.9082  144.6872  150.8591 LP  0  0  0  0  0  0  0  0  0  0  0  0  # atno 17342 bound_to 10162
  140.7714  143.3463  151.2104 LP  0  0  0  0  0  0  0  0  0  0  0  0  # atno 17343 bound_to 10162
  156.1795  130.6489  151.0934 LP  0  0  0  0  0  0  0  0  0  0  0  0  # atno 17370 bound_to 10713
  157.7007  131.0777  150.6828 LP  0  0  0  0  0  0  0  0  0  0  0  0  # atno 17371 bound_to 10713
  140.1469  134.4899  155.7989 LP  0  0  0  0  0  0  0  0  0  0  0  0  # atno 17394 bound_to 11000
  141.2191  133.6847  156.7310 LP  0  0  0  0  0  0  0  0  0  0  0  0  # atno 17395 bound_to 11000

$$$$
