AV-unprocessed.smi:3245|AV-procd|sdf|12408|dock1
  -GOLD-   2272018283D 1   1.00000     0.00000
 Structure written by MMmdl.
 34 35  0  0  0  0  0  0  0  0  2 V2000
  147.2112  140.8198  153.8621 C   0  0  0  0  0  0  0  0  0  0  0  0
  147.1790  139.4034  153.2629 C   0  0  2  0  0  0  0  0  0  0  0  0
  146.4446  138.3851  154.1675 C   0  0  0  0  0  0  0  0  0  0  0  0
  145.9233  137.2469  153.4325 N   0  0  0  0  0  0  0  0  0  0  0  0
  144.9984  137.2383  152.4097 C   0  0  0  0  0  0  0  0  0  0  0  0
  144.8124  135.9366  152.0413 C   0  0  0  0  0  0  0  0  0  0  0  0
  145.6736  135.2124  152.9121 C   0  0  0  0  0  0  0  0  0  0  0  0
  146.3344  135.9988  153.7463 N   0  0  0  0  0  0  0  0  0  0  0  0
  148.5601  138.9876  153.0522 N   0  0  0  0  0  0  0  0  0  0  0  0
  149.3173  138.9325  154.2953 C   0  0  0  0  0  0  0  0  0  0  0  0
  150.5645  138.0473  154.1214 C   0  0  0  0  0  0  0  0  0  0  0  0
  151.4690  138.1326  155.2750 N   0  0  0  0  0  0  0  0  0  0  0  0
  151.9108  137.0733  155.9604 C   0  0  0  0  0  0  0  0  0  0  0  0
  151.6613  135.8845  155.7587 O   0  0  0  0  0  0  0  0  0  0  0  0
  152.7981  137.5853  157.0707 C   0  0  0  0  0  0  0  0  0  0  0  0
  152.7527  139.0153  156.8677 N   0  5  0  0  0  0  0  0  0  0  0  0
  151.9555  139.2725  155.8039 C   0  0  0  0  0  0  0  0  0  0  0  0
  151.6815  140.3808  155.3444 O   0  0  0  0  0  0  0  0  0  0  0  0
  146.2071  141.2293  153.9730 H   0  0  0  0  0  0  0  0  0  0  0  0
  147.7675  141.5054  153.2221 H   0  0  0  0  0  0  0  0  0  0  0  0
  147.6828  140.8249  154.8456 H   0  0  0  0  0  0  0  0  0  0  0  0
  146.6767  139.4641  152.2963 H   0  0  0  0  0  0  0  0  0  0  0  0
  147.1032  138.0009  154.9465 H   0  0  0  0  0  0  0  0  0  0  0  0
  145.6116  138.8708  154.6781 H   0  0  0  0  0  0  0  0  0  0  0  0
  144.5565  138.1488  152.0328 H   0  0  0  0  0  0  0  0  0  0  0  0
  144.1591  135.5589  151.2690 H   0  0  0  0  0  0  0  0  0  0  0  0
  145.8357  134.1460  152.9644 H   0  0  0  0  0  0  0  0  0  0  0  0
  148.5782  138.0756  152.6186 H   0  0  0  0  0  0  0  0  0  0  0  0
  149.6084  139.9289  154.6254 H   0  0  0  0  0  0  0  0  0  0  0  0
  148.6814  138.5100  155.0741 H   0  0  0  0  0  0  0  0  0  0  0  0
  150.2496  137.0093  154.0040 H   0  0  0  0  0  0  0  0  0  0  0  0
  151.0817  138.2968  153.1934 H   0  0  0  0  0  0  0  0  0  0  0  0
  152.3993  137.2747  158.0370 H   0  0  0  0  0  0  0  0  0  0  0  0
  153.7998  137.1666  156.9684 H   0  0  0  0  0  0  0  0  0  0  0  0
  1  2  1  0  0  0  0
  1 19  1  0  0  0  0
  1 20  1  0  0  0  0
  1 21  1  0  0  0  0
  2  3  1  0  0  0  0
  2  9  1  0  0  0  0
  2 22  1  0  0  0  0
  3  4  1  0  0  0  0
  3 23  1  0  0  0  0
  3 24  1  0  0  0  0
  4  8  1  0  0  0  0
  4  5  1  0  0  0  0
  5  6  2  0  0  0  0
  5 25  1  0  0  0  0
  6  7  1  0  0  0  0
  6 26  1  0  0  0  0
  7  8  2  0  0  0  0
  7 27  1  0  0  0  0
  9 10  1  0  0  0  0
  9 28  1  0  0  0  0
 10 11  1  0  0  0  0
 10 29  1  0  0  0  0
 10 30  1  0  0  0  0
 11 12  1  0  0  0  0
 11 31  1  0  0  0  0
 11 32  1  0  0  0  0
 12 17  1  0  0  0  0
 12 13  1  0  0  0  0
 13 14  2  0  0  0  0
 13 15  1  0  0  0  0
 15 16  1  0  0  0  0
 15 33  1  0  0  0  0
 15 34  1  0  0  0  0
 16 17  1  0  0  0  0
 17 18  2  0  0  0  0
M  CHG  1  16  -1
M  END
> <s_m_source_file>
AV-unprocessed.smi

> <i_m_source_file_index>
3245

> <i_lp_mmshare_version>
43012

> <i_f3d_flags>
0

> <s_epik_input>
bjFbY0hdW2NIXVtjSF1uMVtDSDJdW0NAQEhdKFtDSDNdKVtOSF1bQ0gyXVtDSDJdTjJDKD1PKVtDSDJdW05IXUMyPU8=

> <s_epik_cmdline>
J2VwaWtfcHl0aG9uJywgJy1waCcsICc3LjAnLCAnLXRuJywgJzgnLCAnLW1hJywgJzIwMCcsICctbWV0YWxfYmluZGluZycsICctaW1hZScsICc8aW5maWxlLm1hZT4nLCAnLW9tYWUnLCAnPG91dGZpbGUubWFlPic=

> <r_lp_tautomer_probability>
1

> <r_epik_Ionization_Penalty>
8.62027

> <r_epik_Ionization_Penalty_Charging>
6.28132

> <r_epik_Ionization_Penalty_Neutral>
2.33895

> <r_epik_State_Penalty>
8.57043

> <r_epik_Charging_Adjusted_Penalty>
14.8517

> <i_epik_Tot_Q>
-1

> <i_epik_Tot_abs_Q>
1

> <r_epik_Metal_State_Penalty>
4.56785

> <b_epik_Metal_Only>
1

> <s_lp_Force_Field>
OPLS_2005

> <r_lp_Energy>
21.0374

> <b_lp_Chiralities_Consistent>
1

> <s_lp_Variant>
AV-unprocessed.smi:3245-7

> <Gold.Version>
5.8.1

> <Gold.Id.Protein>
6NUR|6NUR_protein|mol2

> <Gold.PLP.Fitness>
45.9081

> <Gold.PLP.PLP>
-26.1538

> <Gold.PLP.part.hbond>
-4.3808

> <Gold.PLP.part.metal>
0.0000

> <Gold.PLP.part.buried>
-2.0177

> <Gold.PLP.part.nonpolar>
-19.9559

> <Gold.PLP.part.repulsive>
0.1621

> <Gold.PLP.ligand.clash>
0.0000

> <Gold.PLP.ligand.torsion>
0.4195

> <Gold.PLP.Chemscore.Hbond>
4.8000

> <Gold.PLP.Chemscore.CHOScore>
2.0000

> <Gold.PLP.Chemscore.Metal>
0.0000

> <Gold.Chemscore.Hbonds>
donor molecule, donor type, donor heavy atom, donor atom, acceptor molecule, acceptor atom, score
      L1  H     9    28       P1  7948  1.00
      P1  H  7989  7998       L1    18  0.83
      P1  H  7997  8008       L1    16  2.00
      P1  H 10752 10763       L1    14  0.90
      L1  C     5    25       P1 10171  0.95
      L1  C     5    25       P1 10175  1.00

> <Gold.PLP.Chemscore.Internal.Correction>
0.1935

> <Gold.Rescore>
     Score         DG    S(hbond)    S(metal)    S(lipo)     H(rot)  DE(clash)    DE(int)     intcor
     13.11     -15.20       3.20        0.00      48.14       2.58       0.11       1.99       ----

> <Gold.Chemscore.Fitness>
13.1071

> <Gold.Chemscore.DG>
-15.2048

> <Gold.Chemscore.ZeroCoef>
-5.4800

> <Gold.Chemscore.Hbond>
3.2034

> <Gold.Chemscore.Metal>
0.0000

> <Gold.Chemscore.Lipo>
48.1446

> <Gold.Chemscore.Internal_Hbond>
0.0000

> <Gold.Chemscore.DEClash>
0.1093

> <Gold.Chemscore.DEInternal>
1.9883

> <Gold.Chemscore.Rot>
2.5811

> <Gold.Chemscore.Internal.Correction>
   9.000000E+99

> <Gold.Chemscore.Hbonds>
donor molecule, donor type, donor heavy atom, donor atom, acceptor molecule, acceptor atom, score
      L1  H     9    28       P1  7948  0.96
      P1  H  7989  7998       L1    18  0.81
      P1  H  7997  8008       L1    16  0.49
      P1  H 10752 10763       L1    14  0.18

> <Gold.Chemscore.Hbond.Weighted>
-10.6994

> <Gold.Chemscore.Metal.Weighted>
-0.0000

> <Gold.Chemscore.Lipo.Weighted>
-5.6329

> <Gold.Chemscore.Internal_Hbond.Weighted>
0.0000

> <Gold.Chemscore.DEClash.Weighted>
0.1093

> <Gold.Chemscore.DEInternal.Weighted>
1.9883

> <Gold.Chemscore.Rot.Weighted>
6.6076

> <Gold.Chemscore.Internal.Correction.Weighted>
   9.000000E+99

> <Gold.Protein.RotatedTorsions>
[ 6907 6896 6895 6894 ] final   66.77 input  -60.11 | X-H torsion
[ 7974 7965 7964 7962 ] final  -34.41 input  175.53 | X-H torsion
[ 8008 7997 7996 7995 ] final  -56.20 input   59.86 | X-H torsion
[ 10167 10162 10161 10158 ] final -167.53 input  -65.29 | X-H torsion
[ 10718 10713 10712 10709 ] final   58.66 input   66.30 | X-H torsion
[ 10763 10752 10751 10750 ] final   91.81 input  -60.55 | X-H torsion
[ 11005 11000 10999 10996 ] final  140.24 input  -57.11 | X-H torsion

> <Gold.Protein.ActiveResidues>
 VAL166  LYS551  ARG553  GLY616  TRP617  ASP618  TYR619  PRO620  LYS621  CYS622 
 ASP623  PHE694  ASN695  SER759  ASP760  ASP761  ALA762  ILE779  LEU786  VAL792 
 PHE793  MET794  SER795  GLU796  ALA797  LYS798  CYS799  TRP800  GLU811  SER814 

> <Gold.Protein.RotatedAtoms>
  152.4505  134.5404  159.9837 H   0  0  0  0  0  0  0  0  0  0  0  0  # atno 6907 bound_to 6896
  151.5478  133.3416  159.2955 H   0  0  0  0  0  0  0  0  0  0  0  0  # atno 6908 bound_to 6896
  150.8432  134.7763  159.7012 H   0  0  0  0  0  0  0  0  0  0  0  0  # atno 6909 bound_to 6896
  146.0832  140.6035  142.8899 H   0  0  0  0  0  0  0  0  0  0  0  0  # atno 7974 bound_to 7965
  154.4221  140.1135  156.5599 H   0  0  0  0  0  0  0  0  0  0  0  0  # atno 8008 bound_to 7997
  155.6322  140.3496  155.4667 H   0  0  0  0  0  0  0  0  0  0  0  0  # atno 8009 bound_to 7997
  155.9939  140.1185  157.0602 H   0  0  0  0  0  0  0  0  0  0  0  0  # atno 8010 bound_to 7997
  139.6043  144.0945  152.1777 H   0  0  0  0  0  0  0  0  0  0  0  0  # atno 10167 bound_to 10162
  157.5614  130.8838  149.9118 H   0  0  0  0  0  0  0  0  0  0  0  0  # atno 10718 bound_to 10713
  153.2123  135.4384  155.0394 H   0  0  0  0  0  0  0  0  0  0  0  0  # atno 10763 bound_to 10752
  154.8206  135.3336  154.7050 H   0  0  0  0  0  0  0  0  0  0  0  0  # atno 10764 bound_to 10752
  153.7487  135.7000  153.5006 H   0  0  0  0  0  0  0  0  0  0  0  0  # atno 10765 bound_to 10752
  140.0312  134.9351  157.0667 H   0  0  0  0  0  0  0  0  0  0  0  0  # atno 11005 bound_to 11000
  144.7307  140.4663  143.6940 LP  0  0  0  0  0  0  0  0  0  0  0  0  # atno 17320 bound_to 7965
  145.6179  139.1520  143.3039 LP  0  0  0  0  0  0  0  0  0  0  0  0  # atno 17321 bound_to 7965
  140.0548  144.5904  150.7308 LP  0  0  0  0  0  0  0  0  0  0  0  0  # atno 17342 bound_to 10162
  140.7273  143.2650  151.4074 LP  0  0  0  0  0  0  0  0  0  0  0  0  # atno 17343 bound_to 10162
  156.0666  130.3691  150.0864 LP  0  0  0  0  0  0  0  0  0  0  0  0  # atno 17370 bound_to 10713
  156.9028  130.9626  151.3574 LP  0  0  0  0  0  0  0  0  0  0  0  0  # atno 17371 bound_to 10713
  140.4222  134.1869  155.7165 LP  0  0  0  0  0  0  0  0  0  0  0  0  # atno 17394 bound_to 11000
  141.1832  133.8369  157.1182 LP  0  0  0  0  0  0  0  0  0  0  0  0  # atno 17395 bound_to 11000

$$$$
