AV-unprocessed.smi:428|AV-procd|sdf|2544|dock7
  -GOLD-   2262022503D 1   1.00000     0.00000
 Structure written by MMmdl.
 40 41  0  0  0  0  0  0  0  0  1 V2000
  145.3430  141.8146  155.9203 C   0  0  0  0  0  0  0  0  0  0  0  0
  145.9931  142.1833  154.5821 C   0  0  0  0  0  0  0  0  0  0  0  0
  146.6892  140.9818  153.9179 C   0  0  0  0  0  0  0  0  0  0  0  0
  147.8415  140.4115  154.7512 C   0  0  0  0  0  0  0  0  0  0  0  0
  147.6780  140.1216  155.9367 O   0  0  0  0  0  0  0  0  0  0  0  0
  149.0075  140.2456  154.1081 N   0  0  0  0  0  0  0  0  0  0  0  0
  150.2323  139.7208  154.7055 C   0  0  0  0  0  0  0  0  0  0  0  0
  150.7357  140.4698  155.9343 C   0  0  0  0  0  0  0  0  0  0  0  0
  151.4547  139.7708  156.9236 C   0  0  0  0  0  0  0  0  0  0  0  0
  151.9074  140.4615  158.0634 C   0  0  0  0  0  0  0  0  0  0  0  0
  151.6290  141.8428  158.1882 C   0  0  0  0  0  0  0  0  0  0  0  0
  152.0705  142.5537  159.3247 N   0  0  0  0  0  0  0  0  0  0  0  0
  151.1348  143.4811  159.9576 C   0  0  0  0  0  0  0  0  0  0  0  0
  151.8657  144.3581  160.9882 C   0  0  0  0  0  0  0  0  0  0  0  0
  152.5381  143.5292  161.9307 O   0  0  0  0  0  0  0  0  0  0  0  0
  153.5225  142.7106  161.3077 C   0  0  0  0  0  0  0  0  0  0  0  0
  152.8539  141.7782  160.2828 C   0  0  0  0  0  0  0  0  0  0  0  0
  150.9412  142.5163  157.2337 N   0  0  0  0  0  0  0  0  0  0  0  0
  150.5064  141.8481  156.1446 C   0  0  0  0  0  0  0  0  0  0  0  0
  144.8591  142.6824  156.3691 H   0  0  0  0  0  0  0  0  0  0  0  0
  146.0836  141.4427  156.6288 H   0  0  0  0  0  0  0  0  0  0  0  0
  144.5852  141.0418  155.7901 H   0  0  0  0  0  0  0  0  0  0  0  0
  145.2301  142.5853  153.9141 H   0  0  0  0  0  0  0  0  0  0  0  0
  146.7133  142.9856  154.7487 H   0  0  0  0  0  0  0  0  0  0  0  0
  145.9667  140.1844  153.7407 H   0  0  0  0  0  0  0  0  0  0  0  0
  147.0717  141.2795  152.9404 H   0  0  0  0  0  0  0  0  0  0  0  0
  149.0515  140.5060  153.1334 H   0  0  0  0  0  0  0  0  0  0  0  0
  150.0436  138.6868  154.9947 H   0  0  0  0  0  0  0  0  0  0  0  0
  151.0264  139.6870  153.9576 H   0  0  0  0  0  0  0  0  0  0  0  0
  151.6587  138.7159  156.8121 H   0  0  0  0  0  0  0  0  0  0  0  0
  152.4707  139.9317  158.8173 H   0  0  0  0  0  0  0  0  0  0  0  0
  150.6690  144.1183  159.2047 H   0  0  0  0  0  0  0  0  0  0  0  0
  150.3398  142.9162  160.4463 H   0  0  0  0  0  0  0  0  0  0  0  0
  152.5787  145.0230  160.4981 H   0  0  0  0  0  0  0  0  0  0  0  0
  151.1524  144.9907  161.5163 H   0  0  0  0  0  0  0  0  0  0  0  0
  154.2796  143.3342  160.8294 H   0  0  0  0  0  0  0  0  0  0  0  0
  154.0308  142.1233  162.0724 H   0  0  0  0  0  0  0  0  0  0  0  0
  152.1908  141.0784  160.7932 H   0  0  0  0  0  0  0  0  0  0  0  0
  153.6217  141.1844  159.7885 H   0  0  0  0  0  0  0  0  0  0  0  0
  149.9576  142.4430  155.4300 H   0  0  0  0  0  0  0  0  0  0  0  0
  1  2  1  0  0  0  0
  1 20  1  0  0  0  0
  1 21  1  0  0  0  0
  1 22  1  0  0  0  0
  2  3  1  0  0  0  0
  2 23  1  0  0  0  0
  2 24  1  0  0  0  0
  3  4  1  0  0  0  0
  3 25  1  0  0  0  0
  3 26  1  0  0  0  0
  4  5  2  0  0  0  0
  4  6  1  0  0  0  0
  6  7  1  0  0  0  0
  6 27  1  0  0  0  0
  7  8  1  0  0  0  0
  7 28  1  0  0  0  0
  7 29  1  0  0  0  0
  8 19  1  0  0  0  0
  8  9  2  0  0  0  0
  9 10  1  0  0  0  0
  9 30  1  0  0  0  0
 10 11  2  0  0  0  0
 10 31  1  0  0  0  0
 11 12  1  0  0  0  0
 11 18  1  0  0  0  0
 12 17  1  0  0  0  0
 12 13  1  0  0  0  0
 13 14  1  0  0  0  0
 13 32  1  0  0  0  0
 13 33  1  0  0  0  0
 14 15  1  0  0  0  0
 14 34  1  0  0  0  0
 14 35  1  0  0  0  0
 15 16  1  0  0  0  0
 16 17  1  0  0  0  0
 16 36  1  0  0  0  0
 16 37  1  0  0  0  0
 17 38  1  0  0  0  0
 17 39  1  0  0  0  0
 18 19  2  0  0  0  0
 19 40  1  0  0  0  0
M  END
> <s_m_source_file>
AV-unprocessed.smi

> <i_m_source_file_index>
428

> <i_lp_mmshare_version>
43012

> <i_f3d_flags>
0

> <s_epik_input>
W0NIM11bQ0gyXVtDSDJdQyg9TylbTkhdW0NIMl1jMVtjSF1bY0hdYyhuW2NIXTEpTjJbQ0gyXVtDSDJdT1tDSDJdW0NIMl0y

> <s_epik_cmdline>
J2VwaWtfcHl0aG9uJywgJy1waCcsICc3LjAnLCAnLXRuJywgJzgnLCAnLW1hJywgJzIwMCcsICctbWV0YWxfYmluZGluZycsICctaW1hZScsICc8aW5maWxlLm1hZT4nLCAnLW9tYWUnLCAnPG91dGZpbGUubWFlPic=

> <r_lp_tautomer_probability>
1

> <r_epik_Ionization_Penalty>
0.00505548

> <r_epik_Ionization_Penalty_Charging>
0

> <r_epik_Ionization_Penalty_Neutral>
0.00505548

> <r_epik_State_Penalty>
0.00367784

> <r_epik_Charging_Adjusted_Penalty>
0.00367784

> <i_epik_Tot_Q>
0

> <i_epik_Tot_abs_Q>
0

> <r_epik_Metal_State_Penalty>
-0

> <b_epik_Metal_Only>
0

> <s_lp_Force_Field>
OPLS_2005

> <r_lp_Energy>
16.3878

> <b_lp_Chiralities_Consistent>
1

> <s_lp_Variant>
AV-unprocessed.smi:428-1

> <Gold.Version>
5.8.1

> <Gold.Id.Protein>
6NUR|6NUR_protein|mol2

> <Gold.PLP.Fitness>
43.3104

> <Gold.PLP.PLP>
-38.9537

> <Gold.PLP.part.hbond>
-1.0000

> <Gold.PLP.part.metal>
0.0000

> <Gold.PLP.part.buried>
-6.7501

> <Gold.PLP.part.nonpolar>
-30.4677

> <Gold.PLP.part.repulsive>
0.4637

> <Gold.PLP.ligand.clash>
0.0513

> <Gold.PLP.ligand.torsion>
0.6704

> <Gold.PLP.Chemscore.Hbond>
0.9600

> <Gold.PLP.Chemscore.CHOScore>
0.8450

> <Gold.PLP.Chemscore.Metal>
0.0000

> <Gold.Chemscore.Hbonds>
donor molecule, donor type, donor heavy atom, donor atom, acceptor molecule, acceptor atom, score
      L1  H     6    27       P1  7957  0.82
      L1  C    19    40       P1  8028  1.00

> <Gold.PLP.Chemscore.Internal.Correction>
0.3339

> <Gold.Rescore>
     Score         DG    S(hbond)    S(metal)    S(lipo)     H(rot)  DE(clash)    DE(int)     intcor
     14.53     -15.15       0.99        0.00      91.31       1.69       0.02       0.60       ----

> <Gold.Chemscore.Fitness>
14.5291

> <Gold.Chemscore.DG>
-15.1494

> <Gold.Chemscore.ZeroCoef>
-5.4800

> <Gold.Chemscore.Hbond>
0.9937

> <Gold.Chemscore.Metal>
0.0000

> <Gold.Chemscore.Lipo>
91.3114

> <Gold.Chemscore.Internal_Hbond>
0.0000

> <Gold.Chemscore.DEClash>
0.0175

> <Gold.Chemscore.DEInternal>
0.6028

> <Gold.Chemscore.Rot>
1.6926

> <Gold.Chemscore.Internal.Correction>
   9.000000E+99

> <Gold.Chemscore.Hbonds>
donor molecule, donor type, donor heavy atom, donor atom, acceptor molecule, acceptor atom, score
      L1  H     6    27       P1  7957  0.76

> <Gold.Chemscore.Hbond.Weighted>
-3.3190

> <Gold.Chemscore.Metal.Weighted>
-0.0000

> <Gold.Chemscore.Lipo.Weighted>
-10.6834

> <Gold.Chemscore.Internal_Hbond.Weighted>
0.0000

> <Gold.Chemscore.DEClash.Weighted>
0.0175

> <Gold.Chemscore.DEInternal.Weighted>
0.6028

> <Gold.Chemscore.Rot.Weighted>
4.3330

> <Gold.Chemscore.Internal.Correction.Weighted>
   9.000000E+99

> <Gold.Protein.RotatedTorsions>
[ 6907 6896 6895 6894 ] final -170.66 input  -60.11 | X-H torsion
[ 7974 7965 7964 7962 ] final   41.24 input  175.53 | X-H torsion
[ 8008 7997 7996 7995 ] final  120.16 input   59.86 | X-H torsion
[ 10167 10162 10161 10158 ] final  109.01 input  -65.29 | X-H torsion
[ 10718 10713 10712 10709 ] final -118.03 input   66.30 | X-H torsion
[ 10763 10752 10751 10750 ] final   80.73 input  -60.55 | X-H torsion
[ 11005 11000 10999 10996 ] final  -34.05 input  -57.11 | X-H torsion

> <Gold.Protein.ActiveResidues>
 VAL166  LYS551  ARG553  GLY616  TRP617  ASP618  TYR619  PRO620  LYS621  CYS622 
 ASP623  PHE694  ASN695  SER759  ASP760  ASP761  ALA762  ILE779  LEU786  VAL792 
 PHE793  MET794  SER795  GLU796  ALA797  LYS798  CYS799  TRP800  GLU811  SER814 

> <Gold.Protein.RotatedAtoms>
  151.5112  133.3484  159.2885 H   0  0  0  0  0  0  0  0  0  0  0  0  # atno 6907 bound_to 6896
  150.8711  134.8087  159.7166 H   0  0  0  0  0  0  0  0  0  0  0  0  # atno 6908 bound_to 6896
  152.4699  134.4996  159.9772 H   0  0  0  0  0  0  0  0  0  0  0  0  # atno 6909 bound_to 6896
  146.0840  139.5439  142.9519 H   0  0  0  0  0  0  0  0  0  0  0  0  # atno 7974 bound_to 7965
  156.2630  140.2837  156.1105 H   0  0  0  0  0  0  0  0  0  0  0  0  # atno 8008 bound_to 7997
  155.1262  140.0393  157.2780 H   0  0  0  0  0  0  0  0  0  0  0  0  # atno 8009 bound_to 7997
  154.6634  140.2571  155.7091 H   0  0  0  0  0  0  0  0  0  0  0  0  # atno 8010 bound_to 7997
  139.6800  144.7119  151.1532 H   0  0  0  0  0  0  0  0  0  0  0  0  # atno 10167 bound_to 10162
  156.1076  130.6223  150.9239 H   0  0  0  0  0  0  0  0  0  0  0  0  # atno 10718 bound_to 10713
  153.1057  135.4792  154.8947 H   0  0  0  0  0  0  0  0  0  0  0  0  # atno 10763 bound_to 10752
  154.7428  135.3086  154.8701 H   0  0  0  0  0  0  0  0  0  0  0  0  # atno 10764 bound_to 10752
  153.9304  135.6845  153.4799 H   0  0  0  0  0  0  0  0  0  0  0  0  # atno 10765 bound_to 10752
  140.9685  133.7123  156.1484 H   0  0  0  0  0  0  0  0  0  0  0  0  # atno 11005 bound_to 11000
  145.6165  141.0330  143.1938 LP  0  0  0  0  0  0  0  0  0  0  0  0  # atno 17320 bound_to 7965
  144.7313  139.7719  143.7346 LP  0  0  0  0  0  0  0  0  0  0  0  0  # atno 17321 bound_to 7965
  140.7649  143.5713  150.8993 LP  0  0  0  0  0  0  0  0  0  0  0  0  # atno 17342 bound_to 10162
  139.9384  143.6410  152.3059 LP  0  0  0  0  0  0  0  0  0  0  0  0  # atno 17343 bound_to 10162
  157.6255  131.0926  150.8542 LP  0  0  0  0  0  0  0  0  0  0  0  0  # atno 17370 bound_to 10713
  156.8659  130.5129  149.5300 LP  0  0  0  0  0  0  0  0  0  0  0  0  # atno 17371 bound_to 10713
  140.7364  134.4198  157.5560 LP  0  0  0  0  0  0  0  0  0  0  0  0  # atno 17394 bound_to 11000
  139.8903  134.8808  156.2376 LP  0  0  0  0  0  0  0  0  0  0  0  0  # atno 17395 bound_to 11000

$$$$
