AV-unprocessed.smi:686|AV-procd|sdf|3352|dock5
  -GOLD-   22720 0323D 1   1.00000     0.00000
 Structure written by MMmdl.
 40 41  0  0  0  0  0  0  0  0  3 V2000
  147.2541  140.2994  153.0483 C   0  0  0  0  0  0  0  0  0  0  0  0
  146.5594  138.9905  153.4724 C   0  0  1  0  0  0  0  0  0  0  0  0
  146.2183  138.0700  152.2874 C   0  0  0  0  0  0  0  0  0  0  0  0
  146.4546  136.6721  152.7311 N   0  3  2  0  0  0  0  0  0  0  0  0
  145.4269  135.6816  152.3019 C   0  0  0  0  0  0  0  0  0  0  0  0
  145.3674  135.5517  150.7677 C   0  0  0  0  0  0  0  0  0  0  0  0
  144.0336  136.0586  152.8400 C   0  0  0  0  0  0  0  0  0  0  0  0
  146.7249  136.7229  154.1838 C   0  0  0  0  0  0  0  0  0  0  0  0
  147.3660  138.0908  154.4205 C   0  0  2  0  0  0  0  0  0  0  0  0
  147.2358  138.5262  155.8030 N   0  5  0  0  0  0  0  0  0  0  0  0
  148.5602  138.8958  156.6653 S   0  0  0  0  0  0  0  0  0  0  0  0
  148.2391  139.5940  157.9213 O   0  0  0  0  0  0  0  0  0  0  0  0
  149.4985  137.7652  156.7472 O   0  0  0  0  0  0  0  0  0  0  0  0
  149.3603  140.1394  155.5595 C   0  0  0  0  0  0  0  0  0  0  0  0
  150.7332  139.6778  155.1516 C   0  0  0  0  0  0  0  0  0  0  0  0
  151.1080  138.4448  154.5485 C   0  0  0  0  0  0  0  0  0  0  0  0
  152.4599  138.5585  154.4010 C   0  0  0  0  0  0  0  0  0  0  0  0
  152.8907  139.7536  154.8772 O   0  0  0  0  0  0  0  0  0  0  0  0
  151.7820  140.4596  155.3581 N   0  0  0  0  0  0  0  0  0  0  0  0
  148.1934  140.1173  152.5227 H   0  0  0  0  0  0  0  0  0  0  0  0
  147.4693  140.9410  153.9046 H   0  0  0  0  0  0  0  0  0  0  0  0
  146.6132  140.8697  152.3757 H   0  0  0  0  0  0  0  0  0  0  0  0
  145.6169  139.2490  153.9598 H   0  0  0  0  0  0  0  0  0  0  0  0
  145.1827  138.2335  151.9848 H   0  0  0  0  0  0  0  0  0  0  0  0
  146.8468  138.2697  151.4178 H   0  0  0  0  0  0  0  0  0  0  0  0
  145.7024  134.7088  152.7123 H   0  0  0  0  0  0  0  0  0  0  0  0
  144.5782  134.8632  150.4643 H   0  0  0  0  0  0  0  0  0  0  0  0
  146.2982  135.1642  150.3530 H   0  0  0  0  0  0  0  0  0  0  0  0
  145.1650  136.5139  150.2956 H   0  0  0  0  0  0  0  0  0  0  0  0
  143.2797  135.3463  152.5032 H   0  0  0  0  0  0  0  0  0  0  0  0
  143.7307  137.0475  152.4941 H   0  0  0  0  0  0  0  0  0  0  0  0
  143.9995  136.0625  153.9292 H   0  0  0  0  0  0  0  0  0  0  0  0
  145.7845  136.6400  154.7330 H   0  0  0  0  0  0  0  0  0  0  0  0
  147.3765  135.9060  154.4952 H   0  0  0  0  0  0  0  0  0  0  0  0
  148.4040  138.0594  154.0861 H   0  0  0  0  0  0  0  0  0  0  0  0
  148.7197  140.2637  154.6862 H   0  0  0  0  0  0  0  0  0  0  0  0
  149.3948  141.0980  156.0765 H   0  0  0  0  0  0  0  0  0  0  0  0
  150.4806  137.6130  154.2641 H   0  0  0  0  0  0  0  0  0  0  0  0
  153.2201  137.9065  153.9964 H   0  0  0  0  0  0  0  0  0  0  0  0
  147.3283  136.3947  152.3073 H   0  0  0  0  0  0  0  0  0  0  0  0
  1  2  1  0  0  0  0
  1 20  1  0  0  0  0
  1 21  1  0  0  0  0
  1 22  1  0  0  0  0
  2  9  1  0  0  0  0
  2  3  1  0  0  0  0
  2 23  1  0  0  0  0
  3  4  1  0  0  0  0
  3 24  1  0  0  0  0
  3 25  1  0  0  0  0
  4  5  1  0  0  0  0
  4  8  1  0  0  0  0
  4 40  1  0  0  0  0
  5  6  1  0  0  0  0
  5  7  1  0  0  0  0
  5 26  1  0  0  0  0
  6 27  1  0  0  0  0
  6 28  1  0  0  0  0
  6 29  1  0  0  0  0
  7 30  1  0  0  0  0
  7 31  1  0  0  0  0
  7 32  1  0  0  0  0
  8  9  1  0  0  0  0
  8 33  1  0  0  0  0
  8 34  1  0  0  0  0
  9 10  1  0  0  0  0
  9 35  1  0  0  0  0
 10 11  1  0  0  0  0
 11 12  2  0  0  0  0
 11 13  2  0  0  0  0
 11 14  1  0  0  0  0
 14 15  1  0  0  0  0
 14 36  1  0  0  0  0
 14 37  1  0  0  0  0
 15 19  2  0  0  0  0
 15 16  1  0  0  0  0
 16 17  2  0  0  0  0
 16 38  1  0  0  0  0
 17 18  1  0  0  0  0
 17 39  1  0  0  0  0
 18 19  1  0  0  0  0
M  CHG  1   4   1
M  CHG  1  10  -1
M  END
> <s_m_source_file>
AV-unprocessed.smi

> <i_m_source_file_index>
686

> <i_lp_mmshare_version>
43012

> <i_f3d_flags>
0

> <s_epik_input>
W0NIM11bQ0BASF0xW0NIMl1OKFtDSF0oW0NIM10pW0NIM10pW0NIMl1bQ0BIXTFbTkhdUyg9TykoPU8pW0NIMl1jMltjSF1bY0hdb24y

> <s_epik_cmdline>
J2VwaWtfcHl0aG9uJywgJy1waCcsICc3LjAnLCAnLXRuJywgJzgnLCAnLW1hJywgJzIwMCcsICctbWV0YWxfYmluZGluZycsICctaW1hZScsICc8aW5maWxlLm1hZT4nLCAnLW9tYWUnLCAnPG91dGZpbGUubWFlPic=

> <r_epik_Ionization_Penalty>
3.62478

> <r_epik_Ionization_Penalty_Charging>
3.62478

> <r_epik_Ionization_Penalty_Neutral>
2.03645e-10

> <r_epik_State_Penalty>
3.6247

> <r_epik_Charging_Adjusted_Penalty>
7.24949

> <i_epik_Tot_Q>
0

> <i_epik_Tot_abs_Q>
2

> <r_epik_Metal_State_Penalty>
0.530836

> <b_epik_Metal_Only>
1

> <s_lp_Force_Field>
OPLS_2005

> <r_lp_Energy>
17.1192

> <b_lp_Chiralities_Consistent>
1

> <s_lp_Variant>
AV-unprocessed.smi:686-16

> <Gold.Version>
5.8.1

> <Gold.Id.Protein>
6NUR|6NUR_protein|mol2

> <Gold.PLP.Fitness>
38.1300

> <Gold.PLP.PLP>
-29.2024

> <Gold.PLP.part.hbond>
-4.5019

> <Gold.PLP.part.metal>
0.0000

> <Gold.PLP.part.buried>
-3.6012

> <Gold.PLP.part.nonpolar>
-22.0210

> <Gold.PLP.part.repulsive>
0.0514

> <Gold.PLP.ligand.clash>
0.0000

> <Gold.PLP.ligand.torsion>
0.6193

> <Gold.PLP.Chemscore.Hbond>
3.0420

> <Gold.PLP.Chemscore.CHOScore>
0.0000

> <Gold.PLP.Chemscore.Metal>
0.0000

> <Gold.Chemscore.Hbonds>
donor molecule, donor type, donor heavy atom, donor atom, acceptor molecule, acceptor atom, score
      L1  H     4    40       P1  7948  2.00
      P1  H  7997  8009       L1    18  1.00

> <Gold.PLP.Chemscore.Internal.Correction>
1.0402

> <Gold.Rescore>
     Score         DG    S(hbond)    S(metal)    S(lipo)     H(rot)  DE(clash)    DE(int)     intcor
     14.18     -16.16       1.99        0.00      69.89       1.61       0.17       1.81       ----

> <Gold.Chemscore.Fitness>
14.1829

> <Gold.Chemscore.DG>
-16.1643

> <Gold.Chemscore.ZeroCoef>
-5.4800

> <Gold.Chemscore.Hbond>
1.9885

> <Gold.Chemscore.Metal>
0.0000

> <Gold.Chemscore.Lipo>
69.8876

> <Gold.Chemscore.Internal_Hbond>
0.0000

> <Gold.Chemscore.DEClash>
0.1711

> <Gold.Chemscore.DEInternal>
1.8103

> <Gold.Chemscore.Rot>
1.6149

> <Gold.Chemscore.Internal.Correction>
   9.000000E+99

> <Gold.Chemscore.Hbonds>
donor molecule, donor type, donor heavy atom, donor atom, acceptor molecule, acceptor atom, score
      L1  H     4    40       P1  7948  1.00
      P1  H  7997  8009       L1    18  0.70

> <Gold.Chemscore.Hbond.Weighted>
-6.6416

> <Gold.Chemscore.Metal.Weighted>
-0.0000

> <Gold.Chemscore.Lipo.Weighted>
-8.1768

> <Gold.Chemscore.Internal_Hbond.Weighted>
0.0000

> <Gold.Chemscore.DEClash.Weighted>
0.1711

> <Gold.Chemscore.DEInternal.Weighted>
1.8103

> <Gold.Chemscore.Rot.Weighted>
4.1341

> <Gold.Chemscore.Internal.Correction.Weighted>
   9.000000E+99

> <Gold.Protein.RotatedTorsions>
[ 6907 6896 6895 6894 ] final  -55.51 input  -60.11 | X-H torsion
[ 7974 7965 7964 7962 ] final  -38.95 input  175.53 | X-H torsion
[ 8008 7997 7996 7995 ] final -140.97 input   59.86 | X-H torsion
[ 10167 10162 10161 10158 ] final  148.57 input  -65.29 | X-H torsion
[ 10718 10713 10712 10709 ] final  151.02 input   66.30 | X-H torsion
[ 10763 10752 10751 10750 ] final  -17.53 input  -60.55 | X-H torsion
[ 11005 11000 10999 10996 ] final   72.46 input  -57.11 | X-H torsion

> <Gold.Protein.ActiveResidues>
 VAL166  LYS551  ARG553  GLY616  TRP617  ASP618  TYR619  PRO620  LYS621  CYS622 
 ASP623  PHE694  ASN695  SER759  ASP760  ASP761  ALA762  ILE779  LEU786  VAL792 
 PHE793  MET794  SER795  GLU796  ALA797  LYS798  CYS799  TRP800  GLU811  SER814 

> <Gold.Protein.RotatedAtoms>
  150.8245  134.7470  159.6800 H   0  0  0  0  0  0  0  0  0  0  0  0  # atno 6907 bound_to 6896
  152.4358  134.5687  159.9924 H   0  0  0  0  0  0  0  0  0  0  0  0  # atno 6908 bound_to 6896
  151.5862  133.3334  159.3054 H   0  0  0  0  0  0  0  0  0  0  0  0  # atno 6909 bound_to 6896
  146.0441  140.6570  142.9073 H   0  0  0  0  0  0  0  0  0  0  0  0  # atno 7974 bound_to 7965
  155.4702  140.0552  157.2980 H   0  0  0  0  0  0  0  0  0  0  0  0  # atno 8008 bound_to 7997
  154.4701  140.2036  155.9969 H   0  0  0  0  0  0  0  0  0  0  0  0  # atno 8009 bound_to 7997
  156.1042  140.3214  155.7988 H   0  0  0  0  0  0  0  0  0  0  0  0  # atno 8010 bound_to 7997
  139.4873  144.5669  151.7127 H   0  0  0  0  0  0  0  0  0  0  0  0  # atno 10167 bound_to 10162
  157.2760  131.0826  151.1566 H   0  0  0  0  0  0  0  0  0  0  0  0  # atno 10718 bound_to 10713
  153.5753  135.7006  153.5487 H   0  0  0  0  0  0  0  0  0  0  0  0  # atno 10763 bound_to 10752
  153.3308  135.4048  155.1494 H   0  0  0  0  0  0  0  0  0  0  0  0  # atno 10764 bound_to 10752
  154.8626  135.3718  154.5278 H   0  0  0  0  0  0  0  0  0  0  0  0  # atno 10765 bound_to 10752
  139.9490  134.7261  156.0909 H   0  0  0  0  0  0  0  0  0  0  0  0  # atno 11005 bound_to 11000
  144.7089  140.3961  143.7096 LP  0  0  0  0  0  0  0  0  0  0  0  0  # atno 17320 bound_to 7965
  145.6836  139.1623  143.2687 LP  0  0  0  0  0  0  0  0  0  0  0  0  # atno 17321 bound_to 7965
  140.5249  144.0821  150.6034 LP  0  0  0  0  0  0  0  0  0  0  0  0  # atno 17342 bound_to 10162
  140.3791  143.2812  152.0190 LP  0  0  0  0  0  0  0  0  0  0  0  0  # atno 17343 bound_to 10162
  157.3018  130.6847  149.6168 LP  0  0  0  0  0  0  0  0  0  0  0  0  # atno 17370 bound_to 10713
  155.9664  130.4389  150.5239 LP  0  0  0  0  0  0  0  0  0  0  0  0  # atno 17371 bound_to 10713
  141.1148  133.6631  156.3066 LP  0  0  0  0  0  0  0  0  0  0  0  0  # atno 17394 bound_to 11000
  140.5765  134.5788  157.5470 LP  0  0  0  0  0  0  0  0  0  0  0  0  # atno 17395 bound_to 11000

$$$$
