AV-unprocessed.smi:148|AV-procd|sdf|1207|dock6
  -GOLD-   2262018373D 1   1.00000     0.00000
 Structure written by MMmdl.
 63 67  0  0  0  0  0  0  0  0  1 V2000
  146.8725  135.3089  153.6353 O   0  0  0  0  0  0  0  0  0  0  0  0
  147.0187  133.9150  153.8146 C   0  0  0  0  0  0  0  0  0  0  0  0
  148.4918  133.4578  153.6533 C   0  0  1  0  0  0  0  0  0  0  0  0
  149.3177  133.6716  154.9512 C   0  0  0  0  0  0  0  0  0  0  0  0
  149.6706  135.0580  155.1954 N   0  0  0  0  0  0  0  0  0  0  0  0
  150.4402  135.8719  154.3948 C   0  0  0  0  0  0  0  0  0  0  0  0
  150.6320  137.0796  154.8514 N   0  0  0  0  0  0  0  0  0  0  0  0
  149.9343  137.0999  156.0534 C   0  0  0  0  0  0  0  0  0  0  0  0
  149.7400  138.0706  157.0761 C   0  0  0  0  0  0  0  0  0  0  0  0
  150.2755  139.3100  157.0710 N   0  0  0  0  0  0  0  0  0  0  0  0
  151.3383  139.3785  158.0756 C   0  0  0  0  0  0  0  0  0  0  0  0
  152.1774  140.6500  157.9170 C   0  0  0  0  0  0  0  0  0  0  0  0
  151.2703  141.8798  157.9689 C   0  0  0  0  0  0  0  0  0  0  0  0
  150.1700  141.7629  156.9066 C   0  0  0  0  0  0  0  0  0  0  0  0
  149.3403  140.4555  157.0373 C   0  0  1  0  0  0  0  0  0  0  0  0
  148.2715  140.3754  155.8903 C   0  0  1  0  0  0  0  0  0  0  0  0
  147.5302  141.6805  155.5233 C   0  0  0  0  0  0  0  0  0  0  0  0
  147.0406  141.5339  154.0757 C   0  0  0  0  0  0  0  0  0  0  0  0
  147.6579  140.2367  153.5474 C   0  0  0  0  0  0  0  0  0  0  0  0
  148.7961  139.9101  154.5150 C   0  0  1  0  0  0  0  0  0  0  0  0
  149.9427  140.6448  154.1241 O   0  0  0  0  0  0  0  0  0  0  0  0
  148.9596  137.7376  158.1337 N   0  0  0  0  0  0  0  0  0  0  0  0
  148.4208  136.5165  158.2051 C   0  0  0  0  0  0  0  0  0  0  0  0
  148.5352  135.5009  157.3461 N   0  0  0  0  0  0  0  0  0  0  0  0
  149.3085  135.8420  156.2752 C   0  0  0  0  0  0  0  0  0  0  0  0
  148.5809  131.9763  153.2004 C   0  0  2  0  0  0  0  0  0  0  0  0
  147.2307  131.3176  152.9169 C   0  0  0  0  0  0  0  0  0  0  0  0
  147.3961  129.8623  153.3655 C   0  0  0  0  0  0  0  0  0  0  0  0
  148.7508  129.7409  153.7700 O   0  0  0  0  0  0  0  0  0  0  0  0
  149.1759  131.0112  154.2297 C   0  0  0  0  0  0  0  0  0  0  0  0
  147.5831  135.6188  153.0946 H   0  0  0  0  0  0  0  0  0  0  0  0
  146.6282  133.6283  154.7915 H   0  0  0  0  0  0  0  0  0  0  0  0
  146.3731  133.4503  153.0719 H   0  0  0  0  0  0  0  0  0  0  0  0
  148.9405  134.0576  152.8596 H   0  0  0  0  0  0  0  0  0  0  0  0
  148.7639  133.2982  155.8136 H   0  0  0  0  0  0  0  0  0  0  0  0
  150.2492  133.1066  154.9186 H   0  0  0  0  0  0  0  0  0  0  0  0
  150.8713  135.5344  153.4636 H   0  0  0  0  0  0  0  0  0  0  0  0
  150.8985  139.3550  159.0737 H   0  0  0  0  0  0  0  0  0  0  0  0
  151.9887  138.5058  157.9954 H   0  0  0  0  0  0  0  0  0  0  0  0
  152.9308  140.7040  158.7033 H   0  0  0  0  0  0  0  0  0  0  0  0
  152.7142  140.6228  156.9680 H   0  0  0  0  0  0  0  0  0  0  0  0
  150.8210  141.9687  158.9587 H   0  0  0  0  0  0  0  0  0  0  0  0
  151.8550  142.7859  157.8068 H   0  0  0  0  0  0  0  0  0  0  0  0
  149.5333  142.6421  156.9931 H   0  0  0  0  0  0  0  0  0  0  0  0
  150.6230  141.8086  155.9153 H   0  0  0  0  0  0  0  0  0  0  0  0
  148.8189  140.4893  157.9947 H   0  0  0  0  0  0  0  0  0  0  0  0
  147.5166  139.6483  156.1954 H   0  0  0  0  0  0  0  0  0  0  0  0
  146.6892  141.8855  156.1842 H   0  0  0  0  0  0  0  0  0  0  0  0
  148.2123  142.5292  155.5847 H   0  0  0  0  0  0  0  0  0  0  0  0
  145.9521  141.4957  154.0219 H   0  0  0  0  0  0  0  0  0  0  0  0
  147.3669  142.3891  153.4826 H   0  0  0  0  0  0  0  0  0  0  0  0
  146.9112  139.4425  153.5934 H   0  0  0  0  0  0  0  0  0  0  0  0
  147.9833  140.3144  152.5091 H   0  0  0  0  0  0  0  0  0  0  0  0
  149.0300  138.8450  154.4977 H   0  0  0  0  0  0  0  0  0  0  0  0
  149.7877  141.5589  154.3065 H   0  0  0  0  0  0  0  0  0  0  0  0
  147.8175  136.3231  159.0798 H   0  0  0  0  0  0  0  0  0  0  0  0
  149.1873  131.9131  152.2953 H   0  0  0  0  0  0  0  0  0  0  0  0
  146.4287  131.7850  153.4901 H   0  0  0  0  0  0  0  0  0  0  0  0
  146.9693  131.3895  151.8608 H   0  0  0  0  0  0  0  0  0  0  0  0
  146.7447  129.6462  154.2135 H   0  0  0  0  0  0  0  0  0  0  0  0
  147.1667  129.1520  152.5711 H   0  0  0  0  0  0  0  0  0  0  0  0
  150.2640  131.0539  154.2781 H   0  0  0  0  0  0  0  0  0  0  0  0
  148.7753  131.1950  155.2282 H   0  0  0  0  0  0  0  0  0  0  0  0
  1  2  1  0  0  0  0
  1 31  1  0  0  0  0
  2  3  1  0  0  0  0
  2 32  1  0  0  0  0
  2 33  1  0  0  0  0
  3  4  1  0  0  0  0
  3 26  1  0  0  0  0
  3 34  1  0  0  0  0
  4  5  1  0  0  0  0
  4 35  1  0  0  0  0
  4 36  1  0  0  0  0
  5 25  1  0  0  0  0
  5  6  1  0  0  0  0
  6  7  2  0  0  0  0
  6 37  1  0  0  0  0
  7  8  1  0  0  0  0
  8 25  2  0  0  0  0
  8  9  1  0  0  0  0
  9 10  1  0  0  0  0
  9 22  2  0  0  0  0
 10 15  1  0  0  0  0
 10 11  1  0  0  0  0
 11 12  1  0  0  0  0
 11 38  1  0  0  0  0
 11 39  1  0  0  0  0
 12 13  1  0  0  0  0
 12 40  1  0  0  0  0
 12 41  1  0  0  0  0
 13 14  1  0  0  0  0
 13 42  1  0  0  0  0
 13 43  1  0  0  0  0
 14 15  1  0  0  0  0
 14 44  1  0  0  0  0
 14 45  1  0  0  0  0
 15 16  1  0  0  0  0
 15 46  1  0  0  0  0
 16 20  1  0  0  0  0
 16 17  1  0  0  0  0
 16 47  1  0  0  0  0
 17 18  1  0  0  0  0
 17 48  1  0  0  0  0
 17 49  1  0  0  0  0
 18 19  1  0  0  0  0
 18 50  1  0  0  0  0
 18 51  1  0  0  0  0
 19 20  1  0  0  0  0
 19 52  1  0  0  0  0
 19 53  1  0  0  0  0
 20 21  1  0  0  0  0
 20 54  1  0  0  0  0
 21 55  1  0  0  0  0
 22 23  1  0  0  0  0
 23 24  2  0  0  0  0
 23 56  1  0  0  0  0
 24 25  1  0  0  0  0
 26 30  1  0  0  0  0
 26 27  1  0  0  0  0
 26 57  1  0  0  0  0
 27 28  1  0  0  0  0
 27 58  1  0  0  0  0
 27 59  1  0  0  0  0
 28 29  1  0  0  0  0
 28 60  1  0  0  0  0
 28 61  1  0  0  0  0
 29 30  1  0  0  0  0
 30 62  1  0  0  0  0
 30 63  1  0  0  0  0
M  END
> <s_m_source_file>
AV-unprocessed.smi

> <i_m_source_file_index>
148

> <i_lp_mmshare_version>
43012

> <i_f3d_flags>
0

> <s_epik_input>
W0NIMl0xT1tDSDJdW0NIMl1bQ0BIXTFbQ0BIXShbQ0gyXVtPSF0pW0NIMl1uKFtjSF1uMiljKGMyMyluW2NIXW5jM040W0NIMl1bQ0gyXVtDSDJdW0NIMl1bQ0BIXTRbQ0BASF01W0NIMl1bQ0gyXVtDSDJdW0NASF01W09IXQ==

> <s_epik_cmdline>
J2VwaWtfcHl0aG9uJywgJy1waCcsICc3LjAnLCAnLXRuJywgJzgnLCAnLW1hJywgJzIwMCcsICctbWV0YWxfYmluZGluZycsICctaW1hZScsICc8aW5maWxlLm1hZT4nLCAnLW9tYWUnLCAnPG91dGZpbGUubWFlPic=

> <r_lp_tautomer_probability>
1

> <r_epik_Ionization_Penalty>
0.00556303

> <r_epik_Ionization_Penalty_Charging>
0

> <r_epik_Ionization_Penalty_Neutral>
0.00556303

> <r_epik_State_Penalty>
0.00401767

> <r_epik_Charging_Adjusted_Penalty>
0.00401767

> <i_epik_Tot_Q>
0

> <i_epik_Tot_abs_Q>
0

> <r_epik_Metal_State_Penalty>
-0

> <b_epik_Metal_Only>
0

> <s_lp_Force_Field>
OPLS_2005

> <r_lp_Energy>
70.4735

> <b_lp_Chiralities_Consistent>
1

> <s_lp_Variant>
AV-unprocessed.smi:148-6

> <Gold.Version>
5.8.1

> <Gold.Id.Protein>
6NUR|6NUR_protein|mol2

> <Gold.PLP.Fitness>
42.7332

> <Gold.PLP.PLP>
-38.7072

> <Gold.PLP.part.hbond>
-2.2682

> <Gold.PLP.part.metal>
0.0000

> <Gold.PLP.part.buried>
-3.0286

> <Gold.PLP.part.nonpolar>
-32.8747

> <Gold.PLP.part.repulsive>
0.2060

> <Gold.PLP.ligand.clash>
0.0000

> <Gold.PLP.ligand.torsion>
2.2928

> <Gold.PLP.Chemscore.Hbond>
1.7040

> <Gold.PLP.Chemscore.CHOScore>
1.0000

> <Gold.PLP.Chemscore.Metal>
0.0000

> <Gold.Chemscore.Hbonds>
donor molecule, donor type, donor heavy atom, donor atom, acceptor molecule, acceptor atom, score
      L1  H     1    31       P1  7948  1.00
      P1  H  7989  7998       L1    21  0.52
      L1  C     6    37       P1  7949  0.61

> <Gold.PLP.Chemscore.Internal.Correction>
0.4997

> <Gold.Rescore>
     Score         DG    S(hbond)    S(metal)    S(lipo)     H(rot)  DE(clash)    DE(int)     intcor
      9.03     -12.96       1.49        0.00      94.07       3.32       0.43       3.50       ----

> <Gold.Chemscore.Fitness>
9.0292

> <Gold.Chemscore.DG>
-12.9597

> <Gold.Chemscore.ZeroCoef>
-5.4800

> <Gold.Chemscore.Hbond>
1.4890

> <Gold.Chemscore.Metal>
0.0000

> <Gold.Chemscore.Lipo>
94.0706

> <Gold.Chemscore.Internal_Hbond>
0.0000

> <Gold.Chemscore.DEClash>
0.4284

> <Gold.Chemscore.DEInternal>
3.5020

> <Gold.Chemscore.Rot>
3.3203

> <Gold.Chemscore.Internal.Correction>
   9.000000E+99

> <Gold.Chemscore.Hbonds>
donor molecule, donor type, donor heavy atom, donor atom, acceptor molecule, acceptor atom, score
      L1  H     1    31       P1  7948  0.99
      P1  H  7989  7998       L1    21  0.06

> <Gold.Chemscore.Hbond.Weighted>
-4.9734

> <Gold.Chemscore.Metal.Weighted>
-0.0000

> <Gold.Chemscore.Lipo.Weighted>
-11.0063

> <Gold.Chemscore.Internal_Hbond.Weighted>
0.0000

> <Gold.Chemscore.DEClash.Weighted>
0.4284

> <Gold.Chemscore.DEInternal.Weighted>
3.5020

> <Gold.Chemscore.Rot.Weighted>
8.5000

> <Gold.Chemscore.Internal.Correction.Weighted>
   9.000000E+99

> <Gold.Protein.RotatedTorsions>
[ 6907 6896 6895 6894 ] final  138.66 input  -60.11 | X-H torsion
[ 7974 7965 7964 7962 ] final  -66.96 input  175.53 | X-H torsion
[ 8008 7997 7996 7995 ] final   28.11 input   59.86 | X-H torsion
[ 10167 10162 10161 10158 ] final   56.17 input  -65.29 | X-H torsion
[ 10718 10713 10712 10709 ] final  -60.45 input   66.30 | X-H torsion
[ 10763 10752 10751 10750 ] final  106.17 input  -60.55 | X-H torsion
[ 11005 11000 10999 10996 ] final   21.41 input  -57.11 | X-H torsion

> <Gold.Protein.ActiveResidues>
 VAL166  LYS551  ARG553  GLY616  TRP617  ASP618  TYR619  PRO620  LYS621  CYS622 
 ASP623  PHE694  ASN695  SER759  ASP760  ASP761  ALA762  ILE779  LEU786  VAL792 
 PHE793  MET794  SER795  GLU796  ALA797  LYS798  CYS799  TRP800  GLU811  SER814 

> <Gold.Protein.RotatedAtoms>
  152.2640  133.5322  159.5398 H   0  0  0  0  0  0  0  0  0  0  0  0  # atno 6907 bound_to 6896
  150.7135  134.0791  159.3900 H   0  0  0  0  0  0  0  0  0  0  0  0  # atno 6908 bound_to 6896
  151.8708  135.0490  160.0530 H   0  0  0  0  0  0  0  0  0  0  0  0  # atno 6909 bound_to 6896
  145.7352  140.8979  143.0559 H   0  0  0  0  0  0  0  0  0  0  0  0  # atno 7974 bound_to 7965
  155.0535  140.3182  155.4684 H   0  0  0  0  0  0  0  0  0  0  0  0  # atno 8008 bound_to 7997
  156.2829  140.2142  156.5605 H   0  0  0  0  0  0  0  0  0  0  0  0  # atno 8009 bound_to 7997
  154.7191  140.0491  157.0610 H   0  0  0  0  0  0  0  0  0  0  0  0  # atno 8010 bound_to 7997
  140.2116  144.3883  150.6486 H   0  0  0  0  0  0  0  0  0  0  0  0  # atno 10167 bound_to 10162
  156.0990  130.4189  150.0856 H   0  0  0  0  0  0  0  0  0  0  0  0  # atno 10718 bound_to 10713
  153.3893  135.3886  155.1912 H   0  0  0  0  0  0  0  0  0  0  0  0  # atno 10763 bound_to 10752
  154.8717  135.3744  154.4758 H   0  0  0  0  0  0  0  0  0  0  0  0  # atno 10764 bound_to 10752
  153.5243  135.7086  153.5777 H   0  0  0  0  0  0  0  0  0  0  0  0  # atno 10765 bound_to 10752
  140.3919  134.1810  155.7662 H   0  0  0  0  0  0  0  0  0  0  0  0  # atno 11005 bound_to 11000
  144.6883  139.9385  143.7474 LP  0  0  0  0  0  0  0  0  0  0  0  0  # atno 17320 bound_to 7965
  146.0500  139.3502  143.0645 LP  0  0  0  0  0  0  0  0  0  0  0  0  # atno 17321 bound_to 7965
  140.6319  143.2189  151.6476 LP  0  0  0  0  0  0  0  0  0  0  0  0  # atno 17342 bound_to 10162
  139.5178  144.3305  152.0831 LP  0  0  0  0  0  0  0  0  0  0  0  0  # atno 17343 bound_to 10162
  156.8848  130.9568  151.3595 LP  0  0  0  0  0  0  0  0  0  0  0  0  # atno 17370 bound_to 10713
  157.6156  130.8616  149.9023 LP  0  0  0  0  0  0  0  0  0  0  0  0  # atno 17371 bound_to 10713
  141.1888  133.8253  157.0982 LP  0  0  0  0  0  0  0  0  0  0  0  0  # atno 17394 bound_to 11000
  140.0400  134.9859  157.0944 LP  0  0  0  0  0  0  0  0  0  0  0  0  # atno 17395 bound_to 11000

$$$$
