AV-unprocessed.smi:2336|AV-procd|sdf|9327|dock10
  -GOLD-   2272012543D 1   1.00000     0.00000
 Structure written by MMmdl.
 50 51  0  0  0  0  0  0  0  0  2 V2000
  152.8345  138.9236  154.7156 C   0  0  0  0  0  0  0  0  0  0  0  0
  151.6656  138.7600  155.7037 C   0  0  0  0  0  0  0  0  0  0  0  0
  151.5671  137.3088  156.2071 C   0  0  0  0  0  0  0  0  0  0  0  0
  150.3028  139.3314  155.1771 C   0  0  2  0  0  0  0  0  0  0  0  0
  149.7928  138.6192  153.8827 C   0  0  0  0  0  0  0  0  0  0  0  0
  148.7024  137.6831  154.1282 N   0  0  0  0  0  0  0  0  0  0  0  0
  147.5016  137.7386  153.5333 C   0  0  0  0  0  0  0  0  0  0  0  0
  147.1996  138.5974  152.7042 O   0  0  0  0  0  0  0  0  0  0  0  0
  146.6943  136.7614  153.9800 N   0  0  0  0  0  0  0  0  0  0  0  0
  145.3401  136.4895  153.6405 C   0  0  0  0  0  0  0  0  0  0  0  0
  144.5901  137.2219  152.6880 C   0  0  0  0  0  0  0  0  0  0  0  0
  143.2569  136.8383  152.4396 C   0  0  0  0  0  0  0  0  0  0  0  0
  142.6532  135.8004  153.0561 N   0  0  0  0  0  0  0  0  0  0  0  0
  143.3747  135.0963  153.9531 C   0  0  0  0  0  0  0  0  0  0  0  0
  144.7132  135.3967  154.2763 C   0  0  0  0  0  0  0  0  0  0  0  0
  145.3817  134.6456  155.1847 F   0  0  0  0  0  0  0  0  0  0  0  0
  150.4120  140.8030  155.0242 N   0  0  0  0  0  0  0  0  0  0  0  0
  149.2331  141.5263  154.5243 C   0  0  0  0  0  0  0  0  0  0  0  0
  148.0826  141.5286  155.5536 C   0  0  0  0  0  0  0  0  0  0  0  0
  148.5185  142.2003  156.7978 N   0  3  0  0  0  0  0  0  0  0  0  0
  147.4418  142.2909  157.8069 C   0  0  0  0  0  0  0  0  0  0  0  0
  149.7472  141.5660  157.3266 C   0  0  0  0  0  0  0  0  0  0  0  0
  150.8460  141.5152  156.2405 C   0  0  0  0  0  0  0  0  0  0  0  0
  152.7185  138.2884  153.8375 H   0  0  0  0  0  0  0  0  0  0  0  0
  153.7804  138.6535  155.1860 H   0  0  0  0  0  0  0  0  0  0  0  0
  152.9223  139.9560  154.3762 H   0  0  0  0  0  0  0  0  0  0  0  0
  151.9683  139.3156  156.5869 H   0  0  0  0  0  0  0  0  0  0  0  0
  151.4646  136.5912  155.3951 H   0  0  0  0  0  0  0  0  0  0  0  0
  150.7197  137.1797  156.8810 H   0  0  0  0  0  0  0  0  0  0  0  0
  152.4655  137.0322  156.7596 H   0  0  0  0  0  0  0  0  0  0  0  0
  149.5483  139.1489  155.9399 H   0  0  0  0  0  0  0  0  0  0  0  0
  149.4136  139.3282  153.1481 H   0  0  0  0  0  0  0  0  0  0  0  0
  150.6036  138.0870  153.3853 H   0  0  0  0  0  0  0  0  0  0  0  0
  148.8718  136.9498  154.8016 H   0  0  0  0  0  0  0  0  0  0  0  0
  147.0763  136.1717  154.7052 H   0  0  0  0  0  0  0  0  0  0  0  0
  145.0029  138.0532  152.1390 H   0  0  0  0  0  0  0  0  0  0  0  0
  142.6605  137.3782  151.7190 H   0  0  0  0  0  0  0  0  0  0  0  0
  142.8712  134.2669  154.4274 H   0  0  0  0  0  0  0  0  0  0  0  0
  149.5243  142.5561  154.3124 H   0  0  0  0  0  0  0  0  0  0  0  0
  148.9042  141.1314  153.5640 H   0  0  0  0  0  0  0  0  0  0  0  0
  147.2266  142.0621  155.1393 H   0  0  0  0  0  0  0  0  0  0  0  0
  147.7452  140.5159  155.7778 H   0  0  0  0  0  0  0  0  0  0  0  0
  147.1218  141.2987  158.1283 H   0  0  0  0  0  0  0  0  0  0  0  0
  146.5763  142.8147  157.3998 H   0  0  0  0  0  0  0  0  0  0  0  0
  147.7827  142.8417  158.6840 H   0  0  0  0  0  0  0  0  0  0  0  0
  150.1086  142.1484  158.1748 H   0  0  0  0  0  0  0  0  0  0  0  0
  149.5211  140.5717  157.7126 H   0  0  0  0  0  0  0  0  0  0  0  0
  151.7507  141.0900  156.6679 H   0  0  0  0  0  0  0  0  0  0  0  0
  151.1167  142.5345  155.9609 H   0  0  0  0  0  0  0  0  0  0  0  0
  148.7655  143.1463  156.5444 H   0  0  0  0  0  0  0  0  0  0  0  0
  1  2  1  0  0  0  0
  1 24  1  0  0  0  0
  1 25  1  0  0  0  0
  1 26  1  0  0  0  0
  2  3  1  0  0  0  0
  2  4  1  0  0  0  0
  2 27  1  0  0  0  0
  3 28  1  0  0  0  0
  3 29  1  0  0  0  0
  3 30  1  0  0  0  0
  4  5  1  0  0  0  0
  4 17  1  0  0  0  0
  4 31  1  0  0  0  0
  5  6  1  0  0  0  0
  5 32  1  0  0  0  0
  5 33  1  0  0  0  0
  6  7  1  0  0  0  0
  6 34  1  0  0  0  0
  7  8  2  0  0  0  0
  7  9  1  0  0  0  0
  9 10  1  0  0  0  0
  9 35  1  0  0  0  0
 10 15  1  0  0  0  0
 10 11  2  0  0  0  0
 11 12  1  0  0  0  0
 11 36  1  0  0  0  0
 12 13  2  0  0  0  0
 12 37  1  0  0  0  0
 13 14  1  0  0  0  0
 14 15  2  0  0  0  0
 14 38  1  0  0  0  0
 15 16  1  0  0  0  0
 17 23  1  0  0  0  0
 17 18  1  0  0  0  0
 18 19  1  0  0  0  0
 18 39  1  0  0  0  0
 18 40  1  0  0  0  0
 19 20  1  0  0  0  0
 19 41  1  0  0  0  0
 19 42  1  0  0  0  0
 20 21  1  0  0  0  0
 20 22  1  0  0  0  0
 20 50  1  0  0  0  0
 21 43  1  0  0  0  0
 21 44  1  0  0  0  0
 21 45  1  0  0  0  0
 22 23  1  0  0  0  0
 22 46  1  0  0  0  0
 22 47  1  0  0  0  0
 23 48  1  0  0  0  0
 23 49  1  0  0  0  0
M  CHG  1  20   1
M  END
> <s_m_source_file>
AV-unprocessed.smi

> <i_m_source_file_index>
2336

> <i_lp_mmshare_version>
43012

> <i_f3d_flags>
0

> <s_epik_input>
W0NIMl0xW0NIMl1OKFtDSDNdKVtDSDJdW0NIMl1OMVtDQEhdKFtDSF0oW0NIM10pW0NIM10pW0NIMl1bTkhdQyg9TylbTkhdYzJbY0hdW2NIXW5bY0hdYzJG

> <s_epik_cmdline>
J2VwaWtfcHl0aG9uJywgJy1waCcsICc3LjAnLCAnLXRuJywgJzgnLCAnLW1hJywgJzIwMCcsICctbWV0YWxfYmluZGluZycsICctaW1hZScsICc8aW5maWxlLm1hZT4nLCAnLW9tYWUnLCAnPG91dGZpbGUubWFlPic=

> <r_epik_Ionization_Penalty>
0.0313013

> <r_epik_Ionization_Penalty_Charging>
0.0272987

> <r_epik_Ionization_Penalty_Neutral>
0.00400259

> <r_epik_State_Penalty>
0.0776825

> <r_epik_Charging_Adjusted_Penalty>
0.104981

> <i_epik_Tot_Q>
1

> <i_epik_Tot_abs_Q>
1

> <r_epik_Metal_State_Penalty>
0.0776139

> <b_epik_Metal_Only>
0

> <s_lp_Force_Field>
OPLS_2005

> <r_lp_Energy>
31.6665

> <b_lp_Chiralities_Consistent>
1

> <s_lp_Variant>
AV-unprocessed.smi:2336-1

> <Gold.Version>
5.8.1

> <Gold.Id.Protein>
6NUR|6NUR_protein|mol2

> <Gold.PLP.Fitness>
39.2020

> <Gold.PLP.PLP>
-26.7682

> <Gold.PLP.part.hbond>
-3.5369

> <Gold.PLP.part.metal>
0.0000

> <Gold.PLP.part.buried>
2.6662

> <Gold.PLP.part.nonpolar>
-25.8193

> <Gold.PLP.part.repulsive>
1.1259

> <Gold.PLP.ligand.clash>
0.0000

> <Gold.PLP.ligand.torsion>
0.7480

> <Gold.PLP.Chemscore.Hbond>
2.8320

> <Gold.PLP.Chemscore.CHOScore>
1.7592

> <Gold.PLP.Chemscore.Metal>
0.0000

> <Gold.Chemscore.Hbonds>
donor molecule, donor type, donor heavy atom, donor atom, acceptor molecule, acceptor atom, score
      L1  H    20    50       P1  8028  2.00
      P1  H  7989  7998       L1    17  0.83
      L1  C    12    37       P1 10171  0.79
      L1  C    14    38       P1 10957  1.00

> <Gold.PLP.Chemscore.Internal.Correction>
0.1562

> <Gold.Rescore>
     Score         DG    S(hbond)    S(metal)    S(lipo)     H(rot)  DE(clash)    DE(int)     intcor
     10.51     -13.47       1.11        0.00      73.22       1.67       1.07       1.89       ----

> <Gold.Chemscore.Fitness>
10.5136

> <Gold.Chemscore.DG>
-13.4695

> <Gold.Chemscore.ZeroCoef>
-5.4800

> <Gold.Chemscore.Hbond>
1.1100

> <Gold.Chemscore.Metal>
0.0000

> <Gold.Chemscore.Lipo>
73.2240

> <Gold.Chemscore.Internal_Hbond>
0.0000

> <Gold.Chemscore.DEClash>
1.0679

> <Gold.Chemscore.DEInternal>
1.8880

> <Gold.Chemscore.Rot>
1.6739

> <Gold.Chemscore.Internal.Correction>
   9.000000E+99

> <Gold.Chemscore.Hbonds>
donor molecule, donor type, donor heavy atom, donor atom, acceptor molecule, acceptor atom, score
      L1  H    20    50       P1  8028  0.90
      P1  H  7989  7998       L1    17  0.07

> <Gold.Chemscore.Hbond.Weighted>
-3.7074

> <Gold.Chemscore.Metal.Weighted>
-0.0000

> <Gold.Chemscore.Lipo.Weighted>
-8.5672

> <Gold.Chemscore.Internal_Hbond.Weighted>
0.0000

> <Gold.Chemscore.DEClash.Weighted>
1.0679

> <Gold.Chemscore.DEInternal.Weighted>
1.8880

> <Gold.Chemscore.Rot.Weighted>
4.2851

> <Gold.Chemscore.Internal.Correction.Weighted>
   9.000000E+99

> <Gold.Protein.RotatedTorsions>
[ 6907 6896 6895 6894 ] final   91.48 input  -60.11 | X-H torsion
[ 7974 7965 7964 7962 ] final  -86.22 input  175.53 | X-H torsion
[ 8008 7997 7996 7995 ] final    2.65 input   59.86 | X-H torsion
[ 10167 10162 10161 10158 ] final -109.67 input  -65.29 | X-H torsion
[ 10718 10713 10712 10709 ] final  -40.07 input   66.30 | X-H torsion
[ 10763 10752 10751 10750 ] final -158.50 input  -60.55 | X-H torsion
[ 11005 11000 10999 10996 ] final -115.53 input  -57.11 | X-H torsion

> <Gold.Protein.ActiveResidues>
 VAL166  LYS551  ARG553  GLY616  TRP617  ASP618  TYR619  PRO620  LYS621  CYS622 
 ASP623  PHE694  ASN695  SER759  ASP760  ASP761  ALA762  ILE779  LEU786  VAL792 
 PHE793  MET794  SER795  GLU796  ALA797  LYS798  CYS799  TRP800  GLU811  SER814 

> <Gold.Protein.RotatedAtoms>
  152.5450  134.1650  159.8573 H   0  0  0  0  0  0  0  0  0  0  0  0  # atno 6907 bound_to 6896
  151.1665  133.4804  159.2601 H   0  0  0  0  0  0  0  0  0  0  0  0  # atno 6908 bound_to 6896
  151.1318  135.0145  159.8641 H   0  0  0  0  0  0  0  0  0  0  0  0  # atno 6909 bound_to 6896
  145.4828  140.9556  143.1855 H   0  0  0  0  0  0  0  0  0  0  0  0  # atno 7974 bound_to 7965
  154.6941  140.2659  155.6783 H   0  0  0  0  0  0  0  0  0  0  0  0  # atno 8008 bound_to 7997
  156.2742  140.2785  156.1453 H   0  0  0  0  0  0  0  0  0  0  0  0  # atno 8009 bound_to 7997
  155.0855  140.0373  157.2642 H   0  0  0  0  0  0  0  0  0  0  0  0  # atno 8010 bound_to 7997
  140.1527  143.4185  152.1483 H   0  0  0  0  0  0  0  0  0  0  0  0  # atno 10167 bound_to 10162
  156.2854  130.4222  149.8293 H   0  0  0  0  0  0  0  0  0  0  0  0  # atno 10718 bound_to 10713
  154.7552  135.3103  154.8484 H   0  0  0  0  0  0  0  0  0  0  0  0  # atno 10763 bound_to 10752
  153.9260  135.6790  153.4750 H   0  0  0  0  0  0  0  0  0  0  0  0  # atno 10764 bound_to 10752
  153.1149  135.4849  154.9027 H   0  0  0  0  0  0  0  0  0  0  0  0  # atno 10765 bound_to 10752
  141.0482  133.9730  157.2882 H   0  0  0  0  0  0  0  0  0  0  0  0  # atno 11005 bound_to 11000
  144.7879  139.6388  143.7126 LP  0  0  0  0  0  0  0  0  0  0  0  0  # atno 17320 bound_to 7965
  146.2331  139.5852  142.9542 LP  0  0  0  0  0  0  0  0  0  0  0  0  # atno 17321 bound_to 7965
  139.5418  144.7263  151.4710 LP  0  0  0  0  0  0  0  0  0  0  0  0  # atno 17342 bound_to 10162
  140.6692  143.8331  150.6979 LP  0  0  0  0  0  0  0  0  0  0  0  0  # atno 17343 bound_to 10162
  156.5725  130.8431  151.3360 LP  0  0  0  0  0  0  0  0  0  0  0  0  # atno 17370 bound_to 10713
  157.7327  130.9719  150.1941 LP  0  0  0  0  0  0  0  0  0  0  0  0  # atno 17371 bound_to 10713
  139.9328  135.0199  156.8458 LP  0  0  0  0  0  0  0  0  0  0  0  0  # atno 17394 bound_to 11000
  140.6107  134.0085  155.7575 LP  0  0  0  0  0  0  0  0  0  0  0  0  # atno 17395 bound_to 11000

$$$$
