AV-unprocessed.smi:3187|AV-procd|sdf|12176|dock1
  -GOLD-   2272018 13D 1   1.00000     0.00000
 Structure written by MMmdl.
 41 42  0  0  0  0  0  0  0  0  2 V2000
  151.7275  145.6670  160.1196 C   0  0  0  0  0  0  0  0  0  0  0  0
  152.0241  144.1883  160.3094 C   0  0  0  0  0  0  0  0  0  0  0  0
  152.4214  143.7366  161.5143 C   0  0  0  0  0  0  0  0  0  0  0  0
  152.8174  142.3066  161.8000 C   0  0  0  0  0  0  0  0  0  0  0  0
  153.2019  141.5767  160.5112 C   0  0  0  0  0  0  0  0  0  0  0  0
  152.1325  141.7600  159.4216 C   0  0  2  0  0  0  0  0  0  0  0  0
  152.5212  140.9343  158.1797 C   0  0  0  0  0  0  0  0  0  0  0  0
  151.8783  143.2621  159.0841 C   0  0  1  0  0  0  0  0  0  0  0  0
  150.5100  143.4209  158.3691 C   0  0  0  0  0  0  0  0  0  0  0  0
  150.4978  142.8351  157.0135 N   0  3  0  0  0  0  0  0  0  0  0  0
  149.5908  141.6799  156.8601 C   0  0  0  0  0  0  0  0  0  0  0  0
  149.5101  141.2167  155.3971 C   0  0  0  0  0  0  0  0  0  0  0  0
  150.2501  139.9897  155.1709 N   0  0  0  0  0  0  0  0  0  0  0  0
  150.1801  139.1630  154.0571 C   0  0  0  0  0  0  0  0  0  0  0  0
  151.0492  138.1203  154.2864 C   0  0  0  0  0  0  0  0  0  0  0  0
  151.6615  138.2850  155.5268 N   0  0  0  0  0  0  0  0  0  0  0  0
  151.1436  139.4154  155.9887 C   0  0  0  0  0  0  0  0  0  0  0  0
  152.2624  146.0562  159.2530 H   0  0  0  0  0  0  0  0  0  0  0  0
  152.0406  146.2479  160.9880 H   0  0  0  0  0  0  0  0  0  0  0  0
  150.6596  145.8364  159.9848 H   0  0  0  0  0  0  0  0  0  0  0  0
  152.4881  144.4172  162.3509 H   0  0  0  0  0  0  0  0  0  0  0  0
  153.6601  142.3002  162.4922 H   0  0  0  0  0  0  0  0  0  0  0  0
  151.9875  141.8056  162.2993 H   0  0  0  0  0  0  0  0  0  0  0  0
  154.1593  141.9561  160.1504 H   0  0  0  0  0  0  0  0  0  0  0  0
  153.3520  140.5181  160.7267 H   0  0  0  0  0  0  0  0  0  0  0  0
  151.2058  141.3421  159.8188 H   0  0  0  0  0  0  0  0  0  0  0  0
  153.4401  141.3093  157.7277 H   0  0  0  0  0  0  0  0  0  0  0  0
  151.7482  140.9443  157.4131 H   0  0  0  0  0  0  0  0  0  0  0  0
  152.6892  139.8897  158.4436 H   0  0  0  0  0  0  0  0  0  0  0  0
  152.6632  143.5731  158.3926 H   0  0  0  0  0  0  0  0  0  0  0  0
  149.7154  142.9328  158.9310 H   0  0  0  0  0  0  0  0  0  0  0  0
  150.2421  144.4772  158.3152 H   0  0  0  0  0  0  0  0  0  0  0  0
  150.2169  143.5523  156.3599 H   0  0  0  0  0  0  0  0  0  0  0  0
  149.9292  140.8616  157.4973 H   0  0  0  0  0  0  0  0  0  0  0  0
  148.5963  141.9636  157.2062 H   0  0  0  0  0  0  0  0  0  0  0  0
  148.4702  141.0414  155.1189 H   0  0  0  0  0  0  0  0  0  0  0  0
  149.8883  141.9903  154.7270 H   0  0  0  0  0  0  0  0  0  0  0  0
  149.5356  139.3772  153.2171 H   0  0  0  0  0  0  0  0  0  0  0  0
  151.2791  137.2714  153.6591 H   0  0  0  0  0  0  0  0  0  0  0  0
  151.4157  139.8311  156.9481 H   0  0  0  0  0  0  0  0  0  0  0  0
  151.4363  142.5394  156.7845 H   0  0  0  0  0  0  0  0  0  0  0  0
  1  2  1  0  0  0  0
  1 18  1  0  0  0  0
  1 19  1  0  0  0  0
  1 20  1  0  0  0  0
  2  8  1  0  0  0  0
  2  3  2  0  0  0  0
  3  4  1  0  0  0  0
  3 21  1  0  0  0  0
  4  5  1  0  0  0  0
  4 22  1  0  0  0  0
  4 23  1  0  0  0  0
  5  6  1  0  0  0  0
  5 24  1  0  0  0  0
  5 25  1  0  0  0  0
  6  7  1  0  0  0  0
  6  8  1  0  0  0  0
  6 26  1  0  0  0  0
  7 27  1  0  0  0  0
  7 28  1  0  0  0  0
  7 29  1  0  0  0  0
  8  9  1  0  0  0  0
  8 30  1  0  0  0  0
  9 10  1  0  0  0  0
  9 31  1  0  0  0  0
  9 32  1  0  0  0  0
 10 11  1  0  0  0  0
 10 33  1  0  0  0  0
 10 41  1  0  0  0  0
 11 12  1  0  0  0  0
 11 34  1  0  0  0  0
 11 35  1  0  0  0  0
 12 13  1  0  0  0  0
 12 36  1  0  0  0  0
 12 37  1  0  0  0  0
 13 17  1  0  0  0  0
 13 14  1  0  0  0  0
 14 15  2  0  0  0  0
 14 38  1  0  0  0  0
 15 16  1  0  0  0  0
 15 39  1  0  0  0  0
 16 17  2  0  0  0  0
 17 40  1  0  0  0  0
M  CHG  1  10   1
M  END
> <s_m_source_file>
AV-unprocessed.smi

> <i_m_source_file_index>
3187

> <i_lp_mmshare_version>
43012

> <i_f3d_flags>
0

> <s_epik_input>
W0NIM11DMT1bQ0hdW0NIMl1bQ0gyXVtDQEBIXShbQ0gzXSlbQ0BIXTFbQ0gyXVtOSF1bQ0gyXVtDSDJdbjJbY0hdW2NIXW5bY0hdMg==

> <s_epik_cmdline>
J2VwaWtfcHl0aG9uJywgJy1waCcsICc3LjAnLCAnLXRuJywgJzgnLCAnLW1hJywgJzIwMCcsICctbWV0YWxfYmluZGluZycsICctaW1hZScsICc8aW5maWxlLm1hZT4nLCAnLW9tYWUnLCAnPG91dGZpbGUubWFlPic=

> <r_lp_tautomer_probability>
1

> <r_epik_Ionization_Penalty>
0.0501625

> <r_epik_Ionization_Penalty_Charging>
0.0501625

> <r_epik_Ionization_Penalty_Neutral>
0

> <r_epik_State_Penalty>
0.0972392

> <r_epik_Charging_Adjusted_Penalty>
0.147402

> <i_epik_Tot_Q>
1

> <i_epik_Tot_abs_Q>
1

> <r_epik_Metal_State_Penalty>
0.000104376

> <b_epik_Metal_Only>
0

> <s_lp_Force_Field>
OPLS_2005

> <r_lp_Energy>
17.5131

> <b_lp_Chiralities_Consistent>
1

> <s_lp_Variant>
AV-unprocessed.smi:3187-2

> <Gold.Version>
5.8.1

> <Gold.Id.Protein>
6NUR|6NUR_protein|mol2

> <Gold.PLP.Fitness>
53.7531

> <Gold.PLP.PLP>
-43.5319

> <Gold.PLP.part.hbond>
-1.0000

> <Gold.PLP.part.metal>
0.0000

> <Gold.PLP.part.buried>
-4.7838

> <Gold.PLP.part.nonpolar>
-38.2814

> <Gold.PLP.part.repulsive>
0.0324

> <Gold.PLP.ligand.clash>
0.0000

> <Gold.PLP.ligand.torsion>
0.9401

> <Gold.PLP.Chemscore.Hbond>
2.0000

> <Gold.PLP.Chemscore.CHOScore>
1.9805

> <Gold.PLP.Chemscore.Metal>
0.0000

> <Gold.Chemscore.Hbonds>
donor molecule, donor type, donor heavy atom, donor atom, acceptor molecule, acceptor atom, score
      L1  H    10    33       P1  8028  2.00
      L1  C    14    38       P1  7957  1.00
      L1  C    15    39       P1  7949  1.00

> <Gold.PLP.Chemscore.Internal.Correction>
0.1599

> <Gold.Rescore>
     Score         DG    S(hbond)    S(metal)    S(lipo)     H(rot)  DE(clash)    DE(int)     intcor
     16.12     -17.95       1.00        0.00     119.25       1.89       0.02       1.81       ----

> <Gold.Chemscore.Fitness>
16.1201

> <Gold.Chemscore.DG>
-17.9458

> <Gold.Chemscore.ZeroCoef>
-5.4800

> <Gold.Chemscore.Hbond>
0.9998

> <Gold.Chemscore.Metal>
0.0000

> <Gold.Chemscore.Lipo>
119.2529

> <Gold.Chemscore.Internal_Hbond>
0.0000

> <Gold.Chemscore.DEClash>
0.0202

> <Gold.Chemscore.DEInternal>
1.8054

> <Gold.Chemscore.Rot>
1.8853

> <Gold.Chemscore.Internal.Correction>
   9.000000E+99

> <Gold.Chemscore.Hbonds>
donor molecule, donor type, donor heavy atom, donor atom, acceptor molecule, acceptor atom, score
      L1  H    10    33       P1  8028  0.95

> <Gold.Chemscore.Hbond.Weighted>
-3.3395

> <Gold.Chemscore.Metal.Weighted>
-0.0000

> <Gold.Chemscore.Lipo.Weighted>
-13.9526

> <Gold.Chemscore.Internal_Hbond.Weighted>
0.0000

> <Gold.Chemscore.DEClash.Weighted>
0.0202

> <Gold.Chemscore.DEInternal.Weighted>
1.8054

> <Gold.Chemscore.Rot.Weighted>
4.8263

> <Gold.Chemscore.Internal.Correction.Weighted>
   9.000000E+99

> <Gold.Protein.RotatedTorsions>
[ 6907 6896 6895 6894 ] final  109.07 input  -60.11 | X-H torsion
[ 7974 7965 7964 7962 ] final  125.00 input  175.53 | X-H torsion
[ 8008 7997 7996 7995 ] final  -84.37 input   59.86 | X-H torsion
[ 10167 10162 10161 10158 ] final   41.08 input  -65.29 | X-H torsion
[ 10718 10713 10712 10709 ] final  -99.43 input   66.30 | X-H torsion
[ 10763 10752 10751 10750 ] final -121.02 input  -60.55 | X-H torsion
[ 11005 11000 10999 10996 ] final   53.24 input  -57.11 | X-H torsion

> <Gold.Protein.ActiveResidues>
 VAL166  LYS551  ARG553  GLY616  TRP617  ASP618  TYR619  PRO620  LYS621  CYS622 
 ASP623  PHE694  ASN695  SER759  ASP760  ASP761  ALA762  ILE779  LEU786  VAL792 
 PHE793  MET794  SER795  GLU796  ALA797  LYS798  CYS799  TRP800  GLU811  SER814 

> <Gold.Protein.RotatedAtoms>
  152.5084  133.8998  159.7434 H   0  0  0  0  0  0  0  0  0  0  0  0  # atno 6907 bound_to 6896
  150.9416  133.6641  159.2796 H   0  0  0  0  0  0  0  0  0  0  0  0  # atno 6908 bound_to 6896
  151.3951  135.0967  159.9591 H   0  0  0  0  0  0  0  0  0  0  0  0  # atno 6909 bound_to 6896
  145.0780  139.3679  143.4924 H   0  0  0  0  0  0  0  0  0  0  0  0  # atno 7974 bound_to 7965
  154.6291  140.0606  156.9710 H   0  0  0  0  0  0  0  0  0  0  0  0  # atno 8008 bound_to 7997
  155.1694  140.3289  155.4377 H   0  0  0  0  0  0  0  0  0  0  0  0  # atno 8009 bound_to 7997
  156.2473  140.1917  156.6797 H   0  0  0  0  0  0  0  0  0  0  0  0  # atno 8010 bound_to 7997
  140.3678  144.2144  150.6134 H   0  0  0  0  0  0  0  0  0  0  0  0  # atno 10167 bound_to 10162
  156.0134  130.5282  150.6669 H   0  0  0  0  0  0  0  0  0  0  0  0  # atno 10718 bound_to 10713
  154.8658  135.4182  154.2553 H   0  0  0  0  0  0  0  0  0  0  0  0  # atno 10763 bound_to 10752
  153.3491  135.6998  153.6809 H   0  0  0  0  0  0  0  0  0  0  0  0  # atno 10764 bound_to 10752
  153.5756  135.3583  155.2827 H   0  0  0  0  0  0  0  0  0  0  0  0  # atno 10765 bound_to 10752
  140.0783  134.5374  155.8973 H   0  0  0  0  0  0  0  0  0  0  0  0  # atno 11005 bound_to 11000
  146.3530  140.0556  142.8633 LP  0  0  0  0  0  0  0  0  0  0  0  0  # atno 17320 bound_to 7965
  145.1213  140.9464  143.4599 LP  0  0  0  0  0  0  0  0  0  0  0  0  # atno 17321 bound_to 7965
  140.5063  143.2303  151.8603 LP  0  0  0  0  0  0  0  0  0  0  0  0  # atno 17342 bound_to 10162
  139.4807  144.5001  151.9071 LP  0  0  0  0  0  0  0  0  0  0  0  0  # atno 17343 bound_to 10162
  157.4400  131.0860  151.0953 LP  0  0  0  0  0  0  0  0  0  0  0  0  # atno 17370 bound_to 10713
  157.1500  130.6180  149.5579 LP  0  0  0  0  0  0  0  0  0  0  0  0  # atno 17371 bound_to 10713
  141.2037  133.6634  156.6080 LP  0  0  0  0  0  0  0  0  0  0  0  0  # atno 17394 bound_to 11000
  140.3525  134.7756  157.4477 LP  0  0  0  0  0  0  0  0  0  0  0  0  # atno 17395 bound_to 11000

$$$$
