AV-unprocessed.smi:311|AV-procd|sdf|2301|dock6
  -GOLD-   2262022203D 1   1.00000     0.00000
 Structure written by MMmdl.
 44 46  0  0  0  0  0  0  0  0  2 V2000
  152.5705  130.0638  157.7315 C   0  0  0  0  0  0  0  0  0  0  0  0
  151.7481  131.1578  157.1129 C   0  0  0  0  0  0  0  0  0  0  0  0
  151.5202  132.2678  157.7944 N   0  0  0  0  0  0  0  0  0  0  0  0
  150.7295  133.0703  156.9661 O   0  0  0  0  0  0  0  0  0  0  0  0
  150.5081  132.4024  155.8053 C   0  0  0  0  0  0  0  0  0  0  0  0
  149.6705  133.0922  154.7824 C   0  0  0  0  0  0  0  0  0  0  0  0
  151.1275  131.1831  155.8307 C   0  0  0  0  0  0  0  0  0  0  0  0
  151.1465  130.1170  154.7656 C   0  0  0  0  0  0  0  0  0  0  0  0
  149.7344  129.5678  154.5571 C   0  0  0  0  0  0  0  0  0  0  0  0
  149.4269  128.4656  155.0111 O   0  0  0  0  0  0  0  0  0  0  0  0
  148.8840  130.3435  153.8663 N   0  0  0  0  0  0  0  0  0  0  0  0
  147.5148  129.9795  153.5064 C   0  0  2  0  0  0  0  0  0  0  0  0
  147.4421  128.7643  152.5630 C   0  0  0  0  0  0  0  0  0  0  0  0
  146.3088  129.1016  151.5884 C   0  0  0  0  0  0  0  0  0  0  0  0
  146.4209  130.5580  151.4498 N   0  3  1  0  0  0  0  0  0  0  0  0
  145.3358  131.2915  150.7674 C   0  0  0  0  0  0  0  0  0  0  0  0
  145.7844  132.7568  150.5795 C   0  0  0  0  0  0  0  0  0  0  0  0
  146.2599  133.3990  151.9029 C   0  0  0  0  0  0  0  0  0  0  0  0
  147.2963  132.5163  152.6324 C   0  0  0  0  0  0  0  0  0  0  0  0
  146.7203  131.0972  152.7878 C   0  0  2  0  0  0  0  0  0  0  0  0
  153.2369  129.6114  156.9972 H   0  0  0  0  0  0  0  0  0  0  0  0
  151.9310  129.2758  158.1296 H   0  0  0  0  0  0  0  0  0  0  0  0
  153.1872  130.4367  158.5497 H   0  0  0  0  0  0  0  0  0  0  0  0
  148.8720  132.4370  154.4340 H   0  0  0  0  0  0  0  0  0  0  0  0
  150.2733  133.3784  153.9207 H   0  0  0  0  0  0  0  0  0  0  0  0
  149.2127  133.9938  155.1899 H   0  0  0  0  0  0  0  0  0  0  0  0
  151.5045  130.5112  153.8141 H   0  0  0  0  0  0  0  0  0  0  0  0
  151.8277  129.3076  155.0319 H   0  0  0  0  0  0  0  0  0  0  0  0
  149.2224  131.2362  153.5367 H   0  0  0  0  0  0  0  0  0  0  0  0
  146.9774  129.7168  154.4200 H   0  0  0  0  0  0  0  0  0  0  0  0
  148.3752  128.6607  152.0064 H   0  0  0  0  0  0  0  0  0  0  0  0
  147.2703  127.8280  153.0950 H   0  0  0  0  0  0  0  0  0  0  0  0
  146.4093  128.5901  150.6305 H   0  0  0  0  0  0  0  0  0  0  0  0
  145.3402  128.8450  152.0205 H   0  0  0  0  0  0  0  0  0  0  0  0
  145.1316  130.8334  149.7990 H   0  0  0  0  0  0  0  0  0  0  0  0
  144.4170  131.2366  151.3532 H   0  0  0  0  0  0  0  0  0  0  0  0
  146.6011  132.7885  149.8571 H   0  0  0  0  0  0  0  0  0  0  0  0
  144.9733  133.3445  150.1486 H   0  0  0  0  0  0  0  0  0  0  0  0
  146.6784  134.3874  151.7105 H   0  0  0  0  0  0  0  0  0  0  0  0
  145.3985  133.5525  152.5543 H   0  0  0  0  0  0  0  0  0  0  0  0
  148.2300  132.4893  152.0689 H   0  0  0  0  0  0  0  0  0  0  0  0
  147.5232  132.9495  153.6067 H   0  0  0  0  0  0  0  0  0  0  0  0
  145.7727  131.1834  153.3242 H   0  0  0  0  0  0  0  0  0  0  0  0
  147.2542  130.7080  150.8990 H   0  0  0  0  0  0  0  0  0  0  0  0
  1  2  1  0  0  0  0
  1 21  1  0  0  0  0
  1 22  1  0  0  0  0
  1 23  1  0  0  0  0
  2  7  1  0  0  0  0
  2  3  2  0  0  0  0
  3  4  1  0  0  0  0
  4  5  1  0  0  0  0
  5  6  1  0  0  0  0
  5  7  2  0  0  0  0
  6 24  1  0  0  0  0
  6 25  1  0  0  0  0
  6 26  1  0  0  0  0
  7  8  1  0  0  0  0
  8  9  1  0  0  0  0
  8 27  1  0  0  0  0
  8 28  1  0  0  0  0
  9 10  2  0  0  0  0
  9 11  1  0  0  0  0
 11 12  1  0  0  0  0
 11 29  1  0  0  0  0
 12 20  1  0  0  0  0
 12 13  1  0  0  0  0
 12 30  1  0  0  0  0
 13 14  1  0  0  0  0
 13 31  1  0  0  0  0
 13 32  1  0  0  0  0
 14 15  1  0  0  0  0
 14 33  1  0  0  0  0
 14 34  1  0  0  0  0
 15 20  1  0  0  0  0
 15 16  1  0  0  0  0
 15 44  1  0  0  0  0
 16 17  1  0  0  0  0
 16 35  1  0  0  0  0
 16 36  1  0  0  0  0
 17 18  1  0  0  0  0
 17 37  1  0  0  0  0
 17 38  1  0  0  0  0
 18 19  1  0  0  0  0
 18 39  1  0  0  0  0
 18 40  1  0  0  0  0
 19 20  1  0  0  0  0
 19 41  1  0  0  0  0
 19 42  1  0  0  0  0
 20 43  1  0  0  0  0
M  CHG  1  15   1
M  END
> <s_m_source_file>
AV-unprocessed.smi

> <i_m_source_file_index>
311

> <i_lp_mmshare_version>
43012

> <i_f3d_flags>
0

> <s_epik_input>
W0NIM11jMW5vYyhbQ0gzXSljMVtDSDJdQyg9TylbTkhdW0NASF0oW0NIMl1bQ0gyXTIpW0NAQEhdKE4yMylbQ0gyXVtDSDJdW0NIMl1bQ0gyXTM=

> <s_epik_cmdline>
J2VwaWtfcHl0aG9uJywgJy1waCcsICc3LjAnLCAnLXRuJywgJzgnLCAnLW1hJywgJzIwMCcsICctbWV0YWxfYmluZGluZycsICctaW1hZScsICc8aW5maWxlLm1hZT4nLCAnLW9tYWUnLCAnPG91dGZpbGUubWFlPic=

> <r_epik_Ionization_Penalty>
0.00173669

> <r_epik_Ionization_Penalty_Charging>
0.0017366

> <r_epik_Ionization_Penalty_Neutral>
9.2145e-08

> <r_epik_State_Penalty>
0.00117499

> <r_epik_Charging_Adjusted_Penalty>
0.00291159

> <i_epik_Tot_Q>
1

> <i_epik_Tot_abs_Q>
1

> <r_epik_Metal_State_Penalty>
-0

> <b_epik_Metal_Only>
0

> <s_lp_Force_Field>
OPLS_2005

> <r_lp_Energy>
35.7975

> <b_lp_Chiralities_Consistent>
1

> <s_lp_Variant>
AV-unprocessed.smi:311-5

> <Gold.Version>
5.8.1

> <Gold.Id.Protein>
6NUR|6NUR_protein|mol2

> <Gold.PLP.Fitness>
39.4836

> <Gold.PLP.PLP>
-33.9734

> <Gold.PLP.part.hbond>
-2.4005

> <Gold.PLP.part.metal>
0.0000

> <Gold.PLP.part.buried>
-5.6368

> <Gold.PLP.part.nonpolar>
-26.1168

> <Gold.PLP.part.repulsive>
0.0792

> <Gold.PLP.ligand.clash>
0.0000

> <Gold.PLP.ligand.torsion>
0.2452

> <Gold.PLP.Chemscore.Hbond>
2.0000

> <Gold.PLP.Chemscore.CHOScore>
0.0000

> <Gold.PLP.Chemscore.Metal>
0.0000

> <Gold.Chemscore.Hbonds>
donor molecule, donor type, donor heavy atom, donor atom, acceptor molecule, acceptor atom, score
      L1  H    15    44       P1 10747  1.00
      P1  H  6896  6909       L1     3  0.98

> <Gold.PLP.Chemscore.Internal.Correction>
0.0006

> <Gold.Rescore>
     Score         DG    S(hbond)    S(metal)    S(lipo)     H(rot)  DE(clash)    DE(int)     intcor
     18.54     -18.95       1.95        0.00      89.02       1.36       0.12       0.29       ----

> <Gold.Chemscore.Fitness>
18.5402

> <Gold.Chemscore.DG>
-18.9462

> <Gold.Chemscore.ZeroCoef>
-5.4800

> <Gold.Chemscore.Hbond>
1.9534

> <Gold.Chemscore.Metal>
0.0000

> <Gold.Chemscore.Lipo>
89.0169

> <Gold.Chemscore.Internal_Hbond>
0.0000

> <Gold.Chemscore.DEClash>
0.1165

> <Gold.Chemscore.DEInternal>
0.2895

> <Gold.Chemscore.Rot>
1.3567

> <Gold.Chemscore.Internal.Correction>
   9.000000E+99

> <Gold.Chemscore.Hbonds>
donor molecule, donor type, donor heavy atom, donor atom, acceptor molecule, acceptor atom, score
      L1  H    15    44       P1 10747  1.00
      P1  H  6896  6909       L1     3  0.47

> <Gold.Chemscore.Hbond.Weighted>
-6.5243

> <Gold.Chemscore.Metal.Weighted>
-0.0000

> <Gold.Chemscore.Lipo.Weighted>
-10.4150

> <Gold.Chemscore.Internal_Hbond.Weighted>
0.0000

> <Gold.Chemscore.DEClash.Weighted>
0.1165

> <Gold.Chemscore.DEInternal.Weighted>
0.2895

> <Gold.Chemscore.Rot.Weighted>
3.4731

> <Gold.Chemscore.Internal.Correction.Weighted>
   9.000000E+99

> <Gold.Protein.RotatedTorsions>
[ 6907 6896 6895 6894 ] final  -70.88 input  -60.11 | X-H torsion
[ 7974 7965 7964 7962 ] final   14.25 input  175.53 | X-H torsion
[ 8008 7997 7996 7995 ] final  -91.45 input   59.86 | X-H torsion
[ 10167 10162 10161 10158 ] final   74.57 input  -65.29 | X-H torsion
[ 10718 10713 10712 10709 ] final  -41.16 input   66.30 | X-H torsion
[ 10763 10752 10751 10750 ] final   -4.62 input  -60.55 | X-H torsion
[ 11005 11000 10999 10996 ] final   79.89 input  -57.11 | X-H torsion

> <Gold.Protein.ActiveResidues>
 VAL166  LYS551  ARG553  GLY616  TRP617  ASP618  TYR619  PRO620  LYS621  CYS622 
 ASP623  PHE694  ASN695  SER759  ASP760  ASP761  ALA762  ILE779  LEU786  VAL792 
 PHE793  MET794  SER795  GLU796  ALA797  LYS798  CYS799  TRP800  GLU811  SER814 

> <Gold.Protein.RotatedAtoms>
  150.7237  134.5390  159.5737 H   0  0  0  0  0  0  0  0  0  0  0  0  # atno 6907 bound_to 6896
  152.2905  134.7724  160.0388 H   0  0  0  0  0  0  0  0  0  0  0  0  # atno 6908 bound_to 6896
  151.8339  133.3377  159.3658 H   0  0  0  0  0  0  0  0  0  0  0  0  # atno 6909 bound_to 6896
  146.2309  139.9069  142.8530 H   0  0  0  0  0  0  0  0  0  0  0  0  # atno 7974 bound_to 7965
  154.7109  140.0519  157.0549 H   0  0  0  0  0  0  0  0  0  0  0  0  # atno 8008 bound_to 7997
  155.0556  140.3184  155.4658 H   0  0  0  0  0  0  0  0  0  0  0  0  # atno 8009 bound_to 7997
  156.2789  140.2108  156.5682 H   0  0  0  0  0  0  0  0  0  0  0  0  # atno 8010 bound_to 7997
  140.0123  144.5604  150.7648 H   0  0  0  0  0  0  0  0  0  0  0  0  # atno 10167 bound_to 10162
  156.2734  130.4209  149.8413 H   0  0  0  0  0  0  0  0  0  0  0  0  # atno 10718 bound_to 10713
  153.3874  135.7000  153.6520 H   0  0  0  0  0  0  0  0  0  0  0  0  # atno 10763 bound_to 10752
  153.5107  135.3632  155.2585 H   0  0  0  0  0  0  0  0  0  0  0  0  # atno 10764 bound_to 10752
  154.8699  135.4134  154.3184 H   0  0  0  0  0  0  0  0  0  0  0  0  # atno 10765 bound_to 10752
  139.9155  134.7878  156.1837 H   0  0  0  0  0  0  0  0  0  0  0  0  # atno 11005 bound_to 11000
  145.2268  140.9957  143.4013 LP  0  0  0  0  0  0  0  0  0  0  0  0  # atno 17320 bound_to 7965
  144.9564  139.4027  143.6377 LP  0  0  0  0  0  0  0  0  0  0  0  0  # atno 17321 bound_to 7965
  140.7376  143.2768  151.3718 LP  0  0  0  0  0  0  0  0  0  0  0  0  # atno 17342 bound_to 10162
  139.6196  144.0933  152.2379 LP  0  0  0  0  0  0  0  0  0  0  0  0  # atno 17343 bound_to 10162
  156.5886  130.8496  151.3402 LP  0  0  0  0  0  0  0  0  0  0  0  0  # atno 17370 bound_to 10713
  157.7291  130.9667  150.1774 LP  0  0  0  0  0  0  0  0  0  0  0  0  # atno 17371 bound_to 10713
  141.0626  133.6834  156.1983 LP  0  0  0  0  0  0  0  0  0  0  0  0  # atno 17394 bound_to 11000
  140.6636  134.4942  157.5584 LP  0  0  0  0  0  0  0  0  0  0  0  0  # atno 17395 bound_to 11000

$$$$
