AV-unprocessed.smi:153|AV-procd|sdf|1254|dock9
  -GOLD-   2262018493D 1   1.00000     0.00000
 Structure written by MMmdl.
 60 63  0  0  0  0  0  0  0  0  2 V2000
  149.3686  138.9140  157.6984 C   0  0  0  0  0  0  0  0  0  0  0  0
  150.6694  139.6926  157.4693 C   0  0  2  0  0  0  0  0  0  0  0  0
  151.1029  140.2244  158.7149 O   0  0  0  0  0  0  0  0  0  0  0  0
  152.0242  141.2604  158.4367 C   0  0  0  0  0  0  0  0  0  0  0  0
  151.3241  142.0072  157.3119 C   0  0  0  0  0  0  0  0  0  0  0  0
  150.6534  140.9040  156.4873 C   0  0  1  0  0  0  0  0  0  0  0  0
  151.5244  140.5960  155.4137 O   0  0  0  0  0  0  0  0  0  0  0  0
  149.2840  141.4055  155.9377 C   0  0  0  0  0  0  0  0  0  0  0  0
  148.5336  140.4615  155.1167 N   0  0  0  0  0  0  0  0  0  0  0  0
  148.9978  139.7696  154.0224 C   0  0  0  0  0  0  0  0  0  0  0  0
  148.1376  138.9626  153.4675 N   0  0  0  0  0  0  0  0  0  0  0  0
  146.9963  139.0681  154.2558 C   0  0  0  0  0  0  0  0  0  0  0  0
  145.7024  138.4573  154.2419 C   0  0  0  0  0  0  0  0  0  0  0  0
  145.2663  137.5517  153.3181 N   0  0  0  0  0  0  0  0  0  0  0  0
  144.0046  136.8493  153.5224 C   0  0  0  0  0  0  0  0  0  0  0  0
  145.8446  137.5426  151.9717 C   0  0  0  0  0  0  0  0  0  0  0  0
  145.2787  136.4074  151.0939 C   0  0  1  0  0  0  0  0  0  0  0  0
  145.4796  136.7501  149.7367 O   0  0  0  0  0  0  0  0  0  0  0  0
  146.0129  135.0755  151.3480 C   0  0  0  0  0  0  0  0  0  0  0  0
  145.5248  133.9753  150.4771 N   0  3  0  0  0  0  0  0  0  0  0  0
  146.0754  132.6561  150.8691 C   0  0  0  0  0  0  0  0  0  0  0  0
  145.5941  131.5624  149.9009 C   0  0  0  0  0  0  0  0  0  0  0  0
  144.1724  131.5401  149.8747 O   0  0  0  0  0  0  0  0  0  0  0  0
  143.6307  132.7722  149.4157 C   0  0  0  0  0  0  0  0  0  0  0  0
  144.0461  133.9065  150.3680 C   0  0  0  0  0  0  0  0  0  0  0  0
  144.8493  138.8153  155.2391 N   0  0  0  0  0  0  0  0  0  0  0  0
  145.2153  139.6911  156.1774 C   0  0  0  0  0  0  0  0  0  0  0  0
  146.3761  140.3308  156.3097 N   0  0  0  0  0  0  0  0  0  0  0  0
  147.2430  139.9943  155.3128 C   0  0  0  0  0  0  0  0  0  0  0  0
  149.0674  138.3829  156.7971 H   0  0  0  0  0  0  0  0  0  0  0  0
  148.5543  139.5636  158.0184 H   0  0  0  0  0  0  0  0  0  0  0  0
  149.5081  138.1623  158.4755 H   0  0  0  0  0  0  0  0  0  0  0  0
  151.4350  138.9765  157.1626 H   0  0  0  0  0  0  0  0  0  0  0  0
  152.2070  141.8858  159.3107 H   0  0  0  0  0  0  0  0  0  0  0  0
  152.9734  140.8378  158.1031 H   0  0  0  0  0  0  0  0  0  0  0  0
  150.5690  142.6594  157.7531 H   0  0  0  0  0  0  0  0  0  0  0  0
  152.0018  142.6406  156.7373 H   0  0  0  0  0  0  0  0  0  0  0  0
  152.3522  140.3105  155.7696 H   0  0  0  0  0  0  0  0  0  0  0  0
  148.6461  141.7444  156.7544 H   0  0  0  0  0  0  0  0  0  0  0  0
  149.4531  142.2880  155.3188 H   0  0  0  0  0  0  0  0  0  0  0  0
  150.0017  139.8815  153.6402 H   0  0  0  0  0  0  0  0  0  0  0  0
  143.9874  136.3605  154.4970 H   0  0  0  0  0  0  0  0  0  0  0  0
  143.8598  136.0754  152.7684 H   0  0  0  0  0  0  0  0  0  0  0  0
  143.1625  137.5388  153.4564 H   0  0  0  0  0  0  0  0  0  0  0  0
  145.7632  138.5100  151.4742 H   0  0  0  0  0  0  0  0  0  0  0  0
  146.9169  137.3888  152.0969 H   0  0  0  0  0  0  0  0  0  0  0  0
  144.2121  136.2939  151.2847 H   0  0  0  0  0  0  0  0  0  0  0  0
  145.6576  135.9586  149.2502 H   0  0  0  0  0  0  0  0  0  0  0  0
  147.0801  135.2299  151.1785 H   0  0  0  0  0  0  0  0  0  0  0  0
  145.9118  134.7746  152.3919 H   0  0  0  0  0  0  0  0  0  0  0  0
  147.1656  132.6924  150.8648 H   0  0  0  0  0  0  0  0  0  0  0  0
  145.7651  132.4181  151.8880 H   0  0  0  0  0  0  0  0  0  0  0  0
  145.9865  131.7299  148.8965 H   0  0  0  0  0  0  0  0  0  0  0  0
  145.9570  130.5871  150.2259 H   0  0  0  0  0  0  0  0  0  0  0  0
  143.9663  132.9750  148.3972 H   0  0  0  0  0  0  0  0  0  0  0  0
  142.5442  132.6895  149.3818 H   0  0  0  0  0  0  0  0  0  0  0  0
  143.6124  133.7400  151.3554 H   0  0  0  0  0  0  0  0  0  0  0  0
  143.6429  134.8476  149.9968 H   0  0  0  0  0  0  0  0  0  0  0  0
  144.4708  139.9120  156.9280 H   0  0  0  0  0  0  0  0  0  0  0  0
  145.8829  134.1680  149.5520 H   0  0  0  0  0  0  0  0  0  0  0  0
  1  2  1  0  0  0  0
  1 30  1  0  0  0  0
  1 31  1  0  0  0  0
  1 32  1  0  0  0  0
  2  6  1  0  0  0  0
  2  3  1  0  0  0  0
  2 33  1  0  0  0  0
  3  4  1  0  0  0  0
  4  5  1  0  0  0  0
  4 34  1  0  0  0  0
  4 35  1  0  0  0  0
  5  6  1  0  0  0  0
  5 36  1  0  0  0  0
  5 37  1  0  0  0  0
  6  7  1  0  0  0  0
  6  8  1  0  0  0  0
  7 38  1  0  0  0  0
  8  9  1  0  0  0  0
  8 39  1  0  0  0  0
  8 40  1  0  0  0  0
  9 29  1  0  0  0  0
  9 10  1  0  0  0  0
 10 11  2  0  0  0  0
 10 41  1  0  0  0  0
 11 12  1  0  0  0  0
 12 29  2  0  0  0  0
 12 13  1  0  0  0  0
 13 14  1  0  0  0  0
 13 26  2  0  0  0  0
 14 15  1  0  0  0  0
 14 16  1  0  0  0  0
 15 42  1  0  0  0  0
 15 43  1  0  0  0  0
 15 44  1  0  0  0  0
 16 17  1  0  0  0  0
 16 45  1  0  0  0  0
 16 46  1  0  0  0  0
 17 18  1  0  0  0  0
 17 19  1  0  0  0  0
 17 47  1  0  0  0  0
 18 48  1  0  0  0  0
 19 20  1  0  0  0  0
 19 49  1  0  0  0  0
 19 50  1  0  0  0  0
 20 25  1  0  0  0  0
 20 21  1  0  0  0  0
 20 60  1  0  0  0  0
 21 22  1  0  0  0  0
 21 51  1  0  0  0  0
 21 52  1  0  0  0  0
 22 23  1  0  0  0  0
 22 53  1  0  0  0  0
 22 54  1  0  0  0  0
 23 24  1  0  0  0  0
 24 25  1  0  0  0  0
 24 55  1  0  0  0  0
 24 56  1  0  0  0  0
 25 57  1  0  0  0  0
 25 58  1  0  0  0  0
 26 27  1  0  0  0  0
 27 28  2  0  0  0  0
 27 59  1  0  0  0  0
 28 29  1  0  0  0  0
M  CHG  1  20   1
M  END
> <s_m_source_file>
AV-unprocessed.smi

> <i_m_source_file_index>
153

> <i_lp_mmshare_version>
43012

> <i_f3d_flags>
0

> <s_epik_input>
W0NIMl0xW0NIMl1PW0NAQEhdKFtDSDNdKVtDQEBdMShbT0hdKVtDSDJdbihbY0hdbjIpYyhjMjMpbltjSF1uYzNOKFtDSDNdKVtDSDJdW0NASF0oW09IXSlbQ0gyXU40W0NIMl1bQ0gyXU9bQ0gyXVtDSDJdNA==

> <s_epik_cmdline>
J2VwaWtfcHl0aG9uJywgJy1waCcsICc3LjAnLCAnLXRuJywgJzgnLCAnLW1hJywgJzIwMCcsICctbWV0YWxfYmluZGluZycsICctaW1hZScsICc8aW5maWxlLm1hZT4nLCAnLW9tYWUnLCAnPG91dGZpbGUubWFlPic=

> <r_lp_tautomer_probability>
1

> <r_epik_Ionization_Penalty>
0.403509

> <r_epik_Ionization_Penalty_Charging>
0.40072

> <r_epik_Ionization_Penalty_Neutral>
0.00278876

> <r_epik_State_Penalty>
0.400058

> <r_epik_Charging_Adjusted_Penalty>
0.800778

> <i_epik_Tot_Q>
1

> <i_epik_Tot_abs_Q>
1

> <r_epik_Metal_State_Penalty>
0.400321

> <b_epik_Metal_Only>
0

> <s_lp_Force_Field>
OPLS_2005

> <r_lp_Energy>
49.6176

> <b_lp_Chiralities_Consistent>
1

> <s_lp_Variant>
AV-unprocessed.smi:153-5

> <Gold.Version>
5.8.1

> <Gold.Id.Protein>
6NUR|6NUR_protein|mol2

> <Gold.PLP.Fitness>
45.9939

> <Gold.PLP.PLP>
-35.5773

> <Gold.PLP.part.hbond>
-5.0000

> <Gold.PLP.part.metal>
0.0000

> <Gold.PLP.part.buried>
-0.4852

> <Gold.PLP.part.nonpolar>
-33.0026

> <Gold.PLP.part.repulsive>
1.7629

> <Gold.PLP.ligand.clash>
0.0000

> <Gold.PLP.ligand.torsion>
0.6580

> <Gold.PLP.Chemscore.Hbond>
3.3673

> <Gold.PLP.Chemscore.CHOScore>
0.3708

> <Gold.PLP.Chemscore.Metal>
0.0000

> <Gold.Chemscore.Hbonds>
donor molecule, donor type, donor heavy atom, donor atom, acceptor molecule, acceptor atom, score
      L1  H    18    48       P1  7921  1.00
      L1  H    20    60       P1  7921  0.99
      P1  H  7989  7998       L1     7  0.78
      P1  H 10785 10796       L1    23  0.62
      L1  C    10    41       P1  7957  0.45

> <Gold.PLP.Chemscore.Internal.Correction>
0.5187

> <Gold.Rescore>
     Score         DG    S(hbond)    S(metal)    S(lipo)     H(rot)  DE(clash)    DE(int)     intcor
     10.40     -17.69       2.87        0.00     101.65       3.62       5.23       2.06       ----

> <Gold.Chemscore.Fitness>
10.4003

> <Gold.Chemscore.DG>
-17.6929

> <Gold.Chemscore.ZeroCoef>
-5.4800

> <Gold.Chemscore.Hbond>
2.8689

> <Gold.Chemscore.Metal>
0.0000

> <Gold.Chemscore.Lipo>
101.6505

> <Gold.Chemscore.Internal_Hbond>
0.0000

> <Gold.Chemscore.DEClash>
5.2280

> <Gold.Chemscore.DEInternal>
2.0646

> <Gold.Chemscore.Rot>
3.6182

> <Gold.Chemscore.Internal.Correction>
   9.000000E+99

> <Gold.Chemscore.Hbonds>
donor molecule, donor type, donor heavy atom, donor atom, acceptor molecule, acceptor atom, score
      L1  H    18    48       P1  7921  0.93
      L1  H    20    60       P1  7921  0.37
      P1  H  7989  7998       L1     7  0.61
      P1  H 10785 10796       L1    23  0.25

> <Gold.Chemscore.Hbond.Weighted>
-9.5823

> <Gold.Chemscore.Metal.Weighted>
-0.0000

> <Gold.Chemscore.Lipo.Weighted>
-11.8931

> <Gold.Chemscore.Internal_Hbond.Weighted>
0.0000

> <Gold.Chemscore.DEClash.Weighted>
5.2280

> <Gold.Chemscore.DEInternal.Weighted>
2.0646

> <Gold.Chemscore.Rot.Weighted>
9.2625

> <Gold.Chemscore.Internal.Correction.Weighted>
   9.000000E+99

> <Gold.Protein.RotatedTorsions>
[ 6907 6896 6895 6894 ] final  115.04 input  -60.11 | X-H torsion
[ 7974 7965 7964 7962 ] final -152.01 input  175.53 | X-H torsion
[ 8008 7997 7996 7995 ] final    1.18 input   59.86 | X-H torsion
[ 10167 10162 10161 10158 ] final    5.61 input  -65.29 | X-H torsion
[ 10718 10713 10712 10709 ] final   28.56 input   66.30 | X-H torsion
[ 10763 10752 10751 10750 ] final   59.26 input  -60.55 | X-H torsion
[ 11005 11000 10999 10996 ] final    0.98 input  -57.11 | X-H torsion

> <Gold.Protein.ActiveResidues>
 VAL166  LYS551  ARG553  GLY616  TRP617  ASP618  TYR619  PRO620  LYS621  CYS622 
 ASP623  PHE694  ASN695  SER759  ASP760  ASP761  ALA762  ILE779  LEU786  VAL792 
 PHE793  MET794  SER795  GLU796  ALA797  LYS798  CYS799  TRP800  GLU811  SER814 

> <Gold.Protein.RotatedAtoms>
  152.4766  133.8152  159.7024 H   0  0  0  0  0  0  0  0  0  0  0  0  # atno 6907 bound_to 6896
  150.8787  133.7393  159.2945 H   0  0  0  0  0  0  0  0  0  0  0  0  # atno 6908 bound_to 6896
  151.4905  135.1060  159.9854 H   0  0  0  0  0  0  0  0  0  0  0  0  # atno 6909 bound_to 6896
  144.7818  140.4720  143.5834 H   0  0  0  0  0  0  0  0  0  0  0  0  # atno 7974 bound_to 7965
  154.6767  140.2624  155.6950 H   0  0  0  0  0  0  0  0  0  0  0  0  # atno 8008 bound_to 7997
  156.2681  140.2818  156.1219 H   0  0  0  0  0  0  0  0  0  0  0  0  # atno 8009 bound_to 7997
  155.1090  140.0375  157.2708 H   0  0  0  0  0  0  0  0  0  0  0  0  # atno 8010 bound_to 7997
  140.6473  143.7631  150.7519 H   0  0  0  0  0  0  0  0  0  0  0  0  # atno 10167 bound_to 10162
  157.2351  130.7042  149.6332 H   0  0  0  0  0  0  0  0  0  0  0  0  # atno 10718 bound_to 10713
  152.9890  135.5578  154.5685 H   0  0  0  0  0  0  0  0  0  0  0  0  # atno 10763 bound_to 10752
  154.5090  135.2801  155.1360 H   0  0  0  0  0  0  0  0  0  0  0  0  # atno 10764 bound_to 10752
  154.2760  135.6354  153.5381 H   0  0  0  0  0  0  0  0  0  0  0  0  # atno 10765 bound_to 10752
  140.6205  133.9665  155.8222 H   0  0  0  0  0  0  0  0  0  0  0  0  # atno 11005 bound_to 11000
  145.6031  139.1505  143.3118 LP  0  0  0  0  0  0  0  0  0  0  0  0  # atno 17320 bound_to 7965
  146.2029  140.6151  142.9094 LP  0  0  0  0  0  0  0  0  0  0  0  0  # atno 17321 bound_to 7965
  140.1275  143.4556  152.2275 LP  0  0  0  0  0  0  0  0  0  0  0  0  # atno 17342 bound_to 10162
  139.5684  144.7449  151.3957 LP  0  0  0  0  0  0  0  0  0  0  0  0  # atno 17343 bound_to 10162
  155.9673  130.4476  150.5587 LP  0  0  0  0  0  0  0  0  0  0  0  0  # atno 17370 bound_to 10713
  157.3437  131.0721  151.1768 LP  0  0  0  0  0  0  0  0  0  0  0  0  # atno 17371 bound_to 10713
  141.0745  134.0155  157.3477 LP  0  0  0  0  0  0  0  0  0  0  0  0  # atno 17394 bound_to 11000
  139.9155  135.0196  156.7864 LP  0  0  0  0  0  0  0  0  0  0  0  0  # atno 17395 bound_to 11000

$$$$
