AV-unprocessed.smi:3270|AV-procd|sdf|12515|dock3
  -GOLD-   2272018423D 1   1.00000     0.00000
 Structure written by MMmdl.
 39 40  0  0  0  0  0  0  0  0  2 V2000
  153.6025  140.4410  160.0918 C   0  0  0  0  0  0  0  0  0  0  0  0
  153.0784  141.5122  159.1137 C   0  0  1  0  0  0  0  0  0  0  0  0
  151.8838  141.0239  158.2776 C   0  0  0  0  0  0  0  0  0  0  0  0
  151.3570  139.9340  158.5052 O   0  0  0  0  0  0  0  0  0  0  0  0
  151.4644  141.8455  157.3017 N   0  0  0  0  0  0  0  0  0  0  0  0
  150.3392  141.5794  156.4135 C   0  0  0  0  0  0  0  0  0  0  0  0
  148.9905  141.7938  157.1276 C   0  0  0  0  0  0  0  0  0  0  0  0
  147.9557  142.3607  156.2272 N   0  3  0  0  0  0  0  0  0  0  0  0
  147.8858  141.6469  154.9296 C   0  0  0  0  0  0  0  0  0  0  0  0
  146.8345  142.2942  154.0121 C   0  0  0  0  0  0  0  0  0  0  0  0
  145.5712  142.2999  154.6644 O   0  0  0  0  0  0  0  0  0  0  0  0
  145.5984  143.0582  155.8671 C   0  0  0  0  0  0  0  0  0  0  0  0
  146.6090  142.4382  156.8473 C   0  0  0  0  0  0  0  0  0  0  0  0
  152.7496  142.7598  159.7938 N   0  0  0  0  0  0  0  0  0  0  0  0
  152.8167  143.0331  161.1453 C   0  0  0  0  0  0  0  0  0  0  0  0
  152.4466  144.3356  161.3203 C   0  0  0  0  0  0  0  0  0  0  0  0
  152.1759  144.7900  159.9999 C   0  0  0  0  0  0  0  0  0  0  0  0
  152.3645  143.8494  159.0892 N   0  0  0  0  0  0  0  0  0  0  0  0
  153.8978  139.5350  159.5611 H   0  0  0  0  0  0  0  0  0  0  0  0
  152.8535  140.1599  160.8334 H   0  0  0  0  0  0  0  0  0  0  0  0
  154.4787  140.8032  160.6301 H   0  0  0  0  0  0  0  0  0  0  0  0
  153.8888  141.7312  158.4163 H   0  0  0  0  0  0  0  0  0  0  0  0
  151.9477  142.7237  157.1800 H   0  0  0  0  0  0  0  0  0  0  0  0
  150.4289  142.2101  155.5284 H   0  0  0  0  0  0  0  0  0  0  0  0
  150.4169  140.5480  156.0686 H   0  0  0  0  0  0  0  0  0  0  0  0
  148.6485  140.8269  157.5002 H   0  0  0  0  0  0  0  0  0  0  0  0
  149.1040  142.4372  158.0016 H   0  0  0  0  0  0  0  0  0  0  0  0
  148.8603  141.6700  154.4402 H   0  0  0  0  0  0  0  0  0  0  0  0
  147.6370  140.5982  155.1011 H   0  0  0  0  0  0  0  0  0  0  0  0
  147.1243  143.3114  153.7431 H   0  0  0  0  0  0  0  0  0  0  0  0
  146.7495  141.7311  153.0825 H   0  0  0  0  0  0  0  0  0  0  0  0
  145.8512  144.0976  155.6512 H   0  0  0  0  0  0  0  0  0  0  0  0
  144.6006  143.0584  156.3067 H   0  0  0  0  0  0  0  0  0  0  0  0
  146.2800  141.4384  157.1358 H   0  0  0  0  0  0  0  0  0  0  0  0
  146.6390  143.0379  157.7563 H   0  0  0  0  0  0  0  0  0  0  0  0
  153.1189  142.2850  161.8635 H   0  0  0  0  0  0  0  0  0  0  0  0
  152.3821  144.8820  162.2495 H   0  0  0  0  0  0  0  0  0  0  0  0
  151.8543  145.7695  159.6779 H   0  0  0  0  0  0  0  0  0  0  0  0
  148.2409  143.3063  156.0152 H   0  0  0  0  0  0  0  0  0  0  0  0
  1  2  1  0  0  0  0
  1 19  1  0  0  0  0
  1 20  1  0  0  0  0
  1 21  1  0  0  0  0
  2  3  1  0  0  0  0
  2 14  1  0  0  0  0
  2 22  1  0  0  0  0
  3  4  2  0  0  0  0
  3  5  1  0  0  0  0
  5  6  1  0  0  0  0
  5 23  1  0  0  0  0
  6  7  1  0  0  0  0
  6 24  1  0  0  0  0
  6 25  1  0  0  0  0
  7  8  1  0  0  0  0
  7 26  1  0  0  0  0
  7 27  1  0  0  0  0
  8 13  1  0  0  0  0
  8  9  1  0  0  0  0
  8 39  1  0  0  0  0
  9 10  1  0  0  0  0
  9 28  1  0  0  0  0
  9 29  1  0  0  0  0
 10 11  1  0  0  0  0
 10 30  1  0  0  0  0
 10 31  1  0  0  0  0
 11 12  1  0  0  0  0
 12 13  1  0  0  0  0
 12 32  1  0  0  0  0
 12 33  1  0  0  0  0
 13 34  1  0  0  0  0
 13 35  1  0  0  0  0
 14 18  1  0  0  0  0
 14 15  1  0  0  0  0
 15 16  2  0  0  0  0
 15 36  1  0  0  0  0
 16 17  1  0  0  0  0
 16 37  1  0  0  0  0
 17 18  2  0  0  0  0
 17 38  1  0  0  0  0
M  CHG  1   8   1
M  END
> <s_m_source_file>
AV-unprocessed.smi

> <i_m_source_file_index>
3270

> <i_lp_mmshare_version>
43012

> <i_f3d_flags>
0

> <s_epik_input>
bjFbY0hdW2NIXVtjSF1uMVtDQEhdKFtDSDNdKUMoPU8pW05IXVtDSDJdW0NIMl1OMltDSDJdW0NIMl1PW0NIMl1bQ0gyXTI=

> <s_epik_cmdline>
J2VwaWtfcHl0aG9uJywgJy1waCcsICc3LjAnLCAnLXRuJywgJzgnLCAnLW1hJywgJzIwMCcsICctbWV0YWxfYmluZGluZycsICctaW1hZScsICc8aW5maWxlLm1hZT4nLCAnLW9tYWUnLCAnPG91dGZpbGUubWFlPic=

> <r_lp_tautomer_probability>
1

> <r_epik_Ionization_Penalty>
0.73255

> <r_epik_Ionization_Penalty_Charging>
0.732531

> <r_epik_Ionization_Penalty_Neutral>
1.96965e-05

> <r_epik_State_Penalty>
0.757939

> <r_epik_Charging_Adjusted_Penalty>
1.49047

> <i_epik_Tot_Q>
1

> <i_epik_Tot_abs_Q>
1

> <r_epik_Metal_State_Penalty>
0.757952

> <b_epik_Metal_Only>
0

> <s_lp_Force_Field>
OPLS_2005

> <r_lp_Energy>
19.4088

> <b_lp_Chiralities_Consistent>
1

> <s_lp_Variant>
AV-unprocessed.smi:3270-4

> <Gold.Version>
5.8.1

> <Gold.Id.Protein>
6NUR|6NUR_protein|mol2

> <Gold.PLP.Fitness>
43.7268

> <Gold.PLP.PLP>
-38.5489

> <Gold.PLP.part.hbond>
-1.0000

> <Gold.PLP.part.metal>
0.0000

> <Gold.PLP.part.buried>
-6.3971

> <Gold.PLP.part.nonpolar>
-31.1381

> <Gold.PLP.part.repulsive>
0.2867

> <Gold.PLP.ligand.clash>
0.0000

> <Gold.PLP.ligand.torsion>
0.4674

> <Gold.PLP.Chemscore.Hbond>
2.0000

> <Gold.PLP.Chemscore.CHOScore>
0.0000

> <Gold.PLP.Chemscore.Metal>
0.0000

> <Gold.Chemscore.Hbonds>
donor molecule, donor type, donor heavy atom, donor atom, acceptor molecule, acceptor atom, score
      L1  H     8    39       P1  8028  2.00

> <Gold.PLP.Chemscore.Internal.Correction>
0.1127

> <Gold.Rescore>
     Score         DG    S(hbond)    S(metal)    S(lipo)     H(rot)  DE(clash)    DE(int)     intcor
     12.87     -14.01       0.99        0.00      86.54       1.91       0.16       0.98       ----

> <Gold.Chemscore.Fitness>
12.8717

> <Gold.Chemscore.DG>
-14.0117

> <Gold.Chemscore.ZeroCoef>
-5.4800

> <Gold.Chemscore.Hbond>
0.9876

> <Gold.Chemscore.Metal>
0.0000

> <Gold.Chemscore.Lipo>
86.5395

> <Gold.Chemscore.Internal_Hbond>
0.0000

> <Gold.Chemscore.DEClash>
0.1611

> <Gold.Chemscore.DEInternal>
0.9790

> <Gold.Chemscore.Rot>
1.9109

> <Gold.Chemscore.Internal.Correction>
   9.000000E+99

> <Gold.Chemscore.Hbonds>
donor molecule, donor type, donor heavy atom, donor atom, acceptor molecule, acceptor atom, score
      L1  H     8    39       P1  8028  0.64

> <Gold.Chemscore.Hbond.Weighted>
-3.2985

> <Gold.Chemscore.Metal.Weighted>
-0.0000

> <Gold.Chemscore.Lipo.Weighted>
-10.1251

> <Gold.Chemscore.Internal_Hbond.Weighted>
0.0000

> <Gold.Chemscore.DEClash.Weighted>
0.1611

> <Gold.Chemscore.DEInternal.Weighted>
0.9790

> <Gold.Chemscore.Rot.Weighted>
4.8919

> <Gold.Chemscore.Internal.Correction.Weighted>
   9.000000E+99

> <Gold.Protein.RotatedTorsions>
[ 6907 6896 6895 6894 ] final   75.34 input  -60.11 | X-H torsion
[ 7974 7965 7964 7962 ] final  -82.72 input  175.53 | X-H torsion
[ 8008 7997 7996 7995 ] final  137.26 input   59.86 | X-H torsion
[ 10167 10162 10161 10158 ] final  102.71 input  -65.29 | X-H torsion
[ 10718 10713 10712 10709 ] final  -59.11 input   66.30 | X-H torsion
[ 10763 10752 10751 10750 ] final  100.04 input  -60.55 | X-H torsion
[ 11005 11000 10999 10996 ] final  105.53 input  -57.11 | X-H torsion

> <Gold.Protein.ActiveResidues>
 VAL166  LYS551  ARG553  GLY616  TRP617  ASP618  TYR619  PRO620  LYS621  CYS622 
 ASP623  PHE694  ASN695  SER759  ASP760  ASP761  ALA762  ILE779  LEU786  VAL792 
 PHE793  MET794  SER795  GLU796  ALA797  LYS798  CYS799  TRP800  GLU811  SER814 

> <Gold.Protein.RotatedAtoms>
  152.5021  134.4135  159.9456 H   0  0  0  0  0  0  0  0  0  0  0  0  # atno 6907 bound_to 6896
  151.4104  133.3723  159.2751 H   0  0  0  0  0  0  0  0  0  0  0  0  # atno 6908 bound_to 6896
  150.9296  134.8733  159.7601 H   0  0  0  0  0  0  0  0  0  0  0  0  # atno 6909 bound_to 6896
  145.5296  140.9523  143.1610 H   0  0  0  0  0  0  0  0  0  0  0  0  # atno 7974 bound_to 7965
  156.3002  140.2424  156.3881 H   0  0  0  0  0  0  0  0  0  0  0  0  # atno 8008 bound_to 7997
  154.8639  140.0419  157.1702 H   0  0  0  0  0  0  0  0  0  0  0  0  # atno 8009 bound_to 7997
  154.8867  140.2957  155.5398 H   0  0  0  0  0  0  0  0  0  0  0  0  # atno 8010 bound_to 7997
  139.7326  144.7032  151.0699 H   0  0  0  0  0  0  0  0  0  0  0  0  # atno 10167 bound_to 10162
  156.1085  130.4177  150.0670 H   0  0  0  0  0  0  0  0  0  0  0  0  # atno 10718 bound_to 10713
  153.3089  135.4093  155.1318 H   0  0  0  0  0  0  0  0  0  0  0  0  # atno 10763 bound_to 10752
  154.8570  135.3559  154.5750 H   0  0  0  0  0  0  0  0  0  0  0  0  # atno 10764 bound_to 10752
  153.6178  135.7065  153.5380 H   0  0  0  0  0  0  0  0  0  0  0  0  # atno 10765 bound_to 10752
  139.8803  134.9339  156.5527 H   0  0  0  0  0  0  0  0  0  0  0  0  # atno 11005 bound_to 11000
  144.7633  139.6905  143.7225 LP  0  0  0  0  0  0  0  0  0  0  0  0  # atno 17320 bound_to 7965
  146.2053  139.5373  142.9716 LP  0  0  0  0  0  0  0  0  0  0  0  0  # atno 17321 bound_to 7965
  140.7773  143.5024  150.9754 LP  0  0  0  0  0  0  0  0  0  0  0  0  # atno 17342 bound_to 10162
  139.8712  143.7189  152.3166 LP  0  0  0  0  0  0  0  0  0  0  0  0  # atno 17343 bound_to 10162
  156.8639  130.9501  151.3615 LP  0  0  0  0  0  0  0  0  0  0  0  0  # atno 17370 bound_to 10713
  157.6264  130.8695  149.9197 LP  0  0  0  0  0  0  0  0  0  0  0  0  # atno 17371 bound_to 10713
  140.8228  133.8340  155.8911 LP  0  0  0  0  0  0  0  0  0  0  0  0  # atno 17394 bound_to 11000
  140.9402  134.1910  157.4803 LP  0  0  0  0  0  0  0  0  0  0  0  0  # atno 17395 bound_to 11000

$$$$
