AV-unprocessed.smi:1599|AV-procd|sdf|6423|dock7
  -GOLD-   22720 7 63D 1   1.00000     0.00000
 Structure written by MMmdl.
 39 40  0  0  0  0  0  0  0  0  1 V2000
  147.4531  141.9209  154.7734 C   0  0  0  0  0  0  0  0  0  0  0  0
  148.7067  141.2763  154.1620 C   0  0  2  0  0  0  0  0  0  0  0  0
  148.2843  140.2837  153.1763 N   0  0  0  0  0  0  0  0  0  0  0  0
  147.2679  139.4215  153.3223 C   0  0  0  0  0  0  0  0  0  0  0  0
  146.5680  139.3533  154.3328 O   0  0  0  0  0  0  0  0  0  0  0  0
  147.1186  138.6573  152.2281 N   0  0  0  0  0  0  0  0  0  0  0  0
  146.1526  137.6424  152.0125 C   0  0  0  0  0  0  0  0  0  0  0  0
  144.9157  137.5432  152.7005 C   0  0  0  0  0  0  0  0  0  0  0  0
  144.2195  136.4954  152.2863 N   0  0  0  0  0  0  0  0  0  0  0  0
  144.9919  135.9135  151.3343 N   0  0  0  0  0  0  0  0  0  0  0  0
  144.5196  134.7208  150.6541 C   0  0  0  0  0  0  0  0  0  0  0  0
  144.2642  133.5828  151.6440 C   0  0  0  0  0  0  0  0  0  0  0  0
  143.3258  133.7824  152.5736 N   0  0  0  0  0  0  0  0  0  0  0  0
  144.9076  132.5380  151.5723 O   0  0  0  0  0  0  0  0  0  0  0  0
  146.1813  136.5892  151.1427 C   0  0  0  0  0  0  0  0  0  0  0  0
  149.6002  140.6089  155.2282 C   0  0  2  0  0  0  0  0  0  0  0  0
  150.2417  141.5768  156.2240 C   0  0  0  0  0  0  0  0  0  0  0  0
  151.4863  140.8402  156.6947 C   0  0  0  0  0  0  0  0  0  0  0  0
  151.6603  139.7114  155.6757 C   0  0  0  0  0  0  0  0  0  0  0  0
  150.7421  140.0098  154.6344 O   0  0  0  0  0  0  0  0  0  0  0  0
  147.7149  142.7138  155.4741 H   0  0  0  0  0  0  0  0  0  0  0  0
  146.8507  141.1875  155.3107 H   0  0  0  0  0  0  0  0  0  0  0  0
  146.8255  142.3664  154.0009 H   0  0  0  0  0  0  0  0  0  0  0  0
  149.2758  142.0657  153.6676 H   0  0  0  0  0  0  0  0  0  0  0  0
  148.7993  140.2633  152.3085 H   0  0  0  0  0  0  0  0  0  0  0  0
  147.7596  138.8237  151.4663 H   0  0  0  0  0  0  0  0  0  0  0  0
  144.5075  138.1821  153.4698 H   0  0  0  0  0  0  0  0  0  0  0  0
  143.5989  134.9645  150.1222 H   0  0  0  0  0  0  0  0  0  0  0  0
  145.2502  134.4108  149.9052 H   0  0  0  0  0  0  0  0  0  0  0  0
  143.1295  133.0618  153.2536 H   0  0  0  0  0  0  0  0  0  0  0  0
  142.8221  134.6571  152.5982 H   0  0  0  0  0  0  0  0  0  0  0  0
  146.9146  136.2635  150.4197 H   0  0  0  0  0  0  0  0  0  0  0  0
  149.0413  139.8408  155.7671 H   0  0  0  0  0  0  0  0  0  0  0  0
  150.5345  142.4981  155.7182 H   0  0  0  0  0  0  0  0  0  0  0  0
  149.5733  141.8419  157.0438 H   0  0  0  0  0  0  0  0  0  0  0  0
  152.3494  141.5067  156.7103 H   0  0  0  0  0  0  0  0  0  0  0  0
  151.3566  140.4347  157.6986 H   0  0  0  0  0  0  0  0  0  0  0  0
  152.6789  139.6440  155.2930 H   0  0  0  0  0  0  0  0  0  0  0  0
  151.3988  138.7499  156.1196 H   0  0  0  0  0  0  0  0  0  0  0  0
  1  2  1  0  0  0  0
  1 21  1  0  0  0  0
  1 22  1  0  0  0  0
  1 23  1  0  0  0  0
  2  3  1  0  0  0  0
  2 16  1  0  0  0  0
  2 24  1  0  0  0  0
  3  4  1  0  0  0  0
  3 25  1  0  0  0  0
  4  5  2  0  0  0  0
  4  6  1  0  0  0  0
  6  7  1  0  0  0  0
  6 26  1  0  0  0  0
  7 15  2  0  0  0  0
  7  8  1  0  0  0  0
  8  9  2  0  0  0  0
  8 27  1  0  0  0  0
  9 10  1  0  0  0  0
 10 11  1  0  0  0  0
 10 15  1  0  0  0  0
 11 12  1  0  0  0  0
 11 28  1  0  0  0  0
 11 29  1  0  0  0  0
 12 13  1  0  0  0  0
 12 14  2  0  0  0  0
 13 30  1  0  0  0  0
 13 31  1  0  0  0  0
 15 32  1  0  0  0  0
 16 20  1  0  0  0  0
 16 17  1  0  0  0  0
 16 33  1  0  0  0  0
 17 18  1  0  0  0  0
 17 34  1  0  0  0  0
 17 35  1  0  0  0  0
 18 19  1  0  0  0  0
 18 36  1  0  0  0  0
 18 37  1  0  0  0  0
 19 20  1  0  0  0  0
 19 38  1  0  0  0  0
 19 39  1  0  0  0  0
M  END
> <s_m_source_file>
AV-unprocessed.smi

> <i_m_source_file_index>
1599

> <i_lp_mmshare_version>
43012

> <i_f3d_flags>
0

> <s_epik_input>
TzFbQ0gyXVtDSDJdW0NIMl1bQ0BIXTFbQ0BIXShbQ0gzXSlbTkhdQyg9TylbTkhdYzJbY0hdbm4oW2NIXTIpW0NIMl1DKD1PKVtOSDJd

> <s_epik_cmdline>
J2VwaWtfcHl0aG9uJywgJy1waCcsICc3LjAnLCAnLXRuJywgJzgnLCAnLW1hJywgJzIwMCcsICctbWV0YWxfYmluZGluZycsICctaW1hZScsICc8aW5maWxlLm1hZT4nLCAnLW9tYWUnLCAnPG91dGZpbGUubWFlPic=

> <r_lp_tautomer_probability>
1

> <r_epik_Ionization_Penalty>
4.15391e-05

> <r_epik_Ionization_Penalty_Charging>
0

> <r_epik_Ionization_Penalty_Neutral>
4.15391e-05

> <r_epik_State_Penalty>
-0

> <r_epik_Charging_Adjusted_Penalty>
0

> <i_epik_Tot_Q>
0

> <i_epik_Tot_abs_Q>
0

> <r_epik_Metal_State_Penalty>
-0

> <b_epik_Metal_Only>
0

> <s_lp_Force_Field>
OPLS_2005

> <r_lp_Energy>
20.6042

> <b_lp_Chiralities_Consistent>
1

> <s_lp_Variant>
AV-unprocessed.smi:1599-1

> <Gold.Version>
5.8.1

> <Gold.Id.Protein>
6NUR|6NUR_protein|mol2

> <Gold.PLP.Fitness>
47.6189

> <Gold.PLP.PLP>
-35.5429

> <Gold.PLP.part.hbond>
-4.4458

> <Gold.PLP.part.metal>
0.0000

> <Gold.PLP.part.buried>
-0.0559

> <Gold.PLP.part.nonpolar>
-31.4391

> <Gold.PLP.part.repulsive>
0.6922

> <Gold.PLP.ligand.clash>
0.0000

> <Gold.PLP.ligand.torsion>
0.4137

> <Gold.PLP.Chemscore.Hbond>
3.1706

> <Gold.PLP.Chemscore.CHOScore>
1.1207

> <Gold.PLP.Chemscore.Metal>
0.0000

> <Gold.Chemscore.Hbonds>
donor molecule, donor type, donor heavy atom, donor atom, acceptor molecule, acceptor atom, score
      L1  H     3    25       P1  7957  0.71
      L1  H     6    26       P1  7957  0.45
      L1  H    13    30       P1 10957  0.96
      P1  H  7989  7998       L1    20  1.00
      L1  C     8    27       P1 10175  0.49
      L1  C    15    32       P1  7948  0.43

> <Gold.PLP.Chemscore.Internal.Correction>
0.0294

> <Gold.Rescore>
     Score         DG    S(hbond)    S(metal)    S(lipo)     H(rot)  DE(clash)    DE(int)     intcor
     13.83     -18.36       3.37        0.00      63.72       2.28       1.62       2.92       ----

> <Gold.Chemscore.Fitness>
13.8278

> <Gold.Chemscore.DG>
-18.3613

> <Gold.Chemscore.ZeroCoef>
-5.4800

> <Gold.Chemscore.Hbond>
3.3739

> <Gold.Chemscore.Metal>
0.0000

> <Gold.Chemscore.Lipo>
63.7199

> <Gold.Chemscore.Internal_Hbond>
0.0000

> <Gold.Chemscore.DEClash>
1.6152

> <Gold.Chemscore.DEInternal>
2.9183

> <Gold.Chemscore.Rot>
2.2823

> <Gold.Chemscore.Internal.Correction>
   9.000000E+99

> <Gold.Chemscore.Hbonds>
donor molecule, donor type, donor heavy atom, donor atom, acceptor molecule, acceptor atom, score
      L1  H     3    25       P1  7957  0.71
      L1  H     6    26       P1  7957  0.32
      L1  H    13    30       P1 10957  0.71
      P1  H  7989  7998       L1    20  0.48

> <Gold.Chemscore.Hbond.Weighted>
-11.2688

> <Gold.Chemscore.Metal.Weighted>
-0.0000

> <Gold.Chemscore.Lipo.Weighted>
-7.4552

> <Gold.Chemscore.Internal_Hbond.Weighted>
0.0000

> <Gold.Chemscore.DEClash.Weighted>
1.6152

> <Gold.Chemscore.DEInternal.Weighted>
2.9183

> <Gold.Chemscore.Rot.Weighted>
5.8427

> <Gold.Chemscore.Internal.Correction.Weighted>
   9.000000E+99

> <Gold.Protein.RotatedTorsions>
[ 6907 6896 6895 6894 ] final  104.61 input  -60.11 | X-H torsion
[ 7974 7965 7964 7962 ] final  127.13 input  175.53 | X-H torsion
[ 8008 7997 7996 7995 ] final   50.79 input   59.86 | X-H torsion
[ 10167 10162 10161 10158 ] final -170.57 input  -65.29 | X-H torsion
[ 10718 10713 10712 10709 ] final  179.90 input   66.30 | X-H torsion
[ 10763 10752 10751 10750 ] final    0.87 input  -60.55 | X-H torsion
[ 11005 11000 10999 10996 ] final -169.94 input  -57.11 | X-H torsion

> <Gold.Protein.ActiveResidues>
 VAL166  LYS551  ARG553  GLY616  TRP617  ASP618  TYR619  PRO620  LYS621  CYS622 
 ASP623  PHE694  ASN695  SER759  ASP760  ASP761  ALA762  ILE779  LEU786  VAL792 
 PHE793  MET794  SER795  GLU796  ALA797  LYS798  CYS799  TRP800  GLU811  SER814 

> <Gold.Protein.RotatedAtoms>
  152.5258  133.9651  159.7735 H   0  0  0  0  0  0  0  0  0  0  0  0  # atno 6907 bound_to 6896
  150.9934  133.6119  159.2712 H   0  0  0  0  0  0  0  0  0  0  0  0  # atno 6908 bound_to 6896
  151.3254  135.0835  159.9373 H   0  0  0  0  0  0  0  0  0  0  0  0  # atno 6909 bound_to 6896
  145.0540  139.3859  143.5039 H   0  0  0  0  0  0  0  0  0  0  0  0  # atno 7974 bound_to 7965
  155.4246  140.3448  155.4274 H   0  0  0  0  0  0  0  0  0  0  0  0  # atno 8008 bound_to 7997
  156.1373  140.1531  156.9006 H   0  0  0  0  0  0  0  0  0  0  0  0  # atno 8009 bound_to 7997
  154.4942  140.0832  156.7640 H   0  0  0  0  0  0  0  0  0  0  0  0  # atno 8010 bound_to 7997
  139.5854  144.1330  152.1568 H   0  0  0  0  0  0  0  0  0  0  0  0  # atno 10167 bound_to 10162
  156.8690  130.9777  151.3075 H   0  0  0  0  0  0  0  0  0  0  0  0  # atno 10718 bound_to 10713
  153.3152  135.6965  153.7080 H   0  0  0  0  0  0  0  0  0  0  0  0  # atno 10763 bound_to 10752
  153.5941  135.3474  155.2922 H   0  0  0  0  0  0  0  0  0  0  0  0  # atno 10764 bound_to 10752
  154.8585  135.4325  154.2301 H   0  0  0  0  0  0  0  0  0  0  0  0  # atno 10765 bound_to 10752
  140.5251  134.5671  157.5059 H   0  0  0  0  0  0  0  0  0  0  0  0  # atno 11005 bound_to 11000
  146.3520  140.0205  142.8659 LP  0  0  0  0  0  0  0  0  0  0  0  0  # atno 17320 bound_to 7965
  145.1491  140.9613  143.4443 LP  0  0  0  0  0  0  0  0  0  0  0  0  # atno 17321 bound_to 7965
  140.0892  144.5635  150.7066 LP  0  0  0  0  0  0  0  0  0  0  0  0  # atno 17342 bound_to 10162
  140.7126  143.2518  151.4533 LP  0  0  0  0  0  0  0  0  0  0  0  0  # atno 17343 bound_to 10162
  157.6207  130.8653  149.9103 LP  0  0  0  0  0  0  0  0  0  0  0  0  # atno 17370 bound_to 10713
  156.0737  130.3682  150.0723 LP  0  0  0  0  0  0  0  0  0  0  0  0  # atno 17371 bound_to 10713
  139.9584  134.7494  156.0290 LP  0  0  0  0  0  0  0  0  0  0  0  0  # atno 17394 bound_to 11000
  141.1313  133.6586  156.3471 LP  0  0  0  0  0  0  0  0  0  0  0  0  # atno 17395 bound_to 11000

$$$$
