AV-unprocessed.smi:3034|AV-procd|sdf|11580|dock3
  -GOLD-   2272016553D 1   1.00000     0.00000
 Structure written by MMmdl.
 31 31  0  0  0  0  0  0  0  0  2 V2000
  150.4221  135.6849  155.0878 C   0  0  0  0  0  0  0  0  0  0  0  0
  150.9773  137.0766  154.7668 C   0  0  0  0  0  0  0  0  0  0  0  0
  151.0543  137.9775  156.0061 C   0  0  0  0  0  0  0  0  0  0  0  0
  151.5969  139.6878  155.5563 S   0  0  0  0  0  0  0  0  0  0  0  0
  152.9673  139.5618  155.0317 O   0  0  0  0  0  0  0  0  0  0  0  0
  150.5783  140.1770  154.6148 O   0  0  0  0  0  0  0  0  0  0  0  0
  151.5004  140.4665  156.9797 N   0  5  0  0  0  0  0  0  0  0  0  0
  152.5229  140.2984  158.0053 C   0  0  0  0  0  0  0  0  0  0  0  0
  152.0469  140.9028  159.3511 C   0  0  1  0  0  0  0  0  0  0  0  0
  152.9693  140.5225  160.3550 O   0  0  0  0  0  0  0  0  0  0  0  0
  151.8176  142.4183  159.3249 C   0  0  0  0  0  0  0  0  0  0  0  0
  152.4408  143.2488  160.2849 C   0  0  0  0  0  0  0  0  0  0  0  0
  152.2170  144.6375  160.2294 C   0  0  0  0  0  0  0  0  0  0  0  0
  151.3883  145.1510  159.2142 C   0  0  0  0  0  0  0  0  0  0  0  0
  150.8170  144.2479  158.2968 C   0  0  0  0  0  0  0  0  0  0  0  0
  151.0247  142.9147  158.3412 N   0  0  0  0  0  0  0  0  0  0  0  0
  150.3857  135.0656  154.1915 H   0  0  0  0  0  0  0  0  0  0  0  0
  149.4109  135.7483  155.4906 H   0  0  0  0  0  0  0  0  0  0  0  0
  151.0448  135.1726  155.8216 H   0  0  0  0  0  0  0  0  0  0  0  0
  151.9700  136.9765  154.3271 H   0  0  0  0  0  0  0  0  0  0  0  0
  150.3501  137.5473  154.0093 H   0  0  0  0  0  0  0  0  0  0  0  0
  150.0806  138.0498  156.4905 H   0  0  0  0  0  0  0  0  0  0  0  0
  151.7587  137.5674  156.7293 H   0  0  0  0  0  0  0  0  0  0  0  0
  152.7421  139.2411  158.1606 H   0  0  0  0  0  0  0  0  0  0  0  0
  153.4692  140.7546  157.7121 H   0  0  0  0  0  0  0  0  0  0  0  0
  151.1029  140.4296  159.6263 H   0  0  0  0  0  0  0  0  0  0  0  0
  152.5658  140.6666  161.1966 H   0  0  0  0  0  0  0  0  0  0  0  0
  153.0690  142.8270  161.0557 H   0  0  0  0  0  0  0  0  0  0  0  0
  152.6733  145.2967  160.9531 H   0  0  0  0  0  0  0  0  0  0  0  0
  151.1945  146.2108  159.1405 H   0  0  0  0  0  0  0  0  0  0  0  0
  150.1773  144.6065  157.5041 H   0  0  0  0  0  0  0  0  0  0  0  0
  1  2  1  0  0  0  0
  1 17  1  0  0  0  0
  1 18  1  0  0  0  0
  1 19  1  0  0  0  0
  2  3  1  0  0  0  0
  2 20  1  0  0  0  0
  2 21  1  0  0  0  0
  3  4  1  0  0  0  0
  3 22  1  0  0  0  0
  3 23  1  0  0  0  0
  4  5  2  0  0  0  0
  4  6  2  0  0  0  0
  4  7  1  0  0  0  0
  7  8  1  0  0  0  0
  8  9  1  0  0  0  0
  8 24  1  0  0  0  0
  8 25  1  0  0  0  0
  9 10  1  0  0  0  0
  9 11  1  0  0  0  0
  9 26  1  0  0  0  0
 10 27  1  0  0  0  0
 11 16  1  0  0  0  0
 11 12  2  0  0  0  0
 12 13  1  0  0  0  0
 12 28  1  0  0  0  0
 13 14  2  0  0  0  0
 13 29  1  0  0  0  0
 14 15  1  0  0  0  0
 14 30  1  0  0  0  0
 15 16  2  0  0  0  0
 15 31  1  0  0  0  0
M  CHG  1   7  -1
M  END
> <s_m_source_file>
AV-unprocessed.smi

> <i_m_source_file_index>
3034

> <i_lp_mmshare_version>
43012

> <i_f3d_flags>
0

> <s_epik_input>
W0NIM11bQ0gyXVtDSDJdUyg9TykoPU8pW05IXVtDSDJdW0NASF0oW09IXSljMVtjSF1bY0hdW2NIXVtjSF1uMQ==

> <s_epik_cmdline>
J2VwaWtfcHl0aG9uJywgJy1waCcsICc3LjAnLCAnLXRuJywgJzgnLCAnLW1hJywgJzIwMCcsICctbWV0YWxfYmluZGluZycsICctaW1hZScsICc8aW5maWxlLm1hZT4nLCAnLW9tYWUnLCAnPG91dGZpbGUubWFlPic=

> <r_epik_Ionization_Penalty>
6.18156

> <r_epik_Ionization_Penalty_Charging>
6.17474

> <r_epik_Ionization_Penalty_Neutral>
0.0068235

> <r_epik_State_Penalty>
6.17598

> <r_epik_Charging_Adjusted_Penalty>
12.3507

> <i_epik_Tot_Q>
-1

> <i_epik_Tot_abs_Q>
1

> <r_epik_Metal_State_Penalty>
2.11803

> <b_epik_Metal_Only>
1

> <s_lp_Force_Field>
OPLS_2005

> <r_lp_Energy>
1.09161

> <b_lp_Chiralities_Consistent>
1

> <s_lp_Variant>
AV-unprocessed.smi:3034-4

> <Gold.Version>
5.8.1

> <Gold.Id.Protein>
6NUR|6NUR_protein|mol2

> <Gold.PLP.Fitness>
39.9009

> <Gold.PLP.PLP>
-31.1321

> <Gold.PLP.part.hbond>
-2.9453

> <Gold.PLP.part.metal>
0.0000

> <Gold.PLP.part.buried>
-3.9096

> <Gold.PLP.part.nonpolar>
-25.0676

> <Gold.PLP.part.repulsive>
0.1857

> <Gold.PLP.ligand.clash>
0.0000

> <Gold.PLP.ligand.torsion>
0.6884

> <Gold.PLP.Chemscore.Hbond>
2.0000

> <Gold.PLP.Chemscore.CHOScore>
1.0284

> <Gold.PLP.Chemscore.Metal>
0.0000

> <Gold.Chemscore.Hbonds>
donor molecule, donor type, donor heavy atom, donor atom, acceptor molecule, acceptor atom, score
      P1  H  7989  7998       L1     6  0.90
      P1  H  7997  8010       L1     5  1.00
      L1  C    15    31       P1  8028  0.99
      L1  C    15    31       P1  8029  0.03

> <Gold.PLP.Chemscore.Internal.Correction>
1.0604

> <Gold.Rescore>
     Score         DG    S(hbond)    S(metal)    S(lipo)     H(rot)  DE(clash)    DE(int)     intcor
     13.97     -15.98       1.91        0.00      85.40       2.29       0.03       1.98       ----

> <Gold.Chemscore.Fitness>
13.9706

> <Gold.Chemscore.DG>
-15.9817

> <Gold.Chemscore.ZeroCoef>
-5.4800

> <Gold.Chemscore.Hbond>
1.9074

> <Gold.Chemscore.Metal>
0.0000

> <Gold.Chemscore.Lipo>
85.4030

> <Gold.Chemscore.Internal_Hbond>
0.0000

> <Gold.Chemscore.DEClash>
0.0273

> <Gold.Chemscore.DEInternal>
1.9838

> <Gold.Chemscore.Rot>
2.2895

> <Gold.Chemscore.Internal.Correction>
   9.000000E+99

> <Gold.Chemscore.Hbonds>
donor molecule, donor type, donor heavy atom, donor atom, acceptor molecule, acceptor atom, score
      P1  H  7989  7998       L1     6  0.18
      P1  H  7997  8010       L1     5  1.00

> <Gold.Chemscore.Hbond.Weighted>
-6.3708

> <Gold.Chemscore.Metal.Weighted>
-0.0000

> <Gold.Chemscore.Lipo.Weighted>
-9.9921

> <Gold.Chemscore.Internal_Hbond.Weighted>
0.0000

> <Gold.Chemscore.DEClash.Weighted>
0.0273

> <Gold.Chemscore.DEInternal.Weighted>
1.9838

> <Gold.Chemscore.Rot.Weighted>
5.8612

> <Gold.Chemscore.Internal.Correction.Weighted>
   9.000000E+99

> <Gold.Protein.RotatedTorsions>
[ 6907 6896 6895 6894 ] final  -54.07 input  -60.11 | X-H torsion
[ 7974 7965 7964 7962 ] final  -95.33 input  175.53 | X-H torsion
[ 8008 7997 7996 7995 ] final  108.84 input   59.86 | X-H torsion
[ 10167 10162 10161 10158 ] final   79.34 input  -65.29 | X-H torsion
[ 10718 10713 10712 10709 ] final -128.82 input   66.30 | X-H torsion
[ 10763 10752 10751 10750 ] final   89.13 input  -60.55 | X-H torsion
[ 11005 11000 10999 10996 ] final  119.67 input  -57.11 | X-H torsion

> <Gold.Protein.ActiveResidues>
 VAL166  LYS551  ARG553  GLY616  TRP617  ASP618  TYR619  PRO620  LYS621  CYS622 
 ASP623  PHE694  ASN695  SER759  ASP760  ASP761  ALA762  ILE779  LEU786  VAL792 
 PHE793  MET794  SER795  GLU796  ALA797  LYS798  CYS799  TRP800  GLU811  SER814 

> <Gold.Protein.RotatedAtoms>
  150.8370  134.7648  159.6901 H   0  0  0  0  0  0  0  0  0  0  0  0  # atno 6907 bound_to 6896
  152.4465  134.5480  159.9868 H   0  0  0  0  0  0  0  0  0  0  0  0  # atno 6908 bound_to 6896
  151.5628  133.3363  159.3010 H   0  0  0  0  0  0  0  0  0  0  0  0  # atno 6909 bound_to 6896
  145.3614  140.9492  143.2498 H   0  0  0  0  0  0  0  0  0  0  0  0  # atno 7974 bound_to 7965
  156.1933  140.3069  155.9377 H   0  0  0  0  0  0  0  0  0  0  0  0  # atno 8008 bound_to 7997
  155.3123  140.0451  157.3052 H   0  0  0  0  0  0  0  0  0  0  0  0  # atno 8009 bound_to 7997
  154.5479  140.2282  155.8542 H   0  0  0  0  0  0  0  0  0  0  0  0  # atno 8010 bound_to 7997
  139.9614  144.5958  150.8069 H   0  0  0  0  0  0  0  0  0  0  0  0  # atno 10167 bound_to 10162
  156.1987  130.6843  151.0513 H   0  0  0  0  0  0  0  0  0  0  0  0  # atno 10718 bound_to 10713
  153.1839  135.4481  155.0064 H   0  0  0  0  0  0  0  0  0  0  0  0  # atno 10763 bound_to 10752
  154.8048  135.3270  154.7462 H   0  0  0  0  0  0  0  0  0  0  0  0  # atno 10764 bound_to 10752
  153.7923  135.6969  153.4924 H   0  0  0  0  0  0  0  0  0  0  0  0  # atno 10765 bound_to 10752
  139.9155  134.9630  156.7690 H   0  0  0  0  0  0  0  0  0  0  0  0  # atno 11005 bound_to 11000
  144.8643  139.5130  143.6797 LP  0  0  0  0  0  0  0  0  0  0  0  0  # atno 17320 bound_to 7965
  146.2925  139.7182  142.9150 LP  0  0  0  0  0  0  0  0  0  0  0  0  # atno 17321 bound_to 7965
  140.7552  143.3041  151.3005 LP  0  0  0  0  0  0  0  0  0  0  0  0  # atno 17342 bound_to 10162
  139.6551  144.0291  152.2654 LP  0  0  0  0  0  0  0  0  0  0  0  0  # atno 17343 bound_to 10162
  157.6973  131.0789  150.6930 LP  0  0  0  0  0  0  0  0  0  0  0  0  # atno 17370 bound_to 10713
  156.6987  130.4617  149.5579 LP  0  0  0  0  0  0  0  0  0  0  0  0  # atno 17371 bound_to 10713
  140.6636  133.9623  155.7818 LP  0  0  0  0  0  0  0  0  0  0  0  0  # atno 17394 bound_to 11000
  141.0626  134.0323  157.3637 LP  0  0  0  0  0  0  0  0  0  0  0  0  # atno 17395 bound_to 11000

$$$$
