AV-unprocessed.smi:3128|AV-procd|sdf|11919|dock6
  -GOLD-   2272017303D 1   1.00000     0.00000
 Structure written by MMmdl.
 40 40  0  0  0  0  0  0  0  0  2 V2000
  150.3601  136.6464  154.9839 C   0  0  0  0  0  0  0  0  0  0  0  0
  150.5160  137.9868  154.2395 C   0  0  0  0  0  0  0  0  0  0  0  0
  151.7578  138.7254  154.7708 C   0  0  0  0  0  0  0  0  0  0  0  0
  149.2323  138.8550  154.3203 C   0  0  1  0  0  0  0  0  0  0  0  0
  149.5151  140.3680  154.3168 C   0  0  0  0  0  0  0  0  0  0  0  0
  148.3453  138.5527  153.1965 N   0  0  0  0  0  0  0  0  0  0  0  0
  147.2739  139.2691  152.8208 C   0  0  0  0  0  0  0  0  0  0  0  0
  146.9052  140.2950  153.3937 O   0  0  0  0  0  0  0  0  0  0  0  0
  146.5164  138.7479  151.5986 C   0  0  0  0  0  0  0  0  0  0  0  0
  145.3209  137.9659  151.9741 N   0  3  0  0  0  0  0  0  0  0  0  0
  145.5668  136.5158  152.0928 C   0  0  0  0  0  0  0  0  0  0  0  0
  145.3169  135.7996  150.7580 C   0  0  0  0  0  0  0  0  0  0  0  0
  145.3737  134.3582  150.9057 N   0  0  0  0  0  0  0  0  0  0  0  0
  144.3704  133.4331  150.7052 C   0  0  0  0  0  0  0  0  0  0  0  0
  144.8963  132.2009  150.9690 C   0  0  0  0  0  0  0  0  0  0  0  0
  146.2460  132.4779  151.3252 C   0  0  0  0  0  0  0  0  0  0  0  0
  146.5284  133.7705  151.2863 N   0  0  0  0  0  0  0  0  0  0  0  0
  150.1273  136.8054  156.0374 H   0  0  0  0  0  0  0  0  0  0  0  0
  151.2780  136.0598  154.9333 H   0  0  0  0  0  0  0  0  0  0  0  0
  149.5679  136.0314  154.5565 H   0  0  0  0  0  0  0  0  0  0  0  0
  150.7021  137.7532  153.1900 H   0  0  0  0  0  0  0  0  0  0  0  0
  151.6137  139.0543  155.8004 H   0  0  0  0  0  0  0  0  0  0  0  0
  151.9978  139.6012  154.1684 H   0  0  0  0  0  0  0  0  0  0  0  0
  152.6368  138.0802  154.7499 H   0  0  0  0  0  0  0  0  0  0  0  0
  148.7288  138.6134  155.2584 H   0  0  0  0  0  0  0  0  0  0  0  0
  150.0661  140.6789  155.2041 H   0  0  0  0  0  0  0  0  0  0  0  0
  148.5865  140.9398  154.3064 H   0  0  0  0  0  0  0  0  0  0  0  0
  150.0948  140.6618  153.4410 H   0  0  0  0  0  0  0  0  0  0  0  0
  148.5715  137.7280  152.6593 H   0  0  0  0  0  0  0  0  0  0  0  0
  146.2172  139.5985  150.9847 H   0  0  0  0  0  0  0  0  0  0  0  0
  147.1797  138.1251  150.9963 H   0  0  0  0  0  0  0  0  0  0  0  0
  144.9806  138.3120  152.8598 H   0  0  0  0  0  0  0  0  0  0  0  0
  146.5954  136.3561  152.4198 H   0  0  0  0  0  0  0  0  0  0  0  0
  144.9147  136.1025  152.8635 H   0  0  0  0  0  0  0  0  0  0  0  0
  144.3378  136.0689  150.3591 H   0  0  0  0  0  0  0  0  0  0  0  0
  146.0566  136.1018  150.0149 H   0  0  0  0  0  0  0  0  0  0  0  0
  143.3772  133.7244  150.3965 H   0  0  0  0  0  0  0  0  0  0  0  0
  144.3943  131.2462  150.9149 H   0  0  0  0  0  0  0  0  0  0  0  0
  147.0229  131.7831  151.6087 H   0  0  0  0  0  0  0  0  0  0  0  0
  144.6079  138.1189  151.2745 H   0  0  0  0  0  0  0  0  0  0  0  0
  1  2  1  0  0  0  0
  1 18  1  0  0  0  0
  1 19  1  0  0  0  0
  1 20  1  0  0  0  0
  2  3  1  0  0  0  0
  2  4  1  0  0  0  0
  2 21  1  0  0  0  0
  3 22  1  0  0  0  0
  3 23  1  0  0  0  0
  3 24  1  0  0  0  0
  4  5  1  0  0  0  0
  4  6  1  0  0  0  0
  4 25  1  0  0  0  0
  5 26  1  0  0  0  0
  5 27  1  0  0  0  0
  5 28  1  0  0  0  0
  6  7  1  0  0  0  0
  6 29  1  0  0  0  0
  7  8  2  0  0  0  0
  7  9  1  0  0  0  0
  9 10  1  0  0  0  0
  9 30  1  0  0  0  0
  9 31  1  0  0  0  0
 10 11  1  0  0  0  0
 10 32  1  0  0  0  0
 10 40  1  0  0  0  0
 11 12  1  0  0  0  0
 11 33  1  0  0  0  0
 11 34  1  0  0  0  0
 12 13  1  0  0  0  0
 12 35  1  0  0  0  0
 12 36  1  0  0  0  0
 13 17  1  0  0  0  0
 13 14  1  0  0  0  0
 14 15  2  0  0  0  0
 14 37  1  0  0  0  0
 15 16  1  0  0  0  0
 15 38  1  0  0  0  0
 16 17  2  0  0  0  0
 16 39  1  0  0  0  0
M  CHG  1  10   1
M  END
> <s_m_source_file>
AV-unprocessed.smi

> <i_m_source_file_index>
3128

> <i_lp_mmshare_version>
43012

> <i_f3d_flags>
0

> <s_epik_input>
W0NIM11bQ0hdKFtDSDNdKVtDQEhdKFtDSDNdKVtOSF1DKD1PKVtDSDJdW05IXVtDSDJdW0NIMl1uMVtjSF1bY0hdW2NIXW4x

> <s_epik_cmdline>
J2VwaWtfcHl0aG9uJywgJy1waCcsICc3LjAnLCAnLXRuJywgJzgnLCAnLW1hJywgJzIwMCcsICctbWV0YWxfYmluZGluZycsICctaW1hZScsICc8aW5maWxlLm1hZT4nLCAnLW9tYWUnLCAnPG91dGZpbGUubWFlPic=

> <r_lp_tautomer_probability>
1

> <r_epik_Ionization_Penalty>
0.20724

> <r_epik_Ionization_Penalty_Charging>
0.207237

> <r_epik_Ionization_Penalty_Neutral>
3.20642e-06

> <r_epik_State_Penalty>
0.197613

> <r_epik_Charging_Adjusted_Penalty>
0.40485

> <i_epik_Tot_Q>
1

> <i_epik_Tot_abs_Q>
1

> <r_epik_Metal_State_Penalty>
0.197789

> <b_epik_Metal_Only>
0

> <s_lp_Force_Field>
OPLS_2005

> <r_lp_Energy>
4.49363

> <b_lp_Chiralities_Consistent>
1

> <s_lp_Variant>
AV-unprocessed.smi:3128-2

> <Gold.Version>
5.8.1

> <Gold.Id.Protein>
6NUR|6NUR_protein|mol2

> <Gold.PLP.Fitness>
46.3033

> <Gold.PLP.PLP>
-37.7265

> <Gold.PLP.part.hbond>
-4.0000

> <Gold.PLP.part.metal>
0.0000

> <Gold.PLP.part.buried>
-2.9004

> <Gold.PLP.part.nonpolar>
-32.6434

> <Gold.PLP.part.repulsive>
0.4567

> <Gold.PLP.ligand.clash>
0.0000

> <Gold.PLP.ligand.torsion>
1.7754

> <Gold.PLP.Chemscore.Hbond>
2.0000

> <Gold.PLP.Chemscore.CHOScore>
2.0000

> <Gold.PLP.Chemscore.Metal>
0.0000

> <Gold.Chemscore.Hbonds>
donor molecule, donor type, donor heavy atom, donor atom, acceptor molecule, acceptor atom, score
      L1  H     6    29       P1  7948  1.00
      L1  H    10    40       P1 10171  1.00
      L1  C    14    37       P1 10186  0.80
      L1  C    16    39       P1 10747  0.97

> <Gold.PLP.Chemscore.Internal.Correction>
0.1275

> <Gold.Rescore>
     Score         DG    S(hbond)    S(metal)    S(lipo)     H(rot)  DE(clash)    DE(int)     intcor
     13.21     -15.95       2.00        0.00      81.55       2.24       0.10       2.64       ----

> <Gold.Chemscore.Fitness>
13.2114

> <Gold.Chemscore.DG>
-15.9544

> <Gold.Chemscore.ZeroCoef>
-5.4800

> <Gold.Chemscore.Hbond>
1.9975

> <Gold.Chemscore.Metal>
0.0000

> <Gold.Chemscore.Lipo>
81.5485

> <Gold.Chemscore.Internal_Hbond>
0.0000

> <Gold.Chemscore.DEClash>
0.1007

> <Gold.Chemscore.DEInternal>
2.6422

> <Gold.Chemscore.Rot>
2.2416

> <Gold.Chemscore.Internal.Correction>
   9.000000E+99

> <Gold.Chemscore.Hbonds>
donor molecule, donor type, donor heavy atom, donor atom, acceptor molecule, acceptor atom, score
      L1  H     6    29       P1  7948  1.00
      L1  H    10    40       P1 10171  1.00

> <Gold.Chemscore.Hbond.Weighted>
-6.6717

> <Gold.Chemscore.Metal.Weighted>
-0.0000

> <Gold.Chemscore.Lipo.Weighted>
-9.5412

> <Gold.Chemscore.Internal_Hbond.Weighted>
0.0000

> <Gold.Chemscore.DEClash.Weighted>
0.1007

> <Gold.Chemscore.DEInternal.Weighted>
2.6422

> <Gold.Chemscore.Rot.Weighted>
5.7385

> <Gold.Chemscore.Internal.Correction.Weighted>
   9.000000E+99

> <Gold.Protein.RotatedTorsions>
[ 6907 6896 6895 6894 ] final -135.05 input  -60.11 | X-H torsion
[ 7974 7965 7964 7962 ] final -178.30 input  175.53 | X-H torsion
[ 8008 7997 7996 7995 ] final -108.93 input   59.86 | X-H torsion
[ 10167 10162 10161 10158 ] final   40.26 input  -65.29 | X-H torsion
[ 10718 10713 10712 10709 ] final   -0.26 input   66.30 | X-H torsion
[ 10763 10752 10751 10750 ] final  113.28 input  -60.55 | X-H torsion
[ 11005 11000 10999 10996 ] final  143.63 input  -57.11 | X-H torsion

> <Gold.Protein.ActiveResidues>
 VAL166  LYS551  ARG553  GLY616  TRP617  ASP618  TYR619  PRO620  LYS621  CYS622 
 ASP623  PHE694  ASN695  SER759  ASP760  ASP761  ALA762  ILE779  LEU786  VAL792 
 PHE793  MET794  SER795  GLU796  ALA797  LYS798  CYS799  TRP800  GLU811  SER814 

> <Gold.Protein.RotatedAtoms>
  150.9932  133.6129  159.2705 H   0  0  0  0  0  0  0  0  0  0  0  0  # atno 6907 bound_to 6896
  151.3342  135.0848  159.9359 H   0  0  0  0  0  0  0  0  0  0  0  0  # atno 6908 bound_to 6896
  152.5252  133.9556  159.7747 H   0  0  0  0  0  0  0  0  0  0  0  0  # atno 6909 bound_to 6896
  144.7130  140.0890  143.6422 H   0  0  0  0  0  0  0  0  0  0  0  0  # atno 7974 bound_to 7965
  154.9517  140.0400  157.2147 H   0  0  0  0  0  0  0  0  0  0  0  0  # atno 8008 bound_to 7997
  154.7972  140.2845  155.5926 H   0  0  0  0  0  0  0  0  0  0  0  0  # atno 8009 bound_to 7997
  156.2957  140.2562  156.2832 H   0  0  0  0  0  0  0  0  0  0  0  0  # atno 8010 bound_to 7997
  140.3759  144.2044  150.6131 H   0  0  0  0  0  0  0  0  0  0  0  0  # atno 10167 bound_to 10162
  156.8230  130.5463  149.5695 H   0  0  0  0  0  0  0  0  0  0  0  0  # atno 10718 bound_to 10713
  153.4901  135.3660  155.2487 H   0  0  0  0  0  0  0  0  0  0  0  0  # atno 10763 bound_to 10752
  154.8752  135.3975  154.3598 H   0  0  0  0  0  0  0  0  0  0  0  0  # atno 10764 bound_to 10752
  153.4217  135.7080  153.6355 H   0  0  0  0  0  0  0  0  0  0  0  0  # atno 10765 bound_to 10752
  140.0569  134.9226  157.1116 H   0  0  0  0  0  0  0  0  0  0  0  0  # atno 11005 bound_to 11000
  145.9637  139.2819  143.1140 LP  0  0  0  0  0  0  0  0  0  0  0  0  # atno 17320 bound_to 7965
  145.9193  140.9126  143.0413 LP  0  0  0  0  0  0  0  0  0  0  0  0  # atno 17321 bound_to 7965
  140.4987  143.2324  151.8711 LP  0  0  0  0  0  0  0  0  0  0  0  0  # atno 17342 bound_to 10162
  139.4799  144.5084  151.8965 LP  0  0  0  0  0  0  0  0  0  0  0  0  # atno 17343 bound_to 10162
  156.0978  130.5945  150.9842 LP  0  0  0  0  0  0  0  0  0  0  0  0  # atno 17370 bound_to 10713
  157.6447  131.0905  150.8179 LP  0  0  0  0  0  0  0  0  0  0  0  0  # atno 17371 bound_to 10713
  140.3830  134.2266  155.7170 LP  0  0  0  0  0  0  0  0  0  0  0  0  # atno 17394 bound_to 11000
  141.1956  133.8102  157.0708 LP  0  0  0  0  0  0  0  0  0  0  0  0  # atno 17395 bound_to 11000

$$$$
