AV-unprocessed.smi:720|AV-procd|sdf|3496|dock3
  -GOLD-   22720 0493D 1   1.00000     0.00000
 Structure written by MMmdl.
 47 49  0  0  0  0  0  0  0  0  2 V2000
  145.0716  136.0409  151.1098 C   0  0  0  0  0  0  0  0  0  0  0  0
  145.8644  136.2185  152.3483 N   0  3  0  0  0  0  0  0  0  0  0  0
  145.6568  135.0964  153.2904 C   0  0  0  0  0  0  0  0  0  0  0  0
  145.6580  137.5364  152.9991 C   0  0  0  0  0  0  0  0  0  0  0  0
  146.7539  137.8694  154.0289 C   0  0  0  0  0  0  0  0  0  0  0  0
  147.1055  139.2757  154.0008 N   0  0  0  0  0  0  0  0  0  0  0  0
  146.6206  140.2705  153.1749 C   0  0  0  0  0  0  0  0  0  0  0  0
  147.2531  141.4323  153.5167 C   0  0  0  0  0  0  0  0  0  0  0  0
  148.1169  141.0358  154.5743 C   0  0  0  0  0  0  0  0  0  0  0  0
  148.9647  141.9773  155.2104 N   0  0  0  0  0  0  0  0  0  0  0  0
  149.9392  141.7340  156.1090 C   0  0  0  0  0  0  0  0  0  0  0  0
  150.2238  140.6197  156.5451 O   0  0  0  0  0  0  0  0  0  0  0  0
  150.5962  142.8330  156.5213 N   0  0  0  0  0  0  0  0  0  0  0  0
  151.6982  142.9170  157.4825 C   0  0  1  0  0  0  0  0  0  0  0  0
  152.2500  144.3530  157.6476 C   0  0  0  0  0  0  0  0  0  0  0  0
  152.0623  144.6218  159.1523 C   0  0  2  0  0  0  0  0  0  0  0  0
  153.0370  143.7428  159.9595 C   0  0  0  0  0  0  0  0  0  0  0  0
  152.4327  142.3329  159.8076 C   0  0  0  0  0  0  0  0  0  0  0  0
  151.2081  142.5879  158.9092 C   0  0  1  0  0  0  0  0  0  0  0  0
  150.7275  143.9417  159.4242 C   0  0  0  0  0  0  0  0  0  0  0  0
  148.0311  139.7451  154.8639 N   0  0  0  0  0  0  0  0  0  0  0  0
  144.0029  136.1166  151.3146 H   0  0  0  0  0  0  0  0  0  0  0  0
  145.2635  135.0617  150.6698 H   0  0  0  0  0  0  0  0  0  0  0  0
  145.3319  136.7861  150.3588 H   0  0  0  0  0  0  0  0  0  0  0  0
  144.6226  135.0625  153.6360 H   0  0  0  0  0  0  0  0  0  0  0  0
  146.3059  135.1937  154.1614 H   0  0  0  0  0  0  0  0  0  0  0  0
  145.8892  134.1438  152.8131 H   0  0  0  0  0  0  0  0  0  0  0  0
  145.5903  138.3200  152.2429 H   0  0  0  0  0  0  0  0  0  0  0  0
  144.6949  137.5184  153.5122 H   0  0  0  0  0  0  0  0  0  0  0  0
  146.4190  137.6209  155.0372 H   0  0  0  0  0  0  0  0  0  0  0  0
  147.6581  137.2897  153.8422 H   0  0  0  0  0  0  0  0  0  0  0  0
  145.8742  140.0718  152.4197 H   0  0  0  0  0  0  0  0  0  0  0  0
  147.1193  142.4100  153.0775 H   0  0  0  0  0  0  0  0  0  0  0  0
  148.8225  142.9425  154.9514 H   0  0  0  0  0  0  0  0  0  0  0  0
  150.2864  143.7130  156.1346 H   0  0  0  0  0  0  0  0  0  0  0  0
  152.4850  142.2196  157.1883 H   0  0  0  0  0  0  0  0  0  0  0  0
  153.2938  144.4314  157.3412 H   0  0  0  0  0  0  0  0  0  0  0  0
  151.6788  145.0736  157.0602 H   0  0  0  0  0  0  0  0  0  0  0  0
  152.1035  145.6789  159.4163 H   0  0  0  0  0  0  0  0  0  0  0  0
  154.0578  143.8021  159.5800 H   0  0  0  0  0  0  0  0  0  0  0  0
  153.0518  144.0415  161.0084 H   0  0  0  0  0  0  0  0  0  0  0  0
  153.1337  141.6223  159.3684 H   0  0  0  0  0  0  0  0  0  0  0  0
  152.1257  141.9418  160.7785 H   0  0  0  0  0  0  0  0  0  0  0  0
  150.4685  141.7875  158.9523 H   0  0  0  0  0  0  0  0  0  0  0  0
  150.4534  143.9307  160.4807 H   0  0  0  0  0  0  0  0  0  0  0  0
  149.9021  144.3599  158.8455 H   0  0  0  0  0  0  0  0  0  0  0  0
  146.8380  136.1807  152.0809 H   0  0  0  0  0  0  0  0  0  0  0  0
  1  2  1  0  0  0  0
  1 22  1  0  0  0  0
  1 23  1  0  0  0  0
  1 24  1  0  0  0  0
  2  3  1  0  0  0  0
  2  4  1  0  0  0  0
  2 47  1  0  0  0  0
  3 25  1  0  0  0  0
  3 26  1  0  0  0  0
  3 27  1  0  0  0  0
  4  5  1  0  0  0  0
  4 28  1  0  0  0  0
  4 29  1  0  0  0  0
  5  6  1  0  0  0  0
  5 30  1  0  0  0  0
  5 31  1  0  0  0  0
  6 21  1  0  0  0  0
  6  7  1  0  0  0  0
  7  8  2  0  0  0  0
  7 32  1  0  0  0  0
  8  9  1  0  0  0  0
  8 33  1  0  0  0  0
  9 10  1  0  0  0  0
  9 21  2  0  0  0  0
 10 11  1  0  0  0  0
 10 34  1  0  0  0  0
 11 12  2  0  0  0  0
 11 13  1  0  0  0  0
 13 14  1  0  0  0  0
 13 35  1  0  0  0  0
 14 19  1  0  0  0  0
 14 15  1  0  0  0  0
 14 36  1  0  0  0  0
 15 16  1  0  0  0  0
 15 37  1  0  0  0  0
 15 38  1  0  0  0  0
 16 20  1  0  0  0  0
 16 17  1  0  0  0  0
 16 39  1  0  0  0  0
 17 18  1  0  0  0  0
 17 40  1  0  0  0  0
 17 41  1  0  0  0  0
 18 19  1  0  0  0  0
 18 42  1  0  0  0  0
 18 43  1  0  0  0  0
 19 20  1  0  0  0  0
 19 44  1  0  0  0  0
 20 45  1  0  0  0  0
 20 46  1  0  0  0  0
M  CHG  1   2   1
M  END
> <s_m_source_file>
AV-unprocessed.smi

> <i_m_source_file_index>
720

> <i_lp_mmshare_version>
43012

> <i_f3d_flags>
0

> <s_epik_input>
W0NIM11OKFtDSDNdKVtDSDJdW0NIMl1uMVtjSF1bY0hdYyhuMSlbTkhdQyg9TylbTkhdW0NASF0oW0NIMl1bQ0BIXTIzKVtDQEhdKFtDSDJdMylbQ0gyXVtDSDJdMg==

> <s_epik_cmdline>
J2VwaWtfcHl0aG9uJywgJy1waCcsICc3LjAnLCAnLXRuJywgJzgnLCAnLW1hJywgJzIwMCcsICctbWV0YWxfYmluZGluZycsICctaW1hZScsICc8aW5maWxlLm1hZT4nLCAnLW9tYWUnLCAnPG91dGZpbGUubWFlPic=

> <r_lp_tautomer_probability>
1

> <r_epik_Ionization_Penalty>
0.0272832

> <r_epik_Ionization_Penalty_Charging>
0.027243

> <r_epik_Ionization_Penalty_Neutral>
4.01867e-05

> <r_epik_State_Penalty>
0.0222865

> <r_epik_Charging_Adjusted_Penalty>
0.0495295

> <i_epik_Tot_Q>
1

> <i_epik_Tot_abs_Q>
1

> <r_epik_Metal_State_Penalty>
0.0222866

> <b_epik_Metal_Only>
0

> <s_lp_Force_Field>
OPLS_2005

> <r_lp_Energy>
59.8818

> <b_lp_Chiralities_Consistent>
1

> <s_lp_Variant>
AV-unprocessed.smi:720-2

> <Gold.Version>
5.8.1

> <Gold.Id.Protein>
6NUR|6NUR_protein|mol2

> <Gold.PLP.Fitness>
53.8560

> <Gold.PLP.PLP>
-40.0497

> <Gold.PLP.part.hbond>
-3.0000

> <Gold.PLP.part.metal>
0.0000

> <Gold.PLP.part.buried>
-5.0435

> <Gold.PLP.part.nonpolar>
-31.9308

> <Gold.PLP.part.repulsive>
0.3856

> <Gold.PLP.ligand.clash>
0.0000

> <Gold.PLP.ligand.torsion>
0.4094

> <Gold.PLP.Chemscore.Hbond>
3.9280

> <Gold.PLP.Chemscore.CHOScore>
0.9201

> <Gold.PLP.Chemscore.Metal>
0.0000

> <Gold.Chemscore.Hbonds>
donor molecule, donor type, donor heavy atom, donor atom, acceptor molecule, acceptor atom, score
      L1  H     2    47       P1  7948  1.62
      L1  H    10    34       P1  8028  0.86
      L1  H    13    35       P1  8028  0.94
      L1  C     7    32       P1 10175  0.99

> <Gold.PLP.Chemscore.Internal.Correction>
0.0806

> <Gold.Rescore>
     Score         DG    S(hbond)    S(metal)    S(lipo)     H(rot)  DE(clash)    DE(int)     intcor
     21.36     -23.77       2.86        0.00     110.19       1.62       0.41       1.99       ----

> <Gold.Chemscore.Fitness>
21.3646

> <Gold.Chemscore.DG>
-23.7675

> <Gold.Chemscore.ZeroCoef>
-5.4800

> <Gold.Chemscore.Hbond>
2.8580

> <Gold.Chemscore.Metal>
0.0000

> <Gold.Chemscore.Lipo>
110.1885

> <Gold.Chemscore.Internal_Hbond>
0.0000

> <Gold.Chemscore.DEClash>
0.4092

> <Gold.Chemscore.DEInternal>
1.9937

> <Gold.Chemscore.Rot>
1.6212

> <Gold.Chemscore.Internal.Correction>
   9.000000E+99

> <Gold.Chemscore.Hbonds>
donor molecule, donor type, donor heavy atom, donor atom, acceptor molecule, acceptor atom, score
      L1  H     2    47       P1  7948  0.80
      L1  H    10    34       P1  8028  0.85
      L1  H    13    35       P1  8028  0.91

> <Gold.Chemscore.Hbond.Weighted>
-9.5456

> <Gold.Chemscore.Metal.Weighted>
-0.0000

> <Gold.Chemscore.Lipo.Weighted>
-12.8920

> <Gold.Chemscore.Internal_Hbond.Weighted>
0.0000

> <Gold.Chemscore.DEClash.Weighted>
0.4092

> <Gold.Chemscore.DEInternal.Weighted>
1.9937

> <Gold.Chemscore.Rot.Weighted>
4.1502

> <Gold.Chemscore.Internal.Correction.Weighted>
   9.000000E+99

> <Gold.Protein.RotatedTorsions>
[ 6907 6896 6895 6894 ] final -136.40 input  -60.11 | X-H torsion
[ 7974 7965 7964 7962 ] final  130.58 input  175.53 | X-H torsion
[ 8008 7997 7996 7995 ] final  169.92 input   59.86 | X-H torsion
[ 10167 10162 10161 10158 ] final  125.48 input  -65.29 | X-H torsion
[ 10718 10713 10712 10709 ] final -140.06 input   66.30 | X-H torsion
[ 10763 10752 10751 10750 ] final -173.70 input  -60.55 | X-H torsion
[ 11005 11000 10999 10996 ] final  -52.06 input  -57.11 | X-H torsion

> <Gold.Protein.ActiveResidues>
 VAL166  LYS551  ARG553  GLY616  TRP617  ASP618  TYR619  PRO620  LYS621  CYS622 
 ASP623  PHE694  ASN695  SER759  ASP760  ASP761  ALA762  ILE779  LEU786  VAL792 
 PHE793  MET794  SER795  GLU796  ALA797  LYS798  CYS799  TRP800  GLU811  SER814 

> <Gold.Protein.RotatedAtoms>
  151.0097  133.5977  159.2684 H   0  0  0  0  0  0  0  0  0  0  0  0  # atno 6907 bound_to 6896
  151.3134  135.0799  159.9290 H   0  0  0  0  0  0  0  0  0  0  0  0  # atno 6908 bound_to 6896
  152.5296  133.9757  159.7837 H   0  0  0  0  0  0  0  0  0  0  0  0  # atno 6909 bound_to 6896
  145.0164  139.4172  143.5219 H   0  0  0  0  0  0  0  0  0  0  0  0  # atno 7974 bound_to 7965
  156.1413  140.1551  156.8916 H   0  0  0  0  0  0  0  0  0  0  0  0  # atno 8008 bound_to 7997
  154.4990  140.0830  156.7796 H   0  0  0  0  0  0  0  0  0  0  0  0  # atno 8009 bound_to 7997
  155.4073  140.3417  155.4263 H   0  0  0  0  0  0  0  0  0  0  0  0  # atno 8010 bound_to 7997
  139.5683  144.6924  151.3848 H   0  0  0  0  0  0  0  0  0  0  0  0  # atno 10167 bound_to 10162
  156.3180  130.7518  151.1609 H   0  0  0  0  0  0  0  0  0  0  0  0  # atno 10718 bound_to 10713
  154.6048  135.2858  155.0497 H   0  0  0  0  0  0  0  0  0  0  0  0  # atno 10763 bound_to 10752
  154.1748  135.6466  153.5022 H   0  0  0  0  0  0  0  0  0  0  0  0  # atno 10764 bound_to 10752
  153.0171  135.5409  154.6780 H   0  0  0  0  0  0  0  0  0  0  0  0  # atno 10765 bound_to 10752
  141.0904  133.6634  156.3968 H   0  0  0  0  0  0  0  0  0  0  0  0  # atno 11005 bound_to 11000
  146.3478  139.9638  142.8714 LP  0  0  0  0  0  0  0  0  0  0  0  0  # atno 17320 bound_to 7965
  145.1953  140.9830  143.4187 LP  0  0  0  0  0  0  0  0  0  0  0  0  # atno 17321 bound_to 7965
  140.6967  143.7731  150.7338 LP  0  0  0  0  0  0  0  0  0  0  0  0  # atno 17342 bound_to 10162
  140.1230  143.4595  152.2302 LP  0  0  0  0  0  0  0  0  0  0  0  0  # atno 17343 bound_to 10162
  157.7405  131.0515  150.5158 LP  0  0  0  0  0  0  0  0  0  0  0  0  # atno 17370 bound_to 10713
  156.5306  130.4184  149.6203 LP  0  0  0  0  0  0  0  0  0  0  0  0  # atno 17371 bound_to 10713
  140.5265  134.6254  157.5336 LP  0  0  0  0  0  0  0  0  0  0  0  0  # atno 17394 bound_to 11000
  139.9729  134.7263  156.0006 LP  0  0  0  0  0  0  0  0  0  0  0  0  # atno 17395 bound_to 11000

$$$$
