AV-unprocessed.smi:157|AV-procd|sdf|1293|dock10
  -GOLD-   2262018573D 1   1.00000     0.00000
 Structure written by MMmdl.
 35 37  0  0  0  0  0  0  0  0  1 V2000
  151.7246  137.0709  154.1191 O   0  0  0  0  0  0  0  0  0  0  0  0
  152.3751  138.2960  154.3814 C   0  0  0  0  0  0  0  0  0  0  0  0
  151.7372  138.9787  155.6004 C   0  0  1  0  0  0  0  0  0  0  0  0
  152.2814  140.2857  155.7606 O   0  0  0  0  0  0  0  0  0  0  0  0
  151.3632  141.1135  156.4129 C   0  0  2  0  0  0  0  0  0  0  0  0
  151.8531  141.3813  157.8045 N   0  0  0  0  0  0  0  0  0  0  0  0
  152.4781  140.5180  158.6173 C   0  0  0  0  0  0  0  0  0  0  0  0
  152.8049  141.0136  159.7987 N   0  0  0  0  0  0  0  0  0  0  0  0
  152.3410  142.3266  159.7523 C   0  0  0  0  0  0  0  0  0  0  0  0
  151.7384  142.5726  158.5269 C   0  0  0  0  0  0  0  0  0  0  0  0
  151.1157  143.6465  157.9197 N   0  0  0  0  0  0  0  0  0  0  0  0
  150.7140  144.6239  158.6697 C   0  0  0  0  0  0  0  0  0  0  0  0
  150.8823  144.8397  160.0301 N   0  0  0  0  0  0  0  0  0  0  0  0
  152.1552  144.6922  160.7150 C   0  0  0  0  0  0  0  0  0  0  0  0
  152.5689  143.2314  160.9278 C   0  0  1  0  0  0  0  0  0  0  0  0
  151.8417  142.6913  162.0122 O   0  0  0  0  0  0  0  0  0  0  0  0
  150.0292  140.3613  156.4639 C   0  0  0  0  0  0  0  0  0  0  0  0
  150.2457  139.2729  155.4317 C   0  0  2  0  0  0  0  0  0  0  0  0
  149.4375  138.1475  155.7078 O   0  0  0  0  0  0  0  0  0  0  0  0
  151.8990  138.3986  156.5112 H   0  0  0  0  0  0  0  0  0  0  0  0
  151.3156  142.0857  155.9212 H   0  0  0  0  0  0  0  0  0  0  0  0
  153.6216  143.2098  161.2121 H   0  0  0  0  0  0  0  0  0  0  0  0
  150.0372  139.6539  154.4308 H   0  0  0  0  0  0  0  0  0  0  0  0
  150.8042  137.1731  154.3073 H   0  0  0  0  0  0  0  0  0  0  0  0
  153.4434  138.1361  154.5302 H   0  0  0  0  0  0  0  0  0  0  0  0
  152.2612  138.9232  153.4969 H   0  0  0  0  0  0  0  0  0  0  0  0
  152.7047  139.4996  158.3381 H   0  0  0  0  0  0  0  0  0  0  0  0
  150.1541  145.4360  158.2037 H   0  0  0  0  0  0  0  0  0  0  0  0
  150.3032  145.5327  160.4816 H   0  0  0  0  0  0  0  0  0  0  0  0
  152.9119  145.1868  160.1042 H   0  0  0  0  0  0  0  0  0  0  0  0
  152.1302  145.2298  161.6632 H   0  0  0  0  0  0  0  0  0  0  0  0
  152.1001  143.1503  162.7970 H   0  0  0  0  0  0  0  0  0  0  0  0
  149.8821  139.9341  157.4581 H   0  0  0  0  0  0  0  0  0  0  0  0
  149.1940  141.0238  156.2353 H   0  0  0  0  0  0  0  0  0  0  0  0
  149.7881  137.7046  156.4656 H   0  0  0  0  0  0  0  0  0  0  0  0
  1  2  1  0  0  0  0
  1 24  1  0  0  0  0
  2  3  1  0  0  0  0
  2 25  1  0  0  0  0
  2 26  1  0  0  0  0
  3 20  1  0  0  0  0
  3 18  1  0  0  0  0
  3  4  1  0  0  0  0
  4  5  1  0  0  0  0
  5 21  1  0  0  0  0
  5  6  1  0  0  0  0
  5 17  1  0  0  0  0
  6 10  1  0  0  0  0
  6  7  1  0  0  0  0
  7  8  2  0  0  0  0
  7 27  1  0  0  0  0
  8  9  1  0  0  0  0
  9 15  1  0  0  0  0
  9 10  2  0  0  0  0
 10 11  1  0  0  0  0
 11 12  2  0  0  0  0
 12 13  1  0  0  0  0
 12 28  1  0  0  0  0
 13 14  1  0  0  0  0
 13 29  1  0  0  0  0
 14 15  1  0  0  0  0
 14 30  1  0  0  0  0
 14 31  1  0  0  0  0
 15 22  1  0  0  0  0
 15 16  1  0  0  0  0
 16 32  1  0  0  0  0
 17 18  1  0  0  0  0
 17 33  1  0  0  0  0
 17 34  1  0  0  0  0
 18 23  1  0  0  0  0
 18 19  1  0  0  0  0
 19 35  1  0  0  0  0
M  END
> <s_m_source_file>
AV-unprocessed.smi

> <i_m_source_file_index>
157

> <i_lp_mmshare_version>
43012

> <i_f3d_flags>
0

> <s_epik_input>
W09IXVtDSDJdW0NASF0xT1tDQEhdKFtDSDJdW0NAQEhdMVtPSF0pbihbY0hdbjIpYyhjMjMpTj1bQ0hdW05IXVtDSDJdW0NASF0zW09IXQ==

> <s_epik_cmdline>
J2VwaWtfcHl0aG9uJywgJy1waCcsICc3LjAnLCAnLXRuJywgJzgnLCAnLW1hJywgJzIwMCcsICctbWV0YWxfYmluZGluZycsICctaW1hZScsICc8aW5maWxlLm1hZT4nLCAnLW9tYWUnLCAnPG91dGZpbGUubWFlPic=

> <r_lp_tautomer_probability>
1

> <r_epik_Ionization_Penalty>
0.0357149

> <r_epik_Ionization_Penalty_Charging>
0.0355056

> <r_epik_Ionization_Penalty_Neutral>
0.000209255

> <r_epik_State_Penalty>
0.0296046

> <r_epik_Charging_Adjusted_Penalty>
0.0651102

> <i_epik_Tot_Q>
0

> <i_epik_Tot_abs_Q>
0

> <r_epik_Metal_State_Penalty>
3.03559e-05

> <b_epik_Metal_Only>
0

> <s_epik_Chemistry_Notes>
This compound has an imine and may undergo hydrolysis. This compound contains an acetal/aminal-like group ( X-CH(R)-Y where X, Y are N, S, or O) that may be acid/base labile, releasing an aldehyde.

> <s_lp_Force_Field>
OPLS_2005

> <r_lp_Energy>
43.2358

> <b_lp_Chiralities_Consistent>
1

> <s_lp_Variant>
AV-unprocessed.smi:157-3

> <Gold.Version>
5.8.1

> <Gold.Id.Protein>
6NUR|6NUR_protein|mol2

> <Gold.PLP.Fitness>
46.0028

> <Gold.PLP.PLP>
-35.9531

> <Gold.PLP.part.hbond>
-5.6526

> <Gold.PLP.part.metal>
0.0000

> <Gold.PLP.part.buried>
-6.5585

> <Gold.PLP.part.nonpolar>
-23.7792

> <Gold.PLP.part.repulsive>
0.3041

> <Gold.PLP.ligand.clash>
0.0000

> <Gold.PLP.ligand.torsion>
0.6182

> <Gold.PLP.Chemscore.Hbond>
2.7650

> <Gold.PLP.Chemscore.CHOScore>
0.9907

> <Gold.PLP.Chemscore.Metal>
0.0000

> <Gold.Chemscore.Hbonds>
donor molecule, donor type, donor heavy atom, donor atom, acceptor molecule, acceptor atom, score
      P1  H  6933  6945       L1    16  0.87
      P1  H  7989  7998       L1     4  0.02
      P1  H  7997  8008       L1     4  0.80
      P1  H 10752 10763       L1     1  0.91
      L1  C    12    28       P1  8028  0.01
      L1  C    12    28       P1  8029  1.00

> <Gold.PLP.Chemscore.Internal.Correction>
0.0190

> <Gold.Rescore>
     Score         DG    S(hbond)    S(metal)    S(lipo)     H(rot)  DE(clash)    DE(int)     intcor
      8.55      -9.47       1.88        0.00      59.90       3.64       0.27       0.66       ----

> <Gold.Chemscore.Fitness>
8.5476

> <Gold.Chemscore.DG>
-9.4712

> <Gold.Chemscore.ZeroCoef>
-5.4800

> <Gold.Chemscore.Hbond>
1.8836

> <Gold.Chemscore.Metal>
0.0000

> <Gold.Chemscore.Lipo>
59.9043

> <Gold.Chemscore.Internal_Hbond>
0.0000

> <Gold.Chemscore.DEClash>
0.2666

> <Gold.Chemscore.DEInternal>
0.6570

> <Gold.Chemscore.Rot>
3.6362

> <Gold.Chemscore.Internal.Correction>
   9.000000E+99

> <Gold.Chemscore.Hbonds>
donor molecule, donor type, donor heavy atom, donor atom, acceptor molecule, acceptor atom, score
      P1  H  6933  6945       L1    16  0.66
      P1  H  7997  8008       L1     4  0.61
      P1  H 10752 10763       L1     1  0.54

> <Gold.Chemscore.Hbond.Weighted>
-6.2911

> <Gold.Chemscore.Metal.Weighted>
-0.0000

> <Gold.Chemscore.Lipo.Weighted>
-7.0088

> <Gold.Chemscore.Internal_Hbond.Weighted>
0.0000

> <Gold.Chemscore.DEClash.Weighted>
0.2666

> <Gold.Chemscore.DEInternal.Weighted>
0.6570

> <Gold.Chemscore.Rot.Weighted>
9.3087

> <Gold.Chemscore.Internal.Correction.Weighted>
   9.000000E+99

> <Gold.Protein.RotatedTorsions>
[ 6907 6896 6895 6894 ] final -161.72 input  -60.11 | X-H torsion
[ 7974 7965 7964 7962 ] final   -1.74 input  175.53 | X-H torsion
[ 8008 7997 7996 7995 ] final  -30.22 input   59.86 | X-H torsion
[ 10167 10162 10161 10158 ] final  -90.81 input  -65.29 | X-H torsion
[ 10718 10713 10712 10709 ] final  -16.81 input   66.30 | X-H torsion
[ 10763 10752 10751 10750 ] final   16.27 input  -60.55 | X-H torsion
[ 11005 11000 10999 10996 ] final  138.06 input  -57.11 | X-H torsion

> <Gold.Protein.ActiveResidues>
 VAL166  LYS551  ARG553  GLY616  TRP617  ASP618  TYR619  PRO620  LYS621  CYS622 
 ASP623  PHE694  ASN695  SER759  ASP760  ASP761  ALA762  ILE779  LEU786  VAL792 
 PHE793  MET794  SER795  GLU796  ALA797  LYS798  CYS799  TRP800  GLU811  SER814 

> <Gold.Protein.RotatedAtoms>
  151.3691  133.3861  159.2697 H   0  0  0  0  0  0  0  0  0  0  0  0  # atno 6907 bound_to 6896
  150.9665  134.9046  159.7773 H   0  0  0  0  0  0  0  0  0  0  0  0  # atno 6908 bound_to 6896
  152.5169  134.3652  159.9351 H   0  0  0  0  0  0  0  0  0  0  0  0  # atno 6909 bound_to 6896
  146.2413  140.1466  142.8334 H   0  0  0  0  0  0  0  0  0  0  0  0  # atno 7974 bound_to 7965
  154.4259  140.1797  156.1372 H   0  0  0  0  0  0  0  0  0  0  0  0  # atno 8008 bound_to 7997
  156.0021  140.3359  155.6831 H   0  0  0  0  0  0  0  0  0  0  0  0  # atno 8009 bound_to 7997
  155.6229  140.0661  157.2663 H   0  0  0  0  0  0  0  0  0  0  0  0  # atno 8010 bound_to 7997
  140.3512  143.2890  151.9724 H   0  0  0  0  0  0  0  0  0  0  0  0  # atno 10167 bound_to 10162
  156.5824  130.4777  149.6314 H   0  0  0  0  0  0  0  0  0  0  0  0  # atno 10718 bound_to 10713
  153.1447  135.6767  153.8973 H   0  0  0  0  0  0  0  0  0  0  0  0  # atno 10763 bound_to 10752
  153.8419  135.3104  155.3428 H   0  0  0  0  0  0  0  0  0  0  0  0  # atno 10764 bound_to 10752
  154.7815  135.4885  153.9940 H   0  0  0  0  0  0  0  0  0  0  0  0  # atno 10765 bound_to 10752
  140.0157  134.9419  157.0371 H   0  0  0  0  0  0  0  0  0  0  0  0  # atno 11005 bound_to 11000
  145.0202  140.8787  143.5171 LP  0  0  0  0  0  0  0  0  0  0  0  0  # atno 17320 bound_to 7965
  145.1513  139.2512  143.5439 LP  0  0  0  0  0  0  0  0  0  0  0  0  # atno 17321 bound_to 7965
  139.4826  144.6074  151.7495 LP  0  0  0  0  0  0  0  0  0  0  0  0  # atno 17342 bound_to 10162
  140.5217  144.0868  150.6025 LP  0  0  0  0  0  0  0  0  0  0  0  0  # atno 17343 bound_to 10162
  156.2620  130.6968  151.1739 LP  0  0  0  0  0  0  0  0  0  0  0  0  # atno 17370 bound_to 10713
  157.7323  131.0601  150.5634 LP  0  0  0  0  0  0  0  0  0  0  0  0  # atno 17371 bound_to 10713
  140.4475  134.1617  155.7178 LP  0  0  0  0  0  0  0  0  0  0  0  0  # atno 17394 bound_to 11000
  141.1741  133.8549  157.1477 LP  0  0  0  0  0  0  0  0  0  0  0  0  # atno 17395 bound_to 11000

$$$$
