AV-unprocessed.smi:1464|AV-procd|sdf|5948|dock9
  -GOLD-   22720 6 33D 1   1.00000     0.00000
 Structure written by MMmdl.
 41 42  0  0  0  0  0  0  0  0  1 V2000
  151.7572  145.9146  160.2255 C   0  0  0  0  0  0  0  0  0  0  0  0
  152.4496  144.5436  160.1097 C   0  0  1  0  0  0  0  0  0  0  0  0
  152.4648  143.8572  161.4900 C   0  0  0  0  0  0  0  0  0  0  0  0
  153.1741  142.4997  161.4446 C   0  0  0  0  0  0  0  0  0  0  0  0
  152.5129  141.5805  160.4139 C   0  0  0  0  0  0  0  0  0  0  0  0
  152.4892  142.2273  159.0153 C   0  0  1  0  0  0  0  0  0  0  0  0
  151.8031  141.3311  158.0858 N   0  0  0  0  0  0  0  0  0  0  0  0
  152.1962  140.0888  157.7656 C   0  0  0  0  0  0  0  0  0  0  0  0
  153.2114  139.5620  158.2231 O   0  0  0  0  0  0  0  0  0  0  0  0
  151.3061  139.3442  156.7599 C   0  0  0  0  0  0  0  0  0  0  0  0
  150.1114  140.1020  156.3600 N   0  0  0  0  0  0  0  0  0  0  0  0
  149.3657  140.5873  157.4237 N   0  0  0  0  0  0  0  0  0  0  0  0
  148.2979  141.2764  157.2013 C   0  0  0  0  0  0  0  0  0  0  0  0
  147.5906  141.7387  158.2837 O   0  0  0  0  0  0  0  0  0  0  0  0
  147.8546  141.5561  155.8532 C   0  0  0  0  0  0  0  0  0  0  0  0
  148.5847  141.0748  154.8233 C   0  0  0  0  0  0  0  0  0  0  0  0
  149.8001  140.2877  155.0400 C   0  0  0  0  0  0  0  0  0  0  0  0
  150.4816  139.8329  154.1213 O   0  0  0  0  0  0  0  0  0  0  0  0
  151.8076  143.6230  159.0325 C   0  0  2  0  0  0  0  0  0  0  0  0
  151.8354  144.2697  157.6299 C   0  0  0  0  0  0  0  0  0  0  0  0
  147.2644  140.9659  158.7186 H   0  0  0  0  0  0  0  0  0  0  0  0
  150.6900  145.8051  160.4209 H   0  0  0  0  0  0  0  0  0  0  0  0
  151.8753  146.5085  159.3197 H   0  0  0  0  0  0  0  0  0  0  0  0
  152.1834  146.5003  161.0405 H   0  0  0  0  0  0  0  0  0  0  0  0
  153.4865  144.7252  159.8225 H   0  0  0  0  0  0  0  0  0  0  0  0
  152.9618  144.4970  162.2201 H   0  0  0  0  0  0  0  0  0  0  0  0
  151.4425  143.7217  161.8460 H   0  0  0  0  0  0  0  0  0  0  0  0
  154.2269  142.6392  161.1952 H   0  0  0  0  0  0  0  0  0  0  0  0
  153.1473  142.0330  162.4298 H   0  0  0  0  0  0  0  0  0  0  0  0
  153.0476  140.6303  160.3807 H   0  0  0  0  0  0  0  0  0  0  0  0
  151.4955  141.3507  160.7339 H   0  0  0  0  0  0  0  0  0  0  0  0
  153.5200  142.3654  158.6825 H   0  0  0  0  0  0  0  0  0  0  0  0
  150.9596  141.6842  157.6574 H   0  0  0  0  0  0  0  0  0  0  0  0
  151.8924  139.0851  155.8761 H   0  0  0  0  0  0  0  0  0  0  0  0
  151.0169  138.3918  157.2082 H   0  0  0  0  0  0  0  0  0  0  0  0
  146.9595  142.1365  155.6844 H   0  0  0  0  0  0  0  0  0  0  0  0
  148.2654  141.2759  153.8114 H   0  0  0  0  0  0  0  0  0  0  0  0
  150.7606  143.4771  159.3043 H   0  0  0  0  0  0  0  0  0  0  0  0
  152.8565  144.4918  157.3185 H   0  0  0  0  0  0  0  0  0  0  0  0
  151.2667  145.1982  157.5997 H   0  0  0  0  0  0  0  0  0  0  0  0
  151.3950  143.6208  156.8732 H   0  0  0  0  0  0  0  0  0  0  0  0
  1  2  1  0  0  0  0
  1 22  1  0  0  0  0
  1 23  1  0  0  0  0
  1 24  1  0  0  0  0
  2 19  1  0  0  0  0
  2  3  1  0  0  0  0
  2 25  1  0  0  0  0
  3  4  1  0  0  0  0
  3 26  1  0  0  0  0
  3 27  1  0  0  0  0
  4  5  1  0  0  0  0
  4 28  1  0  0  0  0
  4 29  1  0  0  0  0
  5  6  1  0  0  0  0
  5 30  1  0  0  0  0
  5 31  1  0  0  0  0
  6  7  1  0  0  0  0
  6 19  1  0  0  0  0
  6 32  1  0  0  0  0
  7  8  1  0  0  0  0
  7 33  1  0  0  0  0
  8  9  2  0  0  0  0
  8 10  1  0  0  0  0
 10 34  1  0  0  0  0
 10 35  1  0  0  0  0
 10 11  1  0  0  0  0
 11 12  1  0  0  0  0
 11 17  1  0  0  0  0
 12 13  2  0  0  0  0
 13 14  1  0  0  0  0
 13 15  1  0  0  0  0
 14 21  1  0  0  0  0
 15 36  1  0  0  0  0
 15 16  2  0  0  0  0
 16 37  1  0  0  0  0
 16 17  1  0  0  0  0
 17 18  2  0  0  0  0
 19 20  1  0  0  0  0
 19 38  1  0  0  0  0
 20 39  1  0  0  0  0
 20 40  1  0  0  0  0
 20 41  1  0  0  0  0
M  END
> <s_m_source_file>
AV-unprocessed.smi

> <i_m_source_file_index>
1464

> <i_lp_mmshare_version>
43012

> <i_f3d_flags>
0

> <s_epik_input>
W0NIM11bQ0BASF0xW0NIMl1bQ0gyXVtDSDJdW0NASF0oW0NASF0xW0NIM10pW05IXUMoPU8pW0NIMl1uMltuSF1jKD1PKVtjSF1bY0hdYzI9Tw==

> <s_epik_cmdline>
J2VwaWtfcHl0aG9uJywgJy1waCcsICc3LjAnLCAnLXRuJywgJzgnLCAnLW1hJywgJzIwMCcsICctbWV0YWxfYmluZGluZycsICctaW1hZScsICc8aW5maWxlLm1hZT4nLCAnLW9tYWUnLCAnPG91dGZpbGUubWFlPic=

> <r_lp_tautomer_probability>
0.9996

> <r_epik_Ionization_Penalty>
2.10335

> <r_epik_Ionization_Penalty_Charging>
3.98079e-08

> <r_epik_Ionization_Penalty_Neutral>
2.10335

> <r_epik_State_Penalty>
1.67957

> <r_epik_Charging_Adjusted_Penalty>
1.67957

> <i_epik_Tot_Q>
0

> <i_epik_Tot_abs_Q>
0

> <r_epik_Metal_State_Penalty>
1.67957

> <b_epik_Metal_Only>
0

> <s_lp_Force_Field>
OPLS_2005

> <r_lp_Energy>
24.139

> <b_lp_Chiralities_Consistent>
1

> <s_lp_Variant>
AV-unprocessed.smi:1464-14

> <Gold.Version>
5.8.1

> <Gold.Id.Protein>
6NUR|6NUR_protein|mol2

> <Gold.PLP.Fitness>
47.2484

> <Gold.PLP.PLP>
-41.4275

> <Gold.PLP.part.hbond>
-2.5918

> <Gold.PLP.part.metal>
0.0000

> <Gold.PLP.part.buried>
-5.0626

> <Gold.PLP.part.nonpolar>
-34.8284

> <Gold.PLP.part.repulsive>
0.6768

> <Gold.PLP.ligand.clash>
0.0000

> <Gold.PLP.ligand.torsion>
0.0932

> <Gold.PLP.Chemscore.Hbond>
2.0000

> <Gold.PLP.Chemscore.CHOScore>
0.0000

> <Gold.PLP.Chemscore.Metal>
0.0000

> <Gold.Chemscore.Hbonds>
donor molecule, donor type, donor heavy atom, donor atom, acceptor molecule, acceptor atom, score
      P1  H  7989  7998       L1    18  1.00
      P1  H  7997  8009       L1     9  1.00

> <Gold.PLP.Chemscore.Internal.Correction>
0.0073

> <Gold.Rescore>
     Score         DG    S(hbond)    S(metal)    S(lipo)     H(rot)  DE(clash)    DE(int)     intcor
     16.60     -18.59       1.89        0.00     106.82       2.22       0.24       1.76       ----

> <Gold.Chemscore.Fitness>
16.5995

> <Gold.Chemscore.DG>
-18.5933

> <Gold.Chemscore.ZeroCoef>
-5.4800

> <Gold.Chemscore.Hbond>
1.8878

> <Gold.Chemscore.Metal>
0.0000

> <Gold.Chemscore.Lipo>
106.8162

> <Gold.Chemscore.Internal_Hbond>
0.0000

> <Gold.Chemscore.DEClash>
0.2371

> <Gold.Chemscore.DEInternal>
1.7567

> <Gold.Chemscore.Rot>
2.2224

> <Gold.Chemscore.Internal.Correction>
   9.000000E+99

> <Gold.Chemscore.Hbonds>
donor molecule, donor type, donor heavy atom, donor atom, acceptor molecule, acceptor atom, score
      P1  H  7989  7998       L1    18  0.92
      P1  H  7997  8009       L1     9  0.30

> <Gold.Chemscore.Hbond.Weighted>
-6.3051

> <Gold.Chemscore.Metal.Weighted>
-0.0000

> <Gold.Chemscore.Lipo.Weighted>
-12.4975

> <Gold.Chemscore.Internal_Hbond.Weighted>
0.0000

> <Gold.Chemscore.DEClash.Weighted>
0.2371

> <Gold.Chemscore.DEInternal.Weighted>
1.7567

> <Gold.Chemscore.Rot.Weighted>
5.6893

> <Gold.Chemscore.Internal.Correction.Weighted>
   9.000000E+99

> <Gold.Protein.RotatedTorsions>
[ 6907 6896 6895 6894 ] final  116.69 input  -60.11 | X-H torsion
[ 7974 7965 7964 7962 ] final   82.75 input  175.53 | X-H torsion
[ 8008 7997 7996 7995 ] final  163.49 input   59.86 | X-H torsion
[ 10167 10162 10161 10158 ] final   55.89 input  -65.29 | X-H torsion
[ 10718 10713 10712 10709 ] final  121.86 input   66.30 | X-H torsion
[ 10763 10752 10751 10750 ] final -152.80 input  -60.55 | X-H torsion
[ 11005 11000 10999 10996 ] final -157.65 input  -57.11 | X-H torsion

> <Gold.Protein.ActiveResidues>
 VAL166  LYS551  ARG553  GLY616  TRP617  ASP618  TYR619  PRO620  LYS621  CYS622 
 ASP623  PHE694  ASN695  SER759  ASP760  ASP761  ALA762  ILE779  LEU786  VAL792 
 PHE793  MET794  SER795  GLU796  ALA797  LYS798  CYS799  TRP800  GLU811  SER814 

> <Gold.Protein.RotatedAtoms>
  152.4661  133.7926  159.6909 H   0  0  0  0  0  0  0  0  0  0  0  0  # atno 6907 bound_to 6896
  150.8626  133.7611  159.2993 H   0  0  0  0  0  0  0  0  0  0  0  0  # atno 6908 bound_to 6896
  151.5171  135.1069  159.9921 H   0  0  0  0  0  0  0  0  0  0  0  0  # atno 6909 bound_to 6896
  145.6209  139.2386  143.2139 H   0  0  0  0  0  0  0  0  0  0  0  0  # atno 7974 bound_to 7965
  156.1953  140.1722  156.8011 H   0  0  0  0  0  0  0  0  0  0  0  0  # atno 8008 bound_to 7997
  154.5522  140.0715  156.8717 H   0  0  0  0  0  0  0  0  0  0  0  0  # atno 8009 bound_to 7997
  155.3007  140.3361  155.4250 H   0  0  0  0  0  0  0  0  0  0  0  0  # atno 8010 bound_to 7997
  140.2146  144.3853  150.6475 H   0  0  0  0  0  0  0  0  0  0  0  0  # atno 10167 bound_to 10162
  157.5786  131.1077  150.8231 H   0  0  0  0  0  0  0  0  0  0  0  0  # atno 10718 bound_to 10713
  154.7970  135.3227  154.7642 H   0  0  0  0  0  0  0  0  0  0  0  0  # atno 10763 bound_to 10752
  153.8318  135.6878  153.4818 H   0  0  0  0  0  0  0  0  0  0  0  0  # atno 10764 bound_to 10752
  153.1667  135.4639  154.9789 H   0  0  0  0  0  0  0  0  0  0  0  0  # atno 10765 bound_to 10752
  140.6622  134.4337  157.5234 H   0  0  0  0  0  0  0  0  0  0  0  0  # atno 11005 bound_to 11000
  146.1431  140.7029  142.9357 LP  0  0  0  0  0  0  0  0  0  0  0  0  # atno 17320 bound_to 7965
  144.7231  140.4439  143.6993 LP  0  0  0  0  0  0  0  0  0  0  0  0  # atno 17321 bound_to 7965
  140.6299  143.2186  151.6517 LP  0  0  0  0  0  0  0  0  0  0  0  0  # atno 17342 bound_to 10162
  139.5167  144.3338  152.0802 LP  0  0  0  0  0  0  0  0  0  0  0  0  # atno 17343 bound_to 10162
  156.8684  130.5137  149.5298 LP  0  0  0  0  0  0  0  0  0  0  0  0  # atno 17370 bound_to 10713
  156.0831  130.5836  150.9599 LP  0  0  0  0  0  0  0  0  0  0  0  0  # atno 17371 bound_to 10713
  139.9009  134.8558  156.1901 LP  0  0  0  0  0  0  0  0  0  0  0  0  # atno 17394 bound_to 11000
  141.0456  133.6915  156.1677 LP  0  0  0  0  0  0  0  0  0  0  0  0  # atno 17395 bound_to 11000

$$$$
