AV-unprocessed.smi:3145|AV-procd|sdf|11979|dock2
  -GOLD-   2272017383D 1   1.00000     0.00000
 Structure written by MMmdl.
 35 35  0  0  0  0  0  0  0  0  2 V2000
  145.7760  137.5888  152.2294 C   0  0  0  0  0  0  0  0  0  0  0  0
  145.9880  136.1530  151.7200 C   0  0  2  0  0  0  0  0  0  0  0  0
  144.6597  135.4313  151.3935 C   0  0  0  0  0  0  0  0  0  0  0  0
  144.8604  134.0941  150.8643 N   0  0  0  0  0  0  0  0  0  0  0  0
  143.9082  133.1511  150.5388 C   0  0  0  0  0  0  0  0  0  0  0  0
  144.5695  132.0477  150.0814 C   0  0  0  0  0  0  0  0  0  0  0  0
  145.9411  132.4179  150.1614 C   0  0  0  0  0  0  0  0  0  0  0  0
  146.1118  133.6440  150.6298 N   0  0  0  0  0  0  0  0  0  0  0  0
  146.7822  135.3984  152.7214 N   0  3  0  0  0  0  0  0  0  0  0  0
  146.3437  135.5018  154.1336 C   0  0  0  0  0  0  0  0  0  0  0  0
  147.4802  135.8826  155.0854 C   0  0  0  0  0  0  0  0  0  0  0  0
  147.3562  135.7116  156.2983 O   0  0  0  0  0  0  0  0  0  0  0  0
  148.5811  136.3984  154.5203 N   0  0  0  0  0  0  0  0  0  0  0  0
  149.7521  136.8769  155.2467 C   0  0  0  0  0  0  0  0  0  0  0  0
  150.7730  137.5519  154.3158 C   0  0  0  0  0  0  0  0  0  0  0  0
  150.6813  139.0204  154.3215 C   0  0  0  0  0  0  0  0  0  0  0  0
  150.6119  140.1752  154.3230 N   0  0  0  0  0  0  0  0  0  0  0  0
  145.2943  138.2157  151.4786 H   0  0  0  0  0  0  0  0  0  0  0  0
  146.7271  138.0614  152.4764 H   0  0  0  0  0  0  0  0  0  0  0  0
  145.1540  137.6040  153.1251 H   0  0  0  0  0  0  0  0  0  0  0  0
  146.5716  136.2291  150.8020 H   0  0  0  0  0  0  0  0  0  0  0  0
  144.0390  135.3356  152.2842 H   0  0  0  0  0  0  0  0  0  0  0  0
  144.0813  136.0127  150.6733 H   0  0  0  0  0  0  0  0  0  0  0  0
  142.8519  133.3403  150.6599 H   0  0  0  0  0  0  0  0  0  0  0  0
  144.1396  131.1175  149.7400 H   0  0  0  0  0  0  0  0  0  0  0  0
  146.8113  131.8363  149.8945 H   0  0  0  0  0  0  0  0  0  0  0  0
  146.7464  134.4204  152.4706 H   0  0  0  0  0  0  0  0  0  0  0  0
  145.5886  136.2862  154.1904 H   0  0  0  0  0  0  0  0  0  0  0  0
  145.8547  134.5830  154.4575 H   0  0  0  0  0  0  0  0  0  0  0  0
  148.6027  136.4910  153.5146 H   0  0  0  0  0  0  0  0  0  0  0  0
  149.4427  137.5679  156.0322 H   0  0  0  0  0  0  0  0  0  0  0  0
  150.2154  136.0257  155.7461 H   0  0  0  0  0  0  0  0  0  0  0  0
  151.7919  137.2797  154.5918 H   0  0  0  0  0  0  0  0  0  0  0  0
  150.6225  137.2143  153.2902 H   0  0  0  0  0  0  0  0  0  0  0  0
  147.7416  135.7074  152.6579 H   0  0  0  0  0  0  0  0  0  0  0  0
  1  2  1  0  0  0  0
  1 18  1  0  0  0  0
  1 19  1  0  0  0  0
  1 20  1  0  0  0  0
  2  3  1  0  0  0  0
  2  9  1  0  0  0  0
  2 21  1  0  0  0  0
  3  4  1  0  0  0  0
  3 22  1  0  0  0  0
  3 23  1  0  0  0  0
  4  8  1  0  0  0  0
  4  5  1  0  0  0  0
  5  6  2  0  0  0  0
  5 24  1  0  0  0  0
  6  7  1  0  0  0  0
  6 25  1  0  0  0  0
  7  8  2  0  0  0  0
  7 26  1  0  0  0  0
  9 10  1  0  0  0  0
  9 27  1  0  0  0  0
  9 35  1  0  0  0  0
 10 11  1  0  0  0  0
 10 28  1  0  0  0  0
 10 29  1  0  0  0  0
 11 12  2  0  0  0  0
 11 13  1  0  0  0  0
 13 14  1  0  0  0  0
 13 30  1  0  0  0  0
 14 15  1  0  0  0  0
 14 31  1  0  0  0  0
 14 32  1  0  0  0  0
 15 16  1  0  0  0  0
 15 33  1  0  0  0  0
 15 34  1  0  0  0  0
 16 17  3  0  0  0  0
M  CHG  1   9   1
M  END
> <s_m_source_file>
AV-unprocessed.smi

> <i_m_source_file_index>
3145

> <i_lp_mmshare_version>
43012

> <i_f3d_flags>
0

> <s_epik_input>
bjFbY0hdW2NIXVtjSF1uMVtDSDJdW0NAQEhdKFtDSDNdKVtOSF1bQ0gyXUMoPU8pW05IXVtDSDJdW0NIMl1DI04=

> <s_epik_cmdline>
J2VwaWtfcHl0aG9uJywgJy1waCcsICc3LjAnLCAnLXRuJywgJzgnLCAnLW1hJywgJzIwMCcsICctbWV0YWxfYmluZGluZycsICctaW1hZScsICc8aW5maWxlLm1hZT4nLCAnLW9tYWUnLCAnPG91dGZpbGUubWFlPic=

> <r_lp_tautomer_probability>
1

> <r_epik_Ionization_Penalty>
0.190162

> <r_epik_Ionization_Penalty_Charging>
0.190142

> <r_epik_Ionization_Penalty_Neutral>
2.0165e-05

> <r_epik_State_Penalty>
0.179787

> <r_epik_Charging_Adjusted_Penalty>
0.369929

> <i_epik_Tot_Q>
1

> <i_epik_Tot_abs_Q>
1

> <r_epik_Metal_State_Penalty>
0.191786

> <b_epik_Metal_Only>
0

> <s_lp_Force_Field>
OPLS_2005

> <r_lp_Energy>
3.88931

> <b_lp_Chiralities_Consistent>
1

> <s_lp_Variant>
AV-unprocessed.smi:3145-1

> <Gold.Version>
5.8.1

> <Gold.Id.Protein>
6NUR|6NUR_protein|mol2

> <Gold.PLP.Fitness>
44.6416

> <Gold.PLP.PLP>
-28.4143

> <Gold.PLP.part.hbond>
-2.7648

> <Gold.PLP.part.metal>
0.0000

> <Gold.PLP.part.buried>
-3.1336

> <Gold.PLP.part.nonpolar>
-23.6668

> <Gold.PLP.part.repulsive>
0.5220

> <Gold.PLP.ligand.clash>
0.0000

> <Gold.PLP.ligand.torsion>
0.9910

> <Gold.PLP.Chemscore.Hbond>
4.0000

> <Gold.PLP.Chemscore.CHOScore>
2.0000

> <Gold.PLP.Chemscore.Metal>
0.0000

> <Gold.Chemscore.Hbonds>
donor molecule, donor type, donor heavy atom, donor atom, acceptor molecule, acceptor atom, score
      L1  H     9    35       P1  7948  1.98
      L1  H    13    30       P1  7948  1.00
      P1  H  7989  7998       L1    17  0.88
      L1  C     5    24       P1 10186  1.00
      L1  C     7    26       P1 10747  1.00

> <Gold.PLP.Chemscore.Internal.Correction>
0.2094

> <Gold.Rescore>
     Score         DG    S(hbond)    S(metal)    S(lipo)     H(rot)  DE(clash)    DE(int)     intcor
     14.07     -15.23       2.98        0.00      61.53       2.89       0.16       1.00       ----

> <Gold.Chemscore.Fitness>
14.0709

> <Gold.Chemscore.DG>
-15.2268

> <Gold.Chemscore.ZeroCoef>
-5.4800

> <Gold.Chemscore.Hbond>
2.9773

> <Gold.Chemscore.Metal>
0.0000

> <Gold.Chemscore.Lipo>
61.5338

> <Gold.Chemscore.Internal_Hbond>
0.0000

> <Gold.Chemscore.DEClash>
0.1597

> <Gold.Chemscore.DEInternal>
0.9962

> <Gold.Chemscore.Rot>
2.8894

> <Gold.Chemscore.Internal.Correction>
   9.000000E+99

> <Gold.Chemscore.Hbonds>
donor molecule, donor type, donor heavy atom, donor atom, acceptor molecule, acceptor atom, score
      L1  H     9    35       P1  7948  0.88
      L1  H    13    30       P1  7948  1.00
      P1  H  7989  7998       L1    17  0.77

> <Gold.Chemscore.Hbond.Weighted>
-9.9441

> <Gold.Chemscore.Metal.Weighted>
-0.0000

> <Gold.Chemscore.Lipo.Weighted>
-7.1994

> <Gold.Chemscore.Internal_Hbond.Weighted>
0.0000

> <Gold.Chemscore.DEClash.Weighted>
0.1597

> <Gold.Chemscore.DEInternal.Weighted>
0.9962

> <Gold.Chemscore.Rot.Weighted>
7.3968

> <Gold.Chemscore.Internal.Correction.Weighted>
   9.000000E+99

> <Gold.Protein.RotatedTorsions>
[ 6907 6896 6895 6894 ] final   72.26 input  -60.11 | X-H torsion
[ 7974 7965 7964 7962 ] final  106.25 input  175.53 | X-H torsion
[ 8008 7997 7996 7995 ] final -100.01 input   59.86 | X-H torsion
[ 10167 10162 10161 10158 ] final  107.14 input  -65.29 | X-H torsion
[ 10718 10713 10712 10709 ] final   69.72 input   66.30 | X-H torsion
[ 10763 10752 10751 10750 ] final   -4.13 input  -60.55 | X-H torsion
[ 11005 11000 10999 10996 ] final  138.35 input  -57.11 | X-H torsion

> <Gold.Protein.ActiveResidues>
 VAL166  LYS551  ARG553  GLY616  TRP617  ASP618  TYR619  PRO620  LYS621  CYS622 
 ASP623  PHE694  ASN695  SER759  ASP760  ASP761  ALA762  ILE779  LEU786  VAL792 
 PHE793  MET794  SER795  GLU796  ALA797  LYS798  CYS799  TRP800  GLU811  SER814 

> <Gold.Protein.RotatedAtoms>
  152.4858  134.4597  159.9600 H   0  0  0  0  0  0  0  0  0  0  0  0  # atno 6907 bound_to 6896
  151.4594  133.3591  159.2814 H   0  0  0  0  0  0  0  0  0  0  0  0  # atno 6908 bound_to 6896
  150.8967  134.8401  159.7392 H   0  0  0  0  0  0  0  0  0  0  0  0  # atno 6909 bound_to 6896
  145.3091  139.2546  143.3773 H   0  0  0  0  0  0  0  0  0  0  0  0  # atno 7974 bound_to 7965
  154.8227  140.0444  157.1422 H   0  0  0  0  0  0  0  0  0  0  0  0  # atno 8008 bound_to 7997
  154.9241  140.3031  155.5181 H   0  0  0  0  0  0  0  0  0  0  0  0  # atno 8009 bound_to 7997
  156.2981  140.2335  156.4295 H   0  0  0  0  0  0  0  0  0  0  0  0  # atno 8010 bound_to 7997
  139.6951  144.7102  151.1281 H   0  0  0  0  0  0  0  0  0  0  0  0  # atno 10167 bound_to 10162
  157.6361  130.9440  150.0552 H   0  0  0  0  0  0  0  0  0  0  0  0  # atno 10718 bound_to 10713
  153.3807  135.6998  153.6568 H   0  0  0  0  0  0  0  0  0  0  0  0  # atno 10763 bound_to 10752
  153.5180  135.3618  155.2619 H   0  0  0  0  0  0  0  0  0  0  0  0  # atno 10764 bound_to 10752
  154.8692  135.4151  154.3104 H   0  0  0  0  0  0  0  0  0  0  0  0  # atno 10765 bound_to 10752
  140.0178  134.9410  157.0411 H   0  0  0  0  0  0  0  0  0  0  0  0  # atno 11005 bound_to 11000
  146.3124  140.3623  142.8666 LP  0  0  0  0  0  0  0  0  0  0  0  0  # atno 17320 bound_to 7965
  144.9030  140.7666  143.5855 LP  0  0  0  0  0  0  0  0  0  0  0  0  # atno 17321 bound_to 7965
  140.7694  143.5503  150.9212 LP  0  0  0  0  0  0  0  0  0  0  0  0  # atno 17342 bound_to 10162
  139.9182  143.6638  152.3102 LP  0  0  0  0  0  0  0  0  0  0  0  0  # atno 17343 bound_to 10162
  156.1601  130.3644  149.9311 LP  0  0  0  0  0  0  0  0  0  0  0  0  # atno 17370 bound_to 10713
  156.7311  130.9043  151.3626 LP  0  0  0  0  0  0  0  0  0  0  0  0  # atno 17371 bound_to 10713
  140.4441  134.1651  155.7176 LP  0  0  0  0  0  0  0  0  0  0  0  0  # atno 17394 bound_to 11000
  141.1754  133.8525  157.1438 LP  0  0  0  0  0  0  0  0  0  0  0  0  # atno 17395 bound_to 11000

$$$$
