AV-unprocessed.smi:419|AV-procd|sdf|2531|dock2
  -GOLD-   2262022493D 1   1.00000     0.00000
 Structure written by MMmdl.
 44 46  0  0  0  0  0  0  0  0  1 V2000
  155.8134  140.6484  168.9685 C   0  0  0  0  0  0  0  0  0  0  0  0
  156.0252  139.6334  167.9980 O   0  0  0  0  0  0  0  0  0  0  0  0
  155.8937  139.9705  166.6679 C   0  0  0  0  0  0  0  0  0  0  0  0
  155.6734  141.2881  166.1968 C   0  0  0  0  0  0  0  0  0  0  0  0
  155.5489  141.5397  164.8167 C   0  0  0  0  0  0  0  0  0  0  0  0
  155.6410  140.4939  163.8774 C   0  0  0  0  0  0  0  0  0  0  0  0
  155.5058  140.8309  162.5475 O   0  0  0  0  0  0  0  0  0  0  0  0
  155.6031  139.7959  161.5777 C   0  0  0  0  0  0  0  0  0  0  0  0
  155.1502  140.3424  160.2133 C   0  0  1  0  0  0  0  0  0  0  0  0
  156.0475  139.8428  159.2410 O   0  0  0  0  0  0  0  0  0  0  0  0
  153.7354  139.8515  159.8428 C   0  0  0  0  0  0  0  0  0  0  0  0
  152.9245  140.9199  159.2602 N   0  0  0  0  0  0  0  0  0  0  0  0
  152.3294  140.9075  158.0438 C   0  0  0  0  0  0  0  0  0  0  0  0
  152.3722  139.9853  157.2295 O   0  0  0  0  0  0  0  0  0  0  0  0
  151.6778  142.0829  157.8834 N   0  0  0  0  0  0  0  0  0  0  0  0
  150.8989  142.5027  156.7250 C   0  0  0  0  0  0  0  0  0  0  0  0
  151.8488  142.8637  159.0337 C   0  0  0  0  0  0  0  0  0  0  0  0
  151.3667  144.1427  159.3603 C   0  0  0  0  0  0  0  0  0  0  0  0
  151.7202  144.6619  160.6279 C   0  0  0  0  0  0  0  0  0  0  0  0
  152.5274  143.9108  161.5215 C   0  0  0  0  0  0  0  0  0  0  0  0
  152.9983  142.6249  161.1668 C   0  0  0  0  0  0  0  0  0  0  0  0
  152.6337  142.1333  159.9010 C   0  0  0  0  0  0  0  0  0  0  0  0
  155.8626  139.1766  164.3486 C   0  0  0  0  0  0  0  0  0  0  0  0
  155.9860  138.9247  165.7285 C   0  0  0  0  0  0  0  0  0  0  0  0
  155.9482  140.2274  169.9648 H   0  0  0  0  0  0  0  0  0  0  0  0
  154.7995  141.0470  168.9139 H   0  0  0  0  0  0  0  0  0  0  0  0
  156.5296  141.4633  168.8551 H   0  0  0  0  0  0  0  0  0  0  0  0
  155.5955  142.1248  166.8742 H   0  0  0  0  0  0  0  0  0  0  0  0
  155.3802  142.5503  164.4746 H   0  0  0  0  0  0  0  0  0  0  0  0
  156.6159  139.3923  161.5191 H   0  0  0  0  0  0  0  0  0  0  0  0
  154.9377  138.9853  161.8793 H   0  0  0  0  0  0  0  0  0  0  0  0
  155.1815  141.4329  160.2283 H   0  0  0  0  0  0  0  0  0  0  0  0
  155.8914  138.9171  159.1355 H   0  0  0  0  0  0  0  0  0  0  0  0
  153.7768  138.9861  159.1804 H   0  0  0  0  0  0  0  0  0  0  0  0
  153.2203  139.5047  160.7401 H   0  0  0  0  0  0  0  0  0  0  0  0
  151.1654  143.5196  156.4360 H   0  0  0  0  0  0  0  0  0  0  0  0
  149.8348  142.4813  156.9610 H   0  0  0  0  0  0  0  0  0  0  0  0
  151.0697  141.8571  155.8624 H   0  0  0  0  0  0  0  0  0  0  0  0
  150.7513  144.7072  158.6753 H   0  0  0  0  0  0  0  0  0  0  0  0
  151.3701  145.6412  160.9193 H   0  0  0  0  0  0  0  0  0  0  0  0
  152.7842  144.3252  162.4854 H   0  0  0  0  0  0  0  0  0  0  0  0
  153.6090  142.0482  161.8452 H   0  0  0  0  0  0  0  0  0  0  0  0
  155.9404  138.3388  163.6728 H   0  0  0  0  0  0  0  0  0  0  0  0
  156.1527  137.9136  166.0699 H   0  0  0  0  0  0  0  0  0  0  0  0
  1  2  1  0  0  0  0
  1 25  1  0  0  0  0
  1 26  1  0  0  0  0
  1 27  1  0  0  0  0
  2  3  1  0  0  0  0
  3 24  1  0  0  0  0
  3  4  2  0  0  0  0
  4  5  1  0  0  0  0
  4 28  1  0  0  0  0
  5  6  2  0  0  0  0
  5 29  1  0  0  0  0
  6  7  1  0  0  0  0
  6 23  1  0  0  0  0
  7  8  1  0  0  0  0
  8  9  1  0  0  0  0
  8 30  1  0  0  0  0
  8 31  1  0  0  0  0
  9 10  1  0  0  0  0
  9 11  1  0  0  0  0
  9 32  1  0  0  0  0
 10 33  1  0  0  0  0
 11 12  1  0  0  0  0
 11 34  1  0  0  0  0
 11 35  1  0  0  0  0
 12 22  1  0  0  0  0
 12 13  1  0  0  0  0
 13 14  2  0  0  0  0
 13 15  1  0  0  0  0
 15 16  1  0  0  0  0
 15 17  1  0  0  0  0
 16 36  1  0  0  0  0
 16 37  1  0  0  0  0
 16 38  1  0  0  0  0
 17 22  2  0  0  0  0
 17 18  1  0  0  0  0
 18 19  2  0  0  0  0
 18 39  1  0  0  0  0
 19 20  1  0  0  0  0
 19 40  1  0  0  0  0
 20 21  2  0  0  0  0
 20 41  1  0  0  0  0
 21 22  1  0  0  0  0
 21 42  1  0  0  0  0
 23 24  2  0  0  0  0
 23 43  1  0  0  0  0
 24 44  1  0  0  0  0
M  END
> <s_m_source_file>
AV-unprocessed.smi

> <i_m_source_file_index>
419

> <i_lp_mmshare_version>
43012

> <i_f3d_flags>
0

> <s_epik_input>
W0NIM11PYzFbY0hdW2NIXWMoW2NIXVtjSF0xKU9bQ0gyXVtDQEhdKFtPSF0pW0NIMl1uKGMoPU8pbjJbQ0gzXSljKGMyMylbY0hdW2NIXVtjSF1bY0hdMw==

> <s_epik_cmdline>
J2VwaWtfcHl0aG9uJywgJy1waCcsICc3LjAnLCAnLXRuJywgJzgnLCAnLW1hJywgJzIwMCcsICctbWV0YWxfYmluZGluZycsICctaW1hZScsICc8aW5maWxlLm1hZT4nLCAnLW9tYWUnLCAnPG91dGZpbGUubWFlPic=

> <r_lp_tautomer_probability>
1

> <r_epik_Ionization_Penalty>
2.40131e-06

> <r_epik_Ionization_Penalty_Charging>
2.01037e-09

> <r_epik_Ionization_Penalty_Neutral>
2.3993e-06

> <r_epik_State_Penalty>
-0

> <r_epik_Charging_Adjusted_Penalty>
2.01037e-09

> <i_epik_Tot_Q>
0

> <i_epik_Tot_abs_Q>
0

> <r_epik_Metal_State_Penalty>
-0

> <b_epik_Metal_Only>
0

> <s_lp_Force_Field>
OPLS_2005

> <r_lp_Energy>
50.9462

> <b_lp_Chiralities_Consistent>
1

> <s_lp_Variant>
AV-unprocessed.smi:419-2

> <Gold.Version>
5.8.1

> <Gold.Id.Protein>
6NUR|6NUR_protein|mol2

> <Gold.PLP.Fitness>
55.7613

> <Gold.PLP.PLP>
-55.0520

> <Gold.PLP.part.hbond>
-3.0066

> <Gold.PLP.part.metal>
0.0000

> <Gold.PLP.part.buried>
-7.8174

> <Gold.PLP.part.nonpolar>
-43.6264

> <Gold.PLP.part.repulsive>
0.1028

> <Gold.PLP.ligand.clash>
0.0000

> <Gold.PLP.ligand.torsion>
1.2938

> <Gold.PLP.Chemscore.Hbond>
1.0000

> <Gold.PLP.Chemscore.CHOScore>
0.0000

> <Gold.PLP.Chemscore.Metal>
0.0000

> <Gold.Chemscore.Hbonds>
donor molecule, donor type, donor heavy atom, donor atom, acceptor molecule, acceptor atom, score
      P1  H  7997  8009       L1    10  0.12
      P1  H  7997  8010       L1    14  0.80

> <Gold.PLP.Chemscore.Internal.Correction>
0.2970

> <Gold.Rescore>
     Score         DG    S(hbond)    S(metal)    S(lipo)     H(rot)  DE(clash)    DE(int)     intcor
     14.16     -17.68       0.83        0.00     133.08       2.40       2.12       1.40       ----

> <Gold.Chemscore.Fitness>
14.1602

> <Gold.Chemscore.DG>
-17.6817

> <Gold.Chemscore.ZeroCoef>
-5.4800

> <Gold.Chemscore.Hbond>
0.8273

> <Gold.Chemscore.Metal>
0.0000

> <Gold.Chemscore.Lipo>
133.0783

> <Gold.Chemscore.Internal_Hbond>
0.0000

> <Gold.Chemscore.DEClash>
2.1250

> <Gold.Chemscore.DEInternal>
1.3965

> <Gold.Chemscore.Rot>
2.3952

> <Gold.Chemscore.Internal.Correction>
   9.000000E+99

> <Gold.Chemscore.Hbonds>
donor molecule, donor type, donor heavy atom, donor atom, acceptor molecule, acceptor atom, score
      P1  H  7997  8009       L1    10  0.01
      P1  H  7997  8010       L1    14  0.18

> <Gold.Chemscore.Hbond.Weighted>
-2.7632

> <Gold.Chemscore.Metal.Weighted>
-0.0000

> <Gold.Chemscore.Lipo.Weighted>
-15.5702

> <Gold.Chemscore.Internal_Hbond.Weighted>
0.0000

> <Gold.Chemscore.DEClash.Weighted>
2.1250

> <Gold.Chemscore.DEInternal.Weighted>
1.3965

> <Gold.Chemscore.Rot.Weighted>
6.1316

> <Gold.Chemscore.Internal.Correction.Weighted>
   9.000000E+99

> <Gold.Protein.RotatedTorsions>
[ 6907 6896 6895 6894 ] final  118.40 input  -60.11 | X-H torsion
[ 7974 7965 7964 7962 ] final  -65.65 input  175.53 | X-H torsion
[ 8008 7997 7996 7995 ] final   54.54 input   59.86 | X-H torsion
[ 10167 10162 10161 10158 ] final   25.42 input  -65.29 | X-H torsion
[ 10718 10713 10712 10709 ] final  -20.15 input   66.30 | X-H torsion
[ 10763 10752 10751 10750 ] final  -35.83 input  -60.55 | X-H torsion
[ 11005 11000 10999 10996 ] final   54.91 input  -57.11 | X-H torsion

> <Gold.Protein.ActiveResidues>
 VAL166  LYS551  ARG553  GLY616  TRP617  ASP618  TYR619  PRO620  LYS621  CYS622 
 ASP623  PHE694  ASN695  SER759  ASP760  ASP761  ALA762  ILE779  LEU786  VAL792 
 PHE793  MET794  SER795  GLU796  ALA797  LYS798  CYS799  TRP800  GLU811  SER814 

> <Gold.Protein.RotatedAtoms>
  152.4545  133.7696  159.6791 H   0  0  0  0  0  0  0  0  0  0  0  0  # atno 6907 bound_to 6896
  150.8467  133.7840  159.3046 H   0  0  0  0  0  0  0  0  0  0  0  0  # atno 6908 bound_to 6896
  151.5448  135.1071  159.9987 H   0  0  0  0  0  0  0  0  0  0  0  0  # atno 6909 bound_to 6896
  145.7516  140.8906  143.0477 H   0  0  0  0  0  0  0  0  0  0  0  0  # atno 7974 bound_to 7965
  155.4863  140.3470  155.4348 H   0  0  0  0  0  0  0  0  0  0  0  0  # atno 8008 bound_to 7997
  156.1006  140.1434  156.9501 H   0  0  0  0  0  0  0  0  0  0  0  0  # atno 8009 bound_to 7997
  154.4691  140.0907  156.7076 H   0  0  0  0  0  0  0  0  0  0  0  0  # atno 8010 bound_to 7997
  140.5107  144.0165  150.6371 H   0  0  0  0  0  0  0  0  0  0  0  0  # atno 10167 bound_to 10162
  156.5358  130.4666  149.6524 H   0  0  0  0  0  0  0  0  0  0  0  0  # atno 10718 bound_to 10713
  153.8697  135.6832  153.4775 H   0  0  0  0  0  0  0  0  0  0  0  0  # atno 10763 bound_to 10752
  153.1294  135.4704  154.9323 H   0  0  0  0  0  0  0  0  0  0  0  0  # atno 10764 bound_to 10752
  154.7720  135.3241  154.8121 H   0  0  0  0  0  0  0  0  0  0  0  0  # atno 10765 bound_to 10752
  140.0649  134.5551  155.9111 H   0  0  0  0  0  0  0  0  0  0  0  0  # atno 11005 bound_to 11000
  144.6848  139.9599  143.7480 LP  0  0  0  0  0  0  0  0  0  0  0  0  # atno 17320 bound_to 7965
  146.0351  139.3370  143.0731 LP  0  0  0  0  0  0  0  0  0  0  0  0  # atno 17321 bound_to 7965
  140.3486  143.2976  152.0511 LP  0  0  0  0  0  0  0  0  0  0  0  0  # atno 17342 bound_to 10162
  139.4895  144.6390  151.6916 LP  0  0  0  0  0  0  0  0  0  0  0  0  # atno 17343 bound_to 10162
  156.3017  130.7180  151.2054 LP  0  0  0  0  0  0  0  0  0  0  0  0  # atno 17370 bound_to 10713
  157.7414  131.0504  150.5100 LP  0  0  0  0  0  0  0  0  0  0  0  0  # atno 17371 bound_to 10713
  141.1988  133.6603  156.5813 LP  0  0  0  0  0  0  0  0  0  0  0  0  # atno 17394 bound_to 11000
  140.3714  134.7602  157.4601 LP  0  0  0  0  0  0  0  0  0  0  0  0  # atno 17395 bound_to 11000

$$$$
