AV-unprocessed.smi:2219|AV-procd|sdf|8977|dock2
  -GOLD-   2272012193D 1   1.00000     0.00000
 Structure written by MMmdl.
 37 38  0  0  0  0  0  0  0  0  1 V2000
  145.1024  137.6758  153.5547 O   0  0  0  0  0  0  0  0  0  0  0  0
  146.2339  137.4751  153.1125 C   0  0  0  0  0  0  0  0  0  0  0  0
  147.2734  138.2921  153.3373 N   0  0  0  0  0  0  0  0  0  0  0  0
  147.2409  139.5191  154.1322 C   0  0  0  0  0  0  0  0  0  0  0  0
  148.6453  140.1220  154.3860 C   0  0  0  0  0  0  0  0  0  0  0  0
  149.0343  140.7683  153.1868 O   0  0  0  0  0  0  0  0  0  0  0  0
  148.6715  141.1452  155.5505 C   0  0  0  0  0  0  0  0  0  0  0  0
  150.0902  141.6352  155.8924 C   0  0  0  0  0  0  0  0  0  0  0  0
  151.0387  140.4623  156.1738 C   0  0  0  0  0  0  0  0  0  0  0  0
  151.0699  139.4884  154.9884 C   0  0  0  0  0  0  0  0  0  0  0  0
  149.6575  138.9805  154.6474 C   0  0  0  0  0  0  0  0  0  0  0  0
  146.5955  136.4311  152.3461 N   0  0  0  0  0  0  0  0  0  0  0  0
  145.7891  135.3541  151.8904 C   0  0  0  0  0  0  0  0  0  0  0  0
  146.5033  134.2152  151.4535 C   0  0  0  0  0  0  0  0  0  0  0  0
  145.7960  133.0914  150.9831 C   0  0  0  0  0  0  0  0  0  0  0  0
  144.3909  133.1381  150.9613 C   0  0  0  0  0  0  0  0  0  0  0  0
  143.6681  132.0828  150.5170 F   0  0  0  0  0  0  0  0  0  0  0  0
  143.7561  134.3098  151.4125 C   0  0  0  0  0  0  0  0  0  0  0  0
  144.4329  135.3872  151.8644 N   0  0  0  0  0  0  0  0  0  0  0  0
  148.1625  138.0520  152.9240 H   0  0  0  0  0  0  0  0  0  0  0  0
  146.6054  140.2598  153.6440 H   0  0  0  0  0  0  0  0  0  0  0  0
  146.7510  139.2947  155.0806 H   0  0  0  0  0  0  0  0  0  0  0  0
  149.2948  140.1075  152.5635 H   0  0  0  0  0  0  0  0  0  0  0  0
  148.0470  142.0087  155.3194 H   0  0  0  0  0  0  0  0  0  0  0  0
  148.2363  140.6851  156.4387 H   0  0  0  0  0  0  0  0  0  0  0  0
  150.4827  142.2335  155.0693 H   0  0  0  0  0  0  0  0  0  0  0  0
  150.0527  142.2953  156.7593 H   0  0  0  0  0  0  0  0  0  0  0  0
  152.0431  140.8354  156.3766 H   0  0  0  0  0  0  0  0  0  0  0  0
  150.7155  139.9362  157.0730 H   0  0  0  0  0  0  0  0  0  0  0  0
  151.5086  139.9804  154.1195 H   0  0  0  0  0  0  0  0  0  0  0  0
  151.7194  138.6442  155.2214 H   0  0  0  0  0  0  0  0  0  0  0  0
  149.3020  138.3705  155.4790 H   0  0  0  0  0  0  0  0  0  0  0  0
  149.7065  138.3131  153.7860 H   0  0  0  0  0  0  0  0  0  0  0  0
  147.5622  136.4020  152.0579 H   0  0  0  0  0  0  0  0  0  0  0  0
  147.5833  134.1976  151.4772 H   0  0  0  0  0  0  0  0  0  0  0  0
  146.3227  132.2111  150.6456 H   0  0  0  0  0  0  0  0  0  0  0  0
  142.6789  134.3854  151.4108 H   0  0  0  0  0  0  0  0  0  0  0  0
  1  2  2  0  0  0  0
  2  3  1  0  0  0  0
  2 12  1  0  0  0  0
  3  4  1  0  0  0  0
  3 20  1  0  0  0  0
  4  5  1  0  0  0  0
  4 21  1  0  0  0  0
  4 22  1  0  0  0  0
  5 11  1  0  0  0  0
  5  6  1  0  0  0  0
  5  7  1  0  0  0  0
  6 23  1  0  0  0  0
  7  8  1  0  0  0  0
  7 24  1  0  0  0  0
  7 25  1  0  0  0  0
  8  9  1  0  0  0  0
  8 26  1  0  0  0  0
  8 27  1  0  0  0  0
  9 10  1  0  0  0  0
  9 28  1  0  0  0  0
  9 29  1  0  0  0  0
 10 11  1  0  0  0  0
 10 30  1  0  0  0  0
 10 31  1  0  0  0  0
 11 32  1  0  0  0  0
 11 33  1  0  0  0  0
 12 13  1  0  0  0  0
 12 34  1  0  0  0  0
 13 19  1  0  0  0  0
 13 14  2  0  0  0  0
 14 15  1  0  0  0  0
 14 35  1  0  0  0  0
 15 16  2  0  0  0  0
 15 36  1  0  0  0  0
 16 17  1  0  0  0  0
 16 18  1  0  0  0  0
 18 19  2  0  0  0  0
 18 37  1  0  0  0  0
M  END
> <s_m_source_file>
AV-unprocessed.smi

> <i_m_source_file_index>
2219

> <i_lp_mmshare_version>
43012

> <i_f3d_flags>
0

> <s_epik_input>
bjFbY0hdYyhGKVtjSF1bY0hdYzFbTkhdQyg9TylbTkhdW0NIMl1DMihbT0hdKVtDSDJdW0NIMl1bQ0gyXVtDSDJdW0NIMl0y

> <s_epik_cmdline>
J2VwaWtfcHl0aG9uJywgJy1waCcsICc3LjAnLCAnLXRuJywgJzgnLCAnLW1hJywgJzIwMCcsICctbWV0YWxfYmluZGluZycsICctaW1hZScsICc8aW5maWxlLm1hZT4nLCAnLW9tYWUnLCAnPG91dGZpbGUubWFlPic=

> <r_lp_tautomer_probability>
1

> <r_epik_Ionization_Penalty>
4.27965e-05

> <r_epik_Ionization_Penalty_Charging>
0

> <r_epik_Ionization_Penalty_Neutral>
4.27965e-05

> <r_epik_State_Penalty>
-0

> <r_epik_Charging_Adjusted_Penalty>
0

> <i_epik_Tot_Q>
0

> <i_epik_Tot_abs_Q>
0

> <r_epik_Metal_State_Penalty>
-0

> <b_epik_Metal_Only>
0

> <s_lp_Force_Field>
OPLS_2005

> <r_lp_Energy>
17.1775

> <b_lp_Chiralities_Consistent>
1

> <s_lp_Variant>
AV-unprocessed.smi:2219-1

> <Gold.Version>
5.8.1

> <Gold.Id.Protein>
6NUR|6NUR_protein|mol2

> <Gold.PLP.Fitness>
42.2792

> <Gold.PLP.PLP>
-33.0691

> <Gold.PLP.part.hbond>
-3.3282

> <Gold.PLP.part.metal>
0.0000

> <Gold.PLP.part.buried>
-4.4138

> <Gold.PLP.part.nonpolar>
-26.8098

> <Gold.PLP.part.repulsive>
0.3678

> <Gold.PLP.ligand.clash>
0.0000

> <Gold.PLP.ligand.torsion>
0.3536

> <Gold.PLP.Chemscore.Hbond>
2.6372

> <Gold.PLP.Chemscore.CHOScore>
0.6660

> <Gold.PLP.Chemscore.Metal>
0.0000

> <Gold.Chemscore.Hbonds>
donor molecule, donor type, donor heavy atom, donor atom, acceptor molecule, acceptor atom, score
      L1  H     3    20       P1  7948  0.34
      L1  H     6    23       P1  7957  0.59
      L1  H    12    34       P1  7948  0.67
      P1  H  8011  8017       L1     6  1.00
      L1  C    18    37       P1 10186  0.67

> <Gold.PLP.Chemscore.Internal.Correction>
0.0076

> <Gold.Rescore>
     Score         DG    S(hbond)    S(metal)    S(lipo)     H(rot)  DE(clash)    DE(int)     intcor
     15.97     -17.53       2.54        0.00      70.54       1.83       0.03       1.53       ----

> <Gold.Chemscore.Fitness>
15.9692

> <Gold.Chemscore.DG>
-17.5346

> <Gold.Chemscore.ZeroCoef>
-5.4800

> <Gold.Chemscore.Hbond>
2.5433

> <Gold.Chemscore.Metal>
0.0000

> <Gold.Chemscore.Lipo>
70.5389

> <Gold.Chemscore.Internal_Hbond>
0.0000

> <Gold.Chemscore.DEClash>
0.0315

> <Gold.Chemscore.DEInternal>
1.5339

> <Gold.Chemscore.Rot>
1.8332

> <Gold.Chemscore.Internal.Correction>
   9.000000E+99

> <Gold.Chemscore.Hbonds>
donor molecule, donor type, donor heavy atom, donor atom, acceptor molecule, acceptor atom, score
      L1  H     3    20       P1  7948  0.35
      L1  H     6    23       P1  7957  0.57
      L1  H    12    34       P1  7948  0.67
      P1  H  8011  8017       L1     6  0.25

> <Gold.Chemscore.Hbond.Weighted>
-8.4946

> <Gold.Chemscore.Metal.Weighted>
-0.0000

> <Gold.Chemscore.Lipo.Weighted>
-8.2531

> <Gold.Chemscore.Internal_Hbond.Weighted>
0.0000

> <Gold.Chemscore.DEClash.Weighted>
0.0315

> <Gold.Chemscore.DEInternal.Weighted>
1.5339

> <Gold.Chemscore.Rot.Weighted>
4.6931

> <Gold.Chemscore.Internal.Correction.Weighted>
   9.000000E+99

> <Gold.Protein.RotatedTorsions>
[ 6907 6896 6895 6894 ] final   52.51 input  -60.11 | X-H torsion
[ 7974 7965 7964 7962 ] final -161.31 input  175.53 | X-H torsion
[ 8008 7997 7996 7995 ] final -100.52 input   59.86 | X-H torsion
[ 10167 10162 10161 10158 ] final  -69.40 input  -65.29 | X-H torsion
[ 10718 10713 10712 10709 ] final  -60.54 input   66.30 | X-H torsion
[ 10763 10752 10751 10750 ] final  157.90 input  -60.55 | X-H torsion
[ 11005 11000 10999 10996 ] final   36.70 input  -57.11 | X-H torsion

> <Gold.Protein.ActiveResidues>
 VAL166  LYS551  ARG553  GLY616  TRP617  ASP618  TYR619  PRO620  LYS621  CYS622 
 ASP623  PHE694  ASN695  SER759  ASP760  ASP761  ALA762  ILE779  LEU786  VAL792 
 PHE793  MET794  SER795  GLU796  ALA797  LYS798  CYS799  TRP800  GLU811  SER814 

> <Gold.Protein.RotatedAtoms>
  152.3240  134.7344  160.0306 H   0  0  0  0  0  0  0  0  0  0  0  0  # atno 6907 bound_to 6896
  151.7782  133.3342  159.3472 H   0  0  0  0  0  0  0  0  0  0  0  0  # atno 6908 bound_to 6896
  150.7386  134.5886  159.6020 H   0  0  0  0  0  0  0  0  0  0  0  0  # atno 6909 bound_to 6896
  144.7396  140.3416  143.6133 H   0  0  0  0  0  0  0  0  0  0  0  0  # atno 7974 bound_to 7965
  154.8297  140.0440  157.1468 H   0  0  0  0  0  0  0  0  0  0  0  0  # atno 8008 bound_to 7997
  154.9166  140.3021  155.5218 H   0  0  0  0  0  0  0  0  0  0  0  0  # atno 8009 bound_to 7997
  156.2986  140.2348  156.4211 H   0  0  0  0  0  0  0  0  0  0  0  0  # atno 8010 bound_to 7997
  140.5434  143.2314  151.7048 H   0  0  0  0  0  0  0  0  0  0  0  0  # atno 10167 bound_to 10162
  156.0984  130.4189  150.0868 H   0  0  0  0  0  0  0  0  0  0  0  0  # atno 10718 bound_to 10713
  154.2076  135.2787  155.2969 H   0  0  0  0  0  0  0  0  0  0  0  0  # atno 10763 bound_to 10752
  154.5804  135.5591  153.7183 H   0  0  0  0  0  0  0  0  0  0  0  0  # atno 10764 bound_to 10752
  153.0072  135.6343  154.2215 H   0  0  0  0  0  0  0  0  0  0  0  0  # atno 10765 bound_to 10752
  140.2299  134.3539  155.7968 H   0  0  0  0  0  0  0  0  0  0  0  0  # atno 11005 bound_to 11000
  145.7368  139.1752  143.2399 LP  0  0  0  0  0  0  0  0  0  0  0  0  # atno 17320 bound_to 7965
  146.1164  140.7364  142.9478 LP  0  0  0  0  0  0  0  0  0  0  0  0  # atno 17321 bound_to 7965
  139.4997  144.3934  152.0257 LP  0  0  0  0  0  0  0  0  0  0  0  0  # atno 17342 bound_to 10162
  140.3044  144.3609  150.6051 LP  0  0  0  0  0  0  0  0  0  0  0  0  # atno 17343 bound_to 10162
  156.8861  130.9573  151.3594 LP  0  0  0  0  0  0  0  0  0  0  0  0  # atno 17370 bound_to 10713
  157.6149  130.8611  149.9012 LP  0  0  0  0  0  0  0  0  0  0  0  0  # atno 17371 bound_to 10713
  141.2218  133.7240  156.8715 LP  0  0  0  0  0  0  0  0  0  0  0  0  # atno 17394 bound_to 11000
  140.1761  134.9066  157.2892 LP  0  0  0  0  0  0  0  0  0  0  0  0  # atno 17395 bound_to 11000

$$$$
