AV-unprocessed.smi:200|AV-procd|sdf|1579|dock9
  -GOLD-   2262019463D 1   1.00000     0.00000
 Structure written by MMmdl.
 56 59  0  0  0  0  0  0  0  0  1 V2000
  147.2859  140.6624  153.2809 C   0  0  0  0  0  0  0  0  0  0  0  0
  147.6406  140.8184  154.6434 O   0  0  0  0  0  0  0  0  0  0  0  0
  149.0049  141.1644  154.8138 C   0  0  0  0  0  0  0  0  0  0  0  0
  149.3053  141.2914  156.3177 C   0  0  0  0  0  0  0  0  0  0  0  0
  150.6865  140.9446  156.6725 N   0  0  0  0  0  0  0  0  0  0  0  0
  151.1482  139.7559  156.2181 C   0  0  0  0  0  0  0  0  0  0  0  0
  152.0880  139.7907  155.2410 N   0  0  0  0  0  0  0  0  0  0  0  0
  152.5809  138.6520  154.7458 C   0  0  0  0  0  0  0  0  0  0  0  0
  152.2840  137.3962  155.0863 N   0  0  0  0  0  0  0  0  0  0  0  0
  151.3516  137.3572  156.0806 C   0  0  0  0  0  0  0  0  0  0  0  0
  150.7331  138.4810  156.6985 C   0  0  0  0  0  0  0  0  0  0  0  0
  149.8378  138.0520  157.6706 N   0  0  0  0  0  0  0  0  0  0  0  0
  149.9173  136.7507  157.6257 C   0  0  0  0  0  0  0  0  0  0  0  0
  150.8097  136.2477  156.7061 N   0  0  0  0  0  0  0  0  0  0  0  0
  151.0946  134.8427  156.4564 C   0  0  0  0  0  0  0  0  0  0  0  0
  149.8551  133.9970  156.0950 C   0  0  0  0  0  0  0  0  0  0  0  0
  148.8714  133.9257  157.2769 C   0  0  0  0  0  0  0  0  0  0  0  0
  149.4774  133.3592  158.4213 O   0  0  0  0  0  0  0  0  0  0  0  0
  149.2084  134.3119  154.7390 C   0  0  0  0  0  0  0  0  0  0  0  0
  149.2198  132.9229  154.3477 O   0  0  0  0  0  0  0  0  0  0  0  0
  150.1367  132.6434  155.4262 C   0  0  0  0  0  0  0  0  0  0  0  0
  151.2150  141.2707  158.0014 C   0  0  1  0  0  0  0  0  0  0  0  0
  152.6530  140.8146  158.2616 C   0  0  0  0  0  0  0  0  0  0  0  0
  153.0291  141.6005  159.5157 C   0  0  0  0  0  0  0  0  0  0  0  0
  152.3870  142.9834  159.3184 C   0  0  2  0  0  0  0  0  0  0  0  0
  152.0074  143.6720  160.6361 C   0  0  0  0  0  0  0  0  0  0  0  0
  151.1948  142.7654  158.3660 C   0  0  0  0  0  0  0  0  0  0  0  0
  146.2332  140.3902  153.2056 H   0  0  0  0  0  0  0  0  0  0  0  0
  147.8729  139.8741  152.8078 H   0  0  0  0  0  0  0  0  0  0  0  0
  147.4341  141.5905  152.7275 H   0  0  0  0  0  0  0  0  0  0  0  0
  149.6294  140.3771  154.3893 H   0  0  0  0  0  0  0  0  0  0  0  0
  149.2448  142.0824  154.2755 H   0  0  0  0  0  0  0  0  0  0  0  0
  149.0881  142.3127  156.6244 H   0  0  0  0  0  0  0  0  0  0  0  0
  148.6145  140.6624  156.8770 H   0  0  0  0  0  0  0  0  0  0  0  0
  153.3193  138.7628  153.9654 H   0  0  0  0  0  0  0  0  0  0  0  0
  149.3298  136.1168  158.2742 H   0  0  0  0  0  0  0  0  0  0  0  0
  151.8370  134.7842  155.6595 H   0  0  0  0  0  0  0  0  0  0  0  0
  151.5885  134.4412  157.3419 H   0  0  0  0  0  0  0  0  0  0  0  0
  148.5238  134.9240  157.5452 H   0  0  0  0  0  0  0  0  0  0  0  0
  147.9770  133.3559  157.0245 H   0  0  0  0  0  0  0  0  0  0  0  0
  148.8163  132.8943  158.9114 H   0  0  0  0  0  0  0  0  0  0  0  0
  148.1998  134.7209  154.8088 H   0  0  0  0  0  0  0  0  0  0  0  0
  149.8309  134.9223  154.0826 H   0  0  0  0  0  0  0  0  0  0  0  0
  151.1574  132.5274  155.0593 H   0  0  0  0  0  0  0  0  0  0  0  0
  149.8377  131.7809  156.0226 H   0  0  0  0  0  0  0  0  0  0  0  0
  150.6023  140.7558  158.7443 H   0  0  0  0  0  0  0  0  0  0  0  0
  152.7308  139.7363  158.4026 H   0  0  0  0  0  0  0  0  0  0  0  0
  153.3239  141.0971  157.4514 H   0  0  0  0  0  0  0  0  0  0  0  0
  152.6033  141.1069  160.3907 H   0  0  0  0  0  0  0  0  0  0  0  0
  154.1079  141.6591  159.6638 H   0  0  0  0  0  0  0  0  0  0  0  0
  153.1112  143.6144  158.8008 H   0  0  0  0  0  0  0  0  0  0  0  0
  151.2763  143.0858  161.1936 H   0  0  0  0  0  0  0  0  0  0  0  0
  151.5756  144.6562  160.4522 H   0  0  0  0  0  0  0  0  0  0  0  0
  152.8825  143.8073  161.2723 H   0  0  0  0  0  0  0  0  0  0  0  0
  151.3207  143.3990  157.4880 H   0  0  0  0  0  0  0  0  0  0  0  0
  150.2404  143.0374  158.8187 H   0  0  0  0  0  0  0  0  0  0  0  0
  1  2  1  0  0  0  0
  1 28  1  0  0  0  0
  1 29  1  0  0  0  0
  1 30  1  0  0  0  0
  2  3  1  0  0  0  0
  3  4  1  0  0  0  0
  3 31  1  0  0  0  0
  3 32  1  0  0  0  0
  4  5  1  0  0  0  0
  4 33  1  0  0  0  0
  4 34  1  0  0  0  0
  5  6  1  0  0  0  0
  5 22  1  0  0  0  0
  6 11  1  0  0  0  0
  6  7  2  0  0  0  0
  7  8  1  0  0  0  0
  8  9  2  0  0  0  0
  8 35  1  0  0  0  0
  9 10  1  0  0  0  0
 10 14  1  0  0  0  0
 10 11  2  0  0  0  0
 11 12  1  0  0  0  0
 12 13  2  0  0  0  0
 13 14  1  0  0  0  0
 13 36  1  0  0  0  0
 14 15  1  0  0  0  0
 15 16  1  0  0  0  0
 15 37  1  0  0  0  0
 15 38  1  0  0  0  0
 16 21  1  0  0  0  0
 16 17  1  0  0  0  0
 16 19  1  0  0  0  0
 17 18  1  0  0  0  0
 17 39  1  0  0  0  0
 17 40  1  0  0  0  0
 18 41  1  0  0  0  0
 19 20  1  0  0  0  0
 19 42  1  0  0  0  0
 19 43  1  0  0  0  0
 20 21  1  0  0  0  0
 21 44  1  0  0  0  0
 21 45  1  0  0  0  0
 22 27  1  0  0  0  0
 22 23  1  0  0  0  0
 22 46  1  0  0  0  0
 23 24  1  0  0  0  0
 23 47  1  0  0  0  0
 23 48  1  0  0  0  0
 24 25  1  0  0  0  0
 24 49  1  0  0  0  0
 24 50  1  0  0  0  0
 25 26  1  0  0  0  0
 25 27  1  0  0  0  0
 25 51  1  0  0  0  0
 26 52  1  0  0  0  0
 26 53  1  0  0  0  0
 26 54  1  0  0  0  0
 27 55  1  0  0  0  0
 27 56  1  0  0  0  0
M  END
> <s_m_source_file>
AV-unprocessed.smi

> <i_m_source_file_index>
200

> <i_lp_mmshare_version>
43012

> <i_f3d_flags>
0

> <s_epik_input>
W0NIM11bQ0BASF0oW0NIMl0xKVtDSDJdW0NIMl1bQ0BIXTFOKFtDSDJdW0NIMl1PW0NIM10pYyhuW2NIXW4yKWMoYzIzKW5bY0hdbjNbQ0gyXUM0KFtDSDJdW09IXSlbQ0gyXU9bQ0gyXTQ=

> <s_epik_cmdline>
J2VwaWtfcHl0aG9uJywgJy1waCcsICc3LjAnLCAnLXRuJywgJzgnLCAnLW1hJywgJzIwMCcsICctbWV0YWxfYmluZGluZycsICctaW1hZScsICc8aW5maWxlLm1hZT4nLCAnLW9tYWUnLCAnPG91dGZpbGUubWFlPic=

> <r_lp_tautomer_probability>
1

> <r_epik_Ionization_Penalty>
0.00363087

> <r_epik_Ionization_Penalty_Charging>
0

> <r_epik_Ionization_Penalty_Neutral>
0.00363087

> <r_epik_State_Penalty>
0.0024341

> <r_epik_Charging_Adjusted_Penalty>
0.0024341

> <i_epik_Tot_Q>
0

> <i_epik_Tot_abs_Q>
0

> <r_epik_Metal_State_Penalty>
-0

> <b_epik_Metal_Only>
0

> <s_lp_Force_Field>
OPLS_2005

> <r_lp_Energy>
49.9898

> <b_lp_Chiralities_Consistent>
1

> <s_lp_Variant>
AV-unprocessed.smi:200-4

> <Gold.Version>
5.8.1

> <Gold.Id.Protein>
6NUR|6NUR_protein|mol2

> <Gold.PLP.Fitness>
49.3882

> <Gold.PLP.PLP>
-42.3096

> <Gold.PLP.part.hbond>
-3.0000

> <Gold.PLP.part.metal>
0.0000

> <Gold.PLP.part.buried>
-6.6506

> <Gold.PLP.part.nonpolar>
-33.1737

> <Gold.PLP.part.repulsive>
0.3565

> <Gold.PLP.ligand.clash>
0.0087

> <Gold.PLP.ligand.torsion>
0.9704

> <Gold.PLP.Chemscore.Hbond>
2.5520

> <Gold.PLP.Chemscore.CHOScore>
0.0000

> <Gold.PLP.Chemscore.Metal>
0.0000

> <Gold.Chemscore.Hbonds>
donor molecule, donor type, donor heavy atom, donor atom, acceptor molecule, acceptor atom, score
      P1  H  6896  6907       L1    18  1.00
      P1  H  7989  7998       L1     7  0.72
      P1  H 10752 10765       L1     9  0.72

> <Gold.PLP.Chemscore.Internal.Correction>
1.3720

> <Gold.Rescore>
     Score         DG    S(hbond)    S(metal)    S(lipo)     H(rot)  DE(clash)    DE(int)     intcor
     16.43     -17.44       2.61        0.00      99.36       3.28       0.02       0.99       ----

> <Gold.Chemscore.Fitness>
16.4268

> <Gold.Chemscore.DG>
-17.4364

> <Gold.Chemscore.ZeroCoef>
-5.4800

> <Gold.Chemscore.Hbond>
2.6103

> <Gold.Chemscore.Metal>
0.0000

> <Gold.Chemscore.Lipo>
99.3585

> <Gold.Chemscore.Internal_Hbond>
0.0000

> <Gold.Chemscore.DEClash>
0.0218

> <Gold.Chemscore.DEInternal>
0.9877

> <Gold.Chemscore.Rot>
3.2761

> <Gold.Chemscore.Internal.Correction>
   9.000000E+99

> <Gold.Chemscore.Hbonds>
donor molecule, donor type, donor heavy atom, donor atom, acceptor molecule, acceptor atom, score
      P1  H  6896  6907       L1    18  0.90
      P1  H  7989  7998       L1     7  0.23
      P1  H 10752 10765       L1     9  0.64

> <Gold.Chemscore.Hbond.Weighted>
-8.7183

> <Gold.Chemscore.Metal.Weighted>
-0.0000

> <Gold.Chemscore.Lipo.Weighted>
-11.6249

> <Gold.Chemscore.Internal_Hbond.Weighted>
0.0000

> <Gold.Chemscore.DEClash.Weighted>
0.0218

> <Gold.Chemscore.DEInternal.Weighted>
0.9877

> <Gold.Chemscore.Rot.Weighted>
8.3868

> <Gold.Chemscore.Internal.Correction.Weighted>
   9.000000E+99

> <Gold.Protein.RotatedTorsions>
[ 6907 6896 6895 6894 ] final -126.22 input  -60.11 | X-H torsion
[ 7974 7965 7964 7962 ] final  -62.94 input  175.53 | X-H torsion
[ 8008 7997 7996 7995 ] final  114.04 input   59.86 | X-H torsion
[ 10167 10162 10161 10158 ] final -175.13 input  -65.29 | X-H torsion
[ 10718 10713 10712 10709 ] final  122.81 input   66.30 | X-H torsion
[ 10763 10752 10751 10750 ] final  173.97 input  -60.55 | X-H torsion
[ 11005 11000 10999 10996 ] final -129.41 input  -57.11 | X-H torsion

> <Gold.Protein.ActiveResidues>
 VAL166  LYS551  ARG553  GLY616  TRP617  ASP618  TYR619  PRO620  LYS621  CYS622 
 ASP623  PHE694  ASN695  SER759  ASP760  ASP761  ALA762  ILE779  LEU786  VAL792 
 PHE793  MET794  SER795  GLU796  ALA797  LYS798  CYS799  TRP800  GLU811  SER814 

> <Gold.Protein.RotatedAtoms>
  150.8947  133.7196  159.2894 H   0  0  0  0  0  0  0  0  0  0  0  0  # atno 6907 bound_to 6896
  151.4735  135.1046  159.9767 H   0  0  0  0  0  0  0  0  0  0  0  0  # atno 6908 bound_to 6896
  152.4841  133.8282  159.7144 H   0  0  0  0  0  0  0  0  0  0  0  0  # atno 6909 bound_to 6896
  145.7851  140.8740  143.0310 H   0  0  0  0  0  0  0  0  0  0  0  0  # atno 7974 bound_to 7965
  156.2296  140.2967  156.0155 H   0  0  0  0  0  0  0  0  0  0  0  0  # atno 8008 bound_to 7997
  155.2261  140.0417  157.2972 H   0  0  0  0  0  0  0  0  0  0  0  0  # atno 8009 bound_to 7997
  154.5973  140.2417  155.7847 H   0  0  0  0  0  0  0  0  0  0  0  0  # atno 8010 bound_to 7997
  139.5597  144.1900  152.1218 H   0  0  0  0  0  0  0  0  0  0  0  0  # atno 10167 bound_to 10162
  157.5713  131.1083  150.8361 H   0  0  0  0  0  0  0  0  0  0  0  0  # atno 10718 bound_to 10713
  154.4475  135.2764  155.1805 H   0  0  0  0  0  0  0  0  0  0  0  0  # atno 10763 bound_to 10752
  154.3646  135.6122  153.5712 H   0  0  0  0  0  0  0  0  0  0  0  0  # atno 10764 bound_to 10752
  152.9845  135.5842  154.4813 H   0  0  0  0  0  0  0  0  0  0  0  0  # atno 10765 bound_to 10752
  140.9434  134.1163  157.4130 H   0  0  0  0  0  0  0  0  0  0  0  0  # atno 11005 bound_to 11000
  144.6790  140.0044  143.7484 LP  0  0  0  0  0  0  0  0  0  0  0  0  # atno 17320 bound_to 7965
  146.0034  139.3110  143.0914 LP  0  0  0  0  0  0  0  0  0  0  0  0  # atno 17321 bound_to 7965
  140.1411  144.5201  150.6743 LP  0  0  0  0  0  0  0  0  0  0  0  0  # atno 17342 bound_to 10162
  140.6875  143.2358  151.5220 LP  0  0  0  0  0  0  0  0  0  0  0  0  # atno 17343 bound_to 10162
  156.8831  130.5186  149.5290 LP  0  0  0  0  0  0  0  0  0  0  0  0  # atno 17370 bound_to 10713
  156.0759  130.5781  150.9472 LP  0  0  0  0  0  0  0  0  0  0  0  0  # atno 17371 bound_to 10713
  139.8826  135.0043  156.6244 LP  0  0  0  0  0  0  0  0  0  0  0  0  # atno 17394 bound_to 11000
  140.7703  133.8744  155.8486 LP  0  0  0  0  0  0  0  0  0  0  0  0  # atno 17395 bound_to 11000

$$$$
