AV-unprocessed.smi:69|AV-procd|sdf|652|dock7
  -GOLD-   2262016553D 1   1.00000     0.00000
 Structure written by MMmdl.
 32 34  0  0  0  0  0  0  0  0  1 V2000
  152.6123  142.3776  161.6138 N   0  0  0  0  0  0  0  0  0  0  0  0
  152.2313  142.7127  160.3735 C   0  0  0  0  0  0  0  0  0  0  0  0
  152.0068  144.0197  160.1002 N   0  0  0  0  0  0  0  0  0  0  0  0
  151.6287  144.3802  158.8690 C   0  0  0  0  0  0  0  0  0  0  0  0
  151.4215  143.6084  157.7980 N   0  0  0  0  0  0  0  0  0  0  0  0
  151.6459  142.2911  158.0794 C   0  0  0  0  0  0  0  0  0  0  0  0
  152.0547  141.7642  159.3347 C   0  0  0  0  0  0  0  0  0  0  0  0
  152.1957  140.3862  159.2436 N   0  0  0  0  0  0  0  0  0  0  0  0
  151.8903  140.1197  158.0011 C   0  0  0  0  0  0  0  0  0  0  0  0
  151.5276  141.2089  157.2342 N   0  0  0  0  0  0  0  0  0  0  0  0
  151.1395  141.2735  155.7873 C   0  0  1  0  0  0  0  0  0  0  0  0
  151.5503  140.0987  155.1601 O   0  0  0  0  0  0  0  0  0  0  0  0
  150.4995  139.1433  155.2217 C   0  0  2  0  0  0  0  0  0  0  0  0
  150.7196  138.0540  154.1617 C   0  0  0  0  0  0  0  0  0  0  0  0
  152.0066  137.4922  154.3064 O   0  0  0  0  0  0  0  0  0  0  0  0
  149.2643  140.0113  154.9643 C   0  0  1  0  0  0  0  0  0  0  0  0
  148.1216  139.4254  155.5556 O   0  0  0  0  0  0  0  0  0  0  0  0
  149.6055  141.3363  155.6456 C   0  0  2  0  0  0  0  0  0  0  0  0
  149.2000  142.4249  154.8411 O   0  0  0  0  0  0  0  0  0  0  0  0
  151.6769  142.1417  155.4028 H   0  0  0  0  0  0  0  0  0  0  0  0
  150.4476  138.7111  156.2230 H   0  0  0  0  0  0  0  0  0  0  0  0
  149.1138  140.1473  153.8918 H   0  0  0  0  0  0  0  0  0  0  0  0
  149.1393  141.4169  156.6292 H   0  0  0  0  0  0  0  0  0  0  0  0
  152.7869  141.4089  161.8399 H   0  0  0  0  0  0  0  0  0  0  0  0
  152.7218  143.0920  162.3187 H   0  0  0  0  0  0  0  0  0  0  0  0
  151.4691  145.4380  158.7208 H   0  0  0  0  0  0  0  0  0  0  0  0
  151.9243  139.1116  157.6144 H   0  0  0  0  0  0  0  0  0  0  0  0
  149.9952  137.2500  154.2946 H   0  0  0  0  0  0  0  0  0  0  0  0
  150.5866  138.4474  153.1535 H   0  0  0  0  0  0  0  0  0  0  0  0
  152.6409  138.1017  153.9612 H   0  0  0  0  0  0  0  0  0  0  0  0
  147.4050  139.4835  154.9419 H   0  0  0  0  0  0  0  0  0  0  0  0
  149.2641  143.2151  155.3560 H   0  0  0  0  0  0  0  0  0  0  0  0
  1  2  1  0  0  0  0
  1 24  1  0  0  0  0
  1 25  1  0  0  0  0
  2  7  1  0  0  0  0
  2  3  2  0  0  0  0
  3  4  1  0  0  0  0
  4  5  2  0  0  0  0
  4 26  1  0  0  0  0
  5  6  1  0  0  0  0
  6 10  1  0  0  0  0
  6  7  2  0  0  0  0
  7  8  1  0  0  0  0
  8  9  2  0  0  0  0
  9 10  1  0  0  0  0
  9 27  1  0  0  0  0
 10 11  1  0  0  0  0
 11 20  1  0  0  0  0
 11 18  1  0  0  0  0
 11 12  1  0  0  0  0
 12 13  1  0  0  0  0
 13 21  1  0  0  0  0
 13 14  1  0  0  0  0
 13 16  1  0  0  0  0
 14 15  1  0  0  0  0
 14 28  1  0  0  0  0
 14 29  1  0  0  0  0
 15 30  1  0  0  0  0
 16 22  1  0  0  0  0
 16 17  1  0  0  0  0
 16 18  1  0  0  0  0
 17 31  1  0  0  0  0
 18 23  1  0  0  0  0
 18 19  1  0  0  0  0
 19 32  1  0  0  0  0
M  END
> <s_m_source_file>
AV-unprocessed.smi

> <i_m_source_file_index>
69

> <i_lp_mmshare_version>
43012

> <i_f3d_flags>
0

> <s_epik_input>
bjFbY0hdbmMoW05IMl0pYyhjMTIpbltjSF1uMltDQEBIXTNPW0NASF0oW0NIMl1bT0hdKVtDQEBIXShbT0hdKVtDQEhdM1tPSF0=

> <s_epik_cmdline>
J2VwaWtfcHl0aG9uJywgJy1waCcsICc3LjAnLCAnLXRuJywgJzgnLCAnLW1hJywgJzIwMCcsICctbWV0YWxfYmluZGluZycsICctaW1hZScsICc8aW5maWxlLm1hZT4nLCAnLW9tYWUnLCAnPG91dGZpbGUubWFlPic=

> <r_lp_tautomer_probability>
1

> <r_epik_Ionization_Penalty>
0.000428445

> <r_epik_Ionization_Penalty_Charging>
0

> <r_epik_Ionization_Penalty_Neutral>
0.000428445

> <r_epik_State_Penalty>
-0

> <r_epik_Charging_Adjusted_Penalty>
0

> <i_epik_Tot_Q>
0

> <i_epik_Tot_abs_Q>
0

> <r_epik_Metal_State_Penalty>
-0

> <b_epik_Metal_Only>
0

> <s_epik_Chemistry_Notes>
This compound contains an acetal/aminal-like group ( X-CH(R)-Y where X, Y are N, S, or O) that may be acid/base labile, releasing an aldehyde.

> <s_lp_Force_Field>
OPLS_2005

> <r_lp_Energy>
31.7018

> <b_lp_Chiralities_Consistent>
1

> <s_lp_Variant>
AV-unprocessed.smi:69-10

> <Gold.Version>
5.8.1

> <Gold.Id.Protein>
6NUR|6NUR_protein|mol2

> <Gold.PLP.Fitness>
40.2071

> <Gold.PLP.PLP>
-33.6134

> <Gold.PLP.part.hbond>
-3.9043

> <Gold.PLP.part.metal>
0.0000

> <Gold.PLP.part.buried>
-7.6879

> <Gold.PLP.part.nonpolar>
-22.0624

> <Gold.PLP.part.repulsive>
0.2733

> <Gold.PLP.ligand.clash>
0.0000

> <Gold.PLP.ligand.torsion>
0.6021

> <Gold.PLP.Chemscore.Hbond>
2.5892

> <Gold.PLP.Chemscore.CHOScore>
0.0000

> <Gold.PLP.Chemscore.Metal>
0.0000

> <Gold.Chemscore.Hbonds>
donor molecule, donor type, donor heavy atom, donor atom, acceptor molecule, acceptor atom, score
      L1  H    19    32       P1  8028  1.00
      P1  H  7989  7998       L1    12  0.70
      P1  H 10752 10765       L1    15  0.87

> <Gold.PLP.Chemscore.Internal.Correction>
0.0304

> <Gold.Rescore>
     Score         DG    S(hbond)    S(metal)    S(lipo)     H(rot)  DE(clash)    DE(int)     intcor
      4.86      -5.34       1.74        0.00      37.11       4.03       0.32       0.15       ----

> <Gold.Chemscore.Fitness>
4.8620

> <Gold.Chemscore.DG>
-5.3352

> <Gold.Chemscore.ZeroCoef>
-5.4800

> <Gold.Chemscore.Hbond>
1.7438

> <Gold.Chemscore.Metal>
0.0000

> <Gold.Chemscore.Lipo>
37.1090

> <Gold.Chemscore.Internal_Hbond>
0.0000

> <Gold.Chemscore.DEClash>
0.3228

> <Gold.Chemscore.DEInternal>
0.1505

> <Gold.Chemscore.Rot>
4.0277

> <Gold.Chemscore.Internal.Correction>
   9.000000E+99

> <Gold.Chemscore.Hbonds>
donor molecule, donor type, donor heavy atom, donor atom, acceptor molecule, acceptor atom, score
      L1  H    19    32       P1  8028  0.93
      P1  H  7989  7998       L1    12  0.06
      P1  H 10752 10765       L1    15  0.32

> <Gold.Chemscore.Hbond.Weighted>
-5.8244

> <Gold.Chemscore.Metal.Weighted>
-0.0000

> <Gold.Chemscore.Lipo.Weighted>
-4.3418

> <Gold.Chemscore.Internal_Hbond.Weighted>
0.0000

> <Gold.Chemscore.DEClash.Weighted>
0.3228

> <Gold.Chemscore.DEInternal.Weighted>
0.1505

> <Gold.Chemscore.Rot.Weighted>
10.3110

> <Gold.Chemscore.Internal.Correction.Weighted>
   9.000000E+99

> <Gold.Protein.RotatedTorsions>
[ 6907 6896 6895 6894 ] final   -8.39 input  -60.11 | X-H torsion
[ 7974 7965 7964 7962 ] final  -83.32 input  175.53 | X-H torsion
[ 8008 7997 7996 7995 ] final   -0.07 input   59.86 | X-H torsion
[ 10167 10162 10161 10158 ] final  -86.31 input  -65.29 | X-H torsion
[ 10718 10713 10712 10709 ] final -162.20 input   66.30 | X-H torsion
[ 10763 10752 10751 10750 ] final  154.58 input  -60.55 | X-H torsion
[ 11005 11000 10999 10996 ] final  -47.82 input  -57.11 | X-H torsion

> <Gold.Protein.ActiveResidues>
 VAL166  LYS551  ARG553  GLY616  TRP617  ASP618  TYR619  PRO620  LYS621  CYS622 
 ASP623  PHE694  ASN695  SER759  ASP760  ASP761  ALA762  ILE779  LEU786  VAL792 
 PHE793  MET794  SER795  GLU796  ALA797  LYS798  CYS799  TRP800  GLU811  SER814 

> <Gold.Protein.RotatedAtoms>
  151.4344  135.1013  159.9651 H   0  0  0  0  0  0  0  0  0  0  0  0  # atno 6907 bound_to 6896
  152.4945  133.8587  159.7249 H   0  0  0  0  0  0  0  0  0  0  0  0  # atno 6908 bound_to 6896
  150.9132  133.6913  159.2877 H   0  0  0  0  0  0  0  0  0  0  0  0  # atno 6909 bound_to 6896
  145.5215  140.9531  143.1652 H   0  0  0  0  0  0  0  0  0  0  0  0  # atno 7974 bound_to 7965
  154.6623  140.2593  155.7096 H   0  0  0  0  0  0  0  0  0  0  0  0  # atno 8008 bound_to 7997
  156.2623  140.2846  156.1021 H   0  0  0  0  0  0  0  0  0  0  0  0  # atno 8009 bound_to 7997
  155.1291  140.0378  157.2760 H   0  0  0  0  0  0  0  0  0  0  0  0  # atno 8010 bound_to 7997
  140.3954  143.2686  151.9211 H   0  0  0  0  0  0  0  0  0  0  0  0  # atno 10167 bound_to 10162
  156.6071  130.8835  151.2927 H   0  0  0  0  0  0  0  0  0  0  0  0  # atno 10718 bound_to 10713
  154.1547  135.2813  155.3125 H   0  0  0  0  0  0  0  0  0  0  0  0  # atno 10763 bound_to 10752
  154.6192  135.5473  153.7559 H   0  0  0  0  0  0  0  0  0  0  0  0  # atno 10764 bound_to 10752
  153.0210  135.6434  154.1690 H   0  0  0  0  0  0  0  0  0  0  0  0  # atno 10765 bound_to 10752
  141.0664  133.6692  156.3352 H   0  0  0  0  0  0  0  0  0  0  0  0  # atno 11005 bound_to 11000
  144.7673  139.6815  143.7209 LP  0  0  0  0  0  0  0  0  0  0  0  0  # atno 17320 bound_to 7965
  146.2103  139.5454  142.9685 LP  0  0  0  0  0  0  0  0  0  0  0  0  # atno 17321 bound_to 7965
  139.4787  144.5686  151.8124 LP  0  0  0  0  0  0  0  0  0  0  0  0  # atno 17342 bound_to 10162
  140.4796  144.1469  150.5930 LP  0  0  0  0  0  0  0  0  0  0  0  0  # atno 17343 bound_to 10162
  157.7264  130.9629  150.1656 LP  0  0  0  0  0  0  0  0  0  0  0  0  # atno 17370 bound_to 10713
  156.2421  130.3692  149.8326 LP  0  0  0  0  0  0  0  0  0  0  0  0  # atno 17371 bound_to 10713
  140.5765  134.5788  157.5470 LP  0  0  0  0  0  0  0  0  0  0  0  0  # atno 17394 bound_to 11000
  139.9480  134.7667  156.0515 LP  0  0  0  0  0  0  0  0  0  0  0  0  # atno 17395 bound_to 11000

$$$$
