AV-unprocessed.smi:1840|AV-procd|sdf|7488|dock6
  -GOLD-   22720 9183D 1   1.00000     0.00000
 Structure written by MMmdl.
 43 44  0  0  0  0  0  0  0  0  1 V2000
  151.5247  138.9213  154.8840 C   0  0  0  0  0  0  0  0  0  0  0  0
  150.5637  138.6108  156.0472 C   0  0  2  0  0  0  0  0  0  0  0  0
  149.1249  138.3094  155.5795 C   0  0  0  0  0  0  0  0  0  0  0  0
  148.5448  139.3830  154.7926 N   0  0  0  0  0  0  0  0  0  0  0  0
  149.0722  140.6279  154.5197 C   0  0  0  0  0  0  0  0  0  0  0  0
  148.1652  141.2921  153.7446 C   0  0  0  0  0  0  0  0  0  0  0  0
  147.0995  140.3609  153.5984 C   0  0  0  0  0  0  0  0  0  0  0  0
  147.3273  139.2210  154.2307 N   0  0  0  0  0  0  0  0  0  0  0  0
  150.5347  139.7282  156.9872 N   0  0  0  0  0  0  0  0  0  0  0  0
  151.5993  140.2340  157.6259 C   0  0  0  0  0  0  0  0  0  0  0  0
  152.7457  139.8022  157.5047 O   0  0  0  0  0  0  0  0  0  0  0  0
  151.2607  141.2742  158.4011 N   0  0  0  0  0  0  0  0  0  0  0  0
  152.1796  142.0765  159.2073 C   0  0  2  0  0  0  0  0  0  0  0  0
  152.6493  141.2407  160.4143 C   0  0  0  0  0  0  0  0  0  0  0  0
  153.5661  142.0505  161.3422 C   0  0  0  0  0  0  0  0  0  0  0  0
  152.8761  143.3398  161.8078 C   0  0  0  0  0  0  0  0  0  0  0  0
  152.4200  144.1847  160.6084 C   0  0  0  0  0  0  0  0  0  0  0  0
  151.4969  143.3914  159.6611 C   0  0  1  0  0  0  0  0  0  0  0  0
  151.0584  144.2674  158.4735 C   0  0  0  0  0  0  0  0  0  0  0  0
  151.6189  138.0730  154.2058 H   0  0  0  0  0  0  0  0  0  0  0  0
  152.5264  139.1510  155.2489 H   0  0  0  0  0  0  0  0  0  0  0  0
  151.1784  139.7765  154.3029 H   0  0  0  0  0  0  0  0  0  0  0  0
  150.9364  137.7272  156.5690 H   0  0  0  0  0  0  0  0  0  0  0  0
  149.1041  137.3971  154.9811 H   0  0  0  0  0  0  0  0  0  0  0  0
  148.4791  138.1308  156.4408 H   0  0  0  0  0  0  0  0  0  0  0  0
  150.0389  140.9328  154.8924 H   0  0  0  0  0  0  0  0  0  0  0  0
  148.2499  142.2911  153.3434 H   0  0  0  0  0  0  0  0  0  0  0  0
  146.1725  140.4793  153.0568 H   0  0  0  0  0  0  0  0  0  0  0  0
  149.6354  140.1546  157.1553 H   0  0  0  0  0  0  0  0  0  0  0  0
  150.2887  141.5449  158.4264 H   0  0  0  0  0  0  0  0  0  0  0  0
  153.0611  142.3414  158.6201 H   0  0  0  0  0  0  0  0  0  0  0  0
  151.7850  140.8892  160.9799 H   0  0  0  0  0  0  0  0  0  0  0  0
  153.1747  140.3493  160.0689 H   0  0  0  0  0  0  0  0  0  0  0  0
  153.8501  141.4471  162.2049 H   0  0  0  0  0  0  0  0  0  0  0  0
  154.4906  142.2974  160.8191 H   0  0  0  0  0  0  0  0  0  0  0  0
  152.0160  143.0922  162.4314 H   0  0  0  0  0  0  0  0  0  0  0  0
  153.5558  143.9194  162.4332 H   0  0  0  0  0  0  0  0  0  0  0  0
  151.9060  145.0764  160.9691 H   0  0  0  0  0  0  0  0  0  0  0  0
  153.2953  144.5354  160.0599 H   0  0  0  0  0  0  0  0  0  0  0  0
  150.5985  143.1302  160.2228 H   0  0  0  0  0  0  0  0  0  0  0  0
  151.9076  144.5303  157.8419 H   0  0  0  0  0  0  0  0  0  0  0  0
  150.6008  145.1950  158.8183 H   0  0  0  0  0  0  0  0  0  0  0  0
  150.3244  143.7598  157.8476 H   0  0  0  0  0  0  0  0  0  0  0  0
  1  2  1  0  0  0  0
  1 20  1  0  0  0  0
  1 21  1  0  0  0  0
  1 22  1  0  0  0  0
  2  3  1  0  0  0  0
  2  9  1  0  0  0  0
  2 23  1  0  0  0  0
  3  4  1  0  0  0  0
  3 24  1  0  0  0  0
  3 25  1  0  0  0  0
  4  8  1  0  0  0  0
  4  5  1  0  0  0  0
  5  6  2  0  0  0  0
  5 26  1  0  0  0  0
  6  7  1  0  0  0  0
  6 27  1  0  0  0  0
  7  8  2  0  0  0  0
  7 28  1  0  0  0  0
  9 10  1  0  0  0  0
  9 29  1  0  0  0  0
 10 11  2  0  0  0  0
 10 12  1  0  0  0  0
 12 13  1  0  0  0  0
 12 30  1  0  0  0  0
 13 18  1  0  0  0  0
 13 14  1  0  0  0  0
 13 31  1  0  0  0  0
 14 15  1  0  0  0  0
 14 32  1  0  0  0  0
 14 33  1  0  0  0  0
 15 16  1  0  0  0  0
 15 34  1  0  0  0  0
 15 35  1  0  0  0  0
 16 17  1  0  0  0  0
 16 36  1  0  0  0  0
 16 37  1  0  0  0  0
 17 18  1  0  0  0  0
 17 38  1  0  0  0  0
 17 39  1  0  0  0  0
 18 19  1  0  0  0  0
 18 40  1  0  0  0  0
 19 41  1  0  0  0  0
 19 42  1  0  0  0  0
 19 43  1  0  0  0  0
M  END
> <s_m_source_file>
AV-unprocessed.smi

> <i_m_source_file_index>
1840

> <i_lp_mmshare_version>
43012

> <i_f3d_flags>
0

> <s_epik_input>
bjFbY0hdW2NIXVtjSF1uMVtDSDJdW0NAQEhdKFtDSDNdKVtOSF1DKD1PKVtOSF1bQ0BASF0yW0NIMl1bQ0gyXVtDSDJdW0NIMl1bQ0BIXTJbQ0gzXQ==

> <s_epik_cmdline>
J2VwaWtfcHl0aG9uJywgJy1waCcsICc3LjAnLCAnLXRuJywgJzgnLCAnLW1hJywgJzIwMCcsICctbWV0YWxfYmluZGluZycsICctaW1hZScsICc8aW5maWxlLm1hZT4nLCAnLW9tYWUnLCAnPG91dGZpbGUubWFlPic=

> <r_lp_tautomer_probability>
1

> <r_epik_Ionization_Penalty>
7.38659e-05

> <r_epik_Ionization_Penalty_Charging>
0

> <r_epik_Ionization_Penalty_Neutral>
7.38659e-05

> <r_epik_State_Penalty>
-0

> <r_epik_Charging_Adjusted_Penalty>
0

> <i_epik_Tot_Q>
0

> <i_epik_Tot_abs_Q>
0

> <r_epik_Metal_State_Penalty>
-0

> <b_epik_Metal_Only>
0

> <s_lp_Force_Field>
OPLS_2005

> <r_lp_Energy>
8.70276

> <b_lp_Chiralities_Consistent>
1

> <s_lp_Variant>
AV-unprocessed.smi:1840-1

> <Gold.Version>
5.8.1

> <Gold.Id.Protein>
6NUR|6NUR_protein|mol2

> <Gold.PLP.Fitness>
42.0891

> <Gold.PLP.PLP>
-36.4733

> <Gold.PLP.part.hbond>
-1.0000

> <Gold.PLP.part.metal>
0.0000

> <Gold.PLP.part.buried>
-2.8796

> <Gold.PLP.part.nonpolar>
-31.8462

> <Gold.PLP.part.repulsive>
0.2857

> <Gold.PLP.ligand.clash>
0.0000

> <Gold.PLP.ligand.torsion>
0.2037

> <Gold.PLP.Chemscore.Hbond>
1.0000

> <Gold.PLP.Chemscore.CHOScore>
0.9991

> <Gold.PLP.Chemscore.Metal>
0.0000

> <Gold.Chemscore.Hbonds>
donor molecule, donor type, donor heavy atom, donor atom, acceptor molecule, acceptor atom, score
      P1  H  7997  8009       L1    11  1.00
      L1  C     7    28       P1 10175  0.95

> <Gold.PLP.Chemscore.Internal.Correction>
0.0260

> <Gold.Rescore>
     Score         DG    S(hbond)    S(metal)    S(lipo)     H(rot)  DE(clash)    DE(int)     intcor
     15.89     -17.90       0.98        0.00     112.09       1.56       0.45       1.56       ----

> <Gold.Chemscore.Fitness>
15.8914

> <Gold.Chemscore.DG>
-17.8963

> <Gold.Chemscore.ZeroCoef>
-5.4800

> <Gold.Chemscore.Hbond>
0.9849

> <Gold.Chemscore.Metal>
0.0000

> <Gold.Chemscore.Lipo>
112.0873

> <Gold.Chemscore.Internal_Hbond>
0.0000

> <Gold.Chemscore.DEClash>
0.4467

> <Gold.Chemscore.DEInternal>
1.5583

> <Gold.Chemscore.Rot>
1.5576

> <Gold.Chemscore.Internal.Correction>
   9.000000E+99

> <Gold.Chemscore.Hbonds>
donor molecule, donor type, donor heavy atom, donor atom, acceptor molecule, acceptor atom, score
      P1  H  7997  8009       L1    11  0.94

> <Gold.Chemscore.Hbond.Weighted>
-3.2896

> <Gold.Chemscore.Metal.Weighted>
-0.0000

> <Gold.Chemscore.Lipo.Weighted>
-13.1142

> <Gold.Chemscore.Internal_Hbond.Weighted>
0.0000

> <Gold.Chemscore.DEClash.Weighted>
0.4467

> <Gold.Chemscore.DEInternal.Weighted>
1.5583

> <Gold.Chemscore.Rot.Weighted>
3.9875

> <Gold.Chemscore.Internal.Correction.Weighted>
   9.000000E+99

> <Gold.Protein.RotatedTorsions>
[ 6907 6896 6895 6894 ] final   72.28 input  -60.11 | X-H torsion
[ 7974 7965 7964 7962 ] final   64.28 input  175.53 | X-H torsion
[ 8008 7997 7996 7995 ] final -170.98 input   59.86 | X-H torsion
[ 10167 10162 10161 10158 ] final  -66.41 input  -65.29 | X-H torsion
[ 10718 10713 10712 10709 ] final -139.58 input   66.30 | X-H torsion
[ 10763 10752 10751 10750 ] final -176.67 input  -60.55 | X-H torsion
[ 11005 11000 10999 10996 ] final  -67.32 input  -57.11 | X-H torsion

> <Gold.Protein.ActiveResidues>
 VAL166  LYS551  ARG553  GLY616  TRP617  ASP618  TYR619  PRO620  LYS621  CYS622 
 ASP623  PHE694  ASN695  SER759  ASP760  ASP761  ALA762  ILE779  LEU786  VAL792 
 PHE793  MET794  SER795  GLU796  ALA797  LYS798  CYS799  TRP800  GLU811  SER814 

> <Gold.Protein.RotatedAtoms>
  152.4859  134.4594  159.9599 H   0  0  0  0  0  0  0  0  0  0  0  0  # atno 6907 bound_to 6896
  151.4590  133.3591  159.2814 H   0  0  0  0  0  0  0  0  0  0  0  0  # atno 6908 bound_to 6896
  150.8969  134.8403  159.7393 H   0  0  0  0  0  0  0  0  0  0  0  0  # atno 6909 bound_to 6896
  145.8520  139.3260  143.0869 H   0  0  0  0  0  0  0  0  0  0  0  0  # atno 7974 bound_to 7965
  155.9255  140.1082  157.1173 H   0  0  0  0  0  0  0  0  0  0  0  0  # atno 8008 bound_to 7997
  154.4061  140.1247  156.4800 H   0  0  0  0  0  0  0  0  0  0  0  0  # atno 8009 bound_to 7997
  155.7144  140.3470  155.4990 H   0  0  0  0  0  0  0  0  0  0  0  0  # atno 8010 bound_to 7997
  140.5659  143.2315  151.6636 H   0  0  0  0  0  0  0  0  0  0  0  0  # atno 10167 bound_to 10162
  156.3124  130.7489  151.1568 H   0  0  0  0  0  0  0  0  0  0  0  0  # atno 10718 bound_to 10713
  154.5695  135.2826  155.0841 H   0  0  0  0  0  0  0  0  0  0  0  0  # atno 10763 bound_to 10752
  154.2219  135.6389  153.5151 H   0  0  0  0  0  0  0  0  0  0  0  0  # atno 10764 bound_to 10752
  153.0053  135.5516  154.6314 H   0  0  0  0  0  0  0  0  0  0  0  0  # atno 10765 bound_to 10752
  141.1505  133.6716  156.6274 H   0  0  0  0  0  0  0  0  0  0  0  0  # atno 11005 bound_to 11000
  145.9346  140.9024  143.0338 LP  0  0  0  0  0  0  0  0  0  0  0  0  # atno 17320 bound_to 7965
  144.6729  140.1465  143.7433 LP  0  0  0  0  0  0  0  0  0  0  0  0  # atno 17321 bound_to 7965
  139.5092  144.3583  152.0586 LP  0  0  0  0  0  0  0  0  0  0  0  0  # atno 17342 bound_to 10162
  140.2715  144.3959  150.6150 LP  0  0  0  0  0  0  0  0  0  0  0  0  # atno 17343 bound_to 10162
  157.7394  131.0530  150.5234 LP  0  0  0  0  0  0  0  0  0  0  0  0  # atno 17370 bound_to 10713
  156.5376  130.4200  149.6170 LP  0  0  0  0  0  0  0  0  0  0  0  0  # atno 17371 bound_to 10713
  140.3493  134.7782  157.4455 LP  0  0  0  0  0  0  0  0  0  0  0  0  # atno 17394 bound_to 11000
  140.0874  134.5648  155.8479 LP  0  0  0  0  0  0  0  0  0  0  0  0  # atno 17395 bound_to 11000

$$$$
