AV-unprocessed.smi:2246|AV-procd|sdf|9085|dock4
  -GOLD-   2272012283D 1   1.00000     0.00000
 Structure written by MMmdl.
 28 29  0  0  0  0  0  0  0  0  2 V2000
  149.9806  140.6859  159.2278 O   0  0  0  0  0  0  0  0  0  0  0  0
  150.3367  141.2677  158.2036 C   0  0  0  0  0  0  0  0  0  0  0  0
  150.4260  140.5699  156.8474 C   0  0  2  0  0  0  0  0  0  0  0  0
  151.4463  139.4933  156.8725 N   0  0  0  0  0  0  0  0  0  0  0  0
  151.8873  138.9983  158.1191 C   0  0  0  0  0  0  0  0  0  0  0  0
  152.7798  137.9958  158.2238 C   0  0  0  0  0  0  0  0  0  0  0  0
  153.2912  137.4175  159.7694 Cl  0  0  0  0  0  0  0  0  0  0  0  0
  153.2934  137.4050  156.9917 C   0  0  0  0  0  0  0  0  0  0  0  0
  154.1256  136.5008  157.0500 O   0  0  0  0  0  0  0  0  0  0  0  0
  152.8143  137.8909  155.8103 N   0  5  0  0  0  0  0  0  0  0  0  0
  151.8965  138.9026  155.7224 C   0  0  0  0  0  0  0  0  0  0  0  0
  151.4703  139.2970  154.6370 O   0  0  0  0  0  0  0  0  0  0  0  0
  150.7892  141.7301  155.8943 C   0  0  0  0  0  0  0  0  0  0  0  0
  151.0402  142.9647  156.7706 C   0  0  0  0  0  0  0  0  0  0  0  0
  150.6728  142.5596  158.1157 N   0  0  0  0  0  0  0  0  0  0  0  0
  150.7034  143.5232  159.2146 C   0  0  0  0  0  0  0  0  0  0  0  0
  152.1193  144.0674  159.4810 C   0  0  0  0  0  0  0  0  0  0  0  0
  152.1268  144.6951  160.6563 F   0  0  0  0  0  0  0  0  0  0  0  0
  153.0178  143.0839  159.5230 F   0  0  0  0  0  0  0  0  0  0  0  0
  152.4677  144.9382  158.5335 F   0  0  0  0  0  0  0  0  0  0  0  0
  149.4306  140.2085  156.5858 H   0  0  0  0  0  0  0  0  0  0  0  0
  151.4509  139.4706  158.9860 H   0  0  0  0  0  0  0  0  0  0  0  0
  151.6388  141.5133  155.2460 H   0  0  0  0  0  0  0  0  0  0  0  0
  149.9462  141.9249  155.2299 H   0  0  0  0  0  0  0  0  0  0  0  0
  152.0914  143.2541  156.7476 H   0  0  0  0  0  0  0  0  0  0  0  0
  150.4442  143.8167  156.4415 H   0  0  0  0  0  0  0  0  0  0  0  0
  150.0327  144.3508  158.9790 H   0  0  0  0  0  0  0  0  0  0  0  0
  150.3053  143.0590  160.1183 H   0  0  0  0  0  0  0  0  0  0  0  0
  1  2  2  0  0  0  0
  2 15  1  0  0  0  0
  2  3  1  0  0  0  0
  3  4  1  0  0  0  0
  3 13  1  0  0  0  0
  3 21  1  0  0  0  0
  4 11  1  0  0  0  0
  4  5  1  0  0  0  0
  5  6  2  0  0  0  0
  5 22  1  0  0  0  0
  6  7  1  0  0  0  0
  6  8  1  0  0  0  0
  8  9  2  0  0  0  0
  8 10  1  0  0  0  0
 10 11  1  0  0  0  0
 11 12  2  0  0  0  0
 13 14  1  0  0  0  0
 13 23  1  0  0  0  0
 13 24  1  0  0  0  0
 14 15  1  0  0  0  0
 14 25  1  0  0  0  0
 14 26  1  0  0  0  0
 15 16  1  0  0  0  0
 16 17  1  0  0  0  0
 16 27  1  0  0  0  0
 16 28  1  0  0  0  0
 17 18  1  0  0  0  0
 17 19  1  0  0  0  0
 17 20  1  0  0  0  0
M  CHG  1  10  -1
M  END
> <s_m_source_file>
AV-unprocessed.smi

> <i_m_source_file_index>
2246

> <i_lp_mmshare_version>
43012

> <i_f3d_flags>
0

> <s_epik_input>
RkMoRikoRilbQ0gyXU4xW0NIMl1bQ0gyXVtDQEBIXShDMT1PKW4yW2NIXWMoQ2wpYyg9TylbbkhdYzI9Tw==

> <s_epik_cmdline>
J2VwaWtfcHl0aG9uJywgJy1waCcsICc3LjAnLCAnLXRuJywgJzgnLCAnLW1hJywgJzIwMCcsICctbWV0YWxfYmluZGluZycsICctaW1hZScsICc8aW5maWxlLm1hZT4nLCAnLW9tYWUnLCAnPG91dGZpbGUubWFlPic=

> <r_epik_Ionization_Penalty>
1.33611

> <r_epik_Ionization_Penalty_Charging>
6.88308e-09

> <r_epik_Ionization_Penalty_Neutral>
1.33611

> <r_epik_State_Penalty>
1.41295

> <r_epik_Charging_Adjusted_Penalty>
1.41295

> <i_epik_Tot_Q>
-1

> <i_epik_Tot_abs_Q>
1

> <r_epik_Metal_State_Penalty>
0.00581136

> <b_epik_Metal_Only>
0

> <s_lp_Force_Field>
OPLS_2005

> <r_lp_Energy>
31.0989

> <b_lp_Chiralities_Consistent>
1

> <s_lp_Variant>
AV-unprocessed.smi:2246-4

> <Gold.Version>
5.8.1

> <Gold.Id.Protein>
6NUR|6NUR_protein|mol2

> <Gold.PLP.Fitness>
41.5077

> <Gold.PLP.PLP>
-36.3121

> <Gold.PLP.part.hbond>
-4.7928

> <Gold.PLP.part.metal>
0.0000

> <Gold.PLP.part.buried>
-0.6383

> <Gold.PLP.part.nonpolar>
-30.5014

> <Gold.PLP.part.repulsive>
0.0880

> <Gold.PLP.ligand.clash>
0.0079

> <Gold.PLP.ligand.torsion>
0.4404

> <Gold.PLP.Chemscore.Hbond>
1.9920

> <Gold.PLP.Chemscore.CHOScore>
0.0000

> <Gold.PLP.Chemscore.Metal>
0.0000

> <Gold.Chemscore.Hbonds>
donor molecule, donor type, donor heavy atom, donor atom, acceptor molecule, acceptor atom, score
      P1  H  7989  7998       L1    12  1.00
      P1  H 10752 10764       L1     9  0.99

> <Gold.PLP.Chemscore.Internal.Correction>
0.1082

> <Gold.Rescore>
     Score         DG    S(hbond)    S(metal)    S(lipo)     H(rot)  DE(clash)    DE(int)     intcor
     10.72     -14.68       1.81        0.00      58.55       1.45       2.19       1.76       ----

> <Gold.Chemscore.Fitness>
10.7246

> <Gold.Chemscore.DG>
-14.6774

> <Gold.Chemscore.ZeroCoef>
-5.4800

> <Gold.Chemscore.Hbond>
1.8122

> <Gold.Chemscore.Metal>
0.0000

> <Gold.Chemscore.Lipo>
58.5513

> <Gold.Chemscore.Internal_Hbond>
0.0000

> <Gold.Chemscore.DEClash>
2.1942

> <Gold.Chemscore.DEInternal>
1.7587

> <Gold.Chemscore.Rot>
1.4476

> <Gold.Chemscore.Internal.Correction>
   9.000000E+99

> <Gold.Chemscore.Hbonds>
donor molecule, donor type, donor heavy atom, donor atom, acceptor molecule, acceptor atom, score
      P1  H  7989  7998       L1    12  0.99
      P1  H 10752 10764       L1     9  0.71

> <Gold.Chemscore.Hbond.Weighted>
-6.0529

> <Gold.Chemscore.Metal.Weighted>
-0.0000

> <Gold.Chemscore.Lipo.Weighted>
-6.8505

> <Gold.Chemscore.Internal_Hbond.Weighted>
0.0000

> <Gold.Chemscore.DEClash.Weighted>
2.1942

> <Gold.Chemscore.DEInternal.Weighted>
1.7587

> <Gold.Chemscore.Rot.Weighted>
3.7059

> <Gold.Chemscore.Internal.Correction.Weighted>
   9.000000E+99

> <Gold.Protein.RotatedTorsions>
[ 6907 6896 6895 6894 ] final   67.65 input  -60.11 | X-H torsion
[ 7974 7965 7964 7962 ] final  -60.88 input  175.53 | X-H torsion
[ 8008 7997 7996 7995 ] final  -95.97 input   59.86 | X-H torsion
[ 10167 10162 10161 10158 ] final   32.68 input  -65.29 | X-H torsion
[ 10718 10713 10712 10709 ] final -110.60 input   66.30 | X-H torsion
[ 10763 10752 10751 10750 ] final   28.27 input  -60.55 | X-H torsion
[ 11005 11000 10999 10996 ] final  154.60 input  -57.11 | X-H torsion

> <Gold.Protein.ActiveResidues>
 VAL166  LYS551  ARG553  GLY616  TRP617  ASP618  TYR619  PRO620  LYS621  CYS622 
 ASP623  PHE694  ASN695  SER759  ASP760  ASP761  ALA762  ILE779  LEU786  VAL792 
 PHE793  MET794  SER795  GLU796  ALA797  LYS798  CYS799  TRP800  GLU811  SER814 

> <Gold.Protein.RotatedAtoms>
  152.4567  134.5277  159.9801 H   0  0  0  0  0  0  0  0  0  0  0  0  # atno 6907 bound_to 6896
  151.5336  133.3439  159.2930 H   0  0  0  0  0  0  0  0  0  0  0  0  # atno 6908 bound_to 6896
  150.8513  134.7869  159.7074 H   0  0  0  0  0  0  0  0  0  0  0  0  # atno 6909 bound_to 6896
  145.8102  140.8603  143.0186 H   0  0  0  0  0  0  0  0  0  0  0  0  # atno 7974 bound_to 7965
  154.7683  140.0475  157.1030 H   0  0  0  0  0  0  0  0  0  0  0  0  # atno 8008 bound_to 7997
  154.9852  140.3106  155.4910 H   0  0  0  0  0  0  0  0  0  0  0  0  # atno 8009 bound_to 7997
  156.2916  140.2228  156.4954 H   0  0  0  0  0  0  0  0  0  0  0  0  # atno 8010 bound_to 7997
  140.4477  144.1095  150.6185 H   0  0  0  0  0  0  0  0  0  0  0  0  # atno 10167 bound_to 10162
  156.0600  130.5824  150.8259 H   0  0  0  0  0  0  0  0  0  0  0  0  # atno 10718 bound_to 10713
  153.0502  135.6517  154.0712 H   0  0  0  0  0  0  0  0  0  0  0  0  # atno 10763 bound_to 10752
  154.0402  135.2904  155.3357 H   0  0  0  0  0  0  0  0  0  0  0  0  # atno 10764 bound_to 10752
  154.6786  135.5328  153.8299 H   0  0  0  0  0  0  0  0  0  0  0  0  # atno 10765 bound_to 10752
  140.1504  134.8678  157.2447 H   0  0  0  0  0  0  0  0  0  0  0  0  # atno 11005 bound_to 11000
  144.6758  140.0384  143.7481 LP  0  0  0  0  0  0  0  0  0  0  0  0  # atno 17320 bound_to 7965
  145.9785  139.2923  143.1056 LP  0  0  0  0  0  0  0  0  0  0  0  0  # atno 17321 bound_to 7965
  140.4244  143.2596  151.9674 LP  0  0  0  0  0  0  0  0  0  0  0  0  # atno 17342 bound_to 10162
  139.4794  144.5801  151.7946 LP  0  0  0  0  0  0  0  0  0  0  0  0  # atno 17343 bound_to 10162
  157.5601  131.0945  150.9572 LP  0  0  0  0  0  0  0  0  0  0  0  0  # atno 17370 bound_to 10713
  156.9812  130.5527  149.5296 LP  0  0  0  0  0  0  0  0  0  0  0  0  # atno 17371 bound_to 10713
  140.2611  134.3570  155.7406 LP  0  0  0  0  0  0  0  0  0  0  0  0  # atno 17394 bound_to 11000
  141.2198  133.7370  156.9082 LP  0  0  0  0  0  0  0  0  0  0  0  0  # atno 17395 bound_to 11000

$$$$
