AV-unprocessed.smi:1475|AV-procd|sdf|5979|dock1
  -GOLD-   22720 6 73D 1   1.00000     0.00000
 Structure written by MMmdl.
 50 51  0  0  0  0  0  0  0  0  2 V2000
  147.4206  141.7480  153.9830 C   0  0  0  0  0  0  0  0  0  0  0  0
  148.5932  140.9205  154.4203 C   0  0  0  0  0  0  0  0  0  0  0  0
  149.7569  141.3418  155.1226 C   0  0  0  0  0  0  0  0  0  0  0  0
  150.4977  140.2024  155.2639 C   0  0  0  0  0  0  0  0  0  0  0  0
  151.8263  139.9944  155.9139 C   0  0  0  0  0  0  0  0  0  0  0  0
  149.7813  139.1807  154.6645 N   0  0  0  0  0  0  0  0  0  0  0  0
  150.1240  137.7708  154.5279 C   0  0  0  0  0  0  0  0  0  0  0  0
  149.0838  136.8483  155.1746 C   0  0  0  0  0  0  0  0  0  0  0  0
  148.8960  136.8956  156.3896 O   0  0  0  0  0  0  0  0  0  0  0  0
  148.4247  136.0037  154.3663 N   0  0  0  0  0  0  0  0  0  0  0  0
  147.3948  135.0740  154.8054 C   0  0  0  0  0  0  0  0  0  0  0  0
  147.0551  134.0852  153.6789 C   0  0  0  0  0  0  0  0  0  0  0  0
  146.5730  134.7687  152.4487 N   0  3  1  0  0  0  0  0  0  0  0  0
  146.5450  133.8854  151.2534 C   0  0  0  0  0  0  0  0  0  0  0  0
  145.3603  132.8970  151.2878 C   0  0  2  0  0  0  0  0  0  0  0  0
  145.3499  131.9920  150.0477 C   0  0  0  0  0  0  0  0  0  0  0  0
  144.0358  133.6672  151.4307 C   0  0  0  0  0  0  0  0  0  0  0  0
  144.0643  134.5913  152.6608 C   0  0  2  0  0  0  0  0  0  0  0  0
  142.7637  135.3976  152.7832 C   0  0  0  0  0  0  0  0  0  0  0  0
  145.2974  135.5203  152.6064 C   0  0  0  0  0  0  0  0  0  0  0  0
  148.6150  139.6263  154.1480 N   0  0  0  0  0  0  0  0  0  0  0  0
  147.4254  142.7243  154.4677 H   0  0  0  0  0  0  0  0  0  0  0  0
  146.4774  141.2603  154.2313 H   0  0  0  0  0  0  0  0  0  0  0  0
  147.4379  141.9115  152.9054 H   0  0  0  0  0  0  0  0  0  0  0  0
  150.0090  142.3325  155.4712 H   0  0  0  0  0  0  0  0  0  0  0  0
  152.2291  140.9368  156.2858 H   0  0  0  0  0  0  0  0  0  0  0  0
  152.5453  139.5781  155.2082 H   0  0  0  0  0  0  0  0  0  0  0  0
  151.7428  139.3104  156.7586 H   0  0  0  0  0  0  0  0  0  0  0  0
  150.2215  137.5204  153.4716 H   0  0  0  0  0  0  0  0  0  0  0  0
  151.1014  137.6020  154.9828 H   0  0  0  0  0  0  0  0  0  0  0  0
  148.6398  136.0257  153.3799 H   0  0  0  0  0  0  0  0  0  0  0  0
  147.7598  134.5557  155.6918 H   0  0  0  0  0  0  0  0  0  0  0  0
  146.4998  135.6266  155.0968 H   0  0  0  0  0  0  0  0  0  0  0  0
  147.9624  133.5282  153.4403 H   0  0  0  0  0  0  0  0  0  0  0  0
  146.3299  133.3478  154.0225 H   0  0  0  0  0  0  0  0  0  0  0  0
  146.4700  134.5152  150.3657 H   0  0  0  0  0  0  0  0  0  0  0  0
  147.4913  133.3504  151.1623 H   0  0  0  0  0  0  0  0  0  0  0  0
  145.4739  132.2496  152.1584 H   0  0  0  0  0  0  0  0  0  0  0  0
  145.2285  132.5728  149.1327 H   0  0  0  0  0  0  0  0  0  0  0  0
  144.5331  131.2712  150.0947 H   0  0  0  0  0  0  0  0  0  0  0  0
  146.2800  131.4292  149.9639 H   0  0  0  0  0  0  0  0  0  0  0  0
  143.8549  134.2579  150.5312 H   0  0  0  0  0  0  0  0  0  0  0  0
  143.2044  132.9658  151.5123 H   0  0  0  0  0  0  0  0  0  0  0  0
  144.1349  133.9671  153.5516 H   0  0  0  0  0  0  0  0  0  0  0  0
  142.6205  136.0549  151.9249 H   0  0  0  0  0  0  0  0  0  0  0  0
  142.7697  136.0175  153.6803 H   0  0  0  0  0  0  0  0  0  0  0  0
  141.8974  134.7384  152.8450 H   0  0  0  0  0  0  0  0  0  0  0  0
  145.3323  136.1593  153.4877 H   0  0  0  0  0  0  0  0  0  0  0  0
  145.2015  136.1962  151.7556 H   0  0  0  0  0  0  0  0  0  0  0  0
  147.2800  135.4618  152.2481 H   0  0  0  0  0  0  0  0  0  0  0  0
  1  2  1  0  0  0  0
  1 22  1  0  0  0  0
  1 23  1  0  0  0  0
  1 24  1  0  0  0  0
  2 21  2  0  0  0  0
  2  3  1  0  0  0  0
  3  4  2  0  0  0  0
  3 25  1  0  0  0  0
  4  5  1  0  0  0  0
  4  6  1  0  0  0  0
  5 26  1  0  0  0  0
  5 27  1  0  0  0  0
  5 28  1  0  0  0  0
  6  7  1  0  0  0  0
  6 21  1  0  0  0  0
  7  8  1  0  0  0  0
  7 29  1  0  0  0  0
  7 30  1  0  0  0  0
  8  9  2  0  0  0  0
  8 10  1  0  0  0  0
 10 11  1  0  0  0  0
 10 31  1  0  0  0  0
 11 12  1  0  0  0  0
 11 32  1  0  0  0  0
 11 33  1  0  0  0  0
 12 13  1  0  0  0  0
 12 34  1  0  0  0  0
 12 35  1  0  0  0  0
 13 20  1  0  0  0  0
 13 14  1  0  0  0  0
 13 50  1  0  0  0  0
 14 15  1  0  0  0  0
 14 36  1  0  0  0  0
 14 37  1  0  0  0  0
 15 16  1  0  0  0  0
 15 17  1  0  0  0  0
 15 38  1  0  0  0  0
 16 39  1  0  0  0  0
 16 40  1  0  0  0  0
 16 41  1  0  0  0  0
 17 18  1  0  0  0  0
 17 42  1  0  0  0  0
 17 43  1  0  0  0  0
 18 19  1  0  0  0  0
 18 20  1  0  0  0  0
 18 44  1  0  0  0  0
 19 45  1  0  0  0  0
 19 46  1  0  0  0  0
 19 47  1  0  0  0  0
 20 48  1  0  0  0  0
 20 49  1  0  0  0  0
M  CHG  1  13   1
M  END
> <s_m_source_file>
AV-unprocessed.smi

> <i_m_source_file_index>
1475

> <i_lp_mmshare_version>
43012

> <i_f3d_flags>
0

> <s_epik_input>
W0NIM11jMVtjSF1jKFtDSDNdKW4objEpW0NIMl1DKD1PKVtOSF1bQ0gyXVtDSDJdTjJbQ0gyXVtDQEBIXShbQ0gzXSlbQ0gyXVtDQEBIXShbQ0gzXSlbQ0gyXTI=

> <s_epik_cmdline>
J2VwaWtfcHl0aG9uJywgJy1waCcsICc3LjAnLCAnLXRuJywgJzgnLCAnLW1hJywgJzIwMCcsICctbWV0YWxfYmluZGluZycsICctaW1hZScsICc8aW5maWxlLm1hZT4nLCAnLW9tYWUnLCAnPG91dGZpbGUubWFlPic=

> <r_lp_tautomer_probability>
1

> <r_epik_Ionization_Penalty>
0.00206431

> <r_epik_Ionization_Penalty_Charging>
0.00187095

> <r_epik_Ionization_Penalty_Neutral>
0.000193364

> <r_epik_State_Penalty>
-0

> <r_epik_Charging_Adjusted_Penalty>
0.00187095

> <i_epik_Tot_Q>
1

> <i_epik_Tot_abs_Q>
1

> <r_epik_Metal_State_Penalty>
-0

> <b_epik_Metal_Only>
0

> <s_lp_Force_Field>
OPLS_2005

> <r_lp_Energy>
18.0361

> <b_lp_Chiralities_Consistent>
1

> <s_lp_Variant>
AV-unprocessed.smi:1475-4

> <Gold.Version>
5.8.1

> <Gold.Id.Protein>
6NUR|6NUR_protein|mol2

> <Gold.PLP.Fitness>
46.0259

> <Gold.PLP.PLP>
-37.2038

> <Gold.PLP.part.hbond>
-2.0000

> <Gold.PLP.part.metal>
0.0000

> <Gold.PLP.part.buried>
-5.6287

> <Gold.PLP.part.nonpolar>
-30.9975

> <Gold.PLP.part.repulsive>
0.1747

> <Gold.PLP.ligand.clash>
0.0000

> <Gold.PLP.ligand.torsion>
0.1164

> <Gold.PLP.Chemscore.Hbond>
3.0000

> <Gold.PLP.Chemscore.CHOScore>
0.0000

> <Gold.PLP.Chemscore.Metal>
0.0000

> <Gold.Chemscore.Hbonds>
donor molecule, donor type, donor heavy atom, donor atom, acceptor molecule, acceptor atom, score
      L1  H    10    31       P1  7948  1.00
      L1  H    13    50       P1  7948  2.00

> <Gold.PLP.Chemscore.Internal.Correction>
0.0548

> <Gold.Rescore>
     Score         DG    S(hbond)    S(metal)    S(lipo)     H(rot)  DE(clash)    DE(int)     intcor
     18.41     -18.56       1.98        0.00      91.28       1.64       0.01       0.14       ----

> <Gold.Chemscore.Fitness>
18.4085

> <Gold.Chemscore.DG>
-18.5625

> <Gold.Chemscore.ZeroCoef>
-5.4800

> <Gold.Chemscore.Hbond>
1.9761

> <Gold.Chemscore.Metal>
0.0000

> <Gold.Chemscore.Lipo>
91.2848

> <Gold.Chemscore.Internal_Hbond>
0.0000

> <Gold.Chemscore.DEClash>
0.0110

> <Gold.Chemscore.DEInternal>
0.1429

> <Gold.Chemscore.Rot>
1.6399

> <Gold.Chemscore.Internal.Correction>
   9.000000E+99

> <Gold.Chemscore.Hbonds>
donor molecule, donor type, donor heavy atom, donor atom, acceptor molecule, acceptor atom, score
      L1  H    10    31       P1  7948  0.95
      L1  H    13    50       P1  7948  1.00

> <Gold.Chemscore.Hbond.Weighted>
-6.6003

> <Gold.Chemscore.Metal.Weighted>
-0.0000

> <Gold.Chemscore.Lipo.Weighted>
-10.6803

> <Gold.Chemscore.Internal_Hbond.Weighted>
0.0000

> <Gold.Chemscore.DEClash.Weighted>
0.0110

> <Gold.Chemscore.DEInternal.Weighted>
0.1429

> <Gold.Chemscore.Rot.Weighted>
4.1982

> <Gold.Chemscore.Internal.Correction.Weighted>
   9.000000E+99

> <Gold.Protein.RotatedTorsions>
[ 6907 6896 6895 6894 ] final  -88.63 input  -60.11 | X-H torsion
[ 7974 7965 7964 7962 ] final -159.47 input  175.53 | X-H torsion
[ 8008 7997 7996 7995 ] final   63.07 input   59.86 | X-H torsion
[ 10167 10162 10161 10158 ] final   97.24 input  -65.29 | X-H torsion
[ 10718 10713 10712 10709 ] final -104.01 input   66.30 | X-H torsion
[ 10763 10752 10751 10750 ] final  -61.92 input  -60.55 | X-H torsion
[ 11005 11000 10999 10996 ] final  -59.51 input  -57.11 | X-H torsion

> <Gold.Protein.ActiveResidues>
 VAL166  LYS551  ARG553  GLY616  TRP617  ASP618  TYR619  PRO620  LYS621  CYS622 
 ASP623  PHE694  ASN695  SER759  ASP760  ASP761  ALA762  ILE779  LEU786  VAL792 
 PHE793  MET794  SER795  GLU796  ALA797  LYS798  CYS799  TRP800  GLU811  SER814 

> <Gold.Protein.RotatedAtoms>
  150.6869  134.2712  159.4588 H   0  0  0  0  0  0  0  0  0  0  0  0  # atno 6907 bound_to 6896
  152.0634  134.9577  160.0584 H   0  0  0  0  0  0  0  0  0  0  0  0  # atno 6908 bound_to 6896
  152.0996  133.4208  159.4618 H   0  0  0  0  0  0  0  0  0  0  0  0  # atno 6909 bound_to 6896
  144.7464  140.3680  143.6082 H   0  0  0  0  0  0  0  0  0  0  0  0  # atno 7974 bound_to 7965
  155.6245  140.3496  155.4662 H   0  0  0  0  0  0  0  0  0  0  0  0  # atno 8008 bound_to 7997
  156.0053  140.1222  157.0531 H   0  0  0  0  0  0  0  0  0  0  0  0  # atno 8009 bound_to 7997
  154.4262  140.1092  156.5740 H   0  0  0  0  0  0  0  0  0  0  0  0  # atno 8010 bound_to 7997
  139.7819  144.6885  151.0011 H   0  0  0  0  0  0  0  0  0  0  0  0  # atno 10167 bound_to 10162
  156.0287  130.5495  150.7335 H   0  0  0  0  0  0  0  0  0  0  0  0  # atno 10718 bound_to 10713
  154.2920  135.6251  153.5389 H   0  0  0  0  0  0  0  0  0  0  0  0  # atno 10763 bound_to 10752
  152.9851  135.5658  154.5380 H   0  0  0  0  0  0  0  0  0  0  0  0  # atno 10764 bound_to 10752
  154.4992  135.2871  155.1410 H   0  0  0  0  0  0  0  0  0  0  0  0  # atno 10765 bound_to 10752
  141.1251  133.6617  156.5082 H   0  0  0  0  0  0  0  0  0  0  0  0  # atno 11005 bound_to 11000
  145.7107  139.1684  143.2540 LP  0  0  0  0  0  0  0  0  0  0  0  0  # atno 17320 bound_to 7965
  146.1349  140.7136  142.9394 LP  0  0  0  0  0  0  0  0  0  0  0  0  # atno 17321 bound_to 7965
  140.7818  143.4474  151.0463 LP  0  0  0  0  0  0  0  0  0  0  0  0  # atno 17342 bound_to 10162
  139.8154  143.7893  152.3174 LP  0  0  0  0  0  0  0  0  0  0  0  0  # atno 17343 bound_to 10162
  157.4922  131.0912  151.0414 LP  0  0  0  0  0  0  0  0  0  0  0  0  # atno 17370 bound_to 10713
  157.0817  130.5906  149.5422 LP  0  0  0  0  0  0  0  0  0  0  0  0  # atno 17371 bound_to 10713
  140.4390  134.7032  157.4982 LP  0  0  0  0  0  0  0  0  0  0  0  0  # atno 17394 bound_to 11000
  140.0242  134.6502  155.9197 LP  0  0  0  0  0  0  0  0  0  0  0  0  # atno 17395 bound_to 11000

$$$$
