AV-unprocessed.smi:3279|AV-procd|sdf|12548|dock6
  -GOLD-   2272018463D 1   1.00000     0.00000
 Structure written by MMmdl.
 35 35  0  0  0  0  0  0  0  0  2 V2000
  149.0047  138.5258  155.3143 C   0  0  0  0  0  0  0  0  0  0  0  0
  150.1824  138.1283  156.2173 C   0  0  2  0  0  0  0  0  0  0  0  0
  150.0673  138.7208  157.6399 C   0  0  0  0  0  0  0  0  0  0  0  0
  149.0248  138.0720  158.4289 N   0  0  0  0  0  0  0  0  0  0  0  0
  149.0520  136.7973  158.8460 C   0  0  0  0  0  0  0  0  0  0  0  0
  149.9476  136.0052  158.5535 O   0  0  0  0  0  0  0  0  0  0  0  0
  147.9087  136.3582  159.7574 C   0  0  0  0  0  0  0  0  0  0  0  0
  148.0907  136.9540  161.0393 O   0  0  0  0  0  0  0  0  0  0  0  0
  147.2076  136.5635  162.0938 C   0  0  0  0  0  0  0  0  0  0  0  0
  145.7492  136.9595  161.7872 C   0  0  0  0  0  0  0  0  0  0  0  0
  147.7043  137.3463  163.3196 C   0  0  0  0  0  0  0  0  0  0  0  0
  147.3296  135.0510  162.3652 C   0  0  0  0  0  0  0  0  0  0  0  0
  151.5058  138.4352  155.5715 C   0  0  0  0  0  0  0  0  0  0  0  0
  151.9066  139.6836  155.2861 N   0  0  0  0  0  0  0  0  0  0  0  0
  153.1035  139.5051  154.7109 N   0  0  0  0  0  0  0  0  0  0  0  0
  153.3921  138.1992  154.6627 N   0  0  0  0  0  0  0  0  0  0  0  0
  152.3904  137.4939  155.2045 N   0  5  0  0  0  0  0  0  0  0  0  0
  149.0661  138.0226  154.3488 H   0  0  0  0  0  0  0  0  0  0  0  0
  148.9886  139.6005  155.1306 H   0  0  0  0  0  0  0  0  0  0  0  0
  148.0525  138.2524  155.7691 H   0  0  0  0  0  0  0  0  0  0  0  0
  150.0911  137.0478  156.3408 H   0  0  0  0  0  0  0  0  0  0  0  0
  151.0098  138.5861  158.1717 H   0  0  0  0  0  0  0  0  0  0  0  0
  149.8931  139.7971  157.5955 H   0  0  0  0  0  0  0  0  0  0  0  0
  148.2528  138.6509  158.7276 H   0  0  0  0  0  0  0  0  0  0  0  0
  146.9615  136.6663  159.3141 H   0  0  0  0  0  0  0  0  0  0  0  0
  147.9191  135.2701  159.8089 H   0  0  0  0  0  0  0  0  0  0  0  0
  145.1069  136.7838  162.6508 H   0  0  0  0  0  0  0  0  0  0  0  0
  145.3345  136.3826  160.9605 H   0  0  0  0  0  0  0  0  0  0  0  0
  145.6735  138.0163  161.5293 H   0  0  0  0  0  0  0  0  0  0  0  0
  147.6522  138.4222  163.1481 H   0  0  0  0  0  0  0  0  0  0  0  0
  148.7410  137.1005  163.5522 H   0  0  0  0  0  0  0  0  0  0  0  0
  147.1056  137.1235  164.2037 H   0  0  0  0  0  0  0  0  0  0  0  0
  146.7791  134.7693  163.2634 H   0  0  0  0  0  0  0  0  0  0  0  0
  148.3704  134.7596  162.5116 H   0  0  0  0  0  0  0  0  0  0  0  0
  146.9288  134.4518  161.5481 H   0  0  0  0  0  0  0  0  0  0  0  0
  1  2  1  0  0  0  0
  1 18  1  0  0  0  0
  1 19  1  0  0  0  0
  1 20  1  0  0  0  0
  2  3  1  0  0  0  0
  2 13  1  0  0  0  0
  2 21  1  0  0  0  0
  3  4  1  0  0  0  0
  3 22  1  0  0  0  0
  3 23  1  0  0  0  0
  4  5  1  0  0  0  0
  4 24  1  0  0  0  0
  5  6  2  0  0  0  0
  5  7  1  0  0  0  0
  7  8  1  0  0  0  0
  7 25  1  0  0  0  0
  7 26  1  0  0  0  0
  8  9  1  0  0  0  0
  9 10  1  0  0  0  0
  9 11  1  0  0  0  0
  9 12  1  0  0  0  0
 10 27  1  0  0  0  0
 10 28  1  0  0  0  0
 10 29  1  0  0  0  0
 11 30  1  0  0  0  0
 11 31  1  0  0  0  0
 11 32  1  0  0  0  0
 12 33  1  0  0  0  0
 12 34  1  0  0  0  0
 12 35  1  0  0  0  0
 13 17  1  0  0  0  0
 13 14  2  0  0  0  0
 14 15  1  0  0  0  0
 15 16  2  0  0  0  0
 16 17  1  0  0  0  0
M  CHG  1  17  -1
M  END
> <s_m_source_file>
AV-unprocessed.smi

> <i_m_source_file_index>
3279

> <i_lp_mmshare_version>
43012

> <i_f3d_flags>
0

> <s_epik_input>
W25IXTFubm5jMVtDQEhdKFtDSDNdKVtDSDJdW05IXUMoPU8pW0NIMl1PQyhbQ0gzXSkoW0NIM10pW0NIM10=

> <s_epik_cmdline>
J2VwaWtfcHl0aG9uJywgJy1waCcsICc3LjAnLCAnLXRuJywgJzgnLCAnLW1hJywgJzIwMCcsICctbWV0YWxfYmluZGluZycsICctaW1hZScsICc8aW5maWxlLm1hZT4nLCAnLW9tYWUnLCAnPG91dGZpbGUubWFlPic=

> <r_epik_Ionization_Penalty>
0.054353

> <r_epik_Ionization_Penalty_Charging>
0.054353

> <r_epik_Ionization_Penalty_Neutral>
3.0997e-08

> <r_epik_State_Penalty>
0.0139445

> <r_epik_Charging_Adjusted_Penalty>
0.0682975

> <i_epik_Tot_Q>
-1

> <i_epik_Tot_abs_Q>
1

> <r_epik_Metal_State_Penalty>
0.0109703

> <b_epik_Metal_Only>
0

> <s_lp_Force_Field>
OPLS_2005

> <r_lp_Energy>
-0.4509

> <b_lp_Chiralities_Consistent>
1

> <s_lp_Variant>
AV-unprocessed.smi:3279-1

> <Gold.Version>
5.8.1

> <Gold.Id.Protein>
6NUR|6NUR_protein|mol2

> <Gold.PLP.Fitness>
41.2917

> <Gold.PLP.PLP>
-28.8343

> <Gold.PLP.part.hbond>
-7.5674

> <Gold.PLP.part.metal>
0.0000

> <Gold.PLP.part.buried>
-4.3377

> <Gold.PLP.part.nonpolar>
-18.0791

> <Gold.PLP.part.repulsive>
0.2635

> <Gold.PLP.ligand.clash>
0.0000

> <Gold.PLP.ligand.torsion>
0.3492

> <Gold.PLP.Chemscore.Hbond>
4.3418

> <Gold.PLP.Chemscore.CHOScore>
0.0000

> <Gold.PLP.Chemscore.Metal>
0.0000

> <Gold.Chemscore.Hbonds>
donor molecule, donor type, donor heavy atom, donor atom, acceptor molecule, acceptor atom, score
      P1  H  6896  6908       L1     6  0.91
      P1  H  6931  6943       L1     8  1.00
      P1  H  6934  6947       L1     8  0.19
      P1  H  7997  8009       L1    15  1.00
      P1  H 10752 10765       L1    17  1.19

> <Gold.PLP.Chemscore.Internal.Correction>
0.1304

> <Gold.Rescore>
     Score         DG    S(hbond)    S(metal)    S(lipo)     H(rot)  DE(clash)    DE(int)     intcor
     12.73     -13.39       2.81        0.00      45.17       2.64       0.34       0.31       ----

> <Gold.Chemscore.Fitness>
12.7329

> <Gold.Chemscore.DG>
-13.3862

> <Gold.Chemscore.ZeroCoef>
-5.4800

> <Gold.Chemscore.Hbond>
2.8089

> <Gold.Chemscore.Metal>
0.0000

> <Gold.Chemscore.Lipo>
45.1724

> <Gold.Chemscore.Internal_Hbond>
0.0000

> <Gold.Chemscore.DEClash>
0.3402

> <Gold.Chemscore.DEInternal>
0.3130

> <Gold.Chemscore.Rot>
2.6409

> <Gold.Chemscore.Internal.Correction>
   9.000000E+99

> <Gold.Chemscore.Hbonds>
donor molecule, donor type, donor heavy atom, donor atom, acceptor molecule, acceptor atom, score
      P1  H  6896  6908       L1     6  0.89
      P1  H  6931  6943       L1     8  0.25
      P1  H  6934  6947       L1     8  0.01
      P1  H  7997  8009       L1    15  0.31
      P1  H 10752 10765       L1    17  0.13

> <Gold.Chemscore.Hbond.Weighted>
-9.3817

> <Gold.Chemscore.Metal.Weighted>
-0.0000

> <Gold.Chemscore.Lipo.Weighted>
-5.2852

> <Gold.Chemscore.Internal_Hbond.Weighted>
0.0000

> <Gold.Chemscore.DEClash.Weighted>
0.3402

> <Gold.Chemscore.DEInternal.Weighted>
0.3130

> <Gold.Chemscore.Rot.Weighted>
6.7607

> <Gold.Chemscore.Internal.Correction.Weighted>
   9.000000E+99

> <Gold.Protein.RotatedTorsions>
[ 6907 6896 6895 6894 ] final  165.27 input  -60.11 | X-H torsion
[ 7974 7965 7964 7962 ] final -176.75 input  175.53 | X-H torsion
[ 8008 7997 7996 7995 ] final -130.39 input   59.86 | X-H torsion
[ 10167 10162 10161 10158 ] final  -28.63 input  -65.29 | X-H torsion
[ 10718 10713 10712 10709 ] final   27.03 input   66.30 | X-H torsion
[ 10763 10752 10751 10750 ] final -174.56 input  -60.55 | X-H torsion
[ 11005 11000 10999 10996 ] final   -5.18 input  -57.11 | X-H torsion

> <Gold.Protein.ActiveResidues>
 VAL166  LYS551  ARG553  GLY616  TRP617  ASP618  TYR619  PRO620  LYS621  CYS622 
 ASP623  PHE694  ASN695  SER759  ASP760  ASP761  ALA762  ILE779  LEU786  VAL792 
 PHE793  MET794  SER795  GLU796  ALA797  LYS798  CYS799  TRP800  GLU811  SER814 

> <Gold.Protein.RotatedAtoms>
  151.8970  133.3529  159.3817 H   0  0  0  0  0  0  0  0  0  0  0  0  # atno 6907 bound_to 6896
  150.7089  134.4867  159.5505 H   0  0  0  0  0  0  0  0  0  0  0  0  # atno 6908 bound_to 6896
  152.2448  134.8193  160.0506 H   0  0  0  0  0  0  0  0  0  0  0  0  # atno 6909 bound_to 6896
  144.7127  140.1123  143.6410 H   0  0  0  0  0  0  0  0  0  0  0  0  # atno 7974 bound_to 7965
  155.2950  140.0450  157.3025 H   0  0  0  0  0  0  0  0  0  0  0  0  # atno 8008 bound_to 7997
  154.5519  140.2320  155.8439 H   0  0  0  0  0  0  0  0  0  0  0  0  # atno 8009 bound_to 7997
  156.1974  140.3035  155.9463 H   0  0  0  0  0  0  0  0  0  0  0  0  # atno 8010 bound_to 7997
  140.7268  143.3994  151.1291 H   0  0  0  0  0  0  0  0  0  0  0  0  # atno 10167 bound_to 10162
  157.2148  130.6951  149.6244 H   0  0  0  0  0  0  0  0  0  0  0  0  # atno 10718 bound_to 10713
  154.5948  135.2848  155.0597 H   0  0  0  0  0  0  0  0  0  0  0  0  # atno 10763 bound_to 10752
  154.1884  135.6445  153.5057 H   0  0  0  0  0  0  0  0  0  0  0  0  # atno 10764 bound_to 10752
  153.0134  135.5440  154.6647 H   0  0  0  0  0  0  0  0  0  0  0  0  # atno 10765 bound_to 10752
  140.6884  133.9093  155.8601 H   0  0  0  0  0  0  0  0  0  0  0  0  # atno 11005 bound_to 11000
  145.9444  139.2691  143.1249 LP  0  0  0  0  0  0  0  0  0  0  0  0  # atno 17320 bound_to 7965
  145.9389  140.8994  143.0318 LP  0  0  0  0  0  0  0  0  0  0  0  0  # atno 17321 bound_to 7965
  139.7612  143.8633  152.3100 LP  0  0  0  0  0  0  0  0  0  0  0  0  # atno 17342 bound_to 10162
  139.8520  144.7160  150.9203 LP  0  0  0  0  0  0  0  0  0  0  0  0  # atno 17343 bound_to 10162
  155.9687  130.4539  150.5830 LP  0  0  0  0  0  0  0  0  0  0  0  0  # atno 17370 bound_to 10713
  157.3636  131.0754  151.1616 LP  0  0  0  0  0  0  0  0  0  0  0  0  # atno 17371 bound_to 10713
  141.0262  134.0821  157.4066 LP  0  0  0  0  0  0  0  0  0  0  0  0  # atno 17394 bound_to 11000
  139.8931  135.0128  156.6880 LP  0  0  0  0  0  0  0  0  0  0  0  0  # atno 17395 bound_to 11000

$$$$
