AV-unprocessed.smi:228|AV-procd|sdf|1743|dock8
  -GOLD-   2262020253D 1   1.00000     0.00000
 Structure written by MMmdl.
 60 63  0  0  0  0  0  0  0  0  2 V2000
  150.4104  131.7325  157.1594 C   0  0  0  0  0  0  0  0  0  0  0  0
  150.2558  131.0320  155.8893 N   0  0  0  0  0  0  0  0  0  0  0  0
  150.1061  129.5755  155.9348 C   0  0  0  0  0  0  0  0  0  0  0  0
  151.2956  128.7820  155.3429 C   0  0  2  0  0  0  0  0  0  0  0  0
  151.6403  129.4146  154.1288 O   0  0  0  0  0  0  0  0  0  0  0  0
  150.9766  127.3042  155.0206 C   0  0  0  0  0  0  0  0  0  0  0  0
  152.0634  126.6127  154.2786 N   0  3  0  0  0  0  0  0  0  0  0  0
  153.3513  126.6473  155.0117 C   0  0  0  0  0  0  0  0  0  0  0  0
  154.4580  125.9487  154.2042 C   0  0  0  0  0  0  0  0  0  0  0  0
  154.0684  124.6116  153.9201 O   0  0  0  0  0  0  0  0  0  0  0  0
  152.8887  124.5614  153.1293 C   0  0  0  0  0  0  0  0  0  0  0  0
  151.7232  125.2203  153.8876 C   0  0  0  0  0  0  0  0  0  0  0  0
  149.6104  131.7529  154.9366 C   0  0  0  0  0  0  0  0  0  0  0  0
  149.9182  133.0624  154.7444 N   0  0  0  0  0  0  0  0  0  0  0  0
  149.2686  133.7806  153.8237 C   0  0  0  0  0  0  0  0  0  0  0  0
  148.2872  133.3954  153.0063 N   0  0  0  0  0  0  0  0  0  0  0  0
  147.9765  132.0806  153.1897 C   0  0  0  0  0  0  0  0  0  0  0  0
  148.5920  131.1924  154.1158 C   0  0  0  0  0  0  0  0  0  0  0  0
  148.0143  129.9325  154.0180 N   0  0  0  0  0  0  0  0  0  0  0  0
  147.1169  130.0649  153.0799 C   0  0  0  0  0  0  0  0  0  0  0  0
  146.9988  131.3329  152.5570 N   0  0  0  0  0  0  0  0  0  0  0  0
  146.1096  131.7554  151.5152 C   0  0  0  0  0  0  0  0  0  0  0  0
  145.8946  133.2437  151.2263 C   0  0  0  0  0  0  0  0  0  0  0  0
  144.4054  132.9817  150.9117 C   0  0  0  0  0  0  0  0  0  0  0  0
  143.4176  133.9591  151.5678 C   0  0  0  0  0  0  0  0  0  0  0  0
  143.5487  133.9601  152.9749 O   0  0  0  0  0  0  0  0  0  0  0  0
  144.0105  132.8677  149.4220 C   0  0  0  0  0  0  0  0  0  0  0  0
  142.8439  132.0990  149.2094 O   0  0  0  0  0  0  0  0  0  0  0  0
  144.5891  131.6515  151.6765 C   0  0  0  0  0  0  0  0  0  0  0  0
  151.3466  132.2906  157.1712 H   0  0  0  0  0  0  0  0  0  0  0  0
  150.4294  131.0351  157.9973 H   0  0  0  0  0  0  0  0  0  0  0  0
  149.5909  132.4318  157.3328 H   0  0  0  0  0  0  0  0  0  0  0  0
  149.9686  129.2765  156.9747 H   0  0  0  0  0  0  0  0  0  0  0  0
  149.1835  129.3038  155.4195 H   0  0  0  0  0  0  0  0  0  0  0  0
  152.1765  128.8602  155.9762 H   0  0  0  0  0  0  0  0  0  0  0  0
  151.8975  128.7522  153.5052 H   0  0  0  0  0  0  0  0  0  0  0  0
  150.7733  126.7806  155.9563 H   0  0  0  0  0  0  0  0  0  0  0  0
  150.0611  127.2310  154.4307 H   0  0  0  0  0  0  0  0  0  0  0  0
  153.6381  127.6816  155.2046 H   0  0  0  0  0  0  0  0  0  0  0  0
  153.2332  126.1597  155.9807 H   0  0  0  0  0  0  0  0  0  0  0  0
  154.6674  126.4860  153.2787 H   0  0  0  0  0  0  0  0  0  0  0  0
  155.3851  125.9313  154.7770 H   0  0  0  0  0  0  0  0  0  0  0  0
  153.0614  125.0497  152.1710 H   0  0  0  0  0  0  0  0  0  0  0  0
  152.6528  123.5195  152.9126 H   0  0  0  0  0  0  0  0  0  0  0  0
  151.4900  124.6371  154.7798 H   0  0  0  0  0  0  0  0  0  0  0  0
  150.8365  125.2047  153.2552 H   0  0  0  0  0  0  0  0  0  0  0  0
  149.5739  134.8128  153.7335 H   0  0  0  0  0  0  0  0  0  0  0  0
  146.5019  129.2380  152.7552 H   0  0  0  0  0  0  0  0  0  0  0  0
  146.4388  131.2332  150.6161 H   0  0  0  0  0  0  0  0  0  0  0  0
  146.0369  133.8623  152.1144 H   0  0  0  0  0  0  0  0  0  0  0  0
  146.4785  133.6269  150.3889 H   0  0  0  0  0  0  0  0  0  0  0  0
  143.5625  134.9745  151.1976 H   0  0  0  0  0  0  0  0  0  0  0  0
  142.3876  133.6892  151.3321 H   0  0  0  0  0  0  0  0  0  0  0  0
  143.1030  133.2013  153.3194 H   0  0  0  0  0  0  0  0  0  0  0  0
  143.8380  133.8545  148.9914 H   0  0  0  0  0  0  0  0  0  0  0  0
  144.8107  132.4097  148.8401 H   0  0  0  0  0  0  0  0  0  0  0  0
  142.0967  132.6776  149.2204 H   0  0  0  0  0  0  0  0  0  0  0  0
  144.1455  130.7794  151.1948 H   0  0  0  0  0  0  0  0  0  0  0  0
  144.2760  131.7177  152.7197 H   0  0  0  0  0  0  0  0  0  0  0  0
  152.2104  127.1350  153.4263 H   0  0  0  0  0  0  0  0  0  0  0  0
  1  2  1  0  0  0  0
  1 30  1  0  0  0  0
  1 31  1  0  0  0  0
  1 32  1  0  0  0  0
  2  3  1  0  0  0  0
  2 13  1  0  0  0  0
  3  4  1  0  0  0  0
  3 33  1  0  0  0  0
  3 34  1  0  0  0  0
  4  5  1  0  0  0  0
  4  6  1  0  0  0  0
  4 35  1  0  0  0  0
  5 36  1  0  0  0  0
  6  7  1  0  0  0  0
  6 37  1  0  0  0  0
  6 38  1  0  0  0  0
  7 12  1  0  0  0  0
  7  8  1  0  0  0  0
  7 60  1  0  0  0  0
  8  9  1  0  0  0  0
  8 39  1  0  0  0  0
  8 40  1  0  0  0  0
  9 10  1  0  0  0  0
  9 41  1  0  0  0  0
  9 42  1  0  0  0  0
 10 11  1  0  0  0  0
 11 12  1  0  0  0  0
 11 43  1  0  0  0  0
 11 44  1  0  0  0  0
 12 45  1  0  0  0  0
 12 46  1  0  0  0  0
 13 18  1  0  0  0  0
 13 14  2  0  0  0  0
 14 15  1  0  0  0  0
 15 16  2  0  0  0  0
 15 47  1  0  0  0  0
 16 17  1  0  0  0  0
 17 21  1  0  0  0  0
 17 18  2  0  0  0  0
 18 19  1  0  0  0  0
 19 20  2  0  0  0  0
 20 21  1  0  0  0  0
 20 48  1  0  0  0  0
 21 22  1  0  0  0  0
 22 29  1  0  0  0  0
 22 23  1  0  0  0  0
 22 49  1  0  0  0  0
 23 24  1  0  0  0  0
 23 50  1  0  0  0  0
 23 51  1  0  0  0  0
 24 25  1  0  0  0  0
 24 27  1  0  0  0  0
 24 29  1  0  0  0  0
 25 26  1  0  0  0  0
 25 52  1  0  0  0  0
 25 53  1  0  0  0  0
 26 54  1  0  0  0  0
 27 28  1  0  0  0  0
 27 55  1  0  0  0  0
 27 56  1  0  0  0  0
 28 57  1  0  0  0  0
 29 58  1  0  0  0  0
 29 59  1  0  0  0  0
M  CHG  1   7   1
M  END
> <s_m_source_file>
AV-unprocessed.smi

> <i_m_source_file_index>
228

> <i_lp_mmshare_version>
43012

> <i_f3d_flags>
0

> <s_epik_input>
W0NIMl0xW0NIMl1PW0NIMl1bQ0gyXU4xW0NIMl1bQ0BASF0oW09IXSlbQ0gyXU4oW0NIM10pYyhuW2NIXW4yKWMoYzIzKW5bY0hdbjNbQ0hdKFtDSDJdNClbQ0gyXUM0KFtDSDJdW09IXSlbQ0gyXVtPSF0=

> <s_epik_cmdline>
J2VwaWtfcHl0aG9uJywgJy1waCcsICc3LjAnLCAnLXRuJywgJzgnLCAnLW1hJywgJzIwMCcsICctbWV0YWxfYmluZGluZycsICctaW1hZScsICc8aW5maWxlLm1hZT4nLCAnLW9tYWUnLCAnPG91dGZpbGUubWFlPic=

> <r_lp_tautomer_probability>
1

> <r_epik_Ionization_Penalty>
0.403032

> <r_epik_Ionization_Penalty_Charging>
0.40072

> <r_epik_Ionization_Penalty_Neutral>
0.00231206

> <r_epik_State_Penalty>
0.387266

> <r_epik_Charging_Adjusted_Penalty>
0.787986

> <i_epik_Tot_Q>
1

> <i_epik_Tot_abs_Q>
1

> <r_epik_Metal_State_Penalty>
0.385845

> <b_epik_Metal_Only>
0

> <s_lp_Force_Field>
OPLS_2005

> <r_lp_Energy>
45.878

> <b_lp_Chiralities_Consistent>
1

> <s_lp_Variant>
AV-unprocessed.smi:228-1

> <Gold.Version>
5.8.1

> <Gold.Id.Protein>
6NUR|6NUR_protein|mol2

> <Gold.PLP.Fitness>
56.4762

> <Gold.PLP.PLP>
-41.5720

> <Gold.PLP.part.hbond>
-6.0000

> <Gold.PLP.part.metal>
0.0000

> <Gold.PLP.part.buried>
-2.1290

> <Gold.PLP.part.nonpolar>
-33.4365

> <Gold.PLP.part.repulsive>
0.3713

> <Gold.PLP.ligand.clash>
0.0000

> <Gold.PLP.ligand.torsion>
1.2162

> <Gold.PLP.Chemscore.Hbond>
4.9013

> <Gold.PLP.Chemscore.CHOScore>
0.5322

> <Gold.PLP.Chemscore.Metal>
0.0000

> <Gold.Chemscore.Hbonds>
donor molecule, donor type, donor heavy atom, donor atom, acceptor molecule, acceptor atom, score
      L1  H     5    36       P1 10737  0.98
      L1  H     7    60       P1 10737  1.00
      L1  H    26    54       P1 10957  0.86
      L1  H    28    57       P1 10186  0.91
      P1  H 10785 10796       L1    28  0.98
      L1  C    15    47       P1  7948  0.47

> <Gold.PLP.Chemscore.Internal.Correction>
1.0362

> <Gold.Rescore>
     Score         DG    S(hbond)    S(metal)    S(lipo)     H(rot)  DE(clash)    DE(int)     intcor
     13.15     -16.91       4.60        0.00      70.96       4.77       0.24       3.52       ----

> <Gold.Chemscore.Fitness>
13.1542

> <Gold.Chemscore.DG>
-16.9119

> <Gold.Chemscore.ZeroCoef>
-5.4800

> <Gold.Chemscore.Hbond>
4.5958

> <Gold.Chemscore.Metal>
0.0000

> <Gold.Chemscore.Lipo>
70.9643

> <Gold.Chemscore.Internal_Hbond>
0.0000

> <Gold.Chemscore.DEClash>
0.2407

> <Gold.Chemscore.DEInternal>
3.5170

> <Gold.Chemscore.Rot>
4.7738

> <Gold.Chemscore.Internal.Correction>
   9.000000E+99

> <Gold.Chemscore.Hbonds>
donor molecule, donor type, donor heavy atom, donor atom, acceptor molecule, acceptor atom, score
      L1  H     5    36       P1 10737  0.55
      L1  H     7    60       P1 10737  1.00
      L1  H    26    54       P1 10957  0.75
      L1  H    28    57       P1 10186  0.87
      P1  H 10785 10796       L1    28  0.82

> <Gold.Chemscore.Hbond.Weighted>
-15.3499

> <Gold.Chemscore.Metal.Weighted>
-0.0000

> <Gold.Chemscore.Lipo.Weighted>
-8.3028

> <Gold.Chemscore.Internal_Hbond.Weighted>
0.0000

> <Gold.Chemscore.DEClash.Weighted>
0.2407

> <Gold.Chemscore.DEInternal.Weighted>
3.5170

> <Gold.Chemscore.Rot.Weighted>
12.2208

> <Gold.Chemscore.Internal.Correction.Weighted>
   9.000000E+99

> <Gold.Protein.RotatedTorsions>
[ 6907 6896 6895 6894 ] final  -81.54 input  -60.11 | X-H torsion
[ 7974 7965 7964 7962 ] final  -65.80 input  175.53 | X-H torsion
[ 8008 7997 7996 7995 ] final    9.48 input   59.86 | X-H torsion
[ 10167 10162 10161 10158 ] final  140.96 input  -65.29 | X-H torsion
[ 10718 10713 10712 10709 ] final  -92.48 input   66.30 | X-H torsion
[ 10763 10752 10751 10750 ] final -150.08 input  -60.55 | X-H torsion
[ 11005 11000 10999 10996 ] final -137.98 input  -57.11 | X-H torsion

> <Gold.Protein.ActiveResidues>
 VAL166  LYS551  ARG553  GLY616  TRP617  ASP618  TYR619  PRO620  LYS621  CYS622 
 ASP623  PHE694  ASN695  SER759  ASP760  ASP761  ALA762  ILE779  LEU786  VAL792 
 PHE793  MET794  SER795  GLU796  ALA797  LYS798  CYS799  TRP800  GLU811  SER814 

> <Gold.Protein.RotatedAtoms>
  150.6910  134.3802  159.5030 H   0  0  0  0  0  0  0  0  0  0  0  0  # atno 6907 bound_to 6896
  152.1605  134.8913  160.0551 H   0  0  0  0  0  0  0  0  0  0  0  0  # atno 6908 bound_to 6896
  151.9977  133.3779  159.4206 H   0  0  0  0  0  0  0  0  0  0  0  0  # atno 6909 bound_to 6896
  145.7498  140.8914  143.0486 H   0  0  0  0  0  0  0  0  0  0  0  0  # atno 7974 bound_to 7965
  154.7805  140.2818  155.6067 H   0  0  0  0  0  0  0  0  0  0  0  0  # atno 8008 bound_to 7997
  156.2949  140.2624  156.2558 H   0  0  0  0  0  0  0  0  0  0  0  0  # atno 8009 bound_to 7997
  154.9790  140.0375  157.2258 H   0  0  0  0  0  0  0  0  0  0  0  0  # atno 8010 bound_to 7997
  139.5034  144.6201  151.6070 H   0  0  0  0  0  0  0  0  0  0  0  0  # atno 10167 bound_to 10162
  156.0003  130.4989  150.5632 H   0  0  0  0  0  0  0  0  0  0  0  0  # atno 10718 bound_to 10713
  154.8140  135.3293  154.7228 H   0  0  0  0  0  0  0  0  0  0  0  0  # atno 10763 bound_to 10752
  153.7872  135.6914  153.4882 H   0  0  0  0  0  0  0  0  0  0  0  0  # atno 10764 bound_to 10752
  153.1941  135.4540  155.0132 H   0  0  0  0  0  0  0  0  0  0  0  0  # atno 10765 bound_to 10752
  140.8659  134.2111  157.4680 H   0  0  0  0  0  0  0  0  0  0  0  0  # atno 11005 bound_to 11000
  144.6852  139.9575  143.7479 LP  0  0  0  0  0  0  0  0  0  0  0  0  # atno 17320 bound_to 7965
  146.0368  139.3385  143.0722 LP  0  0  0  0  0  0  0  0  0  0  0  0  # atno 17321 bound_to 7965
  140.5901  143.9794  150.6319 LP  0  0  0  0  0  0  0  0  0  0  0  0  # atno 17342 bound_to 10162
  140.2972  143.3284  152.1006 LP  0  0  0  0  0  0  0  0  0  0  0  0  # atno 17343 bound_to 10162
  157.3538  131.0738  151.1692 LP  0  0  0  0  0  0  0  0  0  0  0  0  # atno 17370 bound_to 10713
  157.2499  130.6609  149.5927 LP  0  0  0  0  0  0  0  0  0  0  0  0  # atno 17371 bound_to 10713
  139.8709  134.9751  156.4873 LP  0  0  0  0  0  0  0  0  0  0  0  0  # atno 17394 bound_to 11000
  140.8629  133.8046  155.9284 LP  0  0  0  0  0  0  0  0  0  0  0  0  # atno 17395 bound_to 11000

$$$$
