AV-unprocessed.smi:775|AV-procd|sdf|3698|dock5
  -GOLD-   22720 1123D 1   1.00000     0.00000
 Structure written by MMmdl.
 38 39  0  0  0  0  0  0  0  0  1 V2000
  151.9848  139.2367  158.2683 C   0  0  0  0  0  0  0  0  0  0  0  0
  151.6219  140.7033  158.5432 C   0  0  1  0  0  0  0  0  0  0  0  0
  152.6422  141.3414  159.5161 C   0  0  0  0  0  0  0  0  0  0  0  0
  152.3185  142.7065  159.8944 N   0  0  0  0  0  0  0  0  0  0  0  0
  152.3094  143.8373  159.1041 C   0  0  0  0  0  0  0  0  0  0  0  0
  151.9259  144.8833  159.8938 C   0  0  0  0  0  0  0  0  0  0  0  0
  151.7021  144.2827  161.1639 C   0  0  0  0  0  0  0  0  0  0  0  0
  151.9272  142.9792  161.1579 N   0  0  0  0  0  0  0  0  0  0  0  0
  151.6127  141.3824  157.2497 N   0  0  0  0  0  0  0  0  0  0  0  0
  150.2571  141.5824  156.7204 C   0  0  0  0  0  0  0  0  0  0  0  0
  150.0094  140.7447  155.4589 C   0  0  0  0  0  0  0  0  0  0  0  0
  150.9397  140.0484  155.0494 O   0  0  0  0  0  0  0  0  0  0  0  0
  148.7994  140.7707  154.8436 N   0  0  0  0  0  0  0  0  0  0  0  0
  147.6789  141.6078  155.3055 C   0  0  0  0  0  0  0  0  0  0  0  0
  146.7975  142.0814  154.1418 C   0  0  0  0  0  0  0  0  0  0  0  0
  146.4051  140.9795  153.2818 N   0  0  0  0  0  0  0  0  0  0  0  0
  147.1989  139.9365  153.0113 C   0  0  0  0  0  0  0  0  0  0  0  0
  146.8552  139.0479  152.2351 O   0  0  0  0  0  0  0  0  0  0  0  0
  148.5652  139.8494  153.7109 C   0  0  0  0  0  0  0  0  0  0  0  0
  151.9804  138.6536  159.1897 H   0  0  0  0  0  0  0  0  0  0  0  0
  152.9770  139.1457  157.8245 H   0  0  0  0  0  0  0  0  0  0  0  0
  151.2701  138.7722  157.5877 H   0  0  0  0  0  0  0  0  0  0  0  0
  150.6234  140.7077  158.9836 H   0  0  0  0  0  0  0  0  0  0  0  0
  152.6820  140.7606  160.4383 H   0  0  0  0  0  0  0  0  0  0  0  0
  153.6477  141.3078  159.0920 H   0  0  0  0  0  0  0  0  0  0  0  0
  152.5789  143.8046  158.0587 H   0  0  0  0  0  0  0  0  0  0  0  0
  151.8169  145.9184  159.6065 H   0  0  0  0  0  0  0  0  0  0  0  0
  151.3811  144.7507  162.0828 H   0  0  0  0  0  0  0  0  0  0  0  0
  152.1644  140.8380  156.6019 H   0  0  0  0  0  0  0  0  0  0  0  0
  149.5303  141.2845  157.4777 H   0  0  0  0  0  0  0  0  0  0  0  0
  150.0612  142.6322  156.5117 H   0  0  0  0  0  0  0  0  0  0  0  0
  147.0858  141.0317  156.0170 H   0  0  0  0  0  0  0  0  0  0  0  0
  148.0155  142.5019  155.8261 H   0  0  0  0  0  0  0  0  0  0  0  0
  145.9038  142.5769  154.5213 H   0  0  0  0  0  0  0  0  0  0  0  0
  147.3357  142.8146  153.5396 H   0  0  0  0  0  0  0  0  0  0  0  0
  145.5000  141.0294  152.8369 H   0  0  0  0  0  0  0  0  0  0  0  0
  149.3255  140.0208  152.9469 H   0  0  0  0  0  0  0  0  0  0  0  0
  148.6953  138.8230  154.0586 H   0  0  0  0  0  0  0  0  0  0  0  0
  1  2  1  0  0  0  0
  1 20  1  0  0  0  0
  1 21  1  0  0  0  0
  1 22  1  0  0  0  0
  2  3  1  0  0  0  0
  2  9  1  0  0  0  0
  2 23  1  0  0  0  0
  3  4  1  0  0  0  0
  3 24  1  0  0  0  0
  3 25  1  0  0  0  0
  4  8  1  0  0  0  0
  4  5  1  0  0  0  0
  5  6  2  0  0  0  0
  5 26  1  0  0  0  0
  6  7  1  0  0  0  0
  6 27  1  0  0  0  0
  7  8  2  0  0  0  0
  7 28  1  0  0  0  0
  9 10  1  0  0  0  0
  9 29  1  0  0  0  0
 10 11  1  0  0  0  0
 10 30  1  0  0  0  0
 10 31  1  0  0  0  0
 11 12  2  0  0  0  0
 11 13  1  0  0  0  0
 13 19  1  0  0  0  0
 13 14  1  0  0  0  0
 14 15  1  0  0  0  0
 14 32  1  0  0  0  0
 14 33  1  0  0  0  0
 15 16  1  0  0  0  0
 15 34  1  0  0  0  0
 15 35  1  0  0  0  0
 16 17  1  0  0  0  0
 16 36  1  0  0  0  0
 17 18  2  0  0  0  0
 17 19  1  0  0  0  0
 19 37  1  0  0  0  0
 19 38  1  0  0  0  0
M  END
> <s_m_source_file>
AV-unprocessed.smi

> <i_m_source_file_index>
775

> <i_lp_mmshare_version>
43012

> <i_f3d_flags>
0

> <s_epik_input>
bjFbY0hdW2NIXVtjSF1uMVtDSDJdW0NAQEhdKFtDSDNdKVtOSF1bQ0gyXUMoPU8pTjJbQ0gyXVtDSDJdW05IXUMoPU8pW0NIMl0y

> <s_epik_cmdline>
J2VwaWtfcHl0aG9uJywgJy1waCcsICc3LjAnLCAnLXRuJywgJzgnLCAnLW1hJywgJzIwMCcsICctbWV0YWxfYmluZGluZycsICctaW1hZScsICc8aW5maWxlLm1hZT4nLCAnLW9tYWUnLCAnPG91dGZpbGUubWFlPic=

> <r_lp_tautomer_probability>
1

> <r_epik_Ionization_Penalty>
0.836058

> <r_epik_Ionization_Penalty_Charging>
0

> <r_epik_Ionization_Penalty_Neutral>
0.836058

> <r_epik_State_Penalty>
0.870309

> <r_epik_Charging_Adjusted_Penalty>
0.870309

> <i_epik_Tot_Q>
0

> <i_epik_Tot_abs_Q>
0

> <r_epik_Metal_State_Penalty>
0.870266

> <b_epik_Metal_Only>
0

> <s_lp_Force_Field>
OPLS_2005

> <r_lp_Energy>
25.6331

> <b_lp_Chiralities_Consistent>
1

> <s_lp_Variant>
AV-unprocessed.smi:775-4

> <Gold.Version>
5.8.1

> <Gold.Id.Protein>
6NUR|6NUR_protein|mol2

> <Gold.PLP.Fitness>
46.3907

> <Gold.PLP.PLP>
-42.4411

> <Gold.PLP.part.hbond>
-2.0000

> <Gold.PLP.part.metal>
0.0000

> <Gold.PLP.part.buried>
-1.4024

> <Gold.PLP.part.nonpolar>
-39.2115

> <Gold.PLP.part.repulsive>
0.4601

> <Gold.PLP.ligand.clash>
0.0000

> <Gold.PLP.ligand.torsion>
1.0396

> <Gold.PLP.Chemscore.Hbond>
2.0000

> <Gold.PLP.Chemscore.CHOScore>
0.0000

> <Gold.PLP.Chemscore.Metal>
0.0000

> <Gold.Chemscore.Hbonds>
donor molecule, donor type, donor heavy atom, donor atom, acceptor molecule, acceptor atom, score
      L1  H    16    36       P1 10175  0.90
      P1  H  7989  7998       L1    12  1.00

> <Gold.PLP.Chemscore.Internal.Correction>
0.0288

> <Gold.Rescore>
     Score         DG    S(hbond)    S(metal)    S(lipo)     H(rot)  DE(clash)    DE(int)     intcor
     14.95     -16.02       1.96        0.00      80.61       2.12       0.15       0.92       ----

> <Gold.Chemscore.Fitness>
14.9528

> <Gold.Chemscore.DG>
-16.0237

> <Gold.Chemscore.ZeroCoef>
-5.4800

> <Gold.Chemscore.Hbond>
1.9609

> <Gold.Chemscore.Metal>
0.0000

> <Gold.Chemscore.Lipo>
80.6093

> <Gold.Chemscore.Internal_Hbond>
0.0000

> <Gold.Chemscore.DEClash>
0.1483

> <Gold.Chemscore.DEInternal>
0.9226

> <Gold.Chemscore.Rot>
2.1239

> <Gold.Chemscore.Internal.Correction>
   9.000000E+99

> <Gold.Chemscore.Hbonds>
donor molecule, donor type, donor heavy atom, donor atom, acceptor molecule, acceptor atom, score
      L1  H    16    36       P1 10175  0.18
      P1  H  6933  6945       L1     8  0.01
      P1  H  7989  7998       L1    12  0.65

> <Gold.Chemscore.Hbond.Weighted>
-6.5495

> <Gold.Chemscore.Metal.Weighted>
-0.0000

> <Gold.Chemscore.Lipo.Weighted>
-9.4313

> <Gold.Chemscore.Internal_Hbond.Weighted>
0.0000

> <Gold.Chemscore.DEClash.Weighted>
0.1483

> <Gold.Chemscore.DEInternal.Weighted>
0.9226

> <Gold.Chemscore.Rot.Weighted>
5.4371

> <Gold.Chemscore.Internal.Correction.Weighted>
   9.000000E+99

> <Gold.Protein.RotatedTorsions>
[ 6907 6896 6895 6894 ] final  131.56 input  -60.11 | X-H torsion
[ 7974 7965 7964 7962 ] final  -19.78 input  175.53 | X-H torsion
[ 8008 7997 7996 7995 ] final  126.65 input   59.86 | X-H torsion
[ 10167 10162 10161 10158 ] final   76.39 input  -65.29 | X-H torsion
[ 10718 10713 10712 10709 ] final -158.16 input   66.30 | X-H torsion
[ 10763 10752 10751 10750 ] final   -3.89 input  -60.55 | X-H torsion
[ 11005 11000 10999 10996 ] final   64.28 input  -57.11 | X-H torsion

> <Gold.Protein.ActiveResidues>
 VAL166  LYS551  ARG553  GLY616  TRP617  ASP618  TYR619  PRO620  LYS621  CYS622 
 ASP623  PHE694  ASN695  SER759  ASP760  ASP761  ALA762  ILE779  LEU786  VAL792 
 PHE793  MET794  SER795  GLU796  ALA797  LYS798  CYS799  TRP800  GLU811  SER814 

> <Gold.Protein.RotatedAtoms>
  152.3413  133.6070  159.5878 H   0  0  0  0  0  0  0  0  0  0  0  0  # atno 6907 bound_to 6896
  150.7480  133.9718  159.3557 H   0  0  0  0  0  0  0  0  0  0  0  0  # atno 6908 bound_to 6896
  151.7581  135.0817  160.0392 H   0  0  0  0  0  0  0  0  0  0  0  0  # atno 6909 bound_to 6896
  146.1823  140.4111  142.8490 H   0  0  0  0  0  0  0  0  0  0  0  0  # atno 7974 bound_to 7965
  156.2869  140.2687  156.2145 H   0  0  0  0  0  0  0  0  0  0  0  0  # atno 8008 bound_to 7997
  155.0230  140.0386  157.2463 H   0  0  0  0  0  0  0  0  0  0  0  0  # atno 8009 bound_to 7997
  154.7419  140.2726  155.6371 H   0  0  0  0  0  0  0  0  0  0  0  0  # atno 8010 bound_to 7997
  139.9927  144.5745  150.7804 H   0  0  0  0  0  0  0  0  0  0  0  0  # atno 10167 bound_to 10162
  156.5503  130.8602  151.2778 H   0  0  0  0  0  0  0  0  0  0  0  0  # atno 10718 bound_to 10713
  153.3775  135.6997  153.6591 H   0  0  0  0  0  0  0  0  0  0  0  0  # atno 10763 bound_to 10752
  153.5216  135.3611  155.2635 H   0  0  0  0  0  0  0  0  0  0  0  0  # atno 10764 bound_to 10752
  154.8689  135.4159  154.3066 H   0  0  0  0  0  0  0  0  0  0  0  0  # atno 10765 bound_to 10752
  139.9969  134.6503  155.9995 H   0  0  0  0  0  0  0  0  0  0  0  0  # atno 11005 bound_to 11000
  144.8336  140.6746  143.6275 LP  0  0  0  0  0  0  0  0  0  0  0  0  # atno 17320 bound_to 7965
  145.4041  139.1592  143.4162 LP  0  0  0  0  0  0  0  0  0  0  0  0  # atno 17321 bound_to 7965
  140.7448  143.2867  151.3444 LP  0  0  0  0  0  0  0  0  0  0  0  0  # atno 17342 bound_to 10162
  139.6328  144.0688  152.2491 LP  0  0  0  0  0  0  0  0  0  0  0  0  # atno 17343 bound_to 10162
  157.7389  130.9821  150.2278 LP  0  0  0  0  0  0  0  0  0  0  0  0  # atno 17370 bound_to 10713
  156.2891  130.3743  149.7860 LP  0  0  0  0  0  0  0  0  0  0  0  0  # atno 17371 bound_to 10713
  141.1611  133.6539  156.4323 LP  0  0  0  0  0  0  0  0  0  0  0  0  # atno 17394 bound_to 11000
  140.4801  134.6673  157.5167 LP  0  0  0  0  0  0  0  0  0  0  0  0  # atno 17395 bound_to 11000

$$$$
