AV-unprocessed.smi:2854|AV-procd|sdf|10975|dock7
  -GOLD-   2272015433D 1   1.00000     0.00000
 Structure written by MMmdl.
 27 28  0  0  0  0  0  0  0  0  2 V2000
  151.7073  140.6050  158.7147 N   0  0  0  0  0  0  0  0  0  0  0  0
  151.5905  141.9935  158.6231 C   0  0  0  0  0  0  0  0  0  0  0  0
  150.9820  142.5632  157.4848 C   0  0  0  0  0  0  0  0  0  0  0  0
  150.8619  143.9040  157.3809 N   0  3  0  0  0  0  0  0  0  0  0  0
  151.3041  144.7532  158.3325 C   0  0  0  0  0  0  0  0  0  0  0  0
  151.9208  144.2460  159.4934 C   0  0  0  0  0  0  0  0  0  0  0  0
  152.0706  142.8466  159.6501 C   0  0  0  0  0  0  0  0  0  0  0  0
  152.6820  142.3080  160.7941 N   0  0  0  0  0  0  0  0  0  0  0  0
  153.9348  141.6166  160.5169 C   0  0  0  0  0  0  0  0  0  0  0  0
  154.4582  140.9441  161.7978 C   0  0  0  0  0  0  0  0  0  0  0  0
  154.5889  141.9193  162.8283 O   0  0  0  0  0  0  0  0  0  0  0  0
  153.3425  142.5320  163.1467 C   0  0  0  0  0  0  0  0  0  0  0  0
  152.7894  143.2484  161.9025 C   0  0  0  0  0  0  0  0  0  0  0  0
  152.1358  140.1561  159.5115 H   0  0  0  0  0  0  0  0  0  0  0  0
  151.3590  140.0018  157.9825 H   0  0  0  0  0  0  0  0  0  0  0  0
  150.5892  141.9910  156.6568 H   0  0  0  0  0  0  0  0  0  0  0  0
  151.1530  145.8051  158.1383 H   0  0  0  0  0  0  0  0  0  0  0  0
  152.2746  144.9277  160.2531 H   0  0  0  0  0  0  0  0  0  0  0  0
  153.7807  140.8690  159.7379 H   0  0  0  0  0  0  0  0  0  0  0  0
  154.6757  142.3252  160.1441 H   0  0  0  0  0  0  0  0  0  0  0  0
  153.7876  140.1460  162.1208 H   0  0  0  0  0  0  0  0  0  0  0  0
  155.4308  140.4881  161.6131 H   0  0  0  0  0  0  0  0  0  0  0  0
  152.6385  141.7814  163.5096 H   0  0  0  0  0  0  0  0  0  0  0  0
  153.4929  143.2460  163.9565 H   0  0  0  0  0  0  0  0  0  0  0  0
  153.4495  144.0726  161.6291 H   0  0  0  0  0  0  0  0  0  0  0  0
  151.8102  143.6760  162.1213 H   0  0  0  0  0  0  0  0  0  0  0  0
  150.4182  144.2913  156.5476 H   0  0  0  0  0  0  0  0  0  0  0  0
  1  2  1  0  0  0  0
  1 14  1  0  0  0  0
  1 15  1  0  0  0  0
  2  7  1  0  0  0  0
  2  3  2  0  0  0  0
  3  4  1  0  0  0  0
  3 16  1  0  0  0  0
  4  5  2  0  0  0  0
  4 27  1  0  0  0  0
  5  6  1  0  0  0  0
  5 17  1  0  0  0  0
  6  7  2  0  0  0  0
  6 18  1  0  0  0  0
  7  8  1  0  0  0  0
  8 13  1  0  0  0  0
  8  9  1  0  0  0  0
  9 10  1  0  0  0  0
  9 19  1  0  0  0  0
  9 20  1  0  0  0  0
 10 11  1  0  0  0  0
 10 21  1  0  0  0  0
 10 22  1  0  0  0  0
 11 12  1  0  0  0  0
 12 13  1  0  0  0  0
 12 23  1  0  0  0  0
 12 24  1  0  0  0  0
 13 25  1  0  0  0  0
 13 26  1  0  0  0  0
M  CHG  1   4   1
M  END
> <s_m_source_file>
AV-unprocessed.smi

> <i_m_source_file_index>
2854

> <i_lp_mmshare_version>
43012

> <i_f3d_flags>
0

> <s_epik_input>
W05IMl1jMVtjSF1uW2NIXVtjSF1jMU4yW0NIMl1bQ0gyXU9bQ0gyXVtDSDJdMg==

> <s_epik_cmdline>
J2VwaWtfcHl0aG9uJywgJy1waCcsICc3LjAnLCAnLXRuJywgJzgnLCAnLW1hJywgJzIwMCcsICctbWV0YWxfYmluZGluZycsICctaW1hZScsICc8aW5maWxlLm1hZT4nLCAnLW9tYWUnLCAnPG91dGZpbGUubWFlPic=

> <r_lp_tautomer_probability>
0.999846

> <r_epik_Ionization_Penalty>
0.0229726

> <r_epik_Ionization_Penalty_Charging>
0.0229724

> <r_epik_Ionization_Penalty_Neutral>
1.97994e-07

> <r_epik_State_Penalty>
0.0185659

> <r_epik_Charging_Adjusted_Penalty>
0.0415384

> <i_epik_Tot_Q>
1

> <i_epik_Tot_abs_Q>
1

> <r_epik_Metal_State_Penalty>
2.0686

> <b_epik_Metal_Only>
0

> <s_lp_Force_Field>
OPLS_2005

> <r_lp_Energy>
29.6275

> <b_lp_Chiralities_Consistent>
1

> <s_lp_Variant>
AV-unprocessed.smi:2854-1

> <Gold.Version>
5.8.1

> <Gold.Id.Protein>
6NUR|6NUR_protein|mol2

> <Gold.PLP.Fitness>
39.5398

> <Gold.PLP.PLP>
-33.9865

> <Gold.PLP.part.hbond>
-2.0000

> <Gold.PLP.part.metal>
0.0000

> <Gold.PLP.part.buried>
-3.7844

> <Gold.PLP.part.nonpolar>
-28.0107

> <Gold.PLP.part.repulsive>
0.1731

> <Gold.PLP.ligand.clash>
0.0609

> <Gold.PLP.ligand.torsion>
0.2301

> <Gold.PLP.Chemscore.Hbond>
1.9840

> <Gold.PLP.Chemscore.CHOScore>
0.0000

> <Gold.PLP.Chemscore.Metal>
0.0000

> <Gold.Chemscore.Hbonds>
donor molecule, donor type, donor heavy atom, donor atom, acceptor molecule, acceptor atom, score
      L1  H     4    27       P1  8028  1.95

> <Gold.PLP.Chemscore.Internal.Correction>
0.1224

> <Gold.Rescore>
     Score         DG    S(hbond)    S(metal)    S(lipo)     H(rot)  DE(clash)    DE(int)     intcor
     14.98     -16.81       0.91        0.00      92.82       1.00       0.89       0.93       ----

> <Gold.Chemscore.Fitness>
14.9822

> <Gold.Chemscore.DG>
-16.8085

> <Gold.Chemscore.ZeroCoef>
-5.4800

> <Gold.Chemscore.Hbond>
0.9067

> <Gold.Chemscore.Metal>
0.0000

> <Gold.Chemscore.Lipo>
92.8220

> <Gold.Chemscore.Internal_Hbond>
0.0000

> <Gold.Chemscore.DEClash>
0.8923

> <Gold.Chemscore.DEInternal>
0.9340

> <Gold.Chemscore.Rot>
1.0000

> <Gold.Chemscore.Internal.Correction>
   9.000000E+99

> <Gold.Chemscore.Hbonds>
donor molecule, donor type, donor heavy atom, donor atom, acceptor molecule, acceptor atom, score
      L1  H     4    27       P1  8028  0.93

> <Gold.Chemscore.Hbond.Weighted>
-3.0283

> <Gold.Chemscore.Metal.Weighted>
-0.0000

> <Gold.Chemscore.Lipo.Weighted>
-10.8602

> <Gold.Chemscore.Internal_Hbond.Weighted>
0.0000

> <Gold.Chemscore.DEClash.Weighted>
0.8923

> <Gold.Chemscore.DEInternal.Weighted>
0.9340

> <Gold.Chemscore.Rot.Weighted>
2.5600

> <Gold.Chemscore.Internal.Correction.Weighted>
   9.000000E+99

> <Gold.Protein.RotatedTorsions>
[ 6907 6896 6895 6894 ] final -134.53 input  -60.11 | X-H torsion
[ 7974 7965 7964 7962 ] final  165.20 input  175.53 | X-H torsion
[ 8008 7997 7996 7995 ] final   22.37 input   59.86 | X-H torsion
[ 10167 10162 10161 10158 ] final  -20.38 input  -65.29 | X-H torsion
[ 10718 10713 10712 10709 ] final  113.00 input   66.30 | X-H torsion
[ 10763 10752 10751 10750 ] final   21.48 input  -60.55 | X-H torsion
[ 11005 11000 10999 10996 ] final  -20.56 input  -57.11 | X-H torsion

> <Gold.Protein.ActiveResidues>
 VAL166  LYS551  ARG553  GLY616  TRP617  ASP618  TYR619  PRO620  LYS621  CYS622 
 ASP623  PHE694  ASN695  SER759  ASP760  ASP761  ALA762  ILE779  LEU786  VAL792 
 PHE793  MET794  SER795  GLU796  ALA797  LYS798  CYS799  TRP800  GLU811  SER814 

> <Gold.Protein.RotatedAtoms>
  150.9869  133.6188  159.2713 H   0  0  0  0  0  0  0  0  0  0  0  0  # atno 6907 bound_to 6896
  151.3423  135.0865  159.9385 H   0  0  0  0  0  0  0  0  0  0  0  0  # atno 6908 bound_to 6896
  152.5234  133.9478  159.7712 H   0  0  0  0  0  0  0  0  0  0  0  0  # atno 6909 bound_to 6896
  144.7512  139.8436  143.6365 H   0  0  0  0  0  0  0  0  0  0  0  0  # atno 7974 bound_to 7965
  154.9647  140.3082  155.5015 H   0  0  0  0  0  0  0  0  0  0  0  0  # atno 8008 bound_to 7997
  156.2973  140.2295  156.4674 H   0  0  0  0  0  0  0  0  0  0  0  0  # atno 8009 bound_to 7997
  154.7932  140.0438  157.1205 H   0  0  0  0  0  0  0  0  0  0  0  0  # atno 8010 bound_to 7997
  140.7275  143.4728  151.0223 H   0  0  0  0  0  0  0  0  0  0  0  0  # atno 10167 bound_to 10162
  157.6362  131.0976  150.6976 H   0  0  0  0  0  0  0  0  0  0  0  0  # atno 10718 bound_to 10713
  153.0991  135.6668  153.9706 H   0  0  0  0  0  0  0  0  0  0  0  0  # atno 10763 bound_to 10752
  153.9281  135.3007  155.3447 H   0  0  0  0  0  0  0  0  0  0  0  0  # atno 10764 bound_to 10752
  154.7411  135.5079  153.9200 H   0  0  0  0  0  0  0  0  0  0  0  0  # atno 10765 bound_to 10752
  140.8476  133.7880  155.9930 H   0  0  0  0  0  0  0  0  0  0  0  0  # atno 11005 bound_to 11000
  146.1465  139.4536  143.0076 LP  0  0  0  0  0  0  0  0  0  0  0  0  # atno 17320 bound_to 7965
  145.6937  141.0157  143.1542 LP  0  0  0  0  0  0  0  0  0  0  0  0  # atno 17321 bound_to 7965
  139.8421  143.7549  152.3180 LP  0  0  0  0  0  0  0  0  0  0  0  0  # atno 17342 bound_to 10162
  139.7702  144.7479  151.0236 LP  0  0  0  0  0  0  0  0  0  0  0  0  # atno 17343 bound_to 10162
  156.7307  130.4709  149.5500 LP  0  0  0  0  0  0  0  0  0  0  0  0  # atno 17370 bound_to 10713
  156.1604  130.6370  151.0711 LP  0  0  0  0  0  0  0  0  0  0  0  0  # atno 17371 bound_to 10713
  140.8826  134.2593  157.5136 LP  0  0  0  0  0  0  0  0  0  0  0  0  # atno 17394 bound_to 11000
  139.8703  134.9622  156.4422 LP  0  0  0  0  0  0  0  0  0  0  0  0  # atno 17395 bound_to 11000

$$$$
