AV-unprocessed.smi:67|AV-procd|sdf|634|dock6
  -GOLD-   2262016533D 1   1.00000     0.00000
 Structure written by MMmdl.
 48 50  0  0  0  0  0  0  0  0  2 V2000
  148.4153  138.0823  152.8633 O   0  0  0  0  0  0  0  0  0  0  0  0
  147.4856  139.1299  153.0747 C   0  0  2  0  0  0  0  0  0  0  0  0
  148.2915  140.2941  153.7015 C   0  0  0  0  0  0  0  0  0  0  0  0
  149.0609  139.9654  154.9045 N   0  0  0  0  0  0  0  0  0  0  0  0
  148.9755  141.0349  155.9016 C   0  0  0  0  0  0  0  0  0  0  0  0
  149.6642  140.6662  157.2265 C   0  0  0  0  0  0  0  0  0  0  0  0
  151.1285  140.2467  156.9735 C   0  0  0  0  0  0  0  0  0  0  0  0
  151.8718  139.9238  158.1517 O   0  0  0  0  0  0  0  0  0  0  0  0
  152.3676  140.8783  159.0198 C   0  0  0  0  0  0  0  0  0  0  0  0
  153.2397  140.6387  160.1111 C   0  0  0  0  0  0  0  0  0  0  0  0
  153.6792  141.7020  160.9222 C   0  0  0  0  0  0  0  0  0  0  0  0
  153.2538  143.0168  160.6614 C   0  0  0  0  0  0  0  0  0  0  0  0
  152.3802  143.2747  159.5850 C   0  0  0  0  0  0  0  0  0  0  0  0
  151.9103  144.6893  159.2812 C   0  0  0  0  0  0  0  0  0  0  0  0
  150.5780  144.7421  159.2807 F   0  0  0  0  0  0  0  0  0  0  0  0
  152.3621  145.5604  160.1841 F   0  0  0  0  0  0  0  0  0  0  0  0
  152.3549  145.0507  158.0782 F   0  0  0  0  0  0  0  0  0  0  0  0
  151.9522  142.2035  158.7726 C   0  0  0  0  0  0  0  0  0  0  0  0
  151.2746  139.2378  155.8139 C   0  0  0  0  0  0  0  0  0  0  0  0
  150.4745  139.7197  154.5930 C   0  0  0  0  0  0  0  0  0  0  0  0
  146.2989  138.5701  153.8678 C   0  0  0  0  0  0  0  0  0  0  0  0
  145.4827  137.8283  152.8074 C   0  0  0  0  0  0  0  0  0  0  0  0
  145.7081  138.5524  151.5406 N   0  3  0  0  0  0  0  0  0  0  0  0
  146.8539  139.4694  151.7153 C   0  0  0  0  0  0  0  0  0  0  0  0
  147.9864  137.3908  152.3816 H   0  0  0  0  0  0  0  0  0  0  0  0
  148.9545  140.7353  152.9549 H   0  0  0  0  0  0  0  0  0  0  0  0
  147.5712  141.0808  153.9330 H   0  0  0  0  0  0  0  0  0  0  0  0
  149.4133  141.9508  155.5013 H   0  0  0  0  0  0  0  0  0  0  0  0
  147.9292  141.2606  156.1115 H   0  0  0  0  0  0  0  0  0  0  0  0
  149.6386  141.5193  157.9048 H   0  0  0  0  0  0  0  0  0  0  0  0
  149.0869  139.8833  157.7112 H   0  0  0  0  0  0  0  0  0  0  0  0
  151.6224  141.1529  156.6202 H   0  0  0  0  0  0  0  0  0  0  0  0
  153.5955  139.6540  160.3593 H   0  0  0  0  0  0  0  0  0  0  0  0
  154.3465  141.5072  161.7486 H   0  0  0  0  0  0  0  0  0  0  0  0
  153.6034  143.8216  161.2914 H   0  0  0  0  0  0  0  0  0  0  0  0
  151.2898  142.4000  157.9422 H   0  0  0  0  0  0  0  0  0  0  0  0
  152.3268  139.1358  155.5468 H   0  0  0  0  0  0  0  0  0  0  0  0
  150.9374  138.2401  156.0815 H   0  0  0  0  0  0  0  0  0  0  0  0
  150.5756  138.9867  153.7950 H   0  0  0  0  0  0  0  0  0  0  0  0
  150.9281  140.6348  154.2082 H   0  0  0  0  0  0  0  0  0  0  0  0
  146.5892  137.9394  154.7090 H   0  0  0  0  0  0  0  0  0  0  0  0
  145.6766  139.3779  154.2511 H   0  0  0  0  0  0  0  0  0  0  0  0
  145.8518  136.8083  152.6929 H   0  0  0  0  0  0  0  0  0  0  0  0
  144.4223  137.7755  153.0558 H   0  0  0  0  0  0  0  0  0  0  0  0
  145.9064  137.8876  150.8064 H   0  0  0  0  0  0  0  0  0  0  0  0
  146.4573  140.4854  151.7238 H   0  0  0  0  0  0  0  0  0  0  0  0
  147.5568  139.4006  150.8839 H   0  0  0  0  0  0  0  0  0  0  0  0
  144.8882  139.0909  151.3002 H   0  0  0  0  0  0  0  0  0  0  0  0
  1  2  1  0  0  0  0
  1 25  1  0  0  0  0
  2 24  1  0  0  0  0
  2  3  1  0  0  0  0
  2 21  1  0  0  0  0
  3  4  1  0  0  0  0
  3 26  1  0  0  0  0
  3 27  1  0  0  0  0
  4 20  1  0  0  0  0
  4  5  1  0  0  0  0
  5  6  1  0  0  0  0
  5 28  1  0  0  0  0
  5 29  1  0  0  0  0
  6  7  1  0  0  0  0
  6 30  1  0  0  0  0
  6 31  1  0  0  0  0
  7  8  1  0  0  0  0
  7 19  1  0  0  0  0
  7 32  1  0  0  0  0
  8  9  1  0  0  0  0
  9 18  1  0  0  0  0
  9 10  2  0  0  0  0
 10 11  1  0  0  0  0
 10 33  1  0  0  0  0
 11 12  2  0  0  0  0
 11 34  1  0  0  0  0
 12 13  1  0  0  0  0
 12 35  1  0  0  0  0
 13 14  1  0  0  0  0
 13 18  2  0  0  0  0
 14 15  1  0  0  0  0
 14 16  1  0  0  0  0
 14 17  1  0  0  0  0
 18 36  1  0  0  0  0
 19 20  1  0  0  0  0
 19 37  1  0  0  0  0
 19 38  1  0  0  0  0
 20 39  1  0  0  0  0
 20 40  1  0  0  0  0
 21 22  1  0  0  0  0
 21 41  1  0  0  0  0
 21 42  1  0  0  0  0
 22 23  1  0  0  0  0
 22 43  1  0  0  0  0
 22 44  1  0  0  0  0
 23 24  1  0  0  0  0
 23 45  1  0  0  0  0
 23 48  1  0  0  0  0
 24 46  1  0  0  0  0
 24 47  1  0  0  0  0
M  CHG  1  23   1
M  END
> <s_m_source_file>
AV-unprocessed.smi

> <i_m_source_file_index>
67

> <i_lp_mmshare_version>
43012

> <i_f3d_flags>
0

> <s_epik_input>
W0NIMl0xW05IXVtDSDJdW0NIMl1bQ0BAXTEoW09IXSlbQ0gyXU4yW0NIMl1bQ0gyXVtDSF0oW0NIMl1bQ0gyXTIpT2MzW2NIXVtjSF1bY0hdYyhDKEYpKEYpRilbY0hdMw==

> <s_epik_cmdline>
J2VwaWtfcHl0aG9uJywgJy1waCcsICc3LjAnLCAnLXRuJywgJzgnLCAnLW1hJywgJzIwMCcsICctbWV0YWxfYmluZGluZycsICctaW1hZScsICc8aW5maWxlLm1hZT4nLCAnLW9tYWUnLCAnPG91dGZpbGUubWFlPic=

> <r_lp_tautomer_probability>
1

> <r_epik_Ionization_Penalty>
1.18002

> <r_epik_Ionization_Penalty_Charging>
0.00399663

> <r_epik_Ionization_Penalty_Neutral>
1.17602

> <r_epik_State_Penalty>
1.25421

> <r_epik_Charging_Adjusted_Penalty>
1.25821

> <i_epik_Tot_Q>
1

> <i_epik_Tot_abs_Q>
1

> <r_epik_Metal_State_Penalty>
1.25387

> <b_epik_Metal_Only>
0

> <s_lp_Force_Field>
OPLS_2005

> <r_lp_Energy>
62.5676

> <b_lp_Chiralities_Consistent>
1

> <s_lp_Variant>
AV-unprocessed.smi:67-6

> <Gold.Version>
5.8.1

> <Gold.Id.Protein>
6NUR|6NUR_protein|mol2

> <Gold.PLP.Fitness>
54.6077

> <Gold.PLP.PLP>
-50.5638

> <Gold.PLP.part.hbond>
-3.0836

> <Gold.PLP.part.metal>
0.0000

> <Gold.PLP.part.buried>
-2.2598

> <Gold.PLP.part.nonpolar>
-45.6217

> <Gold.PLP.part.repulsive>
0.1200

> <Gold.PLP.ligand.clash>
0.4613

> <Gold.PLP.ligand.torsion>
0.9439

> <Gold.PLP.Chemscore.Hbond>
1.8880

> <Gold.PLP.Chemscore.CHOScore>
0.0000

> <Gold.PLP.Chemscore.Metal>
0.0000

> <Gold.Chemscore.Hbonds>
donor molecule, donor type, donor heavy atom, donor atom, acceptor molecule, acceptor atom, score
      L1  H     1    25       P1  7948  0.30
      L1  H    23    48       P1 10175  0.94

> <Gold.PLP.Chemscore.Internal.Correction>
0.7290

> <Gold.Rescore>
     Score         DG    S(hbond)    S(metal)    S(lipo)     H(rot)  DE(clash)    DE(int)     intcor
     16.75     -18.53       1.16        0.00     126.23       2.19       0.60       1.18       ----

> <Gold.Chemscore.Fitness>
16.7493

> <Gold.Chemscore.DG>
-18.5328

> <Gold.Chemscore.ZeroCoef>
-5.4800

> <Gold.Chemscore.Hbond>
1.1640

> <Gold.Chemscore.Metal>
0.0000

> <Gold.Chemscore.Lipo>
126.2250

> <Gold.Chemscore.Internal_Hbond>
0.0000

> <Gold.Chemscore.DEClash>
0.6027

> <Gold.Chemscore.DEInternal>
1.1808

> <Gold.Chemscore.Rot>
2.1887

> <Gold.Chemscore.Internal.Correction>
   9.000000E+99

> <Gold.Chemscore.Hbonds>
donor molecule, donor type, donor heavy atom, donor atom, acceptor molecule, acceptor atom, score
      L1  H     1    25       P1  7948  0.29
      L1  H    23    48       P1 10171  0.40

> <Gold.Chemscore.Hbond.Weighted>
-3.8877

> <Gold.Chemscore.Metal.Weighted>
-0.0000

> <Gold.Chemscore.Lipo.Weighted>
-14.7683

> <Gold.Chemscore.Internal_Hbond.Weighted>
0.0000

> <Gold.Chemscore.DEClash.Weighted>
0.6027

> <Gold.Chemscore.DEInternal.Weighted>
1.1808

> <Gold.Chemscore.Rot.Weighted>
5.6032

> <Gold.Chemscore.Internal.Correction.Weighted>
   9.000000E+99

> <Gold.Protein.RotatedTorsions>
[ 6907 6896 6895 6894 ] final -141.59 input  -60.11 | X-H torsion
[ 7974 7965 7964 7962 ] final -106.42 input  175.53 | X-H torsion
[ 8008 7997 7996 7995 ] final -167.05 input   59.86 | X-H torsion
[ 10167 10162 10161 10158 ] final  -28.48 input  -65.29 | X-H torsion
[ 10718 10713 10712 10709 ] final  143.43 input   66.30 | X-H torsion
[ 10763 10752 10751 10750 ] final   34.96 input  -60.55 | X-H torsion
[ 11005 11000 10999 10996 ] final  117.01 input  -57.11 | X-H torsion

> <Gold.Protein.ActiveResidues>
 VAL166  LYS551  ARG553  GLY616  TRP617  ASP618  TYR619  PRO620  LYS621  CYS622 
 ASP623  PHE694  ASN695  SER759  ASP760  ASP761  ALA762  ILE779  LEU786  VAL792 
 PHE793  MET794  SER795  GLU796  ALA797  LYS798  CYS799  TRP800  GLU811  SER814 

> <Gold.Protein.RotatedAtoms>
  151.0758  133.5429  159.2623 H   0  0  0  0  0  0  0  0  0  0  0  0  # atno 6907 bound_to 6896
  151.2352  135.0568  159.9013 H   0  0  0  0  0  0  0  0  0  0  0  0  # atno 6908 bound_to 6896
  152.5417  134.0541  159.8177 H   0  0  0  0  0  0  0  0  0  0  0  0  # atno 6909 bound_to 6896
  145.2180  140.9123  143.3276 H   0  0  0  0  0  0  0  0  0  0  0  0  # atno 7974 bound_to 7965
  155.8723  140.0995  157.1542 H   0  0  0  0  0  0  0  0  0  0  0  0  # atno 8008 bound_to 7997
  154.3998  140.1345  156.4156 H   0  0  0  0  0  0  0  0  0  0  0  0  # atno 8009 bound_to 7997
  155.7737  140.3460  155.5263 H   0  0  0  0  0  0  0  0  0  0  0  0  # atno 8010 bound_to 7997
  140.7269  143.4007  151.1270 H   0  0  0  0  0  0  0  0  0  0  0  0  # atno 10167 bound_to 10162
  157.3691  131.0976  151.0845 H   0  0  0  0  0  0  0  0  0  0  0  0  # atno 10718 bound_to 10713
  153.0140  135.6346  154.1751 H   0  0  0  0  0  0  0  0  0  0  0  0  # atno 10763 bound_to 10752
  154.1491  135.2830  155.3142 H   0  0  0  0  0  0  0  0  0  0  0  0  # atno 10764 bound_to 10752
  154.6067  135.5570  153.7491 H   0  0  0  0  0  0  0  0  0  0  0  0  # atno 10765 bound_to 10752
  139.9060  134.9605  156.7285 H   0  0  0  0  0  0  0  0  0  0  0  0  # atno 11005 bound_to 11000
  144.9792  139.3801  143.6270 LP  0  0  0  0  0  0  0  0  0  0  0  0  # atno 17320 bound_to 7965
  146.3382  139.8925  142.8807 LP  0  0  0  0  0  0  0  0  0  0  0  0  # atno 17321 bound_to 7965
  139.7626  143.8613  152.3103 LP  0  0  0  0  0  0  0  0  0  0  0  0  # atno 17342 bound_to 10162
  139.8504  144.7167  150.9221 LP  0  0  0  0  0  0  0  0  0  0  0  0  # atno 17343 bound_to 10162
  157.1956  130.6371  149.5720 LP  0  0  0  0  0  0  0  0  0  0  0  0  # atno 17370 bound_to 10713
  155.9752  130.4707  150.6441 LP  0  0  0  0  0  0  0  0  0  0  0  0  # atno 17371 bound_to 10713
  140.6944  133.9362  155.7985 LP  0  0  0  0  0  0  0  0  0  0  0  0  # atno 17394 bound_to 11000
  141.0418  134.0610  157.3892 LP  0  0  0  0  0  0  0  0  0  0  0  0  # atno 17395 bound_to 11000

$$$$
