AV-unprocessed.smi:2032|AV-procd|sdf|8244|dock2
  -GOLD-   2272010513D 1   1.00000     0.00000
 Structure written by MMmdl.
 43 44  0  0  0  0  0  0  0  0  2 V2000
  145.5186  137.8302  151.3209 C   0  0  0  0  0  0  0  0  0  0  0  0
  146.4690  137.6363  152.5168 C   0  0  1  0  0  0  0  0  0  0  0  0
  147.2341  138.9145  152.9115 C   0  0  0  0  0  0  0  0  0  0  0  0
  146.3641  139.9044  153.6079 N   0  3  2  0  0  0  0  0  0  0  0  0
  147.0765  141.1749  153.9803 C   0  0  1  0  0  0  0  0  0  0  0  0
  146.4240  141.8554  155.2097 C   0  0  0  0  0  0  0  0  0  0  0  0
  148.5954  140.9447  154.2215 C   0  0  0  0  0  0  0  0  0  0  0  0
  149.2113  141.9643  155.0684 N   0  0  0  0  0  0  0  0  0  0  0  0
  150.1252  141.7332  156.0230 C   0  0  0  0  0  0  0  0  0  0  0  0
  150.5339  140.6084  156.3125 O   0  0  0  0  0  0  0  0  0  0  0  0
  150.5161  142.8778  156.6100 N   0  0  0  0  0  0  0  0  0  0  0  0
  151.4523  143.0485  157.6636 C   0  0  0  0  0  0  0  0  0  0  0  0
  151.8435  142.0727  158.4914 N   0  0  0  0  0  0  0  0  0  0  0  0
  152.7739  142.5241  159.4310 C   0  0  0  0  0  0  0  0  0  0  0  0
  153.0800  143.8563  159.3042 C   0  0  0  0  0  0  0  0  0  0  0  0
  152.2082  144.6010  157.9909 S   0  0  0  0  0  0  0  0  0  0  0  0
  145.6750  139.2386  154.7484 C   0  0  0  0  0  0  0  0  0  0  0  0
  144.9157  137.9774  154.2984 C   0  0  2  0  0  0  0  0  0  0  0  0
  144.2874  137.2350  155.4835 C   0  0  0  0  0  0  0  0  0  0  0  0
  145.8120  137.0835  153.6523 O   0  0  0  0  0  0  0  0  0  0  0  0
  146.0758  138.1089  150.4261 H   0  0  0  0  0  0  0  0  0  0  0  0
  144.7819  138.6132  151.4977 H   0  0  0  0  0  0  0  0  0  0  0  0
  144.9811  136.9080  151.0986 H   0  0  0  0  0  0  0  0  0  0  0  0
  147.2065  136.8939  152.2104 H   0  0  0  0  0  0  0  0  0  0  0  0
  148.0665  138.6541  153.5670 H   0  0  0  0  0  0  0  0  0  0  0  0
  147.6637  139.3270  152.0010 H   0  0  0  0  0  0  0  0  0  0  0  0
  146.9799  141.8610  153.1371 H   0  0  0  0  0  0  0  0  0  0  0  0
  146.9615  142.7502  155.5190 H   0  0  0  0  0  0  0  0  0  0  0  0
  146.3919  141.1804  156.0656 H   0  0  0  0  0  0  0  0  0  0  0  0
  145.4116  142.2011  155.0084 H   0  0  0  0  0  0  0  0  0  0  0  0
  148.7665  139.9431  154.6198 H   0  0  0  0  0  0  0  0  0  0  0  0
  149.1510  141.0042  153.2875 H   0  0  0  0  0  0  0  0  0  0  0  0
  148.9318  142.9206  154.9031 H   0  0  0  0  0  0  0  0  0  0  0  0
  150.0943  143.7276  156.2654 H   0  0  0  0  0  0  0  0  0  0  0  0
  153.1681  141.8275  160.1562 H   0  0  0  0  0  0  0  0  0  0  0  0
  153.7629  144.4420  159.9012 H   0  0  0  0  0  0  0  0  0  0  0  0
  146.4068  138.9889  155.5187 H   0  0  0  0  0  0  0  0  0  0  0  0
  144.9383  139.8988  155.2016 H   0  0  0  0  0  0  0  0  0  0  0  0
  144.1131  138.2563  153.6157 H   0  0  0  0  0  0  0  0  0  0  0  0
  143.5750  137.8691  156.0116 H   0  0  0  0  0  0  0  0  0  0  0  0
  145.0465  136.9170  156.1989 H   0  0  0  0  0  0  0  0  0  0  0  0
  143.7537  136.3455  155.1479 H   0  0  0  0  0  0  0  0  0  0  0  0
  145.6422  140.1640  152.9504 H   0  0  0  0  0  0  0  0  0  0  0  0
  1  2  1  0  0  0  0
  1 21  1  0  0  0  0
  1 22  1  0  0  0  0
  1 23  1  0  0  0  0
  2 20  1  0  0  0  0
  2  3  1  0  0  0  0
  2 24  1  0  0  0  0
  3  4  1  0  0  0  0
  3 25  1  0  0  0  0
  3 26  1  0  0  0  0
  4  5  1  0  0  0  0
  4 17  1  0  0  0  0
  4 43  1  0  0  0  0
  5  6  1  0  0  0  0
  5  7  1  0  0  0  0
  5 27  1  0  0  0  0
  6 28  1  0  0  0  0
  6 29  1  0  0  0  0
  6 30  1  0  0  0  0
  7  8  1  0  0  0  0
  7 31  1  0  0  0  0
  7 32  1  0  0  0  0
  8  9  1  0  0  0  0
  8 33  1  0  0  0  0
  9 10  2  0  0  0  0
  9 11  1  0  0  0  0
 11 12  1  0  0  0  0
 11 34  1  0  0  0  0
 12 16  1  0  0  0  0
 12 13  2  0  0  0  0
 13 14  1  0  0  0  0
 14 15  2  0  0  0  0
 14 35  1  0  0  0  0
 15 16  1  0  0  0  0
 15 36  1  0  0  0  0
 17 18  1  0  0  0  0
 17 37  1  0  0  0  0
 17 38  1  0  0  0  0
 18 19  1  0  0  0  0
 18 20  1  0  0  0  0
 18 39  1  0  0  0  0
 19 40  1  0  0  0  0
 19 41  1  0  0  0  0
 19 42  1  0  0  0  0
M  CHG  1   4   1
M  END
> <s_m_source_file>
AV-unprocessed.smi

> <i_m_source_file_index>
2032

> <i_lp_mmshare_version>
43012

> <i_f3d_flags>
0

> <s_epik_input>
W0NIM11bQ0BASF0xW0NIMl1OKFtDSDJdW0NASF0oTzEpW0NIM10pW0NASF0oW0NIM10pW0NIMl1bTkhdQyg9TylbTkhdYzJuW2NIXVtjSF1zMg==

> <s_epik_cmdline>
J2VwaWtfcHl0aG9uJywgJy1waCcsICc3LjAnLCAnLXRuJywgJzgnLCAnLW1hJywgJzIwMCcsICctbWV0YWxfYmluZGluZycsICctaW1hZScsICc8aW5maWxlLm1hZT4nLCAnLW9tYWUnLCAnPG91dGZpbGUubWFlPic=

> <r_lp_tautomer_probability>
0.999

> <r_epik_Ionization_Penalty>
0.695838

> <r_epik_Ionization_Penalty_Charging>
0.695697

> <r_epik_Ionization_Penalty_Neutral>
0.000141198

> <r_epik_State_Penalty>
0.717972

> <r_epik_Charging_Adjusted_Penalty>
1.41367

> <i_epik_Tot_Q>
1

> <i_epik_Tot_abs_Q>
1

> <r_epik_Metal_State_Penalty>
0.756405

> <b_epik_Metal_Only>
0

> <s_lp_Force_Field>
OPLS_2005

> <r_lp_Energy>
22.0252

> <b_lp_Chiralities_Consistent>
1

> <s_lp_Variant>
AV-unprocessed.smi:2032-14

> <Gold.Version>
5.8.1

> <Gold.Id.Protein>
6NUR|6NUR_protein|mol2

> <Gold.PLP.Fitness>
40.0146

> <Gold.PLP.PLP>
-30.7522

> <Gold.PLP.part.hbond>
-3.0000

> <Gold.PLP.part.metal>
0.0000

> <Gold.PLP.part.buried>
3.6759

> <Gold.PLP.part.nonpolar>
-32.9651

> <Gold.PLP.part.repulsive>
0.4203

> <Gold.PLP.ligand.clash>
0.0000

> <Gold.PLP.ligand.torsion>
1.3405

> <Gold.PLP.Chemscore.Hbond>
3.9600

> <Gold.PLP.Chemscore.CHOScore>
0.0000

> <Gold.PLP.Chemscore.Metal>
0.0000

> <Gold.Chemscore.Hbonds>
donor molecule, donor type, donor heavy atom, donor atom, acceptor molecule, acceptor atom, score
      L1  H     4    43       P1 10175  1.95
      L1  H     8    33       P1  8028  0.91
      L1  H    11    34       P1  8028  1.00

> <Gold.PLP.Chemscore.Internal.Correction>
0.0633

> <Gold.Rescore>
     Score         DG    S(hbond)    S(metal)    S(lipo)     H(rot)  DE(clash)    DE(int)     intcor
     16.20     -20.65       2.89        0.00      82.33       1.61       2.19       2.27       ----

> <Gold.Chemscore.Fitness>
16.2001

> <Gold.Chemscore.DG>
-20.6538

> <Gold.Chemscore.ZeroCoef>
-5.4800

> <Gold.Chemscore.Hbond>
2.8937

> <Gold.Chemscore.Metal>
0.0000

> <Gold.Chemscore.Lipo>
82.3331

> <Gold.Chemscore.Internal_Hbond>
0.0000

> <Gold.Chemscore.DEClash>
2.1861

> <Gold.Chemscore.DEInternal>
2.2675

> <Gold.Chemscore.Rot>
1.6110

> <Gold.Chemscore.Internal.Correction>
   9.000000E+99

> <Gold.Chemscore.Hbonds>
donor molecule, donor type, donor heavy atom, donor atom, acceptor molecule, acceptor atom, score
      L1  H     4    43       P1 10175  0.87
      L1  H     8    33       P1  8028  0.89
      L1  H    11    34       P1  8028  0.99

> <Gold.Chemscore.Hbond.Weighted>
-9.6650

> <Gold.Chemscore.Metal.Weighted>
-0.0000

> <Gold.Chemscore.Lipo.Weighted>
-9.6330

> <Gold.Chemscore.Internal_Hbond.Weighted>
0.0000

> <Gold.Chemscore.DEClash.Weighted>
2.1861

> <Gold.Chemscore.DEInternal.Weighted>
2.2675

> <Gold.Chemscore.Rot.Weighted>
4.1242

> <Gold.Chemscore.Internal.Correction.Weighted>
   9.000000E+99

> <Gold.Protein.RotatedTorsions>
[ 6907 6896 6895 6894 ] final -123.75 input  -60.11 | X-H torsion
[ 7974 7965 7964 7962 ] final -145.81 input  175.53 | X-H torsion
[ 8008 7997 7996 7995 ] final -128.96 input   59.86 | X-H torsion
[ 10167 10162 10161 10158 ] final  127.94 input  -65.29 | X-H torsion
[ 10718 10713 10712 10709 ] final   26.77 input   66.30 | X-H torsion
[ 10763 10752 10751 10750 ] final -169.45 input  -60.55 | X-H torsion
[ 11005 11000 10999 10996 ] final  -54.35 input  -57.11 | X-H torsion

> <Gold.Protein.ActiveResidues>
 VAL166  LYS551  ARG553  GLY616  TRP617  ASP618  TYR619  PRO620  LYS621  CYS622 
 ASP623  PHE694  ASN695  SER759  ASP760  ASP761  ALA762  ILE779  LEU786  VAL792 
 PHE793  MET794  SER795  GLU796  ALA797  LYS798  CYS799  TRP800  GLU811  SER814 

> <Gold.Protein.RotatedAtoms>
  150.8701  133.7517  159.2963 H   0  0  0  0  0  0  0  0  0  0  0  0  # atno 6907 bound_to 6896
  151.5132  135.1064  159.9869 H   0  0  0  0  0  0  0  0  0  0  0  0  # atno 6908 bound_to 6896
  152.4689  133.7940  159.6973 H   0  0  0  0  0  0  0  0  0  0  0  0  # atno 6909 bound_to 6896
  144.8202  140.5536  143.5583 H   0  0  0  0  0  0  0  0  0  0  0  0  # atno 7974 bound_to 7965
  155.2713  140.0440  157.3007 H   0  0  0  0  0  0  0  0  0  0  0  0  # atno 8008 bound_to 7997
  154.5651  140.2357  155.8244 H   0  0  0  0  0  0  0  0  0  0  0  0  # atno 8009 bound_to 7997
  156.2079  140.3007  155.9674 H   0  0  0  0  0  0  0  0  0  0  0  0  # atno 8010 bound_to 7997
  139.5552  144.6843  151.4203 H   0  0  0  0  0  0  0  0  0  0  0  0  # atno 10167 bound_to 10162
  157.2112  130.6935  149.6229 H   0  0  0  0  0  0  0  0  0  0  0  0  # atno 10718 bound_to 10713
  154.6521  135.2913  154.9973 H   0  0  0  0  0  0  0  0  0  0  0  0  # atno 10763 bound_to 10752
  154.1062  135.6569  153.4881 H   0  0  0  0  0  0  0  0  0  0  0  0  # atno 10764 bound_to 10752
  153.0382  135.5254  154.7434 H   0  0  0  0  0  0  0  0  0  0  0  0  # atno 10765 bound_to 10752
  141.1022  133.6617  156.4308 H   0  0  0  0  0  0  0  0  0  0  0  0  # atno 11005 bound_to 11000
  145.5122  139.1479  143.3598 LP  0  0  0  0  0  0  0  0  0  0  0  0  # atno 17320 bound_to 7965
  146.2507  140.5263  142.8894 LP  0  0  0  0  0  0  0  0  0  0  0  0  # atno 17321 bound_to 7965
  140.6823  143.8052  150.7139 LP  0  0  0  0  0  0  0  0  0  0  0  0  # atno 17342 bound_to 10162
  140.1510  143.4358  152.2131 LP  0  0  0  0  0  0  0  0  0  0  0  0  # atno 17343 bound_to 10162
  155.9690  130.4550  150.5872 LP  0  0  0  0  0  0  0  0  0  0  0  0  # atno 17370 bound_to 10713
  157.3670  131.0759  151.1589 LP  0  0  0  0  0  0  0  0  0  0  0  0  # atno 17371 bound_to 10713
  140.4994  134.6500  157.5242 LP  0  0  0  0  0  0  0  0  0  0  0  0  # atno 17394 bound_to 11000
  139.9877  134.7035  155.9744 LP  0  0  0  0  0  0  0  0  0  0  0  0  # atno 17395 bound_to 11000

$$$$
