AV-unprocessed.smi:686|AV-procd|sdf|3343|dock3
  -GOLD-   22720 0313D 1   1.00000     0.00000
 Structure written by MMmdl.
 41 42  0  0  0  0  0  0  0  0  2 V2000
  152.0554  139.1726  155.1285 C   0  0  0  0  0  0  0  0  0  0  0  0
  150.9123  138.2445  154.6839 C   0  0  2  0  0  0  0  0  0  0  0  0
  149.6721  138.9568  154.1504 C   0  0  0  0  0  0  0  0  0  0  0  0
  148.6146  137.9225  154.1275 N   0  3  2  0  0  0  0  0  0  0  0  0
  147.2162  138.4386  154.1245 C   0  0  0  0  0  0  0  0  0  0  0  0
  146.8869  139.1655  152.8062 C   0  0  0  0  0  0  0  0  0  0  0  0
  146.9597  139.3872  155.3109 C   0  0  0  0  0  0  0  0  0  0  0  0
  148.9360  136.9513  155.2055 C   0  0  0  0  0  0  0  0  0  0  0  0
  150.3362  137.3012  155.7471 C   0  0  2  0  0  0  0  0  0  0  0  0
  150.2334  137.9699  157.0509 N   0  0  0  0  0  0  0  0  0  0  0  0
  150.0699  137.0196  158.4849 S   0  0  0  0  0  0  0  0  0  0  0  0
  150.2285  135.6042  158.1146 O   0  0  0  0  0  0  0  0  0  0  0  0
  150.9415  137.6245  159.5030 O   0  0  0  0  0  0  0  0  0  0  0  0
  148.3121  137.3231  158.9582 C   0  0  0  0  0  0  0  0  0  0  0  0
  147.9854  136.5969  160.2329 C   0  0  0  0  0  0  0  0  0  0  0  0
  148.0527  135.2018  160.5024 C   0  0  0  0  0  0  0  0  0  0  0  0
  147.6414  135.1071  161.8005 C   0  0  0  0  0  0  0  0  0  0  0  0
  147.3467  136.3353  162.2960 O   0  0  0  0  0  0  0  0  0  0  0  0
  147.5735  137.2805  161.2891 N   0  0  0  0  0  0  0  0  0  0  0  0
  151.7332  139.8819  155.8912 H   0  0  0  0  0  0  0  0  0  0  0  0
  152.4321  139.7518  154.2852 H   0  0  0  0  0  0  0  0  0  0  0  0
  152.8892  138.5988  155.5336 H   0  0  0  0  0  0  0  0  0  0  0  0
  151.2982  137.6188  153.8770 H   0  0  0  0  0  0  0  0  0  0  0  0
  149.3844  139.7630  154.8279 H   0  0  0  0  0  0  0  0  0  0  0  0
  149.8398  139.3853  153.1618 H   0  0  0  0  0  0  0  0  0  0  0  0
  146.5418  137.5882  154.2260 H   0  0  0  0  0  0  0  0  0  0  0  0
  145.8713  139.5624  152.8243 H   0  0  0  0  0  0  0  0  0  0  0  0
  146.9489  138.5054  151.9413 H   0  0  0  0  0  0  0  0  0  0  0  0
  147.5647  140.0027  152.6360 H   0  0  0  0  0  0  0  0  0  0  0  0
  145.9489  139.7951  155.2729 H   0  0  0  0  0  0  0  0  0  0  0  0
  147.6547  140.2279  155.3045 H   0  0  0  0  0  0  0  0  0  0  0  0
  147.0566  138.8786  156.2702 H   0  0  0  0  0  0  0  0  0  0  0  0
  148.1910  136.9670  156.0008 H   0  0  0  0  0  0  0  0  0  0  0  0
  148.9270  135.9477  154.7793 H   0  0  0  0  0  0  0  0  0  0  0  0
  150.9622  136.4143  155.8563 H   0  0  0  0  0  0  0  0  0  0  0  0
  150.9352  138.7014  157.1641 H   0  0  0  0  0  0  0  0  0  0  0  0
  148.1822  138.3973  159.0903 H   0  0  0  0  0  0  0  0  0  0  0  0
  147.6683  137.0145  158.1338 H   0  0  0  0  0  0  0  0  0  0  0  0
  148.3513  134.3978  159.8456 H   0  0  0  0  0  0  0  0  0  0  0  0
  147.5105  134.2771  162.4791 H   0  0  0  0  0  0  0  0  0  0  0  0
  148.7425  137.4197  153.2610 H   0  0  0  0  0  0  0  0  0  0  0  0
  1  2  1  0  0  0  0
  1 20  1  0  0  0  0
  1 21  1  0  0  0  0
  1 22  1  0  0  0  0
  2  9  1  0  0  0  0
  2  3  1  0  0  0  0
  2 23  1  0  0  0  0
  3  4  1  0  0  0  0
  3 24  1  0  0  0  0
  3 25  1  0  0  0  0
  4  5  1  0  0  0  0
  4  8  1  0  0  0  0
  4 41  1  0  0  0  0
  5  6  1  0  0  0  0
  5  7  1  0  0  0  0
  5 26  1  0  0  0  0
  6 27  1  0  0  0  0
  6 28  1  0  0  0  0
  6 29  1  0  0  0  0
  7 30  1  0  0  0  0
  7 31  1  0  0  0  0
  7 32  1  0  0  0  0
  8  9  1  0  0  0  0
  8 33  1  0  0  0  0
  8 34  1  0  0  0  0
  9 10  1  0  0  0  0
  9 35  1  0  0  0  0
 10 11  1  0  0  0  0
 10 36  1  0  0  0  0
 11 12  2  0  0  0  0
 11 13  2  0  0  0  0
 11 14  1  0  0  0  0
 14 15  1  0  0  0  0
 14 37  1  0  0  0  0
 14 38  1  0  0  0  0
 15 19  2  0  0  0  0
 15 16  1  0  0  0  0
 16 17  2  0  0  0  0
 16 39  1  0  0  0  0
 17 18  1  0  0  0  0
 17 40  1  0  0  0  0
 18 19  1  0  0  0  0
M  CHG  1   4   1
M  END
> <s_m_source_file>
AV-unprocessed.smi

> <i_m_source_file_index>
686

> <i_lp_mmshare_version>
43012

> <i_f3d_flags>
0

> <s_epik_input>
W0NIM11bQ0BASF0xW0NIMl1OKFtDSF0oW0NIM10pW0NIM10pW0NIMl1bQ0BIXTFbTkhdUyg9TykoPU8pW0NIMl1jMltjSF1bY0hdb24y

> <s_epik_cmdline>
J2VwaWtfcHl0aG9uJywgJy1waCcsICc3LjAnLCAnLXRuJywgJzgnLCAnLW1hJywgJzIwMCcsICctbWV0YWxfYmluZGluZycsICctaW1hZScsICc8aW5maWxlLm1hZT4nLCAnLW9tYWUnLCAnPG91dGZpbGUubWFlPic=

> <r_epik_Ionization_Penalty>
0.00200818

> <r_epik_Ionization_Penalty_Charging>
0.000701289

> <r_epik_Ionization_Penalty_Neutral>
0.00130689

> <r_epik_State_Penalty>
0.00131314

> <r_epik_Charging_Adjusted_Penalty>
0.00201443

> <i_epik_Tot_Q>
1

> <i_epik_Tot_abs_Q>
1

> <r_epik_Metal_State_Penalty>
0.310831

> <b_epik_Metal_Only>
0

> <s_lp_Force_Field>
OPLS_2005

> <r_lp_Energy>
19.9663

> <b_lp_Chiralities_Consistent>
1

> <s_lp_Variant>
AV-unprocessed.smi:686-7

> <Gold.Version>
5.8.1

> <Gold.Id.Protein>
6NUR|6NUR_protein|mol2

> <Gold.PLP.Fitness>
41.8657

> <Gold.PLP.PLP>
-28.7790

> <Gold.PLP.part.hbond>
-4.0725

> <Gold.PLP.part.metal>
0.0000

> <Gold.PLP.part.buried>
-4.2815

> <Gold.PLP.part.nonpolar>
-20.1486

> <Gold.PLP.part.repulsive>
0.0000

> <Gold.PLP.ligand.clash>
0.0000

> <Gold.PLP.ligand.torsion>
0.5430

> <Gold.PLP.Chemscore.Hbond>
4.6560

> <Gold.PLP.Chemscore.CHOScore>
0.0000

> <Gold.PLP.Chemscore.Metal>
0.0000

> <Gold.Chemscore.Hbonds>
donor molecule, donor type, donor heavy atom, donor atom, acceptor molecule, acceptor atom, score
      L1  H     4    41       P1  7948  2.00
      P1  H  6896  6909       L1    12  0.80
      P1  H  6931  6943       L1    19  0.90
      P1  H  6934  6947       L1    19  0.88

> <Gold.PLP.Chemscore.Internal.Correction>
0.2048

> <Gold.Rescore>
     Score         DG    S(hbond)    S(metal)    S(lipo)     H(rot)  DE(clash)    DE(int)     intcor
     17.55     -18.35       3.08        0.00      64.00       1.91       0.02       0.79       ----

> <Gold.Chemscore.Fitness>
17.5473

> <Gold.Chemscore.DG>
-18.3548

> <Gold.Chemscore.ZeroCoef>
-5.4800

> <Gold.Chemscore.Hbond>
3.0780

> <Gold.Chemscore.Metal>
0.0000

> <Gold.Chemscore.Lipo>
63.9990

> <Gold.Chemscore.Internal_Hbond>
0.0000

> <Gold.Chemscore.DEClash>
0.0211

> <Gold.Chemscore.DEInternal>
0.7864

> <Gold.Chemscore.Rot>
1.9115

> <Gold.Chemscore.Internal.Correction>
   9.000000E+99

> <Gold.Chemscore.Hbonds>
donor molecule, donor type, donor heavy atom, donor atom, acceptor molecule, acceptor atom, score
      L1  H     4    41       P1  7948  1.00
      P1  H  6896  6909       L1    12  0.65
      P1  H  6931  6943       L1    19  0.23
      P1  H  6934  6947       L1    19  0.76

> <Gold.Chemscore.Hbond.Weighted>
-10.2804

> <Gold.Chemscore.Metal.Weighted>
-0.0000

> <Gold.Chemscore.Lipo.Weighted>
-7.4879

> <Gold.Chemscore.Internal_Hbond.Weighted>
0.0000

> <Gold.Chemscore.DEClash.Weighted>
0.0211

> <Gold.Chemscore.DEInternal.Weighted>
0.7864

> <Gold.Chemscore.Rot.Weighted>
4.8935

> <Gold.Chemscore.Internal.Correction.Weighted>
   9.000000E+99

> <Gold.Protein.RotatedTorsions>
[ 6907 6896 6895 6894 ] final   49.92 input  -60.11 | X-H torsion
[ 7974 7965 7964 7962 ] final  -44.34 input  175.53 | X-H torsion
[ 8008 7997 7996 7995 ] final  -33.36 input   59.86 | X-H torsion
[ 10167 10162 10161 10158 ] final  154.45 input  -65.29 | X-H torsion
[ 10718 10713 10712 10709 ] final  166.93 input   66.30 | X-H torsion
[ 10763 10752 10751 10750 ] final  104.89 input  -60.55 | X-H torsion
[ 11005 11000 10999 10996 ] final  -33.49 input  -57.11 | X-H torsion

> <Gold.Protein.ActiveResidues>
 VAL166  LYS551  ARG553  GLY616  TRP617  ASP618  TYR619  PRO620  LYS621  CYS622 
 ASP623  PHE694  ASN695  SER759  ASP760  ASP761  ALA762  ILE779  LEU786  VAL792 
 PHE793  MET794  SER795  GLU796  ALA797  LYS798  CYS799  TRP800  GLU811  SER814 

> <Gold.Protein.RotatedAtoms>
  152.2961  134.7666  160.0367 H   0  0  0  0  0  0  0  0  0  0  0  0  # atno 6907 bound_to 6896
  151.8195  133.3387  159.3588 H   0  0  0  0  0  0  0  0  0  0  0  0  # atno 6908 bound_to 6896
  150.7252  134.5516  159.5842 H   0  0  0  0  0  0  0  0  0  0  0  0  # atno 6909 bound_to 6896
  145.9930  140.7160  142.9308 H   0  0  0  0  0  0  0  0  0  0  0  0  # atno 7974 bound_to 7965
  154.4151  140.1713  156.1875 H   0  0  0  0  0  0  0  0  0  0  0  0  # atno 8008 bound_to 7997
  155.9631  140.3392  155.6484 H   0  0  0  0  0  0  0  0  0  0  0  0  # atno 8009 bound_to 7997
  155.6723  140.0713  157.2506 H   0  0  0  0  0  0  0  0  0  0  0  0  # atno 8010 bound_to 7997
  139.4823  144.5186  151.7912 H   0  0  0  0  0  0  0  0  0  0  0  0  # atno 10167 bound_to 10162
  157.0588  131.0334  151.2654 H   0  0  0  0  0  0  0  0  0  0  0  0  # atno 10718 bound_to 10713
  153.3720  135.3928  155.1795 H   0  0  0  0  0  0  0  0  0  0  0  0  # atno 10763 bound_to 10752
  154.8695  135.3705  154.4966 H   0  0  0  0  0  0  0  0  0  0  0  0  # atno 10764 bound_to 10752
  153.5434  135.7084  153.5686 H   0  0  0  0  0  0  0  0  0  0  0  0  # atno 10765 bound_to 10752
  140.9639  133.7148  156.1414 H   0  0  0  0  0  0  0  0  0  0  0  0  # atno 11005 bound_to 11000
  144.6895  140.3102  143.7249 LP  0  0  0  0  0  0  0  0  0  0  0  0  # atno 17320 bound_to 7965
  145.7602  139.1822  143.2271 LP  0  0  0  0  0  0  0  0  0  0  0  0  # atno 17321 bound_to 7965
  140.4697  144.1604  150.5916 LP  0  0  0  0  0  0  0  0  0  0  0  0  # atno 17342 bound_to 10162
  140.4396  143.2532  151.9491 LP  0  0  0  0  0  0  0  0  0  0  0  0  # atno 17343 bound_to 10162
  157.4972  130.7857  149.7567 LP  0  0  0  0  0  0  0  0  0  0  0  0  # atno 17370 bound_to 10713
  155.9985  130.3894  150.2700 LP  0  0  0  0  0  0  0  0  0  0  0  0  # atno 17371 bound_to 10713
  140.7427  134.4132  157.5552 LP  0  0  0  0  0  0  0  0  0  0  0  0  # atno 17394 bound_to 11000
  139.8888  134.8848  156.2456 LP  0  0  0  0  0  0  0  0  0  0  0  0  # atno 17395 bound_to 11000

$$$$
