AV-unprocessed.smi:132|AV-procd|sdf|1163|dock8
  -GOLD-   2262018303D 1   1.00000     0.00000
 Structure written by MMmdl.
 41 44  0  0  0  0  0  0  0  0  1 V2000
  151.2414  135.6935  155.3287 O   0  0  0  0  0  0  0  0  0  0  0  0
  150.5724  136.6950  155.0690 C   0  0  0  0  0  0  0  0  0  0  0  0
  149.1219  136.6719  154.9138 C   0  0  0  0  0  0  0  0  0  0  0  0
  148.4584  135.5099  155.0375 F   0  0  0  0  0  0  0  0  0  0  0  0
  148.4315  137.8015  154.6481 C   0  0  0  0  0  0  0  0  0  0  0  0
  149.0330  139.0399  154.5071 N   0  0  0  0  0  0  0  0  0  0  0  0
  148.1982  140.2658  154.2239 C   0  0  2  0  0  0  0  0  0  0  0  0
  148.3183  141.2765  155.3725 C   0  0  0  0  0  0  0  0  0  0  0  0
  146.9932  141.1146  156.0893 C   0  0  0  0  0  0  0  0  0  0  0  0
  146.0654  140.7240  154.9460 C   0  0  0  0  0  0  0  0  0  0  0  0
  146.8593  139.8764  154.1260 O   0  0  0  0  0  0  0  0  0  0  0  0
  150.4325  139.1612  154.6527 C   0  0  0  0  0  0  0  0  0  0  0  0
  150.9895  140.2587  154.5747 O   0  0  0  0  0  0  0  0  0  0  0  0
  151.1599  137.9749  154.9105 N   0  0  0  0  0  0  0  0  0  0  0  0
  152.6020  138.0875  155.0661 C   0  0  0  0  0  0  0  0  0  0  0  0
  153.0195  138.0707  156.5076 C   0  0  0  0  0  0  0  0  0  0  0  0
  153.6257  137.0951  157.1909 N   0  0  0  0  0  0  0  0  0  0  0  0
  153.7933  137.5787  158.4677 N   0  0  0  0  0  0  0  0  0  0  0  0
  153.2816  138.8143  158.4688 C   0  0  0  0  0  0  0  0  0  0  0  0
  153.2138  139.7690  159.5748 C   0  0  0  0  0  0  0  0  0  0  0  0
  152.4104  140.9292  159.4835 C   0  0  0  0  0  0  0  0  0  0  0  0
  152.3550  141.8440  160.5531 C   0  0  0  0  0  0  0  0  0  0  0  0
  153.1013  141.6077  161.7233 C   0  0  0  0  0  0  0  0  0  0  0  0
  153.0340  142.7300  163.0320 Cl  0  0  0  0  0  0  0  0  0  0  0  0
  153.9027  140.4546  161.8229 C   0  0  0  0  0  0  0  0  0  0  0  0
  153.9585  139.5394  160.7537 C   0  0  0  0  0  0  0  0  0  0  0  0
  152.7781  139.1762  157.2576 O   0  0  0  0  0  0  0  0  0  0  0  0
  147.3592  137.7266  154.5452 H   0  0  0  0  0  0  0  0  0  0  0  0
  148.5199  140.6663  153.2620 H   0  0  0  0  0  0  0  0  0  0  0  0
  149.1875  141.0862  156.0038 H   0  0  0  0  0  0  0  0  0  0  0  0
  148.4038  142.2768  154.9465 H   0  0  0  0  0  0  0  0  0  0  0  0
  147.0539  140.3073  156.8199 H   0  0  0  0  0  0  0  0  0  0  0  0
  146.6736  142.0191  156.6072 H   0  0  0  0  0  0  0  0  0  0  0  0
  145.1615  140.2194  155.2875 H   0  0  0  0  0  0  0  0  0  0  0  0
  145.7721  141.6047  154.3726 H   0  0  0  0  0  0  0  0  0  0  0  0
  153.0818  137.2755  154.5186 H   0  0  0  0  0  0  0  0  0  0  0  0
  152.9260  139.0091  154.5798 H   0  0  0  0  0  0  0  0  0  0  0  0
  151.8302  141.1312  158.5952 H   0  0  0  0  0  0  0  0  0  0  0  0
  151.7392  142.7277  160.4732 H   0  0  0  0  0  0  0  0  0  0  0  0
  154.4768  140.2699  162.7189 H   0  0  0  0  0  0  0  0  0  0  0  0
  154.5790  138.6600  160.8465 H   0  0  0  0  0  0  0  0  0  0  0  0
  1  2  2  0  0  0  0
  2 14  1  0  0  0  0
  2  3  1  0  0  0  0
  3  4  1  0  0  0  0
  3  5  2  0  0  0  0
  5  6  1  0  0  0  0
  5 28  1  0  0  0  0
  6  7  1  0  0  0  0
  6 12  1  0  0  0  0
  7 11  1  0  0  0  0
  7  8  1  0  0  0  0
  7 29  1  0  0  0  0
  8  9  1  0  0  0  0
  8 30  1  0  0  0  0
  8 31  1  0  0  0  0
  9 10  1  0  0  0  0
  9 32  1  0  0  0  0
  9 33  1  0  0  0  0
 10 11  1  0  0  0  0
 10 34  1  0  0  0  0
 10 35  1  0  0  0  0
 12 13  2  0  0  0  0
 12 14  1  0  0  0  0
 14 15  1  0  0  0  0
 15 16  1  0  0  0  0
 15 36  1  0  0  0  0
 15 37  1  0  0  0  0
 16 27  1  0  0  0  0
 16 17  2  0  0  0  0
 17 18  1  0  0  0  0
 18 19  2  0  0  0  0
 19 20  1  0  0  0  0
 19 27  1  0  0  0  0
 20 26  1  0  0  0  0
 20 21  2  0  0  0  0
 21 22  1  0  0  0  0
 21 38  1  0  0  0  0
 22 23  2  0  0  0  0
 22 39  1  0  0  0  0
 23 24  1  0  0  0  0
 23 25  1  0  0  0  0
 25 26  2  0  0  0  0
 25 40  1  0  0  0  0
 26 41  1  0  0  0  0
M  END
> <s_m_source_file>
AV-unprocessed.smi

> <i_m_source_file_index>
132

> <i_lp_mmshare_version>
43012

> <i_f3d_flags>
0

> <s_epik_input>
TzFbQ0gyXVtDSDJdW0NIMl1bQ0BIXTFuKFtjSF1jKEYpYzI9TyljKD1PKW4yW0NIMl1jM25uYyhvMyktYzRbY0hdW2NIXWMoQ2wpW2NIXVtjSF00

> <s_epik_cmdline>
J2VwaWtfcHl0aG9uJywgJy1waCcsICc3LjAnLCAnLXRuJywgJzgnLCAnLW1hJywgJzIwMCcsICctbWV0YWxfYmluZGluZycsICctaW1hZScsICc8aW5maWxlLm1hZT4nLCAnLW9tYWUnLCAnPG91dGZpbGUubWFlPic=

> <r_lp_tautomer_probability>
1

> <r_epik_Ionization_Penalty>
2.5553e-09

> <r_epik_Ionization_Penalty_Charging>
2.54231e-09

> <r_epik_Ionization_Penalty_Neutral>
1.29923e-11

> <r_epik_State_Penalty>
-0

> <r_epik_Charging_Adjusted_Penalty>
2.54231e-09

> <i_epik_Tot_Q>
0

> <i_epik_Tot_abs_Q>
0

> <r_epik_Metal_State_Penalty>
-0

> <b_epik_Metal_Only>
0

> <s_epik_Chemistry_Notes>
This compound contains an acetal/aminal-like group ( X-CH(R)-Y where X, Y are N, S, or O) that may be acid/base labile, releasing an aldehyde.

> <s_lp_Force_Field>
OPLS_2005

> <r_lp_Energy>
32.6339

> <b_lp_Chiralities_Consistent>
1

> <s_lp_Variant>
AV-unprocessed.smi:132-1

> <Gold.Version>
5.8.1

> <Gold.Id.Protein>
6NUR|6NUR_protein|mol2

> <Gold.PLP.Fitness>
47.3540

> <Gold.PLP.PLP>
-41.9123

> <Gold.PLP.part.hbond>
-2.4810

> <Gold.PLP.part.metal>
0.0000

> <Gold.PLP.part.buried>
-4.5325

> <Gold.PLP.part.nonpolar>
-36.1139

> <Gold.PLP.part.repulsive>
0.2994

> <Gold.PLP.ligand.clash>
0.0000

> <Gold.PLP.ligand.torsion>
0.4847

> <Gold.PLP.Chemscore.Hbond>
2.1338

> <Gold.PLP.Chemscore.CHOScore>
0.0000

> <Gold.PLP.Chemscore.Metal>
0.0000

> <Gold.Chemscore.Hbonds>
donor molecule, donor type, donor heavy atom, donor atom, acceptor molecule, acceptor atom, score
      P1  H  7989  7998       L1    13  0.67
      P1  H  7997  8009       L1    27  0.50
      P1  H 10752 10763       L1     1  1.00

> <Gold.PLP.Chemscore.Internal.Correction>
0.0098

> <Gold.Rescore>
     Score         DG    S(hbond)    S(metal)    S(lipo)     H(rot)  DE(clash)    DE(int)     intcor
     16.51     -18.23       1.94        0.00      90.72       1.70       0.24       1.48       ----

> <Gold.Chemscore.Fitness>
16.5080

> <Gold.Chemscore.DG>
-18.2321

> <Gold.Chemscore.ZeroCoef>
-5.4800

> <Gold.Chemscore.Hbond>
1.9414

> <Gold.Chemscore.Metal>
0.0000

> <Gold.Chemscore.Lipo>
90.7236

> <Gold.Chemscore.Internal_Hbond>
0.0000

> <Gold.Chemscore.DEClash>
0.2445

> <Gold.Chemscore.DEInternal>
1.4796

> <Gold.Chemscore.Rot>
1.6980

> <Gold.Chemscore.Internal.Correction>
   9.000000E+99

> <Gold.Chemscore.Hbonds>
donor molecule, donor type, donor heavy atom, donor atom, acceptor molecule, acceptor atom, score
      P1  H  7989  7998       L1    13  0.67
      P1  H  7997  8009       L1    27  0.01
      P1  H 10752 10763       L1     1  0.98

> <Gold.Chemscore.Hbond.Weighted>
-6.4843

> <Gold.Chemscore.Metal.Weighted>
-0.0000

> <Gold.Chemscore.Lipo.Weighted>
-10.6147

> <Gold.Chemscore.Internal_Hbond.Weighted>
0.0000

> <Gold.Chemscore.DEClash.Weighted>
0.2445

> <Gold.Chemscore.DEInternal.Weighted>
1.4796

> <Gold.Chemscore.Rot.Weighted>
4.3469

> <Gold.Chemscore.Internal.Correction.Weighted>
   9.000000E+99

> <Gold.Protein.RotatedTorsions>
[ 6907 6896 6895 6894 ] final   74.58 input  -60.11 | X-H torsion
[ 7974 7965 7964 7962 ] final -131.39 input  175.53 | X-H torsion
[ 8008 7997 7996 7995 ] final -164.57 input   59.86 | X-H torsion
[ 10167 10162 10161 10158 ] final   31.59 input  -65.29 | X-H torsion
[ 10718 10713 10712 10709 ] final  -79.89 input   66.30 | X-H torsion
[ 10763 10752 10751 10750 ] final   64.50 input  -60.55 | X-H torsion
[ 11005 11000 10999 10996 ] final -100.27 input  -57.11 | X-H torsion

> <Gold.Protein.ActiveResidues>
 VAL166  LYS551  ARG553  GLY616  TRP617  ASP618  TYR619  PRO620  LYS621  CYS622 
 ASP623  PHE694  ASN695  SER759  ASP760  ASP761  ALA762  ILE779  LEU786  VAL792 
 PHE793  MET794  SER795  GLU796  ALA797  LYS798  CYS799  TRP800  GLU811  SER814 

> <Gold.Protein.RotatedAtoms>
  152.4983  134.4250  159.9492 H   0  0  0  0  0  0  0  0  0  0  0  0  # atno 6907 bound_to 6896
  151.4225  133.3688  159.2766 H   0  0  0  0  0  0  0  0  0  0  0  0  # atno 6908 bound_to 6896
  150.9212  134.8652  159.7550 H   0  0  0  0  0  0  0  0  0  0  0  0  # atno 6909 bound_to 6896
  144.9384  140.7210  143.4862 H   0  0  0  0  0  0  0  0  0  0  0  0  # atno 7974 bound_to 7965
  155.8374  140.0943  157.1755 H   0  0  0  0  0  0  0  0  0  0  0  0  # atno 8008 bound_to 7997
  154.3981  140.1407  156.3749 H   0  0  0  0  0  0  0  0  0  0  0  0  # atno 8009 bound_to 7997
  155.8101  140.3450  155.5455 H   0  0  0  0  0  0  0  0  0  0  0  0  # atno 8010 bound_to 7997
  140.4575  144.0956  150.6205 H   0  0  0  0  0  0  0  0  0  0  0  0  # atno 10167 bound_to 10162
  156.0082  130.4558  150.3717 H   0  0  0  0  0  0  0  0  0  0  0  0  # atno 10718 bound_to 10713
  153.0058  135.5391  154.6520 H   0  0  0  0  0  0  0  0  0  0  0  0  # atno 10763 bound_to 10752
  154.5750  135.2845  155.0792 H   0  0  0  0  0  0  0  0  0  0  0  0  # atno 10764 bound_to 10752
  154.1943  135.6495  153.5121 H   0  0  0  0  0  0  0  0  0  0  0  0  # atno 10765 bound_to 10752
  141.1277  133.8386  157.1080 H   0  0  0  0  0  0  0  0  0  0  0  0  # atno 11005 bound_to 11000
  145.3030  139.1844  143.4679 LP  0  0  0  0  0  0  0  0  0  0  0  0  # atno 17320 bound_to 7965
  146.3276  140.3023  142.8621 LP  0  0  0  0  0  0  0  0  0  0  0  0  # atno 17321 bound_to 7965
  140.4133  143.2646  151.9805 LP  0  0  0  0  0  0  0  0  0  0  0  0  # atno 17342 bound_to 10162
  139.4802  144.5896  151.7795 LP  0  0  0  0  0  0  0  0  0  0  0  0  # atno 17343 bound_to 10162
  157.1801  131.0390  151.2753 LP  0  0  0  0  0  0  0  0  0  0  0  0  # atno 17370 bound_to 10713
  157.4153  130.7408  149.6871 LP  0  0  0  0  0  0  0  0  0  0  0  0  # atno 17371 bound_to 10713
  140.0292  134.9909  157.0747 LP  0  0  0  0  0  0  0  0  0  0  0  0  # atno 17394 bound_to 11000
  140.4312  134.1778  155.7168 LP  0  0  0  0  0  0  0  0  0  0  0  0  # atno 17395 bound_to 11000

$$$$
