AV-unprocessed.smi:1006|AV-procd|sdf|4396|dock7
  -GOLD-   22720 2333D 1   1.00000     0.00000
 Structure written by MMmdl.
 47 49  0  0  0  0  0  0  0  0  3 V2000
  145.5323  136.1610  151.6134 C   0  0  0  0  0  0  0  0  0  0  0  0
  145.7453  136.4863  153.0765 C   0  0  0  0  0  0  0  0  0  0  0  0
  144.6672  136.6809  153.9637 C   0  0  0  0  0  0  0  0  0  0  0  0
  144.9902  136.9767  155.2994 C   0  0  0  0  0  0  0  0  0  0  0  0
  143.9911  137.1831  156.2472 N   0  0  0  0  0  0  0  0  0  0  0  0
  146.2706  137.0700  155.7103 N   0  0  0  0  0  0  0  0  0  0  0  0
  147.2479  136.8725  154.8154 C   0  0  0  0  0  0  0  0  0  0  0  0
  148.9524  136.9719  155.3342 S   0  0  0  0  0  0  0  0  0  0  0  0
  149.5970  138.3484  154.3322 C   0  0  0  0  0  0  0  0  0  0  0  0
  151.1322  138.4198  154.3765 C   0  0  2  0  0  0  0  0  0  0  0  0
  151.6618  137.1347  154.1135 O   0  0  0  0  0  0  0  0  0  0  0  0
  151.6493  138.9307  155.7354 C   0  0  0  0  0  0  0  0  0  0  0  0
  151.1661  140.2817  156.0580 N   0  0  0  0  0  0  0  0  0  0  0  0
  150.2957  141.0765  155.3778 C   0  0  0  0  0  0  0  0  0  0  0  0
  150.1642  142.2366  156.0782 N   0  3  0  0  0  0  0  0  0  0  0  0
  150.9622  142.1830  157.2229 C   0  0  0  0  0  0  0  0  0  0  0  0
  151.1609  143.1126  158.2368 C   0  0  0  0  0  0  0  0  0  0  0  0
  152.0497  142.7542  159.2752 C   0  0  0  0  0  0  0  0  0  0  0  0
  152.2891  143.7473  160.3997 C   0  0  0  0  0  0  0  0  0  0  0  0
  152.7069  141.4965  159.2719 C   0  0  0  0  0  0  0  0  0  0  0  0
  153.6637  141.1229  160.3913 C   0  0  0  0  0  0  0  0  0  0  0  0
  152.4904  140.5648  158.2316 C   0  0  0  0  0  0  0  0  0  0  0  0
  151.6096  140.9319  157.2165 C   0  0  0  0  0  0  0  0  0  0  0  0
  147.0217  136.5841  153.5257 N   0  3  0  0  0  0  0  0  0  0  0  0
  144.5033  136.3621  151.3135 H   0  0  0  0  0  0  0  0  0  0  0  0
  145.7435  135.1079  151.4262 H   0  0  0  0  0  0  0  0  0  0  0  0
  146.1909  136.7624  150.9857 H   0  0  0  0  0  0  0  0  0  0  0  0
  143.6415  136.6051  153.6322 H   0  0  0  0  0  0  0  0  0  0  0  0
  143.0120  137.1271  156.0064 H   0  0  0  0  0  0  0  0  0  0  0  0
  144.2132  137.3670  157.2152 H   0  0  0  0  0  0  0  0  0  0  0  0
  149.2643  138.2023  153.3040 H   0  0  0  0  0  0  0  0  0  0  0  0
  149.1671  139.2890  154.6794 H   0  0  0  0  0  0  0  0  0  0  0  0
  151.4809  139.0936  153.5924 H   0  0  0  0  0  0  0  0  0  0  0  0
  151.2489  136.7928  153.3348 H   0  0  0  0  0  0  0  0  0  0  0  0
  151.3043  138.2719  156.5332 H   0  0  0  0  0  0  0  0  0  0  0  0
  152.7384  138.9146  155.7785 H   0  0  0  0  0  0  0  0  0  0  0  0
  149.7988  140.8321  154.4499 H   0  0  0  0  0  0  0  0  0  0  0  0
  150.6587  144.0690  158.2314 H   0  0  0  0  0  0  0  0  0  0  0  0
  151.9728  143.3267  161.3544 H   0  0  0  0  0  0  0  0  0  0  0  0
  151.7317  144.6711  160.2413 H   0  0  0  0  0  0  0  0  0  0  0  0
  153.3464  144.0043  160.4667 H   0  0  0  0  0  0  0  0  0  0  0  0
  154.0710  140.1214  160.2505 H   0  0  0  0  0  0  0  0  0  0  0  0
  153.1535  141.1423  161.3548 H   0  0  0  0  0  0  0  0  0  0  0  0
  154.5007  141.8203  160.4278 H   0  0  0  0  0  0  0  0  0  0  0  0
  152.9964  139.6110  158.2275 H   0  0  0  0  0  0  0  0  0  0  0  0
  147.7984  136.4388  152.8804 H   0  0  0  0  0  0  0  0  0  0  0  0
  149.5733  143.0072  155.7930 H   0  0  0  0  0  0  0  0  0  0  0  0
  1  2  1  0  0  0  0
  1 25  1  0  0  0  0
  1 26  1  0  0  0  0
  1 27  1  0  0  0  0
  2 24  1  0  0  0  0
  2  3  2  0  0  0  0
  3  4  1  0  0  0  0
  3 28  1  0  0  0  0
  4  5  1  0  0  0  0
  4  6  2  0  0  0  0
  5 29  1  0  0  0  0
  5 30  1  0  0  0  0
  6  7  1  0  0  0  0
  7  8  1  0  0  0  0
  7 24  2  0  0  0  0
  8  9  1  0  0  0  0
  9 10  1  0  0  0  0
  9 31  1  0  0  0  0
  9 32  1  0  0  0  0
 10 11  1  0  0  0  0
 10 12  1  0  0  0  0
 10 33  1  0  0  0  0
 11 34  1  0  0  0  0
 12 13  1  0  0  0  0
 12 35  1  0  0  0  0
 12 36  1  0  0  0  0
 13 23  1  0  0  0  0
 13 14  1  0  0  0  0
 14 15  2  0  0  0  0
 14 37  1  0  0  0  0
 15 16  1  0  0  0  0
 15 47  1  0  0  0  0
 16 23  2  0  0  0  0
 16 17  1  0  0  0  0
 17 18  2  0  0  0  0
 17 38  1  0  0  0  0
 18 19  1  0  0  0  0
 18 20  1  0  0  0  0
 19 39  1  0  0  0  0
 19 40  1  0  0  0  0
 19 41  1  0  0  0  0
 20 21  1  0  0  0  0
 20 22  2  0  0  0  0
 21 42  1  0  0  0  0
 21 43  1  0  0  0  0
 21 44  1  0  0  0  0
 22 23  1  0  0  0  0
 22 45  1  0  0  0  0
 24 46  1  0  0  0  0
M  CHG  1  15   1
M  CHG  1  24   1
M  END
> <s_m_source_file>
AV-unprocessed.smi

> <i_m_source_file_index>
1006

> <i_lp_mmshare_version>
43012

> <i_f3d_flags>
0

> <s_epik_input>
W0NIM11jMVtjSF1jKFtOSDJdKW5jKG4xKVNbQ0gyXVtDQEhdKFtPSF0pW0NIMl1uKFtjSF1uMiljKGMyMylbY0hdYyhbQ0gzXSljKFtjSF0zKVtDSDNd

> <s_epik_cmdline>
J2VwaWtfcHl0aG9uJywgJy1waCcsICc3LjAnLCAnLXRuJywgJzgnLCAnLW1hJywgJzIwMCcsICctbWV0YWxfYmluZGluZycsICctaW1hZScsICc8aW5maWxlLm1hZT4nLCAnLW9tYWUnLCAnPG91dGZpbGUubWFlPic=

> <r_lp_tautomer_probability>
0.999762

> <r_epik_Ionization_Penalty>
1.50932

> <r_epik_Ionization_Penalty_Charging>
1.50929

> <r_epik_Ionization_Penalty_Neutral>
3.48853e-05

> <r_epik_State_Penalty>
1.56619

> <r_epik_Charging_Adjusted_Penalty>
3.07548

> <i_epik_Tot_Q>
2

> <i_epik_Tot_abs_Q>
2

> <r_epik_Metal_State_Penalty>
1.82892

> <b_epik_Metal_Only>
0

> <s_lp_Force_Field>
OPLS_2005

> <r_lp_Energy>
18.0663

> <b_lp_Chiralities_Consistent>
1

> <s_lp_Variant>
AV-unprocessed.smi:1006-7

> <Gold.Version>
5.8.1

> <Gold.Id.Protein>
6NUR|6NUR_protein|mol2

> <Gold.PLP.Fitness>
60.2094

> <Gold.PLP.PLP>
-42.5981

> <Gold.PLP.part.hbond>
-4.0000

> <Gold.PLP.part.metal>
0.0000

> <Gold.PLP.part.buried>
-5.3457

> <Gold.PLP.part.nonpolar>
-33.9451

> <Gold.PLP.part.repulsive>
0.1283

> <Gold.PLP.ligand.clash>
0.0000

> <Gold.PLP.ligand.torsion>
0.1303

> <Gold.PLP.Chemscore.Hbond>
5.9500

> <Gold.PLP.Chemscore.CHOScore>
0.0000

> <Gold.PLP.Chemscore.Metal>
0.0000

> <Gold.Chemscore.Hbonds>
donor molecule, donor type, donor heavy atom, donor atom, acceptor molecule, acceptor atom, score
      L1  H    11    34       P1  7949  1.00
      L1  H    15    47       P1  8028  2.00
      L1  H    24    46       P1  7948  2.00
      P1  H 10752 10765       L1    11  0.90

> <Gold.PLP.Chemscore.Internal.Correction>
0.0220

> <Gold.Rescore>
     Score         DG    S(hbond)    S(metal)    S(lipo)     H(rot)  DE(clash)    DE(int)     intcor
     19.25     -20.50       2.95        0.00     108.95       2.96       0.05       1.20       ----

> <Gold.Chemscore.Fitness>
19.2547

> <Gold.Chemscore.DG>
-20.5024

> <Gold.Chemscore.ZeroCoef>
-5.4800

> <Gold.Chemscore.Hbond>
2.9498

> <Gold.Chemscore.Metal>
0.0000

> <Gold.Chemscore.Lipo>
108.9519

> <Gold.Chemscore.Internal_Hbond>
0.0000

> <Gold.Chemscore.DEClash>
0.0458

> <Gold.Chemscore.DEInternal>
1.2019

> <Gold.Chemscore.Rot>
2.9599

> <Gold.Chemscore.Internal.Correction>
   9.000000E+99

> <Gold.Chemscore.Hbonds>
donor molecule, donor type, donor heavy atom, donor atom, acceptor molecule, acceptor atom, score
      L1  H    11    34       P1  7949  0.57
      L1  H    15    47       P1  8028  1.00
      L1  H    24    46       P1  7948  0.95
      P1  H 10752 10765       L1    11  0.17

> <Gold.Chemscore.Hbond.Weighted>
-9.8522

> <Gold.Chemscore.Metal.Weighted>
-0.0000

> <Gold.Chemscore.Lipo.Weighted>
-12.7474

> <Gold.Chemscore.Internal_Hbond.Weighted>
0.0000

> <Gold.Chemscore.DEClash.Weighted>
0.0458

> <Gold.Chemscore.DEInternal.Weighted>
1.2019

> <Gold.Chemscore.Rot.Weighted>
7.5772

> <Gold.Chemscore.Internal.Correction.Weighted>
   9.000000E+99

> <Gold.Protein.RotatedTorsions>
[ 6907 6896 6895 6894 ] final  -88.86 input  -60.11 | X-H torsion
[ 7974 7965 7964 7962 ] final  115.16 input  175.53 | X-H torsion
[ 8008 7997 7996 7995 ] final   26.86 input   59.86 | X-H torsion
[ 10167 10162 10161 10158 ] final   28.95 input  -65.29 | X-H torsion
[ 10718 10713 10712 10709 ] final   47.55 input   66.30 | X-H torsion
[ 10763 10752 10751 10750 ] final  171.49 input  -60.55 | X-H torsion
[ 11005 11000 10999 10996 ] final   16.63 input  -57.11 | X-H torsion

> <Gold.Protein.ActiveResidues>
 VAL166  LYS551  ARG553  GLY616  TRP617  ASP618  TYR619  PRO620  LYS621  CYS622 
 ASP623  PHE694  ASN695  SER759  ASP760  ASP761  ALA762  ILE779  LEU786  VAL792 
 PHE793  MET794  SER795  GLU796  ALA797  LYS798  CYS799  TRP800  GLU811  SER814 

> <Gold.Protein.RotatedAtoms>
  150.6870  134.2676  159.4574 H   0  0  0  0  0  0  0  0  0  0  0  0  # atno 6907 bound_to 6896
  152.0601  134.9597  160.0584 H   0  0  0  0  0  0  0  0  0  0  0  0  # atno 6908 bound_to 6896
  152.1028  133.4224  159.4631 H   0  0  0  0  0  0  0  0  0  0  0  0  # atno 6909 bound_to 6896
  145.1954  139.2979  143.4346 H   0  0  0  0  0  0  0  0  0  0  0  0  # atno 7974 bound_to 7965
  155.0339  140.3161  155.4748 H   0  0  0  0  0  0  0  0  0  0  0  0  # atno 8008 bound_to 7997
  156.2868  140.2175  156.5404 H   0  0  0  0  0  0  0  0  0  0  0  0  # atno 8009 bound_to 7997
  154.7347  140.0478  157.0745 H   0  0  0  0  0  0  0  0  0  0  0  0  # atno 8010 bound_to 7997
  140.4808  144.0619  150.6265 H   0  0  0  0  0  0  0  0  0  0  0  0  # atno 10167 bound_to 10162
  157.4597  130.8188  149.7873 H   0  0  0  0  0  0  0  0  0  0  0  0  # atno 10718 bound_to 10713
  154.4126  135.2756  155.2027 H   0  0  0  0  0  0  0  0  0  0  0  0  # atno 10763 bound_to 10752
  154.4007  135.6045  153.5899 H   0  0  0  0  0  0  0  0  0  0  0  0  # atno 10764 bound_to 10752
  152.9831  135.5925  154.4410 H   0  0  0  0  0  0  0  0  0  0  0  0  # atno 10765 bound_to 10752
  140.4450  134.1282  155.7695 H   0  0  0  0  0  0  0  0  0  0  0  0  # atno 11005 bound_to 11000
  146.3428  140.2181  142.8591 LP  0  0  0  0  0  0  0  0  0  0  0  0  # atno 17320 bound_to 7965
  145.0000  140.8623  143.5287 LP  0  0  0  0  0  0  0  0  0  0  0  0  # atno 17321 bound_to 7965
  140.3860  143.2777  152.0115 LP  0  0  0  0  0  0  0  0  0  0  0  0  # atno 17342 bound_to 10162
  139.4833  144.6116  151.7423 LP  0  0  0  0  0  0  0  0  0  0  0  0  # atno 17343 bound_to 10162
  156.0023  130.3873  150.2560 LP  0  0  0  0  0  0  0  0  0  0  0  0  # atno 17370 bound_to 10713
  157.0737  131.0124  151.3181 LP  0  0  0  0  0  0  0  0  0  0  0  0  # atno 17371 bound_to 10713
  141.1689  133.8648  157.1631 LP  0  0  0  0  0  0  0  0  0  0  0  0  # atno 17394 bound_to 11000
  140.0044  135.0014  157.0261 LP  0  0  0  0  0  0  0  0  0  0  0  0  # atno 17395 bound_to 11000

$$$$
