AV-unprocessed.smi:2124|AV-procd|sdf|8669|dock6
  -GOLD-   2272011423D 1   1.00000     0.00000
 Structure written by MMmdl.
 46 48  0  0  0  0  0  0  0  0  2 V2000
  157.6806  137.7154  162.5400 C   0  0  0  0  0  0  0  0  0  0  0  0
  156.3677  137.8827  161.8056 C   0  0  0  0  0  0  0  0  0  0  0  0
  155.8310  139.0413  161.7431 N   0  0  0  0  0  0  0  0  0  0  0  0
  154.6134  139.2032  161.0605 C   0  0  0  0  0  0  0  0  0  0  0  0
  154.0502  140.6135  161.0342 C   0  0  0  0  0  0  0  0  0  0  0  0
  153.9931  138.1456  160.4633 C   0  0  0  0  0  0  0  0  0  0  0  0
  152.6710  138.2689  159.7057 C   0  0  0  0  0  0  0  0  0  0  0  0
  152.5602  139.4280  158.7116 C   0  0  0  0  0  0  0  0  0  0  0  0
  153.3409  139.5206  157.7641 O   0  0  0  0  0  0  0  0  0  0  0  0
  151.5665  140.3014  158.9468 N   0  0  0  0  0  0  0  0  0  0  0  0
  151.2066  141.4807  158.1536 C   0  0  1  0  0  0  0  0  0  0  0  0
  149.8179  141.2973  157.5097 C   0  0  0  0  0  0  0  0  0  0  0  0
  151.3389  142.7984  158.9662 C   0  0  1  0  0  0  0  0  0  0  0  0
  152.8022  143.2515  159.2021 C   0  0  0  0  0  0  0  0  0  0  0  0
  152.8113  144.7038  158.6946 C   0  0  2  0  0  0  0  0  0  0  0  0
  151.9801  145.5887  159.6412 C   0  0  0  0  0  0  0  0  0  0  0  0
  150.5360  145.1553  159.3277 C   0  0  0  0  0  0  0  0  0  0  0  0
  150.7343  144.0474  158.2753 C   0  0  1  0  0  0  0  0  0  0  0  0
  151.9077  144.6025  157.4737 C   0  0  0  0  0  0  0  0  0  0  0  0
  154.6414  136.8262  160.5639 C   0  0  0  0  0  0  0  0  0  0  0  0
  154.1163  135.8360  160.0560 O   0  0  0  0  0  0  0  0  0  0  0  0
  155.8259  136.7526  161.2358 N   0  5  0  0  0  0  0  0  0  0  0  0
  157.9006  138.5903  163.1536 H   0  0  0  0  0  0  0  0  0  0  0  0
  158.4946  137.5815  161.8274 H   0  0  0  0  0  0  0  0  0  0  0  0
  157.6452  136.8433  163.1937 H   0  0  0  0  0  0  0  0  0  0  0  0
  154.0357  140.9988  160.0148 H   0  0  0  0  0  0  0  0  0  0  0  0
  154.6537  141.2904  161.6398 H   0  0  0  0  0  0  0  0  0  0  0  0
  153.0339  140.6310  161.4278 H   0  0  0  0  0  0  0  0  0  0  0  0
  152.5036  137.3431  159.1550 H   0  0  0  0  0  0  0  0  0  0  0  0
  151.8355  138.3293  160.4039 H   0  0  0  0  0  0  0  0  0  0  0  0
  150.9908  140.1256  159.7572 H   0  0  0  0  0  0  0  0  0  0  0  0
  151.9359  141.5077  157.3438 H   0  0  0  0  0  0  0  0  0  0  0  0
  149.6190  142.0606  156.7586 H   0  0  0  0  0  0  0  0  0  0  0  0
  149.0189  141.3497  158.2495 H   0  0  0  0  0  0  0  0  0  0  0  0
  149.7433  140.3314  157.0093 H   0  0  0  0  0  0  0  0  0  0  0  0
  150.8472  142.6553  159.9294 H   0  0  0  0  0  0  0  0  0  0  0  0
  153.0954  143.1730  160.2496 H   0  0  0  0  0  0  0  0  0  0  0  0
  153.5063  142.6566  158.6192 H   0  0  0  0  0  0  0  0  0  0  0  0
  153.8112  145.0914  158.4975 H   0  0  0  0  0  0  0  0  0  0  0  0
  152.2436  145.4331  160.6879 H   0  0  0  0  0  0  0  0  0  0  0  0
  152.1214  146.6457  159.4127 H   0  0  0  0  0  0  0  0  0  0  0  0
  150.0029  144.8047  160.2121 H   0  0  0  0  0  0  0  0  0  0  0  0
  149.9702  145.9884  158.9085 H   0  0  0  0  0  0  0  0  0  0  0  0
  149.8350  143.8569  157.6912 H   0  0  0  0  0  0  0  0  0  0  0  0
  151.6974  145.5681  157.0102 H   0  0  0  0  0  0  0  0  0  0  0  0
  152.2820  143.9162  156.7126 H   0  0  0  0  0  0  0  0  0  0  0  0
  1  2  1  0  0  0  0
  1 23  1  0  0  0  0
  1 24  1  0  0  0  0
  1 25  1  0  0  0  0
  2 22  1  0  0  0  0
  2  3  2  0  0  0  0
  3  4  1  0  0  0  0
  4  5  1  0  0  0  0
  4  6  2  0  0  0  0
  5 26  1  0  0  0  0
  5 27  1  0  0  0  0
  5 28  1  0  0  0  0
  6  7  1  0  0  0  0
  6 20  1  0  0  0  0
  7  8  1  0  0  0  0
  7 29  1  0  0  0  0
  7 30  1  0  0  0  0
  8  9  2  0  0  0  0
  8 10  1  0  0  0  0
 10 11  1  0  0  0  0
 10 31  1  0  0  0  0
 11 12  1  0  0  0  0
 11 13  1  0  0  0  0
 11 32  1  0  0  0  0
 12 33  1  0  0  0  0
 12 34  1  0  0  0  0
 12 35  1  0  0  0  0
 13 18  1  0  0  0  0
 13 14  1  0  0  0  0
 13 36  1  0  0  0  0
 14 15  1  0  0  0  0
 14 37  1  0  0  0  0
 14 38  1  0  0  0  0
 15 19  1  0  0  0  0
 15 16  1  0  0  0  0
 15 39  1  0  0  0  0
 16 17  1  0  0  0  0
 16 40  1  0  0  0  0
 16 41  1  0  0  0  0
 17 18  1  0  0  0  0
 17 42  1  0  0  0  0
 17 43  1  0  0  0  0
 18 19  1  0  0  0  0
 18 44  1  0  0  0  0
 19 45  1  0  0  0  0
 19 46  1  0  0  0  0
 20 21  2  0  0  0  0
 20 22  1  0  0  0  0
M  CHG  1  22  -1
M  END
> <s_m_source_file>
AV-unprocessed.smi

> <i_m_source_file_index>
2124

> <i_lp_mmshare_version>
43012

> <i_f3d_flags>
0

> <s_epik_input>
W0NIM11jMW5jKFtDSDNdKWMoYyg9TylbbkhdMSlbQ0gyXUMoPU8pW05IXVtDQEhdKFtDSDNdKVtDQEhdKFtDSDJdW0NASF0yMylbQ0BIXShbQ0gyXTMpW0NIMl1bQ0gyXTI=

> <s_epik_cmdline>
J2VwaWtfcHl0aG9uJywgJy1waCcsICc3LjAnLCAnLXRuJywgJzgnLCAnLW1hJywgJzIwMCcsICctbWV0YWxfYmluZGluZycsICctaW1hZScsICc8aW5maWxlLm1hZT4nLCAnLW9tYWUnLCAnPG91dGZpbGUubWFlPic=

> <r_lp_tautomer_probability>
0.839158

> <r_epik_Ionization_Penalty>
6.63797

> <r_epik_Ionization_Penalty_Charging>
7.48558e-08

> <r_epik_Ionization_Penalty_Neutral>
6.63797

> <r_epik_State_Penalty>
4.49496

> <r_epik_Charging_Adjusted_Penalty>
4.49496

> <i_epik_Tot_Q>
-1

> <i_epik_Tot_abs_Q>
1

> <r_epik_Metal_State_Penalty>
0.841241

> <b_epik_Metal_Only>
1

> <s_lp_Force_Field>
OPLS_2005

> <r_lp_Energy>
56.2785

> <b_lp_Chiralities_Consistent>
1

> <s_lp_Variant>
AV-unprocessed.smi:2124-20

> <Gold.Version>
5.8.1

> <Gold.Id.Protein>
6NUR|6NUR_protein|mol2

> <Gold.PLP.Fitness>
45.3165

> <Gold.PLP.PLP>
-40.0783

> <Gold.PLP.part.hbond>
-2.0000

> <Gold.PLP.part.metal>
0.0000

> <Gold.PLP.part.buried>
-5.7860

> <Gold.PLP.part.nonpolar>
-32.3322

> <Gold.PLP.part.repulsive>
0.1705

> <Gold.PLP.ligand.clash>
0.0000

> <Gold.PLP.ligand.torsion>
0.4094

> <Gold.PLP.Chemscore.Hbond>
2.0000

> <Gold.PLP.Chemscore.CHOScore>
0.0000

> <Gold.PLP.Chemscore.Metal>
0.0000

> <Gold.Chemscore.Hbonds>
donor molecule, donor type, donor heavy atom, donor atom, acceptor molecule, acceptor atom, score
      P1  H  6896  6908       L1    21  0.99
      P1  H  7997  8010       L1     9  1.00

> <Gold.PLP.Chemscore.Internal.Correction>
0.0570

> <Gold.Rescore>
     Score         DG    S(hbond)    S(metal)    S(lipo)     H(rot)  DE(clash)    DE(int)     intcor
     21.84     -22.13       1.99        0.00     120.68       1.61       0.09       0.21       ----

> <Gold.Chemscore.Fitness>
21.8378

> <Gold.Chemscore.DG>
-22.1345

> <Gold.Chemscore.ZeroCoef>
-5.4800

> <Gold.Chemscore.Hbond>
1.9893

> <Gold.Chemscore.Metal>
0.0000

> <Gold.Chemscore.Lipo>
120.6769

> <Gold.Chemscore.Internal_Hbond>
0.0000

> <Gold.Chemscore.DEClash>
0.0865

> <Gold.Chemscore.DEInternal>
0.2102

> <Gold.Chemscore.Rot>
1.6051

> <Gold.Chemscore.Internal.Correction>
   9.000000E+99

> <Gold.Chemscore.Hbonds>
donor molecule, donor type, donor heavy atom, donor atom, acceptor molecule, acceptor atom, score
      P1  H  6896  6908       L1    21  0.92
      P1  H  7997  8010       L1     9  0.93

> <Gold.Chemscore.Hbond.Weighted>
-6.6443

> <Gold.Chemscore.Metal.Weighted>
-0.0000

> <Gold.Chemscore.Lipo.Weighted>
-14.1192

> <Gold.Chemscore.Internal_Hbond.Weighted>
0.0000

> <Gold.Chemscore.DEClash.Weighted>
0.0865

> <Gold.Chemscore.DEInternal.Weighted>
0.2102

> <Gold.Chemscore.Rot.Weighted>
4.1090

> <Gold.Chemscore.Internal.Correction.Weighted>
   9.000000E+99

> <Gold.Protein.RotatedTorsions>
[ 6907 6896 6895 6894 ] final  -55.64 input  -60.11 | X-H torsion
[ 7974 7965 7964 7962 ] final   10.21 input  175.53 | X-H torsion
[ 8008 7997 7996 7995 ] final   43.89 input   59.86 | X-H torsion
[ 10167 10162 10161 10158 ] final -110.69 input  -65.29 | X-H torsion
[ 10718 10713 10712 10709 ] final   34.43 input   66.30 | X-H torsion
[ 10763 10752 10751 10750 ] final -153.85 input  -60.55 | X-H torsion
[ 11005 11000 10999 10996 ] final   33.49 input  -57.11 | X-H torsion

> <Gold.Protein.ActiveResidues>
 VAL166  LYS551  ARG553  GLY616  TRP617  ASP618  TYR619  PRO620  LYS621  CYS622 
 ASP623  PHE694  ASN695  SER759  ASP760  ASP761  ALA762  ILE779  LEU786  VAL792 
 PHE793  MET794  SER795  GLU796  ALA797  LYS798  CYS799  TRP800  GLU811  SER814 

> <Gold.Protein.RotatedAtoms>
  150.8234  134.7453  159.6791 H   0  0  0  0  0  0  0  0  0  0  0  0  # atno 6907 bound_to 6896
  152.4347  134.5705  159.9930 H   0  0  0  0  0  0  0  0  0  0  0  0  # atno 6908 bound_to 6896
  151.5884  133.3332  159.3058 H   0  0  0  0  0  0  0  0  0  0  0  0  # atno 6909 bound_to 6896
  146.2392  139.9668  142.8452 H   0  0  0  0  0  0  0  0  0  0  0  0  # atno 7974 bound_to 7965
  155.3102  140.3390  155.4244 H   0  0  0  0  0  0  0  0  0  0  0  0  # atno 8008 bound_to 7997
  156.1959  140.1715  156.8036 H   0  0  0  0  0  0  0  0  0  0  0  0  # atno 8009 bound_to 7997
  154.5499  140.0708  156.8634 H   0  0  0  0  0  0  0  0  0  0  0  0  # atno 8010 bound_to 7997
  140.1417  143.4273  152.1557 H   0  0  0  0  0  0  0  0  0  0  0  0  # atno 10167 bound_to 10162
  157.3103  130.7395  149.6720 H   0  0  0  0  0  0  0  0  0  0  0  0  # atno 10718 bound_to 10713
  154.7900  135.3203  154.7800 H   0  0  0  0  0  0  0  0  0  0  0  0  # atno 10763 bound_to 10752
  153.8491  135.6864  153.4798 H   0  0  0  0  0  0  0  0  0  0  0  0  # atno 10764 bound_to 10752
  153.1566  135.4678  154.9653 H   0  0  0  0  0  0  0  0  0  0  0  0  # atno 10765 bound_to 10752
  140.2626  134.3175  155.7853 H   0  0  0  0  0  0  0  0  0  0  0  0  # atno 11005 bound_to 11000
  145.1719  140.9725  143.4316 LP  0  0  0  0  0  0  0  0  0  0  0  0  # atno 17320 bound_to 7965
  145.0021  139.3589  143.6162 LP  0  0  0  0  0  0  0  0  0  0  0  0  # atno 17321 bound_to 7965
  139.5468  144.7305  151.4557 LP  0  0  0  0  0  0  0  0  0  0  0  0  # atno 17342 bound_to 10162
  140.6756  143.8197  150.7054 LP  0  0  0  0  0  0  0  0  0  0  0  0  # atno 17343 bound_to 10162
  155.9677  130.4253  150.4649 LP  0  0  0  0  0  0  0  0  0  0  0  0  # atno 17370 bound_to 10713
  157.2646  131.0574  151.2298 LP  0  0  0  0  0  0  0  0  0  0  0  0  # atno 17371 bound_to 10713
  141.2188  133.7418  156.9210 LP  0  0  0  0  0  0  0  0  0  0  0  0  # atno 17394 bound_to 11000
  140.1450  134.9268  157.2517 LP  0  0  0  0  0  0  0  0  0  0  0  0  # atno 17395 bound_to 11000

$$$$
