AV-unprocessed.smi:2775|AV-procd|sdf|10692|dock9
  -GOLD-   2272015133D 1   1.00000     0.00000
 Structure written by MMmdl.
 42 45  0  0  0  0  0  0  0  0  1 V2000
  151.6384  140.1650  155.8750 C   0  0  0  0  0  0  0  0  0  0  0  0
  150.3250  140.2609  155.1216 C   0  0  0  0  0  0  0  0  0  0  0  0
  149.7675  141.4908  155.0717 N   0  0  0  0  0  0  0  0  0  0  0  0
  148.5948  141.6308  154.4199 C   0  0  0  0  0  0  0  0  0  0  0  0
  147.9283  140.5647  153.7865 C   0  0  0  0  0  0  0  0  0  0  0  0
  148.5190  139.2796  153.8226 C   0  0  0  0  0  0  0  0  0  0  0  0
  147.9262  138.1321  153.2312 N   0  0  0  0  0  0  0  0  0  0  0  0
  146.6354  137.9230  152.9093 C   0  0  0  0  0  0  0  0  0  0  0  0
  145.7126  138.6936  153.1657 O   0  0  0  0  0  0  0  0  0  0  0  0
  146.4287  136.7905  152.2152 N   0  0  0  0  0  0  0  0  0  0  0  0
  145.1497  136.2737  151.7153 C   0  0  2  0  0  0  0  0  0  0  0  0
  144.0740  136.0632  152.8143 C   0  0  2  0  0  0  0  0  0  0  0  0
  144.2072  136.5799  154.2277 C   0  0  0  0  0  0  0  0  0  0  0  0
  144.6778  135.3445  154.9995 C   0  0  0  0  0  0  0  0  0  0  0  0
  145.2531  134.4962  154.0088 O   0  0  0  0  0  0  0  0  0  0  0  0
  144.4424  134.5847  152.8411 C   0  0  2  0  0  0  0  0  0  0  0  0
  145.1997  134.7491  151.5167 C   0  0  0  0  0  0  0  0  0  0  0  0
  146.4946  133.9698  151.2325 C   0  0  0  0  0  0  0  0  0  0  0  0
  145.6654  133.0022  150.3838 C   0  0  0  0  0  0  0  0  0  0  0  0
  144.6163  134.1099  150.2472 C   0  0  0  0  0  0  0  0  0  0  0  0
  149.7399  139.1226  154.5188 C   0  0  0  0  0  0  0  0  0  0  0  0
  150.5069  137.5721  154.6202 Cl  0  0  0  0  0  0  0  0  0  0  0  0
  152.4221  139.7766  155.2240 H   0  0  0  0  0  0  0  0  0  0  0  0
  151.5363  139.4968  156.7304 H   0  0  0  0  0  0  0  0  0  0  0  0
  151.9613  141.1394  156.2445 H   0  0  0  0  0  0  0  0  0  0  0  0
  148.1703  142.6236  154.4078 H   0  0  0  0  0  0  0  0  0  0  0  0
  146.9826  140.7476  153.3001 H   0  0  0  0  0  0  0  0  0  0  0  0
  148.5781  137.4422  152.8871 H   0  0  0  0  0  0  0  0  0  0  0  0
  147.2491  136.2667  151.9460 H   0  0  0  0  0  0  0  0  0  0  0  0
  144.7699  136.7926  150.8336 H   0  0  0  0  0  0  0  0  0  0  0  0
  143.0757  136.2016  152.3965 H   0  0  0  0  0  0  0  0  0  0  0  0
  144.9292  137.3901  154.3107 H   0  0  0  0  0  0  0  0  0  0  0  0
  143.2609  136.9521  154.6210 H   0  0  0  0  0  0  0  0  0  0  0  0
  145.3929  135.5859  155.7861 H   0  0  0  0  0  0  0  0  0  0  0  0
  143.8290  134.8319  155.4549 H   0  0  0  0  0  0  0  0  0  0  0  0
  143.5869  133.9077  152.8356 H   0  0  0  0  0  0  0  0  0  0  0  0
  147.2105  134.5378  150.6361 H   0  0  0  0  0  0  0  0  0  0  0  0
  146.9656  133.5220  152.1078 H   0  0  0  0  0  0  0  0  0  0  0  0
  146.1341  132.6974  149.4477 H   0  0  0  0  0  0  0  0  0  0  0  0
  145.3031  132.1458  150.9549 H   0  0  0  0  0  0  0  0  0  0  0  0
  143.5829  133.7725  150.3329 H   0  0  0  0  0  0  0  0  0  0  0  0
  144.7667  134.7223  149.3567 H   0  0  0  0  0  0  0  0  0  0  0  0
  1  2  1  0  0  0  0
  1 23  1  0  0  0  0
  1 24  1  0  0  0  0
  1 25  1  0  0  0  0
  2 21  1  0  0  0  0
  2  3  2  0  0  0  0
  3  4  1  0  0  0  0
  4  5  2  0  0  0  0
  4 26  1  0  0  0  0
  5  6  1  0  0  0  0
  5 27  1  0  0  0  0
  6  7  1  0  0  0  0
  6 21  2  0  0  0  0
  7  8  1  0  0  0  0
  7 28  1  0  0  0  0
  8  9  2  0  0  0  0
  8 10  1  0  0  0  0
 10 11  1  0  0  0  0
 10 29  1  0  0  0  0
 11 17  1  0  0  0  0
 11 12  1  0  0  0  0
 11 30  1  0  0  0  0
 12 16  1  0  0  0  0
 12 13  1  0  0  0  0
 12 31  1  0  0  0  0
 13 14  1  0  0  0  0
 13 32  1  0  0  0  0
 13 33  1  0  0  0  0
 14 15  1  0  0  0  0
 14 34  1  0  0  0  0
 14 35  1  0  0  0  0
 15 16  1  0  0  0  0
 16 17  1  0  0  0  0
 16 36  1  0  0  0  0
 17 20  1  0  0  0  0
 17 18  1  0  0  0  0
 18 19  1  0  0  0  0
 18 37  1  0  0  0  0
 18 38  1  0  0  0  0
 19 20  1  0  0  0  0
 19 39  1  0  0  0  0
 19 40  1  0  0  0  0
 20 41  1  0  0  0  0
 20 42  1  0  0  0  0
 21 22  1  0  0  0  0
M  END
> <s_m_source_file>
AV-unprocessed.smi

> <i_m_source_file_index>
2775

> <i_lp_mmshare_version>
43012

> <i_f3d_flags>
0

> <s_epik_input>
W0NIM11jMW5bY0hdW2NIXWMoYzFDbClbTkhdQyg9TylbTkhdW0NAQEhdMltDQEhdKFtDSDJdW0NIMl1PMylbQ0BASF0zQzI0W0NIMl1bQ0gyXVtDSDJdNA==

> <s_epik_cmdline>
J2VwaWtfcHl0aG9uJywgJy1waCcsICc3LjAnLCAnLXRuJywgJzgnLCAnLW1hJywgJzIwMCcsICctbWV0YWxfYmluZGluZycsICctaW1hZScsICc8aW5maWxlLm1hZT4nLCAnLW9tYWUnLCAnPG91dGZpbGUubWFlPic=

> <r_epik_Ionization_Penalty>
0.01026

> <r_epik_Ionization_Penalty_Charging>
0

> <r_epik_Ionization_Penalty_Neutral>
0.01026

> <r_epik_State_Penalty>
0.00780685

> <r_epik_Charging_Adjusted_Penalty>
0.00780685

> <i_epik_Tot_Q>
0

> <i_epik_Tot_abs_Q>
0

> <r_epik_Metal_State_Penalty>
0.00767411

> <b_epik_Metal_Only>
0

> <s_lp_Force_Field>
OPLS_2005

> <r_lp_Energy>
58.5604

> <b_lp_Chiralities_Consistent>
1

> <s_lp_Variant>
AV-unprocessed.smi:2775-5

> <Gold.Version>
5.8.1

> <Gold.Id.Protein>
6NUR|6NUR_protein|mol2

> <Gold.PLP.Fitness>
40.8725

> <Gold.PLP.PLP>
-32.3491

> <Gold.PLP.part.hbond>
-2.6715

> <Gold.PLP.part.metal>
0.0000

> <Gold.PLP.part.buried>
0.0220

> <Gold.PLP.part.nonpolar>
-31.5064

> <Gold.PLP.part.repulsive>
2.6650

> <Gold.PLP.ligand.clash>
0.0000

> <Gold.PLP.ligand.torsion>
0.2831

> <Gold.PLP.Chemscore.Hbond>
1.9600

> <Gold.PLP.Chemscore.CHOScore>
1.0000

> <Gold.PLP.Chemscore.Metal>
0.0000

> <Gold.Chemscore.Hbonds>
donor molecule, donor type, donor heavy atom, donor atom, acceptor molecule, acceptor atom, score
      L1  H     7    28       P1  7948  1.00
      L1  H    10    29       P1  7948  0.96
      L1  C     4    26       P1  8028  1.00

> <Gold.PLP.Chemscore.Internal.Correction>
0.2095

> <Gold.Rescore>
     Score         DG    S(hbond)    S(metal)    S(lipo)     H(rot)  DE(clash)    DE(int)     intcor
     15.32     -19.88       1.94        0.00      89.54       1.00       1.94       2.62       ----

> <Gold.Chemscore.Fitness>
15.3184

> <Gold.Chemscore.DG>
-19.8849

> <Gold.Chemscore.ZeroCoef>
-5.4800

> <Gold.Chemscore.Hbond>
1.9427

> <Gold.Chemscore.Metal>
0.0000

> <Gold.Chemscore.Lipo>
89.5393

> <Gold.Chemscore.Internal_Hbond>
0.0000

> <Gold.Chemscore.DEClash>
1.9448

> <Gold.Chemscore.DEInternal>
2.6216

> <Gold.Chemscore.Rot>
1.0000

> <Gold.Chemscore.Internal.Correction>
   9.000000E+99

> <Gold.Chemscore.Hbonds>
donor molecule, donor type, donor heavy atom, donor atom, acceptor molecule, acceptor atom, score
      L1  H     7    28       P1  7948  0.95
      L1  H    10    29       P1  7948  0.92

> <Gold.Chemscore.Hbond.Weighted>
-6.4888

> <Gold.Chemscore.Metal.Weighted>
-0.0000

> <Gold.Chemscore.Lipo.Weighted>
-10.4761

> <Gold.Chemscore.Internal_Hbond.Weighted>
0.0000

> <Gold.Chemscore.DEClash.Weighted>
1.9448

> <Gold.Chemscore.DEInternal.Weighted>
2.6216

> <Gold.Chemscore.Rot.Weighted>
2.5600

> <Gold.Chemscore.Internal.Correction.Weighted>
   9.000000E+99

> <Gold.Protein.RotatedTorsions>
[ 6907 6896 6895 6894 ] final -155.62 input  -60.11 | X-H torsion
[ 7974 7965 7964 7962 ] final  -39.10 input  175.53 | X-H torsion
[ 8008 7997 7996 7995 ] final -131.08 input   59.86 | X-H torsion
[ 10167 10162 10161 10158 ] final -135.75 input  -65.29 | X-H torsion
[ 10718 10713 10712 10709 ] final -122.44 input   66.30 | X-H torsion
[ 10763 10752 10751 10750 ] final  -94.98 input  -60.55 | X-H torsion
[ 11005 11000 10999 10996 ] final    3.11 input  -57.11 | X-H torsion

> <Gold.Protein.ActiveResidues>
 VAL166  LYS551  ARG553  GLY616  TRP617  ASP618  TYR619  PRO620  LYS621  CYS622 
 ASP623  PHE694  ASN695  SER759  ASP760  ASP761  ALA762  ILE779  LEU786  VAL792 
 PHE793  MET794  SER795  GLU796  ALA797  LYS798  CYS799  TRP800  GLU811  SER814 

> <Gold.Protein.RotatedAtoms>
  151.2752  133.4236  159.2623 H   0  0  0  0  0  0  0  0  0  0  0  0  # atno 6907 bound_to 6896
  151.0409  134.9607  159.8171 H   0  0  0  0  0  0  0  0  0  0  0  0  # atno 6908 bound_to 6896
  152.5365  134.2710  159.9024 H   0  0  0  0  0  0  0  0  0  0  0  0  # atno 6909 bound_to 6896
  146.0427  140.6587  142.9079 H   0  0  0  0  0  0  0  0  0  0  0  0  # atno 7974 bound_to 7965
  155.3064  140.0455  157.3032 H   0  0  0  0  0  0  0  0  0  0  0  0  # atno 8008 bound_to 7997
  154.5457  140.2302  155.8533 H   0  0  0  0  0  0  0  0  0  0  0  0  # atno 8009 bound_to 7997
  156.1922  140.3047  155.9362 H   0  0  0  0  0  0  0  0  0  0  0  0  # atno 8010 bound_to 7997
  139.8747  143.6914  152.2635 H   0  0  0  0  0  0  0  0  0  0  0  0  # atno 10167 bound_to 10162
  156.1419  130.6472  150.9783 H   0  0  0  0  0  0  0  0  0  0  0  0  # atno 10718 bound_to 10713
  154.7106  135.5137  153.8661 H   0  0  0  0  0  0  0  0  0  0  0  0  # atno 10763 bound_to 10752
  153.0777  135.6621  154.0119 H   0  0  0  0  0  0  0  0  0  0  0  0  # atno 10764 bound_to 10752
  153.9961  135.3015  155.3387 H   0  0  0  0  0  0  0  0  0  0  0  0  # atno 10765 bound_to 10752
  140.5968  133.9873  155.8113 H   0  0  0  0  0  0  0  0  0  0  0  0  # atno 11005 bound_to 11000
  144.7082  140.3937  143.7101 LP  0  0  0  0  0  0  0  0  0  0  0  0  # atno 17320 bound_to 7965
  145.6858  139.1628  143.2675 LP  0  0  0  0  0  0  0  0  0  0  0  0  # atno 17321 bound_to 7965
  139.7251  144.7594  151.0891 LP  0  0  0  0  0  0  0  0  0  0  0  0  # atno 17342 bound_to 10162
  140.7755  143.5158  150.9597 LP  0  0  0  0  0  0  0  0  0  0  0  0  # atno 17343 bound_to 10162
  157.6583  131.0885  150.7897 LP  0  0  0  0  0  0  0  0  0  0  0  0  # atno 17370 bound_to 10713
  156.7972  130.4909  149.5375 LP  0  0  0  0  0  0  0  0  0  0  0  0  # atno 17371 bound_to 10713
  141.0899  133.9933  157.3254 LP  0  0  0  0  0  0  0  0  0  0  0  0  # atno 17394 bound_to 11000
  139.9250  135.0201  156.8201 LP  0  0  0  0  0  0  0  0  0  0  0  0  # atno 17395 bound_to 11000

$$$$
