AV-unprocessed.smi:3330|AV-procd|sdf|12811|dock8
  -GOLD-   2272019183D 1   1.00000     0.00000
 Structure written by MMmdl.
 38 39  0  0  0  0  0  0  0  0  3 V2000
  145.6026  136.2342  151.4759 C   0  0  0  0  0  0  0  0  0  0  0  0
  145.6891  135.3579  152.7391 C   0  0  2  0  0  0  0  0  0  0  0  0
  147.0193  134.7094  152.7760 N   0  3  0  0  0  0  0  0  0  0  0  0
  147.3135  133.9621  154.0147 C   0  0  0  0  0  0  0  0  0  0  0  0
  148.7953  133.5663  154.0747 C   0  0  0  0  0  0  0  0  0  0  0  0
  149.4181  134.0422  155.3124 N   0  0  0  0  0  0  0  0  0  0  0  0
  149.5034  135.3273  155.6685 C   0  0  0  0  0  0  0  0  0  0  0  0
  149.1016  136.3110  155.0469 O   0  0  0  0  0  0  0  0  0  0  0  0
  150.1860  135.3816  157.0154 C   0  0  0  0  0  0  0  0  0  0  0  0
  150.4185  133.9832  157.2993 N   0  5  0  0  0  0  0  0  0  0  0  0
  149.9427  133.2500  156.2664 C   0  0  0  0  0  0  0  0  0  0  0  0
  149.9540  132.0235  156.1655 O   0  0  0  0  0  0  0  0  0  0  0  0
  144.5599  134.2938  152.8182 C   0  0  1  0  0  0  0  0  0  0  0  0
  143.1472  134.9089  152.8113 C   0  0  0  0  0  0  0  0  0  0  0  0
  144.6722  133.2959  151.7617 N   0  0  0  0  0  0  0  0  0  0  0  0
  143.7158  132.9136  150.8433 C   0  0  0  0  0  0  0  0  0  0  0  0
  144.2714  131.9499  150.0516 C   0  0  0  0  0  0  0  0  0  0  0  0
  145.5906  131.8093  150.5651 C   0  0  0  0  0  0  0  0  0  0  0  0
  145.8281  132.6158  151.5867 N   0  0  0  0  0  0  0  0  0  0  0  0
  144.6884  136.8276  151.4549 H   0  0  0  0  0  0  0  0  0  0  0  0
  145.6271  135.6280  150.5698 H   0  0  0  0  0  0  0  0  0  0  0  0
  146.4365  136.9353  151.4293 H   0  0  0  0  0  0  0  0  0  0  0  0
  145.5984  136.0285  153.5958 H   0  0  0  0  0  0  0  0  0  0  0  0
  147.0913  134.0792  151.9903 H   0  0  0  0  0  0  0  0  0  0  0  0
  147.0553  134.5817  154.8748 H   0  0  0  0  0  0  0  0  0  0  0  0
  146.6868  133.0710  154.0617 H   0  0  0  0  0  0  0  0  0  0  0  0
  148.8976  132.4818  154.0035 H   0  0  0  0  0  0  0  0  0  0  0  0
  149.3247  133.9707  153.2100 H   0  0  0  0  0  0  0  0  0  0  0  0
  151.1041  135.9655  156.9433 H   0  0  0  0  0  0  0  0  0  0  0  0
  149.5343  135.8662  157.7432 H   0  0  0  0  0  0  0  0  0  0  0  0
  144.6751  133.7575  153.7614 H   0  0  0  0  0  0  0  0  0  0  0  0
  142.9768  135.5296  153.6908 H   0  0  0  0  0  0  0  0  0  0  0  0
  142.3821  134.1319  152.8159 H   0  0  0  0  0  0  0  0  0  0  0  0
  142.9845  135.5293  151.9293 H   0  0  0  0  0  0  0  0  0  0  0  0
  142.7291  133.3529  150.8301 H   0  0  0  0  0  0  0  0  0  0  0  0
  143.8066  131.4263  149.2292 H   0  0  0  0  0  0  0  0  0  0  0  0
  146.3771  131.1501  150.2282 H   0  0  0  0  0  0  0  0  0  0  0  0
  147.7234  135.4267  152.6773 H   0  0  0  0  0  0  0  0  0  0  0  0
  1  2  1  0  0  0  0
  1 20  1  0  0  0  0
  1 21  1  0  0  0  0
  1 22  1  0  0  0  0
  2  3  1  0  0  0  0
  2 13  1  0  0  0  0
  2 23  1  0  0  0  0
  3  4  1  0  0  0  0
  3 24  1  0  0  0  0
  3 38  1  0  0  0  0
  4  5  1  0  0  0  0
  4 25  1  0  0  0  0
  4 26  1  0  0  0  0
  5  6  1  0  0  0  0
  5 27  1  0  0  0  0
  5 28  1  0  0  0  0
  6 11  1  0  0  0  0
  6  7  1  0  0  0  0
  7  8  2  0  0  0  0
  7  9  1  0  0  0  0
  9 10  1  0  0  0  0
  9 29  1  0  0  0  0
  9 30  1  0  0  0  0
 10 11  1  0  0  0  0
 11 12  2  0  0  0  0
 13 14  1  0  0  0  0
 13 15  1  0  0  0  0
 13 31  1  0  0  0  0
 14 32  1  0  0  0  0
 14 33  1  0  0  0  0
 14 34  1  0  0  0  0
 15 19  1  0  0  0  0
 15 16  1  0  0  0  0
 16 17  2  0  0  0  0
 16 35  1  0  0  0  0
 17 18  1  0  0  0  0
 17 36  1  0  0  0  0
 18 19  2  0  0  0  0
 18 37  1  0  0  0  0
M  CHG  1   3   1
M  CHG  1  10  -1
M  END
> <s_m_source_file>
AV-unprocessed.smi

> <i_m_source_file_index>
3330

> <i_lp_mmshare_version>
43012

> <i_f3d_flags>
0

> <s_epik_input>
bjFbY0hdW2NIXVtjSF1uMVtDQEBIXShbQ0gzXSlbQ0BIXShbQ0gzXSlbTkhdW0NIMl1bQ0gyXU4yQyg9TylbQ0gyXVtOSF1DMj1P

> <s_epik_cmdline>
J2VwaWtfcHl0aG9uJywgJy1waCcsICc3LjAnLCAnLXRuJywgJzgnLCAnLW1hJywgJzIwMCcsICctbWV0YWxfYmluZGluZycsICctaW1hZScsICc8aW5maWxlLm1hZT4nLCAnLW9tYWUnLCAnPG91dGZpbGUubWFlPic=

> <r_lp_tautomer_probability>
1

> <r_epik_Ionization_Penalty>
5.18149

> <r_epik_Ionization_Penalty_Charging>
5.18148

> <r_epik_Ionization_Penalty_Neutral>
9.83265e-06

> <r_epik_State_Penalty>
5.18201

> <r_epik_Charging_Adjusted_Penalty>
10.3635

> <i_epik_Tot_Q>
0

> <i_epik_Tot_abs_Q>
2

> <r_epik_Metal_State_Penalty>
1.25422

> <b_epik_Metal_Only>
1

> <s_lp_Force_Field>
OPLS_2005

> <r_lp_Energy>
16.3237

> <b_lp_Chiralities_Consistent>
1

> <s_lp_Variant>
AV-unprocessed.smi:3330-11

> <Gold.Version>
5.8.1

> <Gold.Id.Protein>
6NUR|6NUR_protein|mol2

> <Gold.PLP.Fitness>
45.8622

> <Gold.PLP.PLP>
-29.8709

> <Gold.PLP.part.hbond>
-2.0000

> <Gold.PLP.part.metal>
0.0000

> <Gold.PLP.part.buried>
-5.4379

> <Gold.PLP.part.nonpolar>
-24.4631

> <Gold.PLP.part.repulsive>
0.2648

> <Gold.PLP.ligand.clash>
0.0000

> <Gold.PLP.ligand.torsion>
0.4677

> <Gold.PLP.Chemscore.Hbond>
3.6064

> <Gold.PLP.Chemscore.CHOScore>
2.0000

> <Gold.PLP.Chemscore.Metal>
0.0000

> <Gold.Chemscore.Hbonds>
donor molecule, donor type, donor heavy atom, donor atom, acceptor molecule, acceptor atom, score
      L1  H     3    38       P1  7948  2.00
      P1  H  6896  6909       L1    10  1.54
      L1  C    16    35       P1 10186  1.00
      L1  C    18    37       P1 10747  0.81

> <Gold.PLP.Chemscore.Internal.Correction>
0.1075

> <Gold.Rescore>
     Score         DG    S(hbond)    S(metal)    S(lipo)     H(rot)  DE(clash)    DE(int)     intcor
     10.47     -12.47       1.80        0.00      65.16       2.59       0.02       1.99       ----

> <Gold.Chemscore.Fitness>
10.4712

> <Gold.Chemscore.DG>
-12.4733

> <Gold.Chemscore.ZeroCoef>
-5.4800

> <Gold.Chemscore.Hbond>
1.7966

> <Gold.Chemscore.Metal>
0.0000

> <Gold.Chemscore.Lipo>
65.1612

> <Gold.Chemscore.Internal_Hbond>
0.0000

> <Gold.Chemscore.DEClash>
0.0155

> <Gold.Chemscore.DEInternal>
1.9866

> <Gold.Chemscore.Rot>
2.5903

> <Gold.Chemscore.Internal.Correction>
   9.000000E+99

> <Gold.Chemscore.Hbonds>
donor molecule, donor type, donor heavy atom, donor atom, acceptor molecule, acceptor atom, score
      L1  H     3    38       P1  7948  0.96
      P1  H  6896  6909       L1    10  0.55

> <Gold.Chemscore.Hbond.Weighted>
-6.0005

> <Gold.Chemscore.Metal.Weighted>
-0.0000

> <Gold.Chemscore.Lipo.Weighted>
-7.6239

> <Gold.Chemscore.Internal_Hbond.Weighted>
0.0000

> <Gold.Chemscore.DEClash.Weighted>
0.0155

> <Gold.Chemscore.DEInternal.Weighted>
1.9866

> <Gold.Chemscore.Rot.Weighted>
6.6311

> <Gold.Chemscore.Internal.Correction.Weighted>
   9.000000E+99

> <Gold.Protein.RotatedTorsions>
[ 6907 6896 6895 6894 ] final   -4.66 input  -60.11 | X-H torsion
[ 7974 7965 7964 7962 ] final -174.31 input  175.53 | X-H torsion
[ 8008 7997 7996 7995 ] final   -4.19 input   59.86 | X-H torsion
[ 10167 10162 10161 10158 ] final  -60.73 input  -65.29 | X-H torsion
[ 10718 10713 10712 10709 ] final  157.66 input   66.30 | X-H torsion
[ 10763 10752 10751 10750 ] final   46.31 input  -60.55 | X-H torsion
[ 11005 11000 10999 10996 ] final  170.15 input  -57.11 | X-H torsion

> <Gold.Protein.ActiveResidues>
 VAL166  LYS551  ARG553  GLY616  TRP617  ASP618  TYR619  PRO620  LYS621  CYS622 
 ASP623  PHE694  ASN695  SER759  ASP760  ASP761  ALA762  ILE779  LEU786  VAL792 
 PHE793  MET794  SER795  GLU796  ALA797  LYS798  CYS799  TRP800  GLU811  SER814 

> <Gold.Protein.RotatedAtoms>
  151.4941  135.1059  159.9811 H   0  0  0  0  0  0  0  0  0  0  0  0  # atno 6907 bound_to 6896
  152.4729  133.8066  159.6992 H   0  0  0  0  0  0  0  0  0  0  0  0  # atno 6908 bound_to 6896
  150.8748  133.7391  159.2976 H   0  0  0  0  0  0  0  0  0  0  0  0  # atno 6909 bound_to 6896
  144.7132  140.1490  143.6385 H   0  0  0  0  0  0  0  0  0  0  0  0  # atno 7974 bound_to 7965
  154.6169  140.2490  155.7597 H   0  0  0  0  0  0  0  0  0  0  0  0  # atno 8008 bound_to 7997
  156.2404  140.2934  156.0378 H   0  0  0  0  0  0  0  0  0  0  0  0  # atno 8009 bound_to 7997
  155.1960  140.0393  157.2899 H   0  0  0  0  0  0  0  0  0  0  0  0  # atno 8010 bound_to 7997
  140.6052  143.2371  151.5838 H   0  0  0  0  0  0  0  0  0  0  0  0  # atno 10167 bound_to 10162
  157.1884  131.0649  151.2093 H   0  0  0  0  0  0  0  0  0  0  0  0  # atno 10718 bound_to 10713
  152.9812  135.6012  154.3578 H   0  0  0  0  0  0  0  0  0  0  0  0  # atno 10763 bound_to 10752
  154.3262  135.2769  155.2496 H   0  0  0  0  0  0  0  0  0  0  0  0  # atno 10764 bound_to 10752
  154.4641  135.5958  153.6331 H   0  0  0  0  0  0  0  0  0  0  0  0  # atno 10765 bound_to 10752
  140.3053  134.7561  157.3949 H   0  0  0  0  0  0  0  0  0  0  0  0  # atno 11005 bound_to 11000
  145.9133  139.2500  143.1424 LP  0  0  0  0  0  0  0  0  0  0  0  0  # atno 17320 bound_to 7965
  145.9694  140.8772  143.0170 LP  0  0  0  0  0  0  0  0  0  0  0  0  # atno 17321 bound_to 7965
  139.5320  144.2890  152.1168 LP  0  0  0  0  0  0  0  0  0  0  0  0  # atno 17342 bound_to 10162
  140.2078  144.4593  150.6400 LP  0  0  0  0  0  0  0  0  0  0  0  0  # atno 17343 bound_to 10162
  157.3884  130.7269  149.6680 LP  0  0  0  0  0  0  0  0  0  0  0  0  # atno 17370 bound_to 10713
  155.9715  130.4153  150.4175 LP  0  0  0  0  0  0  0  0  0  0  0  0  # atno 17371 bound_to 10713
  140.1072  134.5393  155.8298 LP  0  0  0  0  0  0  0  0  0  0  0  0  # atno 17394 bound_to 11000
  141.2119  133.6713  156.6622 LP  0  0  0  0  0  0  0  0  0  0  0  0  # atno 17395 bound_to 11000

$$$$
