AV-unprocessed.smi:227|AV-procd|sdf|1731|dock3
  -GOLD-   2262020223D 1   1.00000     0.00000
 Structure written by MMmdl.
 54 58  0  0  0  0  0  0  0  0  1 V2000
  149.1820  142.0238  156.2689 O   0  0  0  0  0  0  0  0  0  0  0  0
  150.5568  141.7980  156.0292 C   0  0  0  0  0  0  0  0  0  0  0  0
  151.3268  141.4663  157.3349 C   0  0  2  0  0  0  0  0  0  0  0  0
  150.6316  140.3568  158.1687 C   0  0  0  0  0  0  0  0  0  0  0  0
  150.6078  139.0613  157.5147 N   0  0  0  0  0  0  0  0  0  0  0  0
  151.1300  138.7567  156.2798 C   0  0  0  0  0  0  0  0  0  0  0  0
  150.9602  137.5214  155.8967 N   0  0  0  0  0  0  0  0  0  0  0  0
  150.2638  136.9276  156.9436 C   0  0  0  0  0  0  0  0  0  0  0  0
  149.7290  135.6270  157.1776 C   0  0  0  0  0  0  0  0  0  0  0  0
  149.7974  134.6057  156.2808 N   0  0  0  0  0  0  0  0  0  0  0  0
  148.9368  133.4389  156.4042 C   0  0  2  0  0  0  0  0  0  0  0  0
  149.5210  132.4903  155.3434 C   0  0  0  0  0  0  0  0  0  0  0  0
  149.9540  133.4869  154.2554 C   0  0  0  0  0  0  0  0  0  0  0  0
  149.5027  134.8238  154.8713 C   0  0  1  0  0  0  0  0  0  0  0  0
  147.9568  134.9040  154.7871 C   0  0  2  0  0  0  0  0  0  0  0  0
  147.3867  136.3289  154.9322 C   0  0  0  0  0  0  0  0  0  0  0  0
  147.8750  137.1565  153.8981 O   0  0  0  0  0  0  0  0  0  0  0  0
  147.5589  133.9450  155.9278 C   0  0  0  0  0  0  0  0  0  0  0  0
  149.1222  135.4111  158.3752 N   0  0  0  0  0  0  0  0  0  0  0  0
  149.0084  136.3986  159.2670 C   0  0  0  0  0  0  0  0  0  0  0  0
  149.4266  137.6611  159.1701 N   0  0  0  0  0  0  0  0  0  0  0  0
  150.0577  137.8809  157.9817 C   0  0  0  0  0  0  0  0  0  0  0  0
  151.5351  142.7355  158.2028 C   0  0  2  0  0  0  0  0  0  0  0  0
  152.2810  142.5106  159.5088 C   0  0  0  0  0  0  0  0  0  0  0  0
  151.9150  143.7516  160.3158 C   0  0  0  0  0  0  0  0  0  0  0  0
  150.6099  144.1211  159.8875 O   0  0  0  0  0  0  0  0  0  0  0  0
  150.2434  143.3656  158.7383 C   0  0  0  0  0  0  0  0  0  0  0  0
  149.0012  142.9429  156.1421 H   0  0  0  0  0  0  0  0  0  0  0  0
  150.6065  140.9769  155.3167 H   0  0  0  0  0  0  0  0  0  0  0  0
  150.9912  142.6666  155.5332 H   0  0  0  0  0  0  0  0  0  0  0  0
  152.3174  141.1043  157.0541 H   0  0  0  0  0  0  0  0  0  0  0  0
  151.1322  140.2245  159.1278 H   0  0  0  0  0  0  0  0  0  0  0  0
  149.6058  140.6482  158.3970 H   0  0  0  0  0  0  0  0  0  0  0  0
  151.6333  139.4879  155.6640 H   0  0  0  0  0  0  0  0  0  0  0  0
  148.9124  132.9881  157.3969 H   0  0  0  0  0  0  0  0  0  0  0  0
  150.3838  131.9497  155.7342 H   0  0  0  0  0  0  0  0  0  0  0  0
  148.7938  131.7600  154.9863 H   0  0  0  0  0  0  0  0  0  0  0  0
  151.0373  133.4660  154.1285 H   0  0  0  0  0  0  0  0  0  0  0  0
  149.4979  133.2849  153.2857 H   0  0  0  0  0  0  0  0  0  0  0  0
  150.0062  135.6681  154.4043 H   0  0  0  0  0  0  0  0  0  0  0  0
  147.6260  134.5077  153.8254 H   0  0  0  0  0  0  0  0  0  0  0  0
  146.2978  136.3372  154.8987 H   0  0  0  0  0  0  0  0  0  0  0  0
  147.6821  136.7597  155.8893 H   0  0  0  0  0  0  0  0  0  0  0  0
  147.9623  136.6374  153.1133 H   0  0  0  0  0  0  0  0  0  0  0  0
  146.9071  133.1378  155.5917 H   0  0  0  0  0  0  0  0  0  0  0  0
  147.0432  134.4740  156.7304 H   0  0  0  0  0  0  0  0  0  0  0  0
  148.5048  136.1417  160.1871 H   0  0  0  0  0  0  0  0  0  0  0  0
  152.0723  143.4876  157.6222 H   0  0  0  0  0  0  0  0  0  0  0  0
  151.9095  141.6162  160.0111 H   0  0  0  0  0  0  0  0  0  0  0  0
  153.3593  142.4103  159.3853 H   0  0  0  0  0  0  0  0  0  0  0  0
  151.9474  143.5728  161.3906 H   0  0  0  0  0  0  0  0  0  0  0  0
  152.5989  144.5696  160.0867 H   0  0  0  0  0  0  0  0  0  0  0  0
  149.7486  143.9984  158.0011 H   0  0  0  0  0  0  0  0  0  0  0  0
  149.5369  142.5945  159.0492 H   0  0  0  0  0  0  0  0  0  0  0  0
  1  2  1  0  0  0  0
  1 28  1  0  0  0  0
  2  3  1  0  0  0  0
  2 29  1  0  0  0  0
  2 30  1  0  0  0  0
  3  4  1  0  0  0  0
  3 23  1  0  0  0  0
  3 31  1  0  0  0  0
  4  5  1  0  0  0  0
  4 32  1  0  0  0  0
  4 33  1  0  0  0  0
  5 22  1  0  0  0  0
  5  6  1  0  0  0  0
  6  7  2  0  0  0  0
  6 34  1  0  0  0  0
  7  8  1  0  0  0  0
  8 22  2  0  0  0  0
  8  9  1  0  0  0  0
  9 10  1  0  0  0  0
  9 19  2  0  0  0  0
 10 14  1  0  0  0  0
 10 11  1  0  0  0  0
 11 18  1  0  0  0  0
 11 12  1  0  0  0  0
 11 35  1  0  0  0  0
 12 13  1  0  0  0  0
 12 36  1  0  0  0  0
 12 37  1  0  0  0  0
 13 14  1  0  0  0  0
 13 38  1  0  0  0  0
 13 39  1  0  0  0  0
 14 15  1  0  0  0  0
 14 40  1  0  0  0  0
 15 16  1  0  0  0  0
 15 18  1  0  0  0  0
 15 41  1  0  0  0  0
 16 17  1  0  0  0  0
 16 42  1  0  0  0  0
 16 43  1  0  0  0  0
 17 44  1  0  0  0  0
 18 45  1  0  0  0  0
 18 46  1  0  0  0  0
 19 20  1  0  0  0  0
 20 21  2  0  0  0  0
 20 47  1  0  0  0  0
 21 22  1  0  0  0  0
 23 27  1  0  0  0  0
 23 24  1  0  0  0  0
 23 48  1  0  0  0  0
 24 25  1  0  0  0  0
 24 49  1  0  0  0  0
 24 50  1  0  0  0  0
 25 26  1  0  0  0  0
 25 51  1  0  0  0  0
 25 52  1  0  0  0  0
 26 27  1  0  0  0  0
 27 53  1  0  0  0  0
 27 54  1  0  0  0  0
M  END
> <s_m_source_file>
AV-unprocessed.smi

> <i_m_source_file_index>
227

> <i_lp_mmshare_version>
43012

> <i_f3d_flags>
0

> <s_epik_input>
W0NIMl0xT1tDSDJdW0NIMl1bQ0BIXTFbQ0BIXShbQ0gyXVtPSF0pW0NIMl1uKFtjSF1uMiljKGMyMyluW2NIXW5jM04oW0NASF00NSlbQ0BASF0oW0NIMl1bQ0gyXTQpW0NASF0oW0NIMl01KVtDSDJdW09IXQ==

> <s_epik_cmdline>
J2VwaWtfcHl0aG9uJywgJy1waCcsICc3LjAnLCAnLXRuJywgJzgnLCAnLW1hJywgJzIwMCcsICctbWV0YWxfYmluZGluZycsICctaW1hZScsICc8aW5maWxlLm1hZT4nLCAnLW9tYWUnLCAnPG91dGZpbGUubWFlPic=

> <r_lp_tautomer_probability>
1

> <r_epik_Ionization_Penalty>
0.0055791

> <r_epik_Ionization_Penalty_Charging>
0

> <r_epik_Ionization_Penalty_Neutral>
0.0055791

> <r_epik_State_Penalty>
0.00401299

> <r_epik_Charging_Adjusted_Penalty>
0.00401299

> <i_epik_Tot_Q>
0

> <i_epik_Tot_abs_Q>
0

> <r_epik_Metal_State_Penalty>
-0

> <b_epik_Metal_Only>
0

> <s_lp_Force_Field>
OPLS_2005

> <r_lp_Energy>
88.0051

> <b_lp_Chiralities_Consistent>
1

> <s_lp_Variant>
AV-unprocessed.smi:227-5

> <Gold.Version>
5.8.1

> <Gold.Id.Protein>
6NUR|6NUR_protein|mol2

> <Gold.PLP.Fitness>
43.4316

> <Gold.PLP.PLP>
-35.2303

> <Gold.PLP.part.hbond>
-4.0000

> <Gold.PLP.part.metal>
0.0000

> <Gold.PLP.part.buried>
-6.7498

> <Gold.PLP.part.nonpolar>
-25.2179

> <Gold.PLP.part.repulsive>
0.1192

> <Gold.PLP.ligand.clash>
0.0000

> <Gold.PLP.ligand.torsion>
0.5593

> <Gold.PLP.Chemscore.Hbond>
3.0000

> <Gold.PLP.Chemscore.CHOScore>
0.0000

> <Gold.PLP.Chemscore.Metal>
0.0000

> <Gold.Chemscore.Hbonds>
donor molecule, donor type, donor heavy atom, donor atom, acceptor molecule, acceptor atom, score
      L1  H     1    28       P1  8028  1.00
      L1  H    17    44       P1  7948  0.91
      P1  H  6896  6907       L1    19  0.40

> <Gold.PLP.Chemscore.Internal.Correction>
0.3197

> <Gold.Rescore>
     Score         DG    S(hbond)    S(metal)    S(lipo)     H(rot)  DE(clash)    DE(int)     intcor
     12.85     -13.71       2.03        0.00      91.17       3.61       0.01       0.84       ----

> <Gold.Chemscore.Fitness>
12.8542

> <Gold.Chemscore.DG>
-13.7080

> <Gold.Chemscore.ZeroCoef>
-5.4800

> <Gold.Chemscore.Hbond>
2.0344

> <Gold.Chemscore.Metal>
0.0000

> <Gold.Chemscore.Lipo>
91.1745

> <Gold.Chemscore.Internal_Hbond>
0.0000

> <Gold.Chemscore.DEClash>
0.0131

> <Gold.Chemscore.DEInternal>
0.8407

> <Gold.Chemscore.Rot>
3.6071

> <Gold.Chemscore.Internal.Correction>
   9.000000E+99

> <Gold.Chemscore.Hbonds>
donor molecule, donor type, donor heavy atom, donor atom, acceptor molecule, acceptor atom, score
      L1  H     1    28       P1  8028  1.00
      L1  H    17    44       P1  7948  0.88
      P1  H  6896  6907       L1    19  0.01

> <Gold.Chemscore.Hbond.Weighted>
-6.7947

> <Gold.Chemscore.Metal.Weighted>
-0.0000

> <Gold.Chemscore.Lipo.Weighted>
-10.6674

> <Gold.Chemscore.Internal_Hbond.Weighted>
0.0000

> <Gold.Chemscore.DEClash.Weighted>
0.0131

> <Gold.Chemscore.DEInternal.Weighted>
0.8407

> <Gold.Chemscore.Rot.Weighted>
9.2342

> <Gold.Chemscore.Internal.Correction.Weighted>
   9.000000E+99

> <Gold.Protein.RotatedTorsions>
[ 6907 6896 6895 6894 ] final  -72.06 input  -60.11 | X-H torsion
[ 7974 7965 7964 7962 ] final  -27.44 input  175.53 | X-H torsion
[ 8008 7997 7996 7995 ] final -153.53 input   59.86 | X-H torsion
[ 10167 10162 10161 10158 ] final   77.09 input  -65.29 | X-H torsion
[ 10718 10713 10712 10709 ] final   91.49 input   66.30 | X-H torsion
[ 10763 10752 10751 10750 ] final  -71.15 input  -60.55 | X-H torsion
[ 11005 11000 10999 10996 ] final  146.95 input  -57.11 | X-H torsion

> <Gold.Protein.ActiveResidues>
 VAL166  LYS551  ARG553  GLY616  TRP617  ASP618  TYR619  PRO620  LYS621  CYS622 
 ASP623  PHE694  ASN695  SER759  ASP760  ASP761  ALA762  ILE779  LEU786  VAL792 
 PHE793  MET794  SER795  GLU796  ALA797  LYS798  CYS799  TRP800  GLU811  SER814 

> <Gold.Protein.RotatedAtoms>
  150.7186  134.5218  159.5657 H   0  0  0  0  0  0  0  0  0  0  0  0  # atno 6907 bound_to 6896
  152.2771  134.7866  160.0412 H   0  0  0  0  0  0  0  0  0  0  0  0  # atno 6908 bound_to 6896
  151.8525  133.3407  159.3714 H   0  0  0  0  0  0  0  0  0  0  0  0  # atno 6909 bound_to 6896
  146.1357  140.5152  142.8674 H   0  0  0  0  0  0  0  0  0  0  0  0  # atno 7974 bound_to 7965
  155.6723  140.0735  157.2515 H   0  0  0  0  0  0  0  0  0  0  0  0  # atno 8008 bound_to 7997
  154.4121  140.1697  156.1944 H   0  0  0  0  0  0  0  0  0  0  0  0  # atno 8009 bound_to 7997
  155.9606  140.3370  155.6490 H   0  0  0  0  0  0  0  0  0  0  0  0  # atno 8010 bound_to 7997
  139.9853  144.5797  150.7865 H   0  0  0  0  0  0  0  0  0  0  0  0  # atno 10167 bound_to 10162
  157.6960  131.0409  150.3737 H   0  0  0  0  0  0  0  0  0  0  0  0  # atno 10718 bound_to 10713
  154.4277  135.5971  153.6049 H   0  0  0  0  0  0  0  0  0  0  0  0  # atno 10763 bound_to 10752
  152.9797  135.5967  154.3877 H   0  0  0  0  0  0  0  0  0  0  0  0  # atno 10764 bound_to 10752
  154.3711  135.2841  155.2244 H   0  0  0  0  0  0  0  0  0  0  0  0  # atno 10765 bound_to 10752
  140.0835  134.9083  157.1538 H   0  0  0  0  0  0  0  0  0  0  0  0  # atno 11005 bound_to 11000
  144.7737  140.5694  143.6652 LP  0  0  0  0  0  0  0  0  0  0  0  0  # atno 17320 bound_to 7965
  145.5161  139.1478  143.3578 LP  0  0  0  0  0  0  0  0  0  0  0  0  # atno 17321 bound_to 7965
  140.7474  143.2906  151.3340 LP  0  0  0  0  0  0  0  0  0  0  0  0  # atno 17342 bound_to 10162
  139.6380  144.0594  152.2531 LP  0  0  0  0  0  0  0  0  0  0  0  0  # atno 17343 bound_to 10162
  156.4159  130.3943  149.6859 LP  0  0  0  0  0  0  0  0  0  0  0  0  # atno 17370 bound_to 10713
  156.4127  130.7730  151.2744 LP  0  0  0  0  0  0  0  0  0  0  0  0  # atno 17371 bound_to 10713
  140.3454  134.2658  155.7206 LP  0  0  0  0  0  0  0  0  0  0  0  0  # atno 17394 bound_to 11000
  141.2055  133.7859  157.0231 LP  0  0  0  0  0  0  0  0  0  0  0  0  # atno 17395 bound_to 11000

$$$$
