AV-unprocessed.smi:1683|AV-procd|sdf|6752|dock4
  -GOLD-   22720 7513D 1   1.00000     0.00000
 Structure written by MMmdl.
 37 38  0  0  0  0  0  0  0  0  2 V2000
  144.3833  136.3322  151.9009 O   0  0  0  0  0  0  0  0  0  0  0  0
  145.6039  136.2143  151.7933 C   0  0  0  0  0  0  0  0  0  0  0  0
  146.4770  137.1589  152.1709 N   0  0  0  0  0  0  0  0  0  0  0  0
  146.1226  138.4460  152.7607 C   0  0  0  0  0  0  0  0  0  0  0  0
  147.3796  139.2691  153.0866 C   0  0  1  0  0  0  0  0  0  0  0  0
  147.1314  140.7607  153.3187 C   0  0  0  0  0  0  0  0  0  0  0  0
  148.3013  141.2155  154.2025 C   0  0  0  0  0  0  0  0  0  0  0  0
  148.9425  139.9881  154.7343 N   0  3  1  0  0  0  0  0  0  0  0  0
  149.3300  140.0367  156.1651 C   0  0  0  0  0  0  0  0  0  0  0  0
  150.7227  140.6545  156.3794 C   0  0  0  0  0  0  0  0  0  0  0  0
  151.6011  140.0315  155.5954 F   0  0  0  0  0  0  0  0  0  0  0  0
  150.7022  141.9475  156.0557 F   0  0  0  0  0  0  0  0  0  0  0  0
  151.1181  140.5246  157.6451 F   0  0  0  0  0  0  0  0  0  0  0  0
  148.0699  138.8507  154.3835 C   0  0  0  0  0  0  0  0  0  0  0  0
  146.2336  135.1399  151.2896 N   0  0  0  0  0  0  0  0  0  0  0  0
  145.6422  133.9478  150.7992 C   0  0  0  0  0  0  0  0  0  0  0  0
  144.3189  133.8503  150.2893 C   0  0  0  0  0  0  0  0  0  0  0  0
  144.0391  132.6137  149.9029 N   0  0  0  0  0  0  0  0  0  0  0  0
  145.1711  131.9208  150.1613 N   0  0  0  0  0  0  0  0  0  0  0  0
  146.1736  132.6918  150.7071 C   0  0  0  0  0  0  0  0  0  0  0  0
  145.2436  130.9332  149.9619 H   0  0  0  0  0  0  0  0  0  0  0  0
  147.4606  136.9733  152.0394 H   0  0  0  0  0  0  0  0  0  0  0  0
  145.4850  138.9844  152.0585 H   0  0  0  0  0  0  0  0  0  0  0  0
  145.5385  138.3126  153.6729 H   0  0  0  0  0  0  0  0  0  0  0  0
  148.0972  139.1615  152.2709 H   0  0  0  0  0  0  0  0  0  0  0  0
  147.0674  141.3250  152.3877 H   0  0  0  0  0  0  0  0  0  0  0  0
  146.1934  140.9043  153.8570 H   0  0  0  0  0  0  0  0  0  0  0  0
  149.0380  141.7730  153.6233 H   0  0  0  0  0  0  0  0  0  0  0  0
  147.9405  141.8700  154.9971 H   0  0  0  0  0  0  0  0  0  0  0  0
  148.5738  140.5701  156.7430 H   0  0  0  0  0  0  0  0  0  0  0  0
  149.3473  139.0151  156.5482 H   0  0  0  0  0  0  0  0  0  0  0  0
  147.3291  138.7003  155.1713 H   0  0  0  0  0  0  0  0  0  0  0  0
  148.6406  137.9278  154.2749 H   0  0  0  0  0  0  0  0  0  0  0  0
  147.2416  135.1761  151.2547 H   0  0  0  0  0  0  0  0  0  0  0  0
  143.5679  134.6201  150.1882 H   0  0  0  0  0  0  0  0  0  0  0  0
  147.1389  132.2842  150.9692 H   0  0  0  0  0  0  0  0  0  0  0  0
  149.7906  139.8574  154.2013 H   0  0  0  0  0  0  0  0  0  0  0  0
  1  2  2  0  0  0  0
  2  3  1  0  0  0  0
  2 15  1  0  0  0  0
  3  4  1  0  0  0  0
  3 22  1  0  0  0  0
  4  5  1  0  0  0  0
  4 23  1  0  0  0  0
  4 24  1  0  0  0  0
  5 14  1  0  0  0  0
  5  6  1  0  0  0  0
  5 25  1  0  0  0  0
  6  7  1  0  0  0  0
  6 26  1  0  0  0  0
  6 27  1  0  0  0  0
  7  8  1  0  0  0  0
  7 28  1  0  0  0  0
  7 29  1  0  0  0  0
  8  9  1  0  0  0  0
  8 14  1  0  0  0  0
  8 37  1  0  0  0  0
  9 10  1  0  0  0  0
  9 30  1  0  0  0  0
  9 31  1  0  0  0  0
 10 11  1  0  0  0  0
 10 12  1  0  0  0  0
 10 13  1  0  0  0  0
 14 32  1  0  0  0  0
 14 33  1  0  0  0  0
 15 16  1  0  0  0  0
 15 34  1  0  0  0  0
 16 20  2  0  0  0  0
 16 17  1  0  0  0  0
 17 18  2  0  0  0  0
 17 35  1  0  0  0  0
 18 19  1  0  0  0  0
 19 21  1  0  0  0  0
 19 20  1  0  0  0  0
 20 36  1  0  0  0  0
M  CHG  1   8   1
M  END
> <s_m_source_file>
AV-unprocessed.smi

> <i_m_source_file_index>
1683

> <i_lp_mmshare_version>
43012

> <i_f3d_flags>
0

> <s_epik_input>
W2NIXTFbbkhdbltjSF1jMVtOSF1DKD1PKVtOSF1bQ0gyXVtDQEBIXTJbQ0gyXVtDSDJdTihbQ0gyXTIpW0NIMl1DKEYpKEYpRg==

> <s_epik_cmdline>
J2VwaWtfcHl0aG9uJywgJy1waCcsICc3LjAnLCAnLXRuJywgJzgnLCAnLW1hJywgJzIwMCcsICctbWV0YWxfYmluZGluZycsICctaW1hZScsICc8aW5maWxlLm1hZT4nLCAnLW9tYWUnLCAnPG91dGZpbGUubWFlPic=

> <r_lp_tautomer_probability>
0.5

> <r_epik_Ionization_Penalty>
0.641865

> <r_epik_Ionization_Penalty_Charging>
0.64182

> <r_epik_Ionization_Penalty_Neutral>
4.50685e-05

> <r_epik_State_Penalty>
0.65957

> <r_epik_Charging_Adjusted_Penalty>
1.30139

> <i_epik_Tot_Q>
1

> <i_epik_Tot_abs_Q>
1

> <r_epik_Metal_State_Penalty>
0.659571

> <b_epik_Metal_Only>
0

> <s_lp_Force_Field>
OPLS_2005

> <r_lp_Energy>
31.2098

> <b_lp_Chiralities_Consistent>
1

> <s_lp_Variant>
AV-unprocessed.smi:1683-6

> <Gold.Version>
5.8.1

> <Gold.Id.Protein>
6NUR|6NUR_protein|mol2

> <Gold.PLP.Fitness>
42.8094

> <Gold.PLP.PLP>
-32.7754

> <Gold.PLP.part.hbond>
-2.0000

> <Gold.PLP.part.metal>
0.0000

> <Gold.PLP.part.buried>
-4.4738

> <Gold.PLP.part.nonpolar>
-27.4256

> <Gold.PLP.part.repulsive>
0.8445

> <Gold.PLP.ligand.clash>
0.0000

> <Gold.PLP.ligand.torsion>
0.6881

> <Gold.PLP.Chemscore.Hbond>
1.9204

> <Gold.PLP.Chemscore.CHOScore>
1.7294

> <Gold.PLP.Chemscore.Metal>
0.0000

> <Gold.Chemscore.Hbonds>
donor molecule, donor type, donor heavy atom, donor atom, acceptor molecule, acceptor atom, score
      L1  H     3    22       P1  7948  1.00
      L1  H    15    34       P1  7948  0.91
      L1  C    17    35       P1 10186  0.73
      L1  C    20    36       P1 10747  1.00

> <Gold.PLP.Chemscore.Internal.Correction>
0.4608

> <Gold.Rescore>
     Score         DG    S(hbond)    S(metal)    S(lipo)     H(rot)  DE(clash)    DE(int)     intcor
     12.14     -14.09       1.86        0.00      60.04       1.81       0.02       1.93       ----

> <Gold.Chemscore.Fitness>
12.1443

> <Gold.Chemscore.DG>
-14.0903

> <Gold.Chemscore.ZeroCoef>
-5.4800

> <Gold.Chemscore.Hbond>
1.8632

> <Gold.Chemscore.Metal>
0.0000

> <Gold.Chemscore.Lipo>
60.0420

> <Gold.Chemscore.Internal_Hbond>
0.0000

> <Gold.Chemscore.DEClash>
0.0208

> <Gold.Chemscore.DEInternal>
1.9252

> <Gold.Chemscore.Rot>
1.8116

> <Gold.Chemscore.Internal.Correction>
   9.000000E+99

> <Gold.Chemscore.Hbonds>
donor molecule, donor type, donor heavy atom, donor atom, acceptor molecule, acceptor atom, score
      L1  H     3    22       P1  7948  1.00
      L1  H    15    34       P1  7948  0.58

> <Gold.Chemscore.Hbond.Weighted>
-6.2232

> <Gold.Chemscore.Metal.Weighted>
-0.0000

> <Gold.Chemscore.Lipo.Weighted>
-7.0249

> <Gold.Chemscore.Internal_Hbond.Weighted>
0.0000

> <Gold.Chemscore.DEClash.Weighted>
0.0208

> <Gold.Chemscore.DEInternal.Weighted>
1.9252

> <Gold.Chemscore.Rot.Weighted>
4.6378

> <Gold.Chemscore.Internal.Correction.Weighted>
   9.000000E+99

> <Gold.Protein.RotatedTorsions>
[ 6907 6896 6895 6894 ] final  160.81 input  -60.11 | X-H torsion
[ 7974 7965 7964 7962 ] final  -76.53 input  175.53 | X-H torsion
[ 8008 7997 7996 7995 ] final   32.26 input   59.86 | X-H torsion
[ 10167 10162 10161 10158 ] final  161.06 input  -65.29 | X-H torsion
[ 10718 10713 10712 10709 ] final -121.39 input   66.30 | X-H torsion
[ 10763 10752 10751 10750 ] final  -87.49 input  -60.55 | X-H torsion
[ 11005 11000 10999 10996 ] final  179.52 input  -57.11 | X-H torsion

> <Gold.Protein.ActiveResidues>
 VAL166  LYS551  ARG553  GLY616  TRP617  ASP618  TYR619  PRO620  LYS621  CYS622 
 ASP623  PHE694  ASN695  SER759  ASP760  ASP761  ALA762  ILE779  LEU786  VAL792 
 PHE793  MET794  SER795  GLU796  ALA797  LYS798  CYS799  TRP800  GLU811  SER814 

> <Gold.Protein.RotatedAtoms>
  151.9650  133.3707  159.4049 H   0  0  0  0  0  0  0  0  0  0  0  0  # atno 6907 bound_to 6896
  150.6958  134.4200  159.5210 H   0  0  0  0  0  0  0  0  0  0  0  0  # atno 6908 bound_to 6896
  152.1895  134.8684  160.0569 H   0  0  0  0  0  0  0  0  0  0  0  0  # atno 6909 bound_to 6896
  145.6116  140.9385  143.1186 H   0  0  0  0  0  0  0  0  0  0  0  0  # atno 7974 bound_to 7965
  155.1197  140.3247  155.4500 H   0  0  0  0  0  0  0  0  0  0  0  0  # atno 8008 bound_to 7997
  156.2666  140.2029  156.6267 H   0  0  0  0  0  0  0  0  0  0  0  0  # atno 8009 bound_to 7997
  154.6693  140.0538  157.0135 H   0  0  0  0  0  0  0  0  0  0  0  0  # atno 8010 bound_to 7997
  139.4845  144.4574  151.8751 H   0  0  0  0  0  0  0  0  0  0  0  0  # atno 10167 bound_to 10162
  156.1333  130.6412  150.9656 H   0  0  0  0  0  0  0  0  0  0  0  0  # atno 10718 bound_to 10713
  154.6342  135.5411  153.7715 H   0  0  0  0  0  0  0  0  0  0  0  0  # atno 10763 bound_to 10752
  153.0300  135.6443  154.1256 H   0  0  0  0  0  0  0  0  0  0  0  0  # atno 10764 bound_to 10752
  154.1184  135.2922  155.3194 H   0  0  0  0  0  0  0  0  0  0  0  0  # atno 10765 bound_to 10752
  140.4071  134.6725  157.4593 H   0  0  0  0  0  0  0  0  0  0  0  0  # atno 11005 bound_to 11000
  144.7267  139.7852  143.7362 LP  0  0  0  0  0  0  0  0  0  0  0  0  # atno 17320 bound_to 7965
  146.1500  139.4580  143.0055 LP  0  0  0  0  0  0  0  0  0  0  0  0  # atno 17321 bound_to 7965
  140.4034  144.2464  150.5892 LP  0  0  0  0  0  0  0  0  0  0  0  0  # atno 17342 bound_to 10162
  140.5036  143.2311  151.8642 LP  0  0  0  0  0  0  0  0  0  0  0  0  # atno 17343 bound_to 10162
  157.6509  131.0897  150.8053 LP  0  0  0  0  0  0  0  0  0  0  0  0  # atno 17370 bound_to 10713
  156.8136  130.4960  149.5352 LP  0  0  0  0  0  0  0  0  0  0  0  0  # atno 17371 bound_to 10713
  140.0294  134.6428  155.9127 LP  0  0  0  0  0  0  0  0  0  0  0  0  # atno 17394 bound_to 11000
  141.1835  133.6551  156.5120 LP  0  0  0  0  0  0  0  0  0  0  0  0  # atno 17395 bound_to 11000

$$$$
