AV-unprocessed.smi:2151|AV-procd|sdf|8758|dock3
  -GOLD-   2272011533D 1   1.00000     0.00000
 Structure written by MMmdl.
 39 40  0  0  0  0  0  0  0  0  1 V2000
  149.5507  134.6225  156.5874 C   0  0  0  0  0  0  0  0  0  0  0  0
  149.7558  134.3715  155.0830 C   0  0  2  0  0  0  0  0  0  0  0  0
  150.1121  135.6228  154.4192 N   0  0  0  0  0  0  0  0  0  0  0  0
  150.9992  136.5204  154.8746 C   0  0  0  0  0  0  0  0  0  0  0  0
  151.6040  136.3908  155.9400 O   0  0  0  0  0  0  0  0  0  0  0  0
  151.2113  137.7597  153.9935 C   0  0  0  0  0  0  0  0  0  0  0  0
  150.7062  139.0012  154.6030 N   0  0  0  0  0  0  0  0  0  0  0  0
  149.3980  139.3964  154.2612 C   0  0  0  0  0  0  0  0  0  0  0  0
  148.8194  140.5123  154.7449 C   0  0  0  0  0  0  0  0  0  0  0  0
  147.3815  140.8786  154.4111 C   0  0  0  0  0  0  0  0  0  0  0  0
  146.9825  140.2784  153.2897 F   0  0  0  0  0  0  0  0  0  0  0  0
  146.5750  140.4913  155.3981 F   0  0  0  0  0  0  0  0  0  0  0  0
  147.2423  142.1956  154.2537 F   0  0  0  0  0  0  0  0  0  0  0  0
  149.6066  141.2944  155.6777 C   0  0  0  0  0  0  0  0  0  0  0  0
  150.8539  140.9227  156.0264 C   0  0  0  0  0  0  0  0  0  0  0  0
  151.4748  139.7140  155.4800 C   0  0  0  0  0  0  0  0  0  0  0  0
  152.6134  139.3638  155.7915 O   0  0  0  0  0  0  0  0  0  0  0  0
  148.4973  133.7871  154.4135 C   0  0  2  0  0  0  0  0  0  0  0  0
  148.7296  133.1820  153.0262 C   0  0  0  0  0  0  0  0  0  0  0  0
  147.3964  133.3629  152.3142 C   0  0  0  0  0  0  0  0  0  0  0  0
  146.5908  134.2656  153.2502 C   0  0  0  0  0  0  0  0  0  0  0  0
  147.5540  134.8118  154.1377 O   0  0  0  0  0  0  0  0  0  0  0  0
  149.3197  133.6978  157.1163 H   0  0  0  0  0  0  0  0  0  0  0  0
  148.7325  135.3211  156.7651 H   0  0  0  0  0  0  0  0  0  0  0  0
  150.4484  135.0389  157.0452 H   0  0  0  0  0  0  0  0  0  0  0  0
  150.5720  133.6577  154.9556 H   0  0  0  0  0  0  0  0  0  0  0  0
  149.6627  135.8090  153.5342 H   0  0  0  0  0  0  0  0  0  0  0  0
  152.2730  137.8591  153.7592 H   0  0  0  0  0  0  0  0  0  0  0  0
  150.7243  137.5816  153.0337 H   0  0  0  0  0  0  0  0  0  0  0  0
  148.8885  138.7231  153.5871 H   0  0  0  0  0  0  0  0  0  0  0  0
  149.1902  142.1956  156.1029 H   0  0  0  0  0  0  0  0  0  0  0  0
  151.4114  141.5304  156.7241 H   0  0  0  0  0  0  0  0  0  0  0  0
  148.0281  133.0469  155.0650 H   0  0  0  0  0  0  0  0  0  0  0  0
  149.5028  133.7370  152.4931 H   0  0  0  0  0  0  0  0  0  0  0  0
  149.0417  132.1385  153.0760 H   0  0  0  0  0  0  0  0  0  0  0  0
  147.5455  133.8351  151.3426 H   0  0  0  0  0  0  0  0  0  0  0  0
  146.8864  132.4130  152.1514 H   0  0  0  0  0  0  0  0  0  0  0  0
  146.0507  135.0487  152.7179 H   0  0  0  0  0  0  0  0  0  0  0  0
  145.8686  133.6802  153.8211 H   0  0  0  0  0  0  0  0  0  0  0  0
  1  2  1  0  0  0  0
  1 23  1  0  0  0  0
  1 24  1  0  0  0  0
  1 25  1  0  0  0  0
  2  3  1  0  0  0  0
  2 18  1  0  0  0  0
  2 26  1  0  0  0  0
  3  4  1  0  0  0  0
  3 27  1  0  0  0  0
  4  5  2  0  0  0  0
  4  6  1  0  0  0  0
  6  7  1  0  0  0  0
  6 28  1  0  0  0  0
  6 29  1  0  0  0  0
  7 16  1  0  0  0  0
  7  8  1  0  0  0  0
  8  9  2  0  0  0  0
  8 30  1  0  0  0  0
  9 10  1  0  0  0  0
  9 14  1  0  0  0  0
 10 11  1  0  0  0  0
 10 12  1  0  0  0  0
 10 13  1  0  0  0  0
 14 15  2  0  0  0  0
 14 31  1  0  0  0  0
 15 16  1  0  0  0  0
 15 32  1  0  0  0  0
 16 17  2  0  0  0  0
 18 22  1  0  0  0  0
 18 19  1  0  0  0  0
 18 33  1  0  0  0  0
 19 20  1  0  0  0  0
 19 34  1  0  0  0  0
 19 35  1  0  0  0  0
 20 21  1  0  0  0  0
 20 36  1  0  0  0  0
 20 37  1  0  0  0  0
 21 22  1  0  0  0  0
 21 38  1  0  0  0  0
 21 39  1  0  0  0  0
M  END
> <s_m_source_file>
AV-unprocessed.smi

> <i_m_source_file_index>
2151

> <i_lp_mmshare_version>
43012

> <i_f3d_flags>
0

> <s_epik_input>
TzFbQ0gyXVtDSDJdW0NIMl1bQ0BIXTFbQ0BIXShbQ0gzXSlbTkhdQyg9TylbQ0gyXW4yW2NIXWMoQyhGKShGKUYpW2NIXVtjSF1jMj1P

> <s_epik_cmdline>
J2VwaWtfcHl0aG9uJywgJy1waCcsICc3LjAnLCAnLXRuJywgJzgnLCAnLW1hJywgJzIwMCcsICctbWV0YWxfYmluZGluZycsICctaW1hZScsICc8aW5maWxlLm1hZT4nLCAnLW9tYWUnLCAnPG91dGZpbGUubWFlPic=

> <r_lp_tautomer_probability>
1

> <r_epik_Ionization_Penalty>
4.20109e-08

> <r_epik_Ionization_Penalty_Charging>
1.89977e-08

> <r_epik_Ionization_Penalty_Neutral>
2.30132e-08

> <r_epik_State_Penalty>
-0

> <r_epik_Charging_Adjusted_Penalty>
1.89977e-08

> <i_epik_Tot_Q>
0

> <i_epik_Tot_abs_Q>
0

> <r_epik_Metal_State_Penalty>
-0

> <b_epik_Metal_Only>
0

> <s_lp_Force_Field>
OPLS_2005

> <r_lp_Energy>
29.9007

> <b_lp_Chiralities_Consistent>
1

> <s_lp_Variant>
AV-unprocessed.smi:2151-1

> <Gold.Version>
5.8.1

> <Gold.Id.Protein>
6NUR|6NUR_protein|mol2

> <Gold.PLP.Fitness>
44.9867

> <Gold.PLP.PLP>
-41.1622

> <Gold.PLP.part.hbond>
-3.6777

> <Gold.PLP.part.metal>
0.0000

> <Gold.PLP.part.buried>
2.3598

> <Gold.PLP.part.nonpolar>
-38.8610

> <Gold.PLP.part.repulsive>
0.9778

> <Gold.PLP.ligand.clash>
0.0387

> <Gold.PLP.ligand.torsion>
1.6897

> <Gold.PLP.Chemscore.Hbond>
2.2000

> <Gold.PLP.Chemscore.CHOScore>
0.1591

> <Gold.PLP.Chemscore.Metal>
0.0000

> <Gold.Chemscore.Hbonds>
donor molecule, donor type, donor heavy atom, donor atom, acceptor molecule, acceptor atom, score
      L1  H     3    27       P1  7948  0.85
      P1  H  7997  8009       L1    17  1.00
      P1  H 10752 10763       L1     5  0.25
      L1  C     8    30       P1  7957  0.07

> <Gold.PLP.Chemscore.Internal.Correction>
0.1654

> <Gold.Rescore>
     Score         DG    S(hbond)    S(metal)    S(lipo)     H(rot)  DE(clash)    DE(int)     intcor
     11.40     -14.43       1.77        0.00      65.96       1.82       0.26       2.76       ----

> <Gold.Chemscore.Fitness>
11.4033

> <Gold.Chemscore.DG>
-14.4287

> <Gold.Chemscore.ZeroCoef>
-5.4800

> <Gold.Chemscore.Hbond>
1.7658

> <Gold.Chemscore.Metal>
0.0000

> <Gold.Chemscore.Lipo>
65.9614

> <Gold.Chemscore.Internal_Hbond>
0.0000

> <Gold.Chemscore.DEClash>
0.2607

> <Gold.Chemscore.DEInternal>
2.7647

> <Gold.Chemscore.Rot>
1.8228

> <Gold.Chemscore.Internal.Correction>
   9.000000E+99

> <Gold.Chemscore.Hbonds>
donor molecule, donor type, donor heavy atom, donor atom, acceptor molecule, acceptor atom, score
      L1  H     3    27       P1  7948  0.15
      P1  H  7997  8009       L1    17  0.99

> <Gold.Chemscore.Hbond.Weighted>
-5.8977

> <Gold.Chemscore.Metal.Weighted>
-0.0000

> <Gold.Chemscore.Lipo.Weighted>
-7.7175

> <Gold.Chemscore.Internal_Hbond.Weighted>
0.0000

> <Gold.Chemscore.DEClash.Weighted>
0.2607

> <Gold.Chemscore.DEInternal.Weighted>
2.7647

> <Gold.Chemscore.Rot.Weighted>
4.6665

> <Gold.Chemscore.Internal.Correction.Weighted>
   9.000000E+99

> <Gold.Protein.RotatedTorsions>
[ 6907 6896 6895 6894 ] final  148.99 input  -60.11 | X-H torsion
[ 7974 7965 7964 7962 ] final  129.17 input  175.53 | X-H torsion
[ 8008 7997 7996 7995 ] final -152.76 input   59.86 | X-H torsion
[ 10167 10162 10161 10158 ] final  114.05 input  -65.29 | X-H torsion
[ 10718 10713 10712 10709 ] final -157.68 input   66.30 | X-H torsion
[ 10763 10752 10751 10750 ] final   75.04 input  -60.55 | X-H torsion
[ 11005 11000 10999 10996 ] final  116.32 input  -57.11 | X-H torsion

> <Gold.Protein.ActiveResidues>
 VAL166  LYS551  ARG553  GLY616  TRP617  ASP618  TYR619  PRO620  LYS621  CYS622 
 ASP623  PHE694  ASN695  SER759  ASP760  ASP761  ALA762  ILE779  LEU786  VAL792 
 PHE793  MET794  SER795  GLU796  ALA797  LYS798  CYS799  TRP800  GLU811  SER814 

> <Gold.Protein.RotatedAtoms>
  152.1341  133.4425  159.4734 H   0  0  0  0  0  0  0  0  0  0  0  0  # atno 6907 bound_to 6896
  150.6880  134.2385  159.4472 H   0  0  0  0  0  0  0  0  0  0  0  0  # atno 6908 bound_to 6896
  152.0271  134.9789  160.0622 H   0  0  0  0  0  0  0  0  0  0  0  0  # atno 6909 bound_to 6896
  145.0316  139.4041  143.5147 H   0  0  0  0  0  0  0  0  0  0  0  0  # atno 7974 bound_to 7965
  155.6603  140.0722  157.2556 H   0  0  0  0  0  0  0  0  0  0  0  0  # atno 8008 bound_to 7997
  154.4144  140.1717  156.1819 H   0  0  0  0  0  0  0  0  0  0  0  0  # atno 8009 bound_to 7997
  155.9703  140.3362  155.6573 H   0  0  0  0  0  0  0  0  0  0  0  0  # atno 8010 bound_to 7997
  139.6416  144.7124  151.2225 H   0  0  0  0  0  0  0  0  0  0  0  0  # atno 10167 bound_to 10162
  156.5437  130.8574  151.2757 H   0  0  0  0  0  0  0  0  0  0  0  0  # atno 10718 bound_to 10713
  153.0627  135.5003  154.8131 H   0  0  0  0  0  0  0  0  0  0  0  0  # atno 10763 bound_to 10752
  154.6908  135.2984  154.9485 H   0  0  0  0  0  0  0  0  0  0  0  0  # atno 10764 bound_to 10752
  154.0240  135.6738  153.4827 H   0  0  0  0  0  0  0  0  0  0  0  0  # atno 10765 bound_to 10752
  139.9037  134.9596  156.7180 H   0  0  0  0  0  0  0  0  0  0  0  0  # atno 11005 bound_to 11000
  146.3499  139.9869  142.8690 LP  0  0  0  0  0  0  0  0  0  0  0  0  # atno 17320 bound_to 7965
  145.1763  140.9745  143.4292 LP  0  0  0  0  0  0  0  0  0  0  0  0  # atno 17321 bound_to 7965
  140.7494  143.6301  150.8431 LP  0  0  0  0  0  0  0  0  0  0  0  0  # atno 17342 bound_to 10162
  139.9939  143.5817  152.2900 LP  0  0  0  0  0  0  0  0  0  0  0  0  # atno 17343 bound_to 10162
  157.7400  130.9843  150.2353 LP  0  0  0  0  0  0  0  0  0  0  0  0  # atno 17370 bound_to 10713
  156.2948  130.3750  149.7806 LP  0  0  0  0  0  0  0  0  0  0  0  0  # atno 17371 bound_to 10713
  140.7023  133.9296  155.8032 LP  0  0  0  0  0  0  0  0  0  0  0  0  # atno 17394 bound_to 11000
  141.0362  134.0686  157.3956 LP  0  0  0  0  0  0  0  0  0  0  0  0  # atno 17395 bound_to 11000

$$$$
