AV-unprocessed.smi:193|AV-procd|sdf|1499|dock2
  -GOLD-   2262019323D 1   1.00000     0.00000
 Structure written by MMmdl.
 62 66  0  0  0  0  0  0  0  0  2 V2000
  145.0390  132.6417  149.8740 C   0  0  0  0  0  0  0  0  0  0  0  0
  145.9690  132.1343  150.9882 C   0  0  1  0  0  0  0  0  0  0  0  0
  145.6483  132.8770  152.3019 C   0  0  0  0  0  0  0  0  0  0  0  0
  146.7474  132.8921  153.2700 N   0  0  0  0  0  0  0  0  0  0  0  0
  146.7631  133.8744  154.2098 C   0  0  0  0  0  0  0  0  0  0  0  0
  145.8429  134.8725  154.1308 N   0  0  0  0  0  0  0  0  0  0  0  0
  145.8240  135.8511  155.0403 C   0  0  0  0  0  0  0  0  0  0  0  0
  146.6239  136.0261  156.0930 N   0  0  0  0  0  0  0  0  0  0  0  0
  147.5566  135.0350  156.1754 C   0  0  0  0  0  0  0  0  0  0  0  0
  147.6971  133.9317  155.2857 C   0  0  0  0  0  0  0  0  0  0  0  0
  148.7702  133.1419  155.6849 N   0  0  0  0  0  0  0  0  0  0  0  0
  149.2278  133.7364  156.7528 C   0  0  0  0  0  0  0  0  0  0  0  0
  148.5549  134.8789  157.1209 N   0  0  0  0  0  0  0  0  0  0  0  0
  148.8526  135.7378  158.2570 C   0  0  0  0  0  0  0  0  0  0  0  0
  147.7151  135.8129  159.3056 C   0  0  0  0  0  0  0  0  0  0  0  0
  147.1694  134.5116  159.4412 O   0  0  0  0  0  0  0  0  0  0  0  0
  148.2762  136.2521  160.6731 C   0  0  0  0  0  0  0  0  0  0  0  0
  147.1626  136.5040  161.7049 C   0  0  0  0  0  0  0  0  0  0  0  0
  146.2369  137.4568  161.1969 O   0  0  0  0  0  0  0  0  0  0  0  0
  145.5682  137.0041  160.0259 C   0  0  0  0  0  0  0  0  0  0  0  0
  146.5819  136.7770  158.8903 C   0  0  0  0  0  0  0  0  0  0  0  0
  147.6649  131.7652  153.4344 C   0  0  0  0  0  0  0  0  0  0  0  0
  146.9840  130.3960  153.3067 C   0  0  0  0  0  0  0  0  0  0  0  0
  146.9070  129.9572  151.8933 N   0  3  1  0  0  0  0  0  0  0  0  0
  146.8388  128.4823  151.7831 C   0  0  2  0  0  0  0  0  0  0  0  0
  147.6274  127.7600  152.8512 C   0  0  0  0  0  0  0  0  0  0  0  0
  148.1592  127.8302  151.4356 C   0  0  1  0  0  0  0  0  0  0  0  0
  148.1985  126.5884  150.5718 C   0  0  0  0  0  0  0  0  0  0  0  0
  145.8105  130.6049  151.1325 C   0  0  0  0  0  0  0  0  0  0  0  0
  143.9923  132.4494  150.1125 H   0  0  0  0  0  0  0  0  0  0  0  0
  145.2584  132.1569  148.9222 H   0  0  0  0  0  0  0  0  0  0  0  0
  145.1533  133.7156  149.7227 H   0  0  0  0  0  0  0  0  0  0  0  0
  146.9886  132.3676  150.6770 H   0  0  0  0  0  0  0  0  0  0  0  0
  145.4119  133.9142  152.0583 H   0  0  0  0  0  0  0  0  0  0  0  0
  144.7538  132.4617  152.7678 H   0  0  0  0  0  0  0  0  0  0  0  0
  145.0582  136.6011  154.9058 H   0  0  0  0  0  0  0  0  0  0  0  0
  150.0745  133.3563  157.3062 H   0  0  0  0  0  0  0  0  0  0  0  0
  149.7735  135.3815  158.7212 H   0  0  0  0  0  0  0  0  0  0  0  0
  149.0749  136.7352  157.8755 H   0  0  0  0  0  0  0  0  0  0  0  0
  147.7614  133.8953  159.0380 H   0  0  0  0  0  0  0  0  0  0  0  0
  148.9808  135.5121  161.0548 H   0  0  0  0  0  0  0  0  0  0  0  0
  148.8429  137.1761  160.5494 H   0  0  0  0  0  0  0  0  0  0  0  0
  146.6463  135.5783  161.9631 H   0  0  0  0  0  0  0  0  0  0  0  0
  147.5931  136.8920  162.6283 H   0  0  0  0  0  0  0  0  0  0  0  0
  145.0090  136.0928  160.2430 H   0  0  0  0  0  0  0  0  0  0  0  0
  144.8386  137.7567  159.7267 H   0  0  0  0  0  0  0  0  0  0  0  0
  147.0139  137.7401  158.6155 H   0  0  0  0  0  0  0  0  0  0  0  0
  146.0621  136.4103  158.0045 H   0  0  0  0  0  0  0  0  0  0  0  0
  148.4947  131.8577  152.7329 H   0  0  0  0  0  0  0  0  0  0  0  0
  148.1035  131.8041  154.4318 H   0  0  0  0  0  0  0  0  0  0  0  0
  147.6035  129.6807  153.8496 H   0  0  0  0  0  0  0  0  0  0  0  0
  146.0057  130.3743  153.7898 H   0  0  0  0  0  0  0  0  0  0  0  0
  145.9006  128.0687  151.4162 H   0  0  0  0  0  0  0  0  0  0  0  0
  148.1367  128.3544  153.6077 H   0  0  0  0  0  0  0  0  0  0  0  0
  147.2406  126.8036  153.1976 H   0  0  0  0  0  0  0  0  0  0  0  0
  149.0085  128.4938  151.2805 H   0  0  0  0  0  0  0  0  0  0  0  0
  147.3406  125.9466  150.7751 H   0  0  0  0  0  0  0  0  0  0  0  0
  149.1096  126.0233  150.7688 H   0  0  0  0  0  0  0  0  0  0  0  0
  148.1820  126.8662  149.5177 H   0  0  0  0  0  0  0  0  0  0  0  0
  144.8476  130.3572  151.5828 H   0  0  0  0  0  0  0  0  0  0  0  0
  145.7999  130.1636  150.1350 H   0  0  0  0  0  0  0  0  0  0  0  0
  147.7747  130.2302  151.4544 H   0  0  0  0  0  0  0  0  0  0  0  0
  1  2  1  0  0  0  0
  1 30  1  0  0  0  0
  1 31  1  0  0  0  0
  1 32  1  0  0  0  0
  2 29  1  0  0  0  0
  2  3  1  0  0  0  0
  2 33  1  0  0  0  0
  3  4  1  0  0  0  0
  3 34  1  0  0  0  0
  3 35  1  0  0  0  0
  4  5  1  0  0  0  0
  4 22  1  0  0  0  0
  5 10  1  0  0  0  0
  5  6  2  0  0  0  0
  6  7  1  0  0  0  0
  7  8  2  0  0  0  0
  7 36  1  0  0  0  0
  8  9  1  0  0  0  0
  9 13  1  0  0  0  0
  9 10  2  0  0  0  0
 10 11  1  0  0  0  0
 11 12  2  0  0  0  0
 12 13  1  0  0  0  0
 12 37  1  0  0  0  0
 13 14  1  0  0  0  0
 14 15  1  0  0  0  0
 14 38  1  0  0  0  0
 14 39  1  0  0  0  0
 15 21  1  0  0  0  0
 15 16  1  0  0  0  0
 15 17  1  0  0  0  0
 16 40  1  0  0  0  0
 17 18  1  0  0  0  0
 17 41  1  0  0  0  0
 17 42  1  0  0  0  0
 18 19  1  0  0  0  0
 18 43  1  0  0  0  0
 18 44  1  0  0  0  0
 19 20  1  0  0  0  0
 20 21  1  0  0  0  0
 20 45  1  0  0  0  0
 20 46  1  0  0  0  0
 21 47  1  0  0  0  0
 21 48  1  0  0  0  0
 22 23  1  0  0  0  0
 22 49  1  0  0  0  0
 22 50  1  0  0  0  0
 23 24  1  0  0  0  0
 23 51  1  0  0  0  0
 23 52  1  0  0  0  0
 24 25  1  0  0  0  0
 24 29  1  0  0  0  0
 24 62  1  0  0  0  0
 25 27  1  0  0  0  0
 25 26  1  0  0  0  0
 25 53  1  0  0  0  0
 26 27  1  0  0  0  0
 26 54  1  0  0  0  0
 26 55  1  0  0  0  0
 27 28  1  0  0  0  0
 27 56  1  0  0  0  0
 28 57  1  0  0  0  0
 28 58  1  0  0  0  0
 28 59  1  0  0  0  0
 29 60  1  0  0  0  0
 29 61  1  0  0  0  0
M  CHG  1  24   1
M  END
> <s_m_source_file>
AV-unprocessed.smi

> <i_m_source_file_index>
193

> <i_lp_mmshare_version>
43012

> <i_f3d_flags>
0

> <s_epik_input>
W0NIM11bQ0BASF0xW0NIMl1bQ0BIXTFOKFtDSDJdMilbQ0gyXVtDSDJdTihbQ0gyXVtDQEhdMltDSDNdKWMobltjSF1uMyljKGMzNCluW2NIXW40W0NIMl1DNShbT0hdKVtDSDJdW0NIMl1PW0NIMl1bQ0gyXTU=

> <s_epik_cmdline>
J2VwaWtfcHl0aG9uJywgJy1waCcsICc3LjAnLCAnLXRuJywgJzgnLCAnLW1hJywgJzIwMCcsICctbWV0YWxfYmluZGluZycsICctaW1hZScsICc8aW5maWxlLm1hZT4nLCAnLW9tYWUnLCAnPG91dGZpbGUubWFlPic=

> <r_lp_tautomer_probability>
1

> <r_epik_Ionization_Penalty>
0.0540825

> <r_epik_Ionization_Penalty_Charging>
0.0538476

> <r_epik_Ionization_Penalty_Neutral>
0.000234891

> <r_epik_State_Penalty>
0.0200719

> <r_epik_Charging_Adjusted_Penalty>
0.0739194

> <i_epik_Tot_Q>
1

> <i_epik_Tot_abs_Q>
1

> <r_epik_Metal_State_Penalty>
0.0199414

> <b_epik_Metal_Only>
0

> <s_lp_Force_Field>
OPLS_2005

> <r_lp_Energy>
52.398

> <b_lp_Chiralities_Consistent>
1

> <s_lp_Variant>
AV-unprocessed.smi:193-4

> <Gold.Version>
5.8.1

> <Gold.Id.Protein>
6NUR|6NUR_protein|mol2

> <Gold.PLP.Fitness>
44.7731

> <Gold.PLP.PLP>
-39.7393

> <Gold.PLP.part.hbond>
-2.0000

> <Gold.PLP.part.metal>
0.0000

> <Gold.PLP.part.buried>
-6.3817

> <Gold.PLP.part.nonpolar>
-31.7214

> <Gold.PLP.part.repulsive>
0.1059

> <Gold.PLP.ligand.clash>
0.0000

> <Gold.PLP.ligand.torsion>
1.1757

> <Gold.PLP.Chemscore.Hbond>
2.0000

> <Gold.PLP.Chemscore.CHOScore>
0.0000

> <Gold.PLP.Chemscore.Metal>
0.0000

> <Gold.Chemscore.Hbonds>
donor molecule, donor type, donor heavy atom, donor atom, acceptor molecule, acceptor atom, score
      L1  H    24    62       P1 10747  1.00
      P1  H  6934  6947       L1    19  1.00

> <Gold.PLP.Chemscore.Internal.Correction>
1.3852

> <Gold.Rescore>
     Score         DG    S(hbond)    S(metal)    S(lipo)     H(rot)  DE(clash)    DE(int)     intcor
     15.00     -18.80       1.71        0.00     107.32       1.93       0.06       3.74       ----

> <Gold.Chemscore.Fitness>
14.9977

> <Gold.Chemscore.DG>
-18.7978

> <Gold.Chemscore.ZeroCoef>
-5.4800

> <Gold.Chemscore.Hbond>
1.7064

> <Gold.Chemscore.Metal>
0.0000

> <Gold.Chemscore.Lipo>
107.3218

> <Gold.Chemscore.Internal_Hbond>
0.0000

> <Gold.Chemscore.DEClash>
0.0601

> <Gold.Chemscore.DEInternal>
3.7400

> <Gold.Chemscore.Rot>
1.9290

> <Gold.Chemscore.Internal.Correction>
   9.000000E+99

> <Gold.Chemscore.Hbonds>
donor molecule, donor type, donor heavy atom, donor atom, acceptor molecule, acceptor atom, score
      L1  H    24    62       P1 10747  1.00
      P1  H  6934  6947       L1    19  0.56

> <Gold.Chemscore.Hbond.Weighted>
-5.6995

> <Gold.Chemscore.Metal.Weighted>
-0.0000

> <Gold.Chemscore.Lipo.Weighted>
-12.5567

> <Gold.Chemscore.Internal_Hbond.Weighted>
0.0000

> <Gold.Chemscore.DEClash.Weighted>
0.0601

> <Gold.Chemscore.DEInternal.Weighted>
3.7400

> <Gold.Chemscore.Rot.Weighted>
4.9383

> <Gold.Chemscore.Internal.Correction.Weighted>
   9.000000E+99

> <Gold.Protein.RotatedTorsions>
[ 6907 6896 6895 6894 ] final -168.21 input  -60.11 | X-H torsion
[ 7974 7965 7964 7962 ] final  122.71 input  175.53 | X-H torsion
[ 8008 7997 7996 7995 ] final   95.30 input   59.86 | X-H torsion
[ 10167 10162 10161 10158 ] final  -90.27 input  -65.29 | X-H torsion
[ 10718 10713 10712 10709 ] final   35.42 input   66.30 | X-H torsion
[ 10763 10752 10751 10750 ] final  -32.99 input  -60.55 | X-H torsion
[ 11005 11000 10999 10996 ] final  133.95 input  -57.11 | X-H torsion

> <Gold.Protein.ActiveResidues>
 VAL166  LYS551  ARG553  GLY616  TRP617  ASP618  TYR619  PRO620  LYS621  CYS622 
 ASP623  PHE694  ASN695  SER759  ASP760  ASP761  ALA762  ILE779  LEU786  VAL792 
 PHE793  MET794  SER795  GLU796  ALA797  LYS798  CYS799  TRP800  GLU811  SER814 

> <Gold.Protein.RotatedAtoms>
  151.4720  133.3567  159.2824 H   0  0  0  0  0  0  0  0  0  0  0  0  # atno 6907 bound_to 6896
  150.8955  134.8364  159.7334 H   0  0  0  0  0  0  0  0  0  0  0  0  # atno 6908 bound_to 6896
  152.4848  134.4634  159.9664 H   0  0  0  0  0  0  0  0  0  0  0  0  # atno 6909 bound_to 6896
  145.1044  139.3496  143.4795 H   0  0  0  0  0  0  0  0  0  0  0  0  # atno 7974 bound_to 7965
  156.0674  140.3288  155.7534 H   0  0  0  0  0  0  0  0  0  0  0  0  # atno 8008 bound_to 7997
  155.5360  140.0597  157.2897 H   0  0  0  0  0  0  0  0  0  0  0  0  # atno 8009 bound_to 7997
  154.4512  140.1919  156.0531 H   0  0  0  0  0  0  0  0  0  0  0  0  # atno 8010 bound_to 7997
  140.3566  143.2863  151.9664 H   0  0  0  0  0  0  0  0  0  0  0  0  # atno 10167 bound_to 10162
  157.3225  130.7455  149.6794 H   0  0  0  0  0  0  0  0  0  0  0  0  # atno 10718 bound_to 10713
  153.8228  135.6873  153.4825 H   0  0  0  0  0  0  0  0  0  0  0  0  # atno 10763 bound_to 10752
  153.1558  135.4599  154.9701 H   0  0  0  0  0  0  0  0  0  0  0  0  # atno 10764 bound_to 10752
  154.7920  135.3305  154.7699 H   0  0  0  0  0  0  0  0  0  0  0  0  # atno 10765 bound_to 10752
  139.9884  134.9524  156.9798 H   0  0  0  0  0  0  0  0  0  0  0  0  # atno 11005 bound_to 11000
  146.3528  140.0935  142.8611 LP  0  0  0  0  0  0  0  0  0  0  0  0  # atno 17320 bound_to 7965
  145.0918  140.9289  143.4764 LP  0  0  0  0  0  0  0  0  0  0  0  0  # atno 17321 bound_to 7965
  139.4819  144.6030  151.7572 LP  0  0  0  0  0  0  0  0  0  0  0  0  # atno 17342 bound_to 10162
  140.5168  144.0941  150.6010 LP  0  0  0  0  0  0  0  0  0  0  0  0  # atno 17343 bound_to 10162
  155.9687  130.4219  150.4490 LP  0  0  0  0  0  0  0  0  0  0  0  0  # atno 17370 bound_to 10713
  157.2508  131.0546  151.2380 LP  0  0  0  0  0  0  0  0  0  0  0  0  # atno 17371 bound_to 10713
  140.4956  134.1149  155.7241 LP  0  0  0  0  0  0  0  0  0  0  0  0  # atno 17394 bound_to 11000
  141.1545  133.8908  157.2013 LP  0  0  0  0  0  0  0  0  0  0  0  0  # atno 17395 bound_to 11000

$$$$
