AV-unprocessed.smi:3241|AV-procd|sdf|12390|dock1
  -GOLD-   2272018263D 1   1.00000     0.00000
 Structure written by MMmdl.
 43 44  0  0  0  0  0  0  0  0  1 V2000
  147.8334  141.8222  154.0857 C   0  0  0  0  0  0  0  0  0  0  0  0
  149.2278  141.2569  154.3980 C   0  0  1  0  0  0  0  0  0  0  0  0
  149.6945  141.6310  155.8193 C   0  0  0  0  0  0  0  0  0  0  0  0
  151.1057  141.0949  156.1092 C   0  0  0  0  0  0  0  0  0  0  0  0
  151.1846  139.5777  155.8822 C   0  0  0  0  0  0  0  0  0  0  0  0
  150.7200  139.2021  154.4653 C   0  0  0  0  0  0  0  0  0  0  0  0
  149.2991  139.7301  154.1716 C   0  0  1  0  0  0  0  0  0  0  0  0
  148.3543  139.1018  155.0308 O   0  0  0  0  0  0  0  0  0  0  0  0
  147.4681  138.2038  154.3802 C   0  0  0  0  0  0  0  0  0  0  0  0
  146.4572  139.0220  153.5713 C   0  0  0  0  0  0  0  0  0  0  0  0
  145.3528  138.1804  153.1261 N   0  0  0  0  0  0  0  0  0  0  0  0
  145.7748  137.0209  152.3461 C   0  0  0  0  0  0  0  0  0  0  0  0
  144.5714  136.2131  151.8332 C   0  0  0  0  0  0  0  0  0  0  0  0
  144.9592  134.9158  151.3082 N   0  0  0  0  0  0  0  0  0  0  0  0
  144.1856  134.0076  150.6169 C   0  0  0  0  0  0  0  0  0  0  0  0
  144.9806  132.9370  150.3230 C   0  0  0  0  0  0  0  0  0  0  0  0
  146.2403  133.2876  150.8837 C   0  0  0  0  0  0  0  0  0  0  0  0
  146.2239  134.4709  151.4755 N   0  0  0  0  0  0  0  0  0  0  0  0
  147.0780  141.4188  154.7606 H   0  0  0  0  0  0  0  0  0  0  0  0
  147.5316  141.5807  153.0662 H   0  0  0  0  0  0  0  0  0  0  0  0
  147.8201  142.9078  154.1846 H   0  0  0  0  0  0  0  0  0  0  0  0
  149.9207  141.7223  153.6954 H   0  0  0  0  0  0  0  0  0  0  0  0
  149.6856  142.7146  155.9411 H   0  0  0  0  0  0  0  0  0  0  0  0
  148.9953  141.2337  156.5565 H   0  0  0  0  0  0  0  0  0  0  0  0
  151.8266  141.5982  155.4641 H   0  0  0  0  0  0  0  0  0  0  0  0
  151.3907  141.3325  157.1344 H   0  0  0  0  0  0  0  0  0  0  0  0
  152.2062  139.2317  156.0422 H   0  0  0  0  0  0  0  0  0  0  0  0
  150.5663  139.0635  156.6192 H   0  0  0  0  0  0  0  0  0  0  0  0
  151.4152  139.6238  153.7384 H   0  0  0  0  0  0  0  0  0  0  0  0
  150.7712  138.1219  154.3338 H   0  0  0  0  0  0  0  0  0  0  0  0
  149.0430  139.5247  153.1305 H   0  0  0  0  0  0  0  0  0  0  0  0
  148.0426  137.5634  153.7095 H   0  0  0  0  0  0  0  0  0  0  0  0
  146.9521  137.5528  155.0866 H   0  0  0  0  0  0  0  0  0  0  0  0
  146.0902  139.8550  154.1718 H   0  0  0  0  0  0  0  0  0  0  0  0
  146.9559  139.4547  152.7034 H   0  0  0  0  0  0  0  0  0  0  0  0
  144.6952  138.7367  152.5885 H   0  0  0  0  0  0  0  0  0  0  0  0
  146.3653  137.3523  151.4912 H   0  0  0  0  0  0  0  0  0  0  0  0
  146.4253  136.3804  152.9427 H   0  0  0  0  0  0  0  0  0  0  0  0
  143.8304  136.0781  152.6229 H   0  0  0  0  0  0  0  0  0  0  0  0
  144.0754  136.7636  151.0330 H   0  0  0  0  0  0  0  0  0  0  0  0
  143.1465  134.1986  150.3925 H   0  0  0  0  0  0  0  0  0  0  0  0
  144.7049  132.0407  149.7877 H   0  0  0  0  0  0  0  0  0  0  0  0
  147.1596  132.7210  150.8788 H   0  0  0  0  0  0  0  0  0  0  0  0
  1  2  1  0  0  0  0
  1 19  1  0  0  0  0
  1 20  1  0  0  0  0
  1 21  1  0  0  0  0
  2  7  1  0  0  0  0
  2  3  1  0  0  0  0
  2 22  1  0  0  0  0
  3  4  1  0  0  0  0
  3 23  1  0  0  0  0
  3 24  1  0  0  0  0
  4  5  1  0  0  0  0
  4 25  1  0  0  0  0
  4 26  1  0  0  0  0
  5  6  1  0  0  0  0
  5 27  1  0  0  0  0
  5 28  1  0  0  0  0
  6  7  1  0  0  0  0
  6 29  1  0  0  0  0
  6 30  1  0  0  0  0
  7  8  1  0  0  0  0
  7 31  1  0  0  0  0
  8  9  1  0  0  0  0
  9 10  1  0  0  0  0
  9 32  1  0  0  0  0
  9 33  1  0  0  0  0
 10 11  1  0  0  0  0
 10 34  1  0  0  0  0
 10 35  1  0  0  0  0
 11 12  1  0  0  0  0
 11 36  1  0  0  0  0
 12 13  1  0  0  0  0
 12 37  1  0  0  0  0
 12 38  1  0  0  0  0
 13 14  1  0  0  0  0
 13 39  1  0  0  0  0
 13 40  1  0  0  0  0
 14 18  1  0  0  0  0
 14 15  1  0  0  0  0
 15 16  2  0  0  0  0
 15 41  1  0  0  0  0
 16 17  1  0  0  0  0
 16 42  1  0  0  0  0
 17 18  2  0  0  0  0
 17 43  1  0  0  0  0
M  END
> <s_m_source_file>
AV-unprocessed.smi

> <i_m_source_file_index>
3241

> <i_lp_mmshare_version>
43012

> <i_f3d_flags>
0

> <s_epik_input>
W0NIM11bQ0BASF0xW0NIMl1bQ0gyXVtDSDJdW0NIMl1bQ0BIXTFPW0NIMl1bQ0gyXVtOSF1bQ0gyXVtDSDJdbjJbY0hdW2NIXVtjSF1uMg==

> <s_epik_cmdline>
J2VwaWtfcHl0aG9uJywgJy1waCcsICc3LjAnLCAnLXRuJywgJzgnLCAnLW1hJywgJzIwMCcsICctbWV0YWxfYmluZGluZycsICctaW1hZScsICc8aW5maWxlLm1hZT4nLCAnLW9tYWUnLCAnPG91dGZpbGUubWFlPic=

> <r_lp_tautomer_probability>
1

> <r_epik_Ionization_Penalty>
2.47055

> <r_epik_Ionization_Penalty_Charging>
0

> <r_epik_Ionization_Penalty_Neutral>
2.47055

> <r_epik_State_Penalty>
2.6322

> <r_epik_Charging_Adjusted_Penalty>
2.6322

> <i_epik_Tot_Q>
0

> <i_epik_Tot_abs_Q>
0

> <r_epik_Metal_State_Penalty>
2.63108

> <b_epik_Metal_Only>
0

> <s_lp_Force_Field>
OPLS_2005

> <r_lp_Energy>
16.4291

> <b_lp_Chiralities_Consistent>
1

> <s_lp_Variant>
AV-unprocessed.smi:3241-6

> <Gold.Version>
5.8.1

> <Gold.Id.Protein>
6NUR|6NUR_protein|mol2

> <Gold.PLP.Fitness>
41.3222

> <Gold.PLP.PLP>
-34.3304

> <Gold.PLP.part.hbond>
-1.0000

> <Gold.PLP.part.metal>
0.0000

> <Gold.PLP.part.buried>
0.6270

> <Gold.PLP.part.nonpolar>
-32.8740

> <Gold.PLP.part.repulsive>
0.6124

> <Gold.PLP.ligand.clash>
0.0000

> <Gold.PLP.ligand.torsion>
0.9144

> <Gold.PLP.Chemscore.Hbond>
0.8596

> <Gold.PLP.Chemscore.CHOScore>
2.0000

> <Gold.PLP.Chemscore.Metal>
0.0000

> <Gold.Chemscore.Hbonds>
donor molecule, donor type, donor heavy atom, donor atom, acceptor molecule, acceptor atom, score
      L1  H    11    36       P1 10175  0.94
      L1  C    15    41       P1 10186  1.00
      L1  C    17    43       P1 10747  0.66

> <Gold.PLP.Chemscore.Internal.Correction>
0.2420

> <Gold.Rescore>
     Score         DG    S(hbond)    S(metal)    S(lipo)     H(rot)  DE(clash)    DE(int)     intcor
     13.70     -14.72       0.97        0.00      90.36       1.79       0.12       0.90       ----

> <Gold.Chemscore.Fitness>
13.6986

> <Gold.Chemscore.DG>
-14.7164

> <Gold.Chemscore.ZeroCoef>
-5.4800

> <Gold.Chemscore.Hbond>
0.9721

> <Gold.Chemscore.Metal>
0.0000

> <Gold.Chemscore.Lipo>
90.3608

> <Gold.Chemscore.Internal_Hbond>
0.0000

> <Gold.Chemscore.DEClash>
0.1225

> <Gold.Chemscore.DEInternal>
0.8953

> <Gold.Chemscore.Rot>
1.7901

> <Gold.Chemscore.Internal.Correction>
   9.000000E+99

> <Gold.Chemscore.Hbonds>
donor molecule, donor type, donor heavy atom, donor atom, acceptor molecule, acceptor atom, score
      L1  H    11    36       P1 10175  0.87

> <Gold.Chemscore.Hbond.Weighted>
-3.2469

> <Gold.Chemscore.Metal.Weighted>
-0.0000

> <Gold.Chemscore.Lipo.Weighted>
-10.5722

> <Gold.Chemscore.Internal_Hbond.Weighted>
0.0000

> <Gold.Chemscore.DEClash.Weighted>
0.1225

> <Gold.Chemscore.DEInternal.Weighted>
0.8953

> <Gold.Chemscore.Rot.Weighted>
4.5827

> <Gold.Chemscore.Internal.Correction.Weighted>
   9.000000E+99

> <Gold.Protein.RotatedTorsions>
[ 6907 6896 6895 6894 ] final   32.04 input  -60.11 | X-H torsion
[ 7974 7965 7964 7962 ] final  -65.92 input  175.53 | X-H torsion
[ 8008 7997 7996 7995 ] final -159.62 input   59.86 | X-H torsion
[ 10167 10162 10161 10158 ] final -130.39 input  -65.29 | X-H torsion
[ 10718 10713 10712 10709 ] final  -32.26 input   66.30 | X-H torsion
[ 10763 10752 10751 10750 ] final  146.70 input  -60.55 | X-H torsion
[ 11005 11000 10999 10996 ] final -146.34 input  -57.11 | X-H torsion

> <Gold.Protein.ActiveResidues>
 VAL166  LYS551  ARG553  GLY616  TRP617  ASP618  TYR619  PRO620  LYS621  CYS622 
 ASP623  PHE694  ASN695  SER759  ASP760  ASP761  ALA762  ILE779  LEU786  VAL792 
 PHE793  MET794  SER795  GLU796  ALA797  LYS798  CYS799  TRP800  GLU811  SER814 

> <Gold.Protein.RotatedAtoms>
  152.0688  134.9547  160.0574 H   0  0  0  0  0  0  0  0  0  0  0  0  # atno 6907 bound_to 6896
  152.0881  133.4182  159.4540 H   0  0  0  0  0  0  0  0  0  0  0  0  # atno 6908 bound_to 6896
  150.6836  134.2823  159.4676 H   0  0  0  0  0  0  0  0  0  0  0  0  # atno 6909 bound_to 6896
  145.7482  140.8921  143.0494 H   0  0  0  0  0  0  0  0  0  0  0  0  # atno 7974 bound_to 7965
  155.7652  140.0844  157.2135 H   0  0  0  0  0  0  0  0  0  0  0  0  # atno 8008 bound_to 7997
  154.4000  140.1535  156.2936 H   0  0  0  0  0  0  0  0  0  0  0  0  # atno 8009 bound_to 7997
  155.8800  140.3421  155.5884 H   0  0  0  0  0  0  0  0  0  0  0  0  # atno 8010 bound_to 7997
  139.9298  143.6285  152.2532 H   0  0  0  0  0  0  0  0  0  0  0  0  # atno 10167 bound_to 10162
  156.3771  130.4349  149.7499 H   0  0  0  0  0  0  0  0  0  0  0  0  # atno 10718 bound_to 10713
  154.0261  135.2901  155.3374 H   0  0  0  0  0  0  0  0  0  0  0  0  # atno 10763 bound_to 10752
  154.7016  135.5186  153.8538 H   0  0  0  0  0  0  0  0  0  0  0  0  # atno 10764 bound_to 10752
  153.0660  135.6631  154.0478 H   0  0  0  0  0  0  0  0  0  0  0  0  # atno 10765 bound_to 10752
  140.7830  134.3057  157.5039 H   0  0  0  0  0  0  0  0  0  0  0  0  # atno 11005 bound_to 11000
  144.6855  139.9554  143.7479 LP  0  0  0  0  0  0  0  0  0  0  0  0  # atno 17320 bound_to 7965
  146.0382  139.3397  143.0713 LP  0  0  0  0  0  0  0  0  0  0  0  0  # atno 17321 bound_to 7965
  139.6792  144.7656  151.1640 LP  0  0  0  0  0  0  0  0  0  0  0  0  # atno 17342 bound_to 10162
  140.7640  143.5750  150.8955 LP  0  0  0  0  0  0  0  0  0  0  0  0  # atno 17343 bound_to 10162
  156.4604  130.7949  151.2969 LP  0  0  0  0  0  0  0  0  0  0  0  0  # atno 17370 bound_to 10713
  157.7489  131.0067  150.3164 LP  0  0  0  0  0  0  0  0  0  0  0  0  # atno 17371 bound_to 10713
  139.8740  134.9330  156.3568 LP  0  0  0  0  0  0  0  0  0  0  0  0  # atno 17394 bound_to 11000
  140.9464  133.7480  156.0214 LP  0  0  0  0  0  0  0  0  0  0  0  0  # atno 17395 bound_to 11000

$$$$
