AV-unprocessed.smi:2445|AV-procd|sdf|9638|dock5
  -GOLD-   2272013273D 1   1.00000     0.00000
 Structure written by MMmdl.
 40 41  0  0  0  0  0  0  0  0  1 V2000
  146.4762  130.1539  152.5916 C   0  0  0  0  0  0  0  0  0  0  0  0
  146.5322  131.6278  152.3735 C   0  0  0  0  0  0  0  0  0  0  0  0
  147.4472  132.5178  152.8787 C   0  0  0  0  0  0  0  0  0  0  0  0
  147.2268  133.8389  152.4843 N   0  0  0  0  0  0  0  0  0  0  0  0
  146.1609  133.9656  151.6892 C   0  0  0  0  0  0  0  0  0  0  0  0
  145.6892  135.2808  151.1444 C   0  0  1  0  0  0  0  0  0  0  0  0
  144.4392  135.1226  150.2670 C   0  0  0  0  0  0  0  0  0  0  0  0
  145.5022  136.3513  152.2426 C   0  0  0  0  0  0  0  0  0  0  0  0
  146.7653  136.9373  152.6830 N   0  0  0  0  0  0  0  0  0  0  0  0
  146.9026  137.7705  153.7228 C   0  0  0  0  0  0  0  0  0  0  0  0
  145.9783  138.1086  154.4622 O   0  0  0  0  0  0  0  0  0  0  0  0
  148.1666  138.1966  153.8526 N   0  0  0  0  0  0  0  0  0  0  0  0
  148.6395  139.1488  154.8576 C   0  0  2  0  0  0  0  0  0  0  0  0
  148.1044  140.5489  154.5624 C   0  0  0  0  0  0  0  0  0  0  0  0
  149.3323  141.4457  154.6718 C   0  0  0  0  0  0  0  0  0  0  0  0
  150.3885  140.5982  154.2565 O   0  0  0  0  0  0  0  0  0  0  0  0
  150.1754  139.3342  154.8684 C   0  0  2  0  0  0  0  0  0  0  0  0
  151.0277  138.2612  154.1723 C   0  0  0  0  0  0  0  0  0  0  0  0
  145.3492  132.4334  151.3770 S   0  0  0  0  0  0  0  0  0  0  0  0
  147.3069  129.8161  153.2117 H   0  0  0  0  0  0  0  0  0  0  0  0
  146.5271  129.6207  151.6422 H   0  0  0  0  0  0  0  0  0  0  0  0
  145.5484  129.8709  153.0892 H   0  0  0  0  0  0  0  0  0  0  0  0
  148.2848  132.2984  153.5243 H   0  0  0  0  0  0  0  0  0  0  0  0
  146.4777  135.6425  150.4824 H   0  0  0  0  0  0  0  0  0  0  0  0
  144.6203  134.4253  149.4486 H   0  0  0  0  0  0  0  0  0  0  0  0
  144.1463  136.0767  149.8278 H   0  0  0  0  0  0  0  0  0  0  0  0
  143.5921  134.7488  150.8426 H   0  0  0  0  0  0  0  0  0  0  0  0
  144.8243  137.1356  151.9023 H   0  0  0  0  0  0  0  0  0  0  0  0
  145.0341  135.9001  153.1179 H   0  0  0  0  0  0  0  0  0  0  0  0
  147.5854  136.7172  152.1367 H   0  0  0  0  0  0  0  0  0  0  0  0
  148.8528  137.8538  153.1965 H   0  0  0  0  0  0  0  0  0  0  0  0
  148.3108  138.8402  155.8519 H   0  0  0  0  0  0  0  0  0  0  0  0
  147.7074  140.6095  153.5477 H   0  0  0  0  0  0  0  0  0  0  0  0
  147.3097  140.8497  155.2457 H   0  0  0  0  0  0  0  0  0  0  0  0
  149.2605  142.3381  154.0500 H   0  0  0  0  0  0  0  0  0  0  0  0
  149.4973  141.7574  155.7046 H   0  0  0  0  0  0  0  0  0  0  0  0
  150.5037  139.4177  155.9061 H   0  0  0  0  0  0  0  0  0  0  0  0
  150.8745  137.2825  154.6274 H   0  0  0  0  0  0  0  0  0  0  0  0
  152.0881  138.4997  154.2540 H   0  0  0  0  0  0  0  0  0  0  0  0
  150.7908  138.1833  153.1109 H   0  0  0  0  0  0  0  0  0  0  0  0
  1  2  1  0  0  0  0
  1 20  1  0  0  0  0
  1 21  1  0  0  0  0
  1 22  1  0  0  0  0
  2 19  1  0  0  0  0
  2  3  2  0  0  0  0
  3  4  1  0  0  0  0
  3 23  1  0  0  0  0
  4  5  2  0  0  0  0
  5  6  1  0  0  0  0
  5 19  1  0  0  0  0
  6  7  1  0  0  0  0
  6  8  1  0  0  0  0
  6 24  1  0  0  0  0
  7 25  1  0  0  0  0
  7 26  1  0  0  0  0
  7 27  1  0  0  0  0
  8  9  1  0  0  0  0
  8 28  1  0  0  0  0
  8 29  1  0  0  0  0
  9 10  1  0  0  0  0
  9 30  1  0  0  0  0
 10 11  2  0  0  0  0
 10 12  1  0  0  0  0
 12 13  1  0  0  0  0
 12 31  1  0  0  0  0
 13 17  1  0  0  0  0
 13 14  1  0  0  0  0
 13 32  1  0  0  0  0
 14 15  1  0  0  0  0
 14 33  1  0  0  0  0
 14 34  1  0  0  0  0
 15 16  1  0  0  0  0
 15 35  1  0  0  0  0
 15 36  1  0  0  0  0
 16 17  1  0  0  0  0
 17 18  1  0  0  0  0
 17 37  1  0  0  0  0
 18 38  1  0  0  0  0
 18 39  1  0  0  0  0
 18 40  1  0  0  0  0
M  END
> <s_m_source_file>
AV-unprocessed.smi

> <i_m_source_file_index>
2445

> <i_lp_mmshare_version>
43012

> <i_f3d_flags>
0

> <s_epik_input>
W0NIM11jMVtjSF1uYyhzMSlbQ0BIXShbQ0gzXSlbQ0gyXVtOSF1DKD1PKVtOSF1bQ0BASF0yW0NIMl1bQ0gyXU9bQ0BIXTJbQ0gzXQ==

> <s_epik_cmdline>
J2VwaWtfcHl0aG9uJywgJy1waCcsICc3LjAnLCAnLXRuJywgJzgnLCAnLW1hJywgJzIwMCcsICctbWV0YWxfYmluZGluZycsICctaW1hZScsICc8aW5maWxlLm1hZT4nLCAnLW9tYWUnLCAnPG91dGZpbGUubWFlPic=

> <r_epik_Ionization_Penalty>
0.000649483

> <r_epik_Ionization_Penalty_Charging>
0

> <r_epik_Ionization_Penalty_Neutral>
0.000649483

> <r_epik_State_Penalty>
0.000379895

> <r_epik_Charging_Adjusted_Penalty>
0.000379895

> <i_epik_Tot_Q>
0

> <i_epik_Tot_abs_Q>
0

> <r_epik_Metal_State_Penalty>
-0

> <b_epik_Metal_Only>
0

> <s_lp_Force_Field>
OPLS_2005

> <r_lp_Energy>
6.13351

> <b_lp_Chiralities_Consistent>
1

> <s_lp_Variant>
AV-unprocessed.smi:2445-6

> <Gold.Version>
5.8.1

> <Gold.Id.Protein>
6NUR|6NUR_protein|mol2

> <Gold.PLP.Fitness>
40.2052

> <Gold.PLP.PLP>
-32.6248

> <Gold.PLP.part.hbond>
-2.5865

> <Gold.PLP.part.metal>
0.0000

> <Gold.PLP.part.buried>
-2.6707

> <Gold.PLP.part.nonpolar>
-27.6263

> <Gold.PLP.part.repulsive>
1.1814

> <Gold.PLP.ligand.clash>
0.0000

> <Gold.PLP.ligand.torsion>
0.3733

> <Gold.PLP.Chemscore.Hbond>
2.7440

> <Gold.PLP.Chemscore.CHOScore>
0.0000

> <Gold.PLP.Chemscore.Metal>
0.0000

> <Gold.Chemscore.Hbonds>
donor molecule, donor type, donor heavy atom, donor atom, acceptor molecule, acceptor atom, score
      L1  H     9    30       P1  7948  0.83
      L1  H    12    31       P1  7948  0.63
      P1  H  7989  7998       L1    16  0.74

> <Gold.PLP.Chemscore.Internal.Correction>
0.0950

> <Gold.Rescore>
     Score         DG    S(hbond)    S(metal)    S(lipo)     H(rot)  DE(clash)    DE(int)     intcor
     19.55     -19.96       2.81        0.00      76.96       1.53       0.10       0.30       ----

> <Gold.Chemscore.Fitness>
19.5531

> <Gold.Chemscore.DG>
-19.9587

> <Gold.Chemscore.ZeroCoef>
-5.4800

> <Gold.Chemscore.Hbond>
2.8136

> <Gold.Chemscore.Metal>
0.0000

> <Gold.Chemscore.Lipo>
76.9608

> <Gold.Chemscore.Internal_Hbond>
0.0000

> <Gold.Chemscore.DEClash>
0.1031

> <Gold.Chemscore.DEInternal>
0.3024

> <Gold.Chemscore.Rot>
1.5325

> <Gold.Chemscore.Internal.Correction>
   9.000000E+99

> <Gold.Chemscore.Hbonds>
donor molecule, donor type, donor heavy atom, donor atom, acceptor molecule, acceptor atom, score
      L1  H     9    30       P1  7948  0.82
      L1  H    12    31       P1  7948  0.62
      P1  H  7989  7998       L1    16  0.70

> <Gold.Chemscore.Hbond.Weighted>
-9.3976

> <Gold.Chemscore.Metal.Weighted>
-0.0000

> <Gold.Chemscore.Lipo.Weighted>
-9.0044

> <Gold.Chemscore.Internal_Hbond.Weighted>
0.0000

> <Gold.Chemscore.DEClash.Weighted>
0.1031

> <Gold.Chemscore.DEInternal.Weighted>
0.3024

> <Gold.Chemscore.Rot.Weighted>
3.9233

> <Gold.Chemscore.Internal.Correction.Weighted>
   9.000000E+99

> <Gold.Protein.RotatedTorsions>
[ 6907 6896 6895 6894 ] final   34.09 input  -60.11 | X-H torsion
[ 7974 7965 7964 7962 ] final   18.25 input  175.53 | X-H torsion
[ 8008 7997 7996 7995 ] final   46.91 input   59.86 | X-H torsion
[ 10167 10162 10161 10158 ] final   68.09 input  -65.29 | X-H torsion
[ 10718 10713 10712 10709 ] final  118.60 input   66.30 | X-H torsion
[ 10763 10752 10751 10750 ] final -110.20 input  -60.55 | X-H torsion
[ 11005 11000 10999 10996 ] final   97.36 input  -57.11 | X-H torsion

> <Gold.Protein.ActiveResidues>
 VAL166  LYS551  ARG553  GLY616  TRP617  ASP618  TYR619  PRO620  LYS621  CYS622 
 ASP623  PHE694  ASN695  SER759  ASP760  ASP761  ALA762  ILE779  LEU786  VAL792 
 PHE793  MET794  SER795  GLU796  ALA797  LYS798  CYS799  TRP800  GLU811  SER814 

> <Gold.Protein.RotatedAtoms>
  152.0976  134.9364  160.0570 H   0  0  0  0  0  0  0  0  0  0  0  0  # atno 6907 bound_to 6896
  152.0591  133.4049  159.4418 H   0  0  0  0  0  0  0  0  0  0  0  0  # atno 6908 bound_to 6896
  150.6838  134.3140  159.4802 H   0  0  0  0  0  0  0  0  0  0  0  0  # atno 6909 bound_to 6896
  146.2191  139.8485  142.8627 H   0  0  0  0  0  0  0  0  0  0  0  0  # atno 7974 bound_to 7965
  155.3603  140.3418  155.4240 H   0  0  0  0  0  0  0  0  0  0  0  0  # atno 8008 bound_to 7997
  156.1717  140.1634  156.8470 H   0  0  0  0  0  0  0  0  0  0  0  0  # atno 8009 bound_to 7997
  154.5240  140.0760  156.8207 H   0  0  0  0  0  0  0  0  0  0  0  0  # atno 8010 bound_to 7997
  140.0824  144.5059  150.7153 H   0  0  0  0  0  0  0  0  0  0  0  0  # atno 10167 bound_to 10162
  157.6019  131.1049  150.7779 H   0  0  0  0  0  0  0  0  0  0  0  0  # atno 10718 bound_to 10713
  154.8235  135.4573  154.0849 H   0  0  0  0  0  0  0  0  0  0  0  0  # atno 10763 bound_to 10752
  153.2183  135.6891  153.8037 H   0  0  0  0  0  0  0  0  0  0  0  0  # atno 10764 bound_to 10752
  153.7463  135.3305  155.3290 H   0  0  0  0  0  0  0  0  0  0  0  0  # atno 10765 bound_to 10752
  139.8776  134.8997  156.4296 H   0  0  0  0  0  0  0  0  0  0  0  0  # atno 11005 bound_to 11000
  145.2826  141.0143  143.3709 LP  0  0  0  0  0  0  0  0  0  0  0  0  # atno 17320 bound_to 7965
  144.9138  139.4495  143.6574 LP  0  0  0  0  0  0  0  0  0  0  0  0  # atno 17321 bound_to 7965
  140.7071  143.2476  151.4695 LP  0  0  0  0  0  0  0  0  0  0  0  0  # atno 17342 bound_to 10162
  139.5772  144.1793  152.1919 LP  0  0  0  0  0  0  0  0  0  0  0  0  # atno 17343 bound_to 10162
  156.8176  130.4973  149.5347 LP  0  0  0  0  0  0  0  0  0  0  0  0  # atno 17370 bound_to 10713
  156.1095  130.6029  151.0024 LP  0  0  0  0  0  0  0  0  0  0  0  0  # atno 17371 bound_to 10713
  140.9076  133.7734  155.9754 LP  0  0  0  0  0  0  0  0  0  0  0  0  # atno 17394 bound_to 11000
  140.8582  134.2873  157.5246 LP  0  0  0  0  0  0  0  0  0  0  0  0  # atno 17395 bound_to 11000

$$$$
