AV-unprocessed.smi:109|AV-procd|sdf|1042|dock8
  -GOLD-   2262018 73D 1   1.00000     0.00000
 Structure written by MMmdl.
 58 61  0  0  0  0  0  0  0  0  1 V2000
  147.0983  141.7705  156.7134 O   0  0  0  0  0  0  0  0  0  0  0  0
  148.2588  141.7380  157.5160 C   0  0  0  0  0  0  0  0  0  0  0  0
  149.3581  140.9300  156.8084 C   0  0  0  0  0  0  0  0  0  0  0  0
  150.6543  140.8138  157.6412 C   0  0  1  0  0  0  0  0  0  0  0  0
  151.7696  140.4422  156.7706 N   0  0  0  0  0  0  0  0  0  0  0  0
  151.8103  139.2448  156.1451 C   0  0  0  0  0  0  0  0  0  0  0  0
  152.4056  139.1002  154.9327 N   0  0  0  0  0  0  0  0  0  0  0  0
  152.4288  137.9038  154.3389 C   0  0  0  0  0  0  0  0  0  0  0  0
  151.9272  136.7470  154.7756 N   0  0  0  0  0  0  0  0  0  0  0  0
  151.3282  136.8837  155.9939 C   0  0  0  0  0  0  0  0  0  0  0  0
  151.2329  138.0928  156.7386 C   0  0  0  0  0  0  0  0  0  0  0  0
  150.5633  137.8604  157.9323 N   0  0  0  0  0  0  0  0  0  0  0  0
  150.2790  136.5868  157.8907 C   0  0  0  0  0  0  0  0  0  0  0  0
  150.7020  135.9200  156.7622 N   0  0  0  0  0  0  0  0  0  0  0  0
  150.5129  134.4641  156.4521 C   0  0  1  0  0  0  0  0  0  0  0  0
  149.8257  133.8448  157.4990 O   0  0  0  0  0  0  0  0  0  0  0  0
  148.5890  133.3028  157.0375 C   0  0  2  0  0  0  0  0  0  0  0  0
  148.1821  132.0699  157.8634 C   0  0  0  0  0  0  0  0  0  0  0  0
  148.0540  132.4177  159.2254 O   0  0  0  0  0  0  0  0  0  0  0  0
  148.8300  133.0499  155.5425 C   0  0  2  0  0  0  0  0  0  0  0  0
  149.4978  131.8190  155.3279 O   0  0  0  0  0  0  0  0  0  0  0  0
  149.7250  134.2146  155.1501 C   0  0  1  0  0  0  0  0  0  0  0  0
  148.9471  135.3208  154.7270 O   0  0  0  0  0  0  0  0  0  0  0  0
  150.9954  142.0897  158.4609 C   0  0  0  0  0  0  0  0  0  0  0  0
  151.3746  143.2923  157.5696 C   0  0  0  0  0  0  0  0  0  0  0  0
  151.5978  144.5623  158.4072 C   0  0  0  0  0  0  0  0  0  0  0  0
  152.6632  144.3339  159.4910 C   0  0  0  0  0  0  0  0  0  0  0  0
  152.3006  143.1355  160.3819 C   0  0  0  0  0  0  0  0  0  0  0  0
  152.0744  141.8657  159.5448 C   0  0  0  0  0  0  0  0  0  0  0  0
  151.5248  134.0588  156.4139 H   0  0  0  0  0  0  0  0  0  0  0  0
  147.8177  134.0699  157.1191 H   0  0  0  0  0  0  0  0  0  0  0  0
  147.8971  133.0298  154.9771 H   0  0  0  0  0  0  0  0  0  0  0  0
  150.4163  133.9601  154.3454 H   0  0  0  0  0  0  0  0  0  0  0  0
  146.5397  141.0501  156.9627 H   0  0  0  0  0  0  0  0  0  0  0  0
  148.5912  142.7600  157.7008 H   0  0  0  0  0  0  0  0  0  0  0  0
  148.0063  141.2968  158.4805 H   0  0  0  0  0  0  0  0  0  0  0  0
  148.9782  139.9369  156.5652 H   0  0  0  0  0  0  0  0  0  0  0  0
  149.5696  141.4158  155.8567 H   0  0  0  0  0  0  0  0  0  0  0  0
  150.4920  140.0020  158.3513 H   0  0  0  0  0  0  0  0  0  0  0  0
  152.5546  141.0776  156.7765 H   0  0  0  0  0  0  0  0  0  0  0  0
  152.9179  137.8679  153.3768 H   0  0  0  0  0  0  0  0  0  0  0  0
  149.7478  136.0931  158.6917 H   0  0  0  0  0  0  0  0  0  0  0  0
  147.2119  131.6991  157.5312 H   0  0  0  0  0  0  0  0  0  0  0  0
  148.9001  131.2578  157.7468 H   0  0  0  0  0  0  0  0  0  0  0  0
  147.5134  133.1899  159.2898 H   0  0  0  0  0  0  0  0  0  0  0  0
  149.0700  131.1517  155.8425 H   0  0  0  0  0  0  0  0  0  0  0  0
  149.1602  135.5082  153.8256 H   0  0  0  0  0  0  0  0  0  0  0  0
  150.0839  142.3856  158.9825 H   0  0  0  0  0  0  0  0  0  0  0  0
  152.2822  143.0808  157.0049 H   0  0  0  0  0  0  0  0  0  0  0  0
  150.5889  143.4747  156.8358 H   0  0  0  0  0  0  0  0  0  0  0  0
  151.8976  145.3864  157.7594 H   0  0  0  0  0  0  0  0  0  0  0  0
  150.6587  144.8619  158.8743 H   0  0  0  0  0  0  0  0  0  0  0  0
  153.6314  144.1593  159.0204 H   0  0  0  0  0  0  0  0  0  0  0  0
  152.7723  145.2310  160.1006 H   0  0  0  0  0  0  0  0  0  0  0  0
  153.0915  142.9629  161.1122 H   0  0  0  0  0  0  0  0  0  0  0  0
  151.3985  143.3628  160.9513 H   0  0  0  0  0  0  0  0  0  0  0  0
  151.7847  141.0470  160.2044 H   0  0  0  0  0  0  0  0  0  0  0  0
  153.0181  141.5733  159.0835 H   0  0  0  0  0  0  0  0  0  0  0  0
  1  2  1  0  0  0  0
  1 34  1  0  0  0  0
  2  3  1  0  0  0  0
  2 35  1  0  0  0  0
  2 36  1  0  0  0  0
  3  4  1  0  0  0  0
  3 37  1  0  0  0  0
  3 38  1  0  0  0  0
  4  5  1  0  0  0  0
  4 24  1  0  0  0  0
  4 39  1  0  0  0  0
  5  6  1  0  0  0  0
  5 40  1  0  0  0  0
  6 11  1  0  0  0  0
  6  7  2  0  0  0  0
  7  8  1  0  0  0  0
  8  9  2  0  0  0  0
  8 41  1  0  0  0  0
  9 10  1  0  0  0  0
 10 14  1  0  0  0  0
 10 11  2  0  0  0  0
 11 12  1  0  0  0  0
 12 13  2  0  0  0  0
 13 14  1  0  0  0  0
 13 42  1  0  0  0  0
 14 15  1  0  0  0  0
 15 30  1  0  0  0  0
 15 22  1  0  0  0  0
 15 16  1  0  0  0  0
 16 17  1  0  0  0  0
 17 31  1  0  0  0  0
 17 18  1  0  0  0  0
 17 20  1  0  0  0  0
 18 19  1  0  0  0  0
 18 43  1  0  0  0  0
 18 44  1  0  0  0  0
 19 45  1  0  0  0  0
 20 32  1  0  0  0  0
 20 21  1  0  0  0  0
 20 22  1  0  0  0  0
 21 46  1  0  0  0  0
 22 33  1  0  0  0  0
 22 23  1  0  0  0  0
 23 47  1  0  0  0  0
 24 29  1  0  0  0  0
 24 25  1  0  0  0  0
 24 48  1  0  0  0  0
 25 26  1  0  0  0  0
 25 49  1  0  0  0  0
 25 50  1  0  0  0  0
 26 27  1  0  0  0  0
 26 51  1  0  0  0  0
 26 52  1  0  0  0  0
 27 28  1  0  0  0  0
 27 53  1  0  0  0  0
 27 54  1  0  0  0  0
 28 29  1  0  0  0  0
 28 55  1  0  0  0  0
 28 56  1  0  0  0  0
 29 57  1  0  0  0  0
 29 58  1  0  0  0  0
M  END
> <s_m_source_file>
AV-unprocessed.smi

> <i_m_source_file_index>
109

> <i_lp_mmshare_version>
43012

> <i_f3d_flags>
0

> <s_epik_input>
W0NIMl0xW0NIMl1bQ0gyXVtDSDJdW0NIMl1bQ0hdMVtDQEhdKFtDSDJdW0NIMl1bT0hdKVtOSF1jKG5bY0hdbjIpYyhjMjMpbltjSF1uM1tDQEBIXTRPW0NASF0oW0NIMl1bT0hdKVtDQEBIXShbT0hdKVtDQEhdNFtPSF0=

> <s_epik_cmdline>
J2VwaWtfcHl0aG9uJywgJy1waCcsICc3LjAnLCAnLXRuJywgJzgnLCAnLW1hJywgJzIwMCcsICctbWV0YWxfYmluZGluZycsICctaW1hZScsICc8aW5maWxlLm1hZT4nLCAnLW9tYWUnLCAnPG91dGZpbGUubWFlPic=

> <r_lp_tautomer_probability>
1

> <r_epik_Ionization_Penalty>
0.000793976

> <r_epik_Ionization_Penalty_Charging>
0

> <r_epik_Ionization_Penalty_Neutral>
0.000793976

> <r_epik_State_Penalty>
-0

> <r_epik_Charging_Adjusted_Penalty>
0

> <i_epik_Tot_Q>
0

> <i_epik_Tot_abs_Q>
0

> <r_epik_Metal_State_Penalty>
-0

> <b_epik_Metal_Only>
0

> <s_epik_Chemistry_Notes>
This compound contains an acetal/aminal-like group ( X-CH(R)-Y where X, Y are N, S, or O) that may be acid/base labile, releasing an aldehyde.

> <s_lp_Force_Field>
OPLS_2005

> <r_lp_Energy>
56.1563

> <b_lp_Chiralities_Consistent>
1

> <s_lp_Variant>
AV-unprocessed.smi:109-12

> <Gold.Version>
5.8.1

> <Gold.Id.Protein>
6NUR|6NUR_protein|mol2

> <Gold.PLP.Fitness>
51.8941

> <Gold.PLP.PLP>
-41.6839

> <Gold.PLP.part.hbond>
-4.0000

> <Gold.PLP.part.metal>
0.0000

> <Gold.PLP.part.buried>
-8.5881

> <Gold.PLP.part.nonpolar>
-30.6520

> <Gold.PLP.part.repulsive>
0.3354

> <Gold.PLP.ligand.clash>
0.0000

> <Gold.PLP.ligand.torsion>
0.5898

> <Gold.PLP.Chemscore.Hbond>
3.7280

> <Gold.PLP.Chemscore.CHOScore>
0.0000

> <Gold.PLP.Chemscore.Metal>
0.0000

> <Gold.Chemscore.Hbonds>
donor molecule, donor type, donor heavy atom, donor atom, acceptor molecule, acceptor atom, score
      L1  H    23    47       P1  7948  0.89
      P1  H  6896  6908       L1    16  1.00
      P1  H  7989  7998       L1     7  0.09
      P1  H 10752 10765       L1     9  0.99

> <Gold.PLP.Chemscore.Internal.Correction>
0.2058

> <Gold.Rescore>
     Score         DG    S(hbond)    S(metal)    S(lipo)     H(rot)  DE(clash)    DE(int)     intcor
     10.76     -12.85       3.07        0.00      94.86       5.47       0.43       1.65       ----

> <Gold.Chemscore.Fitness>
10.7647

> <Gold.Chemscore.DG>
-12.8465

> <Gold.Chemscore.ZeroCoef>
-5.4800

> <Gold.Chemscore.Hbond>
3.0722

> <Gold.Chemscore.Metal>
0.0000

> <Gold.Chemscore.Lipo>
94.8610

> <Gold.Chemscore.Internal_Hbond>
0.0000

> <Gold.Chemscore.DEClash>
0.4339

> <Gold.Chemscore.DEInternal>
1.6479

> <Gold.Chemscore.Rot>
5.4662

> <Gold.Chemscore.Internal.Correction>
   9.000000E+99

> <Gold.Chemscore.Hbonds>
donor molecule, donor type, donor heavy atom, donor atom, acceptor molecule, acceptor atom, score
      L1  H    23    47       P1  7948  0.56
      P1  H  6896  6908       L1    16  0.82
      P1  H  7989  7998       L1     7  0.06
      P1  H 10752 10765       L1     9  0.41

> <Gold.Chemscore.Hbond.Weighted>
-10.2613

> <Gold.Chemscore.Metal.Weighted>
-0.0000

> <Gold.Chemscore.Lipo.Weighted>
-11.0987

> <Gold.Chemscore.Internal_Hbond.Weighted>
0.0000

> <Gold.Chemscore.DEClash.Weighted>
0.4339

> <Gold.Chemscore.DEInternal.Weighted>
1.6479

> <Gold.Chemscore.Rot.Weighted>
13.9935

> <Gold.Chemscore.Internal.Correction.Weighted>
   9.000000E+99

> <Gold.Protein.RotatedTorsions>
[ 6907 6896 6895 6894 ] final  114.39 input  -60.11 | X-H torsion
[ 7974 7965 7964 7962 ] final  141.55 input  175.53 | X-H torsion
[ 8008 7997 7996 7995 ] final   82.35 input   59.86 | X-H torsion
[ 10167 10162 10161 10158 ] final -123.04 input  -65.29 | X-H torsion
[ 10718 10713 10712 10709 ] final  -13.93 input   66.30 | X-H torsion
[ 10763 10752 10751 10750 ] final  159.72 input  -60.55 | X-H torsion
[ 11005 11000 10999 10996 ] final    4.31 input  -57.11 | X-H torsion

> <Gold.Protein.ActiveResidues>
 VAL166  LYS551  ARG553  GLY616  TRP617  ASP618  TYR619  PRO620  LYS621  CYS622 
 ASP623  PHE694  ASN695  SER759  ASP760  ASP761  ALA762  ILE779  LEU786  VAL792 
 PHE793  MET794  SER795  GLU796  ALA797  LYS798  CYS799  TRP800  GLU811  SER814 

> <Gold.Protein.RotatedAtoms>
  152.4805  133.8242  159.7069 H   0  0  0  0  0  0  0  0  0  0  0  0  # atno 6907 bound_to 6896
  150.8851  133.7309  159.2927 H   0  0  0  0  0  0  0  0  0  0  0  0  # atno 6908 bound_to 6896
  151.4800  135.1055  159.9827 H   0  0  0  0  0  0  0  0  0  0  0  0  # atno 6909 bound_to 6896
  144.9086  139.5324  143.5719 H   0  0  0  0  0  0  0  0  0  0  0  0  # atno 7974 bound_to 7965
  155.9094  140.3428  155.6087 H   0  0  0  0  0  0  0  0  0  0  0  0  # atno 8008 bound_to 7997
  155.7405  140.0807  157.2266 H   0  0  0  0  0  0  0  0  0  0  0  0  # atno 8009 bound_to 7997
  154.4054  140.1571  156.2598 H   0  0  0  0  0  0  0  0  0  0  0  0  # atno 8010 bound_to 7997
  140.0078  143.5473  152.2276 H   0  0  0  0  0  0  0  0  0  0  0  0  # atno 10167 bound_to 10162
  156.6233  130.4881  149.6156 H   0  0  0  0  0  0  0  0  0  0  0  0  # atno 10718 bound_to 10713
  154.2362  135.2776  155.2871 H   0  0  0  0  0  0  0  0  0  0  0  0  # atno 10763 bound_to 10752
  154.5583  135.5654  153.6987 H   0  0  0  0  0  0  0  0  0  0  0  0  # atno 10764 bound_to 10752
  153.0009  135.6291  154.2505 H   0  0  0  0  0  0  0  0  0  0  0  0  # atno 10765 bound_to 10752
  140.5833  133.9992  155.8057 H   0  0  0  0  0  0  0  0  0  0  0  0  # atno 11005 bound_to 11000
  146.3147  139.7874  142.8993 LP  0  0  0  0  0  0  0  0  0  0  0  0  # atno 17320 bound_to 7965
  145.3493  141.0304  143.3347 LP  0  0  0  0  0  0  0  0  0  0  0  0  # atno 17321 bound_to 7965
  139.6226  144.7632  151.2707 LP  0  0  0  0  0  0  0  0  0  0  0  0  # atno 17342 bound_to 10162
  140.7393  143.6620  150.8155 LP  0  0  0  0  0  0  0  0  0  0  0  0  # atno 17343 bound_to 10162
  156.2294  130.6785  151.1448 LP  0  0  0  0  0  0  0  0  0  0  0  0  # atno 17370 bound_to 10713
  157.7221  131.0674  150.6090 LP  0  0  0  0  0  0  0  0  0  0  0  0  # atno 17371 bound_to 10713
  141.0982  133.9810  157.3124 LP  0  0  0  0  0  0  0  0  0  0  0  0  # atno 17394 bound_to 11000
  139.9307  135.0200  156.8390 LP  0  0  0  0  0  0  0  0  0  0  0  0  # atno 17395 bound_to 11000

$$$$
