AV-unprocessed.smi:1046|AV-procd|sdf|4550|dock3
  -GOLD-   22720 2573D 1   1.00000     0.00000
 Structure written by MMmdl.
 53 55  0  0  0  0  0  0  0  0  2 V2000
  150.7021  145.2489  159.8299 C   0  0  0  0  0  0  0  0  0  0  0  0
  151.6486  144.1763  160.3397 C   0  0  0  0  0  0  0  0  0  0  0  0
  151.9390  144.1166  161.7213 C   0  0  0  0  0  0  0  0  0  0  0  0
  152.8154  143.1357  162.2354 C   0  0  0  0  0  0  0  0  0  0  0  0
  153.2355  142.8962  163.5325 N   0  0  0  0  0  0  0  0  0  0  0  0
  154.0420  141.8520  163.3644 C   0  0  0  0  0  0  0  0  0  0  0  0
  154.1949  141.3867  162.1095 N   0  0  0  0  0  0  0  0  0  0  0  0
  155.0154  140.2689  161.6808 C   0  0  0  0  0  0  0  0  0  0  0  0
  154.1666  139.0399  161.3025 C   0  0  2  0  0  0  0  0  0  0  0  0
  154.9192  137.8522  161.4487 O   0  0  0  0  0  0  0  0  0  0  0  0
  153.5067  139.0581  159.9054 C   0  0  0  0  0  0  0  0  0  0  0  0
  152.6624  137.9051  159.5556 N   0  0  0  0  0  0  0  0  0  0  0  0
  151.2706  138.2834  159.3054 C   0  0  0  0  0  0  0  0  0  0  0  0
  151.0786  139.0652  157.9911 C   0  0  0  0  0  0  0  0  0  0  0  0
  151.5602  138.2586  156.8417 N   0  3  0  0  0  0  0  0  0  0  0  0
  151.3159  138.9262  155.5381 C   0  0  0  0  0  0  0  0  0  0  0  0
  151.9362  138.1640  154.3544 C   0  0  0  0  0  0  0  0  0  0  0  0
  151.3037  136.9109  154.2007 O   0  0  0  0  0  0  0  0  0  0  0  0
  152.9731  137.8468  157.0507 C   0  0  0  0  0  0  0  0  0  0  0  0
  153.1295  137.1221  158.4047 C   0  0  0  0  0  0  0  0  0  0  0  0
  153.3977  142.2094  161.3218 C   0  0  0  0  0  0  0  0  0  0  0  0
  153.1157  142.2574  159.9453 C   0  0  0  0  0  0  0  0  0  0  0  0
  152.2370  143.2428  159.4486 C   0  0  0  0  0  0  0  0  0  0  0  0
  151.9374  143.2858  157.9607 C   0  0  0  0  0  0  0  0  0  0  0  0
  150.3874  145.9166  160.6323 H   0  0  0  0  0  0  0  0  0  0  0  0
  149.8082  144.7950  159.4013 H   0  0  0  0  0  0  0  0  0  0  0  0
  151.1860  145.8543  159.0631 H   0  0  0  0  0  0  0  0  0  0  0  0
  151.4896  144.8258  162.4006 H   0  0  0  0  0  0  0  0  0  0  0  0
  154.5501  141.3974  164.2023 H   0  0  0  0  0  0  0  0  0  0  0  0
  155.6133  140.5947  160.8287 H   0  0  0  0  0  0  0  0  0  0  0  0
  155.7048  140.0300  162.4904 H   0  0  0  0  0  0  0  0  0  0  0  0
  153.3512  138.9706  162.0238 H   0  0  0  0  0  0  0  0  0  0  0  0
  154.6192  137.2272  160.8063 H   0  0  0  0  0  0  0  0  0  0  0  0
  152.8951  139.9613  159.8743 H   0  0  0  0  0  0  0  0  0  0  0  0
  154.2716  139.2158  159.1461 H   0  0  0  0  0  0  0  0  0  0  0  0
  150.6569  137.3821  159.2728 H   0  0  0  0  0  0  0  0  0  0  0  0
  150.8877  138.8673  160.1433 H   0  0  0  0  0  0  0  0  0  0  0  0
  150.0197  139.2921  157.8604 H   0  0  0  0  0  0  0  0  0  0  0  0
  151.6056  140.0200  158.0251 H   0  0  0  0  0  0  0  0  0  0  0  0
  150.2417  139.0111  155.3667 H   0  0  0  0  0  0  0  0  0  0  0  0
  151.7002  139.9465  155.5747 H   0  0  0  0  0  0  0  0  0  0  0  0
  151.7922  138.7329  153.4354 H   0  0  0  0  0  0  0  0  0  0  0  0
  153.0104  138.0243  154.4709 H   0  0  0  0  0  0  0  0  0  0  0  0
  150.9776  136.8437  153.3156 H   0  0  0  0  0  0  0  0  0  0  0  0
  153.2863  137.1697  156.2570 H   0  0  0  0  0  0  0  0  0  0  0  0
  153.6291  138.7159  156.9923 H   0  0  0  0  0  0  0  0  0  0  0  0
  154.1651  136.8205  158.5283 H   0  0  0  0  0  0  0  0  0  0  0  0
  152.5633  136.1906  158.3645 H   0  0  0  0  0  0  0  0  0  0  0  0
  153.5714  141.5405  159.2786 H   0  0  0  0  0  0  0  0  0  0  0  0
  152.4191  142.4612  157.4343 H   0  0  0  0  0  0  0  0  0  0  0  0
  152.2987  144.2181  157.5265 H   0  0  0  0  0  0  0  0  0  0  0  0
  150.8643  143.2129  157.7828 H   0  0  0  0  0  0  0  0  0  0  0  0
  151.0038  137.4154  156.8376 H   0  0  0  0  0  0  0  0  0  0  0  0
  1  2  1  0  0  0  0
  1 25  1  0  0  0  0
  1 26  1  0  0  0  0
  1 27  1  0  0  0  0
  2 23  1  0  0  0  0
  2  3  2  0  0  0  0
  3  4  1  0  0  0  0
  3 28  1  0  0  0  0
  4 21  2  0  0  0  0
  4  5  1  0  0  0  0
  5  6  2  0  0  0  0
  6  7  1  0  0  0  0
  6 29  1  0  0  0  0
  7  8  1  0  0  0  0
  7 21  1  0  0  0  0
  8  9  1  0  0  0  0
  8 30  1  0  0  0  0
  8 31  1  0  0  0  0
  9 10  1  0  0  0  0
  9 11  1  0  0  0  0
  9 32  1  0  0  0  0
 10 33  1  0  0  0  0
 11 12  1  0  0  0  0
 11 34  1  0  0  0  0
 11 35  1  0  0  0  0
 12 20  1  0  0  0  0
 12 13  1  0  0  0  0
 13 14  1  0  0  0  0
 13 36  1  0  0  0  0
 13 37  1  0  0  0  0
 14 15  1  0  0  0  0
 14 38  1  0  0  0  0
 14 39  1  0  0  0  0
 15 16  1  0  0  0  0
 15 19  1  0  0  0  0
 15 53  1  0  0  0  0
 16 17  1  0  0  0  0
 16 40  1  0  0  0  0
 16 41  1  0  0  0  0
 17 18  1  0  0  0  0
 17 42  1  0  0  0  0
 17 43  1  0  0  0  0
 18 44  1  0  0  0  0
 19 20  1  0  0  0  0
 19 45  1  0  0  0  0
 19 46  1  0  0  0  0
 20 47  1  0  0  0  0
 20 48  1  0  0  0  0
 21 22  1  0  0  0  0
 22 23  2  0  0  0  0
 22 49  1  0  0  0  0
 23 24  1  0  0  0  0
 24 50  1  0  0  0  0
 24 51  1  0  0  0  0
 24 52  1  0  0  0  0
M  CHG  1  15   1
M  END
> <s_m_source_file>
AV-unprocessed.smi

> <i_m_source_file_index>
1046

> <i_lp_mmshare_version>
43012

> <i_f3d_flags>
0

> <s_epik_input>
W0NIM11jKFtjSF0xKWMoW0NIM10pW2NIXWMoYzEyKW4oW2NIXW4yKVtDSDJdW0NASF0oW09IXSlbQ0gyXU4zW0NIMl1bQ0gyXU4oW0NIMl1bQ0gyXTMpW0NIMl1bQ0gyXVtPSF0=

> <s_epik_cmdline>
J2VwaWtfcHl0aG9uJywgJy1waCcsICc3LjAnLCAnLXRuJywgJzgnLCAnLW1hJywgJzIwMCcsICctbWV0YWxfYmluZGluZycsICctaW1hZScsICc8aW5maWxlLm1hZT4nLCAnLW9tYWUnLCAnPG91dGZpbGUubWFlPic=

> <r_epik_Ionization_Penalty>
0.218081

> <r_epik_Ionization_Penalty_Charging>
0.0909554

> <r_epik_Ionization_Penalty_Neutral>
0.127126

> <r_epik_State_Penalty>
0.825642

> <r_epik_Charging_Adjusted_Penalty>
0.916597

> <i_epik_Tot_Q>
1

> <i_epik_Tot_abs_Q>
1

> <r_epik_Metal_State_Penalty>
0.740189

> <b_epik_Metal_Only>
0

> <s_lp_Force_Field>
OPLS_2005

> <r_lp_Energy>
40.3597

> <b_lp_Chiralities_Consistent>
1

> <s_lp_Variant>
AV-unprocessed.smi:1046-3

> <Gold.Version>
5.8.1

> <Gold.Id.Protein>
6NUR|6NUR_protein|mol2

> <Gold.PLP.Fitness>
54.2790

> <Gold.PLP.PLP>
-50.4187

> <Gold.PLP.part.hbond>
-2.0000

> <Gold.PLP.part.metal>
0.0000

> <Gold.PLP.part.buried>
-6.0529

> <Gold.PLP.part.nonpolar>
-42.7063

> <Gold.PLP.part.repulsive>
0.1889

> <Gold.PLP.ligand.clash>
0.0000

> <Gold.PLP.ligand.torsion>
1.1882

> <Gold.PLP.Chemscore.Hbond>
2.0000

> <Gold.PLP.Chemscore.CHOScore>
0.0000

> <Gold.PLP.Chemscore.Metal>
0.0000

> <Gold.Chemscore.Hbonds>
donor molecule, donor type, donor heavy atom, donor atom, acceptor molecule, acceptor atom, score
      L1  H    18    44       P1  7949  0.94
      P1  H 10752 10763       L1    18  0.93

> <Gold.PLP.Chemscore.Internal.Correction>
0.2367

> <Gold.Rescore>
     Score         DG    S(hbond)    S(metal)    S(lipo)     H(rot)  DE(clash)    DE(int)     intcor
     15.68     -18.10       1.24        0.00     142.67       3.21       1.01       1.40       ----

> <Gold.Chemscore.Fitness>
15.6817

> <Gold.Chemscore.DG>
-18.0964

> <Gold.Chemscore.ZeroCoef>
-5.4800

> <Gold.Chemscore.Hbond>
1.2366

> <Gold.Chemscore.Metal>
0.0000

> <Gold.Chemscore.Lipo>
142.6739

> <Gold.Chemscore.Internal_Hbond>
0.0000

> <Gold.Chemscore.DEClash>
1.0126

> <Gold.Chemscore.DEInternal>
1.4021

> <Gold.Chemscore.Rot>
3.2058

> <Gold.Chemscore.Internal.Correction>
   9.000000E+99

> <Gold.Chemscore.Hbonds>
donor molecule, donor type, donor heavy atom, donor atom, acceptor molecule, acceptor atom, score
      L1  H    18    44       P1  7949  0.22
      P1  H 10752 10763       L1    18  0.10

> <Gold.Chemscore.Hbond.Weighted>
-4.1303

> <Gold.Chemscore.Metal.Weighted>
-0.0000

> <Gold.Chemscore.Lipo.Weighted>
-16.6928

> <Gold.Chemscore.Internal_Hbond.Weighted>
0.0000

> <Gold.Chemscore.DEClash.Weighted>
1.0126

> <Gold.Chemscore.DEInternal.Weighted>
1.4021

> <Gold.Chemscore.Rot.Weighted>
8.2067

> <Gold.Chemscore.Internal.Correction.Weighted>
   9.000000E+99

> <Gold.Protein.RotatedTorsions>
[ 6907 6896 6895 6894 ] final  -98.98 input  -60.11 | X-H torsion
[ 7974 7965 7964 7962 ] final   79.34 input  175.53 | X-H torsion
[ 8008 7997 7996 7995 ] final   68.94 input   59.86 | X-H torsion
[ 10167 10162 10161 10158 ] final   82.91 input  -65.29 | X-H torsion
[ 10718 10713 10712 10709 ] final  -91.74 input   66.30 | X-H torsion
[ 10763 10752 10751 10750 ] final   37.36 input  -60.55 | X-H torsion
[ 11005 11000 10999 10996 ] final  -65.33 input  -57.11 | X-H torsion

> <Gold.Protein.ActiveResidues>
 VAL166  LYS551  ARG553  GLY616  TRP617  ASP618  TYR619  PRO620  LYS621  CYS622 
 ASP623  PHE694  ASN695  SER759  ASP760  ASP761  ALA762  ILE779  LEU786  VAL792 
 PHE793  MET794  SER795  GLU796  ALA797  LYS798  CYS799  TRP800  GLU811  SER814 

> <Gold.Protein.RotatedAtoms>
  150.7064  134.1110  159.4000 H   0  0  0  0  0  0  0  0  0  0  0  0  # atno 6907 bound_to 6896
  151.9097  135.0342  160.0522 H   0  0  0  0  0  0  0  0  0  0  0  0  # atno 6908 bound_to 6896
  152.2346  133.5050  159.5272 H   0  0  0  0  0  0  0  0  0  0  0  0  # atno 6909 bound_to 6896
  145.6654  139.2482  143.1899 H   0  0  0  0  0  0  0  0  0  0  0  0  # atno 7974 bound_to 7965
  155.7160  140.3494  155.4994 H   0  0  0  0  0  0  0  0  0  0  0  0  # atno 8008 bound_to 7997
  155.9313  140.1085  157.1152 H   0  0  0  0  0  0  0  0  0  0  0  0  # atno 8009 bound_to 7997
  154.4086  140.1230  156.4793 H   0  0  0  0  0  0  0  0  0  0  0  0  # atno 8010 bound_to 7997
  139.9238  144.6195  150.8413 H   0  0  0  0  0  0  0  0  0  0  0  0  # atno 10167 bound_to 10162
  155.9996  130.4960  150.5520 H   0  0  0  0  0  0  0  0  0  0  0  0  # atno 10718 bound_to 10713
  153.0041  135.6280  154.2132 H   0  0  0  0  0  0  0  0  0  0  0  0  # atno 10763 bound_to 10752
  154.1875  135.2810  155.3034 H   0  0  0  0  0  0  0  0  0  0  0  0  # atno 10764 bound_to 10752
  154.5786  135.5654  153.7223 H   0  0  0  0  0  0  0  0  0  0  0  0  # atno 10765 bound_to 10752
  141.1451  133.6680  156.5970 H   0  0  0  0  0  0  0  0  0  0  0  0  # atno 11005 bound_to 11000
  146.1090  140.7451  142.9512 LP  0  0  0  0  0  0  0  0  0  0  0  0  # atno 17320 bound_to 7965
  144.7075  140.3909  143.7107 LP  0  0  0  0  0  0  0  0  0  0  0  0  # atno 17321 bound_to 7965
  140.7655  143.3278  151.2477 LP  0  0  0  0  0  0  0  0  0  0  0  0  # atno 17342 bound_to 10162
  139.6839  143.9807  152.2823 LP  0  0  0  0  0  0  0  0  0  0  0  0  # atno 17343 bound_to 10162
  157.3441  131.0722  151.1765 LP  0  0  0  0  0  0  0  0  0  0  0  0  # atno 17370 bound_to 10713
  157.2603  130.6656  149.5971 LP  0  0  0  0  0  0  0  0  0  0  0  0  # atno 17371 bound_to 10713
  140.3718  134.7599  157.4604 LP  0  0  0  0  0  0  0  0  0  0  0  0  # atno 17394 bound_to 11000
  140.0704  134.5870  155.8648 LP  0  0  0  0  0  0  0  0  0  0  0  0  # atno 17395 bound_to 11000

$$$$
