AV-unprocessed.smi:3105|AV-procd|sdf|11820|dock9
  -GOLD-   2272017193D 1   1.00000     0.00000
 Structure written by MMmdl.
 34 34  0  0  0  0  0  0  0  0  2 V2000
  151.3122  140.4613  157.8331 C   0  0  0  0  0  0  0  0  0  0  0  0
  151.0373  141.9607  157.5891 C   0  0  1  0  0  0  0  0  0  0  0  0
  149.8943  142.1279  156.6612 N   0  3  0  0  0  0  0  0  0  0  0  0
  150.1198  141.6468  155.2818 C   0  0  0  0  0  0  0  0  0  0  0  0
  149.0395  140.6297  154.8735 C   0  0  0  0  0  0  0  0  0  0  0  0
  149.6036  139.4038  154.1473 C   0  0  0  0  0  0  0  0  0  0  0  0
  148.7256  138.6345  153.4995 N   0  0  0  0  0  0  0  0  0  0  0  0
  150.8065  139.1503  154.1631 O   0  0  0  0  0  0  0  0  0  0  0  0
  150.7638  142.7439  158.9017 C   0  0  2  0  0  0  0  0  0  0  0  0
  150.5399  144.2489  158.6566 C   0  0  0  0  0  0  0  0  0  0  0  0
  151.8181  142.5538  159.8904 N   0  0  0  0  0  0  0  0  0  0  0  0
  153.0786  142.0234  159.7045 C   0  0  0  0  0  0  0  0  0  0  0  0
  153.7114  142.0404  160.9141 C   0  0  0  0  0  0  0  0  0  0  0  0
  152.7452  142.6023  161.7940 C   0  0  0  0  0  0  0  0  0  0  0  0
  151.6135  142.9070  161.1799 N   0  0  0  0  0  0  0  0  0  0  0  0
  152.1881  140.3071  158.4629 H   0  0  0  0  0  0  0  0  0  0  0  0
  151.5054  139.9274  156.9032 H   0  0  0  0  0  0  0  0  0  0  0  0
  150.4648  139.9799  158.3219 H   0  0  0  0  0  0  0  0  0  0  0  0
  151.9209  142.3961  157.1193 H   0  0  0  0  0  0  0  0  0  0  0  0
  149.0849  141.6665  157.0509 H   0  0  0  0  0  0  0  0  0  0  0  0
  150.1058  142.5010  154.6029 H   0  0  0  0  0  0  0  0  0  0  0  0
  151.1064  141.1891  155.2075 H   0  0  0  0  0  0  0  0  0  0  0  0
  148.5011  140.2925  155.7607 H   0  0  0  0  0  0  0  0  0  0  0  0
  148.3061  141.1070  154.2223 H   0  0  0  0  0  0  0  0  0  0  0  0
  149.0377  137.8117  153.0042 H   0  0  0  0  0  0  0  0  0  0  0  0
  147.7454  138.8782  153.5085 H   0  0  0  0  0  0  0  0  0  0  0  0
  149.8496  142.3444  159.3444 H   0  0  0  0  0  0  0  0  0  0  0  0
  149.6722  144.4290  158.0223 H   0  0  0  0  0  0  0  0  0  0  0  0
  151.4031  144.7092  158.1745 H   0  0  0  0  0  0  0  0  0  0  0  0
  150.3665  144.7752  159.5959 H   0  0  0  0  0  0  0  0  0  0  0  0
  153.4183  141.6821  158.7376 H   0  0  0  0  0  0  0  0  0  0  0  0
  154.7122  141.7010  161.1372 H   0  0  0  0  0  0  0  0  0  0  0  0
  152.8315  142.7958  162.8532 H   0  0  0  0  0  0  0  0  0  0  0  0
  149.6998  143.1171  156.5998 H   0  0  0  0  0  0  0  0  0  0  0  0
  1  2  1  0  0  0  0
  1 16  1  0  0  0  0
  1 17  1  0  0  0  0
  1 18  1  0  0  0  0
  2  3  1  0  0  0  0
  2  9  1  0  0  0  0
  2 19  1  0  0  0  0
  3  4  1  0  0  0  0
  3 20  1  0  0  0  0
  3 34  1  0  0  0  0
  4  5  1  0  0  0  0
  4 21  1  0  0  0  0
  4 22  1  0  0  0  0
  5  6  1  0  0  0  0
  5 23  1  0  0  0  0
  5 24  1  0  0  0  0
  6  7  1  0  0  0  0
  6  8  2  0  0  0  0
  7 25  1  0  0  0  0
  7 26  1  0  0  0  0
  9 10  1  0  0  0  0
  9 11  1  0  0  0  0
  9 27  1  0  0  0  0
 10 28  1  0  0  0  0
 10 29  1  0  0  0  0
 10 30  1  0  0  0  0
 11 15  1  0  0  0  0
 11 12  1  0  0  0  0
 12 13  2  0  0  0  0
 12 31  1  0  0  0  0
 13 14  1  0  0  0  0
 13 32  1  0  0  0  0
 14 15  2  0  0  0  0
 14 33  1  0  0  0  0
M  CHG  1   3   1
M  END
> <s_m_source_file>
AV-unprocessed.smi

> <i_m_source_file_index>
3105

> <i_lp_mmshare_version>
43012

> <i_f3d_flags>
0

> <s_epik_input>
W05IMl1DKD1PKVtDSDJdW0NIMl1bTkhdW0NAQEhdKFtDSDNdKVtDQEhdKFtDSDNdKW4xW2NIXVtjSF1bY0hdbjE=

> <s_epik_cmdline>
J2VwaWtfcHl0aG9uJywgJy1waCcsICc3LjAnLCAnLXRuJywgJzgnLCAnLW1hJywgJzIwMCcsICctbWV0YWxfYmluZGluZycsICctaW1hZScsICc8aW5maWxlLm1hZT4nLCAnLW9tYWUnLCAnPG91dGZpbGUubWFlPic=

> <r_lp_tautomer_probability>
1

> <r_epik_Ionization_Penalty>
0.00475669

> <r_epik_Ionization_Penalty_Charging>
0.00474654

> <r_epik_Ionization_Penalty_Neutral>
1.01546e-05

> <r_epik_State_Penalty>
-0

> <r_epik_Charging_Adjusted_Penalty>
0.00474654

> <i_epik_Tot_Q>
1

> <i_epik_Tot_abs_Q>
1

> <r_epik_Metal_State_Penalty>
-0

> <b_epik_Metal_Only>
0

> <s_lp_Force_Field>
OPLS_2005

> <r_lp_Energy>
9.05092

> <b_lp_Chiralities_Consistent>
1

> <s_lp_Variant>
AV-unprocessed.smi:3105-2

> <Gold.Version>
5.8.1

> <Gold.Id.Protein>
6NUR|6NUR_protein|mol2

> <Gold.PLP.Fitness>
44.1711

> <Gold.PLP.PLP>
-33.8010

> <Gold.PLP.part.hbond>
-5.0000

> <Gold.PLP.part.metal>
0.0000

> <Gold.PLP.part.buried>
-2.3187

> <Gold.PLP.part.nonpolar>
-26.6458

> <Gold.PLP.part.repulsive>
0.3906

> <Gold.PLP.ligand.clash>
0.0000

> <Gold.PLP.ligand.torsion>
1.1574

> <Gold.PLP.Chemscore.Hbond>
4.1960

> <Gold.PLP.Chemscore.CHOScore>
0.0000

> <Gold.PLP.Chemscore.Metal>
0.0000

> <Gold.Chemscore.Hbonds>
donor molecule, donor type, donor heavy atom, donor atom, acceptor molecule, acceptor atom, score
      L1  H     3    34       P1  8028  2.00
      L1  H     7    25       P1  7948  1.00
      P1  H  6933  6945       L1    15  0.24
      P1  H  7989  7998       L1     8  1.00

> <Gold.PLP.Chemscore.Internal.Correction>
0.0969

> <Gold.Rescore>
     Score         DG    S(hbond)    S(metal)    S(lipo)     H(rot)  DE(clash)    DE(int)     intcor
     16.00     -17.50       3.15        0.00      75.15       2.85       0.06       1.44       ----

> <Gold.Chemscore.Fitness>
15.9959

> <Gold.Chemscore.DG>
-17.5008

> <Gold.Chemscore.ZeroCoef>
-5.4800

> <Gold.Chemscore.Hbond>
3.1491

> <Gold.Chemscore.Metal>
0.0000

> <Gold.Chemscore.Lipo>
75.1466

> <Gold.Chemscore.Internal_Hbond>
0.0000

> <Gold.Chemscore.DEClash>
0.0630

> <Gold.Chemscore.DEInternal>
1.4419

> <Gold.Chemscore.Rot>
2.8473

> <Gold.Chemscore.Internal.Correction>
   9.000000E+99

> <Gold.Chemscore.Hbonds>
donor molecule, donor type, donor heavy atom, donor atom, acceptor molecule, acceptor atom, score
      L1  H     3    34       P1  8028  0.90
      L1  H     7    25       P1  7948  0.99
      P1  H  6933  6945       L1    15  0.12
      P1  H  7989  7998       L1     8  0.38

> <Gold.Chemscore.Hbond.Weighted>
-10.5178

> <Gold.Chemscore.Metal.Weighted>
-0.0000

> <Gold.Chemscore.Lipo.Weighted>
-8.7922

> <Gold.Chemscore.Internal_Hbond.Weighted>
0.0000

> <Gold.Chemscore.DEClash.Weighted>
0.0630

> <Gold.Chemscore.DEInternal.Weighted>
1.4419

> <Gold.Chemscore.Rot.Weighted>
7.2892

> <Gold.Chemscore.Internal.Correction.Weighted>
   9.000000E+99

> <Gold.Protein.RotatedTorsions>
[ 6907 6896 6895 6894 ] final -116.19 input  -60.11 | X-H torsion
[ 7974 7965 7964 7962 ] final  -46.64 input  175.53 | X-H torsion
[ 8008 7997 7996 7995 ] final  -81.79 input   59.86 | X-H torsion
[ 10167 10162 10161 10158 ] final   45.44 input  -65.29 | X-H torsion
[ 10718 10713 10712 10709 ] final  115.01 input   66.30 | X-H torsion
[ 10763 10752 10751 10750 ] final -169.97 input  -60.55 | X-H torsion
[ 11005 11000 10999 10996 ] final -142.10 input  -57.11 | X-H torsion

> <Gold.Protein.ActiveResidues>
 VAL166  LYS551  ARG553  GLY616  TRP617  ASP618  TYR619  PRO620  LYS621  CYS622 
 ASP623  PHE694  ASN695  SER759  ASP760  ASP761  ALA762  ILE779  LEU786  VAL792 
 PHE793  MET794  SER795  GLU796  ALA797  LYS798  CYS799  TRP800  GLU811  SER814 

> <Gold.Protein.RotatedAtoms>
  150.8036  133.8552  159.3216 H   0  0  0  0  0  0  0  0  0  0  0  0  # atno 6907 bound_to 6896
  151.6357  135.1016  160.0140 H   0  0  0  0  0  0  0  0  0  0  0  0  # atno 6908 bound_to 6896
  152.4125  133.6946  159.6445 H   0  0  0  0  0  0  0  0  0  0  0  0  # atno 6909 bound_to 6896
  145.9698  140.7394  142.9416 H   0  0  0  0  0  0  0  0  0  0  0  0  # atno 7974 bound_to 7965
  154.6019  140.0642  156.9380 H   0  0  0  0  0  0  0  0  0  0  0  0  # atno 8008 bound_to 7997
  155.2118  140.3323  155.4309 H   0  0  0  0  0  0  0  0  0  0  0  0  # atno 8009 bound_to 7997
  156.2323  140.1847  156.7193 H   0  0  0  0  0  0  0  0  0  0  0  0  # atno 8010 bound_to 7997
  140.3241  144.2670  150.6178 H   0  0  0  0  0  0  0  0  0  0  0  0  # atno 10167 bound_to 10162
  157.6248  131.1006  150.7267 H   0  0  0  0  0  0  0  0  0  0  0  0  # atno 10718 bound_to 10713
  154.6466  135.2905  155.0039 H   0  0  0  0  0  0  0  0  0  0  0  0  # atno 10763 bound_to 10752
  154.1147  135.6557  153.4895 H   0  0  0  0  0  0  0  0  0  0  0  0  # atno 10764 bound_to 10752
  153.0354  135.5273  154.7355 H   0  0  0  0  0  0  0  0  0  0  0  0  # atno 10765 bound_to 10752
  140.8258  134.2576  157.4879 H   0  0  0  0  0  0  0  0  0  0  0  0  # atno 11005 bound_to 11000
  144.6834  140.2730  143.7303 LP  0  0  0  0  0  0  0  0  0  0  0  0  # atno 17320 bound_to 7965
  145.7922  139.1931  143.2096 LP  0  0  0  0  0  0  0  0  0  0  0  0  # atno 17321 bound_to 7965
  140.5457  143.2215  151.8011 LP  0  0  0  0  0  0  0  0  0  0  0  0  # atno 17342 bound_to 10162
  139.4868  144.4542  151.9618 LP  0  0  0  0  0  0  0  0  0  0  0  0  # atno 17343 bound_to 10162
  156.7618  130.4801  149.5435 LP  0  0  0  0  0  0  0  0  0  0  0  0  # atno 17370 bound_to 10713
  156.1413  130.6246  151.0471 LP  0  0  0  0  0  0  0  0  0  0  0  0  # atno 17371 bound_to 10713
  139.8706  134.9560  156.4223 LP  0  0  0  0  0  0  0  0  0  0  0  0  # atno 17394 bound_to 11000
  140.9050  133.7752  155.9725 LP  0  0  0  0  0  0  0  0  0  0  0  0  # atno 17395 bound_to 11000

$$$$
