AV-unprocessed.smi:807|AV-procd|sdf|3803|dock5
  -GOLD-   22720 1243D 1   1.00000     0.00000
 Structure written by MMmdl.
 35 37  0  0  0  0  0  0  0  0  1 V2000
  148.3254  140.7074  154.4739 C   0  0  0  0  0  0  0  0  0  0  0  0
  149.2765  140.3751  155.5223 N   0  0  0  0  0  0  0  0  0  0  0  0
  150.3310  139.4848  155.2745 C   0  0  0  0  0  0  0  0  0  0  0  0
  150.3309  138.7319  154.1501 N   0  0  0  0  0  0  0  0  0  0  0  0
  151.3605  137.8973  153.9557 C   0  0  0  0  0  0  0  0  0  0  0  0
  152.4342  137.6827  154.7323 N   0  0  0  0  0  0  0  0  0  0  0  0
  152.4425  138.4227  155.8495 C   0  0  0  0  0  0  0  0  0  0  0  0
  153.4206  138.4062  156.8292 N   0  0  0  0  0  0  0  0  0  0  0  0
  152.9507  139.3009  157.6956 C   0  0  0  0  0  0  0  0  0  0  0  0
  151.7815  139.9004  157.3969 N   0  0  0  0  0  0  0  0  0  0  0  0
  151.0870  140.8959  158.1945 C   0  0  0  0  0  0  0  0  0  0  0  0
  151.2844  142.3263  157.6508 C   0  0  1  0  0  0  0  0  0  0  0  0
  150.2802  142.6488  156.7081 O   0  0  0  0  0  0  0  0  0  0  0  0
  151.4098  143.3569  158.7704 C   0  0  0  0  0  0  0  0  0  0  0  0
  150.5963  144.5110  158.7084 C   0  0  0  0  0  0  0  0  0  0  0  0
  150.6696  145.4992  159.7077 C   0  0  0  0  0  0  0  0  0  0  0  0
  151.5626  145.3453  160.7826 C   0  0  0  0  0  0  0  0  0  0  0  0
  152.3822  144.2041  160.8533 C   0  0  0  0  0  0  0  0  0  0  0  0
  152.3146  143.2101  159.8560 C   0  0  0  0  0  0  0  0  0  0  0  0
  153.3620  141.8417  160.0060 Cl  0  0  0  0  0  0  0  0  0  0  0  0
  151.4063  139.3486  156.1746 C   0  0  0  0  0  0  0  0  0  0  0  0
  147.5858  141.4127  154.8523 H   0  0  0  0  0  0  0  0  0  0  0  0
  147.8014  139.8148  154.1304 H   0  0  0  0  0  0  0  0  0  0  0  0
  148.8311  141.1662  153.6235 H   0  0  0  0  0  0  0  0  0  0  0  0
  149.1645  140.7857  156.4379 H   0  0  0  0  0  0  0  0  0  0  0  0
  151.3210  137.3158  153.0465 H   0  0  0  0  0  0  0  0  0  0  0  0
  153.4867  139.5323  158.6045 H   0  0  0  0  0  0  0  0  0  0  0  0
  150.0299  140.6331  158.2317 H   0  0  0  0  0  0  0  0  0  0  0  0
  151.4534  140.8264  159.2190 H   0  0  0  0  0  0  0  0  0  0  0  0
  152.2164  142.3416  157.0850 H   0  0  0  0  0  0  0  0  0  0  0  0
  149.7918  143.3903  157.0317 H   0  0  0  0  0  0  0  0  0  0  0  0
  149.9068  144.6468  157.8878 H   0  0  0  0  0  0  0  0  0  0  0  0
  150.0408  146.3754  159.6488 H   0  0  0  0  0  0  0  0  0  0  0  0
  151.6210  146.1023  161.5509 H   0  0  0  0  0  0  0  0  0  0  0  0
  153.0693  144.0916  161.6790 H   0  0  0  0  0  0  0  0  0  0  0  0
  1  2  1  0  0  0  0
  1 22  1  0  0  0  0
  1 23  1  0  0  0  0
  1 24  1  0  0  0  0
  2  3  1  0  0  0  0
  2 25  1  0  0  0  0
  3 21  1  0  0  0  0
  3  4  2  0  0  0  0
  4  5  1  0  0  0  0
  5  6  2  0  0  0  0
  5 26  1  0  0  0  0
  6  7  1  0  0  0  0
  7 21  2  0  0  0  0
  7  8  1  0  0  0  0
  8  9  2  0  0  0  0
  9 10  1  0  0  0  0
  9 27  1  0  0  0  0
 10 11  1  0  0  0  0
 10 21  1  0  0  0  0
 11 12  1  0  0  0  0
 11 28  1  0  0  0  0
 11 29  1  0  0  0  0
 12 13  1  0  0  0  0
 12 14  1  0  0  0  0
 12 30  1  0  0  0  0
 13 31  1  0  0  0  0
 14 19  1  0  0  0  0
 14 15  2  0  0  0  0
 15 16  1  0  0  0  0
 15 32  1  0  0  0  0
 16 17  2  0  0  0  0
 16 33  1  0  0  0  0
 17 18  1  0  0  0  0
 17 34  1  0  0  0  0
 18 19  2  0  0  0  0
 18 35  1  0  0  0  0
 19 20  1  0  0  0  0
M  END
> <s_m_source_file>
AV-unprocessed.smi

> <i_m_source_file_index>
807

> <i_lp_mmshare_version>
43012

> <i_f3d_flags>
0

> <s_epik_input>
bjFbY0hdbmMoW05IXVtDSDNdKWMoYzEyKW4oW2NIXW4yKVtDSDJdW0NASF0oW09IXSljM1tjSF1bY0hdW2NIXVtjSF1jM0Ns

> <s_epik_cmdline>
J2VwaWtfcHl0aG9uJywgJy1waCcsICc3LjAnLCAnLXRuJywgJzgnLCAnLW1hJywgJzIwMCcsICctbWV0YWxfYmluZGluZycsICctaW1hZScsICc8aW5maWxlLm1hZT4nLCAnLW9tYWUnLCAnPG91dGZpbGUubWFlPic=

> <r_lp_tautomer_probability>
1

> <r_epik_Ionization_Penalty>
0.00695285

> <r_epik_Ionization_Penalty_Charging>
0

> <r_epik_Ionization_Penalty_Neutral>
0.00695285

> <r_epik_State_Penalty>
-0

> <r_epik_Charging_Adjusted_Penalty>
0

> <i_epik_Tot_Q>
0

> <i_epik_Tot_abs_Q>
0

> <r_epik_Metal_State_Penalty>
-0

> <b_epik_Metal_Only>
0

> <s_lp_Force_Field>
OPLS_2005

> <r_lp_Energy>
12.6911

> <b_lp_Chiralities_Consistent>
1

> <s_lp_Variant>
AV-unprocessed.smi:807-2

> <Gold.Version>
5.8.1

> <Gold.Id.Protein>
6NUR|6NUR_protein|mol2

> <Gold.PLP.Fitness>
47.2601

> <Gold.PLP.PLP>
-42.0576

> <Gold.PLP.part.hbond>
-2.0000

> <Gold.PLP.part.metal>
0.0000

> <Gold.PLP.part.buried>
-4.5639

> <Gold.PLP.part.nonpolar>
-36.2983

> <Gold.PLP.part.repulsive>
0.4077

> <Gold.PLP.ligand.clash>
0.0000

> <Gold.PLP.ligand.torsion>
0.8196

> <Gold.PLP.Chemscore.Hbond>
1.2587

> <Gold.PLP.Chemscore.CHOScore>
1.0000

> <Gold.PLP.Chemscore.Metal>
0.0000

> <Gold.Chemscore.Hbonds>
donor molecule, donor type, donor heavy atom, donor atom, acceptor molecule, acceptor atom, score
      L1  H    13    31       P1  8028  0.32
      P1  H 10752 10765       L1     6  0.47
      L1  C     5    26       P1  7949  1.00

> <Gold.PLP.Chemscore.Internal.Correction>
0.0657

> <Gold.Rescore>
     Score         DG    S(hbond)    S(metal)    S(lipo)     H(rot)  DE(clash)    DE(int)     intcor
     14.12     -16.88       1.56        0.00     103.50       2.31       0.27       2.49       ----

> <Gold.Chemscore.Fitness>
14.1217

> <Gold.Chemscore.DG>
-16.8809

> <Gold.Chemscore.ZeroCoef>
-5.4800

> <Gold.Chemscore.Hbond>
1.5594

> <Gold.Chemscore.Metal>
0.0000

> <Gold.Chemscore.Lipo>
103.5047

> <Gold.Chemscore.Internal_Hbond>
0.0000

> <Gold.Chemscore.DEClash>
0.2696

> <Gold.Chemscore.DEInternal>
2.4895

> <Gold.Chemscore.Rot>
2.3115

> <Gold.Chemscore.Internal.Correction>
   9.000000E+99

> <Gold.Chemscore.Hbonds>
donor molecule, donor type, donor heavy atom, donor atom, acceptor molecule, acceptor atom, score
      L1  H    13    31       P1  8028  0.32
      P1  H 10752 10765       L1     6  0.28

> <Gold.Chemscore.Hbond.Weighted>
-5.2083

> <Gold.Chemscore.Metal.Weighted>
-0.0000

> <Gold.Chemscore.Lipo.Weighted>
-12.1100

> <Gold.Chemscore.Internal_Hbond.Weighted>
0.0000

> <Gold.Chemscore.DEClash.Weighted>
0.2696

> <Gold.Chemscore.DEInternal.Weighted>
2.4895

> <Gold.Chemscore.Rot.Weighted>
5.9174

> <Gold.Chemscore.Internal.Correction.Weighted>
   9.000000E+99

> <Gold.Protein.RotatedTorsions>
[ 6907 6896 6895 6894 ] final -113.18 input  -60.11 | X-H torsion
[ 7974 7965 7964 7962 ] final   53.24 input  175.53 | X-H torsion
[ 8008 7997 7996 7995 ] final  149.35 input   59.86 | X-H torsion
[ 10167 10162 10161 10158 ] final   68.17 input  -65.29 | X-H torsion
[ 10718 10713 10712 10709 ] final   99.20 input   66.30 | X-H torsion
[ 10763 10752 10751 10750 ] final  173.78 input  -60.55 | X-H torsion
[ 11005 11000 10999 10996 ] final   47.95 input  -57.11 | X-H torsion

> <Gold.Protein.ActiveResidues>
 VAL166  LYS551  ARG553  GLY616  TRP617  ASP618  TYR619  PRO620  LYS621  CYS622 
 ASP623  PHE694  ASN695  SER759  ASP760  ASP761  ALA762  ILE779  LEU786  VAL792 
 PHE793  MET794  SER795  GLU796  ALA797  LYS798  CYS799  TRP800  GLU811  SER814 

> <Gold.Protein.RotatedAtoms>
  150.7811  133.8982  159.3333 H   0  0  0  0  0  0  0  0  0  0  0  0  # atno 6907 bound_to 6896
  151.6844  135.0954  160.0231 H   0  0  0  0  0  0  0  0  0  0  0  0  # atno 6908 bound_to 6896
  152.3862  133.6576  159.6236 H   0  0  0  0  0  0  0  0  0  0  0  0  # atno 6909 bound_to 6896
  145.9731  139.4169  143.0178 H   0  0  0  0  0  0  0  0  0  0  0  0  # atno 7974 bound_to 7965
  156.2758  140.2104  156.5844 H   0  0  0  0  0  0  0  0  0  0  0  0  # atno 8008 bound_to 7997
  154.7033  140.0519  157.0502 H   0  0  0  0  0  0  0  0  0  0  0  0  # atno 8009 bound_to 7997
  155.0705  140.3176  155.4635 H   0  0  0  0  0  0  0  0  0  0  0  0  # atno 8010 bound_to 7997
  140.0816  144.5066  150.7158 H   0  0  0  0  0  0  0  0  0  0  0  0  # atno 10167 bound_to 10162
  157.6881  131.0662  150.4912 H   0  0  0  0  0  0  0  0  0  0  0  0  # atno 10718 bound_to 10713
  154.4448  135.2763  155.1822 H   0  0  0  0  0  0  0  0  0  0  0  0  # atno 10763 bound_to 10752
  154.3674  135.6116  153.5725 H   0  0  0  0  0  0  0  0  0  0  0  0  # atno 10764 bound_to 10752
  152.9843  135.5849  154.4782 H   0  0  0  0  0  0  0  0  0  0  0  0  # atno 10765 bound_to 10752
  140.1234  134.4800  155.8579 H   0  0  0  0  0  0  0  0  0  0  0  0  # atno 11005 bound_to 11000
  145.7877  140.9828  143.1065 LP  0  0  0  0  0  0  0  0  0  0  0  0  # atno 17320 bound_to 7965
  144.6842  139.9643  143.7481 LP  0  0  0  0  0  0  0  0  0  0  0  0  # atno 17321 bound_to 7965
  140.7075  143.2479  151.4683 LP  0  0  0  0  0  0  0  0  0  0  0  0  # atno 17342 bound_to 10162
  139.5776  144.1782  152.1925 LP  0  0  0  0  0  0  0  0  0  0  0  0  # atno 17343 bound_to 10162
  156.5238  130.4168  149.6237 LP  0  0  0  0  0  0  0  0  0  0  0  0  # atno 17370 bound_to 10713
  156.3130  130.7239  151.2136 LP  0  0  0  0  0  0  0  0  0  0  0  0  # atno 17371 bound_to 10713
  141.2156  133.6769  156.6932 LP  0  0  0  0  0  0  0  0  0  0  0  0  # atno 17394 bound_to 11000
  140.2935  134.8221  157.4037 LP  0  0  0  0  0  0  0  0  0  0  0  0  # atno 17395 bound_to 11000

$$$$
