AV-unprocessed.smi:221|AV-procd|sdf|1696|dock9
  -GOLD-   2262020143D 1   1.00000     0.00000
 Structure written by MMmdl.
 50 53  0  0  0  0  0  0  0  0  1 V2000
  151.0725  138.8377  156.1145 N   0  0  0  0  0  0  0  0  0  0  0  0
  150.7889  140.1439  156.0754 C   0  0  0  0  0  0  0  0  0  0  0  0
  150.4885  140.7050  155.0242 O   0  0  0  0  0  0  0  0  0  0  0  0
  150.8369  140.9550  157.3854 C   0  0  2  0  0  0  0  0  0  0  0  0
  150.6235  142.4534  157.1125 C   0  0  0  0  0  0  0  0  0  0  0  0
  151.3043  143.1263  158.2974 C   0  0  2  0  0  0  0  0  0  0  0  0
  151.6356  144.3930  158.0487 F   0  0  0  0  0  0  0  0  0  0  0  0
  152.5193  142.2378  158.5498 C   0  0  0  0  0  0  0  0  0  0  0  0
  152.1229  140.9084  158.0975 N   0  0  0  0  0  0  0  0  0  0  0  0
  152.5228  139.8226  158.8138 C   0  0  0  0  0  0  0  0  0  0  0  0
  152.1107  138.5831  158.4367 N   0  0  0  0  0  0  0  0  0  0  0  0
  152.4902  137.5018  159.1232 C   0  0  0  0  0  0  0  0  0  0  0  0
  153.2731  137.4313  160.2007 N   0  0  0  0  0  0  0  0  0  0  0  0
  153.7017  138.6684  160.5804 C   0  0  0  0  0  0  0  0  0  0  0  0
  153.3803  139.9045  159.9496 C   0  0  0  0  0  0  0  0  0  0  0  0
  154.0189  140.9477  160.6116 N   0  0  0  0  0  0  0  0  0  0  0  0
  154.6698  140.3648  161.5806 C   0  0  0  0  0  0  0  0  0  0  0  0
  154.5381  138.9966  161.6332 N   0  0  0  0  0  0  0  0  0  0  0  0
  155.1532  138.1060  162.6018 C   0  0  0  0  0  0  0  0  0  0  0  0
  154.3009  136.8404  162.8760 C   0  0  2  0  0  0  0  0  0  0  0  0
  153.6689  136.8819  164.2869 C   0  0  0  0  0  0  0  0  0  0  0  0
  154.6565  137.0153  165.2876 O   0  0  0  0  0  0  0  0  0  0  0  0
  155.0735  135.5153  162.6280 C   0  0  1  0  0  0  0  0  0  0  0  0
  154.3876  134.2425  163.1272 C   0  0  0  0  0  0  0  0  0  0  0  0
  154.5721  133.2423  161.9833 C   0  0  0  0  0  0  0  0  0  0  0  0
  155.6210  133.7869  161.1975 O   0  0  0  0  0  0  0  0  0  0  0  0
  155.4223  135.1901  161.1711 C   0  0  0  0  0  0  0  0  0  0  0  0
  150.0429  140.6066  158.0486 H   0  0  0  0  0  0  0  0  0  0  0  0
  150.6421  143.1193  159.1645 H   0  0  0  0  0  0  0  0  0  0  0  0
  151.0443  138.2923  155.2652 H   0  0  0  0  0  0  0  0  0  0  0  0
  151.3124  138.4022  156.9933 H   0  0  0  0  0  0  0  0  0  0  0  0
  151.1188  142.7556  156.1874 H   0  0  0  0  0  0  0  0  0  0  0  0
  149.5694  142.7207  157.0300 H   0  0  0  0  0  0  0  0  0  0  0  0
  153.3711  142.5656  157.9528 H   0  0  0  0  0  0  0  0  0  0  0  0
  152.8068  142.2685  159.6018 H   0  0  0  0  0  0  0  0  0  0  0  0
  152.1130  136.5588  158.7560 H   0  0  0  0  0  0  0  0  0  0  0  0
  155.2725  140.9192  162.2855 H   0  0  0  0  0  0  0  0  0  0  0  0
  156.1400  137.8450  162.2216 H   0  0  0  0  0  0  0  0  0  0  0  0
  155.3196  138.6656  163.5222 H   0  0  0  0  0  0  0  0  0  0  0  0
  153.4772  136.8534  162.1602 H   0  0  0  0  0  0  0  0  0  0  0  0
  152.9554  137.7020  164.3697 H   0  0  0  0  0  0  0  0  0  0  0  0
  153.1223  135.9639  164.5007 H   0  0  0  0  0  0  0  0  0  0  0  0
  155.3603  137.5462  164.9468 H   0  0  0  0  0  0  0  0  0  0  0  0
  156.0201  135.5664  163.1679 H   0  0  0  0  0  0  0  0  0  0  0  0
  154.8794  133.8865  164.0336 H   0  0  0  0  0  0  0  0  0  0  0  0
  153.3327  134.3733  163.3663 H   0  0  0  0  0  0  0  0  0  0  0  0
  154.8151  132.2396  162.3357 H   0  0  0  0  0  0  0  0  0  0  0  0
  153.6663  133.1810  161.3775 H   0  0  0  0  0  0  0  0  0  0  0  0
  154.6064  135.4138  160.4840 H   0  0  0  0  0  0  0  0  0  0  0  0
  156.3141  135.7137  160.8256 H   0  0  0  0  0  0  0  0  0  0  0  0
  1  2  1  0  0  0  0
  1 30  1  0  0  0  0
  1 31  1  0  0  0  0
  2  3  2  0  0  0  0
  2  4  1  0  0  0  0
  4 28  1  0  0  0  0
  4  9  1  0  0  0  0
  4  5  1  0  0  0  0
  5  6  1  0  0  0  0
  5 32  1  0  0  0  0
  5 33  1  0  0  0  0
  6 29  1  0  0  0  0
  6  7  1  0  0  0  0
  6  8  1  0  0  0  0
  8  9  1  0  0  0  0
  8 34  1  0  0  0  0
  8 35  1  0  0  0  0
  9 10  1  0  0  0  0
 10 15  1  0  0  0  0
 10 11  2  0  0  0  0
 11 12  1  0  0  0  0
 12 13  2  0  0  0  0
 12 36  1  0  0  0  0
 13 14  1  0  0  0  0
 14 18  1  0  0  0  0
 14 15  2  0  0  0  0
 15 16  1  0  0  0  0
 16 17  2  0  0  0  0
 17 18  1  0  0  0  0
 17 37  1  0  0  0  0
 18 19  1  0  0  0  0
 19 20  1  0  0  0  0
 19 38  1  0  0  0  0
 19 39  1  0  0  0  0
 20 21  1  0  0  0  0
 20 23  1  0  0  0  0
 20 40  1  0  0  0  0
 21 22  1  0  0  0  0
 21 41  1  0  0  0  0
 21 42  1  0  0  0  0
 22 43  1  0  0  0  0
 23 27  1  0  0  0  0
 23 24  1  0  0  0  0
 23 44  1  0  0  0  0
 24 25  1  0  0  0  0
 24 45  1  0  0  0  0
 24 46  1  0  0  0  0
 25 26  1  0  0  0  0
 25 47  1  0  0  0  0
 25 48  1  0  0  0  0
 26 27  1  0  0  0  0
 27 49  1  0  0  0  0
 27 50  1  0  0  0  0
M  END
> <s_m_source_file>
AV-unprocessed.smi

> <i_m_source_file_index>
221

> <i_lp_mmshare_version>
43012

> <i_f3d_flags>
0

> <s_epik_input>
W05IMl1DKD1PKVtDQEBIXTFbQ0gyXVtDQEBIXShGKVtDSDJdTjFjKG5bY0hdbjIpYyhjMjMpbltjSF1uM1tDSDJdW0NASF0oW0NIMl1bT0hdKVtDQEBIXTRbQ0gyXVtDSDJdT1tDSDJdNA==

> <s_epik_cmdline>
J2VwaWtfcHl0aG9uJywgJy1waCcsICc3LjAnLCAnLXRuJywgJzgnLCAnLW1hJywgJzIwMCcsICctbWV0YWxfYmluZGluZycsICctaW1hZScsICc8aW5maWxlLm1hZT4nLCAnLW9tYWUnLCAnPG91dGZpbGUubWFlPic=

> <r_lp_tautomer_probability>
1

> <r_epik_Ionization_Penalty>
0.000818822

> <r_epik_Ionization_Penalty_Charging>
0

> <r_epik_Ionization_Penalty_Neutral>
0.000818822

> <r_epik_State_Penalty>
0.000440551

> <r_epik_Charging_Adjusted_Penalty>
0.000440551

> <i_epik_Tot_Q>
0

> <i_epik_Tot_abs_Q>
0

> <r_epik_Metal_State_Penalty>
-0

> <b_epik_Metal_Only>
0

> <s_lp_Force_Field>
OPLS_2005

> <r_lp_Energy>
49.7935

> <b_lp_Chiralities_Consistent>
1

> <s_lp_Variant>
AV-unprocessed.smi:221-11

> <Gold.Version>
5.8.1

> <Gold.Id.Protein>
6NUR|6NUR_protein|mol2

> <Gold.PLP.Fitness>
44.9098

> <Gold.PLP.PLP>
-44.8688

> <Gold.PLP.part.hbond>
-2.0000

> <Gold.PLP.part.metal>
0.0000

> <Gold.PLP.part.buried>
-6.1290

> <Gold.PLP.part.nonpolar>
-36.2060

> <Gold.PLP.part.repulsive>
0.1707

> <Gold.PLP.ligand.clash>
0.0000

> <Gold.PLP.ligand.torsion>
1.5401

> <Gold.PLP.Chemscore.Hbond>
0.9280

> <Gold.PLP.Chemscore.CHOScore>
0.0000

> <Gold.PLP.Chemscore.Metal>
0.0000

> <Gold.Chemscore.Hbonds>
donor molecule, donor type, donor heavy atom, donor atom, acceptor molecule, acceptor atom, score
      P1  H  7989  7998       L1     3  0.90

> <Gold.PLP.Chemscore.Internal.Correction>
0.3373

> <Gold.Rescore>
     Score         DG    S(hbond)    S(metal)    S(lipo)     H(rot)  DE(clash)    DE(int)     intcor
      3.09      -8.80       0.93        0.00      74.15       3.31       0.12       5.59       ----

> <Gold.Chemscore.Fitness>
3.0938

> <Gold.Chemscore.DG>
-8.8044

> <Gold.Chemscore.ZeroCoef>
-5.4800

> <Gold.Chemscore.Hbond>
0.9341

> <Gold.Chemscore.Metal>
0.0000

> <Gold.Chemscore.Lipo>
74.1498

> <Gold.Chemscore.Internal_Hbond>
0.0000

> <Gold.Chemscore.DEClash>
0.1161

> <Gold.Chemscore.DEInternal>
5.5945

> <Gold.Chemscore.Rot>
3.3089

> <Gold.Chemscore.Internal.Correction>
   9.000000E+99

> <Gold.Chemscore.Hbonds>
donor molecule, donor type, donor heavy atom, donor atom, acceptor molecule, acceptor atom, score
      P1  H  7989  7998       L1     3  0.86

> <Gold.Chemscore.Hbond.Weighted>
-3.1198

> <Gold.Chemscore.Metal.Weighted>
-0.0000

> <Gold.Chemscore.Lipo.Weighted>
-8.6755

> <Gold.Chemscore.Internal_Hbond.Weighted>
0.0000

> <Gold.Chemscore.DEClash.Weighted>
0.1161

> <Gold.Chemscore.DEInternal.Weighted>
5.5945

> <Gold.Chemscore.Rot.Weighted>
8.4709

> <Gold.Chemscore.Internal.Correction.Weighted>
   9.000000E+99

> <Gold.Protein.RotatedTorsions>
[ 6907 6896 6895 6894 ] final   38.71 input  -60.11 | X-H torsion
[ 7974 7965 7964 7962 ] final  104.74 input  175.53 | X-H torsion
[ 8008 7997 7996 7995 ] final -164.18 input   59.86 | X-H torsion
[ 10167 10162 10161 10158 ] final  -64.60 input  -65.29 | X-H torsion
[ 10718 10713 10712 10709 ] final -118.68 input   66.30 | X-H torsion
[ 10763 10752 10751 10750 ] final -178.38 input  -60.55 | X-H torsion
[ 11005 11000 10999 10996 ] final   94.58 input  -57.11 | X-H torsion

> <Gold.Protein.ActiveResidues>
 VAL166  LYS551  ARG553  GLY616  TRP617  ASP618  TYR619  PRO620  LYS621  CYS622 
 ASP623  PHE694  ASN695  SER759  ASP760  ASP761  ALA762  ILE779  LEU786  VAL792 
 PHE793  MET794  SER795  GLU796  ALA797  LYS798  CYS799  TRP800  GLU811  SER814 

> <Gold.Protein.RotatedAtoms>
  152.1601  134.8919  160.0541 H   0  0  0  0  0  0  0  0  0  0  0  0  # atno 6907 bound_to 6896
  151.9918  133.3789  159.4155 H   0  0  0  0  0  0  0  0  0  0  0  0  # atno 6908 bound_to 6896
  150.6886  134.3850  159.5095 H   0  0  0  0  0  0  0  0  0  0  0  0  # atno 6909 bound_to 6896
  145.3288  139.2492  143.3672 H   0  0  0  0  0  0  0  0  0  0  0  0  # atno 7974 bound_to 7965
  155.8319  140.0935  157.1787 H   0  0  0  0  0  0  0  0  0  0  0  0  # atno 8008 bound_to 7997
  154.3980  140.1417  156.3685 H   0  0  0  0  0  0  0  0  0  0  0  0  # atno 8009 bound_to 7997
  155.8157  140.3448  155.5486 H   0  0  0  0  0  0  0  0  0  0  0  0  # atno 8010 bound_to 7997
  140.5789  143.2325  151.6383 H   0  0  0  0  0  0  0  0  0  0  0  0  # atno 10167 bound_to 10162
  156.1124  130.6259  150.9322 H   0  0  0  0  0  0  0  0  0  0  0  0  # atno 10718 bound_to 10713
  154.5484  135.2811  155.1031 H   0  0  0  0  0  0  0  0  0  0  0  0  # atno 10763 bound_to 10752
  154.2487  135.6343  153.5236 H   0  0  0  0  0  0  0  0  0  0  0  0  # atno 10764 bound_to 10752
  152.9996  135.5577  154.6043 H   0  0  0  0  0  0  0  0  0  0  0  0  # atno 10765 bound_to 10752
  139.8797  134.8853  156.3886 H   0  0  0  0  0  0  0  0  0  0  0  0  # atno 11005 bound_to 11000
  146.3053  140.3862  142.8689 LP  0  0  0  0  0  0  0  0  0  0  0  0  # atno 17320 bound_to 7965
  144.8880  140.7487  143.5944 LP  0  0  0  0  0  0  0  0  0  0  0  0  # atno 17321 bound_to 7965
  139.5158  144.3365  152.0779 LP  0  0  0  0  0  0  0  0  0  0  0  0  # atno 17342 bound_to 10162
  140.2513  144.4166  150.6221 LP  0  0  0  0  0  0  0  0  0  0  0  0  # atno 17343 bound_to 10162
  157.6306  131.0921  150.8448 LP  0  0  0  0  0  0  0  0  0  0  0  0  # atno 17370 bound_to 10713
  156.8557  130.5095  149.5308 LP  0  0  0  0  0  0  0  0  0  0  0  0  # atno 17371 bound_to 10713
  140.9349  133.7554  156.0072 LP  0  0  0  0  0  0  0  0  0  0  0  0  # atno 17394 bound_to 11000
  140.8287  134.3203  157.5356 LP  0  0  0  0  0  0  0  0  0  0  0  0  # atno 17395 bound_to 11000

$$$$
