AV-unprocessed.smi:2525|AV-procd|sdf|9930|dock10
  -GOLD-   2272013573D 1   1.00000     0.00000
 Structure written by MMmdl.
 44 45  0  0  0  0  0  0  0  0  1 V2000
  150.0733  141.5622  155.2556 C   0  0  0  0  0  0  0  0  0  0  0  0
  151.0466  141.1075  156.3581 C   0  0  0  0  0  0  0  0  0  0  0  0
  151.1632  139.5787  156.6191 C   0  0  0  0  0  0  0  0  0  0  0  0
  151.3934  138.9162  155.2385 C   0  0  0  0  0  0  0  0  0  0  0  0
  152.8481  138.9479  154.7370 C   0  0  0  0  0  0  0  0  0  0  0  0
  152.1530  139.0842  157.7166 C   0  0  1  0  0  0  0  0  0  0  0  0
  152.3899  140.0538  158.7843 N   0  0  0  0  0  0  0  0  0  0  0  0
  153.5665  140.2683  159.3916 C   0  0  0  0  0  0  0  0  0  0  0  0
  154.6009  139.6731  159.0924 O   0  0  0  0  0  0  0  0  0  0  0  0
  153.5870  141.3314  160.4936 C   0  0  0  0  0  0  0  0  0  0  0  0
  152.7514  142.4734  160.1599 N   0  0  0  0  0  0  0  0  0  0  0  0
  152.8755  143.3491  159.1009 C   0  0  0  0  0  0  0  0  0  0  0  0
  151.8457  144.2254  159.2909 C   0  0  0  0  0  0  0  0  0  0  0  0
  151.1486  143.8539  160.4394 N   0  0  0  0  0  0  0  0  0  0  0  0
  151.6996  142.7983  160.9509 N   0  0  0  0  0  0  0  0  0  0  0  0
  151.1326  138.0120  158.1405 C   0  0  1  0  0  0  0  0  0  0  0  0
  151.0019  137.6078  159.6081 C   0  0  0  0  0  0  0  0  0  0  0  0
  150.0647  138.9040  157.4902 C   0  0  2  0  0  0  0  0  0  0  0  0
  149.0939  138.2199  156.7114 O   0  0  0  0  0  0  0  0  0  0  0  0
  148.1534  137.5025  157.4911 C   0  0  0  0  0  0  0  0  0  0  0  0
  150.0482  142.6506  155.1992 H   0  0  0  0  0  0  0  0  0  0  0  0
  149.0526  141.2268  155.4335 H   0  0  0  0  0  0  0  0  0  0  0  0
  150.3857  141.1989  154.2765 H   0  0  0  0  0  0  0  0  0  0  0  0
  152.0195  141.5233  156.0931 H   0  0  0  0  0  0  0  0  0  0  0  0
  150.7694  141.6122  157.2841 H   0  0  0  0  0  0  0  0  0  0  0  0
  151.0788  137.8727  155.2626 H   0  0  0  0  0  0  0  0  0  0  0  0
  150.7532  139.3807  154.4874 H   0  0  0  0  0  0  0  0  0  0  0  0
  152.9327  138.4275  153.7830 H   0  0  0  0  0  0  0  0  0  0  0  0
  153.5287  138.4606  155.4344 H   0  0  0  0  0  0  0  0  0  0  0  0
  153.2029  139.9662  154.5806 H   0  0  0  0  0  0  0  0  0  0  0  0
  153.0670  138.6346  157.3269 H   0  0  0  0  0  0  0  0  0  0  0  0
  151.5941  140.5935  159.0926 H   0  0  0  0  0  0  0  0  0  0  0  0
  153.2308  140.9029  161.4313 H   0  0  0  0  0  0  0  0  0  0  0  0
  154.6127  141.6635  160.6605 H   0  0  0  0  0  0  0  0  0  0  0  0
  153.6478  143.2764  158.3491 H   0  0  0  0  0  0  0  0  0  0  0  0
  151.5522  145.0840  158.7050 H   0  0  0  0  0  0  0  0  0  0  0  0
  151.2889  137.1258  157.5231 H   0  0  0  0  0  0  0  0  0  0  0  0
  150.6717  138.4403  160.2304 H   0  0  0  0  0  0  0  0  0  0  0  0
  151.9546  137.2580  160.0054 H   0  0  0  0  0  0  0  0  0  0  0  0
  150.2801  136.8013  159.7347 H   0  0  0  0  0  0  0  0  0  0  0  0
  149.6127  139.5693  158.2264 H   0  0  0  0  0  0  0  0  0  0  0  0
  147.4077  137.0512  156.8370 H   0  0  0  0  0  0  0  0  0  0  0  0
  147.6339  138.1597  158.1894 H   0  0  0  0  0  0  0  0  0  0  0  0
  148.6319  136.7005  158.0522 H   0  0  0  0  0  0  0  0  0  0  0  0
  1  2  1  0  0  0  0
  1 21  1  0  0  0  0
  1 22  1  0  0  0  0
  1 23  1  0  0  0  0
  2  3  1  0  0  0  0
  2 24  1  0  0  0  0
  2 25  1  0  0  0  0
  3 18  1  0  0  0  0
  3  4  1  0  0  0  0
  3  6  1  0  0  0  0
  4  5  1  0  0  0  0
  4 26  1  0  0  0  0
  4 27  1  0  0  0  0
  5 28  1  0  0  0  0
  5 29  1  0  0  0  0
  5 30  1  0  0  0  0
  6  7  1  0  0  0  0
  6 16  1  0  0  0  0
  6 31  1  0  0  0  0
  7  8  1  0  0  0  0
  7 32  1  0  0  0  0
  8  9  2  0  0  0  0
  8 10  1  0  0  0  0
 10 11  1  0  0  0  0
 10 33  1  0  0  0  0
 10 34  1  0  0  0  0
 11 15  1  0  0  0  0
 11 12  1  0  0  0  0
 12 13  2  0  0  0  0
 12 35  1  0  0  0  0
 13 14  1  0  0  0  0
 13 36  1  0  0  0  0
 14 15  2  0  0  0  0
 16 17  1  0  0  0  0
 16 18  1  0  0  0  0
 16 37  1  0  0  0  0
 17 38  1  0  0  0  0
 17 39  1  0  0  0  0
 17 40  1  0  0  0  0
 18 19  1  0  0  0  0
 18 41  1  0  0  0  0
 19 20  1  0  0  0  0
 20 42  1  0  0  0  0
 20 43  1  0  0  0  0
 20 44  1  0  0  0  0
M  END
> <s_m_source_file>
AV-unprocessed.smi

> <i_m_source_file_index>
2525

> <i_lp_mmshare_version>
43012

> <i_f3d_flags>
0

> <s_epik_input>
W0NIM11PW0NAQEhdMVtDQEhdKFtDSDNdKVtDQEBIXShDMShbQ0gyXVtDSDNdKVtDSDJdW0NIM10pW05IXUMoPU8pW0NIMl1uMltjSF1bY0hdbm4y

> <s_epik_cmdline>
J2VwaWtfcHl0aG9uJywgJy1waCcsICc3LjAnLCAnLXRuJywgJzgnLCAnLW1hJywgJzIwMCcsICctbWV0YWxfYmluZGluZycsICctaW1hZScsICc8aW5maWxlLm1hZT4nLCAnLW9tYWUnLCAnPG91dGZpbGUubWFlPic=

> <r_lp_tautomer_probability>
1

> <r_epik_Ionization_Penalty>
1.18045e-06

> <r_epik_Ionization_Penalty_Charging>
0

> <r_epik_Ionization_Penalty_Neutral>
1.18045e-06

> <r_epik_State_Penalty>
-0

> <r_epik_Charging_Adjusted_Penalty>
0

> <i_epik_Tot_Q>
0

> <i_epik_Tot_abs_Q>
0

> <r_epik_Metal_State_Penalty>
-0

> <b_epik_Metal_Only>
0

> <s_lp_Force_Field>
OPLS_2005

> <r_lp_Energy>
28.6674

> <b_lp_Chiralities_Consistent>
1

> <s_lp_Variant>
AV-unprocessed.smi:2525-5

> <Gold.Version>
5.8.1

> <Gold.Id.Protein>
6NUR|6NUR_protein|mol2

> <Gold.PLP.Fitness>
40.3803

> <Gold.PLP.PLP>
-38.2097

> <Gold.PLP.part.hbond>
-2.7248

> <Gold.PLP.part.metal>
0.0000

> <Gold.PLP.part.buried>
-4.1321

> <Gold.PLP.part.nonpolar>
-32.0051

> <Gold.PLP.part.repulsive>
0.3043

> <Gold.PLP.ligand.clash>
0.0000

> <Gold.PLP.ligand.torsion>
0.9976

> <Gold.PLP.Chemscore.Hbond>
1.1945

> <Gold.PLP.Chemscore.CHOScore>
0.0000

> <Gold.PLP.Chemscore.Metal>
0.0000

> <Gold.Chemscore.Hbonds>
donor molecule, donor type, donor heavy atom, donor atom, acceptor molecule, acceptor atom, score
      P1  H  6933  6945       L1    15  0.09
      P1  H  7997  8008       L1     9  1.00

> <Gold.PLP.Chemscore.Internal.Correction>
0.5824

> <Gold.Rescore>
     Score         DG    S(hbond)    S(metal)    S(lipo)     H(rot)  DE(clash)    DE(int)     intcor
     12.97     -13.70       0.99        0.00      85.33       1.98       0.01       0.72       ----

> <Gold.Chemscore.Fitness>
12.9705

> <Gold.Chemscore.DG>
-13.7022

> <Gold.Chemscore.ZeroCoef>
-5.4800

> <Gold.Chemscore.Hbond>
0.9916

> <Gold.Chemscore.Metal>
0.0000

> <Gold.Chemscore.Lipo>
85.3269

> <Gold.Chemscore.Internal_Hbond>
0.0000

> <Gold.Chemscore.DEClash>
0.0127

> <Gold.Chemscore.DEInternal>
0.7190

> <Gold.Chemscore.Rot>
1.9817

> <Gold.Chemscore.Internal.Correction>
   9.000000E+99

> <Gold.Chemscore.Hbonds>
donor molecule, donor type, donor heavy atom, donor atom, acceptor molecule, acceptor atom, score
      P1  H  6933  6945       L1    15  0.05
      P1  H  7997  8008       L1     9  0.65

> <Gold.Chemscore.Hbond.Weighted>
-3.3120

> <Gold.Chemscore.Metal.Weighted>
-0.0000

> <Gold.Chemscore.Lipo.Weighted>
-9.9832

> <Gold.Chemscore.Internal_Hbond.Weighted>
0.0000

> <Gold.Chemscore.DEClash.Weighted>
0.0127

> <Gold.Chemscore.DEInternal.Weighted>
0.7190

> <Gold.Chemscore.Rot.Weighted>
5.0731

> <Gold.Chemscore.Internal.Correction.Weighted>
   9.000000E+99

> <Gold.Protein.RotatedTorsions>
[ 6907 6896 6895 6894 ] final -162.78 input  -60.11 | X-H torsion
[ 7974 7965 7964 7962 ] final   15.04 input  175.53 | X-H torsion
[ 8008 7997 7996 7995 ] final -111.19 input   59.86 | X-H torsion
[ 10167 10162 10161 10158 ] final  -99.58 input  -65.29 | X-H torsion
[ 10718 10713 10712 10709 ] final  -93.57 input   66.30 | X-H torsion
[ 10763 10752 10751 10750 ] final  105.46 input  -60.55 | X-H torsion
[ 11005 11000 10999 10996 ] final   21.19 input  -57.11 | X-H torsion

> <Gold.Protein.ActiveResidues>
 VAL166  LYS551  ARG553  GLY616  TRP617  ASP618  TYR619  PRO620  LYS621  CYS622 
 ASP623  PHE694  ASN695  SER759  ASP760  ASP761  ALA762  ILE779  LEU786  VAL792 
 PHE793  MET794  SER795  GLU796  ALA797  LYS798  CYS799  TRP800  GLU811  SER814 

> <Gold.Protein.RotatedAtoms>
  151.3857  133.3806  159.2714 H   0  0  0  0  0  0  0  0  0  0  0  0  # atno 6907 bound_to 6896
  150.9543  134.8940  159.7702 H   0  0  0  0  0  0  0  0  0  0  0  0  # atno 6908 bound_to 6896
  152.5124  134.3814  159.9404 H   0  0  0  0  0  0  0  0  0  0  0  0  # atno 6909 bound_to 6896
  146.2289  139.8953  142.8548 H   0  0  0  0  0  0  0  0  0  0  0  0  # atno 7974 bound_to 7965
  154.9860  140.0395  157.2299 H   0  0  0  0  0  0  0  0  0  0  0  0  # atno 8008 bound_to 7997
  154.7671  140.2795  155.6145 H   0  0  0  0  0  0  0  0  0  0  0  0  # atno 8009 bound_to 7997
  156.2914  140.2617  156.2464 H   0  0  0  0  0  0  0  0  0  0  0  0  # atno 8010 bound_to 7997
  140.2610  143.3407  152.0626 H   0  0  0  0  0  0  0  0  0  0  0  0  # atno 10167 bound_to 10162
  156.0015  130.5032  150.5796 H   0  0  0  0  0  0  0  0  0  0  0  0  # atno 10718 bound_to 10713
  153.3796  135.3909  155.1847 H   0  0  0  0  0  0  0  0  0  0  0  0  # atno 10763 bound_to 10752
  154.8706  135.3722  154.4874 H   0  0  0  0  0  0  0  0  0  0  0  0  # atno 10764 bound_to 10752
  153.5349  135.7085  153.5726 H   0  0  0  0  0  0  0  0  0  0  0  0  # atno 10765 bound_to 10752
  140.3944  134.1785  155.7663 H   0  0  0  0  0  0  0  0  0  0  0  0  # atno 11005 bound_to 11000
  145.2377  140.9997  143.3954 LP  0  0  0  0  0  0  0  0  0  0  0  0  # atno 17320 bound_to 7965
  144.9478  139.4117  143.6417 LP  0  0  0  0  0  0  0  0  0  0  0  0  # atno 17321 bound_to 7965
  139.5017  144.6719  151.6223 LP  0  0  0  0  0  0  0  0  0  0  0  0  # atno 17342 bound_to 10162
  140.5966  143.9685  150.6358 LP  0  0  0  0  0  0  0  0  0  0  0  0  # atno 17343 bound_to 10162
  157.3678  131.0760  151.1583 LP  0  0  0  0  0  0  0  0  0  0  0  0  # atno 17370 bound_to 10713
  157.2346  130.6541  149.5864 LP  0  0  0  0  0  0  0  0  0  0  0  0  # atno 17371 bound_to 10713
  141.1879  133.8270  157.1013 LP  0  0  0  0  0  0  0  0  0  0  0  0  # atno 17394 bound_to 11000
  140.0383  134.9867  157.0913 LP  0  0  0  0  0  0  0  0  0  0  0  0  # atno 17395 bound_to 11000

$$$$
