AV-unprocessed.smi:1809|AV-procd|sdf|7330|dock9
  -GOLD-   22720 8583D 1   1.00000     0.00000
 Structure written by MMmdl.
 38 40  0  0  0  0  0  0  0  0  2 V2000
  143.8526  143.8247  162.5673 C   0  0  0  0  0  0  0  0  0  0  0  0
  144.7019  143.3988  161.4194 C   0  0  0  0  0  0  0  0  0  0  0  0
  144.9053  142.1166  161.1073 N   0  0  0  0  0  0  0  0  0  0  0  0
  145.7317  141.9726  160.0022 N   0  0  0  0  0  0  0  0  0  0  0  0
  146.1516  143.1438  159.5029 C   0  0  0  0  0  0  0  0  0  0  0  0
  146.9575  143.2225  158.4311 N   0  5  0  0  0  0  0  0  0  0  0  0
  147.3211  142.0974  157.7744 C   0  0  0  0  0  0  0  0  0  0  0  0
  147.1523  140.9383  158.1602 O   0  0  0  0  0  0  0  0  0  0  0  0
  147.9190  142.3272  156.5982 N   0  0  0  0  0  0  0  0  0  0  0  0
  148.4056  141.2970  155.6899 C   0  0  0  0  0  0  0  0  0  0  0  0
  149.8706  141.5642  155.2940 C   0  0  1  0  0  0  0  0  0  0  0  0
  150.7888  141.7982  156.5171 C   0  0  0  0  0  0  0  0  0  0  0  0
  151.0707  140.5463  157.1947 N   0  0  0  0  0  0  0  0  0  0  0  0
  151.9950  140.5997  158.3030 C   0  0  0  0  0  0  0  0  0  0  0  0
  152.4002  139.1332  158.5314 C   0  0  0  0  0  0  0  0  0  0  0  0
  152.0667  138.4297  157.1973 C   0  0  0  0  0  0  0  0  0  0  0  0
  151.6569  139.5932  156.2923 C   0  0  1  0  0  0  0  0  0  0  0  0
  150.7016  139.2840  155.1319 C   0  0  0  0  0  0  0  0  0  0  0  0
  150.3936  140.5125  154.4656 O   0  0  0  0  0  0  0  0  0  0  0  0
  145.5218  144.5437  160.3712 S   0  0  0  0  0  0  0  0  0  0  0  0
  144.4310  143.7901  163.4905 H   0  0  0  0  0  0  0  0  0  0  0  0
  142.9906  143.1645  162.6668 H   0  0  0  0  0  0  0  0  0  0  0  0
  143.4951  144.8432  162.4152 H   0  0  0  0  0  0  0  0  0  0  0  0
  148.0362  143.2875  156.3097 H   0  0  0  0  0  0  0  0  0  0  0  0
  148.3313  140.3271  156.1839 H   0  0  0  0  0  0  0  0  0  0  0  0
  147.7617  141.2513  154.8110 H   0  0  0  0  0  0  0  0  0  0  0  0
  149.8836  142.4731  154.6912 H   0  0  0  0  0  0  0  0  0  0  0  0
  151.7235  142.2494  156.1810 H   0  0  0  0  0  0  0  0  0  0  0  0
  150.3315  142.5064  157.2087 H   0  0  0  0  0  0  0  0  0  0  0  0
  152.8730  141.1886  158.0329 H   0  0  0  0  0  0  0  0  0  0  0  0
  151.5409  141.0532  159.1844 H   0  0  0  0  0  0  0  0  0  0  0  0
  153.4578  139.0525  158.7840 H   0  0  0  0  0  0  0  0  0  0  0  0
  151.8257  138.6918  159.3465 H   0  0  0  0  0  0  0  0  0  0  0  0
  152.9113  137.8714  156.7927 H   0  0  0  0  0  0  0  0  0  0  0  0
  151.2356  137.7366  157.3357 H   0  0  0  0  0  0  0  0  0  0  0  0
  152.5690  140.0223  155.8718 H   0  0  0  0  0  0  0  0  0  0  0  0
  151.1680  138.6000  154.4229 H   0  0  0  0  0  0  0  0  0  0  0  0
  149.7892  138.8037  155.4867 H   0  0  0  0  0  0  0  0  0  0  0  0
  1  2  1  0  0  0  0
  1 21  1  0  0  0  0
  1 22  1  0  0  0  0
  1 23  1  0  0  0  0
  2 20  1  0  0  0  0
  2  3  2  0  0  0  0
  3  4  1  0  0  0  0
  4  5  2  0  0  0  0
  5  6  1  0  0  0  0
  5 20  1  0  0  0  0
  6  7  1  0  0  0  0
  7  8  2  0  0  0  0
  7  9  1  0  0  0  0
  9 10  1  0  0  0  0
  9 24  1  0  0  0  0
 10 11  1  0  0  0  0
 10 25  1  0  0  0  0
 10 26  1  0  0  0  0
 11 19  1  0  0  0  0
 11 12  1  0  0  0  0
 11 27  1  0  0  0  0
 12 13  1  0  0  0  0
 12 28  1  0  0  0  0
 12 29  1  0  0  0  0
 13 17  1  0  0  0  0
 13 14  1  0  0  0  0
 14 15  1  0  0  0  0
 14 30  1  0  0  0  0
 14 31  1  0  0  0  0
 15 16  1  0  0  0  0
 15 32  1  0  0  0  0
 15 33  1  0  0  0  0
 16 17  1  0  0  0  0
 16 34  1  0  0  0  0
 16 35  1  0  0  0  0
 17 18  1  0  0  0  0
 17 36  1  0  0  0  0
 18 19  1  0  0  0  0
 18 37  1  0  0  0  0
 18 38  1  0  0  0  0
M  CHG  1   6  -1
M  END
> <s_m_source_file>
AV-unprocessed.smi

> <i_m_source_file_index>
1809

> <i_lp_mmshare_version>
43012

> <i_f3d_flags>
0

> <s_epik_input>
W0NIM11jMW5uYyhzMSlbTkhdQyg9TylbTkhdW0NIMl1bQ0BIXShbQ0gyXTIpT1tDSDJdW0NAQEhdKE4yMylbQ0gyXVtDSDJdW0NIMl0z

> <s_epik_cmdline>
J2VwaWtfcHl0aG9uJywgJy1waCcsICc3LjAnLCAnLXRuJywgJzgnLCAnLW1hJywgJzIwMCcsICctbWV0YWxfYmluZGluZycsICctaW1hZScsICc8aW5maWxlLm1hZT4nLCAnLW9tYWUnLCAnPG91dGZpbGUubWFlPic=

> <r_lp_tautomer_probability>
1

> <r_epik_Ionization_Penalty>
4.48809

> <r_epik_Ionization_Penalty_Charging>
3.27284

> <r_epik_Ionization_Penalty_Neutral>
1.21525

> <r_epik_State_Penalty>
4.69427

> <r_epik_Charging_Adjusted_Penalty>
7.96711

> <i_epik_Tot_Q>
-1

> <i_epik_Tot_abs_Q>
1

> <r_epik_Metal_State_Penalty>
1.91976

> <b_epik_Metal_Only>
1

> <s_lp_Force_Field>
OPLS_2005

> <r_lp_Energy>
48.8238

> <b_lp_Chiralities_Consistent>
1

> <s_lp_Variant>
AV-unprocessed.smi:1809-22

> <Gold.Version>
5.8.1

> <Gold.Id.Protein>
6NUR|6NUR_protein|mol2

> <Gold.PLP.Fitness>
42.7798

> <Gold.PLP.PLP>
-34.1699

> <Gold.PLP.part.hbond>
-4.7902

> <Gold.PLP.part.metal>
0.0000

> <Gold.PLP.part.buried>
-5.8022

> <Gold.PLP.part.nonpolar>
-24.0360

> <Gold.PLP.part.repulsive>
0.2872

> <Gold.PLP.ligand.clash>
0.0000

> <Gold.PLP.ligand.torsion>
0.0888

> <Gold.PLP.Chemscore.Hbond>
2.9260

> <Gold.PLP.Chemscore.CHOScore>
0.0000

> <Gold.PLP.Chemscore.Metal>
0.0000

> <Gold.Chemscore.Hbonds>
donor molecule, donor type, donor heavy atom, donor atom, acceptor molecule, acceptor atom, score
      L1  H     9    24       P1  8028  1.00
      P1  H  6934  6946       L1     4  0.90
      P1  H  7989  7998       L1    19  0.96

> <Gold.PLP.Chemscore.Internal.Correction>
0.0095

> <Gold.Rescore>
     Score         DG    S(hbond)    S(metal)    S(lipo)     H(rot)  DE(clash)    DE(int)     intcor
     13.51     -15.34       1.61        0.00      66.90       1.31       0.01       1.82       ----

> <Gold.Chemscore.Fitness>
13.5109

> <Gold.Chemscore.DG>
-15.3367

> <Gold.Chemscore.ZeroCoef>
-5.4800

> <Gold.Chemscore.Hbond>
1.6080

> <Gold.Chemscore.Metal>
0.0000

> <Gold.Chemscore.Lipo>
66.8997

> <Gold.Chemscore.Internal_Hbond>
0.0000

> <Gold.Chemscore.DEClash>
0.0060

> <Gold.Chemscore.DEInternal>
1.8199

> <Gold.Chemscore.Rot>
1.3051

> <Gold.Chemscore.Internal.Correction>
   9.000000E+99

> <Gold.Chemscore.Hbonds>
donor molecule, donor type, donor heavy atom, donor atom, acceptor molecule, acceptor atom, score
      L1  H     9    24       P1  8028  0.25
      P1  H  6934  6946       L1     4  0.17
      P1  H  7989  7998       L1    19  0.60

> <Gold.Chemscore.Hbond.Weighted>
-5.3707

> <Gold.Chemscore.Metal.Weighted>
-0.0000

> <Gold.Chemscore.Lipo.Weighted>
-7.8273

> <Gold.Chemscore.Internal_Hbond.Weighted>
0.0000

> <Gold.Chemscore.DEClash.Weighted>
0.0060

> <Gold.Chemscore.DEInternal.Weighted>
1.8199

> <Gold.Chemscore.Rot.Weighted>
3.3412

> <Gold.Chemscore.Internal.Correction.Weighted>
   9.000000E+99

> <Gold.Protein.RotatedTorsions>
[ 6907 6896 6895 6894 ] final -162.48 input  -60.11 | X-H torsion
[ 7974 7965 7964 7962 ] final   55.36 input  175.53 | X-H torsion
[ 8008 7997 7996 7995 ] final  -52.17 input   59.86 | X-H torsion
[ 10167 10162 10161 10158 ] final  -24.11 input  -65.29 | X-H torsion
[ 10718 10713 10712 10709 ] final -115.04 input   66.30 | X-H torsion
[ 10763 10752 10751 10750 ] final  137.25 input  -60.55 | X-H torsion
[ 11005 11000 10999 10996 ] final  -22.64 input  -57.11 | X-H torsion

> <Gold.Protein.ActiveResidues>
 VAL166  LYS551  ARG553  GLY616  TRP617  ASP618  TYR619  PRO620  LYS621  CYS622 
 ASP623  PHE694  ASN695  SER759  ASP760  ASP761  ALA762  ILE779  LEU786  VAL792 
 PHE793  MET794  SER795  GLU796  ALA797  LYS798  CYS799  TRP800  GLU811  SER814 

> <Gold.Protein.RotatedAtoms>
  151.3810  133.3821  159.2709 H   0  0  0  0  0  0  0  0  0  0  0  0  # atno 6907 bound_to 6896
  150.9577  134.8970  159.7722 H   0  0  0  0  0  0  0  0  0  0  0  0  # atno 6908 bound_to 6896
  152.5137  134.3768  159.9389 H   0  0  0  0  0  0  0  0  0  0  0  0  # atno 6909 bound_to 6896
  145.9512  139.3973  143.0305 H   0  0  0  0  0  0  0  0  0  0  0  0  # atno 7974 bound_to 7965
  154.4100  140.1230  156.4947 H   0  0  0  0  0  0  0  0  0  0  0  0  # atno 8008 bound_to 7997
  155.6954  140.3495  155.4891 H   0  0  0  0  0  0  0  0  0  0  0  0  # atno 8009 bound_to 7997
  155.9432  140.1091  157.1029 H   0  0  0  0  0  0  0  0  0  0  0  0  # atno 8010 bound_to 7997
  140.7288  143.4382  151.0697 H   0  0  0  0  0  0  0  0  0  0  0  0  # atno 10167 bound_to 10162
  156.0869  130.6059  150.8854 H   0  0  0  0  0  0  0  0  0  0  0  0  # atno 10718 bound_to 10713
  153.8700  135.3057  155.3441 H   0  0  0  0  0  0  0  0  0  0  0  0  # atno 10763 bound_to 10752
  154.7810  135.4835  153.9848 H   0  0  0  0  0  0  0  0  0  0  0  0  # atno 10764 bound_to 10752
  153.1412  135.6824  153.9120 H   0  0  0  0  0  0  0  0  0  0  0  0  # atno 10765 bound_to 10752
  140.8676  133.7743  156.0148 H   0  0  0  0  0  0  0  0  0  0  0  0  # atno 11005 bound_to 11000
  145.8169  140.9698  143.0919 LP  0  0  0  0  0  0  0  0  0  0  0  0  # atno 17320 bound_to 7965
  144.6796  139.9992  143.7484 LP  0  0  0  0  0  0  0  0  0  0  0  0  # atno 17321 bound_to 7965
  139.8046  143.8035  152.3166 LP  0  0  0  0  0  0  0  0  0  0  0  0  # atno 17342 bound_to 10162
  139.8064  144.7353  150.9756 LP  0  0  0  0  0  0  0  0  0  0  0  0  # atno 17343 bound_to 10162
  157.6007  131.0941  150.8965 LP  0  0  0  0  0  0  0  0  0  0  0  0  # atno 17370 bound_to 10713
  156.9123  130.5285  149.5280 LP  0  0  0  0  0  0  0  0  0  0  0  0  # atno 17371 bound_to 10713
  140.8611  134.2840  157.5234 LP  0  0  0  0  0  0  0  0  0  0  0  0  # atno 17394 bound_to 11000
  139.8710  134.9518  156.4097 LP  0  0  0  0  0  0  0  0  0  0  0  0  # atno 17395 bound_to 11000

$$$$
