AV-unprocessed.smi:247|AV-procd|sdf|1895|dock10
  -GOLD-   2262020563D 1   1.00000     0.00000
 Structure written by MMmdl.
 61 65  0  0  0  0  0  0  0  0  1 V2000
  144.3730  137.9066  161.8450 O   0  0  0  0  0  0  0  0  0  0  0  0
  145.0225  137.3310  160.7282 C   0  0  0  0  0  0  0  0  0  0  0  0
  146.0647  136.2436  161.1116 C   0  0  0  0  0  0  0  0  0  0  0  0
  146.7197  135.6998  159.8023 C   0  0  0  0  0  0  0  0  0  0  0  0
  147.3683  136.7032  158.9693 N   0  0  0  0  0  0  0  0  0  0  0  0
  146.7772  137.4654  157.9866 C   0  0  0  0  0  0  0  0  0  0  0  0
  147.5680  138.3102  157.3844 N   0  0  0  0  0  0  0  0  0  0  0  0
  148.7951  138.1366  158.0136 C   0  0  0  0  0  0  0  0  0  0  0  0
  150.0803  138.7313  157.8616 C   0  0  0  0  0  0  0  0  0  0  0  0
  150.3331  139.7119  156.9551 N   0  0  0  0  0  0  0  0  0  0  0  0
  150.1564  139.3606  155.5494 C   0  0  0  0  0  0  0  0  0  0  0  0
  149.5701  140.5983  154.8645 C   0  0  0  0  0  0  0  0  0  0  0  0
  149.9748  141.7449  155.7844 C   0  0  0  0  0  0  0  0  0  0  0  0
  149.9074  141.0956  157.1730 C   0  0  2  0  0  0  0  0  0  0  0  0
  150.6927  141.8270  158.2994 C   0  0  1  0  0  0  0  0  0  0  0  0
  152.1512  141.3330  158.4534 C   0  0  0  0  0  0  0  0  0  0  0  0
  152.7892  141.9964  159.5394 O   0  0  0  0  0  0  0  0  0  0  0  0
  152.8981  143.4015  159.3439 C   0  0  0  0  0  0  0  0  0  0  0  0
  151.4950  144.0188  159.2600 C   0  0  0  0  0  0  0  0  0  0  0  0
  150.6873  143.3619  158.1320 C   0  0  2  0  0  0  0  0  0  0  0  0
  149.3671  143.8670  158.1683 O   0  0  0  0  0  0  0  0  0  0  0  0
  151.0722  138.2842  158.6770 N   0  0  0  0  0  0  0  0  0  0  0  0
  150.8292  137.3307  159.5805 C   0  0  0  0  0  0  0  0  0  0  0  0
  149.6844  136.6946  159.8344 N   0  0  0  0  0  0  0  0  0  0  0  0
  148.6849  137.1303  159.0152 C   0  0  0  0  0  0  0  0  0  0  0  0
  147.1154  136.8418  162.0829 C   0  0  0  0  0  0  0  0  0  0  0  0
  148.0375  135.7648  162.6821 C   0  0  0  0  0  0  0  0  0  0  0  0
  147.2592  134.7801  163.3511 O   0  0  0  0  0  0  0  0  0  0  0  0
  146.3705  134.0866  162.4832 C   0  0  0  0  0  0  0  0  0  0  0  0
  145.3682  135.0712  161.8503 C   0  0  0  0  0  0  0  0  0  0  0  0
  144.9143  138.6045  162.1810 H   0  0  0  0  0  0  0  0  0  0  0  0
  144.2576  136.9087  160.0755 H   0  0  0  0  0  0  0  0  0  0  0  0
  145.4955  138.1436  160.1770 H   0  0  0  0  0  0  0  0  0  0  0  0
  147.4647  134.9360  160.0181 H   0  0  0  0  0  0  0  0  0  0  0  0
  145.9652  135.1988  159.1941 H   0  0  0  0  0  0  0  0  0  0  0  0
  145.7337  137.3718  157.7241 H   0  0  0  0  0  0  0  0  0  0  0  0
  151.1328  139.1208  155.1272 H   0  0  0  0  0  0  0  0  0  0  0  0
  149.5076  138.4942  155.4117 H   0  0  0  0  0  0  0  0  0  0  0  0
  149.9252  140.7253  153.8415 H   0  0  0  0  0  0  0  0  0  0  0  0
  148.4825  140.5203  154.8357 H   0  0  0  0  0  0  0  0  0  0  0  0
  150.9875  142.0609  155.5378 H   0  0  0  0  0  0  0  0  0  0  0  0
  149.3184  142.6102  155.6892 H   0  0  0  0  0  0  0  0  0  0  0  0
  148.8536  141.0639  157.4545 H   0  0  0  0  0  0  0  0  0  0  0  0
  150.1957  141.6117  159.2455 H   0  0  0  0  0  0  0  0  0  0  0  0
  152.1713  140.2622  158.6566 H   0  0  0  0  0  0  0  0  0  0  0  0
  152.7321  141.4931  157.5452 H   0  0  0  0  0  0  0  0  0  0  0  0
  153.4482  143.8324  160.1806 H   0  0  0  0  0  0  0  0  0  0  0  0
  153.4730  143.6132  158.4410 H   0  0  0  0  0  0  0  0  0  0  0  0
  150.9857  143.8791  160.2148 H   0  0  0  0  0  0  0  0  0  0  0  0
  151.5683  145.0949  159.0983 H   0  0  0  0  0  0  0  0  0  0  0  0
  151.1313  143.6336  157.1735 H   0  0  0  0  0  0  0  0  0  0  0  0
  149.2259  144.3961  157.3981 H   0  0  0  0  0  0  0  0  0  0  0  0
  151.6726  137.0365  160.1874 H   0  0  0  0  0  0  0  0  0  0  0  0
  147.7045  137.6194  161.5983 H   0  0  0  0  0  0  0  0  0  0  0  0
  146.6110  137.3373  162.9130 H   0  0  0  0  0  0  0  0  0  0  0  0
  148.6622  135.2989  161.9197 H   0  0  0  0  0  0  0  0  0  0  0  0
  148.7159  136.2194  163.4041 H   0  0  0  0  0  0  0  0  0  0  0  0
  146.9337  133.5387  161.7277 H   0  0  0  0  0  0  0  0  0  0  0  0
  145.8328  133.3389  163.0664 H   0  0  0  0  0  0  0  0  0  0  0  0
  144.7400  135.4531  162.6553 H   0  0  0  0  0  0  0  0  0  0  0  0
  144.6976  134.5392  161.1747 H   0  0  0  0  0  0  0  0  0  0  0  0
  1  2  1  0  0  0  0
  1 31  1  0  0  0  0
  2  3  1  0  0  0  0
  2 32  1  0  0  0  0
  2 33  1  0  0  0  0
  3 30  1  0  0  0  0
  3  4  1  0  0  0  0
  3 26  1  0  0  0  0
  4  5  1  0  0  0  0
  4 34  1  0  0  0  0
  4 35  1  0  0  0  0
  5 25  1  0  0  0  0
  5  6  1  0  0  0  0
  6  7  2  0  0  0  0
  6 36  1  0  0  0  0
  7  8  1  0  0  0  0
  8 25  2  0  0  0  0
  8  9  1  0  0  0  0
  9 10  1  0  0  0  0
  9 22  2  0  0  0  0
 10 14  1  0  0  0  0
 10 11  1  0  0  0  0
 11 12  1  0  0  0  0
 11 37  1  0  0  0  0
 11 38  1  0  0  0  0
 12 13  1  0  0  0  0
 12 39  1  0  0  0  0
 12 40  1  0  0  0  0
 13 14  1  0  0  0  0
 13 41  1  0  0  0  0
 13 42  1  0  0  0  0
 14 15  1  0  0  0  0
 14 43  1  0  0  0  0
 15 20  1  0  0  0  0
 15 16  1  0  0  0  0
 15 44  1  0  0  0  0
 16 17  1  0  0  0  0
 16 45  1  0  0  0  0
 16 46  1  0  0  0  0
 17 18  1  0  0  0  0
 18 19  1  0  0  0  0
 18 47  1  0  0  0  0
 18 48  1  0  0  0  0
 19 20  1  0  0  0  0
 19 49  1  0  0  0  0
 19 50  1  0  0  0  0
 20 21  1  0  0  0  0
 20 51  1  0  0  0  0
 21 52  1  0  0  0  0
 22 23  1  0  0  0  0
 23 24  2  0  0  0  0
 23 53  1  0  0  0  0
 24 25  1  0  0  0  0
 26 27  1  0  0  0  0
 26 54  1  0  0  0  0
 26 55  1  0  0  0  0
 27 28  1  0  0  0  0
 27 56  1  0  0  0  0
 27 57  1  0  0  0  0
 28 29  1  0  0  0  0
 29 30  1  0  0  0  0
 29 58  1  0  0  0  0
 29 59  1  0  0  0  0
 30 60  1  0  0  0  0
 30 61  1  0  0  0  0
M  END
> <s_m_source_file>
AV-unprocessed.smi

> <i_m_source_file_index>
247

> <i_lp_mmshare_version>
43012

> <i_f3d_flags>
0

> <s_epik_input>
W0NIMl0xW0NIMl1PW0NIMl1bQ0gyXUMxKFtDSDJdW09IXSlbQ0gyXW4oW2NIXW4yKWMoYzIzKW5bY0hdbmMzTjRbQ0gyXVtDSDJdW0NIMl1bQ0BIXTRbQ0BASF01W0NIMl1PW0NIMl1bQ0gyXVtDQEhdNVtPSF0=

> <s_epik_cmdline>
J2VwaWtfcHl0aG9uJywgJy1waCcsICc3LjAnLCAnLXRuJywgJzgnLCAnLW1hJywgJzIwMCcsICctbWV0YWxfYmluZGluZycsICctaW1hZScsICc8aW5maWxlLm1hZT4nLCAnLW9tYWUnLCAnPG91dGZpbGUubWFlPic=

> <r_lp_tautomer_probability>
1

> <r_epik_Ionization_Penalty>
0.00362597

> <r_epik_Ionization_Penalty_Charging>
0

> <r_epik_Ionization_Penalty_Neutral>
0.00362597

> <r_epik_State_Penalty>
0.00241433

> <r_epik_Charging_Adjusted_Penalty>
0.00241433

> <i_epik_Tot_Q>
0

> <i_epik_Tot_abs_Q>
0

> <r_epik_Metal_State_Penalty>
-0

> <b_epik_Metal_Only>
0

> <s_lp_Force_Field>
OPLS_2005

> <r_lp_Energy>
58.878

> <b_lp_Chiralities_Consistent>
1

> <s_lp_Variant>
AV-unprocessed.smi:247-8

> <Gold.Version>
5.8.1

> <Gold.Id.Protein>
6NUR|6NUR_protein|mol2

> <Gold.PLP.Fitness>
45.4546

> <Gold.PLP.PLP>
-44.4197

> <Gold.PLP.part.hbond>
-4.4287

> <Gold.PLP.part.metal>
0.0000

> <Gold.PLP.part.buried>
-5.0298

> <Gold.PLP.part.nonpolar>
-35.4807

> <Gold.PLP.part.repulsive>
0.0027

> <Gold.PLP.ligand.clash>
0.0000

> <Gold.PLP.ligand.torsion>
1.2627

> <Gold.PLP.Chemscore.Hbond>
1.0471

> <Gold.PLP.Chemscore.CHOScore>
0.0000

> <Gold.PLP.Chemscore.Metal>
0.0000

> <Gold.Chemscore.Hbonds>
donor molecule, donor type, donor heavy atom, donor atom, acceptor molecule, acceptor atom, score
      L1  H    21    52       P1  8028  0.45
      P1  H  6896  6907       L1    24  0.11

> <Gold.PLP.Chemscore.Internal.Correction>
0.4190

> <Gold.Rescore>
     Score         DG    S(hbond)    S(metal)    S(lipo)     H(rot)  DE(clash)    DE(int)     intcor
     11.77     -13.41       0.78        0.00     116.25       3.23       0.42       1.21       ----

> <Gold.Chemscore.Fitness>
11.7736

> <Gold.Chemscore.DG>
-13.4087

> <Gold.Chemscore.ZeroCoef>
-5.4800

> <Gold.Chemscore.Hbond>
0.7756

> <Gold.Chemscore.Metal>
0.0000

> <Gold.Chemscore.Lipo>
116.2522

> <Gold.Chemscore.Internal_Hbond>
0.0000

> <Gold.Chemscore.DEClash>
0.4204

> <Gold.Chemscore.DEInternal>
1.2147

> <Gold.Chemscore.Rot>
3.2278

> <Gold.Chemscore.Internal.Correction>
   9.000000E+99

> <Gold.Chemscore.Hbonds>
donor molecule, donor type, donor heavy atom, donor atom, acceptor molecule, acceptor atom, score
      L1  H    21    52       P1  8028  0.02

> <Gold.Chemscore.Hbond.Weighted>
-2.5905

> <Gold.Chemscore.Metal.Weighted>
-0.0000

> <Gold.Chemscore.Lipo.Weighted>
-13.6015

> <Gold.Chemscore.Internal_Hbond.Weighted>
0.0000

> <Gold.Chemscore.DEClash.Weighted>
0.4204

> <Gold.Chemscore.DEInternal.Weighted>
1.2147

> <Gold.Chemscore.Rot.Weighted>
8.2633

> <Gold.Chemscore.Internal.Correction.Weighted>
   9.000000E+99

> <Gold.Protein.RotatedTorsions>
[ 6907 6896 6895 6894 ] final  -41.49 input  -60.11 | X-H torsion
[ 7974 7965 7964 7962 ] final -157.56 input  175.53 | X-H torsion
[ 8008 7997 7996 7995 ] final -153.99 input   59.86 | X-H torsion
[ 10167 10162 10161 10158 ] final -167.59 input  -65.29 | X-H torsion
[ 10718 10713 10712 10709 ] final -111.24 input   66.30 | X-H torsion
[ 10763 10752 10751 10750 ] final   98.98 input  -60.55 | X-H torsion
[ 11005 11000 10999 10996 ] final -106.83 input  -57.11 | X-H torsion

> <Gold.Protein.ActiveResidues>
 VAL166  LYS551  ARG553  GLY616  TRP617  ASP618  TYR619  PRO620  LYS621  CYS622 
 ASP623  PHE694  ASN695  SER759  ASP760  ASP761  ALA762  ILE779  LEU786  VAL792 
 PHE793  MET794  SER795  GLU796  ALA797  LYS798  CYS799  TRP800  GLU811  SER814 

> <Gold.Protein.RotatedAtoms>
  150.9662  134.9042  159.7759 H   0  0  0  0  0  0  0  0  0  0  0  0  # atno 6907 bound_to 6896
  152.5174  134.3604  159.9293 H   0  0  0  0  0  0  0  0  0  0  0  0  # atno 6908 bound_to 6896
  151.3615  133.3847  159.2725 H   0  0  0  0  0  0  0  0  0  0  0  0  # atno 6909 bound_to 6896
  144.7543  140.3952  143.6024 H   0  0  0  0  0  0  0  0  0  0  0  0  # atno 7974 bound_to 7965
  155.6794  140.0742  157.2490 H   0  0  0  0  0  0  0  0  0  0  0  0  # atno 8008 bound_to 7997
  154.4108  140.1684  156.2018 H   0  0  0  0  0  0  0  0  0  0  0  0  # atno 8009 bound_to 7997
  155.9548  140.3374  155.6442 H   0  0  0  0  0  0  0  0  0  0  0  0  # atno 8010 bound_to 7997
  139.6040  144.0952  152.1773 H   0  0  0  0  0  0  0  0  0  0  0  0  # atno 10167 bound_to 10162
  156.0636  130.5857  150.8347 H   0  0  0  0  0  0  0  0  0  0  0  0  # atno 10718 bound_to 10713
  153.2958  135.4129  155.1208 H   0  0  0  0  0  0  0  0  0  0  0  0  # atno 10763 bound_to 10752
  154.8534  135.3529  154.5919 H   0  0  0  0  0  0  0  0  0  0  0  0  # atno 10764 bound_to 10752
  153.6343  135.7059  153.5322 H   0  0  0  0  0  0  0  0  0  0  0  0  # atno 10765 bound_to 10752
  141.0985  133.8927  157.1902 H   0  0  0  0  0  0  0  0  0  0  0  0  # atno 11005 bound_to 11000
  145.6833  139.1623  143.2688 LP  0  0  0  0  0  0  0  0  0  0  0  0  # atno 17320 bound_to 7965
  146.1534  140.6893  142.9311 LP  0  0  0  0  0  0  0  0  0  0  0  0  # atno 17321 bound_to 7965
  140.0555  144.5898  150.7303 LP  0  0  0  0  0  0  0  0  0  0  0  0  # atno 17342 bound_to 10162
  140.7271  143.2647  151.4083 LP  0  0  0  0  0  0  0  0  0  0  0  0  # atno 17343 bound_to 10162
  157.5662  131.0946  150.9486 LP  0  0  0  0  0  0  0  0  0  0  0  0  # atno 17370 bound_to 10713
  156.9712  130.5492  149.5290 LP  0  0  0  0  0  0  0  0  0  0  0  0  # atno 17371 bound_to 10713
  139.9829  135.0092  156.9792 LP  0  0  0  0  0  0  0  0  0  0  0  0  # atno 17394 bound_to 11000
  140.5081  134.1030  155.7264 LP  0  0  0  0  0  0  0  0  0  0  0  0  # atno 17395 bound_to 11000

$$$$
