AV-unprocessed.smi:498|AV-procd|sdf|2730|dock7
  -GOLD-   2262023183D 1   1.00000     0.00000
 Structure written by MMmdl.
 41 43  0  0  0  0  0  0  0  0  2 V2000
  151.4866  138.1865  154.3124 C   0  0  0  0  0  0  0  0  0  0  0  0
  151.9529  139.2210  155.3386 C   0  0  0  0  0  0  0  0  0  0  0  0
  151.2007  140.4080  155.1611 O   0  0  0  0  0  0  0  0  0  0  0  0
  149.8063  140.2046  155.3208 C   0  0  0  0  0  0  0  0  0  0  0  0
  149.3466  140.7726  156.6729 C   0  0  0  0  0  0  0  0  0  0  0  0
  150.3209  140.5370  157.7438 N   0  0  0  0  0  0  0  0  0  0  0  0
  150.6842  139.3787  158.3775 C   0  0  0  0  0  0  0  0  0  0  0  0
  150.1001  138.0179  158.0767 C   0  0  0  0  0  0  0  0  0  0  0  0
  149.2535  137.5474  159.1693 N   0  5  0  0  0  0  0  0  0  0  0  0
  148.8509  136.2564  159.3234 C   0  0  0  0  0  0  0  0  0  0  0  0
  149.0676  135.2690  158.6128 O   0  0  0  0  0  0  0  0  0  0  0  0
  148.0642  136.0696  160.5635 C   0  0  0  0  0  0  0  0  0  0  0  0
  147.6310  134.9402  161.2113 C   0  0  0  0  0  0  0  0  0  0  0  0
  146.9475  135.3738  162.3806 C   0  0  0  0  0  0  0  0  0  0  0  0
  147.0187  136.7367  162.3715 C   0  0  0  0  0  0  0  0  0  0  0  0
  147.7018  137.1747  161.2793 O   0  0  0  0  0  0  0  0  0  0  0  0
  151.6175  139.5156  159.3233 N   0  0  0  0  0  0  0  0  0  0  0  0
  151.8792  140.8698  159.3144 C   0  0  0  0  0  0  0  0  0  0  0  0
  152.7747  141.6351  160.0954 C   0  0  0  0  0  0  0  0  0  0  0  0
  152.8724  143.0293  159.9089 C   0  0  0  0  0  0  0  0  0  0  0  0
  152.0777  143.6759  158.9408 C   0  0  0  0  0  0  0  0  0  0  0  0
  151.1810  142.9306  158.1516 C   0  0  0  0  0  0  0  0  0  0  0  0
  151.0871  141.5378  158.3404 C   0  0  0  0  0  0  0  0  0  0  0  0
  152.0387  137.2531  154.4214 H   0  0  0  0  0  0  0  0  0  0  0  0
  151.6380  138.5492  153.2957 H   0  0  0  0  0  0  0  0  0  0  0  0
  150.4261  137.9657  154.4350 H   0  0  0  0  0  0  0  0  0  0  0  0
  151.8102  138.8326  156.3478 H   0  0  0  0  0  0  0  0  0  0  0  0
  153.0166  139.4251  155.2087 H   0  0  0  0  0  0  0  0  0  0  0  0
  149.2648  140.6862  154.5073 H   0  0  0  0  0  0  0  0  0  0  0  0
  149.5789  139.1392  155.2693 H   0  0  0  0  0  0  0  0  0  0  0  0
  149.1289  141.8370  156.5868 H   0  0  0  0  0  0  0  0  0  0  0  0
  148.4041  140.3061  156.9602 H   0  0  0  0  0  0  0  0  0  0  0  0
  149.5595  138.0917  157.1322 H   0  0  0  0  0  0  0  0  0  0  0  0
  150.9188  137.3235  157.8835 H   0  0  0  0  0  0  0  0  0  0  0  0
  147.7889  133.9236  160.8822 H   0  0  0  0  0  0  0  0  0  0  0  0
  146.4686  134.7656  163.1334 H   0  0  0  0  0  0  0  0  0  0  0  0
  146.6601  137.5118  163.0324 H   0  0  0  0  0  0  0  0  0  0  0  0
  153.3855  141.1473  160.8403 H   0  0  0  0  0  0  0  0  0  0  0  0
  153.5589  143.6050  160.5121 H   0  0  0  0  0  0  0  0  0  0  0  0
  152.1558  144.7446  158.8049 H   0  0  0  0  0  0  0  0  0  0  0  0
  150.5677  143.4243  157.4126 H   0  0  0  0  0  0  0  0  0  0  0  0
  1  2  1  0  0  0  0
  1 24  1  0  0  0  0
  1 25  1  0  0  0  0
  1 26  1  0  0  0  0
  2  3  1  0  0  0  0
  2 27  1  0  0  0  0
  2 28  1  0  0  0  0
  3  4  1  0  0  0  0
  4  5  1  0  0  0  0
  4 29  1  0  0  0  0
  4 30  1  0  0  0  0
  5  6  1  0  0  0  0
  5 31  1  0  0  0  0
  5 32  1  0  0  0  0
  6 23  1  0  0  0  0
  6  7  1  0  0  0  0
  7  8  1  0  0  0  0
  7 17  2  0  0  0  0
  8  9  1  0  0  0  0
  8 33  1  0  0  0  0
  8 34  1  0  0  0  0
  9 10  1  0  0  0  0
 10 11  2  0  0  0  0
 10 12  1  0  0  0  0
 12 16  1  0  0  0  0
 12 13  2  0  0  0  0
 13 14  1  0  0  0  0
 13 35  1  0  0  0  0
 14 15  2  0  0  0  0
 14 36  1  0  0  0  0
 15 16  1  0  0  0  0
 15 37  1  0  0  0  0
 17 18  1  0  0  0  0
 18 23  2  0  0  0  0
 18 19  1  0  0  0  0
 19 20  2  0  0  0  0
 19 38  1  0  0  0  0
 20 21  1  0  0  0  0
 20 39  1  0  0  0  0
 21 22  2  0  0  0  0
 21 40  1  0  0  0  0
 22 23  1  0  0  0  0
 22 41  1  0  0  0  0
M  CHG  1   9  -1
M  END
> <s_m_source_file>
AV-unprocessed.smi

> <i_m_source_file_index>
498

> <i_lp_mmshare_version>
43012

> <i_f3d_flags>
0

> <s_epik_input>
W0NIM11bQ0gyXU9bQ0gyXVtDSDJdbihjKGMxMilbY0hdW2NIXVtjSF1bY0hdMiljKG4xKVtDSDJdW05IXUMoPU8pYzNbY0hdW2NIXVtjSF1vMw==

> <s_epik_cmdline>
J2VwaWtfcHl0aG9uJywgJy1waCcsICc3LjAnLCAnLXRuJywgJzgnLCAnLW1hJywgJzIwMCcsICctbWV0YWxfYmluZGluZycsICctaW1hZScsICc8aW5maWxlLm1hZT4nLCAnLW9tYWUnLCAnPG91dGZpbGUubWFlPic=

> <r_epik_Ionization_Penalty>
7.14443

> <r_epik_Ionization_Penalty_Charging>
6.27046

> <r_epik_Ionization_Penalty_Neutral>
0.873973

> <r_epik_State_Penalty>
6.33192

> <r_epik_Charging_Adjusted_Penalty>
12.6024

> <i_epik_Tot_Q>
-1

> <i_epik_Tot_abs_Q>
1

> <r_epik_Metal_State_Penalty>
2.32923

> <b_epik_Metal_Only>
1

> <s_lp_Force_Field>
OPLS_2005

> <r_lp_Energy>
15.7295

> <b_lp_Chiralities_Consistent>
1

> <s_lp_Variant>
AV-unprocessed.smi:498-3

> <Gold.Version>
5.8.1

> <Gold.Id.Protein>
6NUR|6NUR_protein|mol2

> <Gold.PLP.Fitness>
59.8337

> <Gold.PLP.PLP>
-49.9852

> <Gold.PLP.part.hbond>
-4.7106

> <Gold.PLP.part.metal>
0.0000

> <Gold.PLP.part.buried>
-6.2326

> <Gold.PLP.part.nonpolar>
-39.8827

> <Gold.PLP.part.repulsive>
0.0325

> <Gold.PLP.ligand.clash>
0.0000

> <Gold.PLP.ligand.torsion>
0.7585

> <Gold.PLP.Chemscore.Hbond>
3.7360

> <Gold.PLP.Chemscore.CHOScore>
0.0000

> <Gold.PLP.Chemscore.Metal>
0.0000

> <Gold.Chemscore.Hbonds>
donor molecule, donor type, donor heavy atom, donor atom, acceptor molecule, acceptor atom, score
      P1  H  6896  6907       L1    11  0.95
      P1  H  6931  6943       L1    16  0.98
      P1  H  6934  6947       L1    16  0.83
      P1  H  7989  7998       L1     3  1.00

> <Gold.PLP.Chemscore.Internal.Correction>
0.1576

> <Gold.Rescore>
     Score         DG    S(hbond)    S(metal)    S(lipo)     H(rot)  DE(clash)    DE(int)     intcor
     23.39     -24.32       2.91        0.00     119.40       1.90       0.37       0.56       ----

> <Gold.Chemscore.Fitness>
23.3915

> <Gold.Chemscore.DG>
-24.3162

> <Gold.Chemscore.ZeroCoef>
-5.4800

> <Gold.Chemscore.Hbond>
2.9128

> <Gold.Chemscore.Metal>
0.0000

> <Gold.Chemscore.Lipo>
119.3977

> <Gold.Chemscore.Internal_Hbond>
0.0000

> <Gold.Chemscore.DEClash>
0.3673

> <Gold.Chemscore.DEInternal>
0.5574

> <Gold.Chemscore.Rot>
1.8992

> <Gold.Chemscore.Internal.Correction>
   9.000000E+99

> <Gold.Chemscore.Hbonds>
donor molecule, donor type, donor heavy atom, donor atom, acceptor molecule, acceptor atom, score
      P1  H  6896  6907       L1    11  0.21
      P1  H  6931  6943       L1    16  0.49
      P1  H  6934  6947       L1    16  0.54
      P1  H  7989  7998       L1     3  0.28

> <Gold.Chemscore.Hbond.Weighted>
-9.7288

> <Gold.Chemscore.Metal.Weighted>
-0.0000

> <Gold.Chemscore.Lipo.Weighted>
-13.9695

> <Gold.Chemscore.Internal_Hbond.Weighted>
0.0000

> <Gold.Chemscore.DEClash.Weighted>
0.3673

> <Gold.Chemscore.DEInternal.Weighted>
0.5574

> <Gold.Chemscore.Rot.Weighted>
4.8621

> <Gold.Chemscore.Internal.Correction.Weighted>
   9.000000E+99

> <Gold.Protein.RotatedTorsions>
[ 6907 6896 6895 6894 ] final  -70.47 input  -60.11 | X-H torsion
[ 7974 7965 7964 7962 ] final -169.27 input  175.53 | X-H torsion
[ 8008 7997 7996 7995 ] final -100.01 input   59.86 | X-H torsion
[ 10167 10162 10161 10158 ] final   48.19 input  -65.29 | X-H torsion
[ 10718 10713 10712 10709 ] final  -11.83 input   66.30 | X-H torsion
[ 10763 10752 10751 10750 ] final   95.30 input  -60.55 | X-H torsion
[ 11005 11000 10999 10996 ] final  102.93 input  -57.11 | X-H torsion

> <Gold.Protein.ActiveResidues>
 VAL166  LYS551  ARG553  GLY616  TRP617  ASP618  TYR619  PRO620  LYS621  CYS622 
 ASP623  PHE694  ASN695  SER759  ASP760  ASP761  ALA762  ILE779  LEU786  VAL792 
 PHE793  MET794  SER795  GLU796  ALA797  LYS798  CYS799  TRP800  GLU811  SER814 

> <Gold.Protein.RotatedAtoms>
  150.7256  134.5448  159.5764 H   0  0  0  0  0  0  0  0  0  0  0  0  # atno 6907 bound_to 6896
  152.2949  134.7675  160.0379 H   0  0  0  0  0  0  0  0  0  0  0  0  # atno 6908 bound_to 6896
  151.8276  133.3368  159.3640 H   0  0  0  0  0  0  0  0  0  0  0  0  # atno 6909 bound_to 6896
  144.7188  140.2246  143.6312 H   0  0  0  0  0  0  0  0  0  0  0  0  # atno 7974 bound_to 7965
  154.8228  140.0444  157.1422 H   0  0  0  0  0  0  0  0  0  0  0  0  # atno 8008 bound_to 7997
  154.9240  140.3031  155.5181 H   0  0  0  0  0  0  0  0  0  0  0  0  # atno 8009 bound_to 7997
  156.2981  140.2335  156.4293 H   0  0  0  0  0  0  0  0  0  0  0  0  # atno 8010 bound_to 7997
  140.2959  144.2991  150.6230 H   0  0  0  0  0  0  0  0  0  0  0  0  # atno 10167 bound_to 10162
  156.6533  130.4961  149.6054 H   0  0  0  0  0  0  0  0  0  0  0  0  # atno 10718 bound_to 10713
  153.2516  135.4259  155.0803 H   0  0  0  0  0  0  0  0  0  0  0  0  # atno 10763 bound_to 10752
  154.8384  135.3427  154.6505 H   0  0  0  0  0  0  0  0  0  0  0  0  # atno 10764 bound_to 10752
  153.6926  135.7033  153.5142 H   0  0  0  0  0  0  0  0  0  0  0  0  # atno 10765 bound_to 10752
  139.8780  134.9243  156.5133 H   0  0  0  0  0  0  0  0  0  0  0  0  # atno 11005 bound_to 11000
  145.8468  139.2156  143.1795 LP  0  0  0  0  0  0  0  0  0  0  0  0  # atno 17320 bound_to 7965
  146.0297  140.8270  142.9882 LP  0  0  0  0  0  0  0  0  0  0  0  0  # atno 17321 bound_to 7965
  140.5693  143.2182  151.7628 LP  0  0  0  0  0  0  0  0  0  0  0  0  # atno 17342 bound_to 10162
  139.4926  144.4240  151.9947 LP  0  0  0  0  0  0  0  0  0  0  0  0  # atno 17343 bound_to 10162
  156.2067  130.6653  151.1226 LP  0  0  0  0  0  0  0  0  0  0  0  0  # atno 17370 bound_to 10713
  157.7133  131.0723  150.6419 LP  0  0  0  0  0  0  0  0  0  0  0  0  # atno 17371 bound_to 10713
  140.8504  133.8136  155.9163 LP  0  0  0  0  0  0  0  0  0  0  0  0  # atno 17394 bound_to 11000
  140.9150  134.2213  157.4962 LP  0  0  0  0  0  0  0  0  0  0  0  0  # atno 17395 bound_to 11000

$$$$
