AV-unprocessed.smi:2947|AV-procd|sdf|11282|dock3
  -GOLD-   2272016173D 1   1.00000     0.00000
 Structure written by MMmdl.
 33 34  0  0  0  0  0  0  0  0  1 V2000
  148.2203  144.1445  161.4207 O   0  0  0  0  0  0  0  0  0  0  0  0
  148.0682  144.6458  160.3062 C   0  0  0  0  0  0  0  0  0  0  0  0
  149.0321  144.7901  159.3797 N   0  0  0  0  0  0  0  0  0  0  0  0
  150.3996  144.4159  159.4691 C   0  0  0  0  0  0  0  0  0  0  0  0
  151.1734  144.6984  158.3208 C   0  0  0  0  0  0  0  0  0  0  0  0
  152.5421  144.3664  158.3084 C   0  0  0  0  0  0  0  0  0  0  0  0
  153.1029  143.7597  159.4466 C   0  0  0  0  0  0  0  0  0  0  0  0
  152.2627  143.5126  160.5478 C   0  0  0  0  0  0  0  0  0  0  0  0
  150.9507  143.8298  160.5617 N   0  0  0  0  0  0  0  0  0  0  0  0
  146.8951  145.1215  159.8630 N   0  0  0  0  0  0  0  0  0  0  0  0
  145.6454  145.1221  160.6181 C   0  0  0  0  0  0  0  0  0  0  0  0
  145.4891  143.8092  161.4136 C   0  0  0  0  0  0  0  0  0  0  0  0
  144.1424  143.7567  162.1531 C   0  0  0  0  0  0  0  0  0  0  0  0
  142.9657  143.9576  161.1854 C   0  0  0  0  0  0  0  0  0  0  0  0
  143.1148  145.2678  160.3965 C   0  0  0  0  0  0  0  0  0  0  0  0
  144.4601  145.3216  159.6542 C   0  0  0  0  0  0  0  0  0  0  0  0
  148.7559  145.2187  158.5087 H   0  0  0  0  0  0  0  0  0  0  0  0
  150.7267  145.1654  157.4551 H   0  0  0  0  0  0  0  0  0  0  0  0
  153.1503  144.5746  157.4407 H   0  0  0  0  0  0  0  0  0  0  0  0
  154.1483  143.4906  159.4753 H   0  0  0  0  0  0  0  0  0  0  0  0
  152.6537  143.0484  161.4412 H   0  0  0  0  0  0  0  0  0  0  0  0
  146.8625  145.5149  158.9340 H   0  0  0  0  0  0  0  0  0  0  0  0
  145.6550  145.9595  161.3190 H   0  0  0  0  0  0  0  0  0  0  0  0
  145.5632  142.9562  160.7373 H   0  0  0  0  0  0  0  0  0  0  0  0
  146.3026  143.7040  162.1324 H   0  0  0  0  0  0  0  0  0  0  0  0
  144.0400  142.8026  162.6708 H   0  0  0  0  0  0  0  0  0  0  0  0
  144.1189  144.5294  162.9224 H   0  0  0  0  0  0  0  0  0  0  0  0
  142.9145  143.1169  160.4924 H   0  0  0  0  0  0  0  0  0  0  0  0
  142.0257  143.9609  161.7383 H   0  0  0  0  0  0  0  0  0  0  0  0
  142.2938  145.3693  159.6861 H   0  0  0  0  0  0  0  0  0  0  0  0
  143.0399  146.1158  161.0785 H   0  0  0  0  0  0  0  0  0  0  0  0
  144.5547  146.2773  159.1373 H   0  0  0  0  0  0  0  0  0  0  0  0
  144.4762  144.5501  158.8827 H   0  0  0  0  0  0  0  0  0  0  0  0
  1  2  2  0  0  0  0
  2  3  1  0  0  0  0
  2 10  1  0  0  0  0
  3  4  1  0  0  0  0
  3 17  1  0  0  0  0
  4  9  1  0  0  0  0
  4  5  2  0  0  0  0
  5  6  1  0  0  0  0
  5 18  1  0  0  0  0
  6  7  2  0  0  0  0
  6 19  1  0  0  0  0
  7  8  1  0  0  0  0
  7 20  1  0  0  0  0
  8  9  2  0  0  0  0
  8 21  1  0  0  0  0
 10 11  1  0  0  0  0
 10 22  1  0  0  0  0
 11 16  1  0  0  0  0
 11 12  1  0  0  0  0
 11 23  1  0  0  0  0
 12 13  1  0  0  0  0
 12 24  1  0  0  0  0
 12 25  1  0  0  0  0
 13 14  1  0  0  0  0
 13 26  1  0  0  0  0
 13 27  1  0  0  0  0
 14 15  1  0  0  0  0
 14 28  1  0  0  0  0
 14 29  1  0  0  0  0
 15 16  1  0  0  0  0
 15 30  1  0  0  0  0
 15 31  1  0  0  0  0
 16 32  1  0  0  0  0
 16 33  1  0  0  0  0
M  END
> <s_m_source_file>
AV-unprocessed.smi

> <i_m_source_file_index>
2947

> <i_lp_mmshare_version>
43012

> <i_f3d_flags>
0

> <s_epik_input>
W0NIMl0xW0NIMl1bQ0gyXVtDSDJdW0NIMl1bQ0hdMVtOSF1DKD1PKVtOSF1jMltjSF1bY0hdW2NIXVtjSF1uMg==

> <s_epik_cmdline>
J2VwaWtfcHl0aG9uJywgJy1waCcsICc3LjAnLCAnLXRuJywgJzgnLCAnLW1hJywgJzIwMCcsICctbWV0YWxfYmluZGluZycsICctaW1hZScsICc8aW5maWxlLm1hZT4nLCAnLW9tYWUnLCAnPG91dGZpbGUubWFlPic=

> <r_lp_tautomer_probability>
1

> <r_epik_Ionization_Penalty>
5.26121e-05

> <r_epik_Ionization_Penalty_Charging>
0

> <r_epik_Ionization_Penalty_Neutral>
5.26121e-05

> <r_epik_State_Penalty>
-0

> <r_epik_Charging_Adjusted_Penalty>
0

> <i_epik_Tot_Q>
0

> <i_epik_Tot_abs_Q>
0

> <r_epik_Metal_State_Penalty>
-0

> <b_epik_Metal_Only>
0

> <s_lp_Force_Field>
OPLS_2005

> <r_lp_Energy>
11.3585

> <b_lp_Chiralities_Consistent>
1

> <s_lp_Variant>
AV-unprocessed.smi:2947-1

> <Gold.Version>
5.8.1

> <Gold.Id.Protein>
6NUR|6NUR_protein|mol2

> <Gold.PLP.Fitness>
45.4009

> <Gold.PLP.PLP>
-37.0672

> <Gold.PLP.part.hbond>
-3.7468

> <Gold.PLP.part.metal>
0.0000

> <Gold.PLP.part.buried>
-5.6874

> <Gold.PLP.part.nonpolar>
-28.2903

> <Gold.PLP.part.repulsive>
0.5645

> <Gold.PLP.ligand.clash>
0.0000

> <Gold.PLP.ligand.torsion>
0.2627

> <Gold.PLP.Chemscore.Hbond>
2.9520

> <Gold.PLP.Chemscore.CHOScore>
0.0000

> <Gold.PLP.Chemscore.Metal>
0.0000

> <Gold.Chemscore.Hbonds>
donor molecule, donor type, donor heavy atom, donor atom, acceptor molecule, acceptor atom, score
      L1  H     3    17       P1  8029  1.00
      L1  H    10    22       P1  8029  0.96
      P1  H  6933  6944       L1     1  0.98

> <Gold.PLP.Chemscore.Internal.Correction>
0.0031

> <Gold.Rescore>
     Score         DG    S(hbond)    S(metal)    S(lipo)     H(rot)  DE(clash)    DE(int)     intcor
     19.78     -22.61       2.84        0.00      87.24       1.00       0.02       2.81       ----

> <Gold.Chemscore.Fitness>
19.7791

> <Gold.Chemscore.DG>
-22.6089

> <Gold.Chemscore.ZeroCoef>
-5.4800

> <Gold.Chemscore.Hbond>
2.8387

> <Gold.Chemscore.Metal>
0.0000

> <Gold.Chemscore.Lipo>
87.2444

> <Gold.Chemscore.Internal_Hbond>
0.0000

> <Gold.Chemscore.DEClash>
0.0240

> <Gold.Chemscore.DEInternal>
2.8058

> <Gold.Chemscore.Rot>
1.0000

> <Gold.Chemscore.Internal.Correction>
   9.000000E+99

> <Gold.Chemscore.Hbonds>
donor molecule, donor type, donor heavy atom, donor atom, acceptor molecule, acceptor atom, score
      L1  H     3    17       P1  8029  0.98
      L1  H    10    22       P1  8029  0.90
      P1  H  6933  6944       L1     1  0.88

> <Gold.Chemscore.Hbond.Weighted>
-9.4813

> <Gold.Chemscore.Metal.Weighted>
-0.0000

> <Gold.Chemscore.Lipo.Weighted>
-10.2076

> <Gold.Chemscore.Internal_Hbond.Weighted>
0.0000

> <Gold.Chemscore.DEClash.Weighted>
0.0240

> <Gold.Chemscore.DEInternal.Weighted>
2.8058

> <Gold.Chemscore.Rot.Weighted>
2.5600

> <Gold.Chemscore.Internal.Correction.Weighted>
   9.000000E+99

> <Gold.Protein.RotatedTorsions>
[ 6907 6896 6895 6894 ] final   16.74 input  -60.11 | X-H torsion
[ 7974 7965 7964 7962 ] final  -13.15 input  175.53 | X-H torsion
[ 8008 7997 7996 7995 ] final  179.01 input   59.86 | X-H torsion
[ 10167 10162 10161 10158 ] final   97.16 input  -65.29 | X-H torsion
[ 10718 10713 10712 10709 ] final   99.52 input   66.30 | X-H torsion
[ 10763 10752 10751 10750 ] final -106.79 input  -60.55 | X-H torsion
[ 11005 11000 10999 10996 ] final   63.90 input  -57.11 | X-H torsion

> <Gold.Protein.ActiveResidues>
 VAL166  LYS551  ARG553  GLY616  TRP617  ASP618  TYR619  PRO620  LYS621  CYS622 
 ASP623  PHE694  ASN695  SER759  ASP760  ASP761  ALA762  ILE779  LEU786  VAL792 
 PHE793  MET794  SER795  GLU796  ALA797  LYS798  CYS799  TRP800  GLU811  SER814 

> <Gold.Protein.RotatedAtoms>
  151.8386  135.0598  160.0445 H   0  0  0  0  0  0  0  0  0  0  0  0  # atno 6907 bound_to 6896
  152.2826  133.5480  159.5516 H   0  0  0  0  0  0  0  0  0  0  0  0  # atno 6908 bound_to 6896
  150.7196  134.0458  159.3823 H   0  0  0  0  0  0  0  0  0  0  0  0  # atno 6909 bound_to 6896
  146.2125  140.3162  142.8386 H   0  0  0  0  0  0  0  0  0  0  0  0  # atno 7974 bound_to 7965
  156.0482  140.1319  157.0080 H   0  0  0  0  0  0  0  0  0  0  0  0  # atno 8008 bound_to 7997
  154.4422  140.1016  156.6407 H   0  0  0  0  0  0  0  0  0  0  0  0  # atno 8009 bound_to 7997
  155.5564  140.3464  155.4483 H   0  0  0  0  0  0  0  0  0  0  0  0  # atno 8010 bound_to 7997
  139.7827  144.6882  151.0000 H   0  0  0  0  0  0  0  0  0  0  0  0  # atno 10167 bound_to 10162
  157.6874  131.0672  150.4961 H   0  0  0  0  0  0  0  0  0  0  0  0  # atno 10718 bound_to 10713
  154.8035  135.4699  154.0334 H   0  0  0  0  0  0  0  0  0  0  0  0  # atno 10763 bound_to 10752
  153.1821  135.6842  153.8471 H   0  0  0  0  0  0  0  0  0  0  0  0  # atno 10764 bound_to 10752
  153.8018  135.3229  155.3368 H   0  0  0  0  0  0  0  0  0  0  0  0  # atno 10765 bound_to 10752
  139.9994  134.6466  155.9956 H   0  0  0  0  0  0  0  0  0  0  0  0  # atno 11005 bound_to 11000
  144.8953  140.7575  143.5901 LP  0  0  0  0  0  0  0  0  0  0  0  0  # atno 17320 bound_to 7965
  145.3085  139.1826  143.4651 LP  0  0  0  0  0  0  0  0  0  0  0  0  # atno 17321 bound_to 7965
  140.7819  143.4465  151.0474 LP  0  0  0  0  0  0  0  0  0  0  0  0  # atno 17342 bound_to 10162
  139.8145  143.7905  152.3173 LP  0  0  0  0  0  0  0  0  0  0  0  0  # atno 17343 bound_to 10162
  156.5285  130.4179  149.6214 LP  0  0  0  0  0  0  0  0  0  0  0  0  # atno 17370 bound_to 10713
  156.3090  130.7219  151.2107 LP  0  0  0  0  0  0  0  0  0  0  0  0  # atno 17371 bound_to 10713
  141.1630  133.6538  156.4383 LP  0  0  0  0  0  0  0  0  0  0  0  0  # atno 17394 bound_to 11000
  140.4757  134.6712  157.5149 LP  0  0  0  0  0  0  0  0  0  0  0  0  # atno 17395 bound_to 11000

$$$$
