AV-unprocessed.smi:1734|AV-procd|sdf|6980|dock1
  -GOLD-   22720 8193D 1   1.00000     0.00000
 Structure written by MMmdl.
 50 52  0  0  0  0  0  0  0  0  1 V2000
  151.0697  145.2624  159.1255 C   0  0  0  0  0  0  0  0  0  0  0  0
  151.2958  143.7929  158.8088 C   0  0  0  0  0  0  0  0  0  0  0  0
  152.5878  143.2455  158.9593 C   0  0  0  0  0  0  0  0  0  0  0  0
  152.7960  141.8875  158.6638 C   0  0  0  0  0  0  0  0  0  0  0  0
  151.6961  141.1294  158.2274 C   0  0  0  0  0  0  0  0  0  0  0  0
  150.4583  141.6439  158.0812 N   0  0  0  0  0  0  0  0  0  0  0  0
  150.2398  142.9531  158.3626 C   0  0  0  0  0  0  0  0  0  0  0  0
  148.9595  143.5625  158.2351 N   0  0  0  0  0  0  0  0  0  0  0  0
  147.7477  143.0090  158.4180 C   0  0  0  0  0  0  0  0  0  0  0  0
  147.5367  141.8334  158.7179 O   0  0  0  0  0  0  0  0  0  0  0  0
  146.7707  143.9068  158.2262 N   0  0  0  0  0  0  0  0  0  0  0  0
  145.3432  143.6245  158.3423 C   0  0  0  0  0  0  0  0  0  0  0  0
  144.6272  144.5456  159.3714 C   0  0  2  0  0  0  0  0  0  0  0  0
  145.3698  144.6089  160.7432 C   0  0  2  0  0  0  0  0  0  0  0  0
  146.6520  145.4444  160.7992 C   0  0  0  0  0  0  0  0  0  0  0  0
  147.5885  144.6070  161.6641 C   0  0  0  0  0  0  0  0  0  0  0  0
  147.1993  143.2767  161.3694 O   0  0  0  0  0  0  0  0  0  0  0  0
  145.7795  143.2538  161.3496 C   0  0  0  0  0  0  0  0  0  0  0  0
  143.1641  144.3618  159.4567 N   0  0  0  0  0  0  0  0  0  0  0  0
  142.5134  145.3130  160.3552 C   0  0  0  0  0  0  0  0  0  0  0  0
  141.0202  144.9964  160.5355 C   0  0  0  0  0  0  0  0  0  0  0  0
  140.3842  144.9915  159.2619 O   0  0  0  0  0  0  0  0  0  0  0  0
  140.9522  144.0374  158.3708 C   0  0  0  0  0  0  0  0  0  0  0  0
  142.4532  144.3198  158.1806 C   0  0  0  0  0  0  0  0  0  0  0  0
  151.9830  145.7353  159.4879 H   0  0  0  0  0  0  0  0  0  0  0  0
  150.3064  145.3766  159.8956 H   0  0  0  0  0  0  0  0  0  0  0  0
  150.7462  145.7981  158.2326 H   0  0  0  0  0  0  0  0  0  0  0  0
  153.4120  143.8564  159.2972 H   0  0  0  0  0  0  0  0  0  0  0  0
  153.7727  141.4389  158.7689 H   0  0  0  0  0  0  0  0  0  0  0  0
  151.8118  140.0822  157.9901 H   0  0  0  0  0  0  0  0  0  0  0  0
  148.9710  144.5395  157.9831 H   0  0  0  0  0  0  0  0  0  0  0  0
  147.0295  144.8516  157.9827 H   0  0  0  0  0  0  0  0  0  0  0  0
  144.8981  143.7154  157.3516 H   0  0  0  0  0  0  0  0  0  0  0  0
  145.2367  142.5766  158.6202 H   0  0  0  0  0  0  0  0  0  0  0  0
  144.7532  145.5560  158.9797 H   0  0  0  0  0  0  0  0  0  0  0  0
  144.6739  145.0580  161.4534 H   0  0  0  0  0  0  0  0  0  0  0  0
  147.0908  145.5888  159.8141 H   0  0  0  0  0  0  0  0  0  0  0  0
  146.4852  146.4353  161.2220 H   0  0  0  0  0  0  0  0  0  0  0  0
  148.6405  144.7802  161.4365 H   0  0  0  0  0  0  0  0  0  0  0  0
  147.4265  144.8094  162.7241 H   0  0  0  0  0  0  0  0  0  0  0  0
  145.4165  143.1736  162.3754 H   0  0  0  0  0  0  0  0  0  0  0  0
  145.4068  142.3856  160.8069 H   0  0  0  0  0  0  0  0  0  0  0  0
  143.0047  145.3032  161.3288 H   0  0  0  0  0  0  0  0  0  0  0  0
  142.6042  146.3267  159.9655 H   0  0  0  0  0  0  0  0  0  0  0  0
  140.8846  144.0306  161.0247 H   0  0  0  0  0  0  0  0  0  0  0  0
  140.5468  145.7471  161.1681 H   0  0  0  0  0  0  0  0  0  0  0  0
  140.7982  143.0305  158.7627 H   0  0  0  0  0  0  0  0  0  0  0  0
  140.4335  144.0899  157.4136 H   0  0  0  0  0  0  0  0  0  0  0  0
  142.5785  145.2632  157.6487 H   0  0  0  0  0  0  0  0  0  0  0  0
  142.8568  143.5338  157.5468 H   0  0  0  0  0  0  0  0  0  0  0  0
  1  2  1  0  0  0  0
  1 25  1  0  0  0  0
  1 26  1  0  0  0  0
  1 27  1  0  0  0  0
  2  7  1  0  0  0  0
  2  3  2  0  0  0  0
  3  4  1  0  0  0  0
  3 28  1  0  0  0  0
  4  5  2  0  0  0  0
  4 29  1  0  0  0  0
  5  6  1  0  0  0  0
  5 30  1  0  0  0  0
  6  7  2  0  0  0  0
  7  8  1  0  0  0  0
  8  9  1  0  0  0  0
  8 31  1  0  0  0  0
  9 10  2  0  0  0  0
  9 11  1  0  0  0  0
 11 12  1  0  0  0  0
 11 32  1  0  0  0  0
 12 13  1  0  0  0  0
 12 33  1  0  0  0  0
 12 34  1  0  0  0  0
 13 14  1  0  0  0  0
 13 19  1  0  0  0  0
 13 35  1  0  0  0  0
 14 18  1  0  0  0  0
 14 15  1  0  0  0  0
 14 36  1  0  0  0  0
 15 16  1  0  0  0  0
 15 37  1  0  0  0  0
 15 38  1  0  0  0  0
 16 17  1  0  0  0  0
 16 39  1  0  0  0  0
 16 40  1  0  0  0  0
 17 18  1  0  0  0  0
 18 41  1  0  0  0  0
 18 42  1  0  0  0  0
 19 24  1  0  0  0  0
 19 20  1  0  0  0  0
 20 21  1  0  0  0  0
 20 43  1  0  0  0  0
 20 44  1  0  0  0  0
 21 22  1  0  0  0  0
 21 45  1  0  0  0  0
 21 46  1  0  0  0  0
 22 23  1  0  0  0  0
 23 24  1  0  0  0  0
 23 47  1  0  0  0  0
 23 48  1  0  0  0  0
 24 49  1  0  0  0  0
 24 50  1  0  0  0  0
M  END
> <s_m_source_file>
AV-unprocessed.smi

> <i_m_source_file_index>
1734

> <i_lp_mmshare_version>
43012

> <i_f3d_flags>
0

> <s_epik_input>
W0NIM11jMVtjSF1bY0hdW2NIXW5jMVtOSF1DKD1PKVtOSF1bQ0gyXVtDQEhdKFtDQEBIXTJbQ0gyXVtDSDJdT1tDSDJdMilOM1tDSDJdW0NIMl1PW0NIMl1bQ0gyXTM=

> <s_epik_cmdline>
J2VwaWtfcHl0aG9uJywgJy1waCcsICc3LjAnLCAnLXRuJywgJzgnLCAnLW1hJywgJzIwMCcsICctbWV0YWxfYmluZGluZycsICctaW1hZScsICc8aW5maWxlLm1hZT4nLCAnLW9tYWUnLCAnPG91dGZpbGUubWFlPic=

> <r_epik_Ionization_Penalty>
0.125073

> <r_epik_Ionization_Penalty_Charging>
0

> <r_epik_Ionization_Penalty_Neutral>
0.125073

> <r_epik_State_Penalty>
0.114484

> <r_epik_Charging_Adjusted_Penalty>
0.114484

> <i_epik_Tot_Q>
0

> <i_epik_Tot_abs_Q>
0

> <r_epik_Metal_State_Penalty>
0.114483

> <b_epik_Metal_Only>
0

> <s_lp_Force_Field>
OPLS_2005

> <r_lp_Energy>
56.0061

> <b_lp_Chiralities_Consistent>
1

> <s_lp_Variant>
AV-unprocessed.smi:1734-1

> <Gold.Version>
5.8.1

> <Gold.Id.Protein>
6NUR|6NUR_protein|mol2

> <Gold.PLP.Fitness>
46.4762

> <Gold.PLP.PLP>
-38.4430

> <Gold.PLP.part.hbond>
-5.8248

> <Gold.PLP.part.metal>
0.0000

> <Gold.PLP.part.buried>
-2.1275

> <Gold.PLP.part.nonpolar>
-30.6027

> <Gold.PLP.part.repulsive>
0.2989

> <Gold.PLP.ligand.clash>
0.0095

> <Gold.PLP.ligand.torsion>
0.7336

> <Gold.PLP.Chemscore.Hbond>
3.0544

> <Gold.PLP.Chemscore.CHOScore>
0.0000

> <Gold.PLP.Chemscore.Metal>
0.0000

> <Gold.Chemscore.Hbonds>
donor molecule, donor type, donor heavy atom, donor atom, acceptor molecule, acceptor atom, score
      L1  H     8    31       P1  8029  0.65
      L1  H    11    32       P1  8029  1.00
      P1  H  6933  6944       L1    17  1.00
      P1  H  6934  6946       L1    10  0.13

> <Gold.PLP.Chemscore.Internal.Correction>
0.3466

> <Gold.Rescore>
     Score         DG    S(hbond)    S(metal)    S(lipo)     H(rot)  DE(clash)    DE(int)     intcor
     18.36     -21.31       2.58        0.00      97.63       1.65       0.33       2.62       ----

> <Gold.Chemscore.Fitness>
18.3623

> <Gold.Chemscore.DG>
-21.3072

> <Gold.Chemscore.ZeroCoef>
-5.4800

> <Gold.Chemscore.Hbond>
2.5818

> <Gold.Chemscore.Metal>
0.0000

> <Gold.Chemscore.Lipo>
97.6302

> <Gold.Chemscore.Internal_Hbond>
0.0000

> <Gold.Chemscore.DEClash>
0.3297

> <Gold.Chemscore.DEInternal>
2.6152

> <Gold.Chemscore.Rot>
1.6480

> <Gold.Chemscore.Internal.Correction>
   9.000000E+99

> <Gold.Chemscore.Hbonds>
donor molecule, donor type, donor heavy atom, donor atom, acceptor molecule, acceptor atom, score
      L1  H     8    31       P1  8029  0.08
      L1  H    11    32       P1  8029  0.69
      P1  H  6933  6944       L1    17  0.63
      P1  H  6934  6946       L1    10  0.13

> <Gold.Chemscore.Hbond.Weighted>
-8.6233

> <Gold.Chemscore.Metal.Weighted>
-0.0000

> <Gold.Chemscore.Lipo.Weighted>
-11.4227

> <Gold.Chemscore.Internal_Hbond.Weighted>
0.0000

> <Gold.Chemscore.DEClash.Weighted>
0.3297

> <Gold.Chemscore.DEInternal.Weighted>
2.6152

> <Gold.Chemscore.Rot.Weighted>
4.2188

> <Gold.Chemscore.Internal.Correction.Weighted>
   9.000000E+99

> <Gold.Protein.RotatedTorsions>
[ 6907 6896 6895 6894 ] final   -8.45 input  -60.11 | X-H torsion
[ 7974 7965 7964 7962 ] final -114.00 input  175.53 | X-H torsion
[ 8008 7997 7996 7995 ] final  122.23 input   59.86 | X-H torsion
[ 10167 10162 10161 10158 ] final -114.97 input  -65.29 | X-H torsion
[ 10718 10713 10712 10709 ] final   -2.26 input   66.30 | X-H torsion
[ 10763 10752 10751 10750 ] final   82.16 input  -60.55 | X-H torsion
[ 11005 11000 10999 10996 ] final -104.01 input  -57.11 | X-H torsion

> <Gold.Protein.ActiveResidues>
 VAL166  LYS551  ARG553  GLY616  TRP617  ASP618  TYR619  PRO620  LYS621  CYS622 
 ASP623  PHE694  ASN695  SER759  ASP760  ASP761  ALA762  ILE779  LEU786  VAL792 
 PHE793  MET794  SER795  GLU796  ALA797  LYS798  CYS799  TRP800  GLU811  SER814 

> <Gold.Protein.RotatedAtoms>
  151.4335  135.1012  159.9648 H   0  0  0  0  0  0  0  0  0  0  0  0  # atno 6907 bound_to 6896
  152.4948  133.8595  159.7253 H   0  0  0  0  0  0  0  0  0  0  0  0  # atno 6908 bound_to 6896
  150.9138  133.6906  159.2876 H   0  0  0  0  0  0  0  0  0  0  0  0  # atno 6909 bound_to 6896
  145.1253  140.8693  143.3789 H   0  0  0  0  0  0  0  0  0  0  0  0  # atno 7974 bound_to 7965
  156.2719  140.2790  156.1435 H   0  0  0  0  0  0  0  0  0  0  0  0  # atno 8008 bound_to 7997
  155.0928  140.0389  157.2691 H   0  0  0  0  0  0  0  0  0  0  0  0  # atno 8009 bound_to 7997
  154.6876  140.2622  155.6851 H   0  0  0  0  0  0  0  0  0  0  0  0  # atno 8010 bound_to 7997
  140.0952  143.4663  152.1846 H   0  0  0  0  0  0  0  0  0  0  0  0  # atno 10167 bound_to 10162
  156.7935  130.5369  149.5732 H   0  0  0  0  0  0  0  0  0  0  0  0  # atno 10718 bound_to 10713
  153.1178  135.4739  154.9145 H   0  0  0  0  0  0  0  0  0  0  0  0  # atno 10763 bound_to 10752
  154.7546  135.3115  154.8497 H   0  0  0  0  0  0  0  0  0  0  0  0  # atno 10764 bound_to 10752
  153.9069  135.6869  153.4806 H   0  0  0  0  0  0  0  0  0  0  0  0  # atno 10765 bound_to 10752
  141.1120  133.8687  157.1557 H   0  0  0  0  0  0  0  0  0  0  0  0  # atno 11005 bound_to 11000
  145.0695  139.3043  143.5839 LP  0  0  0  0  0  0  0  0  0  0  0  0  # atno 17320 bound_to 7965
  146.3518  140.0164  142.8662 LP  0  0  0  0  0  0  0  0  0  0  0  0  # atno 17321 bound_to 7965
  139.5702  144.7458  151.3911 LP  0  0  0  0  0  0  0  0  0  0  0  0  # atno 17342 bound_to 10162
  140.7007  143.7638  150.7399 LP  0  0  0  0  0  0  0  0  0  0  0  0  # atno 17343 bound_to 10162
  156.1145  130.6064  151.0098 LP  0  0  0  0  0  0  0  0  0  0  0  0  # atno 17370 bound_to 10713
  157.6589  131.0884  150.7884 LP  0  0  0  0  0  0  0  0  0  0  0  0  # atno 17371 bound_to 10713
  140.0019  135.0024  157.0209 LP  0  0  0  0  0  0  0  0  0  0  0  0  # atno 17394 bound_to 11000
  140.4749  134.1348  155.7208 LP  0  0  0  0  0  0  0  0  0  0  0  0  # atno 17395 bound_to 11000

$$$$
