AV-unprocessed.smi:102|AV-procd|sdf|953|dock7
  -GOLD-   2262017483D 1   1.00000     0.00000
 Structure written by MMmdl.
 44 45  0  0  0  0  0  0  0  0  1 V2000
  147.3634  134.7211  161.8892 C   0  0  0  0  0  0  0  0  0  0  0  0
  147.8803  136.0338  161.3141 C   0  0  0  0  0  0  0  0  0  0  0  0
  147.5112  137.1191  161.7629 O   0  0  0  0  0  0  0  0  0  0  0  0
  148.7464  135.8510  160.3052 O   0  0  0  0  0  0  0  0  0  0  0  0
  149.4694  136.9593  159.7955 C   0  0  0  0  0  0  0  0  0  0  0  0
  149.4413  136.9295  158.2611 C   0  0  2  0  0  0  0  0  0  0  0  0
  149.5507  135.5931  157.7765 O   0  0  0  0  0  0  0  0  0  0  0  0
  150.2240  135.5652  156.5528 C   0  0  1  0  0  0  0  0  0  0  0  0
  149.3324  134.9476  155.4865 N   0  0  0  0  0  0  0  0  0  0  0  0
  149.6466  133.6925  154.9807 C   0  0  0  0  0  0  0  0  0  0  0  0
  148.8994  133.0594  154.0459 C   0  0  0  0  0  0  0  0  0  0  0  0
  149.2771  131.8484  153.6028 F   0  0  0  0  0  0  0  0  0  0  0  0
  147.6882  133.6782  153.5177 C   0  0  0  0  0  0  0  0  0  0  0  0
  146.9489  133.1875  152.6670 O   0  0  0  0  0  0  0  0  0  0  0  0
  147.3970  134.9302  154.0650 N   0  0  0  0  0  0  0  0  0  0  0  0
  148.1571  135.5924  155.0307 C   0  0  0  0  0  0  0  0  0  0  0  0
  147.7912  136.6924  155.4357 O   0  0  0  0  0  0  0  0  0  0  0  0
  150.7666  136.9829  156.2539 C   0  0  1  0  0  0  0  0  0  0  0  0
  150.0801  137.6727  155.2142 O   0  0  0  0  0  0  0  0  0  0  0  0
  150.4630  138.9089  154.8451 C   0  0  0  0  0  0  0  0  0  0  0  0
  149.3054  139.7346  154.3011 C   0  0  0  0  0  0  0  0  0  0  0  0
  151.6061  139.3619  154.9013 O   0  0  0  0  0  0  0  0  0  0  0  0
  150.5753  137.7044  157.5805 C   0  0  2  0  0  0  0  0  0  0  0  0
  151.7764  137.6506  158.3451 O   0  0  0  0  0  0  0  0  0  0  0  0
  152.8399  138.3959  157.9939 C   0  0  0  0  0  0  0  0  0  0  0  0
  153.7498  138.7026  159.1759 C   0  0  0  0  0  0  0  0  0  0  0  0
  153.0969  138.8027  156.8608 O   0  0  0  0  0  0  0  0  0  0  0  0
  146.5638  135.3949  153.7345 H   0  0  0  0  0  0  0  0  0  0  0  0
  147.8095  133.8673  161.3784 H   0  0  0  0  0  0  0  0  0  0  0  0
  146.2807  134.6622  161.7779 H   0  0  0  0  0  0  0  0  0  0  0  0
  147.6055  134.6531  162.9499 H   0  0  0  0  0  0  0  0  0  0  0  0
  149.0020  137.8774  160.1545 H   0  0  0  0  0  0  0  0  0  0  0  0
  150.4974  136.9476  160.1609 H   0  0  0  0  0  0  0  0  0  0  0  0
  148.4986  137.3539  157.9185 H   0  0  0  0  0  0  0  0  0  0  0  0
  151.0473  134.8627  156.6853 H   0  0  0  0  0  0  0  0  0  0  0  0
  150.5340  133.1866  155.3328 H   0  0  0  0  0  0  0  0  0  0  0  0
  151.8287  136.9098  156.0136 H   0  0  0  0  0  0  0  0  0  0  0  0
  148.7400  139.1584  153.5683 H   0  0  0  0  0  0  0  0  0  0  0  0
  149.6741  140.6398  153.8183 H   0  0  0  0  0  0  0  0  0  0  0  0
  148.6343  140.0225  155.1103 H   0  0  0  0  0  0  0  0  0  0  0  0
  150.2822  138.7462  157.4385 H   0  0  0  0  0  0  0  0  0  0  0  0
  153.1725  139.1178  160.0020 H   0  0  0  0  0  0  0  0  0  0  0  0
  154.5148  139.4258  158.8923 H   0  0  0  0  0  0  0  0  0  0  0  0
  154.2436  137.7936  159.5190 H   0  0  0  0  0  0  0  0  0  0  0  0
  1  2  1  0  0  0  0
  1 29  1  0  0  0  0
  1 30  1  0  0  0  0
  1 31  1  0  0  0  0
  2  3  2  0  0  0  0
  2  4  1  0  0  0  0
  4  5  1  0  0  0  0
  5  6  1  0  0  0  0
  5 32  1  0  0  0  0
  5 33  1  0  0  0  0
  6 23  1  0  0  0  0
  6  7  1  0  0  0  0
  6 34  1  0  0  0  0
  7  8  1  0  0  0  0
  8  9  1  0  0  0  0
  8 18  1  0  0  0  0
  8 35  1  0  0  0  0
  9 16  1  0  0  0  0
  9 10  1  0  0  0  0
 10 11  2  0  0  0  0
 10 36  1  0  0  0  0
 11 12  1  0  0  0  0
 11 13  1  0  0  0  0
 13 14  2  0  0  0  0
 13 15  1  0  0  0  0
 15 28  1  0  0  0  0
 15 16  1  0  0  0  0
 16 17  2  0  0  0  0
 18 19  1  0  0  0  0
 18 23  1  0  0  0  0
 18 37  1  0  0  0  0
 19 20  1  0  0  0  0
 20 21  1  0  0  0  0
 20 22  2  0  0  0  0
 21 38  1  0  0  0  0
 21 39  1  0  0  0  0
 21 40  1  0  0  0  0
 23 24  1  0  0  0  0
 23 41  1  0  0  0  0
 24 25  1  0  0  0  0
 25 26  1  0  0  0  0
 25 27  2  0  0  0  0
 26 42  1  0  0  0  0
 26 43  1  0  0  0  0
 26 44  1  0  0  0  0
M  END
> <s_m_source_file>
AV-unprocessed.smi

> <i_m_source_file_index>
102

> <i_lp_mmshare_version>
43012

> <i_f3d_flags>
0

> <s_epik_input>
W0NIM11DKD1PKU9bQ0gyXVtDQEBIXTFPW0NASF0oW0NAQEhdKE9DKD1PKVtDSDNdKVtDQEhdMU9DKD1PKVtDSDNdKW4yW2NIXWMoRiljKD1PKVtuSF1jMj1P

> <s_epik_cmdline>
J2VwaWtfcHl0aG9uJywgJy1waCcsICc3LjAnLCAnLXRuJywgJzgnLCAnLW1hJywgJzIwMCcsICctbWV0YWxfYmluZGluZycsICctaW1hZScsICc8aW5maWxlLm1hZT4nLCAnLW9tYWUnLCAnPG91dGZpbGUubWFlPic=

> <r_lp_tautomer_probability>
0.999537

> <r_epik_Ionization_Penalty>
0.058267

> <r_epik_Ionization_Penalty_Charging>
0.058267

> <r_epik_Ionization_Penalty_Neutral>
6.57791e-16

> <r_epik_State_Penalty>
0.0503774

> <r_epik_Charging_Adjusted_Penalty>
0.108644

> <i_epik_Tot_Q>
0

> <i_epik_Tot_abs_Q>
0

> <r_epik_Metal_State_Penalty>
2.6644

> <b_epik_Metal_Only>
0

> <s_epik_Chemistry_Notes>
This compound has an ester and may undergo hydrolysis at high or low pH. This compound contains an acetal/aminal-like group ( X-CH(R)-Y where X, Y are N, S, or O) that may be acid/base labile, releasing an aldehyde.

> <s_lp_Force_Field>
OPLS_2005

> <r_lp_Energy>
10.5548

> <b_lp_Chiralities_Consistent>
1

> <s_lp_Variant>
AV-unprocessed.smi:102-9

> <Gold.Version>
5.8.1

> <Gold.Id.Protein>
6NUR|6NUR_protein|mol2

> <Gold.PLP.Fitness>
44.2613

> <Gold.PLP.PLP>
-34.7888

> <Gold.PLP.part.hbond>
-5.8474

> <Gold.PLP.part.metal>
0.0000

> <Gold.PLP.part.buried>
-3.4933

> <Gold.PLP.part.nonpolar>
-25.1742

> <Gold.PLP.part.repulsive>
0.3710

> <Gold.PLP.ligand.clash>
0.0073

> <Gold.PLP.ligand.torsion>
1.5229

> <Gold.PLP.Chemscore.Hbond>
4.1090

> <Gold.PLP.Chemscore.CHOScore>
0.0000

> <Gold.PLP.Chemscore.Metal>
0.0000

> <Gold.Chemscore.Hbonds>
donor molecule, donor type, donor heavy atom, donor atom, acceptor molecule, acceptor atom, score
      P1  H  6896  6908       L1     7  0.28
      P1  H  6931  6943       L1     3  0.99
      P1  H  6934  6947       L1     3  0.66
      P1  H  7989  7998       L1    22  0.94
      P1  H  7997  8010       L1    27  1.00

> <Gold.PLP.Chemscore.Internal.Correction>
0.1985

> <Gold.Rescore>
     Score         DG    S(hbond)    S(metal)    S(lipo)     H(rot)  DE(clash)    DE(int)     intcor
      4.22     -10.79       3.12        0.00      45.08       4.05       0.30       6.28       ----

> <Gold.Chemscore.Fitness>
4.2153

> <Gold.Chemscore.DG>
-10.7932

> <Gold.Chemscore.ZeroCoef>
-5.4800

> <Gold.Chemscore.Hbond>
3.1172

> <Gold.Chemscore.Metal>
0.0000

> <Gold.Chemscore.Lipo>
45.0844

> <Gold.Chemscore.Internal_Hbond>
0.0000

> <Gold.Chemscore.DEClash>
0.2976

> <Gold.Chemscore.DEInternal>
6.2802

> <Gold.Chemscore.Rot>
4.0520

> <Gold.Chemscore.Internal.Correction>
   9.000000E+99

> <Gold.Chemscore.Hbonds>
donor molecule, donor type, donor heavy atom, donor atom, acceptor molecule, acceptor atom, score
      P1  H  6896  6908       L1     7  0.07
      P1  H  6931  6943       L1     3  0.65
      P1  H  6934  6947       L1     3  0.64
      P1  H  7989  7998       L1    22  0.44
      P1  H  7997  8010       L1    27  0.78

> <Gold.Chemscore.Hbond.Weighted>
-10.4115

> <Gold.Chemscore.Metal.Weighted>
-0.0000

> <Gold.Chemscore.Lipo.Weighted>
-5.2749

> <Gold.Chemscore.Internal_Hbond.Weighted>
0.0000

> <Gold.Chemscore.DEClash.Weighted>
0.2976

> <Gold.Chemscore.DEInternal.Weighted>
6.2802

> <Gold.Chemscore.Rot.Weighted>
10.3732

> <Gold.Chemscore.Internal.Correction.Weighted>
   9.000000E+99

> <Gold.Protein.RotatedTorsions>
[ 6907 6896 6895 6894 ] final  168.61 input  -60.11 | X-H torsion
[ 7974 7965 7964 7962 ] final  122.36 input  175.53 | X-H torsion
[ 8008 7997 7996 7995 ] final   43.61 input   59.86 | X-H torsion
[ 10167 10162 10161 10158 ] final  -45.02 input  -65.29 | X-H torsion
[ 10718 10713 10712 10709 ] final   71.92 input   66.30 | X-H torsion
[ 10763 10752 10751 10750 ] final  -35.03 input  -60.55 | X-H torsion
[ 11005 11000 10999 10996 ] final   27.00 input  -57.11 | X-H torsion

> <Gold.Protein.ActiveResidues>
 VAL166  LYS551  ARG553  GLY616  TRP617  ASP618  TYR619  PRO620  LYS621  CYS622 
 ASP623  PHE694  ASN695  SER759  ASP760  ASP761  ALA762  ILE779  LEU786  VAL792 
 PHE793  MET794  SER795  GLU796  ALA797  LYS798  CYS799  TRP800  GLU811  SER814 

> <Gold.Protein.RotatedAtoms>
  151.8450  133.3430  159.3654 H   0  0  0  0  0  0  0  0  0  0  0  0  # atno 6907 bound_to 6896
  150.7223  134.5354  159.5730 H   0  0  0  0  0  0  0  0  0  0  0  0  # atno 6908 bound_to 6896
  152.2836  134.7802  160.0443 H   0  0  0  0  0  0  0  0  0  0  0  0  # atno 6909 bound_to 6896
  145.1085  139.3469  143.4775 H   0  0  0  0  0  0  0  0  0  0  0  0  # atno 7974 bound_to 7965
  155.3056  140.3388  155.4246 H   0  0  0  0  0  0  0  0  0  0  0  0  # atno 8008 bound_to 7997
  156.1980  140.1722  156.7996 H   0  0  0  0  0  0  0  0  0  0  0  0  # atno 8009 bound_to 7997
  154.5523  140.0703  156.8672 H   0  0  0  0  0  0  0  0  0  0  0  0  # atno 8010 bound_to 7997
  140.6874  143.2900  151.3579 H   0  0  0  0  0  0  0  0  0  0  0  0  # atno 10167 bound_to 10162
  157.6476  130.9553  150.0856 H   0  0  0  0  0  0  0  0  0  0  0  0  # atno 10718 bound_to 10713
  153.8565  135.6844  153.4787 H   0  0  0  0  0  0  0  0  0  0  0  0  # atno 10763 bound_to 10752
  153.1367  135.4675  154.9430 H   0  0  0  0  0  0  0  0  0  0  0  0  # atno 10764 bound_to 10752
  154.7778  135.3259  154.8003 H   0  0  0  0  0  0  0  0  0  0  0  0  # atno 10765 bound_to 10752
  140.3310  134.2438  155.7702 H   0  0  0  0  0  0  0  0  0  0  0  0  # atno 11005 bound_to 11000
  146.3527  140.0993  142.8609 LP  0  0  0  0  0  0  0  0  0  0  0  0  # atno 17320 bound_to 7965
  145.0874  140.9262  143.4789 LP  0  0  0  0  0  0  0  0  0  0  0  0  # atno 17321 bound_to 7965
  139.6245  144.0841  152.2422 LP  0  0  0  0  0  0  0  0  0  0  0  0  # atno 17342 bound_to 10162
  140.0296  144.6091  150.7499 LP  0  0  0  0  0  0  0  0  0  0  0  0  # atno 17343 bound_to 10162
  156.1820  130.3650  149.9023 LP  0  0  0  0  0  0  0  0  0  0  0  0  # atno 17370 bound_to 10713
  156.6972  130.8919  151.3595 LP  0  0  0  0  0  0  0  0  0  0  0  0  # atno 17371 bound_to 10713
  141.2063  133.7836  157.0182 LP  0  0  0  0  0  0  0  0  0  0  0  0  # atno 17394 bound_to 11000
  140.0861  134.9620  157.1702 LP  0  0  0  0  0  0  0  0  0  0  0  0  # atno 17395 bound_to 11000

$$$$
