AV-unprocessed.smi:21|AV-procd|sdf|156|dock8
  -GOLD-   2262015383D 1   1.00000     0.00000
 Structure written by MMmdl.
 61 64  0  0  0  0  0  0  0  0  1 V2000
  155.1374  140.1588  160.7216 C   0  0  0  0  0  0  0  0  0  0  0  0
  154.6617  141.4934  160.6512 O   0  0  0  0  0  0  0  0  0  0  0  0
  153.2472  141.5789  160.5454 C   0  0  2  0  0  0  0  0  0  0  0  0
  152.7407  140.9579  159.2329 C   0  0  0  0  0  0  0  0  0  0  0  0
  151.8572  142.0480  158.6091 C   0  0  2  0  0  0  0  0  0  0  0  0
  151.7087  141.9278  157.0746 C   0  0  0  0  0  0  0  0  0  0  0  0
  150.9786  140.7325  156.6491 N   0  0  0  0  0  0  0  0  0  0  0  0
  149.7902  140.3648  157.4139 C   0  0  0  0  0  0  0  0  0  0  0  0
  151.6691  139.7419  156.0203 C   0  0  0  0  0  0  0  0  0  0  0  0
  152.3921  140.0465  154.9081 N   0  0  0  0  0  0  0  0  0  0  0  0
  153.0441  139.0936  154.2369 C   0  0  0  0  0  0  0  0  0  0  0  0
  153.1105  137.7879  154.4972 N   0  0  0  0  0  0  0  0  0  0  0  0
  152.4060  137.4746  155.6214 C   0  0  0  0  0  0  0  0  0  0  0  0
  151.6717  138.3789  156.4414 C   0  0  0  0  0  0  0  0  0  0  0  0
  151.1113  137.6858  157.5097 N   0  0  0  0  0  0  0  0  0  0  0  0
  151.4707  136.4465  157.3186 C   0  0  0  0  0  0  0  0  0  0  0  0
  152.2396  136.2292  156.1991 N   0  0  0  0  0  0  0  0  0  0  0  0
  152.7663  134.9595  155.7337 C   0  0  0  0  0  0  0  0  0  0  0  0
  152.0813  134.4352  154.4431 C   0  0  2  0  0  0  0  0  0  0  0  0
  150.5495  134.6757  154.4495 C   0  0  0  0  0  0  0  0  0  0  0  0
  150.2209  136.0126  154.1321 O   0  0  0  0  0  0  0  0  0  0  0  0
  152.4093  132.9347  154.2268 C   0  0  2  0  0  0  0  0  0  0  0  0
  151.6804  132.2814  153.0637 C   0  0  0  0  0  0  0  0  0  0  0  0
  151.8147  130.7999  153.3902 C   0  0  0  0  0  0  0  0  0  0  0  0
  151.7468  130.7239  154.8077 O   0  0  0  0  0  0  0  0  0  0  0  0
  151.9829  132.0091  155.3754 C   0  0  0  0  0  0  0  0  0  0  0  0
  152.4707  143.2895  159.0530 N   0  0  0  0  0  0  0  0  0  0  0  0
  151.6186  144.4612  158.8968 C   0  0  0  0  0  0  0  0  0  0  0  0
  152.8169  143.0471  160.4419 C   0  0  0  0  0  0  0  0  0  0  0  0
  152.7682  141.1260  161.4156 H   0  0  0  0  0  0  0  0  0  0  0  0
  150.8677  141.9746  159.0641 H   0  0  0  0  0  0  0  0  0  0  0  0
  156.2264  140.1613  160.7641 H   0  0  0  0  0  0  0  0  0  0  0  0
  154.8373  139.5763  159.8499 H   0  0  0  0  0  0  0  0  0  0  0  0
  154.7676  139.6579  161.6171 H   0  0  0  0  0  0  0  0  0  0  0  0
  153.5820  140.7376  158.5737 H   0  0  0  0  0  0  0  0  0  0  0  0
  152.1978  140.0277  159.4021 H   0  0  0  0  0  0  0  0  0  0  0  0
  151.1527  142.7844  156.6951 H   0  0  0  0  0  0  0  0  0  0  0  0
  152.6859  141.9980  156.6033 H   0  0  0  0  0  0  0  0  0  0  0  0
  149.1187  139.7488  156.8144 H   0  0  0  0  0  0  0  0  0  0  0  0
  149.2393  141.2546  157.7193 H   0  0  0  0  0  0  0  0  0  0  0  0
  150.0619  139.8102  158.3129 H   0  0  0  0  0  0  0  0  0  0  0  0
  153.5853  139.4246  153.3628 H   0  0  0  0  0  0  0  0  0  0  0  0
  151.1731  135.6513  157.9864 H   0  0  0  0  0  0  0  0  0  0  0  0
  153.8356  135.0988  155.5758 H   0  0  0  0  0  0  0  0  0  0  0  0
  152.6663  134.2274  156.5360 H   0  0  0  0  0  0  0  0  0  0  0  0
  152.4999  134.9774  153.5935 H   0  0  0  0  0  0  0  0  0  0  0  0
  150.0476  134.0569  153.7073 H   0  0  0  0  0  0  0  0  0  0  0  0
  150.1203  134.4136  155.4168 H   0  0  0  0  0  0  0  0  0  0  0  0
  150.3863  136.1542  153.2123 H   0  0  0  0  0  0  0  0  0  0  0  0
  153.4826  132.8176  154.0671 H   0  0  0  0  0  0  0  0  0  0  0  0
  150.6282  132.5703  153.0607 H   0  0  0  0  0  0  0  0  0  0  0  0
  152.1064  132.5271  152.0906 H   0  0  0  0  0  0  0  0  0  0  0  0
  151.0411  130.1936  152.9186 H   0  0  0  0  0  0  0  0  0  0  0  0
  152.7865  130.4259  153.0658 H   0  0  0  0  0  0  0  0  0  0  0  0
  152.7374  131.9478  156.1603 H   0  0  0  0  0  0  0  0  0  0  0  0
  151.0528  132.3540  155.8292 H   0  0  0  0  0  0  0  0  0  0  0  0
  152.1092  145.3470  159.3010 H   0  0  0  0  0  0  0  0  0  0  0  0
  150.6688  144.3327  159.4176 H   0  0  0  0  0  0  0  0  0  0  0  0
  151.4071  144.6561  157.8458 H   0  0  0  0  0  0  0  0  0  0  0  0
  151.9394  143.1983  161.0730 H   0  0  0  0  0  0  0  0  0  0  0  0
  153.5881  143.7367  160.7868 H   0  0  0  0  0  0  0  0  0  0  0  0
  1  2  1  0  0  0  0
  1 32  1  0  0  0  0
  1 33  1  0  0  0  0
  1 34  1  0  0  0  0
  2  3  1  0  0  0  0
  3 30  1  0  0  0  0
  3 29  1  0  0  0  0
  3  4  1  0  0  0  0
  4  5  1  0  0  0  0
  4 35  1  0  0  0  0
  4 36  1  0  0  0  0
  5 31  1  0  0  0  0
  5  6  1  0  0  0  0
  5 27  1  0  0  0  0
  6  7  1  0  0  0  0
  6 37  1  0  0  0  0
  6 38  1  0  0  0  0
  7  8  1  0  0  0  0
  7  9  1  0  0  0  0
  8 39  1  0  0  0  0
  8 40  1  0  0  0  0
  8 41  1  0  0  0  0
  9 14  1  0  0  0  0
  9 10  2  0  0  0  0
 10 11  1  0  0  0  0
 11 12  2  0  0  0  0
 11 42  1  0  0  0  0
 12 13  1  0  0  0  0
 13 17  1  0  0  0  0
 13 14  2  0  0  0  0
 14 15  1  0  0  0  0
 15 16  2  0  0  0  0
 16 17  1  0  0  0  0
 16 43  1  0  0  0  0
 17 18  1  0  0  0  0
 18 19  1  0  0  0  0
 18 44  1  0  0  0  0
 18 45  1  0  0  0  0
 19 20  1  0  0  0  0
 19 22  1  0  0  0  0
 19 46  1  0  0  0  0
 20 21  1  0  0  0  0
 20 47  1  0  0  0  0
 20 48  1  0  0  0  0
 21 49  1  0  0  0  0
 22 26  1  0  0  0  0
 22 23  1  0  0  0  0
 22 50  1  0  0  0  0
 23 24  1  0  0  0  0
 23 51  1  0  0  0  0
 23 52  1  0  0  0  0
 24 25  1  0  0  0  0
 24 53  1  0  0  0  0
 24 54  1  0  0  0  0
 25 26  1  0  0  0  0
 26 55  1  0  0  0  0
 26 56  1  0  0  0  0
 27 28  1  0  0  0  0
 27 29  1  0  0  0  0
 28 57  1  0  0  0  0
 28 58  1  0  0  0  0
 28 59  1  0  0  0  0
 29 60  1  0  0  0  0
 29 61  1  0  0  0  0
M  END
> <s_m_source_file>
AV-unprocessed.smi

> <i_m_source_file_index>
21

> <i_lp_mmshare_version>
43012

> <i_f3d_flags>
0

> <s_epik_input>
W0NIM11PW0NASF0xW0NIMl1bQ0BIXShOKFtDSDNdKVtDSDJdMSlbQ0gyXU4oW0NIM10pYyhuW2NIXW4yKWMoYzIzKW5bY0hdbjNbQ0gyXVtDQEhdKFtDSDJdW09IXSlbQ0BASF00W0NIMl1bQ0gyXU9bQ0gyXTQ=

> <s_epik_cmdline>
J2VwaWtfcHl0aG9uJywgJy1waCcsICc3LjAnLCAnLXRuJywgJzgnLCAnLW1hJywgJzIwMCcsICctbWV0YWxfYmluZGluZycsICctaW1hZScsICc8aW5maWxlLm1hZT4nLCAnLW9tYWUnLCAnPG91dGZpbGUubWFlPic=

> <r_lp_tautomer_probability>
1

> <r_epik_Ionization_Penalty>
2.17574

> <r_epik_Ionization_Penalty_Charging>
0

> <r_epik_Ionization_Penalty_Neutral>
2.17574

> <r_epik_State_Penalty>
2.31336

> <r_epik_Charging_Adjusted_Penalty>
2.31336

> <i_epik_Tot_Q>
0

> <i_epik_Tot_abs_Q>
0

> <r_epik_Metal_State_Penalty>
2.31025

> <b_epik_Metal_Only>
0

> <s_lp_Force_Field>
OPLS_2005

> <r_lp_Energy>
68.7045

> <b_lp_Chiralities_Consistent>
1

> <s_lp_Variant>
AV-unprocessed.smi:21-36

> <Gold.Version>
5.8.1

> <Gold.Id.Protein>
6NUR|6NUR_protein|mol2

> <Gold.PLP.Fitness>
55.1546

> <Gold.PLP.PLP>
-48.4510

> <Gold.PLP.part.hbond>
-3.0000

> <Gold.PLP.part.metal>
0.0000

> <Gold.PLP.part.buried>
-9.6571

> <Gold.PLP.part.nonpolar>
-35.5058

> <Gold.PLP.part.repulsive>
0.1465

> <Gold.PLP.ligand.clash>
0.0000

> <Gold.PLP.ligand.torsion>
1.3470

> <Gold.PLP.Chemscore.Hbond>
2.8960

> <Gold.PLP.Chemscore.CHOScore>
0.0000

> <Gold.PLP.Chemscore.Metal>
0.0000

> <Gold.Chemscore.Hbonds>
donor molecule, donor type, donor heavy atom, donor atom, acceptor molecule, acceptor atom, score
      P1  H  7989  7998       L1    10  0.52
      P1  H  7997  8010       L1    10  0.02

> <Gold.PLP.Chemscore.Internal.Correction>
0.7096

> <Gold.Rescore>
     Score         DG    S(hbond)    S(metal)    S(lipo)     H(rot)  DE(clash)    DE(int)     intcor
     14.59     -19.03       2.79        0.00     101.84       3.00       0.16       4.28       ----

> <Gold.Chemscore.Fitness>
14.5923

> <Gold.Chemscore.DG>
-19.0330

> <Gold.Chemscore.ZeroCoef>
-5.4800

> <Gold.Chemscore.Hbond>
2.7923

> <Gold.Chemscore.Metal>
0.0000

> <Gold.Chemscore.Lipo>
101.8352

> <Gold.Chemscore.Internal_Hbond>
0.0000

> <Gold.Chemscore.DEClash>
0.1644

> <Gold.Chemscore.DEInternal>
4.2763

> <Gold.Chemscore.Rot>
3.0031

> <Gold.Chemscore.Internal.Correction>
   9.000000E+99

> <Gold.Chemscore.Hbonds>
donor molecule, donor type, donor heavy atom, donor atom, acceptor molecule, acceptor atom, score
      P1  H  7989  7998       L1    10  0.09

> <Gold.Chemscore.Hbond.Weighted>
-9.3262

> <Gold.Chemscore.Metal.Weighted>
-0.0000

> <Gold.Chemscore.Lipo.Weighted>
-11.9147

> <Gold.Chemscore.Internal_Hbond.Weighted>
0.0000

> <Gold.Chemscore.DEClash.Weighted>
0.1644

> <Gold.Chemscore.DEInternal.Weighted>
4.2763

> <Gold.Chemscore.Rot.Weighted>
7.6880

> <Gold.Chemscore.Internal.Correction.Weighted>
   9.000000E+99

> <Gold.Protein.RotatedTorsions>
[ 6907 6896 6895 6894 ] final -142.13 input  -60.11 | X-H torsion
[ 7974 7965 7964 7962 ] final  -45.61 input  175.53 | X-H torsion
[ 8008 7997 7996 7995 ] final  101.11 input   59.86 | X-H torsion
[ 10167 10162 10161 10158 ] final  142.53 input  -65.29 | X-H torsion
[ 10718 10713 10712 10709 ] final  -80.64 input   66.30 | X-H torsion
[ 10763 10752 10751 10750 ] final  170.56 input  -60.55 | X-H torsion
[ 11005 11000 10999 10996 ] final  123.24 input  -57.11 | X-H torsion

> <Gold.Protein.ActiveResidues>
 VAL166  LYS551  ARG553  GLY616  TRP617  ASP618  TYR619  PRO620  LYS621  CYS622 
 ASP623  PHE694  ASN695  SER759  ASP760  ASP761  ALA762  ILE779  LEU786  VAL792 
 PHE793  MET794  SER795  GLU796  ALA797  LYS798  CYS799  TRP800  GLU811  SER814 

> <Gold.Protein.RotatedAtoms>
  151.0829  133.5376  159.2619 H   0  0  0  0  0  0  0  0  0  0  0  0  # atno 6907 bound_to 6896
  151.2272  135.0540  159.8983 H   0  0  0  0  0  0  0  0  0  0  0  0  # atno 6908 bound_to 6896
  152.5426  134.0623  159.8211 H   0  0  0  0  0  0  0  0  0  0  0  0  # atno 6909 bound_to 6896
  145.9803  140.7290  142.9367 H   0  0  0  0  0  0  0  0  0  0  0  0  # atno 7974 bound_to 7965
  156.1268  140.3203  155.8289 H   0  0  0  0  0  0  0  0  0  0  0  0  # atno 8008 bound_to 7997
  155.4406  140.0525  157.3028 H   0  0  0  0  0  0  0  0  0  0  0  0  # atno 8009 bound_to 7997
  154.4868  140.2076  155.9650 H   0  0  0  0  0  0  0  0  0  0  0  0  # atno 8010 bound_to 7997
  139.4992  144.6101  151.6291 H   0  0  0  0  0  0  0  0  0  0  0  0  # atno 10167 bound_to 10162
  156.0066  130.4580  150.3831 H   0  0  0  0  0  0  0  0  0  0  0  0  # atno 10718 bound_to 10713
  154.3994  135.2755  155.2106 H   0  0  0  0  0  0  0  0  0  0  0  0  # atno 10763 bound_to 10752
  154.4138  135.6016  153.5972 H   0  0  0  0  0  0  0  0  0  0  0  0  # atno 10764 bound_to 10752
  152.9831  135.5956  154.4259 H   0  0  0  0  0  0  0  0  0  0  0  0  # atno 10765 bound_to 10752
  139.9303  134.9641  156.8229 H   0  0  0  0  0  0  0  0  0  0  0  0  # atno 11005 bound_to 11000
  144.6860  140.2897  143.7280 LP  0  0  0  0  0  0  0  0  0  0  0  0  # atno 17320 bound_to 7965
  145.7779  139.1880  143.2175 LP  0  0  0  0  0  0  0  0  0  0  0  0  # atno 17321 bound_to 7965
  140.5773  144.0007  150.6248 LP  0  0  0  0  0  0  0  0  0  0  0  0  # atno 17342 bound_to 10162
  140.3144  143.3177  152.0847 LP  0  0  0  0  0  0  0  0  0  0  0  0  # atno 17343 bound_to 10162
  157.1910  131.0415  151.2700 LP  0  0  0  0  0  0  0  0  0  0  0  0  # atno 17370 bound_to 10713
  157.4061  130.7360  149.6804 LP  0  0  0  0  0  0  0  0  0  0  0  0  # atno 17371 bound_to 10713
  140.6219  133.9985  155.7622 LP  0  0  0  0  0  0  0  0  0  0  0  0  # atno 17394 bound_to 11000
  141.0888  133.9949  157.3270 LP  0  0  0  0  0  0  0  0  0  0  0  0  # atno 17395 bound_to 11000

$$$$
