AV-unprocessed.smi:1838|AV-procd|sdf|7483|dock8
  -GOLD-   22720 9183D 1   1.00000     0.00000
 Structure written by MMmdl.
 35 36  0  0  0  0  0  0  0  0  1 V2000
  151.0791  138.4278  154.5823 C   0  0  0  0  0  0  0  0  0  0  0  0
  149.7611  138.3187  154.0555 O   0  0  0  0  0  0  0  0  0  0  0  0
  148.9308  139.4217  154.1195 C   0  0  0  0  0  0  0  0  0  0  0  0
  149.3780  140.5261  154.7686 N   0  0  0  0  0  0  0  0  0  0  0  0
  148.5713  141.6042  154.8340 C   0  0  0  0  0  0  0  0  0  0  0  0
  147.2874  141.6397  154.2613 C   0  0  0  0  0  0  0  0  0  0  0  0
  146.8206  140.4958  153.5877 C   0  0  0  0  0  0  0  0  0  0  0  0
  147.6558  139.3534  153.5089 C   0  0  0  0  0  0  0  0  0  0  0  0
  147.3018  138.1360  152.8590 N   0  0  0  0  0  0  0  0  0  0  0  0
  146.0982  137.5569  152.7065 C   0  0  0  0  0  0  0  0  0  0  0  0
  145.0274  138.0037  153.1153 O   0  0  0  0  0  0  0  0  0  0  0  0
  146.2049  136.4025  152.0334 N   0  0  0  0  0  0  0  0  0  0  0  0
  145.1000  135.4992  151.7177 C   0  0  1  0  0  0  0  0  0  0  0  0
  145.4905  134.5208  150.5937 C   0  0  0  0  0  0  0  0  0  0  0  0
  144.3997  133.4625  150.4075 C   0  0  0  0  0  0  0  0  0  0  0  0
  144.1630  132.6986  151.7204 C   0  0  0  0  0  0  0  0  0  0  0  0
  144.0672  133.5738  152.8899 N   0  0  0  0  0  0  0  0  0  0  0  0
  144.5383  134.8299  152.9849 C   0  0  0  0  0  0  0  0  0  0  0  0
  144.4891  135.4530  154.0443 O   0  0  0  0  0  0  0  0  0  0  0  0
  151.5963  137.4764  154.4595 H   0  0  0  0  0  0  0  0  0  0  0  0
  151.0648  138.6605  155.6482 H   0  0  0  0  0  0  0  0  0  0  0  0
  151.6574  139.1889  154.0563 H   0  0  0  0  0  0  0  0  0  0  0  0
  148.9609  142.4640  155.3587 H   0  0  0  0  0  0  0  0  0  0  0  0
  146.6731  142.5248  154.3369 H   0  0  0  0  0  0  0  0  0  0  0  0
  145.8353  140.5303  153.1529 H   0  0  0  0  0  0  0  0  0  0  0  0
  148.0795  137.6349  152.4542 H   0  0  0  0  0  0  0  0  0  0  0  0
  147.1244  136.1080  151.7383 H   0  0  0  0  0  0  0  0  0  0  0  0
  144.2703  136.1044  151.3472 H   0  0  0  0  0  0  0  0  0  0  0  0
  145.6472  135.0599  149.6587 H   0  0  0  0  0  0  0  0  0  0  0  0
  146.4355  134.0315  150.8343 H   0  0  0  0  0  0  0  0  0  0  0  0
  143.4745  133.9475  150.0929 H   0  0  0  0  0  0  0  0  0  0  0  0
  144.6726  132.7687  149.6118 H   0  0  0  0  0  0  0  0  0  0  0  0
  143.2565  132.0973  151.6478 H   0  0  0  0  0  0  0  0  0  0  0  0
  144.9861  132.0041  151.8929 H   0  0  0  0  0  0  0  0  0  0  0  0
  143.6646  133.1673  153.7221 H   0  0  0  0  0  0  0  0  0  0  0  0
  1  2  1  0  0  0  0
  1 20  1  0  0  0  0
  1 21  1  0  0  0  0
  1 22  1  0  0  0  0
  2  3  1  0  0  0  0
  3  8  1  0  0  0  0
  3  4  2  0  0  0  0
  4  5  1  0  0  0  0
  5  6  2  0  0  0  0
  5 23  1  0  0  0  0
  6  7  1  0  0  0  0
  6 24  1  0  0  0  0
  7  8  2  0  0  0  0
  7 25  1  0  0  0  0
  8  9  1  0  0  0  0
  9 10  1  0  0  0  0
  9 26  1  0  0  0  0
 10 11  2  0  0  0  0
 10 12  1  0  0  0  0
 12 13  1  0  0  0  0
 12 27  1  0  0  0  0
 13 18  1  0  0  0  0
 13 14  1  0  0  0  0
 13 28  1  0  0  0  0
 14 15  1  0  0  0  0
 14 29  1  0  0  0  0
 14 30  1  0  0  0  0
 15 16  1  0  0  0  0
 15 31  1  0  0  0  0
 15 32  1  0  0  0  0
 16 17  1  0  0  0  0
 16 33  1  0  0  0  0
 16 34  1  0  0  0  0
 17 18  1  0  0  0  0
 17 35  1  0  0  0  0
 18 19  2  0  0  0  0
M  END
> <s_m_source_file>
AV-unprocessed.smi

> <i_m_source_file_index>
1838

> <i_lp_mmshare_version>
43012

> <i_f3d_flags>
0

> <s_epik_input>
W0NIM11PYzFuW2NIXVtjSF1bY0hdYzFbTkhdQyg9TylbTkhdW0NAQEhdMltDSDJdW0NIMl1bQ0gyXVtOSF1DMj1P

> <s_epik_cmdline>
J2VwaWtfcHl0aG9uJywgJy1waCcsICc3LjAnLCAnLXRuJywgJzgnLCAnLW1hJywgJzIwMCcsICctbWV0YWxfYmluZGluZycsICctaW1hZScsICc8aW5maWxlLm1hZT4nLCAnLW9tYWUnLCAnPG91dGZpbGUubWFlPic=

> <r_lp_tautomer_probability>
1

> <r_epik_Ionization_Penalty>
8.30645e-05

> <r_epik_Ionization_Penalty_Charging>
0

> <r_epik_Ionization_Penalty_Neutral>
8.30645e-05

> <r_epik_State_Penalty>
-0

> <r_epik_Charging_Adjusted_Penalty>
0

> <i_epik_Tot_Q>
0

> <i_epik_Tot_abs_Q>
0

> <r_epik_Metal_State_Penalty>
-0

> <b_epik_Metal_Only>
0

> <s_lp_Force_Field>
OPLS_2005

> <r_lp_Energy>
12.0006

> <b_lp_Chiralities_Consistent>
1

> <s_lp_Variant>
AV-unprocessed.smi:1838-2

> <Gold.Version>
5.8.1

> <Gold.Id.Protein>
6NUR|6NUR_protein|mol2

> <Gold.PLP.Fitness>
38.6000

> <Gold.PLP.PLP>
-27.3083

> <Gold.PLP.part.hbond>
-3.0000

> <Gold.PLP.part.metal>
0.0000

> <Gold.PLP.part.buried>
-2.8390

> <Gold.PLP.part.nonpolar>
-24.3803

> <Gold.PLP.part.repulsive>
2.5166

> <Gold.PLP.ligand.clash>
0.0000

> <Gold.PLP.ligand.torsion>
0.3756

> <Gold.PLP.Chemscore.Hbond>
3.0000

> <Gold.PLP.Chemscore.CHOScore>
1.0000

> <Gold.PLP.Chemscore.Metal>
0.0000

> <Gold.Chemscore.Hbonds>
donor molecule, donor type, donor heavy atom, donor atom, acceptor molecule, acceptor atom, score
      L1  H     9    26       P1  7948  1.00
      L1  H    12    27       P1  7948  1.00
      L1  H    17    35       P1 10957  1.00
      L1  C     5    23       P1  8028  1.00

> <Gold.PLP.Chemscore.Internal.Correction>
0.0429

> <Gold.Rescore>
     Score         DG    S(hbond)    S(metal)    S(lipo)     H(rot)  DE(clash)    DE(int)     intcor
     14.53     -18.41       2.88        0.00      57.24       1.33       1.00       2.87       ----

> <Gold.Chemscore.Fitness>
14.5347

> <Gold.Chemscore.DG>
-18.4060

> <Gold.Chemscore.ZeroCoef>
-5.4800

> <Gold.Chemscore.Hbond>
2.8837

> <Gold.Chemscore.Metal>
0.0000

> <Gold.Chemscore.Lipo>
57.2404

> <Gold.Chemscore.Internal_Hbond>
0.0000

> <Gold.Chemscore.DEClash>
0.9977

> <Gold.Chemscore.DEInternal>
2.8736

> <Gold.Chemscore.Rot>
1.3292

> <Gold.Chemscore.Internal.Correction>
   9.000000E+99

> <Gold.Chemscore.Hbonds>
donor molecule, donor type, donor heavy atom, donor atom, acceptor molecule, acceptor atom, score
      L1  H     9    26       P1  7948  0.99
      L1  H    12    27       P1  7948  0.96
      L1  H    17    35       P1 10957  0.91

> <Gold.Chemscore.Hbond.Weighted>
-9.6315

> <Gold.Chemscore.Metal.Weighted>
-0.0000

> <Gold.Chemscore.Lipo.Weighted>
-6.6971

> <Gold.Chemscore.Internal_Hbond.Weighted>
0.0000

> <Gold.Chemscore.DEClash.Weighted>
0.9977

> <Gold.Chemscore.DEInternal.Weighted>
2.8736

> <Gold.Chemscore.Rot.Weighted>
3.4027

> <Gold.Chemscore.Internal.Correction.Weighted>
   9.000000E+99

> <Gold.Protein.RotatedTorsions>
[ 6907 6896 6895 6894 ] final  -78.29 input  -60.11 | X-H torsion
[ 7974 7965 7964 7962 ] final   11.47 input  175.53 | X-H torsion
[ 8008 7997 7996 7995 ] final  108.12 input   59.86 | X-H torsion
[ 10167 10162 10161 10158 ] final   98.75 input  -65.29 | X-H torsion
[ 10718 10713 10712 10709 ] final  119.64 input   66.30 | X-H torsion
[ 10763 10752 10751 10750 ] final  114.77 input  -60.55 | X-H torsion
[ 11005 11000 10999 10996 ] final  -68.39 input  -57.11 | X-H torsion

> <Gold.Protein.ActiveResidues>
 VAL166  LYS551  ARG553  GLY616  TRP617  ASP618  TYR619  PRO620  LYS621  CYS622 
 ASP623  PHE694  ASN695  SER759  ASP760  ASP761  ALA762  ILE779  LEU786  VAL792 
 PHE793  MET794  SER795  GLU796  ALA797  LYS798  CYS799  TRP800  GLU811  SER814 

> <Gold.Protein.RotatedAtoms>
  150.6977  134.4295  159.5241 H   0  0  0  0  0  0  0  0  0  0  0  0  # atno 6907 bound_to 6896
  152.2024  134.8573  160.0515 H   0  0  0  0  0  0  0  0  0  0  0  0  # atno 6908 bound_to 6896
  151.9488  133.3625  159.4029 H   0  0  0  0  0  0  0  0  0  0  0  0  # atno 6909 bound_to 6896
  146.2370  139.9480  142.8474 H   0  0  0  0  0  0  0  0  0  0  0  0  # atno 7974 bound_to 7965
  156.1878  140.3082  155.9272 H   0  0  0  0  0  0  0  0  0  0  0  0  # atno 8008 bound_to 7997
  155.3242  140.0457  157.3057 H   0  0  0  0  0  0  0  0  0  0  0  0  # atno 8009 bound_to 7997
  154.5416  140.2263  155.8641 H   0  0  0  0  0  0  0  0  0  0  0  0  # atno 8010 bound_to 7997
  139.7680  144.6932  151.0196 H   0  0  0  0  0  0  0  0  0  0  0  0  # atno 10167 bound_to 10162
  157.5947  131.1059  150.7924 H   0  0  0  0  0  0  0  0  0  0  0  0  # atno 10718 bound_to 10713
  153.5122  135.3615  155.2592 H   0  0  0  0  0  0  0  0  0  0  0  0  # atno 10763 bound_to 10752
  154.8741  135.4025  154.3356 H   0  0  0  0  0  0  0  0  0  0  0  0  # atno 10764 bound_to 10752
  153.4011  135.7075  153.6492 H   0  0  0  0  0  0  0  0  0  0  0  0  # atno 10765 bound_to 10752
  141.1531  133.6739  156.6438 H   0  0  0  0  0  0  0  0  0  0  0  0  # atno 11005 bound_to 11000
  145.1888  140.9802  143.4223 LP  0  0  0  0  0  0  0  0  0  0  0  0  # atno 17320 bound_to 7965
  144.9875  139.3722  143.6231 LP  0  0  0  0  0  0  0  0  0  0  0  0  # atno 17321 bound_to 7965
  140.7812  143.4620  151.0264 LP  0  0  0  0  0  0  0  0  0  0  0  0  # atno 17342 bound_to 10162
  139.8305  143.7697  152.3179 LP  0  0  0  0  0  0  0  0  0  0  0  0  # atno 17343 bound_to 10162
  156.8338  130.5025  149.5328 LP  0  0  0  0  0  0  0  0  0  0  0  0  # atno 17370 bound_to 10713
  156.1008  130.5967  150.9890 LP  0  0  0  0  0  0  0  0  0  0  0  0  # atno 17371 bound_to 10713
  140.3373  134.7879  157.4371 LP  0  0  0  0  0  0  0  0  0  0  0  0  # atno 17394 bound_to 11000
  140.0967  134.5528  155.8392 LP  0  0  0  0  0  0  0  0  0  0  0  0  # atno 17395 bound_to 11000

$$$$
