AV-unprocessed.smi:2005|AV-procd|sdf|8126|dock6
  -GOLD-   2272010363D 1   1.00000     0.00000
 Structure written by MMmdl.
 39 40  0  0  0  0  0  0  0  0  1 V2000
  147.6773  128.6031  152.4114 C   0  0  0  0  0  0  0  0  0  0  0  0
  146.7319  129.7253  152.8645 C   0  0  0  0  0  0  0  0  0  0  0  0
  145.6638  130.0736  151.8174 C   0  0  0  0  0  0  0  0  0  0  0  0
  147.4766  130.9359  153.3344 C   0  0  0  0  0  0  0  0  0  0  0  0
  148.3448  130.9091  154.3547 N   0  0  0  0  0  0  0  0  0  0  0  0
  148.9121  132.1516  154.5990 N   0  0  0  0  0  0  0  0  0  0  0  0
  148.4534  133.0846  153.7539 C   0  0  0  0  0  0  0  0  0  0  0  0
  148.8670  134.4426  153.7762 N   0  0  0  0  0  0  0  0  0  0  0  0
  149.3188  135.1606  154.8194 C   0  0  0  0  0  0  0  0  0  0  0  0
  149.4443  134.7433  155.9712 O   0  0  0  0  0  0  0  0  0  0  0  0
  149.6291  136.4108  154.4466 N   0  0  0  0  0  0  0  0  0  0  0  0
  150.1676  137.4463  155.3235 C   0  0  2  0  0  0  0  0  0  0  0  0
  150.2209  138.7850  154.5647 C   0  0  0  0  0  0  0  0  0  0  0  0
  150.8422  139.9006  155.4233 C   0  0  0  0  0  0  0  0  0  0  0  0
  152.2312  139.5149  155.9654 C   0  0  2  0  0  0  0  0  0  0  0  0
  153.1702  139.4769  154.9086 O   0  0  0  0  0  0  0  0  0  0  0  0
  152.1968  138.1574  156.6923 C   0  0  0  0  0  0  0  0  0  0  0  0
  151.5690  137.0484  155.8298 C   0  0  0  0  0  0  0  0  0  0  0  0
  147.2765  132.5154  152.5832 S   0  0  0  0  0  0  0  0  0  0  0  0
  148.3638  128.3223  153.2107 H   0  0  0  0  0  0  0  0  0  0  0  0
  148.2739  128.9101  151.5518 H   0  0  0  0  0  0  0  0  0  0  0  0
  147.1197  127.7104  152.1266 H   0  0  0  0  0  0  0  0  0  0  0  0
  146.1943  129.3402  153.7319 H   0  0  0  0  0  0  0  0  0  0  0  0
  144.9629  130.8145  152.2036 H   0  0  0  0  0  0  0  0  0  0  0  0
  145.0891  129.1913  151.5345 H   0  0  0  0  0  0  0  0  0  0  0  0
  146.1137  130.4810  150.9113 H   0  0  0  0  0  0  0  0  0  0  0  0
  148.8257  134.9211  152.8887 H   0  0  0  0  0  0  0  0  0  0  0  0
  149.4942  136.6646  153.4788 H   0  0  0  0  0  0  0  0  0  0  0  0
  149.5038  137.5696  156.1815 H   0  0  0  0  0  0  0  0  0  0  0  0
  150.8006  138.6679  153.6478 H   0  0  0  0  0  0  0  0  0  0  0  0
  149.2168  139.0791  154.2570 H   0  0  0  0  0  0  0  0  0  0  0  0
  150.9040  140.8255  154.8486 H   0  0  0  0  0  0  0  0  0  0  0  0
  150.1790  140.1098  156.2634 H   0  0  0  0  0  0  0  0  0  0  0  0
  152.5680  140.2838  156.6614 H   0  0  0  0  0  0  0  0  0  0  0  0
  152.7707  139.8510  154.1381 H   0  0  0  0  0  0  0  0  0  0  0  0
  153.2014  137.8676  157.0022 H   0  0  0  0  0  0  0  0  0  0  0  0
  151.6154  138.2609  157.6092 H   0  0  0  0  0  0  0  0  0  0  0  0
  151.5113  136.1275  156.4109 H   0  0  0  0  0  0  0  0  0  0  0  0
  152.2211  136.8346  154.9818 H   0  0  0  0  0  0  0  0  0  0  0  0
  1  2  1  0  0  0  0
  1 20  1  0  0  0  0
  1 21  1  0  0  0  0
  1 22  1  0  0  0  0
  2  3  1  0  0  0  0
  2  4  1  0  0  0  0
  2 23  1  0  0  0  0
  3 24  1  0  0  0  0
  3 25  1  0  0  0  0
  3 26  1  0  0  0  0
  4 19  1  0  0  0  0
  4  5  2  0  0  0  0
  5  6  1  0  0  0  0
  6  7  2  0  0  0  0
  7  8  1  0  0  0  0
  7 19  1  0  0  0  0
  8  9  1  0  0  0  0
  8 27  1  0  0  0  0
  9 10  2  0  0  0  0
  9 11  1  0  0  0  0
 11 12  1  0  0  0  0
 11 28  1  0  0  0  0
 12 18  1  0  0  0  0
 12 13  1  0  0  0  0
 12 29  1  0  0  0  0
 13 14  1  0  0  0  0
 13 30  1  0  0  0  0
 13 31  1  0  0  0  0
 14 15  1  0  0  0  0
 14 32  1  0  0  0  0
 14 33  1  0  0  0  0
 15 16  1  0  0  0  0
 15 17  1  0  0  0  0
 15 34  1  0  0  0  0
 16 35  1  0  0  0  0
 17 18  1  0  0  0  0
 17 36  1  0  0  0  0
 17 37  1  0  0  0  0
 18 38  1  0  0  0  0
 18 39  1  0  0  0  0
M  END
> <s_m_source_file>
AV-unprocessed.smi

> <i_m_source_file_index>
2005

> <i_lp_mmshare_version>
43012

> <i_f3d_flags>
0

> <s_epik_input>
W0NIM11bQ0hdKFtDSDNdKWMxbm5jKHMxKVtOSF1DKD1PKVtOSF1bQ0BASF0yW0NIMl1bQ0gyXVtDQEBIXShbT0hdKVtDSDJdW0NIMl0y

> <s_epik_cmdline>
J2VwaWtfcHl0aG9uJywgJy1waCcsICc3LjAnLCAnLXRuJywgJzgnLCAnLW1hJywgJzIwMCcsICctbWV0YWxfYmluZGluZycsICctaW1hZScsICc8aW5maWxlLm1hZT4nLCAnLW9tYWUnLCAnPG91dGZpbGUubWFlPic=

> <r_lp_tautomer_probability>
1

> <r_epik_Ionization_Penalty>
0.000372581

> <r_epik_Ionization_Penalty_Charging>
0

> <r_epik_Ionization_Penalty_Neutral>
0.000372581

> <r_epik_State_Penalty>
-0

> <r_epik_Charging_Adjusted_Penalty>
0

> <i_epik_Tot_Q>
0

> <i_epik_Tot_abs_Q>
0

> <r_epik_Metal_State_Penalty>
0.186152

> <b_epik_Metal_Only>
0

> <s_lp_Force_Field>
OPLS_2005

> <r_lp_Energy>
3.3573

> <b_lp_Chiralities_Consistent>
1

> <s_lp_Variant>
AV-unprocessed.smi:2005-2

> <Gold.Version>
5.8.1

> <Gold.Id.Protein>
6NUR|6NUR_protein|mol2

> <Gold.PLP.Fitness>
38.3902

> <Gold.PLP.PLP>
-29.8495

> <Gold.PLP.part.hbond>
-4.0000

> <Gold.PLP.part.metal>
0.0000

> <Gold.PLP.part.buried>
-2.8086

> <Gold.PLP.part.nonpolar>
-23.8209

> <Gold.PLP.part.repulsive>
0.1214

> <Gold.PLP.ligand.clash>
0.0000

> <Gold.PLP.ligand.torsion>
0.2572

> <Gold.PLP.Chemscore.Hbond>
2.9920

> <Gold.PLP.Chemscore.CHOScore>
0.0000

> <Gold.PLP.Chemscore.Metal>
0.0000

> <Gold.Chemscore.Hbonds>
donor molecule, donor type, donor heavy atom, donor atom, acceptor molecule, acceptor atom, score
      L1  H     8    27       P1  7948  0.85
      L1  H    11    28       P1  7948  0.99
      P1  H  7997  8010       L1    16  0.70

> <Gold.PLP.Chemscore.Internal.Correction>
0.0790

> <Gold.Rescore>
     Score         DG    S(hbond)    S(metal)    S(lipo)     H(rot)  DE(clash)    DE(int)     intcor
     15.51     -16.92       2.40        0.00      66.95       1.72       0.04       1.37       ----

> <Gold.Chemscore.Fitness>
15.5107

> <Gold.Chemscore.DG>
-16.9246

> <Gold.Chemscore.ZeroCoef>
-5.4800

> <Gold.Chemscore.Hbond>
2.4002

> <Gold.Chemscore.Metal>
0.0000

> <Gold.Chemscore.Lipo>
66.9494

> <Gold.Chemscore.Internal_Hbond>
0.0000

> <Gold.Chemscore.DEClash>
0.0446

> <Gold.Chemscore.DEInternal>
1.3693

> <Gold.Chemscore.Rot>
1.7207

> <Gold.Chemscore.Internal.Correction>
   9.000000E+99

> <Gold.Chemscore.Hbonds>
donor molecule, donor type, donor heavy atom, donor atom, acceptor molecule, acceptor atom, score
      L1  H     8    27       P1  7948  0.14
      L1  H    11    28       P1  7948  0.74
      P1  H  7997  8010       L1    16  0.07

> <Gold.Chemscore.Hbond.Weighted>
-8.0166

> <Gold.Chemscore.Metal.Weighted>
-0.0000

> <Gold.Chemscore.Lipo.Weighted>
-7.8331

> <Gold.Chemscore.Internal_Hbond.Weighted>
0.0000

> <Gold.Chemscore.DEClash.Weighted>
0.0446

> <Gold.Chemscore.DEInternal.Weighted>
1.3693

> <Gold.Chemscore.Rot.Weighted>
4.4051

> <Gold.Chemscore.Internal.Correction.Weighted>
   9.000000E+99

> <Gold.Protein.RotatedTorsions>
[ 6907 6896 6895 6894 ] final  -57.83 input  -60.11 | X-H torsion
[ 7974 7965 7964 7962 ] final  134.75 input  175.53 | X-H torsion
[ 8008 7997 7996 7995 ] final  105.88 input   59.86 | X-H torsion
[ 10167 10162 10161 10158 ] final  113.36 input  -65.29 | X-H torsion
[ 10718 10713 10712 10709 ] final  -33.14 input   66.30 | X-H torsion
[ 10763 10752 10751 10750 ] final -115.12 input  -60.55 | X-H torsion
[ 11005 11000 10999 10996 ] final  -14.30 input  -57.11 | X-H torsion

> <Gold.Protein.ActiveResidues>
 VAL166  LYS551  ARG553  GLY616  TRP617  ASP618  TYR619  PRO620  LYS621  CYS622 
 ASP623  PHE694  ASN695  SER759  ASP760  ASP761  ALA762  ILE779  LEU786  VAL792 
 PHE793  MET794  SER795  GLU796  ALA797  LYS798  CYS799  TRP800  GLU811  SER814 

> <Gold.Protein.RotatedAtoms>
  150.8055  134.7177  159.6639 H   0  0  0  0  0  0  0  0  0  0  0  0  # atno 6907 bound_to 6896
  152.4174  134.6013  160.0010 H   0  0  0  0  0  0  0  0  0  0  0  0  # atno 6908 bound_to 6896
  151.6238  133.3300  159.3130 H   0  0  0  0  0  0  0  0  0  0  0  0  # atno 6909 bound_to 6896
  144.9732  139.4583  143.5423 H   0  0  0  0  0  0  0  0  0  0  0  0  # atno 7974 bound_to 7965
  156.1697  140.3122  155.8951 H   0  0  0  0  0  0  0  0  0  0  0  0  # atno 8008 bound_to 7997
  155.3613  140.0476  157.3063 H   0  0  0  0  0  0  0  0  0  0  0  0  # atno 8009 bound_to 7997
  154.5228  140.2204  155.8955 H   0  0  0  0  0  0  0  0  0  0  0  0  # atno 8010 bound_to 7997
  139.6467  144.7127  151.2128 H   0  0  0  0  0  0  0  0  0  0  0  0  # atno 10167 bound_to 10162
  156.3663  130.4332  149.7582 H   0  0  0  0  0  0  0  0  0  0  0  0  # atno 10718 bound_to 10713
  154.8468  135.4393  154.1614 H   0  0  0  0  0  0  0  0  0  0  0  0  # atno 10763 bound_to 10752
  153.2750  135.6948  153.7449 H   0  0  0  0  0  0  0  0  0  0  0  0  # atno 10764 bound_to 10752
  153.6675  135.3424  155.3119 H   0  0  0  0  0  0  0  0  0  0  0  0  # atno 10765 bound_to 10752
  140.7850  133.8332  155.9327 H   0  0  0  0  0  0  0  0  0  0  0  0  # atno 11005 bound_to 11000
  146.3388  139.8957  142.8802 LP  0  0  0  0  0  0  0  0  0  0  0  0  # atno 17320 bound_to 7965
  145.2528  141.0050  143.3871 LP  0  0  0  0  0  0  0  0  0  0  0  0  # atno 17321 bound_to 7965
  140.7518  143.6219  150.8505 LP  0  0  0  0  0  0  0  0  0  0  0  0  # atno 17342 bound_to 10162
  139.9862  143.5896  152.2926 LP  0  0  0  0  0  0  0  0  0  0  0  0  # atno 17343 bound_to 10162
  156.4727  130.8004  151.3021 LP  0  0  0  0  0  0  0  0  0  0  0  0  # atno 17370 bound_to 10713
  157.7479  131.0031  150.3024 LP  0  0  0  0  0  0  0  0  0  0  0  0  # atno 17371 bound_to 10713
  140.9445  134.1858  157.4773 LP  0  0  0  0  0  0  0  0  0  0  0  0  # atno 17394 bound_to 11000
  139.8738  134.9885  156.5415 LP  0  0  0  0  0  0  0  0  0  0  0  0  # atno 17395 bound_to 11000

$$$$
