AV-unprocessed.smi:3278|AV-procd|sdf|12541|dock3
  -GOLD-   2272018453D 1   1.00000     0.00000
 Structure written by MMmdl.
 39 40  0  0  0  0  0  0  0  0  2 V2000
  148.5940  135.8747  155.2999 C   0  0  0  0  0  0  0  0  0  0  0  0
  148.6676  137.3002  155.5384 N   0  0  0  0  0  0  0  0  0  0  0  0
  149.0469  138.3002  154.6698 C   0  0  0  0  0  0  0  0  0  0  0  0
  148.9614  139.4891  155.3418 C   0  0  0  0  0  0  0  0  0  0  0  0
  149.2589  140.8844  154.8342 C   0  0  2  0  0  0  0  0  0  0  0  0
  147.9595  141.7030  154.7402 C   0  0  0  0  0  0  0  0  0  0  0  0
  149.7990  140.8657  153.5257 O   0  0  0  0  0  0  0  0  0  0  0  0
  150.2835  141.5983  155.7422 C   0  0  0  0  0  0  0  0  0  0  0  0
  149.6246  142.3016  156.8666 N   0  3  0  0  0  0  0  0  0  0  0  0
  150.5352  142.9008  157.8665 C   0  0  2  0  0  0  0  0  0  0  0  0
  149.7518  143.7471  158.8946 C   0  0  0  0  0  0  0  0  0  0  0  0
  150.6545  144.3515  159.9829 C   0  0  0  0  0  0  0  0  0  0  0  0
  151.7219  145.2907  159.4062 C   0  0  0  0  0  0  0  0  0  0  0  0
  152.8368  144.3994  158.2896 S   0  0  0  0  0  0  0  0  0  0  0  0
  151.5960  143.7469  157.1392 C   0  0  0  0  0  0  0  0  0  0  0  0
  148.5151  139.0946  156.6382 C   0  0  0  0  0  0  0  0  0  0  0  0
  148.3362  137.7892  156.7497 N   0  0  0  0  0  0  0  0  0  0  0  0
  148.8724  135.6525  154.2695 H   0  0  0  0  0  0  0  0  0  0  0  0
  147.5773  135.5223  155.4762 H   0  0  0  0  0  0  0  0  0  0  0  0
  149.2760  135.3526  155.9721 H   0  0  0  0  0  0  0  0  0  0  0  0
  149.3439  138.0863  153.6534 H   0  0  0  0  0  0  0  0  0  0  0  0
  147.4805  141.8051  155.7146 H   0  0  0  0  0  0  0  0  0  0  0  0
  147.2404  141.2299  154.0700 H   0  0  0  0  0  0  0  0  0  0  0  0
  148.1467  142.7095  154.3642 H   0  0  0  0  0  0  0  0  0  0  0  0
  149.3105  140.2469  153.0040 H   0  0  0  0  0  0  0  0  0  0  0  0
  151.0087  140.8793  156.1236 H   0  0  0  0  0  0  0  0  0  0  0  0
  150.8444  142.3296  155.1581 H   0  0  0  0  0  0  0  0  0  0  0  0
  149.0759  143.0483  156.4643 H   0  0  0  0  0  0  0  0  0  0  0  0
  151.0496  142.0891  158.3838 H   0  0  0  0  0  0  0  0  0  0  0  0
  149.2142  144.5468  158.3829 H   0  0  0  0  0  0  0  0  0  0  0  0
  148.9932  143.1380  159.3852 H   0  0  0  0  0  0  0  0  0  0  0  0
  150.0389  144.9032  160.6942 H   0  0  0  0  0  0  0  0  0  0  0  0
  151.1342  143.5535  160.5512 H   0  0  0  0  0  0  0  0  0  0  0  0
  151.2542  146.1126  158.8625 H   0  0  0  0  0  0  0  0  0  0  0  0
  152.3106  145.7330  160.2101 H   0  0  0  0  0  0  0  0  0  0  0  0
  152.1132  143.1468  156.3898 H   0  0  0  0  0  0  0  0  0  0  0  0
  151.1295  144.5806  156.6130 H   0  0  0  0  0  0  0  0  0  0  0  0
  148.3110  139.7175  157.4968 H   0  0  0  0  0  0  0  0  0  0  0  0
  148.9952  141.6638  157.3328 H   0  0  0  0  0  0  0  0  0  0  0  0
  1  2  1  0  0  0  0
  1 18  1  0  0  0  0
  1 19  1  0  0  0  0
  1 20  1  0  0  0  0
  2 17  1  0  0  0  0
  2  3  1  0  0  0  0
  3  4  2  0  0  0  0
  3 21  1  0  0  0  0
  4  5  1  0  0  0  0
  4 16  1  0  0  0  0
  5  6  1  0  0  0  0
  5  7  1  0  0  0  0
  5  8  1  0  0  0  0
  6 22  1  0  0  0  0
  6 23  1  0  0  0  0
  6 24  1  0  0  0  0
  7 25  1  0  0  0  0
  8  9  1  0  0  0  0
  8 26  1  0  0  0  0
  8 27  1  0  0  0  0
  9 10  1  0  0  0  0
  9 28  1  0  0  0  0
  9 39  1  0  0  0  0
 10 15  1  0  0  0  0
 10 11  1  0  0  0  0
 10 29  1  0  0  0  0
 11 12  1  0  0  0  0
 11 30  1  0  0  0  0
 11 31  1  0  0  0  0
 12 13  1  0  0  0  0
 12 32  1  0  0  0  0
 12 33  1  0  0  0  0
 13 14  1  0  0  0  0
 13 34  1  0  0  0  0
 13 35  1  0  0  0  0
 14 15  1  0  0  0  0
 15 36  1  0  0  0  0
 15 37  1  0  0  0  0
 16 17  2  0  0  0  0
 16 38  1  0  0  0  0
M  CHG  1   9   1
M  END
> <s_m_source_file>
AV-unprocessed.smi

> <i_m_source_file_index>
3278

> <i_lp_mmshare_version>
43012

> <i_f3d_flags>
0

> <s_epik_input>
W0NIM11uMVtjSF1jKFtjSF1uMSlbQ0BAXShbQ0gzXSkoW09IXSlbQ0gyXVtOSF1bQ0BASF0yW0NIMl1bQ0gyXVtDSDJdU1tDSDJdMg==

> <s_epik_cmdline>
J2VwaWtfcHl0aG9uJywgJy1waCcsICc3LjAnLCAnLXRuJywgJzgnLCAnLW1hJywgJzIwMCcsICctbWV0YWxfYmluZGluZycsICctaW1hZScsICc8aW5maWxlLm1hZT4nLCAnLW9tYWUnLCAnPG91dGZpbGUubWFlPic=

> <r_lp_tautomer_probability>
1

> <r_epik_Ionization_Penalty>
0.0185703

> <r_epik_Ionization_Penalty_Charging>
0.0185619

> <r_epik_Ionization_Penalty_Neutral>
8.47286e-06

> <r_epik_State_Penalty>
0.0147768

> <r_epik_Charging_Adjusted_Penalty>
0.0333386

> <i_epik_Tot_Q>
1

> <i_epik_Tot_abs_Q>
1

> <r_epik_Metal_State_Penalty>
0.0147782

> <b_epik_Metal_Only>
0

> <s_lp_Force_Field>
OPLS_2005

> <r_lp_Energy>
8.69531

> <b_lp_Chiralities_Consistent>
1

> <s_lp_Variant>
AV-unprocessed.smi:3278-2

> <Gold.Version>
5.8.1

> <Gold.Id.Protein>
6NUR|6NUR_protein|mol2

> <Gold.PLP.Fitness>
45.2568

> <Gold.PLP.PLP>
-32.5652

> <Gold.PLP.part.hbond>
-3.5433

> <Gold.PLP.part.metal>
0.0000

> <Gold.PLP.part.buried>
-2.7558

> <Gold.PLP.part.nonpolar>
-25.9671

> <Gold.PLP.part.repulsive>
0.0131

> <Gold.PLP.ligand.clash>
0.0000

> <Gold.PLP.ligand.torsion>
0.6602

> <Gold.PLP.Chemscore.Hbond>
3.7840

> <Gold.PLP.Chemscore.CHOScore>
0.8784

> <Gold.PLP.Chemscore.Metal>
0.0000

> <Gold.Chemscore.Hbonds>
donor molecule, donor type, donor heavy atom, donor atom, acceptor molecule, acceptor atom, score
      L1  H     7    25       P1  7957  0.43
      L1  H     9    28       P1  8028  2.00
      P1  H  7989  7998       L1     7  0.34
      P1  H  8011  8017       L1     7  1.00
      L1  C     3    21       P1  7948  0.88

> <Gold.PLP.Chemscore.Internal.Correction>
0.0248

> <Gold.Rescore>
     Score         DG    S(hbond)    S(metal)    S(lipo)     H(rot)  DE(clash)    DE(int)     intcor
     18.37     -19.02       2.30        0.00      93.82       2.00       0.10       0.55       ----

> <Gold.Chemscore.Fitness>
18.3713

> <Gold.Chemscore.DG>
-19.0248

> <Gold.Chemscore.ZeroCoef>
-5.4800

> <Gold.Chemscore.Hbond>
2.3046

> <Gold.Chemscore.Metal>
0.0000

> <Gold.Chemscore.Lipo>
93.8205

> <Gold.Chemscore.Internal_Hbond>
0.0000

> <Gold.Chemscore.DEClash>
0.0998

> <Gold.Chemscore.DEInternal>
0.5538

> <Gold.Chemscore.Rot>
2.0038

> <Gold.Chemscore.Internal.Correction>
   9.000000E+99

> <Gold.Chemscore.Hbonds>
donor molecule, donor type, donor heavy atom, donor atom, acceptor molecule, acceptor atom, score
      L1  H     7    25       P1  7957  0.44
      L1  H     9    28       P1  8028  0.97
      P1  H  7989  7998       L1     7  0.30
      P1  H  8011  8017       L1     7  0.29

> <Gold.Chemscore.Hbond.Weighted>
-7.6975

> <Gold.Chemscore.Metal.Weighted>
-0.0000

> <Gold.Chemscore.Lipo.Weighted>
-10.9770

> <Gold.Chemscore.Internal_Hbond.Weighted>
0.0000

> <Gold.Chemscore.DEClash.Weighted>
0.0998

> <Gold.Chemscore.DEInternal.Weighted>
0.5538

> <Gold.Chemscore.Rot.Weighted>
5.1296

> <Gold.Chemscore.Internal.Correction.Weighted>
   9.000000E+99

> <Gold.Protein.RotatedTorsions>
[ 6907 6896 6895 6894 ] final  -55.65 input  -60.11 | X-H torsion
[ 7974 7965 7964 7962 ] final  166.55 input  175.53 | X-H torsion
[ 8008 7997 7996 7995 ] final -109.51 input   59.86 | X-H torsion
[ 10167 10162 10161 10158 ] final  130.48 input  -65.29 | X-H torsion
[ 10718 10713 10712 10709 ] final -163.74 input   66.30 | X-H torsion
[ 10763 10752 10751 10750 ] final -170.27 input  -60.55 | X-H torsion
[ 11005 11000 10999 10996 ] final  125.71 input  -57.11 | X-H torsion

> <Gold.Protein.ActiveResidues>
 VAL166  LYS551  ARG553  GLY616  TRP617  ASP618  TYR619  PRO620  LYS621  CYS622 
 ASP623  PHE694  ASN695  SER759  ASP760  ASP761  ALA762  ILE779  LEU786  VAL792 
 PHE793  MET794  SER795  GLU796  ALA797  LYS798  CYS799  TRP800  GLU811  SER814 

> <Gold.Protein.RotatedAtoms>
  150.8234  134.7453  159.6791 H   0  0  0  0  0  0  0  0  0  0  0  0  # atno 6907 bound_to 6896
  152.4347  134.5706  159.9930 H   0  0  0  0  0  0  0  0  0  0  0  0  # atno 6908 bound_to 6896
  151.5884  133.3332  159.3058 H   0  0  0  0  0  0  0  0  0  0  0  0  # atno 6909 bound_to 6896
  144.7458  139.8632  143.6382 H   0  0  0  0  0  0  0  0  0  0  0  0  # atno 7974 bound_to 7965
  154.9604  140.0399  157.2187 H   0  0  0  0  0  0  0  0  0  0  0  0  # atno 8008 bound_to 7997
  154.7894  140.2833  155.5981 H   0  0  0  0  0  0  0  0  0  0  0  0  # atno 8009 bound_to 7997
  156.2947  140.2576  156.2738 H   0  0  0  0  0  0  0  0  0  0  0  0  # atno 8010 bound_to 7997
  139.5428  144.6746  151.4570 H   0  0  0  0  0  0  0  0  0  0  0  0  # atno 10167 bound_to 10162
  156.6290  130.8921  151.2973 H   0  0  0  0  0  0  0  0  0  0  0  0  # atno 10718 bound_to 10713
  154.6433  135.2901  155.0076 H   0  0  0  0  0  0  0  0  0  0  0  0  # atno 10763 bound_to 10752
  154.1195  135.6550  153.4904 H   0  0  0  0  0  0  0  0  0  0  0  0  # atno 10764 bound_to 10752
  153.0338  135.5284  154.7310 H   0  0  0  0  0  0  0  0  0  0  0  0  # atno 10765 bound_to 10752
  139.9420  134.9634  156.8599 H   0  0  0  0  0  0  0  0  0  0  0  0  # atno 11005 bound_to 11000
  146.1333  139.4373  143.0155 LP  0  0  0  0  0  0  0  0  0  0  0  0  # atno 17320 bound_to 7965
  145.7129  141.0100  143.1443 LP  0  0  0  0  0  0  0  0  0  0  0  0  # atno 17321 bound_to 7965
  140.6665  143.8387  150.6947 LP  0  0  0  0  0  0  0  0  0  0  0  0  # atno 17342 bound_to 10162
  140.1798  143.4124  152.1941 LP  0  0  0  0  0  0  0  0  0  0  0  0  # atno 17343 bound_to 10162
  157.7205  130.9553  150.1422 LP  0  0  0  0  0  0  0  0  0  0  0  0  # atno 17370 bound_to 10713
  156.2250  130.3677  149.8511 LP  0  0  0  0  0  0  0  0  0  0  0  0  # atno 17371 bound_to 10713
  140.5928  134.0245  155.7506 LP  0  0  0  0  0  0  0  0  0  0  0  0  # atno 17394 bound_to 11000
  141.1058  133.9696  157.3000 LP  0  0  0  0  0  0  0  0  0  0  0  0  # atno 17395 bound_to 11000

$$$$
