AV-unprocessed.smi:1433|AV-procd|sdf|5843|dock2
  -GOLD-   22720 5503D 1   1.00000     0.00000
 Structure written by MMmdl.
 45 46  0  0  0  0  0  0  0  0  2 V2000
  154.3185  140.2258  159.9343 C   0  0  0  0  0  0  0  0  0  0  0  0
  153.1770  141.2414  160.0587 C   0  0  2  0  0  0  0  0  0  0  0  0
  152.1633  141.1135  158.9093 C   0  0  0  0  0  0  0  0  0  0  0  0
  151.1027  142.1503  159.0141 N   0  3  2  0  0  0  0  0  0  0  0  0
  150.0129  141.9564  158.0021 C   0  0  1  0  0  0  0  0  0  0  0  0
  148.7714  142.7894  158.3965 C   0  0  0  0  0  0  0  0  0  0  0  0
  150.4400  142.2817  156.5424 C   0  0  0  0  0  0  0  0  0  0  0  0
  149.3622  142.0803  155.5798 N   0  0  0  0  0  0  0  0  0  0  0  0
  149.3252  141.1098  154.6536 C   0  0  0  0  0  0  0  0  0  0  0  0
  150.2396  140.3049  154.4778 O   0  0  0  0  0  0  0  0  0  0  0  0
  148.0530  141.0230  153.8105 C   0  0  0  0  0  0  0  0  0  0  0  0
  147.0444  141.9455  154.3016 N   0  0  0  0  0  0  0  0  0  0  0  0
  146.3276  142.8870  153.5929 C   0  0  0  0  0  0  0  0  0  0  0  0
  145.4878  143.5058  154.4739 C   0  0  0  0  0  0  0  0  0  0  0  0
  145.7678  142.8670  155.7141 C   0  0  0  0  0  0  0  0  0  0  0  0
  146.6971  141.9312  155.6076 N   0  0  0  0  0  0  0  0  0  0  0  0
  151.7331  143.4989  159.0427 C   0  0  0  0  0  0  0  0  0  0  0  0
  152.8056  143.6068  160.1460 C   0  0  1  0  0  0  0  0  0  0  0  0
  152.2194  143.7174  161.5653 C   0  0  0  0  0  0  0  0  0  0  0  0
  153.7490  142.5441  160.0348 O   0  0  0  0  0  0  0  0  0  0  0  0
  153.9394  139.2038  159.9556 H   0  0  0  0  0  0  0  0  0  0  0  0
  155.0269  140.3336  160.7561 H   0  0  0  0  0  0  0  0  0  0  0  0
  154.8677  140.3601  159.0019 H   0  0  0  0  0  0  0  0  0  0  0  0
  152.6764  141.0706  161.0119 H   0  0  0  0  0  0  0  0  0  0  0  0
  152.6725  141.2120  157.9488 H   0  0  0  0  0  0  0  0  0  0  0  0
  151.7343  140.1134  158.9341 H   0  0  0  0  0  0  0  0  0  0  0  0
  149.7356  140.9012  158.0255 H   0  0  0  0  0  0  0  0  0  0  0  0
  147.9368  142.6218  157.7154 H   0  0  0  0  0  0  0  0  0  0  0  0
  148.9960  143.8564  158.3839 H   0  0  0  0  0  0  0  0  0  0  0  0
  148.3990  142.5445  159.3896 H   0  0  0  0  0  0  0  0  0  0  0  0
  150.7641  143.3202  156.4683 H   0  0  0  0  0  0  0  0  0  0  0  0
  151.2806  141.6637  156.2239 H   0  0  0  0  0  0  0  0  0  0  0  0
  148.5645  142.6965  155.6493 H   0  0  0  0  0  0  0  0  0  0  0  0
  148.2769  141.2465  152.7662 H   0  0  0  0  0  0  0  0  0  0  0  0
  147.6489  140.0103  153.8440 H   0  0  0  0  0  0  0  0  0  0  0  0
  146.4724  143.0347  152.5327 H   0  0  0  0  0  0  0  0  0  0  0  0
  144.7818  144.2958  154.2645 H   0  0  0  0  0  0  0  0  0  0  0  0
  145.3255  143.0536  156.6816 H   0  0  0  0  0  0  0  0  0  0  0  0
  152.1838  143.7004  158.0695 H   0  0  0  0  0  0  0  0  0  0  0  0
  150.9932  144.2780  159.2240 H   0  0  0  0  0  0  0  0  0  0  0  0
  153.3676  144.5244  159.9694 H   0  0  0  0  0  0  0  0  0  0  0  0
  151.6148  144.6191  161.6648 H   0  0  0  0  0  0  0  0  0  0  0  0
  153.0138  143.7716  162.3102 H   0  0  0  0  0  0  0  0  0  0  0  0
  151.5806  142.8718  161.8183 H   0  0  0  0  0  0  0  0  0  0  0  0
  150.6666  142.0350  159.9177 H   0  0  0  0  0  0  0  0  0  0  0  0
  1  2  1  0  0  0  0
  1 21  1  0  0  0  0
  1 22  1  0  0  0  0
  1 23  1  0  0  0  0
  2 20  1  0  0  0  0
  2  3  1  0  0  0  0
  2 24  1  0  0  0  0
  3  4  1  0  0  0  0
  3 25  1  0  0  0  0
  3 26  1  0  0  0  0
  4  5  1  0  0  0  0
  4 17  1  0  0  0  0
  4 45  1  0  0  0  0
  5  6  1  0  0  0  0
  5  7  1  0  0  0  0
  5 27  1  0  0  0  0
  6 28  1  0  0  0  0
  6 29  1  0  0  0  0
  6 30  1  0  0  0  0
  7  8  1  0  0  0  0
  7 31  1  0  0  0  0
  7 32  1  0  0  0  0
  8  9  1  0  0  0  0
  8 33  1  0  0  0  0
  9 10  2  0  0  0  0
  9 11  1  0  0  0  0
 11 12  1  0  0  0  0
 11 34  1  0  0  0  0
 11 35  1  0  0  0  0
 12 16  1  0  0  0  0
 12 13  1  0  0  0  0
 13 14  2  0  0  0  0
 13 36  1  0  0  0  0
 14 15  1  0  0  0  0
 14 37  1  0  0  0  0
 15 16  2  0  0  0  0
 15 38  1  0  0  0  0
 17 18  1  0  0  0  0
 17 39  1  0  0  0  0
 17 40  1  0  0  0  0
 18 19  1  0  0  0  0
 18 20  1  0  0  0  0
 18 41  1  0  0  0  0
 19 42  1  0  0  0  0
 19 43  1  0  0  0  0
 19 44  1  0  0  0  0
M  CHG  1   4   1
M  END
> <s_m_source_file>
AV-unprocessed.smi

> <i_m_source_file_index>
1433

> <i_lp_mmshare_version>
43012

> <i_f3d_flags>
0

> <s_epik_input>
W0NIM11bQ0BASF0xW0NIMl1OKFtDSDJdW0NASF0oTzEpW0NIM10pW0NASF0oW0NIM10pW0NIMl1bTkhdQyg9TylbQ0gyXW4yW2NIXVtjSF1bY0hdbjI=

> <s_epik_cmdline>
J2VwaWtfcHl0aG9uJywgJy1waCcsICc3LjAnLCAnLXRuJywgJzgnLCAnLW1hJywgJzIwMCcsICctbWV0YWxfYmluZGluZycsICctaW1hZScsICc8aW5maWxlLm1hZT4nLCAnLW9tYWUnLCAnPG91dGZpbGUubWFlPic=

> <r_lp_tautomer_probability>
1

> <r_epik_Ionization_Penalty>
0.748405

> <r_epik_Ionization_Penalty_Charging>
0.748396

> <r_epik_Ionization_Penalty_Neutral>
8.54426e-06

> <r_epik_State_Penalty>
0.775162

> <r_epik_Charging_Adjusted_Penalty>
1.52356

> <i_epik_Tot_Q>
1

> <i_epik_Tot_abs_Q>
1

> <r_epik_Metal_State_Penalty>
0.775167

> <b_epik_Metal_Only>
0

> <s_lp_Force_Field>
OPLS_2005

> <r_lp_Energy>
20.9037

> <b_lp_Chiralities_Consistent>
1

> <s_lp_Variant>
AV-unprocessed.smi:1433-9

> <Gold.Version>
5.8.1

> <Gold.Id.Protein>
6NUR|6NUR_protein|mol2

> <Gold.PLP.Fitness>
46.6827

> <Gold.PLP.PLP>
-43.1124

> <Gold.PLP.part.hbond>
-2.0000

> <Gold.PLP.part.metal>
0.0000

> <Gold.PLP.part.buried>
-5.3436

> <Gold.PLP.part.nonpolar>
-36.5643

> <Gold.PLP.part.repulsive>
0.5204

> <Gold.PLP.ligand.clash>
0.0000

> <Gold.PLP.ligand.torsion>
0.2763

> <Gold.PLP.Chemscore.Hbond>
1.3440

> <Gold.PLP.Chemscore.CHOScore>
0.0000

> <Gold.PLP.Chemscore.Metal>
0.0000

> <Gold.Chemscore.Hbonds>
donor molecule, donor type, donor heavy atom, donor atom, acceptor molecule, acceptor atom, score
      L1  H     8    33       P1  8028  0.37
      P1  H  7989  7998       L1    10  1.00

> <Gold.PLP.Chemscore.Internal.Correction>
0.0909

> <Gold.Rescore>
     Score         DG    S(hbond)    S(metal)    S(lipo)     H(rot)  DE(clash)    DE(int)     intcor
     14.80     -16.64       1.27        0.00     100.07       1.87       0.12       1.73       ----

> <Gold.Chemscore.Fitness>
14.7953

> <Gold.Chemscore.DG>
-16.6401

> <Gold.Chemscore.ZeroCoef>
-5.4800

> <Gold.Chemscore.Hbond>
1.2659

> <Gold.Chemscore.Metal>
0.0000

> <Gold.Chemscore.Lipo>
100.0710

> <Gold.Chemscore.Internal_Hbond>
0.0000

> <Gold.Chemscore.DEClash>
0.1178

> <Gold.Chemscore.DEInternal>
1.7271

> <Gold.Chemscore.Rot>
1.8657

> <Gold.Chemscore.Internal.Correction>
   9.000000E+99

> <Gold.Chemscore.Hbonds>
donor molecule, donor type, donor heavy atom, donor atom, acceptor molecule, acceptor atom, score
      L1  H     8    33       P1  8028  0.35
      P1  H  7989  7998       L1    10  0.88

> <Gold.Chemscore.Hbond.Weighted>
-4.2280

> <Gold.Chemscore.Metal.Weighted>
-0.0000

> <Gold.Chemscore.Lipo.Weighted>
-11.7083

> <Gold.Chemscore.Internal_Hbond.Weighted>
0.0000

> <Gold.Chemscore.DEClash.Weighted>
0.1178

> <Gold.Chemscore.DEInternal.Weighted>
1.7271

> <Gold.Chemscore.Rot.Weighted>
4.7761

> <Gold.Chemscore.Internal.Correction.Weighted>
   9.000000E+99

> <Gold.Protein.RotatedTorsions>
[ 6907 6896 6895 6894 ] final  -57.64 input  -60.11 | X-H torsion
[ 7974 7965 7964 7962 ] final  141.59 input  175.53 | X-H torsion
[ 8008 7997 7996 7995 ] final   27.83 input   59.86 | X-H torsion
[ 10167 10162 10161 10158 ] final  -74.23 input  -65.29 | X-H torsion
[ 10718 10713 10712 10709 ] final  -36.73 input   66.30 | X-H torsion
[ 10763 10752 10751 10750 ] final  169.86 input  -60.55 | X-H torsion
[ 11005 11000 10999 10996 ] final  -62.23 input  -57.11 | X-H torsion

> <Gold.Protein.ActiveResidues>
 VAL166  LYS551  ARG553  GLY616  TRP617  ASP618  TYR619  PRO620  LYS621  CYS622 
 ASP623  PHE694  ASN695  SER759  ASP760  ASP761  ALA762  ILE779  LEU786  VAL792 
 PHE793  MET794  SER795  GLU796  ALA797  LYS798  CYS799  TRP800  GLU811  SER814 

> <Gold.Protein.RotatedAtoms>
  150.8070  134.7202  159.6653 H   0  0  0  0  0  0  0  0  0  0  0  0  # atno 6907 bound_to 6896
  152.4190  134.5987  160.0004 H   0  0  0  0  0  0  0  0  0  0  0  0  # atno 6908 bound_to 6896
  151.6207  133.3302  159.3123 H   0  0  0  0  0  0  0  0  0  0  0  0  # atno 6909 bound_to 6896
  144.9083  139.5328  143.5721 H   0  0  0  0  0  0  0  0  0  0  0  0  # atno 7974 bound_to 7965
  155.0491  140.3178  155.4698 H   0  0  0  0  0  0  0  0  0  0  0  0  # atno 8008 bound_to 7997
  156.2838  140.2149  156.5560 H   0  0  0  0  0  0  0  0  0  0  0  0  # atno 8009 bound_to 7997
  154.7226  140.0488  157.0641 H   0  0  0  0  0  0  0  0  0  0  0  0  # atno 8010 bound_to 7997
  140.5044  143.2355  151.7698 H   0  0  0  0  0  0  0  0  0  0  0  0  # atno 10167 bound_to 10162
  156.3235  130.4269  149.7938 H   0  0  0  0  0  0  0  0  0  0  0  0  # atno 10718 bound_to 10713
  154.3892  135.2754  155.2165 H   0  0  0  0  0  0  0  0  0  0  0  0  # atno 10763 bound_to 10752
  154.4238  135.5994  153.6030 H   0  0  0  0  0  0  0  0  0  0  0  0  # atno 10764 bound_to 10752
  152.9832  135.5979  154.4145 H   0  0  0  0  0  0  0  0  0  0  0  0  # atno 10765 bound_to 10752
  141.1352  133.6638  156.5496 H   0  0  0  0  0  0  0  0  0  0  0  0  # atno 11005 bound_to 11000
  146.3145  139.7869  142.8994 LP  0  0  0  0  0  0  0  0  0  0  0  0  # atno 17320 bound_to 7965
  145.3498  141.0305  143.3345 LP  0  0  0  0  0  0  0  0  0  0  0  0  # atno 17321 bound_to 7965
  139.4880  144.4477  151.9691 LP  0  0  0  0  0  0  0  0  0  0  0  0  # atno 17342 bound_to 10162
  140.3567  144.3023  150.5940 LP  0  0  0  0  0  0  0  0  0  0  0  0  # atno 17343 bound_to 10162
  156.5238  130.8227  151.3213 LP  0  0  0  0  0  0  0  0  0  0  0  0  # atno 17370 bound_to 10713
  157.7416  130.9874  150.2460 LP  0  0  0  0  0  0  0  0  0  0  0  0  # atno 17371 bound_to 10713
  140.4075  134.7302  157.4816 LP  0  0  0  0  0  0  0  0  0  0  0  0  # atno 17394 bound_to 11000
  140.0451  134.6210  155.8931 LP  0  0  0  0  0  0  0  0  0  0  0  0  # atno 17395 bound_to 11000

$$$$
