AV-unprocessed.smi:2511|AV-procd|sdf|9889|dock3
  -GOLD-   2272013523D 1   1.00000     0.00000
 Structure written by MMmdl.
 40 41  0  0  0  0  0  0  0  0  1 V2000
  143.8176  133.5287  147.7953 N   0  0  0  0  0  0  0  0  0  0  0  0
  143.7245  132.7560  148.8829 C   0  0  0  0  0  0  0  0  0  0  0  0
  142.9525  131.8001  148.9426 O   0  0  0  0  0  0  0  0  0  0  0  0
  144.6503  133.0920  150.0218 C   0  0  0  0  0  0  0  0  0  0  0  0
  144.7635  132.2120  151.1221 C   0  0  0  0  0  0  0  0  0  0  0  0
  145.6290  132.5456  152.1813 C   0  0  0  0  0  0  0  0  0  0  0  0
  146.3638  133.7525  152.1108 C   0  0  0  0  0  0  0  0  0  0  0  0
  147.2577  134.2101  153.1162 N   0  0  0  0  0  0  0  0  0  0  0  0
  147.6522  133.5871  154.2440 C   0  0  0  0  0  0  0  0  0  0  0  0
  147.2734  132.4730  154.5983 O   0  0  0  0  0  0  0  0  0  0  0  0
  148.5403  134.2822  154.9781 N   0  0  0  0  0  0  0  0  0  0  0  0
  149.1739  133.9109  156.2480 C   0  0  1  0  0  0  0  0  0  0  0  0
  150.7072  133.9486  156.1025 C   0  0  0  0  0  0  0  0  0  0  0  0
  151.2430  135.3845  155.9722 C   0  0  0  0  0  0  0  0  0  0  0  0
  150.7774  136.2648  157.1425 C   0  0  0  0  0  0  0  0  0  0  0  0
  149.2398  136.2716  157.2750 C   0  0  2  0  0  0  0  0  0  0  0  0
  148.7626  137.1662  158.4377 C   0  0  0  0  0  0  0  0  0  0  0  0
  147.4316  137.2416  158.4633 F   0  0  0  0  0  0  0  0  0  0  0  0
  149.1881  136.6707  159.5998 F   0  0  0  0  0  0  0  0  0  0  0  0
  149.2613  138.3950  158.3021 F   0  0  0  0  0  0  0  0  0  0  0  0
  148.7131  134.8244  157.4065 C   0  0  0  0  0  0  0  0  0  0  0  0
  146.1661  134.5729  150.9821 C   0  0  0  0  0  0  0  0  0  0  0  0
  145.3394  134.2576  149.9632 N   0  0  0  0  0  0  0  0  0  0  0  0
  143.2206  133.3552  147.0001 H   0  0  0  0  0  0  0  0  0  0  0  0
  144.4860  134.2855  147.7805 H   0  0  0  0  0  0  0  0  0  0  0  0
  144.1982  131.2922  151.1633 H   0  0  0  0  0  0  0  0  0  0  0  0
  145.6991  131.8772  153.0250 H   0  0  0  0  0  0  0  0  0  0  0  0
  147.7081  135.0929  152.9230 H   0  0  0  0  0  0  0  0  0  0  0  0
  148.8166  135.1789  154.6044 H   0  0  0  0  0  0  0  0  0  0  0  0
  148.8978  132.8814  156.4821 H   0  0  0  0  0  0  0  0  0  0  0  0
  151.1600  133.4792  156.9769 H   0  0  0  0  0  0  0  0  0  0  0  0
  151.0205  133.3529  155.2441 H   0  0  0  0  0  0  0  0  0  0  0  0
  152.3324  135.3692  155.9316 H   0  0  0  0  0  0  0  0  0  0  0  0
  150.9082  135.8212  155.0307 H   0  0  0  0  0  0  0  0  0  0  0  0
  151.2275  135.9047  158.0685 H   0  0  0  0  0  0  0  0  0  0  0  0
  151.1458  137.2807  156.9970 H   0  0  0  0  0  0  0  0  0  0  0  0
  148.8306  136.6951  156.3564 H   0  0  0  0  0  0  0  0  0  0  0  0
  147.6250  134.8270  157.4742 H   0  0  0  0  0  0  0  0  0  0  0  0
  149.0664  134.4006  158.3473 H   0  0  0  0  0  0  0  0  0  0  0  0
  146.6924  135.5117  150.8884 H   0  0  0  0  0  0  0  0  0  0  0  0
  1  2  1  0  0  0  0
  1 24  1  0  0  0  0
  1 25  1  0  0  0  0
  2  3  2  0  0  0  0
  2  4  1  0  0  0  0
  4 23  1  0  0  0  0
  4  5  2  0  0  0  0
  5  6  1  0  0  0  0
  5 26  1  0  0  0  0
  6  7  2  0  0  0  0
  6 27  1  0  0  0  0
  7  8  1  0  0  0  0
  7 22  1  0  0  0  0
  8  9  1  0  0  0  0
  8 28  1  0  0  0  0
  9 10  2  0  0  0  0
  9 11  1  0  0  0  0
 11 12  1  0  0  0  0
 11 29  1  0  0  0  0
 12 21  1  0  0  0  0
 12 13  1  0  0  0  0
 12 30  1  0  0  0  0
 13 14  1  0  0  0  0
 13 31  1  0  0  0  0
 13 32  1  0  0  0  0
 14 15  1  0  0  0  0
 14 33  1  0  0  0  0
 14 34  1  0  0  0  0
 15 16  1  0  0  0  0
 15 35  1  0  0  0  0
 15 36  1  0  0  0  0
 16 17  1  0  0  0  0
 16 21  1  0  0  0  0
 16 37  1  0  0  0  0
 17 18  1  0  0  0  0
 17 19  1  0  0  0  0
 17 20  1  0  0  0  0
 21 38  1  0  0  0  0
 21 39  1  0  0  0  0
 22 23  2  0  0  0  0
 22 40  1  0  0  0  0
M  END
> <s_m_source_file>
AV-unprocessed.smi

> <i_m_source_file_index>
2511

> <i_lp_mmshare_version>
43012

> <i_f3d_flags>
0

> <s_epik_input>
W05IMl1DKD1PKWMxW2NIXVtjSF1jKFtjSF1uMSlbTkhdQyg9TylbTkhdW0NAQEhdMltDSDJdW0NIMl1bQ0gyXVtDQEBIXShDKEYpKEYpRilbQ0gyXTI=

> <s_epik_cmdline>
J2VwaWtfcHl0aG9uJywgJy1waCcsICc3LjAnLCAnLXRuJywgJzgnLCAnLW1hJywgJzIwMCcsICctbWV0YWxfYmluZGluZycsICctaW1hZScsICc8aW5maWxlLm1hZT4nLCAnLW9tYWUnLCAnPG91dGZpbGUubWFlPic=

> <r_lp_tautomer_probability>
1

> <r_epik_Ionization_Penalty>
4.28758e-05

> <r_epik_Ionization_Penalty_Charging>
0

> <r_epik_Ionization_Penalty_Neutral>
4.28758e-05

> <r_epik_State_Penalty>
-0

> <r_epik_Charging_Adjusted_Penalty>
0

> <i_epik_Tot_Q>
0

> <i_epik_Tot_abs_Q>
0

> <r_epik_Metal_State_Penalty>
-0

> <b_epik_Metal_Only>
0

> <s_lp_Force_Field>
OPLS_2005

> <r_lp_Energy>
27.7433

> <b_lp_Chiralities_Consistent>
1

> <s_lp_Variant>
AV-unprocessed.smi:2511-4

> <Gold.Version>
5.8.1

> <Gold.Id.Protein>
6NUR|6NUR_protein|mol2

> <Gold.PLP.Fitness>
38.5982

> <Gold.PLP.PLP>
-24.1353

> <Gold.PLP.part.hbond>
-3.9668

> <Gold.PLP.part.metal>
0.0000

> <Gold.PLP.part.buried>
-6.0141

> <Gold.PLP.part.nonpolar>
-20.7219

> <Gold.PLP.part.repulsive>
7.6930

> <Gold.PLP.ligand.clash>
0.0000

> <Gold.PLP.ligand.torsion>
0.0925

> <Gold.PLP.Chemscore.Hbond>
3.8953

> <Gold.PLP.Chemscore.CHOScore>
0.9792

> <Gold.PLP.Chemscore.Metal>
0.0000

> <Gold.Chemscore.Hbonds>
donor molecule, donor type, donor heavy atom, donor atom, acceptor molecule, acceptor atom, score
      L1  H     1    24       P1 10195  0.96
      L1  H     1    25       P1  7921  0.98
      L1  H     8    28       P1  7948  1.00
      P1  H 10785 10796       L1     3  1.00
      L1  C    22    40       P1  7948  1.00

> <Gold.PLP.Chemscore.Internal.Correction>
0.0246

> <Gold.Rescore>
     Score         DG    S(hbond)    S(metal)    S(lipo)     H(rot)  DE(clash)    DE(int)     intcor
     17.58     -22.29       3.84        0.00      55.91       1.00       3.30       1.41       ----

> <Gold.Chemscore.Fitness>
17.5793

> <Gold.Chemscore.DG>
-22.2920

> <Gold.Chemscore.ZeroCoef>
-5.4800

> <Gold.Chemscore.Hbond>
3.8415

> <Gold.Chemscore.Metal>
0.0000

> <Gold.Chemscore.Lipo>
55.9100

> <Gold.Chemscore.Internal_Hbond>
0.0000

> <Gold.Chemscore.DEClash>
3.2989

> <Gold.Chemscore.DEInternal>
1.4138

> <Gold.Chemscore.Rot>
1.0000

> <Gold.Chemscore.Internal.Correction>
   9.000000E+99

> <Gold.Chemscore.Hbonds>
donor molecule, donor type, donor heavy atom, donor atom, acceptor molecule, acceptor atom, score
      L1  H     1    24       P1 10195  0.91
      L1  H     1    25       P1  7921  0.93
      L1  H     8    28       P1  7948  0.93
      P1  H 10785 10796       L1     3  0.98

> <Gold.Chemscore.Hbond.Weighted>
-12.8305

> <Gold.Chemscore.Metal.Weighted>
-0.0000

> <Gold.Chemscore.Lipo.Weighted>
-6.5415

> <Gold.Chemscore.Internal_Hbond.Weighted>
0.0000

> <Gold.Chemscore.DEClash.Weighted>
3.2989

> <Gold.Chemscore.DEInternal.Weighted>
1.4138

> <Gold.Chemscore.Rot.Weighted>
2.5600

> <Gold.Chemscore.Internal.Correction.Weighted>
   9.000000E+99

> <Gold.Protein.RotatedTorsions>
[ 6907 6896 6895 6894 ] final  147.22 input  -60.11 | X-H torsion
[ 7974 7965 7964 7962 ] final  -71.00 input  175.53 | X-H torsion
[ 8008 7997 7996 7995 ] final   11.09 input   59.86 | X-H torsion
[ 10167 10162 10161 10158 ] final   -4.33 input  -65.29 | X-H torsion
[ 10718 10713 10712 10709 ] final  -28.49 input   66.30 | X-H torsion
[ 10763 10752 10751 10750 ] final   87.88 input  -60.55 | X-H torsion
[ 11005 11000 10999 10996 ] final -149.17 input  -57.11 | X-H torsion

> <Gold.Protein.ActiveResidues>
 VAL166  LYS551  ARG553  GLY616  TRP617  ASP618  TYR619  PRO620  LYS621  CYS622 
 ASP623  PHE694  ASN695  SER759  ASP760  ASP761  ALA762  ILE779  LEU786  VAL792 
 PHE793  MET794  SER795  GLU796  ALA797  LYS798  CYS799  TRP800  GLU811  SER814 

> <Gold.Protein.RotatedAtoms>
  152.1577  133.4561  159.4844 H   0  0  0  0  0  0  0  0  0  0  0  0  # atno 6907 bound_to 6896
  150.6903  134.2111  159.4368 H   0  0  0  0  0  0  0  0  0  0  0  0  # atno 6908 bound_to 6896
  152.0011  134.9927  160.0616 H   0  0  0  0  0  0  0  0  0  0  0  0  # atno 6909 bound_to 6896
  145.6837  140.9178  143.0819 H   0  0  0  0  0  0  0  0  0  0  0  0  # atno 7974 bound_to 7965
  154.8022  140.2854  155.5913 H   0  0  0  0  0  0  0  0  0  0  0  0  # atno 8008 bound_to 7997
  156.2978  140.2584  156.2822 H   0  0  0  0  0  0  0  0  0  0  0  0  # atno 8009 bound_to 7997
  154.9545  140.0379  157.2149 H   0  0  0  0  0  0  0  0  0  0  0  0  # atno 8010 bound_to 7997
  140.6923  143.6436  150.8413 H   0  0  0  0  0  0  0  0  0  0  0  0  # atno 10167 bound_to 10162
  156.4245  130.4433  149.7160 H   0  0  0  0  0  0  0  0  0  0  0  0  # atno 10718 bound_to 10713
  153.1712  135.4527  154.9905 H   0  0  0  0  0  0  0  0  0  0  0  0  # atno 10763 bound_to 10752
  154.7967  135.3240  154.7651 H   0  0  0  0  0  0  0  0  0  0  0  0  # atno 10764 bound_to 10752
  153.8127  135.6953  153.4893 H   0  0  0  0  0  0  0  0  0  0  0  0  # atno 10765 bound_to 10752
  140.7535  134.3379  157.5120 H   0  0  0  0  0  0  0  0  0  0  0  0  # atno 11005 bound_to 11000
  144.7018  139.8730  143.7442 LP  0  0  0  0  0  0  0  0  0  0  0  0  # atno 17320 bound_to 7965
  146.0942  139.3933  143.0387 LP  0  0  0  0  0  0  0  0  0  0  0  0  # atno 17321 bound_to 7965
  140.0151  143.5602  152.2823 LP  0  0  0  0  0  0  0  0  0  0  0  0  # atno 17342 bound_to 10162
  139.6339  144.7647  151.2478 LP  0  0  0  0  0  0  0  0  0  0  0  0  # atno 17343 bound_to 10162
  156.4088  130.7711  151.2723 LP  0  0  0  0  0  0  0  0  0  0  0  0  # atno 17370 bound_to 10713
  157.7508  131.0218  150.3764 LP  0  0  0  0  0  0  0  0  0  0  0  0  # atno 17371 bound_to 10713
  139.8783  134.9157  156.3137 LP  0  0  0  0  0  0  0  0  0  0  0  0  # atno 17394 bound_to 11000
  140.9729  133.7316  156.0560 LP  0  0  0  0  0  0  0  0  0  0  0  0  # atno 17395 bound_to 11000

$$$$
