AV-unprocessed.smi:247|AV-procd|sdf|1892|dock3
  -GOLD-   2262020553D 1   1.00000     0.00000
 Structure written by MMmdl.
 61 65  0  0  0  0  0  0  0  0  1 V2000
  145.6830  136.2177  150.0377 O   0  0  0  0  0  0  0  0  0  0  0  0
  145.6341  135.6749  151.3425 C   0  0  0  0  0  0  0  0  0  0  0  0
  145.1916  134.1851  151.3777 C   0  0  0  0  0  0  0  0  0  0  0  0
  145.0712  133.7359  152.8692 C   0  0  0  0  0  0  0  0  0  0  0  0
  145.8935  134.4872  153.8065 N   0  0  0  0  0  0  0  0  0  0  0  0
  145.5327  135.6276  154.4893 C   0  0  0  0  0  0  0  0  0  0  0  0
  146.4529  136.1262  155.2682 N   0  0  0  0  0  0  0  0  0  0  0  0
  147.5227  135.2508  155.1283 C   0  0  0  0  0  0  0  0  0  0  0  0
  148.8405  135.1979  155.6638 C   0  0  0  0  0  0  0  0  0  0  0  0
  149.3703  136.1185  156.4978 N   0  0  0  0  0  0  0  0  0  0  0  0
  148.7945  136.1162  157.8406 C   0  0  0  0  0  0  0  0  0  0  0  0
  148.5738  137.5815  158.2273 C   0  0  0  0  0  0  0  0  0  0  0  0
  149.4936  138.3393  157.2776 C   0  0  0  0  0  0  0  0  0  0  0  0
  149.3946  137.4949  156.0004 C   0  0  1  0  0  0  0  0  0  0  0  0
  150.4590  137.7295  154.8738 C   0  0  2  0  0  0  0  0  0  0  0  0
  151.9228  137.4554  155.2950 C   0  0  0  0  0  0  0  0  0  0  0  0
  152.3602  138.4138  156.2553 O   0  0  0  0  0  0  0  0  0  0  0  0
  152.3910  139.7435  155.7467 C   0  0  0  0  0  0  0  0  0  0  0  0
  150.9877  140.1743  155.2912 C   0  0  0  0  0  0  0  0  0  0  0  0
  150.4298  139.1603  154.2821 C   0  0  2  0  0  0  0  0  0  0  0  0
  149.1441  139.5522  153.8476 O   0  0  0  0  0  0  0  0  0  0  0  0
  149.6361  134.1636  155.2990 N   0  0  0  0  0  0  0  0  0  0  0  0
  149.1775  133.2363  154.4527 C   0  0  0  0  0  0  0  0  0  0  0  0
  147.9825  133.1620  153.8623 N   0  0  0  0  0  0  0  0  0  0  0  0
  147.1812  134.2036  154.2285 C   0  0  0  0  0  0  0  0  0  0  0  0
  143.8543  134.0189  150.6103 C   0  0  0  0  0  0  0  0  0  0  0  0
  143.4762  132.5411  150.4068 C   0  0  0  0  0  0  0  0  0  0  0  0
  144.5215  131.8662  149.7177 O   0  0  0  0  0  0  0  0  0  0  0  0
  145.7487  131.8548  150.4373 C   0  0  0  0  0  0  0  0  0  0  0  0
  146.2450  133.2955  150.6684 C   0  0  0  0  0  0  0  0  0  0  0  0
  145.7380  135.5060  149.4184 H   0  0  0  0  0  0  0  0  0  0  0  0
  146.6216  135.7883  151.7912 H   0  0  0  0  0  0  0  0  0  0  0  0
  144.9502  136.2961  151.9208 H   0  0  0  0  0  0  0  0  0  0  0  0
  144.0437  133.8008  153.2233 H   0  0  0  0  0  0  0  0  0  0  0  0
  145.3395  132.6825  152.9600 H   0  0  0  0  0  0  0  0  0  0  0  0
  144.5624  136.0899  154.3813 H   0  0  0  0  0  0  0  0  0  0  0  0
  147.8702  135.5421  157.9170 H   0  0  0  0  0  0  0  0  0  0  0  0
  149.5186  135.6571  158.5140 H   0  0  0  0  0  0  0  0  0  0  0  0
  147.5370  137.8606  158.0345 H   0  0  0  0  0  0  0  0  0  0  0  0
  148.7872  137.7795  159.2780 H   0  0  0  0  0  0  0  0  0  0  0  0
  149.1851  139.3748  157.1319 H   0  0  0  0  0  0  0  0  0  0  0  0
  150.5025  138.3306  157.6903 H   0  0  0  0  0  0  0  0  0  0  0  0
  148.4102  137.7095  155.5852 H   0  0  0  0  0  0  0  0  0  0  0  0
  150.2417  137.0357  154.0601 H   0  0  0  0  0  0  0  0  0  0  0  0
  152.0403  136.4502  155.6973 H   0  0  0  0  0  0  0  0  0  0  0  0
  152.5798  137.4963  154.4243 H   0  0  0  0  0  0  0  0  0  0  0  0
  152.7535  140.4116  156.5279 H   0  0  0  0  0  0  0  0  0  0  0  0
  153.1013  139.8066  154.9208 H   0  0  0  0  0  0  0  0  0  0  0  0
  150.3306  140.2521  156.1580 H   0  0  0  0  0  0  0  0  0  0  0  0
  151.0324  141.1685  154.8450 H   0  0  0  0  0  0  0  0  0  0  0  0
  151.0660  139.1775  153.3960 H   0  0  0  0  0  0  0  0  0  0  0  0
  149.1275  139.5328  152.9028 H   0  0  0  0  0  0  0  0  0  0  0  0
  149.8692  132.4436  154.2091 H   0  0  0  0  0  0  0  0  0  0  0  0
  143.0447  134.5541  151.1050 H   0  0  0  0  0  0  0  0  0  0  0  0
  143.9375  134.4716  149.6216 H   0  0  0  0  0  0  0  0  0  0  0  0
  143.2652  132.0443  151.3540 H   0  0  0  0  0  0  0  0  0  0  0  0
  142.5669  132.4718  149.8097 H   0  0  0  0  0  0  0  0  0  0  0  0
  145.6307  131.3115  151.3748 H   0  0  0  0  0  0  0  0  0  0  0  0
  146.4846  131.3017  149.8537 H   0  0  0  0  0  0  0  0  0  0  0  0
  146.4946  133.7117  149.6922 H   0  0  0  0  0  0  0  0  0  0  0  0
  147.1768  133.2827  151.2347 H   0  0  0  0  0  0  0  0  0  0  0  0
  1  2  1  0  0  0  0
  1 31  1  0  0  0  0
  2  3  1  0  0  0  0
  2 32  1  0  0  0  0
  2 33  1  0  0  0  0
  3 30  1  0  0  0  0
  3  4  1  0  0  0  0
  3 26  1  0  0  0  0
  4  5  1  0  0  0  0
  4 34  1  0  0  0  0
  4 35  1  0  0  0  0
  5 25  1  0  0  0  0
  5  6  1  0  0  0  0
  6  7  2  0  0  0  0
  6 36  1  0  0  0  0
  7  8  1  0  0  0  0
  8 25  2  0  0  0  0
  8  9  1  0  0  0  0
  9 10  1  0  0  0  0
  9 22  2  0  0  0  0
 10 14  1  0  0  0  0
 10 11  1  0  0  0  0
 11 12  1  0  0  0  0
 11 37  1  0  0  0  0
 11 38  1  0  0  0  0
 12 13  1  0  0  0  0
 12 39  1  0  0  0  0
 12 40  1  0  0  0  0
 13 14  1  0  0  0  0
 13 41  1  0  0  0  0
 13 42  1  0  0  0  0
 14 15  1  0  0  0  0
 14 43  1  0  0  0  0
 15 20  1  0  0  0  0
 15 16  1  0  0  0  0
 15 44  1  0  0  0  0
 16 17  1  0  0  0  0
 16 45  1  0  0  0  0
 16 46  1  0  0  0  0
 17 18  1  0  0  0  0
 18 19  1  0  0  0  0
 18 47  1  0  0  0  0
 18 48  1  0  0  0  0
 19 20  1  0  0  0  0
 19 49  1  0  0  0  0
 19 50  1  0  0  0  0
 20 21  1  0  0  0  0
 20 51  1  0  0  0  0
 21 52  1  0  0  0  0
 22 23  1  0  0  0  0
 23 24  2  0  0  0  0
 23 53  1  0  0  0  0
 24 25  1  0  0  0  0
 26 27  1  0  0  0  0
 26 54  1  0  0  0  0
 26 55  1  0  0  0  0
 27 28  1  0  0  0  0
 27 56  1  0  0  0  0
 27 57  1  0  0  0  0
 28 29  1  0  0  0  0
 29 30  1  0  0  0  0
 29 58  1  0  0  0  0
 29 59  1  0  0  0  0
 30 60  1  0  0  0  0
 30 61  1  0  0  0  0
M  END
> <s_m_source_file>
AV-unprocessed.smi

> <i_m_source_file_index>
247

> <i_lp_mmshare_version>
43012

> <i_f3d_flags>
0

> <s_epik_input>
W0NIMl0xW0NIMl1PW0NIMl1bQ0gyXUMxKFtDSDJdW09IXSlbQ0gyXW4oW2NIXW4yKWMoYzIzKW5bY0hdbmMzTjRbQ0gyXVtDSDJdW0NIMl1bQ0BIXTRbQ0BASF01W0NIMl1PW0NIMl1bQ0gyXVtDQEhdNVtPSF0=

> <s_epik_cmdline>
J2VwaWtfcHl0aG9uJywgJy1waCcsICc3LjAnLCAnLXRuJywgJzgnLCAnLW1hJywgJzIwMCcsICctbWV0YWxfYmluZGluZycsICctaW1hZScsICc8aW5maWxlLm1hZT4nLCAnLW9tYWUnLCAnPG91dGZpbGUubWFlPic=

> <r_lp_tautomer_probability>
1

> <r_epik_Ionization_Penalty>
0.00362597

> <r_epik_Ionization_Penalty_Charging>
0

> <r_epik_Ionization_Penalty_Neutral>
0.00362597

> <r_epik_State_Penalty>
0.00241433

> <r_epik_Charging_Adjusted_Penalty>
0.00241433

> <i_epik_Tot_Q>
0

> <i_epik_Tot_abs_Q>
0

> <r_epik_Metal_State_Penalty>
-0

> <b_epik_Metal_Only>
0

> <s_lp_Force_Field>
OPLS_2005

> <r_lp_Energy>
63.5358

> <b_lp_Chiralities_Consistent>
1

> <s_lp_Variant>
AV-unprocessed.smi:247-5

> <Gold.Version>
5.8.1

> <Gold.Id.Protein>
6NUR|6NUR_protein|mol2

> <Gold.PLP.Fitness>
44.6952

> <Gold.PLP.PLP>
-40.4965

> <Gold.PLP.part.hbond>
-4.0000

> <Gold.PLP.part.metal>
0.0000

> <Gold.PLP.part.buried>
-3.9130

> <Gold.PLP.part.nonpolar>
-33.7774

> <Gold.PLP.part.repulsive>
0.4538

> <Gold.PLP.ligand.clash>
0.0000

> <Gold.PLP.ligand.torsion>
1.1794

> <Gold.PLP.Chemscore.Hbond>
2.1065

> <Gold.PLP.Chemscore.CHOScore>
0.0000

> <Gold.PLP.Chemscore.Metal>
0.0000

> <Gold.Chemscore.Hbonds>
donor molecule, donor type, donor heavy atom, donor atom, acceptor molecule, acceptor atom, score
      L1  H     1    31       P1  7921  1.00
      L1  H    21    52       P1  7957  1.00
      P1  H 10785 10796       L1    28  0.07

> <Gold.PLP.Chemscore.Internal.Correction>
0.2381

> <Gold.Rescore>
     Score         DG    S(hbond)    S(metal)    S(lipo)     H(rot)  DE(clash)    DE(int)     intcor
     12.26     -14.86       1.97        0.00      94.58       3.23       0.50       2.10       ----

> <Gold.Chemscore.Fitness>
12.2637

> <Gold.Chemscore.DG>
-14.8595

> <Gold.Chemscore.ZeroCoef>
-5.4800

> <Gold.Chemscore.Hbond>
1.9692

> <Gold.Chemscore.Metal>
0.0000

> <Gold.Chemscore.Lipo>
94.5794

> <Gold.Chemscore.Internal_Hbond>
0.0000

> <Gold.Chemscore.DEClash>
0.4962

> <Gold.Chemscore.DEInternal>
2.0996

> <Gold.Chemscore.Rot>
3.2278

> <Gold.Chemscore.Internal.Correction>
   9.000000E+99

> <Gold.Chemscore.Hbonds>
donor molecule, donor type, donor heavy atom, donor atom, acceptor molecule, acceptor atom, score
      L1  H     1    31       P1  7921  0.93
      L1  H    21    52       P1  7957  0.99
      P1  H 10785 10796       L1    28  0.02

> <Gold.Chemscore.Hbond.Weighted>
-6.5770

> <Gold.Chemscore.Metal.Weighted>
-0.0000

> <Gold.Chemscore.Lipo.Weighted>
-11.0658

> <Gold.Chemscore.Internal_Hbond.Weighted>
0.0000

> <Gold.Chemscore.DEClash.Weighted>
0.4962

> <Gold.Chemscore.DEInternal.Weighted>
2.0996

> <Gold.Chemscore.Rot.Weighted>
8.2633

> <Gold.Chemscore.Internal.Correction.Weighted>
   9.000000E+99

> <Gold.Protein.RotatedTorsions>
[ 6907 6896 6895 6894 ] final   16.45 input  -60.11 | X-H torsion
[ 7974 7965 7964 7962 ] final -106.10 input  175.53 | X-H torsion
[ 8008 7997 7996 7995 ] final   22.97 input   59.86 | X-H torsion
[ 10167 10162 10161 10158 ] final  134.36 input  -65.29 | X-H torsion
[ 10718 10713 10712 10709 ] final  -47.33 input   66.30 | X-H torsion
[ 10763 10752 10751 10750 ] final  104.70 input  -60.55 | X-H torsion
[ 11005 11000 10999 10996 ] final   27.13 input  -57.11 | X-H torsion

> <Gold.Protein.ActiveResidues>
 VAL166  LYS551  ARG553  GLY616  TRP617  ASP618  TYR619  PRO620  LYS621  CYS622 
 ASP623  PHE694  ASN695  SER759  ASP760  ASP761  ALA762  ILE779  LEU786  VAL792 
 PHE793  MET794  SER795  GLU796  ALA797  LYS798  CYS799  TRP800  GLU811  SER814 

> <Gold.Protein.RotatedAtoms>
  151.8341  135.0612  160.0440 H   0  0  0  0  0  0  0  0  0  0  0  0  # atno 6907 bound_to 6896
  152.2858  133.5509  159.5535 H   0  0  0  0  0  0  0  0  0  0  0  0  # atno 6908 bound_to 6896
  150.7209  134.0415  159.3809 H   0  0  0  0  0  0  0  0  0  0  0  0  # atno 6909 bound_to 6896
  145.2221  140.9138  143.3253 H   0  0  0  0  0  0  0  0  0  0  0  0  # atno 7974 bound_to 7965
  154.9738  140.3093  155.4976 H   0  0  0  0  0  0  0  0  0  0  0  0  # atno 8008 bound_to 7997
  156.2962  140.2279  156.4772 H   0  0  0  0  0  0  0  0  0  0  0  0  # atno 8009 bound_to 7997
  154.7852  140.0443  157.1146 H   0  0  0  0  0  0  0  0  0  0  0  0  # atno 8010 bound_to 7997
  139.5259  144.6571  151.5129 H   0  0  0  0  0  0  0  0  0  0  0  0  # atno 10167 bound_to 10162
  156.2095  130.4160  149.9134 H   0  0  0  0  0  0  0  0  0  0  0  0  # atno 10718 bound_to 10713
  153.3695  135.3934  155.1778 H   0  0  0  0  0  0  0  0  0  0  0  0  # atno 10763 bound_to 10752
  154.8692  135.3699  154.4996 H   0  0  0  0  0  0  0  0  0  0  0  0  # atno 10764 bound_to 10752
  153.5463  135.7083  153.5673 H   0  0  0  0  0  0  0  0  0  0  0  0  # atno 10765 bound_to 10752
  140.3296  134.2453  155.7704 H   0  0  0  0  0  0  0  0  0  0  0  0  # atno 11005 bound_to 11000
  144.9756  139.3836  143.6287 LP  0  0  0  0  0  0  0  0  0  0  0  0  # atno 17320 bound_to 7965
  146.3373  139.8873  142.8814 LP  0  0  0  0  0  0  0  0  0  0  0  0  # atno 17321 bound_to 7965
  140.6401  143.8905  150.6684 LP  0  0  0  0  0  0  0  0  0  0  0  0  # atno 17342 bound_to 10162
  140.2237  143.3789  152.1622 LP  0  0  0  0  0  0  0  0  0  0  0  0  # atno 17343 bound_to 10162
  156.6817  130.8860  151.3576 LP  0  0  0  0  0  0  0  0  0  0  0  0  # atno 17370 bound_to 10713
  157.7030  130.9354  150.0845 LP  0  0  0  0  0  0  0  0  0  0  0  0  # atno 17371 bound_to 10713
  141.2067  133.7827  157.0164 LP  0  0  0  0  0  0  0  0  0  0  0  0  # atno 17394 bound_to 11000
  140.0872  134.9614  157.1719 LP  0  0  0  0  0  0  0  0  0  0  0  0  # atno 17395 bound_to 11000

$$$$
