AV-unprocessed.smi:266|AV-procd|sdf|2032|dock1
  -GOLD-   2262021243D 1   1.00000     0.00000
 Structure written by MMmdl.
 52 55  0  0  0  0  0  0  0  0  1 V2000
  145.6833  132.1131  150.3606 C   0  0  0  0  0  0  0  0  0  0  0  0
  146.0218  133.4718  150.9952 C   0  0  1  0  0  0  0  0  0  0  0  0
  145.2818  134.4881  150.3258 O   0  0  0  0  0  0  0  0  0  0  0  0
  145.0489  135.5463  151.2371 C   0  0  0  0  0  0  0  0  0  0  0  0
  144.7079  134.7982  152.5153 C   0  0  0  0  0  0  0  0  0  0  0  0
  145.7032  133.6362  152.5079 C   0  0  1  0  0  0  0  0  0  0  0  0
  145.0603  132.4971  153.0542 O   0  0  0  0  0  0  0  0  0  0  0  0
  146.9970  133.9126  153.3194 C   0  0  0  0  0  0  0  0  0  0  0  0
  146.8940  133.6212  154.7423 N   0  0  0  0  0  0  0  0  0  0  0  0
  145.9679  134.1327  155.6203 C   0  0  0  0  0  0  0  0  0  0  0  0
  146.0898  133.7255  156.8527 N   0  0  0  0  0  0  0  0  0  0  0  0
  147.1945  132.8782  156.8385 C   0  0  0  0  0  0  0  0  0  0  0  0
  147.8867  132.1055  157.8251 C   0  0  0  0  0  0  0  0  0  0  0  0
  147.5453  132.0331  159.1463 N   0  0  0  0  0  0  0  0  0  0  0  0
  148.3752  131.2777  160.0774 C   0  0  0  0  0  0  0  0  0  0  0  0
  146.4613  132.8458  159.7071 C   0  0  0  0  0  0  0  0  0  0  0  0
  146.9601  133.8939  160.7220 C   0  0  2  0  0  0  0  0  0  0  0  0
  145.8880  134.2394  161.7729 C   0  0  0  0  0  0  0  0  0  0  0  0
  146.3656  135.4499  162.5822 C   0  0  0  0  0  0  0  0  0  0  0  0
  147.3377  136.4730  161.4145 S   0  0  0  0  0  0  0  0  0  0  0  0
  146.5233  137.6101  160.9596 O   0  0  0  0  0  0  0  0  0  0  0  0
  148.6842  136.6790  161.9691 O   0  0  0  0  0  0  0  0  0  0  0  0
  147.4097  135.2172  160.0821 C   0  0  0  0  0  0  0  0  0  0  0  0
  148.9689  131.4029  157.3939 N   0  0  0  0  0  0  0  0  0  0  0  0
  149.3489  131.4335  156.1147 C   0  0  0  0  0  0  0  0  0  0  0  0
  148.7985  132.0979  155.1000 N   0  0  0  0  0  0  0  0  0  0  0  0
  147.7142  132.8128  155.5110 C   0  0  0  0  0  0  0  0  0  0  0  0
  146.2422  131.3068  150.8361 H   0  0  0  0  0  0  0  0  0  0  0  0
  145.9362  132.1083  149.3000 H   0  0  0  0  0  0  0  0  0  0  0  0
  144.6203  131.8863  150.4464 H   0  0  0  0  0  0  0  0  0  0  0  0
  147.0778  133.6801  150.8164 H   0  0  0  0  0  0  0  0  0  0  0  0
  145.9548  136.1422  151.3576 H   0  0  0  0  0  0  0  0  0  0  0  0
  144.2434  136.1988  150.9003 H   0  0  0  0  0  0  0  0  0  0  0  0
  144.7493  135.4313  153.3997 H   0  0  0  0  0  0  0  0  0  0  0  0
  143.6849  134.4266  152.4326 H   0  0  0  0  0  0  0  0  0  0  0  0
  144.2603  132.7751  153.4733 H   0  0  0  0  0  0  0  0  0  0  0  0
  147.8233  133.3279  152.9128 H   0  0  0  0  0  0  0  0  0  0  0  0
  147.2879  134.9587  153.2140 H   0  0  0  0  0  0  0  0  0  0  0  0
  145.1908  134.8186  155.3156 H   0  0  0  0  0  0  0  0  0  0  0  0
  149.4119  131.6122  160.0306 H   0  0  0  0  0  0  0  0  0  0  0  0
  148.3333  130.2116  159.8527 H   0  0  0  0  0  0  0  0  0  0  0  0
  148.0333  131.4094  161.1044 H   0  0  0  0  0  0  0  0  0  0  0  0
  145.8547  133.3178  158.9342 H   0  0  0  0  0  0  0  0  0  0  0  0
  145.7802  132.1630  160.2165 H   0  0  0  0  0  0  0  0  0  0  0  0
  147.8120  133.4827  161.2655 H   0  0  0  0  0  0  0  0  0  0  0  0
  144.9584  134.4990  161.2645 H   0  0  0  0  0  0  0  0  0  0  0  0
  145.6696  133.3903  162.4214 H   0  0  0  0  0  0  0  0  0  0  0  0
  145.5466  136.0320  163.0049 H   0  0  0  0  0  0  0  0  0  0  0  0
  147.0281  135.1388  163.3903 H   0  0  0  0  0  0  0  0  0  0  0  0
  148.4135  135.1702  159.6600 H   0  0  0  0  0  0  0  0  0  0  0  0
  146.7167  135.5290  159.3006 H   0  0  0  0  0  0  0  0  0  0  0  0
  150.2175  130.8403  155.8695 H   0  0  0  0  0  0  0  0  0  0  0  0
  1  2  1  0  0  0  0
  1 28  1  0  0  0  0
  1 29  1  0  0  0  0
  1 30  1  0  0  0  0
  2  6  1  0  0  0  0
  2  3  1  0  0  0  0
  2 31  1  0  0  0  0
  3  4  1  0  0  0  0
  4  5  1  0  0  0  0
  4 32  1  0  0  0  0
  4 33  1  0  0  0  0
  5  6  1  0  0  0  0
  5 34  1  0  0  0  0
  5 35  1  0  0  0  0
  6  7  1  0  0  0  0
  6  8  1  0  0  0  0
  7 36  1  0  0  0  0
  8  9  1  0  0  0  0
  8 37  1  0  0  0  0
  8 38  1  0  0  0  0
  9 27  1  0  0  0  0
  9 10  1  0  0  0  0
 10 11  2  0  0  0  0
 10 39  1  0  0  0  0
 11 12  1  0  0  0  0
 12 27  2  0  0  0  0
 12 13  1  0  0  0  0
 13 14  1  0  0  0  0
 13 24  2  0  0  0  0
 14 15  1  0  0  0  0
 14 16  1  0  0  0  0
 15 40  1  0  0  0  0
 15 41  1  0  0  0  0
 15 42  1  0  0  0  0
 16 17  1  0  0  0  0
 16 43  1  0  0  0  0
 16 44  1  0  0  0  0
 17 23  1  0  0  0  0
 17 18  1  0  0  0  0
 17 45  1  0  0  0  0
 18 19  1  0  0  0  0
 18 46  1  0  0  0  0
 18 47  1  0  0  0  0
 19 20  1  0  0  0  0
 19 48  1  0  0  0  0
 19 49  1  0  0  0  0
 20 21  2  0  0  0  0
 20 22  2  0  0  0  0
 20 23  1  0  0  0  0
 23 50  1  0  0  0  0
 23 51  1  0  0  0  0
 24 25  1  0  0  0  0
 25 26  2  0  0  0  0
 25 52  1  0  0  0  0
 26 27  1  0  0  0  0
M  END
> <s_m_source_file>
AV-unprocessed.smi

> <i_m_source_file_index>
266

> <i_lp_mmshare_version>
43012

> <i_f3d_flags>
0

> <s_epik_input>
W0NIMl0xW0NIMl1PW0NAQEhdKFtDSDNdKVtDQEBdMShbT0hdKVtDSDJdbihbY0hdbjIpYyhjMjMpbltjSF1uYzNOKFtDSDNdKVtDSDJdW0NAQEhdKFtDSDJdNClbQ0gyXVtDSDJdUzQoPU8pPU8=

> <s_epik_cmdline>
J2VwaWtfcHl0aG9uJywgJy1waCcsICc3LjAnLCAnLXRuJywgJzgnLCAnLW1hJywgJzIwMCcsICctbWV0YWxfYmluZGluZycsICctaW1hZScsICc8aW5maWxlLm1hZT4nLCAnLW9tYWUnLCAnPG91dGZpbGUubWFlPic=

> <r_lp_tautomer_probability>
1

> <r_epik_Ionization_Penalty>
0.00155497

> <r_epik_Ionization_Penalty_Charging>
0

> <r_epik_Ionization_Penalty_Neutral>
0.00155497

> <r_epik_State_Penalty>
-0

> <r_epik_Charging_Adjusted_Penalty>
0

> <i_epik_Tot_Q>
0

> <i_epik_Tot_abs_Q>
0

> <r_epik_Metal_State_Penalty>
-0

> <b_epik_Metal_Only>
0

> <s_lp_Force_Field>
OPLS_2005

> <r_lp_Energy>
32.0182

> <b_lp_Chiralities_Consistent>
1

> <s_lp_Variant>
AV-unprocessed.smi:266-2

> <Gold.Version>
5.8.1

> <Gold.Id.Protein>
6NUR|6NUR_protein|mol2

> <Gold.PLP.Fitness>
36.4833

> <Gold.PLP.PLP>
-29.1529

> <Gold.PLP.part.hbond>
-2.9921

> <Gold.PLP.part.metal>
0.0000

> <Gold.PLP.part.buried>
-4.9898

> <Gold.PLP.part.nonpolar>
-22.8321

> <Gold.PLP.part.repulsive>
0.2186

> <Gold.PLP.ligand.clash>
0.0000

> <Gold.PLP.ligand.torsion>
0.7541

> <Gold.PLP.Chemscore.Hbond>
2.9100

> <Gold.PLP.Chemscore.CHOScore>
0.0000

> <Gold.PLP.Chemscore.Metal>
0.0000

> <Gold.Chemscore.Hbonds>
donor molecule, donor type, donor heavy atom, donor atom, acceptor molecule, acceptor atom, score
      L1  H     7    36       P1 10957  0.25
      P1  H  6931  6943       L1    22  1.00
      P1  H  6934  6947       L1    21  1.00

> <Gold.PLP.Chemscore.Internal.Correction>
0.1086

> <Gold.Rescore>
     Score         DG    S(hbond)    S(metal)    S(lipo)     H(rot)  DE(clash)    DE(int)     intcor
     12.32     -13.90       2.17        0.00      63.42       2.45       0.03       1.54       ----

> <Gold.Chemscore.Fitness>
12.3247

> <Gold.Chemscore.DG>
-13.8975

> <Gold.Chemscore.ZeroCoef>
-5.4800

> <Gold.Chemscore.Hbond>
2.1743

> <Gold.Chemscore.Metal>
0.0000

> <Gold.Chemscore.Lipo>
63.4171

> <Gold.Chemscore.Internal_Hbond>
0.0000

> <Gold.Chemscore.DEClash>
0.0279

> <Gold.Chemscore.DEInternal>
1.5449

> <Gold.Chemscore.Rot>
2.4471

> <Gold.Chemscore.Internal.Correction>
   9.000000E+99

> <Gold.Chemscore.Hbonds>
donor molecule, donor type, donor heavy atom, donor atom, acceptor molecule, acceptor atom, score
      L1  H     7    36       P1 10957  0.13
      P1  H  6931  6943       L1    22  0.73
      P1  H  6934  6947       L1    21  0.92

> <Gold.Chemscore.Hbond.Weighted>
-7.2622

> <Gold.Chemscore.Metal.Weighted>
-0.0000

> <Gold.Chemscore.Lipo.Weighted>
-7.4198

> <Gold.Chemscore.Internal_Hbond.Weighted>
0.0000

> <Gold.Chemscore.DEClash.Weighted>
0.0279

> <Gold.Chemscore.DEInternal.Weighted>
1.5449

> <Gold.Chemscore.Rot.Weighted>
6.2645

> <Gold.Chemscore.Internal.Correction.Weighted>
   9.000000E+99

> <Gold.Protein.RotatedTorsions>
[ 6907 6896 6895 6894 ] final  -95.25 input  -60.11 | X-H torsion
[ 7974 7965 7964 7962 ] final  114.16 input  175.53 | X-H torsion
[ 8008 7997 7996 7995 ] final   54.96 input   59.86 | X-H torsion
[ 10167 10162 10161 10158 ] final  169.19 input  -65.29 | X-H torsion
[ 10718 10713 10712 10709 ] final -107.27 input   66.30 | X-H torsion
[ 10763 10752 10751 10750 ] final  116.18 input  -60.55 | X-H torsion
[ 11005 11000 10999 10996 ] final   64.10 input  -57.11 | X-H torsion

> <Gold.Protein.ActiveResidues>
 VAL166  LYS551  ARG553  GLY616  TRP617  ASP618  TYR619  PRO620  LYS621  CYS622 
 ASP623  PHE694  ASN695  SER759  ASP760  ASP761  ALA762  ILE779  LEU786  VAL792 
 PHE793  MET794  SER795  GLU796  ALA797  LYS798  CYS799  TRP800  GLU811  SER814 

> <Gold.Protein.RotatedAtoms>
  150.6959  134.1687  159.4203 H   0  0  0  0  0  0  0  0  0  0  0  0  # atno 6907 bound_to 6896
  151.9666  135.0095  160.0560 H   0  0  0  0  0  0  0  0  0  0  0  0  # atno 6908 bound_to 6896
  152.1879  133.4718  159.5029 H   0  0  0  0  0  0  0  0  0  0  0  0  # atno 6909 bound_to 6896
  145.2078  139.2920  143.4284 H   0  0  0  0  0  0  0  0  0  0  0  0  # atno 7974 bound_to 7965
  155.4933  140.3472  155.4358 H   0  0  0  0  0  0  0  0  0  0  0  0  # atno 8008 bound_to 7997
  156.0962  140.1423  156.9555 H   0  0  0  0  0  0  0  0  0  0  0  0  # atno 8009 bound_to 7997
  154.4665  140.0916  156.7011 H   0  0  0  0  0  0  0  0  0  0  0  0  # atno 8010 bound_to 7997
  139.4986  144.3733  151.9702 H   0  0  0  0  0  0  0  0  0  0  0  0  # atno 10167 bound_to 10162
  156.0429  130.5654  150.7798 H   0  0  0  0  0  0  0  0  0  0  0  0  # atno 10718 bound_to 10713
  153.5333  135.3573  155.2685 H   0  0  0  0  0  0  0  0  0  0  0  0  # atno 10763 bound_to 10752
  154.8725  135.4073  154.3126 H   0  0  0  0  0  0  0  0  0  0  0  0  # atno 10764 bound_to 10752
  153.3819  135.7068  153.6626 H   0  0  0  0  0  0  0  0  0  0  0  0  # atno 10765 bound_to 10752
  139.9981  134.6485  155.9976 H   0  0  0  0  0  0  0  0  0  0  0  0  # atno 11005 bound_to 11000
  146.3404  140.2344  142.8594 LP  0  0  0  0  0  0  0  0  0  0  0  0  # atno 17320 bound_to 7965
  144.9885  140.8525  143.5354 LP  0  0  0  0  0  0  0  0  0  0  0  0  # atno 17321 bound_to 7965
  140.3169  144.3473  150.6019 LP  0  0  0  0  0  0  0  0  0  0  0  0  # atno 17342 bound_to 10162
  140.5754  143.2177  151.7524 LP  0  0  0  0  0  0  0  0  0  0  0  0  # atno 17343 bound_to 10162
  157.5269  131.0934  151.0006 LP  0  0  0  0  0  0  0  0  0  0  0  0  # atno 17370 bound_to 10713
  157.0323  130.5716  149.5345 LP  0  0  0  0  0  0  0  0  0  0  0  0  # atno 17371 bound_to 10713
  141.1620  133.6538  156.4352 LP  0  0  0  0  0  0  0  0  0  0  0  0  # atno 17394 bound_to 11000
  140.4780  134.6692  157.5158 LP  0  0  0  0  0  0  0  0  0  0  0  0  # atno 17395 bound_to 11000

$$$$
