AV-unprocessed.smi:2231|AV-procd|sdf|9037|dock1
  -GOLD-   2272012243D 1   1.00000     0.00000
 Structure written by MMmdl.
 49 50  0  0  0  0  0  0  0  0  1 V2000
  152.7411  139.5748  159.0562 C   0  0  0  0  0  0  0  0  0  0  0  0
  152.1063  140.9498  159.0604 C   0  0  0  0  0  0  0  0  0  0  0  0
  152.5651  141.9551  159.9328 C   0  0  0  0  0  0  0  0  0  0  0  0
  151.9319  143.2126  159.8892 C   0  0  0  0  0  0  0  0  0  0  0  0
  152.3717  144.3389  160.8006 C   0  0  0  0  0  0  0  0  0  0  0  0
  150.9106  143.4943  159.0529 N   0  0  0  0  0  0  0  0  0  0  0  0
  150.4598  142.5336  158.2084 C   0  0  0  0  0  0  0  0  0  0  0  0
  149.3787  142.7229  157.3071 N   0  0  0  0  0  0  0  0  0  0  0  0
  148.4775  141.8135  156.8970 C   0  0  0  0  0  0  0  0  0  0  0  0
  148.3420  140.6849  157.3699 O   0  0  0  0  0  0  0  0  0  0  0  0
  147.7394  142.2837  155.8796 N   0  0  0  0  0  0  0  0  0  0  0  0
  146.7601  141.5118  155.1143 C   0  0  0  0  0  0  0  0  0  0  0  0
  145.8397  142.4133  154.2625 C   0  0  0  0  0  0  0  0  0  0  0  0
  145.1506  143.5107  155.0791 C   0  0  0  0  0  0  0  0  0  0  0  0
  145.5869  143.8187  156.1877 O   0  0  0  0  0  0  0  0  0  0  0  0
  144.0600  144.0677  154.5294 N   0  0  0  0  0  0  0  0  0  0  0  0
  143.1805  145.0297  155.1856 C   0  0  0  0  0  0  0  0  0  0  0  0
  141.7116  144.5615  155.0966 C   0  0  0  0  0  0  0  0  0  0  0  0
  140.7455  145.5991  155.6886 C   0  0  0  0  0  0  0  0  0  0  0  0
  140.9279  146.9731  155.0268 C   0  0  0  0  0  0  0  0  0  0  0  0
  142.3859  147.4469  155.1296 C   0  0  0  0  0  0  0  0  0  0  0  0
  143.3514  146.4127  154.5287 C   0  0  0  0  0  0  0  0  0  0  0  0
  151.0381  141.2447  158.1893 C   0  0  0  0  0  0  0  0  0  0  0  0
  153.6384  139.5504  159.6756 H   0  0  0  0  0  0  0  0  0  0  0  0
  153.0210  139.2892  158.0419 H   0  0  0  0  0  0  0  0  0  0  0  0
  152.0395  138.8345  159.4411 H   0  0  0  0  0  0  0  0  0  0  0  0
  153.3797  141.7677  160.6171 H   0  0  0  0  0  0  0  0  0  0  0  0
  153.2464  144.0542  161.3861 H   0  0  0  0  0  0  0  0  0  0  0  0
  151.5703  144.6023  161.4911 H   0  0  0  0  0  0  0  0  0  0  0  0
  152.6270  145.2234  160.2164 H   0  0  0  0  0  0  0  0  0  0  0  0
  149.3330  143.6311  156.8698 H   0  0  0  0  0  0  0  0  0  0  0  0
  147.9087  143.2297  155.5706 H   0  0  0  0  0  0  0  0  0  0  0  0
  147.2523  140.7650  154.4886 H   0  0  0  0  0  0  0  0  0  0  0  0
  146.1531  140.9516  155.8256 H   0  0  0  0  0  0  0  0  0  0  0  0
  146.4291  142.8953  153.4817 H   0  0  0  0  0  0  0  0  0  0  0  0
  145.0934  141.8062  153.7476 H   0  0  0  0  0  0  0  0  0  0  0  0
  143.7832  143.7549  153.6104 H   0  0  0  0  0  0  0  0  0  0  0  0
  143.4636  145.1136  156.2367 H   0  0  0  0  0  0  0  0  0  0  0  0
  141.4462  144.3785  154.0546 H   0  0  0  0  0  0  0  0  0  0  0  0
  141.5844  143.6118  155.6172 H   0  0  0  0  0  0  0  0  0  0  0  0
  139.7168  145.2602  155.5640 H   0  0  0  0  0  0  0  0  0  0  0  0
  140.9156  145.6844  156.7627 H   0  0  0  0  0  0  0  0  0  0  0  0
  140.6341  146.9153  153.9780 H   0  0  0  0  0  0  0  0  0  0  0  0
  140.2653  147.7021  155.4944 H   0  0  0  0  0  0  0  0  0  0  0  0
  142.5017  148.4034  154.6196 H   0  0  0  0  0  0  0  0  0  0  0  0
  142.6414  147.6208  156.1756 H   0  0  0  0  0  0  0  0  0  0  0  0
  144.3791  146.7583  154.6461 H   0  0  0  0  0  0  0  0  0  0  0  0
  143.1717  146.3366  153.4554 H   0  0  0  0  0  0  0  0  0  0  0  0
  150.6668  140.4863  157.5151 H   0  0  0  0  0  0  0  0  0  0  0  0
  1  2  1  0  0  0  0
  1 24  1  0  0  0  0
  1 25  1  0  0  0  0
  1 26  1  0  0  0  0
  2 23  1  0  0  0  0
  2  3  2  0  0  0  0
  3  4  1  0  0  0  0
  3 27  1  0  0  0  0
  4  5  1  0  0  0  0
  4  6  2  0  0  0  0
  5 28  1  0  0  0  0
  5 29  1  0  0  0  0
  5 30  1  0  0  0  0
  6  7  1  0  0  0  0
  7  8  1  0  0  0  0
  7 23  2  0  0  0  0
  8  9  1  0  0  0  0
  8 31  1  0  0  0  0
  9 10  2  0  0  0  0
  9 11  1  0  0  0  0
 11 12  1  0  0  0  0
 11 32  1  0  0  0  0
 12 13  1  0  0  0  0
 12 33  1  0  0  0  0
 12 34  1  0  0  0  0
 13 14  1  0  0  0  0
 13 35  1  0  0  0  0
 13 36  1  0  0  0  0
 14 15  2  0  0  0  0
 14 16  1  0  0  0  0
 16 17  1  0  0  0  0
 16 37  1  0  0  0  0
 17 22  1  0  0  0  0
 17 18  1  0  0  0  0
 17 38  1  0  0  0  0
 18 19  1  0  0  0  0
 18 39  1  0  0  0  0
 18 40  1  0  0  0  0
 19 20  1  0  0  0  0
 19 41  1  0  0  0  0
 19 42  1  0  0  0  0
 20 21  1  0  0  0  0
 20 43  1  0  0  0  0
 20 44  1  0  0  0  0
 21 22  1  0  0  0  0
 21 45  1  0  0  0  0
 21 46  1  0  0  0  0
 22 47  1  0  0  0  0
 22 48  1  0  0  0  0
 23 49  1  0  0  0  0
M  END
> <s_m_source_file>
AV-unprocessed.smi

> <i_m_source_file_index>
2231

> <i_lp_mmshare_version>
43012

> <i_f3d_flags>
0

> <s_epik_input>
W0NIM11jMVtjSF1jKFtDSDNdKW5jKFtjSF0xKVtOSF1DKD1PKVtOSF1bQ0gyXVtDSDJdQyg9TylbTkhdW0NIXTJbQ0gyXVtDSDJdW0NIMl1bQ0gyXVtDSDJdMg==

> <s_epik_cmdline>
J2VwaWtfcHl0aG9uJywgJy1waCcsICc3LjAnLCAnLXRuJywgJzgnLCAnLW1hJywgJzIwMCcsICctbWV0YWxfYmluZGluZycsICctaW1hZScsICc8aW5maWxlLm1hZT4nLCAnLW9tYWUnLCAnPG91dGZpbGUubWFlPic=

> <r_lp_tautomer_probability>
1

> <r_epik_Ionization_Penalty>
0.000231702

> <r_epik_Ionization_Penalty_Charging>
0

> <r_epik_Ionization_Penalty_Neutral>
0.000231702

> <r_epik_State_Penalty>
-0

> <r_epik_Charging_Adjusted_Penalty>
0

> <i_epik_Tot_Q>
0

> <i_epik_Tot_abs_Q>
0

> <r_epik_Metal_State_Penalty>
-0

> <b_epik_Metal_Only>
0

> <s_lp_Force_Field>
OPLS_2005

> <r_lp_Energy>
6.29384

> <b_lp_Chiralities_Consistent>
1

> <s_lp_Variant>
AV-unprocessed.smi:2231-1

> <Gold.Version>
5.8.1

> <Gold.Id.Protein>
6NUR|6NUR_protein|mol2

> <Gold.PLP.Fitness>
46.2018

> <Gold.PLP.PLP>
-38.5156

> <Gold.PLP.part.hbond>
-3.0000

> <Gold.PLP.part.metal>
0.0000

> <Gold.PLP.part.buried>
-5.5459

> <Gold.PLP.part.nonpolar>
-31.1586

> <Gold.PLP.part.repulsive>
0.3927

> <Gold.PLP.ligand.clash>
0.0000

> <Gold.PLP.ligand.torsion>
0.6429

> <Gold.PLP.Chemscore.Hbond>
2.9675

> <Gold.PLP.Chemscore.CHOScore>
0.0000

> <Gold.PLP.Chemscore.Metal>
0.0000

> <Gold.Chemscore.Hbonds>
donor molecule, donor type, donor heavy atom, donor atom, acceptor molecule, acceptor atom, score
      L1  H     8    31       P1  8028  1.00
      L1  H    11    32       P1  8028  1.00
      L1  H    16    37       P1 10174  0.49

> <Gold.PLP.Chemscore.Internal.Correction>
0.0696

> <Gold.Rescore>
     Score         DG    S(hbond)    S(metal)    S(lipo)     H(rot)  DE(clash)    DE(int)     intcor
     17.01     -20.39       2.42        0.00      95.32       1.69       0.01       3.37       ----

> <Gold.Chemscore.Fitness>
17.0081

> <Gold.Chemscore.DG>
-20.3898

> <Gold.Chemscore.ZeroCoef>
-5.4800

> <Gold.Chemscore.Hbond>
2.4232

> <Gold.Chemscore.Metal>
0.0000

> <Gold.Chemscore.Lipo>
95.3163

> <Gold.Chemscore.Internal_Hbond>
0.0000

> <Gold.Chemscore.DEClash>
0.0089

> <Gold.Chemscore.DEInternal>
3.3728

> <Gold.Chemscore.Rot>
1.6936

> <Gold.Chemscore.Internal.Correction>
   9.000000E+99

> <Gold.Chemscore.Hbonds>
donor molecule, donor type, donor heavy atom, donor atom, acceptor molecule, acceptor atom, score
      L1  H     8    31       P1  8028  0.89
      L1  H    11    32       P1  8028  0.53
      L1  H    16    37       P1 10174  0.37

> <Gold.Chemscore.Hbond.Weighted>
-8.0934

> <Gold.Chemscore.Metal.Weighted>
-0.0000

> <Gold.Chemscore.Lipo.Weighted>
-11.1520

> <Gold.Chemscore.Internal_Hbond.Weighted>
0.0000

> <Gold.Chemscore.DEClash.Weighted>
0.0089

> <Gold.Chemscore.DEInternal.Weighted>
3.3728

> <Gold.Chemscore.Rot.Weighted>
4.3357

> <Gold.Chemscore.Internal.Correction.Weighted>
   9.000000E+99

> <Gold.Protein.RotatedTorsions>
[ 6907 6896 6895 6894 ] final  -25.57 input  -60.11 | X-H torsion
[ 7974 7965 7964 7962 ] final   -6.36 input  175.53 | X-H torsion
[ 8008 7997 7996 7995 ] final  -42.35 input   59.86 | X-H torsion
[ 10167 10162 10161 10158 ] final  -34.02 input  -65.29 | X-H torsion
[ 10718 10713 10712 10709 ] final -143.54 input   66.30 | X-H torsion
[ 10763 10752 10751 10750 ] final  122.23 input  -60.55 | X-H torsion
[ 11005 11000 10999 10996 ] final -158.89 input  -57.11 | X-H torsion

> <Gold.Protein.ActiveResidues>
 VAL166  LYS551  ARG553  GLY616  TRP617  ASP618  TYR619  PRO620  LYS621  CYS622 
 ASP623  PHE694  ASN695  SER759  ASP760  ASP761  ALA762  ILE779  LEU786  VAL792 
 PHE793  MET794  SER795  GLU796  ALA797  LYS798  CYS799  TRP800  GLU811  SER814 

> <Gold.Protein.RotatedAtoms>
  151.1734  135.0328  159.8760 H   0  0  0  0  0  0  0  0  0  0  0  0  # atno 6907 bound_to 6896
  152.5448  134.1145  159.8383 H   0  0  0  0  0  0  0  0  0  0  0  0  # atno 6908 bound_to 6896
  151.1254  133.5028  159.2633 H   0  0  0  0  0  0  0  0  0  0  0  0  # atno 6909 bound_to 6896
  146.2332  140.2159  142.8336 H   0  0  0  0  0  0  0  0  0  0  0  0  # atno 7974 bound_to 7965
  154.3999  140.1476  156.3340 H   0  0  0  0  0  0  0  0  0  0  0  0  # atno 8008 bound_to 7997
  155.8417  140.3461  155.5615 H   0  0  0  0  0  0  0  0  0  0  0  0  # atno 8009 bound_to 7997
  155.8079  140.0879  157.1911 H   0  0  0  0  0  0  0  0  0  0  0  0  # atno 8010 bound_to 7997
  140.7193  143.3578  151.2024 H   0  0  0  0  0  0  0  0  0  0  0  0  # atno 10167 bound_to 10162
  156.3591  130.7729  151.1894 H   0  0  0  0  0  0  0  0  0  0  0  0  # atno 10718 bound_to 10713
  153.6266  135.3403  155.3028 H   0  0  0  0  0  0  0  0  0  0  0  0  # atno 10763 bound_to 10752
  154.8589  135.4285  154.2151 H   0  0  0  0  0  0  0  0  0  0  0  0  # atno 10764 bound_to 10752
  153.3036  135.7026  153.7253 H   0  0  0  0  0  0  0  0  0  0  0  0  # atno 10765 bound_to 10752
  140.6486  134.4475  157.5234 H   0  0  0  0  0  0  0  0  0  0  0  0  # atno 11005 bound_to 11000
  144.9670  140.8331  143.5479 LP  0  0  0  0  0  0  0  0  0  0  0  0  # atno 17320 bound_to 7965
  145.2136  139.2192  143.5130 LP  0  0  0  0  0  0  0  0  0  0  0  0  # atno 17321 bound_to 7965
  139.7123  143.9356  152.2952 LP  0  0  0  0  0  0  0  0  0  0  0  0  # atno 17342 bound_to 10162
  139.9086  144.6870  150.8587 LP  0  0  0  0  0  0  0  0  0  0  0  0  # atno 17343 bound_to 10162
  157.7471  131.0405  150.4602 LP  0  0  0  0  0  0  0  0  0  0  0  0  # atno 17370 bound_to 10713
  156.4809  130.4073  149.6462 LP  0  0  0  0  0  0  0  0  0  0  0  0  # atno 17371 bound_to 10713
  139.9054  134.8461  156.1728 LP  0  0  0  0  0  0  0  0  0  0  0  0  # atno 17394 bound_to 11000
  141.0553  133.6868  156.1850 LP  0  0  0  0  0  0  0  0  0  0  0  0  # atno 17395 bound_to 11000

$$$$
