AV-unprocessed.smi:234|AV-procd|sdf|1795|dock7
  -GOLD-   2262020363D 1   1.00000     0.00000
 Structure written by MMmdl.
 59 62  0  0  0  0  0  0  0  0  1 V2000
  151.0694  142.3576  157.7289 C   0  0  0  0  0  0  0  0  0  0  0  0
  150.7983  141.7735  156.3364 C   0  0  0  0  0  0  0  0  0  0  0  0
  150.1325  140.5189  156.3930 O   0  0  0  0  0  0  0  0  0  0  0  0
  149.8577  139.9276  155.1293 C   0  0  2  0  0  0  0  0  0  0  0  0
  149.0073  140.7779  154.1808 C   0  0  0  0  0  0  0  0  0  0  0  0
  148.3383  139.4610  153.7803 C   0  0  2  0  0  0  0  0  0  0  0  0
  146.9076  139.5934  153.4954 N   0  0  0  0  0  0  0  0  0  0  0  0
  146.5494  140.3749  152.3189 C   0  0  0  0  0  0  0  0  0  0  0  0
  146.1934  138.4447  153.5391 C   0  0  0  0  0  0  0  0  0  0  0  0
  145.7433  137.9613  154.7275 N   0  0  0  0  0  0  0  0  0  0  0  0
  145.0286  136.8328  154.7620 C   0  0  0  0  0  0  0  0  0  0  0  0
  144.6593  136.0472  153.7479 N   0  0  0  0  0  0  0  0  0  0  0  0
  145.1193  136.5261  152.5562 C   0  0  0  0  0  0  0  0  0  0  0  0
  145.8964  137.7020  152.3662 C   0  0  0  0  0  0  0  0  0  0  0  0
  146.1855  137.8728  151.0188 N   0  0  0  0  0  0  0  0  0  0  0  0
  145.6046  136.8566  150.4415 C   0  0  0  0  0  0  0  0  0  0  0  0
  144.9274  136.0065  151.2879 N   0  0  0  0  0  0  0  0  0  0  0  0
  144.1750  134.8199  150.9112 C   0  0  0  0  0  0  0  0  0  0  0  0
  144.7248  133.5176  151.5440 C   0  0  1  0  0  0  0  0  0  0  0  0
  144.4545  133.5516  152.9356 O   0  0  0  0  0  0  0  0  0  0  0  0
  144.0604  132.2665  150.9598 C   0  0  0  0  0  0  0  0  0  0  0  0
  145.1803  131.5757  150.1904 C   0  0  0  0  0  0  0  0  0  0  0  0
  146.3338  131.9071  150.9419 O   0  0  0  0  0  0  0  0  0  0  0  0
  146.2336  133.2854  151.2669 C   0  0  2  0  0  0  0  0  0  0  0  0
  147.2205  133.6505  152.3887 C   0  0  0  0  0  0  0  0  0  0  0  0
  148.6927  138.9064  155.1913 C   0  0  0  0  0  0  0  0  0  0  0  0
  149.1173  137.4392  155.2581 C   0  0  0  0  0  0  0  0  0  0  0  0
  147.6749  139.1319  156.3256 C   0  0  0  0  0  0  0  0  0  0  0  0
  151.6914  143.2496  157.6561 H   0  0  0  0  0  0  0  0  0  0  0  0
  151.5918  141.6384  158.3602 H   0  0  0  0  0  0  0  0  0  0  0  0
  150.1487  142.6462  158.2336 H   0  0  0  0  0  0  0  0  0  0  0  0
  150.2480  142.4806  155.7142 H   0  0  0  0  0  0  0  0  0  0  0  0
  151.7537  141.6069  155.8384 H   0  0  0  0  0  0  0  0  0  0  0  0
  150.7411  139.5051  154.6442 H   0  0  0  0  0  0  0  0  0  0  0  0
  148.3465  141.4757  154.6980 H   0  0  0  0  0  0  0  0  0  0  0  0
  149.5614  141.2622  153.3767 H   0  0  0  0  0  0  0  0  0  0  0  0
  148.9001  138.9624  152.9873 H   0  0  0  0  0  0  0  0  0  0  0  0
  146.9610  139.9216  151.4164 H   0  0  0  0  0  0  0  0  0  0  0  0
  146.9406  141.3890  152.3990 H   0  0  0  0  0  0  0  0  0  0  0  0
  145.4671  140.4480  152.2033 H   0  0  0  0  0  0  0  0  0  0  0  0
  144.7032  136.5162  155.7418 H   0  0  0  0  0  0  0  0  0  0  0  0
  145.6417  136.7058  149.3725 H   0  0  0  0  0  0  0  0  0  0  0  0
  143.1328  134.9711  151.1958 H   0  0  0  0  0  0  0  0  0  0  0  0
  144.1848  134.7403  149.8235 H   0  0  0  0  0  0  0  0  0  0  0  0
  144.0589  132.7293  153.1815 H   0  0  0  0  0  0  0  0  0  0  0  0
  143.7104  131.5998  151.7499 H   0  0  0  0  0  0  0  0  0  0  0  0
  143.2044  132.4874  150.3213 H   0  0  0  0  0  0  0  0  0  0  0  0
  145.0403  130.4970  150.1191 H   0  0  0  0  0  0  0  0  0  0  0  0
  145.2693  131.9812  149.1813 H   0  0  0  0  0  0  0  0  0  0  0  0
  146.5208  133.8269  150.3648 H   0  0  0  0  0  0  0  0  0  0  0  0
  147.1401  134.7033  152.6603 H   0  0  0  0  0  0  0  0  0  0  0  0
  148.2473  133.4714  152.0702 H   0  0  0  0  0  0  0  0  0  0  0  0
  147.0485  133.0558  153.2858 H   0  0  0  0  0  0  0  0  0  0  0  0
  148.2598  136.7673  155.2124 H   0  0  0  0  0  0  0  0  0  0  0  0
  149.6540  137.2232  156.1823 H   0  0  0  0  0  0  0  0  0  0  0  0
  149.7769  137.1762  154.4308 H   0  0  0  0  0  0  0  0  0  0  0  0
  146.8299  138.4471  156.2546 H   0  0  0  0  0  0  0  0  0  0  0  0
  147.2686  140.1434  156.3208 H   0  0  0  0  0  0  0  0  0  0  0  0
  148.1296  138.9746  157.3040 H   0  0  0  0  0  0  0  0  0  0  0  0
  1  2  1  0  0  0  0
  1 29  1  0  0  0  0
  1 30  1  0  0  0  0
  1 31  1  0  0  0  0
  2  3  1  0  0  0  0
  2 32  1  0  0  0  0
  2 33  1  0  0  0  0
  3  4  1  0  0  0  0
  4 26  1  0  0  0  0
  4  5  1  0  0  0  0
  4 34  1  0  0  0  0
  5  6  1  0  0  0  0
  5 35  1  0  0  0  0
  5 36  1  0  0  0  0
  6  7  1  0  0  0  0
  6 26  1  0  0  0  0
  6 37  1  0  0  0  0
  7  8  1  0  0  0  0
  7  9  1  0  0  0  0
  8 38  1  0  0  0  0
  8 39  1  0  0  0  0
  8 40  1  0  0  0  0
  9 14  1  0  0  0  0
  9 10  2  0  0  0  0
 10 11  1  0  0  0  0
 11 12  2  0  0  0  0
 11 41  1  0  0  0  0
 12 13  1  0  0  0  0
 13 17  1  0  0  0  0
 13 14  2  0  0  0  0
 14 15  1  0  0  0  0
 15 16  2  0  0  0  0
 16 17  1  0  0  0  0
 16 42  1  0  0  0  0
 17 18  1  0  0  0  0
 18 19  1  0  0  0  0
 18 43  1  0  0  0  0
 18 44  1  0  0  0  0
 19 24  1  0  0  0  0
 19 20  1  0  0  0  0
 19 21  1  0  0  0  0
 20 45  1  0  0  0  0
 21 22  1  0  0  0  0
 21 46  1  0  0  0  0
 21 47  1  0  0  0  0
 22 23  1  0  0  0  0
 22 48  1  0  0  0  0
 22 49  1  0  0  0  0
 23 24  1  0  0  0  0
 24 25  1  0  0  0  0
 24 50  1  0  0  0  0
 25 51  1  0  0  0  0
 25 52  1  0  0  0  0
 25 53  1  0  0  0  0
 26 27  1  0  0  0  0
 26 28  1  0  0  0  0
 27 54  1  0  0  0  0
 27 55  1  0  0  0  0
 27 56  1  0  0  0  0
 28 57  1  0  0  0  0
 28 58  1  0  0  0  0
 28 59  1  0  0  0  0
M  END
> <s_m_source_file>
AV-unprocessed.smi

> <i_m_source_file_index>
234

> <i_lp_mmshare_version>
43012

> <i_f3d_flags>
0

> <s_epik_input>
W0NIM11bQ0gyXU9bQ0BASF0oQzEoW0NIM10pW0NIM10pW0NIMl1bQ0BIXTFOKFtDSDNdKWMobltjSF1uMiljKGMyMyluW2NIXW4zW0NIMl1bQ0BAXTQoW09IXSlbQ0gyXVtDSDJdT1tDQEhdNFtDSDNd

> <s_epik_cmdline>
J2VwaWtfcHl0aG9uJywgJy1waCcsICc3LjAnLCAnLXRuJywgJzgnLCAnLW1hJywgJzIwMCcsICctbWV0YWxfYmluZGluZycsICctaW1hZScsICc8aW5maWxlLm1hZT4nLCAnLW9tYWUnLCAnPG91dGZpbGUubWFlPic=

> <r_lp_tautomer_probability>
1

> <r_epik_Ionization_Penalty>
0.00349132

> <r_epik_Ionization_Penalty_Charging>
0

> <r_epik_Ionization_Penalty_Neutral>
0.00349132

> <r_epik_State_Penalty>
0.00242418

> <r_epik_Charging_Adjusted_Penalty>
0.00242418

> <i_epik_Tot_Q>
0

> <i_epik_Tot_abs_Q>
0

> <r_epik_Metal_State_Penalty>
-0

> <b_epik_Metal_Only>
0

> <s_lp_Force_Field>
OPLS_2005

> <r_lp_Energy>
47.8509

> <b_lp_Chiralities_Consistent>
1

> <s_lp_Variant>
AV-unprocessed.smi:234-11

> <Gold.Version>
5.8.1

> <Gold.Id.Protein>
6NUR|6NUR_protein|mol2

> <Gold.PLP.Fitness>
42.2223

> <Gold.PLP.PLP>
-35.1839

> <Gold.PLP.part.hbond>
-2.0000

> <Gold.PLP.part.metal>
0.0000

> <Gold.PLP.part.buried>
-0.7038

> <Gold.PLP.part.nonpolar>
-35.6464

> <Gold.PLP.part.repulsive>
2.5675

> <Gold.PLP.ligand.clash>
0.0000

> <Gold.PLP.ligand.torsion>
0.9546

> <Gold.PLP.Chemscore.Hbond>
1.7388

> <Gold.PLP.Chemscore.CHOScore>
1.0000

> <Gold.PLP.Chemscore.Metal>
0.0000

> <Gold.Chemscore.Hbonds>
donor molecule, donor type, donor heavy atom, donor atom, acceptor molecule, acceptor atom, score
      L1  H    20    45       P1 10957  0.24
      P1  H  7954  7966       L1    15  0.37
      L1  C    16    42       P1  7921  0.86

> <Gold.PLP.Chemscore.Internal.Correction>
0.7314

> <Gold.Rescore>
     Score         DG    S(hbond)    S(metal)    S(lipo)     H(rot)  DE(clash)    DE(int)     intcor
      6.11     -13.40       1.05        0.00      95.15       2.62       3.50       3.78       ----

> <Gold.Chemscore.Fitness>
6.1087

> <Gold.Chemscore.DG>
-13.3960

> <Gold.Chemscore.ZeroCoef>
-5.4800

> <Gold.Chemscore.Hbond>
1.0466

> <Gold.Chemscore.Metal>
0.0000

> <Gold.Chemscore.Lipo>
95.1480

> <Gold.Chemscore.Internal_Hbond>
0.0000

> <Gold.Chemscore.DEClash>
3.5030

> <Gold.Chemscore.DEInternal>
3.7843

> <Gold.Chemscore.Rot>
2.6219

> <Gold.Chemscore.Internal.Correction>
   9.000000E+99

> <Gold.Chemscore.Hbonds>
donor molecule, donor type, donor heavy atom, donor atom, acceptor molecule, acceptor atom, score
      L1  H    20    45       P1 10957  0.09
      P1  H  7954  7966       L1    15  0.08

> <Gold.Chemscore.Hbond.Weighted>
-3.4958

> <Gold.Chemscore.Metal.Weighted>
-0.0000

> <Gold.Chemscore.Lipo.Weighted>
-11.1323

> <Gold.Chemscore.Internal_Hbond.Weighted>
0.0000

> <Gold.Chemscore.DEClash.Weighted>
3.5030

> <Gold.Chemscore.DEInternal.Weighted>
3.7843

> <Gold.Chemscore.Rot.Weighted>
6.7121

> <Gold.Chemscore.Internal.Correction.Weighted>
   9.000000E+99

> <Gold.Protein.RotatedTorsions>
[ 6907 6896 6895 6894 ] final   81.43 input  -60.11 | X-H torsion
[ 7974 7965 7964 7962 ] final  -87.69 input  175.53 | X-H torsion
[ 8008 7997 7996 7995 ] final  -14.16 input   59.86 | X-H torsion
[ 10167 10162 10161 10158 ] final  -84.00 input  -65.29 | X-H torsion
[ 10718 10713 10712 10709 ] final   99.45 input   66.30 | X-H torsion
[ 10763 10752 10751 10750 ] final -103.79 input  -60.55 | X-H torsion
[ 11005 11000 10999 10996 ] final   69.11 input  -57.11 | X-H torsion

> <Gold.Protein.ActiveResidues>
 VAL166  LYS551  ARG553  GLY616  TRP617  ASP618  TYR619  PRO620  LYS621  CYS622 
 ASP623  PHE694  ASN695  SER759  ASP760  ASP761  ALA762  ILE779  LEU786  VAL792 
 PHE793  MET794  SER795  GLU796  ALA797  LYS798  CYS799  TRP800  GLU811  SER814 

> <Gold.Protein.RotatedAtoms>
  152.5268  134.3205  159.9146 H   0  0  0  0  0  0  0  0  0  0  0  0  # atno 6907 bound_to 6896
  151.3155  133.4056  159.2658 H   0  0  0  0  0  0  0  0  0  0  0  0  # atno 6908 bound_to 6896
  151.0003  134.9333  159.8007 H   0  0  0  0  0  0  0  0  0  0  0  0  # atno 6909 bound_to 6896
  145.4632  140.9561  143.1958 H   0  0  0  0  0  0  0  0  0  0  0  0  # atno 7974 bound_to 7965
  154.5233  140.2230  155.8936 H   0  0  0  0  0  0  0  0  0  0  0  0  # atno 8008 bound_to 7997
  156.1685  140.3127  155.8897 H   0  0  0  0  0  0  0  0  0  0  0  0  # atno 8009 bound_to 7997
  155.3606  140.0461  157.3037 H   0  0  0  0  0  0  0  0  0  0  0  0  # atno 8010 bound_to 7997
  140.4174  143.2598  151.8937 H   0  0  0  0  0  0  0  0  0  0  0  0  # atno 10167 bound_to 10162
  157.6876  131.0670  150.4950 H   0  0  0  0  0  0  0  0  0  0  0  0  # atno 10718 bound_to 10713
  154.7832  135.4810  153.9890 H   0  0  0  0  0  0  0  0  0  0  0  0  # atno 10763 bound_to 10752
  153.1523  135.6793  153.8870 H   0  0  0  0  0  0  0  0  0  0  0  0  # atno 10764 bound_to 10752
  153.8511  135.3167  155.3410 H   0  0  0  0  0  0  0  0  0  0  0  0  # atno 10765 bound_to 10752
  139.9672  134.6960  156.0520 H   0  0  0  0  0  0  0  0  0  0  0  0  # atno 11005 bound_to 11000
  144.7990  139.6177  143.7080 LP  0  0  0  0  0  0  0  0  0  0  0  0  # atno 17320 bound_to 7965
  146.2439  139.6058  142.9473 LP  0  0  0  0  0  0  0  0  0  0  0  0  # atno 17321 bound_to 7965
  139.4782  144.5474  151.8438 LP  0  0  0  0  0  0  0  0  0  0  0  0  # atno 17342 bound_to 10162
  140.4572  144.1773  150.5902 LP  0  0  0  0  0  0  0  0  0  0  0  0  # atno 17343 bound_to 10162
  156.5274  130.4176  149.6219 LP  0  0  0  0  0  0  0  0  0  0  0  0  # atno 17370 bound_to 10713
  156.3100  130.7223  151.2114 LP  0  0  0  0  0  0  0  0  0  0  0  0  # atno 17371 bound_to 10713
  141.1352  133.6577  156.3574 LP  0  0  0  0  0  0  0  0  0  0  0  0  # atno 17394 bound_to 11000
  140.5370  134.6157  157.5368 LP  0  0  0  0  0  0  0  0  0  0  0  0  # atno 17395 bound_to 11000

$$$$
