AV-unprocessed.smi:3202|AV-procd|sdf|12248|dock2
  -GOLD-   2272018 83D 1   1.00000     0.00000
 Structure written by MMmdl.
 43 44  0  0  0  0  0  0  0  0  2 V2000
  139.7621  138.8093  153.8940 C   0  0  0  0  0  0  0  0  0  0  0  0
  140.5164  137.5178  154.0136 C   0  0  0  0  0  0  0  0  0  0  0  0
  141.7956  137.1924  153.4748 C   0  0  0  0  0  0  0  0  0  0  0  0
  142.0086  135.9005  153.8665 C   0  0  0  0  0  0  0  0  0  0  0  0
  143.1525  134.9715  153.6174 C   0  0  0  0  0  0  0  0  0  0  0  0
  142.9466  134.0250  152.4189 C   0  0  1  0  0  0  0  0  0  0  0  0
  141.4927  133.5442  152.2828 C   0  0  0  0  0  0  0  0  0  0  0  0
  143.3610  134.7034  151.1707 N   0  3  0  0  0  0  0  0  0  0  0  0
  144.6201  134.2139  150.5650 C   0  0  1  0  0  0  0  0  0  0  0  0
  145.6923  133.8588  151.6053 C   0  0  0  0  0  0  0  0  0  0  0  0
  146.5792  132.7997  150.9383 C   0  0  0  0  0  0  0  0  0  0  0  0
  145.8925  132.4324  149.6148 C   0  0  0  0  0  0  0  0  0  0  0  0
  144.4406  132.9330  149.7221 C   0  0  0  0  0  0  0  0  0  0  0  0
  143.5692  131.8670  150.4266 C   0  0  0  0  0  0  0  0  0  0  0  0
  143.8538  133.2412  148.3318 C   0  0  0  0  0  0  0  0  0  0  0  0
  140.8990  135.5316  154.5925 N   0  0  0  0  0  0  0  0  0  0  0  0
  139.9814  136.5111  154.6879 N   0  0  0  0  0  0  0  0  0  0  0  0
  140.7543  134.6293  155.0232 H   0  0  0  0  0  0  0  0  0  0  0  0
  140.3667  139.5755  153.4082 H   0  0  0  0  0  0  0  0  0  0  0  0
  139.4712  139.1891  154.8738 H   0  0  0  0  0  0  0  0  0  0  0  0
  138.8556  138.6795  153.3026 H   0  0  0  0  0  0  0  0  0  0  0  0
  142.4530  137.8137  152.8847 H   0  0  0  0  0  0  0  0  0  0  0  0
  143.3308  134.3813  154.5174 H   0  0  0  0  0  0  0  0  0  0  0  0
  144.0584  135.5593  153.4640 H   0  0  0  0  0  0  0  0  0  0  0  0
  143.5691  133.1428  152.5753 H   0  0  0  0  0  0  0  0  0  0  0  0
  141.1733  132.9805  153.1598 H   0  0  0  0  0  0  0  0  0  0  0  0
  141.3777  132.8874  151.4197 H   0  0  0  0  0  0  0  0  0  0  0  0
  140.8065  134.3823  152.1573 H   0  0  0  0  0  0  0  0  0  0  0  0
  142.6235  134.6037  150.4880 H   0  0  0  0  0  0  0  0  0  0  0  0
  145.0170  134.9974  149.9160 H   0  0  0  0  0  0  0  0  0  0  0  0
  146.2649  134.7328  151.9174 H   0  0  0  0  0  0  0  0  0  0  0  0
  145.2336  133.4361  152.5005 H   0  0  0  0  0  0  0  0  0  0  0  0
  147.5875  133.1749  150.7608 H   0  0  0  0  0  0  0  0  0  0  0  0
  146.6669  131.9247  151.5836 H   0  0  0  0  0  0  0  0  0  0  0  0
  146.4054  132.9514  148.8035 H   0  0  0  0  0  0  0  0  0  0  0  0
  145.9592  131.3656  149.3970 H   0  0  0  0  0  0  0  0  0  0  0  0
  143.5577  130.9350  149.8601 H   0  0  0  0  0  0  0  0  0  0  0  0
  142.5332  132.1930  150.5235 H   0  0  0  0  0  0  0  0  0  0  0  0
  143.9352  131.6318  151.4262 H   0  0  0  0  0  0  0  0  0  0  0  0
  143.8084  132.3425  147.7156 H   0  0  0  0  0  0  0  0  0  0  0  0
  144.4546  133.9756  147.7941 H   0  0  0  0  0  0  0  0  0  0  0  0
  142.8418  133.6397  148.4087 H   0  0  0  0  0  0  0  0  0  0  0  0
  143.4717  135.6863  151.3751 H   0  0  0  0  0  0  0  0  0  0  0  0
  1 19  1  0  0  0  0
  1 20  1  0  0  0  0
  1 21  1  0  0  0  0
  1  2  1  0  0  0  0
  2 17  2  0  0  0  0
  2  3  1  0  0  0  0
  3  4  2  0  0  0  0
  3 22  1  0  0  0  0
  4 16  1  0  0  0  0
  4  5  1  0  0  0  0
  5  6  1  0  0  0  0
  5 23  1  0  0  0  0
  5 24  1  0  0  0  0
  6  7  1  0  0  0  0
  6  8  1  0  0  0  0
  6 25  1  0  0  0  0
  7 26  1  0  0  0  0
  7 27  1  0  0  0  0
  7 28  1  0  0  0  0
  8  9  1  0  0  0  0
  8 29  1  0  0  0  0
  8 43  1  0  0  0  0
  9 13  1  0  0  0  0
  9 10  1  0  0  0  0
  9 30  1  0  0  0  0
 10 11  1  0  0  0  0
 10 31  1  0  0  0  0
 10 32  1  0  0  0  0
 11 12  1  0  0  0  0
 11 33  1  0  0  0  0
 11 34  1  0  0  0  0
 12 13  1  0  0  0  0
 12 35  1  0  0  0  0
 12 36  1  0  0  0  0
 13 14  1  0  0  0  0
 13 15  1  0  0  0  0
 14 37  1  0  0  0  0
 14 38  1  0  0  0  0
 14 39  1  0  0  0  0
 15 40  1  0  0  0  0
 15 41  1  0  0  0  0
 15 42  1  0  0  0  0
 16 17  1  0  0  0  0
 16 18  1  0  0  0  0
M  CHG  1   8   1
M  END
> <s_m_source_file>
AV-unprocessed.smi

> <i_m_source_file_index>
3202

> <i_lp_mmshare_version>
43012

> <i_f3d_flags>
0

> <s_epik_input>
W0NIM11jMVtjSF1jKG5bbkhdMSlbQ0gyXVtDQEhdKFtDSDNdKVtOSF1bQ0BASF0oQzIoW0NIM10pW0NIM10pW0NIMl1bQ0gyXVtDSDJdMg==

> <s_epik_cmdline>
J2VwaWtfcHl0aG9uJywgJy1waCcsICc3LjAnLCAnLXRuJywgJzgnLCAnLW1hJywgJzIwMCcsICctbWV0YWxfYmluZGluZycsICctaW1hZScsICc8aW5maWxlLm1hZT4nLCAnLW9tYWUnLCAnPG91dGZpbGUubWFlPic=

> <r_lp_tautomer_probability>
0.5

> <r_epik_Ionization_Penalty>
0.000449684

> <r_epik_Ionization_Penalty_Charging>
0.000404963

> <r_epik_Ionization_Penalty_Neutral>
4.47208e-05

> <r_epik_State_Penalty>
0.41068

> <r_epik_Charging_Adjusted_Penalty>
0.411085

> <i_epik_Tot_Q>
1

> <i_epik_Tot_abs_Q>
1

> <r_epik_Metal_State_Penalty>
0.410687

> <b_epik_Metal_Only>
0

> <s_lp_Force_Field>
OPLS_2005

> <r_lp_Energy>
32.3918

> <b_lp_Chiralities_Consistent>
1

> <s_lp_Variant>
AV-unprocessed.smi:3202-8

> <Gold.Version>
5.8.1

> <Gold.Id.Protein>
6NUR|6NUR_protein|mol2

> <Gold.PLP.Fitness>
39.8257

> <Gold.PLP.PLP>
-33.8122

> <Gold.PLP.part.hbond>
-2.0000

> <Gold.PLP.part.metal>
0.0000

> <Gold.PLP.part.buried>
-1.7019

> <Gold.PLP.part.nonpolar>
-31.2062

> <Gold.PLP.part.repulsive>
0.1143

> <Gold.PLP.ligand.clash>
0.0000

> <Gold.PLP.ligand.torsion>
1.5199

> <Gold.PLP.Chemscore.Hbond>
3.0000

> <Gold.PLP.Chemscore.CHOScore>
0.0000

> <Gold.PLP.Chemscore.Metal>
0.0000

> <Gold.Chemscore.Hbonds>
donor molecule, donor type, donor heavy atom, donor atom, acceptor molecule, acceptor atom, score
      L1  H     8    29       P1 10186  2.00
      L1  H    16    18       P1 11000  0.67

> <Gold.PLP.Chemscore.Internal.Correction>
0.0532

> <Gold.Rescore>
     Score         DG    S(hbond)    S(metal)    S(lipo)     H(rot)  DE(clash)    DE(int)     intcor
     15.73     -18.79       1.48        0.00     103.44       1.46       1.42       1.65       ----

> <Gold.Chemscore.Fitness>
15.7251

> <Gold.Chemscore.DG>
-18.7887

> <Gold.Chemscore.ZeroCoef>
-5.4800

> <Gold.Chemscore.Hbond>
1.4797

> <Gold.Chemscore.Metal>
0.0000

> <Gold.Chemscore.Lipo>
103.4441

> <Gold.Chemscore.Internal_Hbond>
0.0000

> <Gold.Chemscore.DEClash>
1.4156

> <Gold.Chemscore.DEInternal>
1.6479

> <Gold.Chemscore.Rot>
1.4596

> <Gold.Chemscore.Internal.Correction>
   9.000000E+99

> <Gold.Chemscore.Hbonds>
donor molecule, donor type, donor heavy atom, donor atom, acceptor molecule, acceptor atom, score
      L1  H     8    29       P1 10186  0.30
      L1  H    16    18       P1 11000  0.66

> <Gold.Chemscore.Hbond.Weighted>
-4.9422

> <Gold.Chemscore.Metal.Weighted>
-0.0000

> <Gold.Chemscore.Lipo.Weighted>
-12.1030

> <Gold.Chemscore.Internal_Hbond.Weighted>
0.0000

> <Gold.Chemscore.DEClash.Weighted>
1.4156

> <Gold.Chemscore.DEInternal.Weighted>
1.6479

> <Gold.Chemscore.Rot.Weighted>
3.7365

> <Gold.Chemscore.Internal.Correction.Weighted>
   9.000000E+99

> <Gold.Protein.RotatedTorsions>
[ 6907 6896 6895 6894 ] final  -85.20 input  -60.11 | X-H torsion
[ 7974 7965 7964 7962 ] final   81.23 input  175.53 | X-H torsion
[ 8008 7997 7996 7995 ] final  -82.66 input   59.86 | X-H torsion
[ 10167 10162 10161 10158 ] final  -24.25 input  -65.29 | X-H torsion
[ 10718 10713 10712 10709 ] final -171.66 input   66.30 | X-H torsion
[ 10763 10752 10751 10750 ] final -122.57 input  -60.55 | X-H torsion
[ 11005 11000 10999 10996 ] final -157.84 input  -57.11 | X-H torsion

> <Gold.Protein.ActiveResidues>
 VAL166  LYS551  ARG553  GLY616  TRP617  ASP618  TYR619  PRO620  LYS621  CYS622 
 ASP623  PHE694  ASN695  SER759  ASP760  ASP761  ALA762  ILE779  LEU786  VAL792 
 PHE793  MET794  SER795  GLU796  ALA797  LYS798  CYS799  TRP800  GLU811  SER814 

> <Gold.Protein.RotatedAtoms>
  150.6871  134.3241  159.4798 H   0  0  0  0  0  0  0  0  0  0  0  0  # atno 6907 bound_to 6896
  152.1113  134.9269  160.0575 H   0  0  0  0  0  0  0  0  0  0  0  0  # atno 6908 bound_to 6896
  152.0511  133.3985  159.4414 H   0  0  0  0  0  0  0  0  0  0  0  0  # atno 6909 bound_to 6896
  145.6409  139.2425  143.2031 H   0  0  0  0  0  0  0  0  0  0  0  0  # atno 7974 bound_to 7965
  154.6109  140.0630  156.9492 H   0  0  0  0  0  0  0  0  0  0  0  0  # atno 8008 bound_to 7997
  155.1974  140.3312  155.4330 H   0  0  0  0  0  0  0  0  0  0  0  0  # atno 8009 bound_to 7997
  156.2376  140.1870  156.7060 H   0  0  0  0  0  0  0  0  0  0  0  0  # atno 8010 bound_to 7997
  140.7288  143.4369  151.0715 H   0  0  0  0  0  0  0  0  0  0  0  0  # atno 10167 bound_to 10162
  156.7441  130.9353  151.3111 H   0  0  0  0  0  0  0  0  0  0  0  0  # atno 10718 bound_to 10713
  154.8692  135.4128  154.2803 H   0  0  0  0  0  0  0  0  0  0  0  0  # atno 10763 bound_to 10752
  153.3697  135.7007  153.6653 H   0  0  0  0  0  0  0  0  0  0  0  0  # atno 10764 bound_to 10752
  153.5519  135.3627  155.2735 H   0  0  0  0  0  0  0  0  0  0  0  0  # atno 10765 bound_to 10752
  140.6602  134.4357  157.5234 H   0  0  0  0  0  0  0  0  0  0  0  0  # atno 11005 bound_to 11000
  146.1282  140.7221  142.9425 LP  0  0  0  0  0  0  0  0  0  0  0  0  # atno 17320 bound_to 7965
  144.7158  140.4203  143.7046 LP  0  0  0  0  0  0  0  0  0  0  0  0  # atno 17321 bound_to 7965
  139.8032  143.8054  152.3165 LP  0  0  0  0  0  0  0  0  0  0  0  0  # atno 17342 bound_to 10162
  139.8078  144.7348  150.9738 LP  0  0  0  0  0  0  0  0  0  0  0  0  # atno 17343 bound_to 10162
  157.6806  130.9136  150.0257 LP  0  0  0  0  0  0  0  0  0  0  0  0  # atno 17370 bound_to 10713
  156.1445  130.3642  149.9531 LP  0  0  0  0  0  0  0  0  0  0  0  0  # atno 17371 bound_to 10713
  139.9015  134.8544  156.1875 LP  0  0  0  0  0  0  0  0  0  0  0  0  # atno 17394 bound_to 11000
  141.0471  133.6908  156.1703 LP  0  0  0  0  0  0  0  0  0  0  0  0  # atno 17395 bound_to 11000

$$$$
