AV-unprocessed.smi:49|AV-procd|sdf|480|dock5
  -GOLD-   2262016343D 1   1.00000     0.00000
 Structure written by MMmdl.
 28 29  0  0  0  0  0  0  0  0  2 V2000
  150.9010  130.3244  154.6958 C   0  0  0  0  0  0  0  0  0  0  0  0
  149.5009  130.0042  154.1611 C   0  0  0  0  0  0  0  0  0  0  0  0
  148.7136  131.2322  153.8408 C   0  0  0  0  0  0  0  0  0  0  0  0
  148.2829  131.4968  152.5989 N   0  0  0  0  0  0  0  0  0  0  0  0
  147.6535  132.6725  152.7411 C   0  0  0  0  0  0  0  0  0  0  0  0
  146.9936  133.3524  151.5785 C   0  0  1  0  0  0  0  0  0  0  0  0
  145.7905  132.6102  150.9924 C   0  0  0  0  0  0  0  0  0  0  0  0
  144.9139  133.7572  150.4987 C   0  0  1  0  0  0  0  0  0  0  0  0
  143.5601  133.3765  150.3738 O   0  0  0  0  0  0  0  0  0  0  0  0
  145.1152  134.8376  151.5674 C   0  0  0  0  0  0  0  0  0  0  0  0
  146.4724  134.6290  152.1118 N   0  3  0  0  0  0  0  0  0  0  0  0
  147.6807  133.1278  154.0000 N   0  0  0  0  0  0  0  0  0  0  0  0
  148.3863  132.1815  154.7221 N   0  0  0  0  0  0  0  0  0  0  0  0
  147.7247  133.5727  150.7990 H   0  0  0  0  0  0  0  0  0  0  0  0
  145.2830  134.1147  149.5363 H   0  0  0  0  0  0  0  0  0  0  0  0
  148.4032  130.9420  151.7637 H   0  0  0  0  0  0  0  0  0  0  0  0
  151.4484  129.4093  154.9221 H   0  0  0  0  0  0  0  0  0  0  0  0
  150.8467  130.9145  155.6112 H   0  0  0  0  0  0  0  0  0  0  0  0
  151.4821  130.8894  153.9666 H   0  0  0  0  0  0  0  0  0  0  0  0
  149.5775  129.3855  153.2660 H   0  0  0  0  0  0  0  0  0  0  0  0
  148.9493  129.4178  154.8968 H   0  0  0  0  0  0  0  0  0  0  0  0
  146.0631  131.8970  150.2140 H   0  0  0  0  0  0  0  0  0  0  0  0
  145.2664  132.0653  151.7800 H   0  0  0  0  0  0  0  0  0  0  0  0
  143.0611  134.1195  150.0691 H   0  0  0  0  0  0  0  0  0  0  0  0
  144.9895  135.8457  151.1720 H   0  0  0  0  0  0  0  0  0  0  0  0
  144.4062  134.7072  152.3865 H   0  0  0  0  0  0  0  0  0  0  0  0
  146.4159  134.5719  153.1193 H   0  0  0  0  0  0  0  0  0  0  0  0
  147.0852  135.3867  151.8469 H   0  0  0  0  0  0  0  0  0  0  0  0
  1  2  1  0  0  0  0
  1 17  1  0  0  0  0
  1 18  1  0  0  0  0
  1 19  1  0  0  0  0
  2 20  1  0  0  0  0
  2 21  1  0  0  0  0
  2  3  1  0  0  0  0
  3  4  1  0  0  0  0
  3 13  2  0  0  0  0
  4 16  1  0  0  0  0
  4  5  1  0  0  0  0
  5 12  2  0  0  0  0
  5  6  1  0  0  0  0
  6 14  1  0  0  0  0
  6 11  1  0  0  0  0
  6  7  1  0  0  0  0
  7  8  1  0  0  0  0
  7 22  1  0  0  0  0
  7 23  1  0  0  0  0
  8 15  1  0  0  0  0
  8  9  1  0  0  0  0
  8 10  1  0  0  0  0
  9 24  1  0  0  0  0
 10 11  1  0  0  0  0
 10 25  1  0  0  0  0
 10 26  1  0  0  0  0
 11 27  1  0  0  0  0
 11 28  1  0  0  0  0
 12 13  1  0  0  0  0
M  CHG  1  11   1
M  END
> <s_m_source_file>
AV-unprocessed.smi

> <i_m_source_file_index>
49

> <i_lp_mmshare_version>
43012

> <i_f3d_flags>
0

> <s_epik_input>
W0NIM11bQ0gyXWMxbmMobltuSF0xKVtDQEBIXTJbQ0gyXVtDQEBIXShbT0hdKVtDSDJdW05IXTI=

> <s_epik_cmdline>
J2VwaWtfcHl0aG9uJywgJy1waCcsICc3LjAnLCAnLXRuJywgJzgnLCAnLW1hJywgJzIwMCcsICctbWV0YWxfYmluZGluZycsICctaW1hZScsICc8aW5maWxlLm1hZT4nLCAnLW9tYWUnLCAnPG91dGZpbGUubWFlPic=

> <r_lp_tautomer_probability>
0.0517155

> <r_epik_Ionization_Penalty>
0.939819

> <r_epik_Ionization_Penalty_Charging>
0.0688988

> <r_epik_Ionization_Penalty_Neutral>
0.87092

> <r_epik_State_Penalty>
2.1224

> <r_epik_Charging_Adjusted_Penalty>
2.1913

> <i_epik_Tot_Q>
1

> <i_epik_Tot_abs_Q>
1

> <r_epik_Metal_State_Penalty>
2.39725

> <b_epik_Metal_Only>
0

> <s_lp_Force_Field>
OPLS_2005

> <r_lp_Energy>
21.0642

> <b_lp_Chiralities_Consistent>
1

> <s_lp_Variant>
AV-unprocessed.smi:49-18

> <Gold.Version>
5.8.1

> <Gold.Id.Protein>
6NUR|6NUR_protein|mol2

> <Gold.PLP.Fitness>
33.1643

> <Gold.PLP.PLP>
-22.8853

> <Gold.PLP.part.hbond>
-2.9023

> <Gold.PLP.part.metal>
0.0000

> <Gold.PLP.part.buried>
-4.5678

> <Gold.PLP.part.nonpolar>
-15.7346

> <Gold.PLP.part.repulsive>
0.1297

> <Gold.PLP.ligand.clash>
0.0000

> <Gold.PLP.ligand.torsion>
0.0469

> <Gold.PLP.Chemscore.Hbond>
3.4535

> <Gold.PLP.Chemscore.CHOScore>
0.0000

> <Gold.PLP.Chemscore.Metal>
0.0000

> <Gold.Chemscore.Hbonds>
donor molecule, donor type, donor heavy atom, donor atom, acceptor molecule, acceptor atom, score
      L1  H     4    16       P1 10747  0.96
      L1  H     9    24       P1 10186  0.50
      L1  H    11    28       P1  7948  1.98

> <Gold.PLP.Chemscore.Internal.Correction>
0.0125

> <Gold.Rescore>
     Score         DG    S(hbond)    S(metal)    S(lipo)     H(rot)  DE(clash)    DE(int)     intcor
     12.17     -12.23       2.22        0.00      35.57       1.89       0.00       0.06       ----

> <Gold.Chemscore.Fitness>
12.1693

> <Gold.Chemscore.DG>
-12.2273

> <Gold.Chemscore.ZeroCoef>
-5.4800

> <Gold.Chemscore.Hbond>
2.2213

> <Gold.Chemscore.Metal>
0.0000

> <Gold.Chemscore.Lipo>
35.5731

> <Gold.Chemscore.Internal_Hbond>
0.0000

> <Gold.Chemscore.DEClash>
0.0009

> <Gold.Chemscore.DEInternal>
0.0570

> <Gold.Chemscore.Rot>
1.8883

> <Gold.Chemscore.Internal.Correction>
   9.000000E+99

> <Gold.Chemscore.Hbonds>
donor molecule, donor type, donor heavy atom, donor atom, acceptor molecule, acceptor atom, score
      L1  H     4    16       P1 10747  0.90
      L1  H     9    24       P1 10186  0.50
      L1  H    11    28       P1  7948  0.89

> <Gold.Chemscore.Hbond.Weighted>
-7.4192

> <Gold.Chemscore.Metal.Weighted>
-0.0000

> <Gold.Chemscore.Lipo.Weighted>
-4.1621

> <Gold.Chemscore.Internal_Hbond.Weighted>
0.0000

> <Gold.Chemscore.DEClash.Weighted>
0.0009

> <Gold.Chemscore.DEInternal.Weighted>
0.0570

> <Gold.Chemscore.Rot.Weighted>
4.8340

> <Gold.Chemscore.Internal.Correction.Weighted>
   9.000000E+99

> <Gold.Protein.RotatedTorsions>
[ 6907 6896 6895 6894 ] final -102.60 input  -60.11 | X-H torsion
[ 7974 7965 7964 7962 ] final  -36.42 input  175.53 | X-H torsion
[ 8008 7997 7996 7995 ] final  150.34 input   59.86 | X-H torsion
[ 10167 10162 10161 10158 ] final  146.94 input  -65.29 | X-H torsion
[ 10718 10713 10712 10709 ] final -122.74 input   66.30 | X-H torsion
[ 10763 10752 10751 10750 ] final    8.80 input  -60.55 | X-H torsion
[ 11005 11000 10999 10996 ] final  -66.28 input  -57.11 | X-H torsion

> <Gold.Protein.ActiveResidues>
 VAL166  LYS551  ARG553  GLY616  TRP617  ASP618  TYR619  PRO620  LYS621  CYS622 
 ASP623  PHE694  ASN695  SER759  ASP760  ASP761  ALA762  ILE779  LEU786  VAL792 
 PHE793  MET794  SER795  GLU796  ALA797  LYS798  CYS799  TRP800  GLU811  SER814 

> <Gold.Protein.RotatedAtoms>
  150.7203  134.0557  159.3813 H   0  0  0  0  0  0  0  0  0  0  0  0  # atno 6907 bound_to 6896
  151.8535  135.0547  160.0471 H   0  0  0  0  0  0  0  0  0  0  0  0  # atno 6908 bound_to 6896
  152.2772  133.5401  159.5512 H   0  0  0  0  0  0  0  0  0  0  0  0  # atno 6909 bound_to 6896
  146.0663  140.6276  142.8973 H   0  0  0  0  0  0  0  0  0  0  0  0  # atno 7974 bound_to 7965
  156.2719  140.2077  156.6001 H   0  0  0  0  0  0  0  0  0  0  0  0  # atno 8008 bound_to 7997
  154.6913  140.0530  157.0390 H   0  0  0  0  0  0  0  0  0  0  0  0  # atno 8009 bound_to 7997
  155.0862  140.3192  155.4590 H   0  0  0  0  0  0  0  0  0  0  0  0  # atno 8010 bound_to 7997
  139.4898  144.5792  151.6905 H   0  0  0  0  0  0  0  0  0  0  0  0  # atno 10167 bound_to 10162
  156.1443  130.6489  150.9819 H   0  0  0  0  0  0  0  0  0  0  0  0  # atno 10718 bound_to 10713
  153.2210  135.6881  153.8000 H   0  0  0  0  0  0  0  0  0  0  0  0  # atno 10763 bound_to 10752
  153.7199  135.3269  155.3265 H   0  0  0  0  0  0  0  0  0  0  0  0  # atno 10764 bound_to 10752
  154.8269  135.4610  154.1057 H   0  0  0  0  0  0  0  0  0  0  0  0  # atno 10765 bound_to 10752
  141.1478  133.6696  156.6114 H   0  0  0  0  0  0  0  0  0  0  0  0  # atno 11005 bound_to 11000
  144.7204  140.4354  143.7012 LP  0  0  0  0  0  0  0  0  0  0  0  0  # atno 17320 bound_to 7965
  145.6472  139.1559  143.2882 LP  0  0  0  0  0  0  0  0  0  0  0  0  # atno 17321 bound_to 7965
  140.5395  144.0602  150.6083 LP  0  0  0  0  0  0  0  0  0  0  0  0  # atno 17342 bound_to 10162
  140.3620  143.2903  152.0373 LP  0  0  0  0  0  0  0  0  0  0  0  0  # atno 17343 bound_to 10162
  157.6603  131.0882  150.7853 LP  0  0  0  0  0  0  0  0  0  0  0  0  # atno 17370 bound_to 10713
  156.7926  130.4895  149.5382 LP  0  0  0  0  0  0  0  0  0  0  0  0  # atno 17371 bound_to 10713
  140.3611  134.7687  157.4534 LP  0  0  0  0  0  0  0  0  0  0  0  0  # atno 17394 bound_to 11000
  140.0784  134.5765  155.8566 LP  0  0  0  0  0  0  0  0  0  0  0  0  # atno 17395 bound_to 11000

$$$$
