AV-unprocessed.smi:3181|AV-procd|sdf|12140|dock3
  -GOLD-   2272017583D 1   1.00000     0.00000
 Structure written by MMmdl.
 42 43  0  0  0  0  0  0  0  0  2 V2000
  146.8299  138.6589  151.8287 C   0  0  0  0  0  0  0  0  0  0  0  0
  146.3253  138.4167  153.2608 C   0  0  1  0  0  0  0  0  0  0  0  0
  146.6461  139.5888  154.2129 C   0  0  0  0  0  0  0  0  0  0  0  0
  148.0576  139.6789  154.5366 N   0  0  0  0  0  0  0  0  0  0  0  0
  149.1199  139.1374  153.9383 C   0  0  0  0  0  0  0  0  0  0  0  0
  150.2725  139.4408  154.5179 N   0  0  0  0  0  0  0  0  0  0  0  0
  149.8154  140.2219  155.5415 C   0  0  0  0  0  0  0  0  0  0  0  0
  148.4946  140.3959  155.5981 N   0  0  0  0  0  0  0  0  0  0  0  0
  144.8652  138.1714  153.2331 N   0  3  0  0  0  0  0  0  0  0  0  0
  144.2483  137.7311  154.5082 C   0  0  2  0  0  0  0  0  0  0  0  0
  144.6229  136.2708  154.8112 C   0  0  0  0  0  0  0  0  0  0  0  0
  143.9193  135.2865  153.8631 C   0  0  0  0  0  0  0  0  0  0  0  0
  142.3863  135.4562  153.8761 C   0  0  2  0  0  0  0  0  0  0  0  0
  141.7409  134.4430  152.9141 C   0  0  0  0  0  0  0  0  0  0  0  0
  141.9947  136.9237  153.5598 C   0  0  1  0  0  0  0  0  0  0  0  0
  140.4759  137.1652  153.6173 C   0  0  0  0  0  0  0  0  0  0  0  0
  142.7145  137.8974  154.5181 C   0  0  0  0  0  0  0  0  0  0  0  0
  147.9146  138.7643  151.7977 H   0  0  0  0  0  0  0  0  0  0  0  0
  146.3956  139.5633  151.4015 H   0  0  0  0  0  0  0  0  0  0  0  0
  146.5706  137.8244  151.1762 H   0  0  0  0  0  0  0  0  0  0  0  0
  146.8307  137.5232  153.6306 H   0  0  0  0  0  0  0  0  0  0  0  0
  146.3250  140.5337  153.7712 H   0  0  0  0  0  0  0  0  0  0  0  0
  146.0985  139.4867  155.1498 H   0  0  0  0  0  0  0  0  0  0  0  0
  149.0492  138.5123  153.0601 H   0  0  0  0  0  0  0  0  0  0  0  0
  150.4752  140.6760  156.2661 H   0  0  0  0  0  0  0  0  0  0  0  0
  144.3964  139.0052  152.9084 H   0  0  0  0  0  0  0  0  0  0  0  0
  144.6730  138.3499  155.3002 H   0  0  0  0  0  0  0  0  0  0  0  0
  145.7041  136.1369  154.7557 H   0  0  0  0  0  0  0  0  0  0  0  0
  144.3422  136.0348  155.8387 H   0  0  0  0  0  0  0  0  0  0  0  0
  144.2963  135.4226  152.8485 H   0  0  0  0  0  0  0  0  0  0  0  0
  144.1811  134.2668  154.1486 H   0  0  0  0  0  0  0  0  0  0  0  0
  142.0361  135.2209  154.8824 H   0  0  0  0  0  0  0  0  0  0  0  0
  141.9912  134.6651  151.8762 H   0  0  0  0  0  0  0  0  0  0  0  0
  140.6549  134.4342  153.0036 H   0  0  0  0  0  0  0  0  0  0  0  0
  142.0824  133.4296  153.1268 H   0  0  0  0  0  0  0  0  0  0  0  0
  142.3193  137.1493  152.5432 H   0  0  0  0  0  0  0  0  0  0  0  0
  140.0642  136.8793  154.5857 H   0  0  0  0  0  0  0  0  0  0  0  0
  139.9470  136.6028  152.8484 H   0  0  0  0  0  0  0  0  0  0  0  0
  140.2407  138.2176  153.4557 H   0  0  0  0  0  0  0  0  0  0  0  0
  142.3538  137.7207  155.5324 H   0  0  0  0  0  0  0  0  0  0  0  0
  142.4398  138.9273  154.2906 H   0  0  0  0  0  0  0  0  0  0  0  0
  144.7020  137.4378  152.5583 H   0  0  0  0  0  0  0  0  0  0  0  0
  1  2  1  0  0  0  0
  1 18  1  0  0  0  0
  1 19  1  0  0  0  0
  1 20  1  0  0  0  0
  2  3  1  0  0  0  0
  2  9  1  0  0  0  0
  2 21  1  0  0  0  0
  3  4  1  0  0  0  0
  3 22  1  0  0  0  0
  3 23  1  0  0  0  0
  4  8  1  0  0  0  0
  4  5  1  0  0  0  0
  5  6  2  0  0  0  0
  5 24  1  0  0  0  0
  6  7  1  0  0  0  0
  7  8  2  0  0  0  0
  7 25  1  0  0  0  0
  9 10  1  0  0  0  0
  9 26  1  0  0  0  0
  9 42  1  0  0  0  0
 10 17  1  0  0  0  0
 10 11  1  0  0  0  0
 10 27  1  0  0  0  0
 11 12  1  0  0  0  0
 11 28  1  0  0  0  0
 11 29  1  0  0  0  0
 12 13  1  0  0  0  0
 12 30  1  0  0  0  0
 12 31  1  0  0  0  0
 13 14  1  0  0  0  0
 13 15  1  0  0  0  0
 13 32  1  0  0  0  0
 14 33  1  0  0  0  0
 14 34  1  0  0  0  0
 14 35  1  0  0  0  0
 15 16  1  0  0  0  0
 15 17  1  0  0  0  0
 15 36  1  0  0  0  0
 16 37  1  0  0  0  0
 16 38  1  0  0  0  0
 16 39  1  0  0  0  0
 17 40  1  0  0  0  0
 17 41  1  0  0  0  0
M  CHG  1   9   1
M  END
> <s_m_source_file>
AV-unprocessed.smi

> <i_m_source_file_index>
3181

> <i_lp_mmshare_version>
43012

> <i_f3d_flags>
0

> <s_epik_input>
bjFbY0hdbltjSF1uMVtDSDJdW0NAQEhdKFtDSDNdKVtOSF1bQ0BASF0yW0NIMl1bQ0gyXVtDQEBIXShbQ0gzXSlbQ0BASF0oW0NIM10pW0NIMl0y

> <s_epik_cmdline>
J2VwaWtfcHl0aG9uJywgJy1waCcsICc3LjAnLCAnLXRuJywgJzgnLCAnLW1hJywgJzIwMCcsICctbWV0YWxfYmluZGluZycsICctaW1hZScsICc8aW5maWxlLm1hZT4nLCAnLW9tYWUnLCAnPG91dGZpbGUubWFlPic=

> <r_lp_tautomer_probability>
1

> <r_epik_Ionization_Penalty>
0.000617007

> <r_epik_Ionization_Penalty_Charging>
0.000616215

> <r_epik_Ionization_Penalty_Neutral>
7.92544e-07

> <r_epik_State_Penalty>
0.000388807

> <r_epik_Charging_Adjusted_Penalty>
0.00100502

> <i_epik_Tot_Q>
1

> <i_epik_Tot_abs_Q>
1

> <r_epik_Metal_State_Penalty>
-0

> <b_epik_Metal_Only>
0

> <s_lp_Force_Field>
OPLS_2005

> <r_lp_Energy>
23.1218

> <b_lp_Chiralities_Consistent>
1

> <s_lp_Variant>
AV-unprocessed.smi:3181-6

> <Gold.Version>
5.8.1

> <Gold.Id.Protein>
6NUR|6NUR_protein|mol2

> <Gold.PLP.Fitness>
35.4904

> <Gold.PLP.PLP>
-23.2853

> <Gold.PLP.part.hbond>
-2.0000

> <Gold.PLP.part.metal>
0.0000

> <Gold.PLP.part.buried>
-0.9292

> <Gold.PLP.part.nonpolar>
-21.6625

> <Gold.PLP.part.repulsive>
0.2174

> <Gold.PLP.ligand.clash>
0.0000

> <Gold.PLP.ligand.torsion>
0.4421

> <Gold.PLP.Chemscore.Hbond>
3.0000

> <Gold.PLP.Chemscore.CHOScore>
1.3560

> <Gold.PLP.Chemscore.Metal>
0.0000

> <Gold.Chemscore.Hbonds>
donor molecule, donor type, donor heavy atom, donor atom, acceptor molecule, acceptor atom, score
      L1  H     9    26       P1 10175  2.00
      P1  H  7989  7998       L1     6  0.54
      L1  C     5    24       P1  7948  0.96
      L1  C     5    24       P1  7957  0.51

> <Gold.PLP.Chemscore.Internal.Correction>
0.0214

> <Gold.Rescore>
     Score         DG    S(hbond)    S(metal)    S(lipo)     H(rot)  DE(clash)    DE(int)     intcor
     10.68     -11.36       1.78        0.00      45.66       2.11       0.12       0.56       ----

> <Gold.Chemscore.Fitness>
10.6795

> <Gold.Chemscore.DG>
-11.3551

> <Gold.Chemscore.ZeroCoef>
-5.4800

> <Gold.Chemscore.Hbond>
1.7766

> <Gold.Chemscore.Metal>
0.0000

> <Gold.Chemscore.Lipo>
45.6555

> <Gold.Chemscore.Internal_Hbond>
0.0000

> <Gold.Chemscore.DEClash>
0.1183

> <Gold.Chemscore.DEInternal>
0.5572

> <Gold.Chemscore.Rot>
2.1095

> <Gold.Chemscore.Internal.Correction>
   9.000000E+99

> <Gold.Chemscore.Hbonds>
donor molecule, donor type, donor heavy atom, donor atom, acceptor molecule, acceptor atom, score
      L1  H     9    26       P1 10175  1.00
      P1  H  7989  7998       L1     6  0.16

> <Gold.Chemscore.Hbond.Weighted>
-5.9337

> <Gold.Chemscore.Metal.Weighted>
-0.0000

> <Gold.Chemscore.Lipo.Weighted>
-5.3417

> <Gold.Chemscore.Internal_Hbond.Weighted>
0.0000

> <Gold.Chemscore.DEClash.Weighted>
0.1183

> <Gold.Chemscore.DEInternal.Weighted>
0.5572

> <Gold.Chemscore.Rot.Weighted>
5.4003

> <Gold.Chemscore.Internal.Correction.Weighted>
   9.000000E+99

> <Gold.Protein.RotatedTorsions>
[ 6907 6896 6895 6894 ] final   52.09 input  -60.11 | X-H torsion
[ 7974 7965 7964 7962 ] final  -88.01 input  175.53 | X-H torsion
[ 8008 7997 7996 7995 ] final   33.49 input   59.86 | X-H torsion
[ 10167 10162 10161 10158 ] final -116.64 input  -65.29 | X-H torsion
[ 10718 10713 10712 10709 ] final  141.49 input   66.30 | X-H torsion
[ 10763 10752 10751 10750 ] final  -61.06 input  -60.55 | X-H torsion
[ 11005 11000 10999 10996 ] final  166.31 input  -57.11 | X-H torsion

> <Gold.Protein.ActiveResidues>
 VAL166  LYS551  ARG553  GLY616  TRP617  ASP618  TYR619  PRO620  LYS621  CYS622 
 ASP623  PHE694  ASN695  SER759  ASP760  ASP761  ALA762  ILE779  LEU786  VAL792 
 PHE793  MET794  SER795  GLU796  ALA797  LYS798  CYS799  TRP800  GLU811  SER814 

> <Gold.Protein.RotatedAtoms>
  152.3196  134.7397  160.0316 H   0  0  0  0  0  0  0  0  0  0  0  0  # atno 6907 bound_to 6896
  151.7849  133.3348  159.3490 H   0  0  0  0  0  0  0  0  0  0  0  0  # atno 6908 bound_to 6896
  150.7363  134.5827  159.5991 H   0  0  0  0  0  0  0  0  0  0  0  0  # atno 6909 bound_to 6896
  145.4589  140.9561  143.1981 H   0  0  0  0  0  0  0  0  0  0  0  0  # atno 7974 bound_to 7965
  155.1395  140.3265  155.4455 H   0  0  0  0  0  0  0  0  0  0  0  0  # atno 8008 bound_to 7997
  156.2609  140.1996  156.6461 H   0  0  0  0  0  0  0  0  0  0  0  0  # atno 8009 bound_to 7997
  154.6552  140.0553  156.9988 H   0  0  0  0  0  0  0  0  0  0  0  0  # atno 8010 bound_to 7997
  140.0770  143.4823  152.1947 H   0  0  0  0  0  0  0  0  0  0  0  0  # atno 10167 bound_to 10162
  157.3914  131.1005  151.0642 H   0  0  0  0  0  0  0  0  0  0  0  0  # atno 10718 bound_to 10713
  154.2787  135.6276  153.5338 H   0  0  0  0  0  0  0  0  0  0  0  0  # atno 10763 bound_to 10752
  152.9869  135.5628  154.5519 H   0  0  0  0  0  0  0  0  0  0  0  0  # atno 10764 bound_to 10752
  154.5105  135.2877  155.1322 H   0  0  0  0  0  0  0  0  0  0  0  0  # atno 10765 bound_to 10752
  140.2652  134.7871  157.3625 H   0  0  0  0  0  0  0  0  0  0  0  0  # atno 11005 bound_to 11000
  144.8015  139.6131  143.7069 LP  0  0  0  0  0  0  0  0  0  0  0  0  # atno 17320 bound_to 7965
  146.2462  139.6104  142.9458 LP  0  0  0  0  0  0  0  0  0  0  0  0  # atno 17321 bound_to 7965
  139.5802  144.7507  151.3660 LP  0  0  0  0  0  0  0  0  0  0  0  0  # atno 17342 bound_to 10162
  140.7097  143.7423  150.7545 LP  0  0  0  0  0  0  0  0  0  0  0  0  # atno 17343 bound_to 10162
  157.1675  130.6252  149.5630 LP  0  0  0  0  0  0  0  0  0  0  0  0  # atno 17370 bound_to 10713
  155.9799  130.4796  150.6744 LP  0  0  0  0  0  0  0  0  0  0  0  0  # atno 17371 bound_to 10713
  140.1426  134.4952  155.8020 LP  0  0  0  0  0  0  0  0  0  0  0  0  # atno 17394 bound_to 11000
  141.2185  133.6831  156.7238 LP  0  0  0  0  0  0  0  0  0  0  0  0  # atno 17395 bound_to 11000

$$$$
