AV-unprocessed.smi:1410|AV-procd|sdf|5735|dock3
  -GOLD-   22720 5363D 1   1.00000     0.00000
 Structure written by MMmdl.
 39 40  0  0  0  0  0  0  0  0  3 V2000
  147.9840  142.5961  157.5206 N   0  5  0  0  0  0  0  0  0  0  0  0
  146.9670  141.8243  157.0921 C   0  0  0  0  0  0  0  0  0  0  0  0
  146.3224  140.9985  157.7354 O   0  0  0  0  0  0  0  0  0  0  0  0
  146.6521  142.0409  155.6079 C   0  0  0  0  0  0  0  0  0  0  0  0
  146.8247  140.7723  154.8572 N   0  3  2  0  0  0  0  0  0  0  0  0
  146.9854  140.9761  153.3922 C   0  0  0  0  0  0  0  0  0  0  0  0
  147.2996  139.6504  152.6807 C   0  0  0  0  0  0  0  0  0  0  0  0
  146.2123  138.6012  152.9594 C   0  0  1  0  0  0  0  0  0  0  0  0
  146.5780  137.3331  152.3356 N   0  0  0  0  0  0  0  0  0  0  0  0
  145.7143  136.3747  151.9706 C   0  0  0  0  0  0  0  0  0  0  0  0
  144.4991  136.4535  152.1503 O   0  0  0  0  0  0  0  0  0  0  0  0
  146.3542  135.3322  151.4127 N   0  0  0  0  0  0  0  0  0  0  0  0
  145.8030  134.1439  150.8612 C   0  0  0  0  0  0  0  0  0  0  0  0
  144.4003  134.0656  150.7388 C   0  0  0  0  0  0  0  0  0  0  0  0
  143.8291  132.8902  150.2119 C   0  0  0  0  0  0  0  0  0  0  0  0
  144.5563  131.8214  149.8240 N   0  0  0  0  0  0  0  0  0  0  0  0
  145.8980  131.8922  149.9560 C   0  0  0  0  0  0  0  0  0  0  0  0
  146.5694  133.0200  150.4695 C   0  0  0  0  0  0  0  0  0  0  0  0
  146.0333  138.4360  154.4796 C   0  0  0  0  0  0  0  0  0  0  0  0
  145.7534  139.7884  155.1567 C   0  0  0  0  0  0  0  0  0  0  0  0
  148.5053  143.1519  156.8318 H   0  0  0  0  0  0  0  0  0  0  0  0
  145.6134  142.3689  155.5511 H   0  0  0  0  0  0  0  0  0  0  0  0
  147.2526  142.8351  155.1588 H   0  0  0  0  0  0  0  0  0  0  0  0
  146.0743  141.4157  152.9828 H   0  0  0  0  0  0  0  0  0  0  0  0
  147.7914  141.6829  153.1936 H   0  0  0  0  0  0  0  0  0  0  0  0
  147.3892  139.8216  151.6073 H   0  0  0  0  0  0  0  0  0  0  0  0
  148.2700  139.2815  153.0172 H   0  0  0  0  0  0  0  0  0  0  0  0
  145.2753  138.9576  152.5266 H   0  0  0  0  0  0  0  0  0  0  0  0
  147.5598  137.1801  152.1569 H   0  0  0  0  0  0  0  0  0  0  0  0
  147.3627  135.3760  151.4176 H   0  0  0  0  0  0  0  0  0  0  0  0
  143.7691  134.8900  151.0367 H   0  0  0  0  0  0  0  0  0  0  0  0
  142.7580  132.8061  150.1021 H   0  0  0  0  0  0  0  0  0  0  0  0
  146.4554  131.0197  149.6491 H   0  0  0  0  0  0  0  0  0  0  0  0
  147.6440  132.9936  150.5630 H   0  0  0  0  0  0  0  0  0  0  0  0
  145.2158  137.7454  154.6906 H   0  0  0  0  0  0  0  0  0  0  0  0
  146.9313  137.9936  154.9137 H   0  0  0  0  0  0  0  0  0  0  0  0
  145.6805  139.6385  156.2345 H   0  0  0  0  0  0  0  0  0  0  0  0
  144.7919  140.1842  154.8254 H   0  0  0  0  0  0  0  0  0  0  0  0
  147.6868  140.3690  155.1954 H   0  0  0  0  0  0  0  0  0  0  0  0
  1  2  1  0  0  0  0
  1 21  1  0  0  0  0
  2  3  2  0  0  0  0
  2  4  1  0  0  0  0
  4  5  1  0  0  0  0
  4 22  1  0  0  0  0
  4 23  1  0  0  0  0
  5 20  1  0  0  0  0
  5  6  1  0  0  0  0
  5 39  1  0  0  0  0
  6  7  1  0  0  0  0
  6 24  1  0  0  0  0
  6 25  1  0  0  0  0
  7  8  1  0  0  0  0
  7 26  1  0  0  0  0
  7 27  1  0  0  0  0
  8  9  1  0  0  0  0
  8 19  1  0  0  0  0
  8 28  1  0  0  0  0
  9 10  1  0  0  0  0
  9 29  1  0  0  0  0
 10 11  2  0  0  0  0
 10 12  1  0  0  0  0
 12 13  1  0  0  0  0
 12 30  1  0  0  0  0
 13 18  1  0  0  0  0
 13 14  2  0  0  0  0
 14 15  1  0  0  0  0
 14 31  1  0  0  0  0
 15 16  2  0  0  0  0
 15 32  1  0  0  0  0
 16 17  1  0  0  0  0
 17 18  2  0  0  0  0
 17 33  1  0  0  0  0
 18 34  1  0  0  0  0
 19 20  1  0  0  0  0
 19 35  1  0  0  0  0
 19 36  1  0  0  0  0
 20 37  1  0  0  0  0
 20 38  1  0  0  0  0
M  CHG  1   1  -1
M  CHG  1   5   1
M  END
> <s_m_source_file>
AV-unprocessed.smi

> <i_m_source_file_index>
1410

> <i_lp_mmshare_version>
43012

> <i_f3d_flags>
0

> <s_epik_input>
W05IMl1DKD1PKVtDSDJdTjFbQ0gyXVtDSDJdW0NIXShbQ0gyXVtDSDJdMSlbTkhdQyg9TylbTkhdYzJbY0hdW2NIXW5bY0hdW2NIXTI=

> <s_epik_cmdline>
J2VwaWtfcHl0aG9uJywgJy1waCcsICc3LjAnLCAnLXRuJywgJzgnLCAnLW1hJywgJzIwMCcsICctbWV0YWxfYmluZGluZycsICctaW1hZScsICc8aW5maWxlLm1hZT4nLCAnLW9tYWUnLCAnPG91dGZpbGUubWFlPic=

> <r_epik_Ionization_Penalty>
5.8279

> <r_epik_Ionization_Penalty_Charging>
5.7288

> <r_epik_Ionization_Penalty_Neutral>
0.0990993

> <r_epik_State_Penalty>
6.63321

> <r_epik_Charging_Adjusted_Penalty>
12.362

> <i_epik_Tot_Q>
0

> <i_epik_Tot_abs_Q>
2

> <r_epik_Metal_State_Penalty>
2.69435

> <b_epik_Metal_Only>
1

> <s_lp_Force_Field>
OPLS_2005

> <r_lp_Energy>
12.3591

> <b_lp_Chiralities_Consistent>
1

> <s_lp_Variant>
AV-unprocessed.smi:1410-7

> <Gold.Version>
5.8.1

> <Gold.Id.Protein>
6NUR|6NUR_protein|mol2

> <Gold.PLP.Fitness>
41.8002

> <Gold.PLP.PLP>
-28.5548

> <Gold.PLP.part.hbond>
-3.7086

> <Gold.PLP.part.metal>
0.0000

> <Gold.PLP.part.buried>
-1.5287

> <Gold.PLP.part.nonpolar>
-24.2664

> <Gold.PLP.part.repulsive>
0.4572

> <Gold.PLP.ligand.clash>
0.0000

> <Gold.PLP.ligand.torsion>
0.4752

> <Gold.PLP.Chemscore.Hbond>
3.0257

> <Gold.PLP.Chemscore.CHOScore>
1.6990

> <Gold.PLP.Chemscore.Metal>
0.0000

> <Gold.Chemscore.Hbonds>
donor molecule, donor type, donor heavy atom, donor atom, acceptor molecule, acceptor atom, score
      L1  H     1    21       P1  8028  1.00
      L1  H     9    29       P1  7948  1.00
      L1  H    12    30       P1  7948  1.00
      P1  H 10785 10796       L1    16  0.03
      L1  C    15    32       P1 10186  1.00
      L1  C    17    33       P1 10747  0.69

> <Gold.PLP.Chemscore.Internal.Correction>
0.0217

> <Gold.Rescore>
     Score         DG    S(hbond)    S(metal)    S(lipo)     H(rot)  DE(clash)    DE(int)     intcor
     14.98     -17.43       2.82        0.00      63.96       1.94       0.26       2.20       ----

> <Gold.Chemscore.Fitness>
14.9757

> <Gold.Chemscore.DG>
-17.4349

> <Gold.Chemscore.ZeroCoef>
-5.4800

> <Gold.Chemscore.Hbond>
2.8229

> <Gold.Chemscore.Metal>
0.0000

> <Gold.Chemscore.Lipo>
63.9561

> <Gold.Chemscore.Internal_Hbond>
0.0000

> <Gold.Chemscore.DEClash>
0.2560

> <Gold.Chemscore.DEInternal>
2.2032

> <Gold.Chemscore.Rot>
1.9361

> <Gold.Chemscore.Internal.Correction>
   9.000000E+99

> <Gold.Chemscore.Hbonds>
donor molecule, donor type, donor heavy atom, donor atom, acceptor molecule, acceptor atom, score
      L1  H     1    21       P1  8028  0.48
      L1  H     9    29       P1  7948  0.98
      L1  H    12    30       P1  7948  0.85
      P1  H 10785 10796       L1    16  0.05

> <Gold.Chemscore.Hbond.Weighted>
-9.4283

> <Gold.Chemscore.Metal.Weighted>
-0.0000

> <Gold.Chemscore.Lipo.Weighted>
-7.4829

> <Gold.Chemscore.Internal_Hbond.Weighted>
0.0000

> <Gold.Chemscore.DEClash.Weighted>
0.2560

> <Gold.Chemscore.DEInternal.Weighted>
2.2032

> <Gold.Chemscore.Rot.Weighted>
4.9563

> <Gold.Chemscore.Internal.Correction.Weighted>
   9.000000E+99

> <Gold.Protein.RotatedTorsions>
[ 6907 6896 6895 6894 ] final  -13.44 input  -60.11 | X-H torsion
[ 7974 7965 7964 7962 ] final   86.01 input  175.53 | X-H torsion
[ 8008 7997 7996 7995 ] final  -33.53 input   59.86 | X-H torsion
[ 10167 10162 10161 10158 ] final  133.09 input  -65.29 | X-H torsion
[ 10718 10713 10712 10709 ] final -139.53 input   66.30 | X-H torsion
[ 10763 10752 10751 10750 ] final  156.18 input  -60.55 | X-H torsion
[ 11005 11000 10999 10996 ] final   49.87 input  -57.11 | X-H torsion

> <Gold.Protein.ActiveResidues>
 VAL166  LYS551  ARG553  GLY616  TRP617  ASP618  TYR619  PRO620  LYS621  CYS622 
 ASP623  PHE694  ASN695  SER759  ASP760  ASP761  ALA762  ILE779  LEU786  VAL792 
 PHE793  MET794  SER795  GLU796  ALA797  LYS798  CYS799  TRP800  GLU811  SER814 

> <Gold.Protein.RotatedAtoms>
  151.3549  135.0892  159.9414 H   0  0  0  0  0  0  0  0  0  0  0  0  # atno 6907 bound_to 6896
  152.5177  133.9315  159.7593 H   0  0  0  0  0  0  0  0  0  0  0  0  # atno 6908 bound_to 6896
  150.9698  133.6302  159.2769 H   0  0  0  0  0  0  0  0  0  0  0  0  # atno 6909 bound_to 6896
  145.5780  139.2321  143.2369 H   0  0  0  0  0  0  0  0  0  0  0  0  # atno 7974 bound_to 7965
  154.4146  140.1708  156.1903 H   0  0  0  0  0  0  0  0  0  0  0  0  # atno 8008 bound_to 7997
  155.9609  140.3393  155.6466 H   0  0  0  0  0  0  0  0  0  0  0  0  # atno 8009 bound_to 7997
  155.6750  140.0716  157.2497 H   0  0  0  0  0  0  0  0  0  0  0  0  # atno 8010 bound_to 7997
  139.5312  144.6632  151.4945 H   0  0  0  0  0  0  0  0  0  0  0  0  # atno 10167 bound_to 10162
  156.3118  130.7486  151.1563 H   0  0  0  0  0  0  0  0  0  0  0  0  # atno 10718 bound_to 10713
  154.1802  135.2800  155.3054 H   0  0  0  0  0  0  0  0  0  0  0  0  # atno 10763 bound_to 10752
  154.6008  135.5530  153.7376 H   0  0  0  0  0  0  0  0  0  0  0  0  # atno 10764 bound_to 10752
  153.0140  135.6391  154.1942 H   0  0  0  0  0  0  0  0  0  0  0  0  # atno 10765 bound_to 10752
  140.1066  134.5010  155.8715 H   0  0  0  0  0  0  0  0  0  0  0  0  # atno 11005 bound_to 11000
  146.1737  140.6606  142.9221 LP  0  0  0  0  0  0  0  0  0  0  0  0  # atno 17320 bound_to 7965
  144.7407  140.4934  143.6871 LP  0  0  0  0  0  0  0  0  0  0  0  0  # atno 17321 bound_to 7965
  140.6491  143.8734  150.6767 LP  0  0  0  0  0  0  0  0  0  0  0  0  # atno 17342 bound_to 10162
  140.2093  143.3896  152.1731 LP  0  0  0  0  0  0  0  0  0  0  0  0  # atno 17343 bound_to 10162
  157.7393  131.0531  150.5243 LP  0  0  0  0  0  0  0  0  0  0  0  0  # atno 17370 bound_to 10713
  156.5383  130.4202  149.6166 LP  0  0  0  0  0  0  0  0  0  0  0  0  # atno 17371 bound_to 10713
  141.2119  133.6713  156.6622 LP  0  0  0  0  0  0  0  0  0  0  0  0  # atno 17394 bound_to 11000
  140.3148  134.8057  157.4205 LP  0  0  0  0  0  0  0  0  0  0  0  0  # atno 17395 bound_to 11000

$$$$
