AV-unprocessed.smi:1652|AV-procd|sdf|6639|dock2
  -GOLD-   22720 7343D 1   1.00000     0.00000
 Structure written by MMmdl.
 38 40  0  0  0  0  0  0  0  0  1 V2000
  151.4845  137.0578  159.3851 O   0  0  0  0  0  0  0  0  0  0  0  0
  151.7154  138.2531  159.5712 C   0  0  0  0  0  0  0  0  0  0  0  0
  151.2474  139.3182  158.6709 C   0  0  0  0  0  0  0  0  0  0  0  0
  150.4338  138.9127  157.4446 C   0  0  0  0  0  0  0  0  0  0  0  0
  150.0043  139.9760  156.7636 F   0  0  0  0  0  0  0  0  0  0  0  0
  151.1690  138.1694  156.6168 F   0  0  0  0  0  0  0  0  0  0  0  0
  149.3656  138.2012  157.8064 F   0  0  0  0  0  0  0  0  0  0  0  0
  151.5443  140.6134  158.9380 C   0  0  0  0  0  0  0  0  0  0  0  0
  152.3235  140.9587  160.1097 C   0  0  0  0  0  0  0  0  0  0  0  0
  152.6970  142.3707  160.4604 C   0  0  0  0  0  0  0  0  0  0  0  0
  151.6652  143.4044  160.8509 C   0  0  0  0  0  0  0  0  0  0  0  0
  152.3949  143.5245  159.5327 C   0  0  0  0  0  0  0  0  0  0  0  0
  152.7278  140.0236  160.9016 N   0  0  0  0  0  0  0  0  0  0  0  0
  152.4349  138.6982  160.6431 N   0  0  0  0  0  0  0  0  0  0  0  0
  152.9908  137.7639  161.6305 C   0  0  0  0  0  0  0  0  0  0  0  0
  152.3114  137.9052  163.0101 C   0  0  2  0  0  0  0  0  0  0  0  0
  153.2296  138.4759  163.9216 O   0  0  0  0  0  0  0  0  0  0  0  0
  151.8053  136.5589  163.5068 C   0  0  0  0  0  0  0  0  0  0  0  0
  152.2187  135.3713  162.8652 C   0  0  0  0  0  0  0  0  0  0  0  0
  151.7631  134.1201  163.3245 C   0  0  0  0  0  0  0  0  0  0  0  0
  150.8931  134.0485  164.4294 C   0  0  0  0  0  0  0  0  0  0  0  0
  150.4560  132.8454  164.8708 F   0  0  0  0  0  0  0  0  0  0  0  0
  150.4800  135.2291  165.0761 C   0  0  0  0  0  0  0  0  0  0  0  0
  150.9361  136.4804  164.6179 C   0  0  0  0  0  0  0  0  0  0  0  0
  151.2090  141.4085  158.2892 H   0  0  0  0  0  0  0  0  0  0  0  0
  153.6461  142.3974  160.9928 H   0  0  0  0  0  0  0  0  0  0  0  0
  150.6135  143.1264  160.8119 H   0  0  0  0  0  0  0  0  0  0  0  0
  151.9324  144.1052  161.6390 H   0  0  0  0  0  0  0  0  0  0  0  0
  153.1460  144.3068  159.4433 H   0  0  0  0  0  0  0  0  0  0  0  0
  151.8282  143.3167  158.6267 H   0  0  0  0  0  0  0  0  0  0  0  0
  152.8128  136.7552  161.2522 H   0  0  0  0  0  0  0  0  0  0  0  0
  154.0764  137.8385  161.7175 H   0  0  0  0  0  0  0  0  0  0  0  0
  151.4593  138.5825  162.9353 H   0  0  0  0  0  0  0  0  0  0  0  0
  153.0409  139.3984  164.0000 H   0  0  0  0  0  0  0  0  0  0  0  0
  152.8892  135.4145  162.0194 H   0  0  0  0  0  0  0  0  0  0  0  0
  152.0827  133.2149  162.8296 H   0  0  0  0  0  0  0  0  0  0  0  0
  149.8144  135.1751  165.9251 H   0  0  0  0  0  0  0  0  0  0  0  0
  150.6185  137.3805  165.1239 H   0  0  0  0  0  0  0  0  0  0  0  0
  1  2  2  0  0  0  0
  2 14  1  0  0  0  0
  2  3  1  0  0  0  0
  3  4  1  0  0  0  0
  3  8  2  0  0  0  0
  4  5  1  0  0  0  0
  4  6  1  0  0  0  0
  4  7  1  0  0  0  0
  8  9  1  0  0  0  0
  8 25  1  0  0  0  0
  9 10  1  0  0  0  0
  9 13  2  0  0  0  0
 10 12  1  0  0  0  0
 10 11  1  0  0  0  0
 10 26  1  0  0  0  0
 11 12  1  0  0  0  0
 11 27  1  0  0  0  0
 11 28  1  0  0  0  0
 12 29  1  0  0  0  0
 12 30  1  0  0  0  0
 13 14  1  0  0  0  0
 14 15  1  0  0  0  0
 15 16  1  0  0  0  0
 15 31  1  0  0  0  0
 15 32  1  0  0  0  0
 16 17  1  0  0  0  0
 16 18  1  0  0  0  0
 16 33  1  0  0  0  0
 17 34  1  0  0  0  0
 18 24  1  0  0  0  0
 18 19  2  0  0  0  0
 19 20  1  0  0  0  0
 19 35  1  0  0  0  0
 20 21  2  0  0  0  0
 20 36  1  0  0  0  0
 21 22  1  0  0  0  0
 21 23  1  0  0  0  0
 23 24  2  0  0  0  0
 23 37  1  0  0  0  0
 24 38  1  0  0  0  0
M  END
> <s_m_source_file>
AV-unprocessed.smi

> <i_m_source_file_index>
1652

> <i_lp_mmshare_version>
43012

> <i_f3d_flags>
0

> <s_epik_input>
Tz1jMWMoQyhGKShGKUYpW2NIXWMoW0NIXTJbQ0gyXVtDSDJdMilubjFbQ0gyXVtDQEhdKFtPSF0pYzNbY0hdW2NIXWMoRilbY0hdW2NIXTM=

> <s_epik_cmdline>
J2VwaWtfcHl0aG9uJywgJy1waCcsICc3LjAnLCAnLXRuJywgJzgnLCAnLW1hJywgJzIwMCcsICctbWV0YWxfYmluZGluZycsICctaW1hZScsICc8aW5maWxlLm1hZT4nLCAnLW9tYWUnLCAnPG91dGZpbGUubWFlPic=

> <r_lp_tautomer_probability>
1

> <r_epik_Ionization_Penalty>
9.17026e-08

> <r_epik_Ionization_Penalty_Charging>
9.677e-10

> <r_epik_Ionization_Penalty_Neutral>
9.07349e-08

> <r_epik_State_Penalty>
-0

> <r_epik_Charging_Adjusted_Penalty>
9.677e-10

> <i_epik_Tot_Q>
0

> <i_epik_Tot_abs_Q>
0

> <r_epik_Metal_State_Penalty>
-0

> <b_epik_Metal_Only>
0

> <s_lp_Force_Field>
OPLS_2005

> <r_lp_Energy>
34.1346

> <b_lp_Chiralities_Consistent>
1

> <s_lp_Variant>
AV-unprocessed.smi:1652-1

> <Gold.Version>
5.8.1

> <Gold.Id.Protein>
6NUR|6NUR_protein|mol2

> <Gold.PLP.Fitness>
47.4754

> <Gold.PLP.PLP>
-46.3862

> <Gold.PLP.part.hbond>
-1.0000

> <Gold.PLP.part.metal>
0.0000

> <Gold.PLP.part.buried>
-2.9486

> <Gold.PLP.part.nonpolar>
-42.4195

> <Gold.PLP.part.repulsive>
0.0000

> <Gold.PLP.ligand.clash>
0.3767

> <Gold.PLP.ligand.torsion>
1.1335

> <Gold.PLP.Chemscore.Hbond>
1.0000

> <Gold.PLP.Chemscore.CHOScore>
0.0000

> <Gold.PLP.Chemscore.Metal>
0.0000

> <Gold.Chemscore.Hbonds>
donor molecule, donor type, donor heavy atom, donor atom, acceptor molecule, acceptor atom, score
      P1  H  6896  6907       L1     1  0.92

> <Gold.PLP.Chemscore.Internal.Correction>
0.7331

> <Gold.Rescore>
     Score         DG    S(hbond)    S(metal)    S(lipo)     H(rot)  DE(clash)    DE(int)     intcor
     12.38     -16.43       0.96        0.00     114.25       2.20       0.00       4.06       ----

> <Gold.Chemscore.Fitness>
12.3750

> <Gold.Chemscore.DG>
-16.4335

> <Gold.Chemscore.ZeroCoef>
-5.4800

> <Gold.Chemscore.Hbond>
0.9637

> <Gold.Chemscore.Metal>
0.0000

> <Gold.Chemscore.Lipo>
114.2514

> <Gold.Chemscore.Internal_Hbond>
0.0000

> <Gold.Chemscore.DEClash>
0.0000

> <Gold.Chemscore.DEInternal>
4.0585

> <Gold.Chemscore.Rot>
2.2003

> <Gold.Chemscore.Internal.Correction>
   9.000000E+99

> <Gold.Chemscore.Hbonds>
donor molecule, donor type, donor heavy atom, donor atom, acceptor molecule, acceptor atom, score
      P1  H  6896  6907       L1     1  0.84

> <Gold.Chemscore.Hbond.Weighted>
-3.2189

> <Gold.Chemscore.Metal.Weighted>
-0.0000

> <Gold.Chemscore.Lipo.Weighted>
-13.3674

> <Gold.Chemscore.Internal_Hbond.Weighted>
0.0000

> <Gold.Chemscore.DEClash.Weighted>
0.0000

> <Gold.Chemscore.DEInternal.Weighted>
4.0585

> <Gold.Chemscore.Rot.Weighted>
5.6328

> <Gold.Chemscore.Internal.Correction.Weighted>
   9.000000E+99

> <Gold.Protein.RotatedTorsions>
[ 6907 6896 6895 6894 ] final   14.01 input  -60.11 | X-H torsion
[ 7974 7965 7964 7962 ] final  102.88 input  175.53 | X-H torsion
[ 8008 7997 7996 7995 ] final  -10.60 input   59.86 | X-H torsion
[ 10167 10162 10161 10158 ] final   92.93 input  -65.29 | X-H torsion
[ 10718 10713 10712 10709 ] final  138.16 input   66.30 | X-H torsion
[ 10763 10752 10751 10750 ] final -126.23 input  -60.55 | X-H torsion
[ 11005 11000 10999 10996 ] final -134.49 input  -57.11 | X-H torsion

> <Gold.Protein.ActiveResidues>
 VAL166  LYS551  ARG553  GLY616  TRP617  ASP618  TYR619  PRO620  LYS621  CYS622 
 ASP623  PHE694  ASN695  SER759  ASP760  ASP761  ALA762  ILE779  LEU786  VAL792 
 PHE793  MET794  SER795  GLU796  ALA797  LYS798  CYS799  TRP800  GLU811  SER814 

> <Gold.Protein.RotatedAtoms>
  151.7954  135.0724  160.0392 H   0  0  0  0  0  0  0  0  0  0  0  0  # atno 6907 bound_to 6896
  152.3127  133.5765  159.5700 H   0  0  0  0  0  0  0  0  0  0  0  0  # atno 6908 bound_to 6896
  150.7328  134.0045  159.3691 H   0  0  0  0  0  0  0  0  0  0  0  0  # atno 6909 bound_to 6896
  145.3533  139.2434  143.3546 H   0  0  0  0  0  0  0  0  0  0  0  0  # atno 7974 bound_to 7965
  154.5539  140.2324  155.8440 H   0  0  0  0  0  0  0  0  0  0  0  0  # atno 8008 bound_to 7997
  156.1971  140.3062  155.9411 H   0  0  0  0  0  0  0  0  0  0  0  0  # atno 8009 bound_to 7997
  155.3016  140.0431  157.3020 H   0  0  0  0  0  0  0  0  0  0  0  0  # atno 8010 bound_to 7997
  139.8229  144.6723  150.9496 H   0  0  0  0  0  0  0  0  0  0  0  0  # atno 10167 bound_to 10162
  157.4284  131.1046  151.0278 H   0  0  0  0  0  0  0  0  0  0  0  0  # atno 10718 bound_to 10713
  154.8743  135.4003  154.3396 H   0  0  0  0  0  0  0  0  0  0  0  0  # atno 10763 bound_to 10752
  153.4198  135.7023  153.6307 H   0  0  0  0  0  0  0  0  0  0  0  0  # atno 10764 bound_to 10752
  153.4974  135.3735  155.2493 H   0  0  0  0  0  0  0  0  0  0  0  0  # atno 10765 bound_to 10752
  140.8985  134.1721  157.4477 H   0  0  0  0  0  0  0  0  0  0  0  0  # atno 11005 bound_to 11000
  146.2958  140.4153  142.8722 LP  0  0  0  0  0  0  0  0  0  0  0  0  # atno 17320 bound_to 7965
  144.8701  140.7260  143.6052 LP  0  0  0  0  0  0  0  0  0  0  0  0  # atno 17321 bound_to 7965
  140.7812  143.4075  151.1048 LP  0  0  0  0  0  0  0  0  0  0  0  0  # atno 17342 bound_to 10162
  139.7734  143.8461  152.3125 LP  0  0  0  0  0  0  0  0  0  0  0  0  # atno 17343 bound_to 10162
  157.1183  130.6051  149.5499 LP  0  0  0  0  0  0  0  0  0  0  0  0  # atno 17370 bound_to 10713
  155.9904  130.4955  150.7257 LP  0  0  0  0  0  0  0  0  0  0  0  0  # atno 17371 bound_to 10713
  139.8739  134.9888  156.5429 LP  0  0  0  0  0  0  0  0  0  0  0  0  # atno 17394 bound_to 11000
  140.8259  133.8317  155.8939 LP  0  0  0  0  0  0  0  0  0  0  0  0  # atno 17395 bound_to 11000

$$$$
