AV-unprocessed.smi:3335|AV-procd|sdf|12850|dock3
  -GOLD-   2272019243D 1   1.00000     0.00000
 Structure written by MMmdl.
 46 47  0  0  0  0  0  0  0  0  1 V2000
  151.5482  136.6787  154.1254 C   0  0  0  0  0  0  0  0  0  0  0  0
  150.9297  138.0409  154.2521 C   0  0  0  0  0  0  0  0  0  0  0  0
  151.4859  139.2018  154.8589 C   0  0  0  0  0  0  0  0  0  0  0  0
  150.6816  140.2493  154.7952 N   0  0  0  0  0  0  0  0  0  0  0  0
  149.5784  139.7982  154.1558 N   0  0  0  0  0  0  0  0  0  0  0  0
  148.4617  140.6959  153.8657 C   0  0  1  0  0  0  0  0  0  0  0  0
  147.4828  140.0988  152.8352 C   0  0  0  0  0  0  0  0  0  0  0  0
  147.7579  141.2285  155.1441 C   0  0  2  0  0  0  0  0  0  0  0  0
  146.3678  141.8170  154.8274 C   0  0  0  0  0  0  0  0  0  0  0  0
  148.6308  142.1988  155.8121 N   0  0  0  0  0  0  0  0  0  0  0  0
  148.6302  142.1973  157.2860 C   0  0  1  0  0  0  0  0  0  0  0  0
  147.2452  141.7667  157.7925 C   0  0  0  0  0  0  0  0  0  0  0  0
  149.7041  141.2599  157.8776 C   0  0  0  0  0  0  0  0  0  0  0  0
  149.5826  140.0443  157.7151 O   0  0  0  0  0  0  0  0  0  0  0  0
  150.7524  141.7860  158.5473 N   0  0  0  0  0  0  0  0  0  0  0  0
  150.9073  143.2199  158.7868 C   0  0  0  0  0  0  0  0  0  0  0  0
  152.0598  143.3544  159.7814 C   0  0  0  0  0  0  0  0  0  0  0  0
  152.8933  142.1020  159.5539 C   0  0  0  0  0  0  0  0  0  0  0  0
  151.8728  141.0465  159.1281 C   0  0  0  0  0  0  0  0  0  0  0  0
  149.7095  138.4681  153.8111 C   0  0  0  0  0  0  0  0  0  0  0  0
  152.5631  136.6554  154.5227 H   0  0  0  0  0  0  0  0  0  0  0  0
  151.6034  136.3580  153.0852 H   0  0  0  0  0  0  0  0  0  0  0  0
  150.9746  135.9255  154.6655 H   0  0  0  0  0  0  0  0  0  0  0  0
  152.4474  139.3150  155.3376 H   0  0  0  0  0  0  0  0  0  0  0  0
  148.9024  141.5647  153.3742 H   0  0  0  0  0  0  0  0  0  0  0  0
  146.7161  140.8240  152.5612 H   0  0  0  0  0  0  0  0  0  0  0  0
  146.9753  139.2124  153.2164 H   0  0  0  0  0  0  0  0  0  0  0  0
  148.0046  139.8130  151.9216 H   0  0  0  0  0  0  0  0  0  0  0  0
  147.6203  140.3779  155.8131 H   0  0  0  0  0  0  0  0  0  0  0  0
  145.7947  141.1404  154.1933 H   0  0  0  0  0  0  0  0  0  0  0  0
  146.4404  142.7734  154.3087 H   0  0  0  0  0  0  0  0  0  0  0  0
  145.7775  141.9662  155.7304 H   0  0  0  0  0  0  0  0  0  0  0  0
  148.5205  143.1258  155.4248 H   0  0  0  0  0  0  0  0  0  0  0  0
  148.7862  143.2233  157.6157 H   0  0  0  0  0  0  0  0  0  0  0  0
  147.1991  141.7803  158.8823 H   0  0  0  0  0  0  0  0  0  0  0  0
  146.9906  140.7587  157.4615 H   0  0  0  0  0  0  0  0  0  0  0  0
  146.4694  142.4397  157.4261 H   0  0  0  0  0  0  0  0  0  0  0  0
  151.1530  143.7130  157.8452 H   0  0  0  0  0  0  0  0  0  0  0  0
  149.9943  143.6713  159.1784 H   0  0  0  0  0  0  0  0  0  0  0  0
  152.6300  144.2738  159.6462 H   0  0  0  0  0  0  0  0  0  0  0  0
  151.6668  143.3506  160.7989 H   0  0  0  0  0  0  0  0  0  0  0  0
  153.5992  142.2771  158.7410 H   0  0  0  0  0  0  0  0  0  0  0  0
  153.4644  141.8075  160.4347 H   0  0  0  0  0  0  0  0  0  0  0  0
  151.5200  140.4887  159.9968 H   0  0  0  0  0  0  0  0  0  0  0  0
  152.3129  140.3418  158.4214 H   0  0  0  0  0  0  0  0  0  0  0  0
  148.9310  137.9409  153.2797 H   0  0  0  0  0  0  0  0  0  0  0  0
  1  2  1  0  0  0  0
  1 21  1  0  0  0  0
  1 22  1  0  0  0  0
  1 23  1  0  0  0  0
  2 20  2  0  0  0  0
  2  3  1  0  0  0  0
  3  4  2  0  0  0  0
  3 24  1  0  0  0  0
  4  5  1  0  0  0  0
  5  6  1  0  0  0  0
  5 20  1  0  0  0  0
  6  7  1  0  0  0  0
  6  8  1  0  0  0  0
  6 25  1  0  0  0  0
  7 26  1  0  0  0  0
  7 27  1  0  0  0  0
  7 28  1  0  0  0  0
  8  9  1  0  0  0  0
  8 10  1  0  0  0  0
  8 29  1  0  0  0  0
  9 30  1  0  0  0  0
  9 31  1  0  0  0  0
  9 32  1  0  0  0  0
 10 11  1  0  0  0  0
 10 33  1  0  0  0  0
 11 12  1  0  0  0  0
 11 13  1  0  0  0  0
 11 34  1  0  0  0  0
 12 35  1  0  0  0  0
 12 36  1  0  0  0  0
 12 37  1  0  0  0  0
 13 14  2  0  0  0  0
 13 15  1  0  0  0  0
 15 19  1  0  0  0  0
 15 16  1  0  0  0  0
 16 17  1  0  0  0  0
 16 38  1  0  0  0  0
 16 39  1  0  0  0  0
 17 18  1  0  0  0  0
 17 40  1  0  0  0  0
 17 41  1  0  0  0  0
 18 19  1  0  0  0  0
 18 42  1  0  0  0  0
 18 43  1  0  0  0  0
 19 44  1  0  0  0  0
 19 45  1  0  0  0  0
 20 46  1  0  0  0  0
M  END
> <s_m_source_file>
AV-unprocessed.smi

> <i_m_source_file_index>
3335

> <i_lp_mmshare_version>
43012

> <i_f3d_flags>
0

> <s_epik_input>
W0NIM11jMVtjSF1ubihbY0hdMSlbQ0BIXShbQ0gzXSlbQ0BIXShbQ0gzXSlbTkhdW0NASF0oW0NIM10pQyg9TylOMltDSDJdW0NIMl1bQ0gyXVtDSDJdMg==

> <s_epik_cmdline>
J2VwaWtfcHl0aG9uJywgJy1waCcsICc3LjAnLCAnLXRuJywgJzgnLCAnLW1hJywgJzIwMCcsICctbWV0YWxfYmluZGluZycsICctaW1hZScsICc8aW5maWxlLm1hZT4nLCAnLW9tYWUnLCAnPG91dGZpbGUubWFlPic=

> <r_lp_tautomer_probability>
1

> <r_epik_Ionization_Penalty>
0.918803

> <r_epik_Ionization_Penalty_Charging>
0

> <r_epik_Ionization_Penalty_Neutral>
0.918803

> <r_epik_State_Penalty>
0.958258

> <r_epik_Charging_Adjusted_Penalty>
0.958258

> <i_epik_Tot_Q>
0

> <i_epik_Tot_abs_Q>
0

> <r_epik_Metal_State_Penalty>
0.956786

> <b_epik_Metal_Only>
0

> <s_lp_Force_Field>
OPLS_2005

> <r_lp_Energy>
40.2433

> <b_lp_Chiralities_Consistent>
1

> <s_lp_Variant>
AV-unprocessed.smi:3335-14

> <Gold.Version>
5.8.1

> <Gold.Id.Protein>
6NUR|6NUR_protein|mol2

> <Gold.PLP.Fitness>
38.8299

> <Gold.PLP.PLP>
-34.7719

> <Gold.PLP.part.hbond>
-1.4990

> <Gold.PLP.part.metal>
0.0000

> <Gold.PLP.part.buried>
2.4521

> <Gold.PLP.part.nonpolar>
-36.0297

> <Gold.PLP.part.repulsive>
0.0614

> <Gold.PLP.ligand.clash>
0.0000

> <Gold.PLP.ligand.torsion>
1.4541

> <Gold.PLP.Chemscore.Hbond>
1.2180

> <Gold.PLP.Chemscore.CHOScore>
1.0000

> <Gold.PLP.Chemscore.Metal>
0.0000

> <Gold.Chemscore.Hbonds>
donor molecule, donor type, donor heavy atom, donor atom, acceptor molecule, acceptor atom, score
      L1  H    10    33       P1  8028  0.90
      P1  H  7989  7998       L1     4  0.50
      L1  C    20    46       P1  7948  1.00

> <Gold.PLP.Chemscore.Internal.Correction>
0.3121

> <Gold.Rescore>
     Score         DG    S(hbond)    S(metal)    S(lipo)     H(rot)  DE(clash)    DE(int)     intcor
     13.21     -15.53       0.97        0.00      93.70       1.62       0.65       1.67       ----

> <Gold.Chemscore.Fitness>
13.2106

> <Gold.Chemscore.DG>
-15.5255

> <Gold.Chemscore.ZeroCoef>
-5.4800

> <Gold.Chemscore.Hbond>
0.9674

> <Gold.Chemscore.Metal>
0.0000

> <Gold.Chemscore.Lipo>
93.6971

> <Gold.Chemscore.Internal_Hbond>
0.0000

> <Gold.Chemscore.DEClash>
0.6497

> <Gold.Chemscore.DEInternal>
1.6653

> <Gold.Chemscore.Rot>
1.6204

> <Gold.Chemscore.Internal.Correction>
   9.000000E+99

> <Gold.Chemscore.Hbonds>
donor molecule, donor type, donor heavy atom, donor atom, acceptor molecule, acceptor atom, score
      L1  H    10    33       P1  8028  0.88
      P1  H  7989  7998       L1     4  0.01

> <Gold.Chemscore.Hbond.Weighted>
-3.2312

> <Gold.Chemscore.Metal.Weighted>
-0.0000

> <Gold.Chemscore.Lipo.Weighted>
-10.9626

> <Gold.Chemscore.Internal_Hbond.Weighted>
0.0000

> <Gold.Chemscore.DEClash.Weighted>
0.6497

> <Gold.Chemscore.DEInternal.Weighted>
1.6653

> <Gold.Chemscore.Rot.Weighted>
4.1482

> <Gold.Chemscore.Internal.Correction.Weighted>
   9.000000E+99

> <Gold.Protein.RotatedTorsions>
[ 6907 6896 6895 6894 ] final  120.25 input  -60.11 | X-H torsion
[ 7974 7965 7964 7962 ] final  128.38 input  175.53 | X-H torsion
[ 8008 7997 7996 7995 ] final  126.74 input   59.86 | X-H torsion
[ 10167 10162 10161 10158 ] final  140.90 input  -65.29 | X-H torsion
[ 10718 10713 10712 10709 ] final -159.28 input   66.30 | X-H torsion
[ 10763 10752 10751 10750 ] final   44.95 input  -60.55 | X-H torsion
[ 11005 11000 10999 10996 ] final -128.27 input  -57.11 | X-H torsion

> <Gold.Protein.ActiveResidues>
 VAL166  LYS551  ARG553  GLY616  TRP617  ASP618  TYR619  PRO620  LYS621  CYS622 
 ASP623  PHE694  ASN695  SER759  ASP760  ASP761  ALA762  ILE779  LEU786  VAL792 
 PHE793  MET794  SER795  GLU796  ALA797  LYS798  CYS799  TRP800  GLU811  SER814 

> <Gold.Protein.RotatedAtoms>
  152.4412  133.7452  159.6662 H   0  0  0  0  0  0  0  0  0  0  0  0  # atno 6907 bound_to 6896
  150.8303  133.8091  159.3107 H   0  0  0  0  0  0  0  0  0  0  0  0  # atno 6908 bound_to 6896
  151.5747  135.1063  160.0055 H   0  0  0  0  0  0  0  0  0  0  0  0  # atno 6909 bound_to 6896
  145.0402  139.3969  143.5105 H   0  0  0  0  0  0  0  0  0  0  0  0  # atno 7974 bound_to 7965
  156.2872  140.2685  156.2160 H   0  0  0  0  0  0  0  0  0  0  0  0  # atno 8008 bound_to 7997
  155.0216  140.0386  157.2457 H   0  0  0  0  0  0  0  0  0  0  0  0  # atno 8009 bound_to 7997
  154.7431  140.2729  155.6361 H   0  0  0  0  0  0  0  0  0  0  0  0  # atno 8010 bound_to 7997
  139.5035  144.6205  151.6061 H   0  0  0  0  0  0  0  0  0  0  0  0  # atno 10167 bound_to 10162
  156.5658  130.8667  151.2823 H   0  0  0  0  0  0  0  0  0  0  0  0  # atno 10718 bound_to 10713
  152.9832  135.6055  154.3357 H   0  0  0  0  0  0  0  0  0  0  0  0  # atno 10763 bound_to 10752
  154.3057  135.2772  155.2592 H   0  0  0  0  0  0  0  0  0  0  0  0  # atno 10764 bound_to 10752
  154.4824  135.5914  153.6455 H   0  0  0  0  0  0  0  0  0  0  0  0  # atno 10765 bound_to 10752
  140.9530  134.1040  157.4044 H   0  0  0  0  0  0  0  0  0  0  0  0  # atno 11005 bound_to 11000
  146.3508  139.9999  142.8677 LP  0  0  0  0  0  0  0  0  0  0  0  0  # atno 17320 bound_to 7965
  145.1657  140.9695  143.4351 LP  0  0  0  0  0  0  0  0  0  0  0  0  # atno 17321 bound_to 7965
  140.5906  143.9786  150.6322 LP  0  0  0  0  0  0  0  0  0  0  0  0  # atno 17342 bound_to 10162
  140.2965  143.3289  152.1012 LP  0  0  0  0  0  0  0  0  0  0  0  0  # atno 17343 bound_to 10162
  157.7359  130.9769  150.2105 LP  0  0  0  0  0  0  0  0  0  0  0  0  # atno 17370 bound_to 10713
  156.2758  130.3727  149.7985 LP  0  0  0  0  0  0  0  0  0  0  0  0  # atno 17371 bound_to 10713
  139.8853  135.0071  156.6427 LP  0  0  0  0  0  0  0  0  0  0  0  0  # atno 17394 bound_to 11000
  140.7576  133.8845  155.8394 LP  0  0  0  0  0  0  0  0  0  0  0  0  # atno 17395 bound_to 11000

$$$$
