AV-unprocessed.smi:2188|AV-procd|sdf|8882|dock10
  -GOLD-   2272012 83D 1   1.00000     0.00000
 Structure written by MMmdl.
 38 40  0  0  0  0  0  0  0  0  2 V2000
  151.9108  138.8259  156.5564 O   0  0  0  0  0  0  0  0  0  0  0  0
  151.4981  139.9345  156.1906 C   0  0  0  0  0  0  0  0  0  0  0  0
  150.8853  140.1860  154.9922 N   0  5  0  0  0  0  0  0  0  0  0  0
  149.8225  139.3792  154.3908 C   0  0  0  0  0  0  0  0  0  0  0  0
  148.5442  139.4890  155.2461 C   0  0  0  0  0  0  0  0  0  0  0  0
  147.7120  140.7295  154.9500 C   0  0  0  0  0  0  0  0  0  0  0  0
  146.5723  141.0415  155.7234 C   0  0  0  0  0  0  0  0  0  0  0  0
  145.8275  142.1930  155.4048 C   0  0  0  0  0  0  0  0  0  0  0  0
  146.2506  142.9856  154.3196 C   0  0  0  0  0  0  0  0  0  0  0  0
  147.3340  142.6965  153.5673 N   0  0  0  0  0  0  0  0  0  0  0  0
  148.0440  141.5908  153.8802 C   0  0  0  0  0  0  0  0  0  0  0  0
  151.6912  141.0992  157.0795 C   0  0  0  0  0  0  0  0  0  0  0  0
  150.9871  142.2344  156.8247 C   0  0  0  0  0  0  0  0  0  0  0  0
  151.1062  143.4085  157.6524 C   0  0  0  0  0  0  0  0  0  0  0  0
  151.9645  143.3702  158.6764 C   0  0  0  0  0  0  0  0  0  0  0  0
  152.7435  142.2548  158.9783 N   0  0  0  0  0  0  0  0  0  0  0  0
  153.7088  142.3980  160.0630 C   0  0  0  0  0  0  0  0  0  0  0  0
  153.7347  141.1438  160.9171 C   0  0  0  0  0  0  0  0  0  0  0  0
  154.3230  139.8071  159.8176 S   0  0  0  0  0  0  0  0  0  0  0  0
  155.6629  140.1731  159.3321 O   0  0  0  0  0  0  0  0  0  0  0  0
  154.1337  138.5261  160.5147 O   0  0  0  0  0  0  0  0  0  0  0  0
  153.2239  139.9420  158.5614 N   0  0  0  0  0  0  0  0  0  0  0  0
  152.6112  141.0459  158.2371 C   0  0  0  0  0  0  0  0  0  0  0  0
  149.5861  139.6952  153.3737 H   0  0  0  0  0  0  0  0  0  0  0  0
  150.1133  138.3308  154.3168 H   0  0  0  0  0  0  0  0  0  0  0  0
  147.9203  138.6066  155.0954 H   0  0  0  0  0  0  0  0  0  0  0  0
  148.8071  139.4964  156.3051 H   0  0  0  0  0  0  0  0  0  0  0  0
  146.2765  140.4114  156.5495 H   0  0  0  0  0  0  0  0  0  0  0  0
  144.9532  142.4623  155.9791 H   0  0  0  0  0  0  0  0  0  0  0  0
  145.7021  143.8752  154.0475 H   0  0  0  0  0  0  0  0  0  0  0  0
  148.9034  141.3877  153.2581 H   0  0  0  0  0  0  0  0  0  0  0  0
  150.3164  142.2967  155.9795 H   0  0  0  0  0  0  0  0  0  0  0  0
  150.5193  144.2920  157.4497 H   0  0  0  0  0  0  0  0  0  0  0  0
  152.0990  144.2191  159.3308 H   0  0  0  0  0  0  0  0  0  0  0  0
  154.6943  142.6043  159.6443 H   0  0  0  0  0  0  0  0  0  0  0  0
  153.4553  143.2486  160.6964 H   0  0  0  0  0  0  0  0  0  0  0  0
  154.4246  141.2374  161.7553 H   0  0  0  0  0  0  0  0  0  0  0  0
  152.7475  140.8880  161.3037 H   0  0  0  0  0  0  0  0  0  0  0  0
  1  2  2  0  0  0  0
  2  3  1  0  0  0  0
  2 12  1  0  0  0  0
  3  4  1  0  0  0  0
  4  5  1  0  0  0  0
  4 24  1  0  0  0  0
  4 25  1  0  0  0  0
  5  6  1  0  0  0  0
  5 26  1  0  0  0  0
  5 27  1  0  0  0  0
  6 11  1  0  0  0  0
  6  7  2  0  0  0  0
  7  8  1  0  0  0  0
  7 28  1  0  0  0  0
  8  9  2  0  0  0  0
  8 29  1  0  0  0  0
  9 10  1  0  0  0  0
  9 30  1  0  0  0  0
 10 11  2  0  0  0  0
 11 31  1  0  0  0  0
 12 23  1  0  0  0  0
 12 13  2  0  0  0  0
 13 14  1  0  0  0  0
 13 32  1  0  0  0  0
 14 15  2  0  0  0  0
 14 33  1  0  0  0  0
 15 16  1  0  0  0  0
 15 34  1  0  0  0  0
 16 23  1  0  0  0  0
 16 17  1  0  0  0  0
 17 18  1  0  0  0  0
 17 35  1  0  0  0  0
 17 36  1  0  0  0  0
 18 19  1  0  0  0  0
 18 37  1  0  0  0  0
 18 38  1  0  0  0  0
 19 20  2  0  0  0  0
 19 21  2  0  0  0  0
 19 22  1  0  0  0  0
 22 23  2  0  0  0  0
M  CHG  1   3  -1
M  END
> <s_m_source_file>
AV-unprocessed.smi

> <i_m_source_file_index>
2188

> <i_lp_mmshare_version>
43012

> <i_f3d_flags>
0

> <s_epik_input>
W0NIMl0xW0NIMl1TKD1PKSg9TylOPUMoTjEyKUMoPVtDSF1bQ0hdPVtDSF0yKUMoPU8pW05IXVtDSDJdW0NIMl1jM1tjSF1bY0hdW2NIXW5bY0hdMw==

> <s_epik_cmdline>
J2VwaWtfcHl0aG9uJywgJy1waCcsICc3LjAnLCAnLXRuJywgJzgnLCAnLW1hJywgJzIwMCcsICctbWV0YWxfYmluZGluZycsICctaW1hZScsICc8aW5maWxlLm1hZT4nLCAnLW9tYWUnLCAnPG91dGZpbGUubWFlPic=

> <r_epik_Ionization_Penalty>
5.61471

> <r_epik_Ionization_Penalty_Charging>
5.5942

> <r_epik_Ionization_Penalty_Neutral>
0.0205175

> <r_epik_State_Penalty>
5.60129

> <r_epik_Charging_Adjusted_Penalty>
11.1955

> <i_epik_Tot_Q>
-1

> <i_epik_Tot_abs_Q>
1

> <r_epik_Metal_State_Penalty>
1.60393

> <b_epik_Metal_Only>
1

> <s_lp_Force_Field>
OPLS_2005

> <r_lp_Energy>
34.9518

> <b_lp_Chiralities_Consistent>
1

> <s_lp_Variant>
AV-unprocessed.smi:2188-3

> <Gold.Version>
5.8.1

> <Gold.Id.Protein>
6NUR|6NUR_protein|mol2

> <Gold.PLP.Fitness>
47.0154

> <Gold.PLP.PLP>
-38.9006

> <Gold.PLP.part.hbond>
-4.8995

> <Gold.PLP.part.metal>
0.0000

> <Gold.PLP.part.buried>
0.3449

> <Gold.PLP.part.nonpolar>
-33.0342

> <Gold.PLP.part.repulsive>
0.2411

> <Gold.PLP.ligand.clash>
0.0000

> <Gold.PLP.ligand.torsion>
0.6525

> <Gold.PLP.Chemscore.Hbond>
2.1283

> <Gold.PLP.Chemscore.CHOScore>
0.9441

> <Gold.PLP.Chemscore.Metal>
0.0000

> <Gold.Chemscore.Hbonds>
donor molecule, donor type, donor heavy atom, donor atom, acceptor molecule, acceptor atom, score
      P1  H  7989  7998       L1     3  1.00
      P1  H  7997  8008       L1    20  0.98
      P1  H  8022  8030       L1    10  0.04
      L1  C    11    31       P1  7957  0.87

> <Gold.PLP.Chemscore.Internal.Correction>
0.2025

> <Gold.Rescore>
     Score         DG    S(hbond)    S(metal)    S(lipo)     H(rot)  DE(clash)    DE(int)     intcor
     15.27     -17.70       1.77        0.00      85.49       1.44       0.20       2.23       ----

> <Gold.Chemscore.Fitness>
15.2724

> <Gold.Chemscore.DG>
-17.7014

> <Gold.Chemscore.ZeroCoef>
-5.4800

> <Gold.Chemscore.Hbond>
1.7707

> <Gold.Chemscore.Metal>
0.0000

> <Gold.Chemscore.Lipo>
85.4893

> <Gold.Chemscore.Internal_Hbond>
0.0000

> <Gold.Chemscore.DEClash>
0.1986

> <Gold.Chemscore.DEInternal>
2.2303

> <Gold.Chemscore.Rot>
1.4433

> <Gold.Chemscore.Internal.Correction>
   9.000000E+99

> <Gold.Chemscore.Hbonds>
donor molecule, donor type, donor heavy atom, donor atom, acceptor molecule, acceptor atom, score
      P1  H  7989  7998       L1     3  0.25
      P1  H  7997  8008       L1    20  0.32
      P1  H  8022  8030       L1    10  0.02

> <Gold.Chemscore.Hbond.Weighted>
-5.9140

> <Gold.Chemscore.Metal.Weighted>
-0.0000

> <Gold.Chemscore.Lipo.Weighted>
-10.0022

> <Gold.Chemscore.Internal_Hbond.Weighted>
0.0000

> <Gold.Chemscore.DEClash.Weighted>
0.1986

> <Gold.Chemscore.DEInternal.Weighted>
2.2303

> <Gold.Chemscore.Rot.Weighted>
3.6949

> <Gold.Chemscore.Internal.Correction.Weighted>
   9.000000E+99

> <Gold.Protein.RotatedTorsions>
[ 6907 6896 6895 6894 ] final   25.30 input  -60.11 | X-H torsion
[ 7974 7965 7964 7962 ] final -144.73 input  175.53 | X-H torsion
[ 8008 7997 7996 7995 ] final -139.27 input   59.86 | X-H torsion
[ 10167 10162 10161 10158 ] final  175.79 input  -65.29 | X-H torsion
[ 10718 10713 10712 10709 ] final  -93.89 input   66.30 | X-H torsion
[ 10763 10752 10751 10750 ] final -169.35 input  -60.55 | X-H torsion
[ 11005 11000 10999 10996 ] final   39.92 input  -57.11 | X-H torsion

> <Gold.Protein.ActiveResidues>
 VAL166  LYS551  ARG553  GLY616  TRP617  ASP618  TYR619  PRO620  LYS621  CYS622 
 ASP623  PHE694  ASN695  SER759  ASP760  ASP761  ALA762  ILE779  LEU786  VAL792 
 PHE793  MET794  SER795  GLU796  ALA797  LYS798  CYS799  TRP800  GLU811  SER814 

> <Gold.Protein.RotatedAtoms>
  151.9705  135.0079  160.0552 H   0  0  0  0  0  0  0  0  0  0  0  0  # atno 6907 bound_to 6896
  152.1787  133.4688  159.4955 H   0  0  0  0  0  0  0  0  0  0  0  0  # atno 6908 bound_to 6896
  150.6914  134.1778  159.4280 H   0  0  0  0  0  0  0  0  0  0  0  0  # atno 6909 bound_to 6896
  144.8277  140.5673  143.5536 H   0  0  0  0  0  0  0  0  0  0  0  0  # atno 7974 bound_to 7965
  155.4421  140.0532  157.3009 H   0  0  0  0  0  0  0  0  0  0  0  0  # atno 8008 bound_to 7997
  154.4813  140.2083  155.9713 H   0  0  0  0  0  0  0  0  0  0  0  0  # atno 8009 bound_to 7997
  156.1210  140.3188  155.8213 H   0  0  0  0  0  0  0  0  0  0  0  0  # atno 8010 bound_to 7997
  139.5190  144.2991  152.0395 H   0  0  0  0  0  0  0  0  0  0  0  0  # atno 10167 bound_to 10162
  156.0019  130.5045  150.5844 H   0  0  0  0  0  0  0  0  0  0  0  0  # atno 10718 bound_to 10713
  154.6532  135.2914  154.9960 H   0  0  0  0  0  0  0  0  0  0  0  0  # atno 10763 bound_to 10752
  154.1046  135.6571  153.4878 H   0  0  0  0  0  0  0  0  0  0  0  0  # atno 10764 bound_to 10752
  153.0388  135.5250  154.7450 H   0  0  0  0  0  0  0  0  0  0  0  0  # atno 10765 bound_to 10752
  140.1981  134.3904  155.8111 H   0  0  0  0  0  0  0  0  0  0  0  0  # atno 11005 bound_to 11000
  145.4965  139.1485  143.3681 LP  0  0  0  0  0  0  0  0  0  0  0  0  # atno 17320 bound_to 7965
  146.2581  140.5104  142.8865 LP  0  0  0  0  0  0  0  0  0  0  0  0  # atno 17321 bound_to 7965
  140.2439  144.4240  150.6249 LP  0  0  0  0  0  0  0  0  0  0  0  0  # atno 17342 bound_to 10162
  140.6271  143.2182  151.6573 LP  0  0  0  0  0  0  0  0  0  0  0  0  # atno 17343 bound_to 10162
  157.3719  131.0767  151.1550 LP  0  0  0  0  0  0  0  0  0  0  0  0  # atno 17370 bound_to 10713
  157.2301  130.6521  149.5846 LP  0  0  0  0  0  0  0  0  0  0  0  0  # atno 17371 bound_to 10713
  141.2227  133.7080  156.8210 LP  0  0  0  0  0  0  0  0  0  0  0  0  # atno 17394 bound_to 11000
  140.2085  134.8845  157.3248 LP  0  0  0  0  0  0  0  0  0  0  0  0  # atno 17395 bound_to 11000

$$$$
