AV-unprocessed.smi:2001|AV-procd|sdf|8108|dock1
  -GOLD-   2272010333D 1   1.00000     0.00000
 Structure written by MMmdl.
 51 52  0  0  0  0  0  0  0  0  2 V2000
  151.4676  143.5170  158.5678 C   0  0  0  0  0  0  0  0  0  0  0  0
  150.4418  142.5403  158.6022 O   0  0  0  0  0  0  0  0  0  0  0  0
  150.3109  141.8491  157.3718 C   0  0  0  0  0  0  0  0  0  0  0  0
  151.4488  140.8235  157.2540 C   0  0  0  0  0  0  0  0  0  0  0  0
  151.2471  139.9274  156.1110 N   0  0  0  0  0  0  0  0  0  0  0  0
  150.0002  140.0418  155.5210 N   0  0  0  0  0  0  0  0  0  0  0  0
  149.7038  139.3295  154.4820 C   0  0  0  0  0  0  0  0  0  0  0  0
  148.3757  139.4345  153.8165 C   0  0  0  0  0  0  0  0  0  0  0  0
  147.5437  140.2821  154.1422 O   0  0  0  0  0  0  0  0  0  0  0  0
  148.1544  138.5312  152.8476 N   0  0  0  0  0  0  0  0  0  0  0  0
  146.9136  138.3846  152.0980 C   0  0  0  0  0  0  0  0  0  0  0  0
  146.2851  136.9978  152.3309 C   0  0  0  0  0  0  0  0  0  0  0  0
  145.2779  136.6058  151.3040 N   0  3  1  0  0  0  0  0  0  0  0  0
  145.7741  135.5574  150.3785 C   0  0  0  0  0  0  0  0  0  0  0  0
  145.7465  134.1609  151.0412 C   0  0  2  0  0  0  0  0  0  0  0  0
  146.1391  133.0516  150.0596 C   0  0  0  0  0  0  0  0  0  0  0  0
  144.4316  133.8843  151.5163 O   0  0  0  0  0  0  0  0  0  0  0  0
  143.9749  134.8283  152.4799 C   0  0  2  0  0  0  0  0  0  0  0  0
  142.5914  134.3893  152.9707 C   0  0  0  0  0  0  0  0  0  0  0  0
  143.9398  136.2218  151.8212 C   0  0  0  0  0  0  0  0  0  0  0  0
  150.6658  138.3981  153.9187 C   0  0  0  0  0  0  0  0  0  0  0  0
  151.8762  138.2919  154.5101 C   0  0  0  0  0  0  0  0  0  0  0  0
  152.2380  139.0874  155.6849 C   0  0  0  0  0  0  0  0  0  0  0  0
  153.3355  139.0138  156.2365 O   0  0  0  0  0  0  0  0  0  0  0  0
  151.5333  144.0151  159.5349 H   0  0  0  0  0  0  0  0  0  0  0  0
  151.2636  144.2765  157.8120 H   0  0  0  0  0  0  0  0  0  0  0  0
  152.4368  143.0634  158.3565 H   0  0  0  0  0  0  0  0  0  0  0  0
  149.3439  141.3451  157.3319 H   0  0  0  0  0  0  0  0  0  0  0  0
  150.3471  142.5545  156.5403 H   0  0  0  0  0  0  0  0  0  0  0  0
  152.4097  141.3350  157.1768 H   0  0  0  0  0  0  0  0  0  0  0  0
  151.5040  140.2394  158.1746 H   0  0  0  0  0  0  0  0  0  0  0  0
  148.8969  137.8797  152.6383 H   0  0  0  0  0  0  0  0  0  0  0  0
  146.2151  139.1831  152.3524 H   0  0  0  0  0  0  0  0  0  0  0  0
  147.1452  138.4939  151.0374 H   0  0  0  0  0  0  0  0  0  0  0  0
  147.0927  136.2662  152.2826 H   0  0  0  0  0  0  0  0  0  0  0  0
  145.8808  136.9244  153.3406 H   0  0  0  0  0  0  0  0  0  0  0  0
  145.1350  135.5539  149.4944 H   0  0  0  0  0  0  0  0  0  0  0  0
  146.7776  135.8020  150.0279 H   0  0  0  0  0  0  0  0  0  0  0  0
  146.4411  134.1302  151.8818 H   0  0  0  0  0  0  0  0  0  0  0  0
  147.1469  133.2071  149.6740 H   0  0  0  0  0  0  0  0  0  0  0  0
  145.4570  133.0159  149.2096 H   0  0  0  0  0  0  0  0  0  0  0  0
  146.1166  132.0753  150.5451 H   0  0  0  0  0  0  0  0  0  0  0  0
  144.6515  134.8301  153.3357 H   0  0  0  0  0  0  0  0  0  0  0  0
  142.2003  135.0915  153.7065 H   0  0  0  0  0  0  0  0  0  0  0  0
  142.6358  133.4068  153.4413 H   0  0  0  0  0  0  0  0  0  0  0  0
  141.8771  134.3339  152.1488 H   0  0  0  0  0  0  0  0  0  0  0  0
  143.5401  136.9734  152.4989 H   0  0  0  0  0  0  0  0  0  0  0  0
  143.2487  136.1998  150.9772 H   0  0  0  0  0  0  0  0  0  0  0  0
  150.4250  137.7992  153.0524 H   0  0  0  0  0  0  0  0  0  0  0  0
  152.6007  137.6014  154.1036 H   0  0  0  0  0  0  0  0  0  0  0  0
  145.1383  137.4331  150.7412 H   0  0  0  0  0  0  0  0  0  0  0  0
  1  2  1  0  0  0  0
  1 25  1  0  0  0  0
  1 26  1  0  0  0  0
  1 27  1  0  0  0  0
  2  3  1  0  0  0  0
  3  4  1  0  0  0  0
  3 28  1  0  0  0  0
  3 29  1  0  0  0  0
  4  5  1  0  0  0  0
  4 30  1  0  0  0  0
  4 31  1  0  0  0  0
  5 23  1  0  0  0  0
  5  6  1  0  0  0  0
  6  7  2  0  0  0  0
  7  8  1  0  0  0  0
  7 21  1  0  0  0  0
  8  9  2  0  0  0  0
  8 10  1  0  0  0  0
 10 11  1  0  0  0  0
 10 32  1  0  0  0  0
 11 12  1  0  0  0  0
 11 33  1  0  0  0  0
 11 34  1  0  0  0  0
 12 13  1  0  0  0  0
 12 35  1  0  0  0  0
 12 36  1  0  0  0  0
 13 20  1  0  0  0  0
 13 14  1  0  0  0  0
 13 51  1  0  0  0  0
 14 15  1  0  0  0  0
 14 37  1  0  0  0  0
 14 38  1  0  0  0  0
 15 16  1  0  0  0  0
 15 17  1  0  0  0  0
 15 39  1  0  0  0  0
 16 40  1  0  0  0  0
 16 41  1  0  0  0  0
 16 42  1  0  0  0  0
 17 18  1  0  0  0  0
 18 19  1  0  0  0  0
 18 20  1  0  0  0  0
 18 43  1  0  0  0  0
 19 44  1  0  0  0  0
 19 45  1  0  0  0  0
 19 46  1  0  0  0  0
 20 47  1  0  0  0  0
 20 48  1  0  0  0  0
 21 22  2  0  0  0  0
 21 49  1  0  0  0  0
 22 23  1  0  0  0  0
 22 50  1  0  0  0  0
 23 24  2  0  0  0  0
M  CHG  1  13   1
M  END
> <s_m_source_file>
AV-unprocessed.smi

> <i_m_source_file_index>
2001

> <i_lp_mmshare_version>
43012

> <i_f3d_flags>
0

> <s_epik_input>
W0NIM11PW0NIMl1bQ0gyXW4xbmMoW2NIXVtjSF1jMT1PKUMoPU8pW05IXVtDSDJdW0NIMl1OMltDSDJdW0NAQEhdKFtDSDNdKU9bQ0BASF0oW0NIM10pW0NIMl0y

> <s_epik_cmdline>
J2VwaWtfcHl0aG9uJywgJy1waCcsICc3LjAnLCAnLXRuJywgJzgnLCAnLW1hJywgJzIwMCcsICctbWV0YWxfYmluZGluZycsICctaW1hZScsICc8aW5maWxlLm1hZT4nLCAnLW9tYWUnLCAnPG91dGZpbGUubWFlPic=

> <r_lp_tautomer_probability>
1

> <r_epik_Ionization_Penalty>
0.724354

> <r_epik_Ionization_Penalty_Charging>
0.724348

> <r_epik_Ionization_Penalty_Neutral>
6.1656e-06

> <r_epik_State_Penalty>
0.749058

> <r_epik_Charging_Adjusted_Penalty>
1.47341

> <i_epik_Tot_Q>
1

> <i_epik_Tot_abs_Q>
1

> <r_epik_Metal_State_Penalty>
0.750779

> <b_epik_Metal_Only>
0

> <s_lp_Force_Field>
OPLS_2005

> <r_lp_Energy>
47.3249

> <b_lp_Chiralities_Consistent>
1

> <s_lp_Variant>
AV-unprocessed.smi:2001-7

> <Gold.Version>
5.8.1

> <Gold.Id.Protein>
6NUR|6NUR_protein|mol2

> <Gold.PLP.Fitness>
54.8247

> <Gold.PLP.PLP>
-48.1573

> <Gold.PLP.part.hbond>
-3.8339

> <Gold.PLP.part.metal>
0.0000

> <Gold.PLP.part.buried>
-5.8456

> <Gold.PLP.part.nonpolar>
-39.1780

> <Gold.PLP.part.repulsive>
0.5283

> <Gold.PLP.ligand.clash>
0.5979

> <Gold.PLP.ligand.torsion>
0.9927

> <Gold.PLP.Chemscore.Hbond>
2.9440

> <Gold.PLP.Chemscore.CHOScore>
0.0000

> <Gold.PLP.Chemscore.Metal>
0.0000

> <Gold.Chemscore.Hbonds>
donor molecule, donor type, donor heavy atom, donor atom, acceptor molecule, acceptor atom, score
      L1  H    10    32       P1  7948  0.70
      L1  H    13    51       P1 10171  0.94
      P1  H  7997  8008       L1    24  0.89

> <Gold.PLP.Chemscore.Internal.Correction>
0.4188

> <Gold.Rescore>
     Score         DG    S(hbond)    S(metal)    S(lipo)     H(rot)  DE(clash)    DE(int)     intcor
     19.59     -20.85       2.89        0.00      94.25       2.07       0.01       1.25       ----

> <Gold.Chemscore.Fitness>
19.5888

> <Gold.Chemscore.DG>
-20.8486

> <Gold.Chemscore.ZeroCoef>
-5.4800

> <Gold.Chemscore.Hbond>
2.8882

> <Gold.Chemscore.Metal>
0.0000

> <Gold.Chemscore.Lipo>
94.2453

> <Gold.Chemscore.Internal_Hbond>
0.0000

> <Gold.Chemscore.DEClash>
0.0108

> <Gold.Chemscore.DEInternal>
1.2491

> <Gold.Chemscore.Rot>
2.0721

> <Gold.Chemscore.Internal.Correction>
   9.000000E+99

> <Gold.Chemscore.Hbonds>
donor molecule, donor type, donor heavy atom, donor atom, acceptor molecule, acceptor atom, score
      L1  H    10    32       P1  7948  0.70
      L1  H    13    51       P1 10171  0.90
      P1  H  7997  8008       L1    24  0.85

> <Gold.Chemscore.Hbond.Weighted>
-9.6466

> <Gold.Chemscore.Metal.Weighted>
-0.0000

> <Gold.Chemscore.Lipo.Weighted>
-11.0267

> <Gold.Chemscore.Internal_Hbond.Weighted>
0.0000

> <Gold.Chemscore.DEClash.Weighted>
0.0108

> <Gold.Chemscore.DEInternal.Weighted>
1.2491

> <Gold.Chemscore.Rot.Weighted>
5.3047

> <Gold.Chemscore.Internal.Correction.Weighted>
   9.000000E+99

> <Gold.Protein.RotatedTorsions>
[ 6907 6896 6895 6894 ] final   36.43 input  -60.11 | X-H torsion
[ 7974 7965 7964 7962 ] final   33.99 input  175.53 | X-H torsion
[ 8008 7997 7996 7995 ] final  -47.82 input   59.86 | X-H torsion
[ 10167 10162 10161 10158 ] final    4.38 input  -65.29 | X-H torsion
[ 10718 10713 10712 10709 ] final -137.70 input   66.30 | X-H torsion
[ 10763 10752 10751 10750 ] final   56.03 input  -60.55 | X-H torsion
[ 11005 11000 10999 10996 ] final  112.85 input  -57.11 | X-H torsion

> <Gold.Protein.ActiveResidues>
 VAL166  LYS551  ARG553  GLY616  TRP617  ASP618  TYR619  PRO620  LYS621  CYS622 
 ASP623  PHE694  ASN695  SER759  ASP760  ASP761  ALA762  ILE779  LEU786  VAL792 
 PHE793  MET794  SER795  GLU796  ALA797  LYS798  CYS799  TRP800  GLU811  SER814 

> <Gold.Protein.RotatedAtoms>
  152.1296  134.9145  160.0559 H   0  0  0  0  0  0  0  0  0  0  0  0  # atno 6907 bound_to 6896
  152.0254  133.3910  159.4283 H   0  0  0  0  0  0  0  0  0  0  0  0  # atno 6908 bound_to 6896
  150.6855  134.3501  159.4949 H   0  0  0  0  0  0  0  0  0  0  0  0  # atno 6909 bound_to 6896
  146.1383  139.6326  142.9180 H   0  0  0  0  0  0  0  0  0  0  0  0  # atno 7974 bound_to 7965
  154.4021  140.1337  156.4238 H   0  0  0  0  0  0  0  0  0  0  0  0  # atno 8008 bound_to 7997
  155.7617  140.3486  155.5181 H   0  0  0  0  0  0  0  0  0  0  0  0  # atno 8009 bound_to 7997
  155.8852  140.0994  157.1447 H   0  0  0  0  0  0  0  0  0  0  0  0  # atno 8010 bound_to 7997
  140.6537  143.7480  150.7618 H   0  0  0  0  0  0  0  0  0  0  0  0  # atno 10167 bound_to 10162
  156.2911  130.7375  151.1401 H   0  0  0  0  0  0  0  0  0  0  0  0  # atno 10718 bound_to 10713
  152.9825  135.5690  154.5163 H   0  0  0  0  0  0  0  0  0  0  0  0  # atno 10763 bound_to 10752
  154.4659  135.2783  155.1681 H   0  0  0  0  0  0  0  0  0  0  0  0  # atno 10764 bound_to 10752
  154.3249  135.6261  153.5578 H   0  0  0  0  0  0  0  0  0  0  0  0  # atno 10765 bound_to 10752
  139.8938  134.9538  156.6649 H   0  0  0  0  0  0  0  0  0  0  0  0  # atno 11005 bound_to 11000
  145.5105  141.0435  143.2491 LP  0  0  0  0  0  0  0  0  0  0  0  0  # atno 17320 bound_to 7965
  144.7764  139.6620  143.7173 LP  0  0  0  0  0  0  0  0  0  0  0  0  # atno 17321 bound_to 7965
  140.1136  143.4677  152.2355 LP  0  0  0  0  0  0  0  0  0  0  0  0  # atno 17342 bound_to 10162
  139.5756  144.7486  151.3773 LP  0  0  0  0  0  0  0  0  0  0  0  0  # atno 17343 bound_to 10162
  157.7342  131.0583  150.5534 LP  0  0  0  0  0  0  0  0  0  0  0  0  # atno 17370 bound_to 10713
  156.5650  130.4265  149.6045 LP  0  0  0  0  0  0  0  0  0  0  0  0  # atno 17371 bound_to 10713
  140.7418  133.8971  155.8284 LP  0  0  0  0  0  0  0  0  0  0  0  0  # atno 17394 bound_to 11000
  141.0071  134.1071  157.4259 LP  0  0  0  0  0  0  0  0  0  0  0  0  # atno 17395 bound_to 11000

$$$$
