AV-unprocessed.smi:1722|AV-procd|sdf|6943|dock6
  -GOLD-   22720 8153D 1   1.00000     0.00000
 Structure written by MMmdl.
 39 40  0  0  0  0  0  0  0  0  1 V2000
  155.6796  139.5088  159.1554 O   0  0  0  0  0  0  0  0  0  0  0  0
  154.5609  138.9982  159.1944 C   0  0  0  0  0  0  0  0  0  0  0  0
  153.3740  139.8403  159.6590 C   0  0  0  0  0  0  0  0  0  0  0  0
  153.8365  141.1424  159.9927 O   0  0  0  0  0  0  0  0  0  0  0  0
  152.8068  142.0962  160.2169 C   0  0  0  0  0  0  0  0  0  0  0  0
  152.7226  142.9793  158.9594 C   0  0  0  0  0  0  0  0  0  0  0  0
  151.6831  144.0996  159.1259 C   0  0  0  0  0  0  0  0  0  0  0  0
  151.9818  144.9525  160.3687 C   0  0  0  0  0  0  0  0  0  0  0  0
  152.0725  144.0806  161.6309 C   0  0  0  0  0  0  0  0  0  0  0  0
  153.1079  142.9567  161.4626 C   0  0  0  0  0  0  0  0  0  0  0  0
  154.2773  137.7167  158.8868 N   0  0  0  0  0  0  0  0  0  0  0  0
  155.1251  136.7026  158.4110 C   0  0  0  0  0  0  0  0  0  0  0  0
  155.9851  136.8345  157.3674 C   0  0  0  0  0  0  0  0  0  0  0  0
  156.8283  135.7388  156.9189 C   0  0  0  0  0  0  0  0  0  0  0  0
  157.7446  135.8826  155.7136 C   0  0  0  0  0  0  0  0  0  0  0  0
  159.0070  135.6589  156.0761 F   0  0  0  0  0  0  0  0  0  0  0  0
  157.4267  135.0111  154.7551 F   0  0  0  0  0  0  0  0  0  0  0  0
  157.6716  137.1116  155.2022 F   0  0  0  0  0  0  0  0  0  0  0  0
  156.6930  134.5707  157.5733 C   0  0  0  0  0  0  0  0  0  0  0  0
  155.8116  134.4266  158.6473 N   0  0  0  0  0  0  0  0  0  0  0  0
  155.0123  135.4127  159.1122 C   0  0  0  0  0  0  0  0  0  0  0  0
  154.2564  135.2037  160.0605 O   0  0  0  0  0  0  0  0  0  0  0  0
  155.7749  133.5208  159.0924 H   0  0  0  0  0  0  0  0  0  0  0  0
  152.6387  139.8885  158.8547 H   0  0  0  0  0  0  0  0  0  0  0  0
  152.9013  139.3604  160.5162 H   0  0  0  0  0  0  0  0  0  0  0  0
  151.8499  141.5860  160.3419 H   0  0  0  0  0  0  0  0  0  0  0  0
  153.6995  143.4189  158.7530 H   0  0  0  0  0  0  0  0  0  0  0  0
  152.4706  142.3677  158.0924 H   0  0  0  0  0  0  0  0  0  0  0  0
  151.6707  144.7305  158.2367 H   0  0  0  0  0  0  0  0  0  0  0  0
  150.6866  143.6644  159.2107 H   0  0  0  0  0  0  0  0  0  0  0  0
  152.9211  145.4887  160.2272 H   0  0  0  0  0  0  0  0  0  0  0  0
  151.2086  145.7110  160.4945 H   0  0  0  0  0  0  0  0  0  0  0  0
  152.3318  144.6986  162.4910 H   0  0  0  0  0  0  0  0  0  0  0  0
  151.0952  143.6464  161.8454 H   0  0  0  0  0  0  0  0  0  0  0  0
  153.1161  142.3432  162.3630 H   0  0  0  0  0  0  0  0  0  0  0  0
  154.1047  143.3907  161.3752 H   0  0  0  0  0  0  0  0  0  0  0  0
  153.3219  137.4268  159.0409 H   0  0  0  0  0  0  0  0  0  0  0  0
  156.0606  137.7618  156.8236 H   0  0  0  0  0  0  0  0  0  0  0  0
  157.2348  133.6691  157.3279 H   0  0  0  0  0  0  0  0  0  0  0  0
  1  2  2  0  0  0  0
  2  3  1  0  0  0  0
  2 11  1  0  0  0  0
  3  4  1  0  0  0  0
  3 24  1  0  0  0  0
  3 25  1  0  0  0  0
  4  5  1  0  0  0  0
  5 10  1  0  0  0  0
  5  6  1  0  0  0  0
  5 26  1  0  0  0  0
  6  7  1  0  0  0  0
  6 27  1  0  0  0  0
  6 28  1  0  0  0  0
  7  8  1  0  0  0  0
  7 29  1  0  0  0  0
  7 30  1  0  0  0  0
  8  9  1  0  0  0  0
  8 31  1  0  0  0  0
  8 32  1  0  0  0  0
  9 10  1  0  0  0  0
  9 33  1  0  0  0  0
  9 34  1  0  0  0  0
 10 35  1  0  0  0  0
 10 36  1  0  0  0  0
 11 12  1  0  0  0  0
 11 37  1  0  0  0  0
 12 21  1  0  0  0  0
 12 13  2  0  0  0  0
 13 14  1  0  0  0  0
 13 38  1  0  0  0  0
 14 15  1  0  0  0  0
 14 19  2  0  0  0  0
 15 16  1  0  0  0  0
 15 17  1  0  0  0  0
 15 18  1  0  0  0  0
 19 20  1  0  0  0  0
 19 39  1  0  0  0  0
 20 23  1  0  0  0  0
 20 21  1  0  0  0  0
 21 22  2  0  0  0  0
M  END
> <s_m_source_file>
AV-unprocessed.smi

> <i_m_source_file_index>
1722

> <i_lp_mmshare_version>
43012

> <i_f3d_flags>
0

> <s_epik_input>
Tz1jMVtuSF1bY0hdYyhDKEYpKEYpRilbY0hdYzFbTkhdQyg9TylbQ0gyXU9bQ0hdMltDSDJdW0NIMl1bQ0gyXVtDSDJdW0NIMl0y

> <s_epik_cmdline>
J2VwaWtfcHl0aG9uJywgJy1waCcsICc3LjAnLCAnLXRuJywgJzgnLCAnLW1hJywgJzIwMCcsICctbWV0YWxfYmluZGluZycsICctaW1hZScsICc8aW5maWxlLm1hZT4nLCAnLW9tYWUnLCAnPG91dGZpbGUubWFlPic=

> <r_lp_tautomer_probability>
0.999

> <r_epik_Ionization_Penalty>
0.008897

> <r_epik_Ionization_Penalty_Charging>
0.00889691

> <r_epik_Ionization_Penalty_Neutral>
9.17026e-08

> <r_epik_State_Penalty>
0.00672877

> <r_epik_Charging_Adjusted_Penalty>
0.0156257

> <i_epik_Tot_Q>
0

> <i_epik_Tot_abs_Q>
0

> <r_epik_Metal_State_Penalty>
0.320955

> <b_epik_Metal_Only>
0

> <s_lp_Force_Field>
OPLS_2005

> <r_lp_Energy>
24.9811

> <b_lp_Chiralities_Consistent>
1

> <s_lp_Variant>
AV-unprocessed.smi:1722-1

> <Gold.Version>
5.8.1

> <Gold.Id.Protein>
6NUR|6NUR_protein|mol2

> <Gold.PLP.Fitness>
39.5511

> <Gold.PLP.PLP>
-35.6803

> <Gold.PLP.part.hbond>
-2.0000

> <Gold.PLP.part.metal>
0.0000

> <Gold.PLP.part.buried>
-4.7922

> <Gold.PLP.part.nonpolar>
-28.2788

> <Gold.PLP.part.repulsive>
0.1418

> <Gold.PLP.ligand.clash>
0.0000

> <Gold.PLP.ligand.torsion>
1.0821

> <Gold.PLP.Chemscore.Hbond>
2.0000

> <Gold.PLP.Chemscore.CHOScore>
0.0000

> <Gold.PLP.Chemscore.Metal>
0.0000

> <Gold.Chemscore.Hbonds>
donor molecule, donor type, donor heavy atom, donor atom, acceptor molecule, acceptor atom, score
      P1  H  6896  6908       L1    22  1.00
      P1  H  7997  8009       L1     1  0.98

> <Gold.PLP.Chemscore.Internal.Correction>
0.0350

> <Gold.Rescore>
     Score         DG    S(hbond)    S(metal)    S(lipo)     H(rot)  DE(clash)    DE(int)     intcor
     17.04     -18.31       1.87        0.00      91.22       1.59       0.23       1.05       ----

> <Gold.Chemscore.Fitness>
17.0384

> <Gold.Chemscore.DG>
-18.3140

> <Gold.Chemscore.ZeroCoef>
-5.4800

> <Gold.Chemscore.Hbond>
1.8691

> <Gold.Chemscore.Metal>
0.0000

> <Gold.Chemscore.Lipo>
91.2236

> <Gold.Chemscore.Internal_Hbond>
0.0000

> <Gold.Chemscore.DEClash>
0.2291

> <Gold.Chemscore.DEInternal>
1.0465

> <Gold.Chemscore.Rot>
1.5945

> <Gold.Chemscore.Internal.Correction>
   9.000000E+99

> <Gold.Chemscore.Hbonds>
donor molecule, donor type, donor heavy atom, donor atom, acceptor molecule, acceptor atom, score
      P1  H  6896  6908       L1    22  1.00
      P1  H  7997  8009       L1     1  0.28

> <Gold.Chemscore.Hbond.Weighted>
-6.2428

> <Gold.Chemscore.Metal.Weighted>
-0.0000

> <Gold.Chemscore.Lipo.Weighted>
-10.6732

> <Gold.Chemscore.Internal_Hbond.Weighted>
0.0000

> <Gold.Chemscore.DEClash.Weighted>
0.2291

> <Gold.Chemscore.DEInternal.Weighted>
1.0465

> <Gold.Chemscore.Rot.Weighted>
4.0820

> <Gold.Chemscore.Internal.Correction.Weighted>
   9.000000E+99

> <Gold.Protein.RotatedTorsions>
[ 6907 6896 6895 6894 ] final  -54.94 input  -60.11 | X-H torsion
[ 7974 7965 7964 7962 ] final   38.21 input  175.53 | X-H torsion
[ 8008 7997 7996 7995 ] final   80.02 input   59.86 | X-H torsion
[ 10167 10162 10161 10158 ] final  127.73 input  -65.29 | X-H torsion
[ 10718 10713 10712 10709 ] final  -19.46 input   66.30 | X-H torsion
[ 10763 10752 10751 10750 ] final   39.03 input  -60.55 | X-H torsion
[ 11005 11000 10999 10996 ] final   41.37 input  -57.11 | X-H torsion

> <Gold.Protein.ActiveResidues>
 VAL166  LYS551  ARG553  GLY616  TRP617  ASP618  TYR619  PRO620  LYS621  CYS622 
 ASP623  PHE694  ASN695  SER759  ASP760  ASP761  ALA762  ILE779  LEU786  VAL792 
 PHE793  MET794  SER795  GLU796  ALA797  LYS798  CYS799  TRP800  GLU811  SER814 

> <Gold.Protein.RotatedAtoms>
  150.8294  134.7540  159.6840 H   0  0  0  0  0  0  0  0  0  0  0  0  # atno 6907 bound_to 6896
  152.4400  134.5606  159.9903 H   0  0  0  0  0  0  0  0  0  0  0  0  # atno 6908 bound_to 6896
  151.5770  133.3345  159.3037 H   0  0  0  0  0  0  0  0  0  0  0  0  # atno 6909 bound_to 6896
  146.1079  139.5799  142.9371 H   0  0  0  0  0  0  0  0  0  0  0  0  # atno 7974 bound_to 7965
  155.8778  140.3445  155.5866 H   0  0  0  0  0  0  0  0  0  0  0  0  # atno 8008 bound_to 7997
  155.7754  140.0851  157.2105 H   0  0  0  0  0  0  0  0  0  0  0  0  # atno 8009 bound_to 7997
  154.4022  140.1510  156.2978 H   0  0  0  0  0  0  0  0  0  0  0  0  # atno 8010 bound_to 7997
  139.5563  144.6851  151.4172 H   0  0  0  0  0  0  0  0  0  0  0  0  # atno 10167 bound_to 10162
  156.5454  130.4688  149.6478 H   0  0  0  0  0  0  0  0  0  0  0  0  # atno 10718 bound_to 10713
  152.9981  135.6232  154.2400 H   0  0  0  0  0  0  0  0  0  0  0  0  # atno 10763 bound_to 10752
  154.2140  135.2798  155.2950 H   0  0  0  0  0  0  0  0  0  0  0  0  # atno 10764 bound_to 10752
  154.5583  135.5713  153.7042 H   0  0  0  0  0  0  0  0  0  0  0  0  # atno 10765 bound_to 10752
  140.1840  134.4068  155.8183 H   0  0  0  0  0  0  0  0  0  0  0  0  # atno 11005 bound_to 11000
  145.5724  141.0392  143.2167 LP  0  0  0  0  0  0  0  0  0  0  0  0  # atno 17320 bound_to 7965
  144.7486  139.7253  143.7282 LP  0  0  0  0  0  0  0  0  0  0  0  0  # atno 17321 bound_to 7965
  140.6836  143.8024  150.7156 LP  0  0  0  0  0  0  0  0  0  0  0  0  # atno 17342 bound_to 10162
  140.1485  143.4378  152.2147 LP  0  0  0  0  0  0  0  0  0  0  0  0  # atno 17343 bound_to 10162
  156.2933  130.7136  151.1991 LP  0  0  0  0  0  0  0  0  0  0  0  0  # atno 17370 bound_to 10713
  157.7397  131.0525  150.5211 LP  0  0  0  0  0  0  0  0  0  0  0  0  # atno 17371 bound_to 10713
  141.2224  133.7014  156.7981 LP  0  0  0  0  0  0  0  0  0  0  0  0  # atno 17394 bound_to 11000
  140.2234  134.8740  157.3401 LP  0  0  0  0  0  0  0  0  0  0  0  0  # atno 17395 bound_to 11000

$$$$
