AV-unprocessed.smi:2144|AV-procd|sdf|8731|dock3
  -GOLD-   2272011503D 1   1.00000     0.00000
 Structure written by MMmdl.
 40 42  0  0  0  0  0  0  0  0  1 V2000
  149.5127  140.0548  154.2154 O   0  0  0  0  0  0  0  0  0  0  0  0
  150.0463  139.4510  155.3767 C   0  0  0  0  0  0  0  0  0  0  0  0
  150.6051  140.4282  156.3727 C   0  0  0  0  0  0  0  0  0  0  0  0
  150.5281  141.7522  156.2175 N   0  0  0  0  0  0  0  0  0  0  0  0
  151.1467  142.2312  157.3552 C   0  0  0  0  0  0  0  0  0  0  0  0
  151.3833  143.5575  157.7828 C   0  0  0  0  0  0  0  0  0  0  0  0
  152.0437  143.8070  159.0037 C   0  0  0  0  0  0  0  0  0  0  0  0
  152.4762  142.7362  159.8126 C   0  0  0  0  0  0  0  0  0  0  0  0
  152.2500  141.4073  159.4054 C   0  0  0  0  0  0  0  0  0  0  0  0
  151.5900  141.1636  158.1857 C   0  0  0  0  0  0  0  0  0  0  0  0
  151.2186  140.0063  157.5071 N   0  0  0  0  0  0  0  0  0  0  0  0
  151.4467  138.6359  157.9469 C   0  0  0  0  0  0  0  0  0  0  0  0
  150.1508  137.8003  158.0044 C   0  0  1  0  0  0  0  0  0  0  0  0
  150.2454  136.6953  157.1273 O   0  0  0  0  0  0  0  0  0  0  0  0
  149.8539  137.2738  159.4160 C   0  0  0  0  0  0  0  0  0  0  0  0
  149.1722  136.0310  159.3103 O   0  0  0  0  0  0  0  0  0  0  0  0
  148.5230  135.5435  160.4248 C   0  0  0  0  0  0  0  0  0  0  0  0
  148.3141  136.2890  161.6132 C   0  0  0  0  0  0  0  0  0  0  0  0
  147.6435  135.7119  162.7090 C   0  0  0  0  0  0  0  0  0  0  0  0
  147.1740  134.3878  162.6329 C   0  0  0  0  0  0  0  0  0  0  0  0
  147.3750  133.6410  161.4575 C   0  0  0  0  0  0  0  0  0  0  0  0
  148.0454  134.2170  160.3610 C   0  0  0  0  0  0  0  0  0  0  0  0
  148.2317  133.4880  159.2345 F   0  0  0  0  0  0  0  0  0  0  0  0
  148.7961  140.6152  154.4702 H   0  0  0  0  0  0  0  0  0  0  0  0
  149.2600  138.8666  155.8548 H   0  0  0  0  0  0  0  0  0  0  0  0
  150.8293  138.7577  155.0713 H   0  0  0  0  0  0  0  0  0  0  0  0
  151.0560  144.3844  157.1703 H   0  0  0  0  0  0  0  0  0  0  0  0
  152.2194  144.8245  159.3209 H   0  0  0  0  0  0  0  0  0  0  0  0
  152.9819  142.9358  160.7459 H   0  0  0  0  0  0  0  0  0  0  0  0
  152.5812  140.5857  160.0226 H   0  0  0  0  0  0  0  0  0  0  0  0
  152.1655  138.1707  157.2714 H   0  0  0  0  0  0  0  0  0  0  0  0
  151.9291  138.6579  158.9243 H   0  0  0  0  0  0  0  0  0  0  0  0
  149.3070  138.4049  157.6717 H   0  0  0  0  0  0  0  0  0  0  0  0
  149.8218  136.9203  156.3132 H   0  0  0  0  0  0  0  0  0  0  0  0
  150.7915  137.1282  159.9555 H   0  0  0  0  0  0  0  0  0  0  0  0
  149.2531  137.9982  159.9686 H   0  0  0  0  0  0  0  0  0  0  0  0
  148.6602  137.3067  161.7111 H   0  0  0  0  0  0  0  0  0  0  0  0
  147.4901  136.2869  163.6104 H   0  0  0  0  0  0  0  0  0  0  0  0
  146.6610  133.9460  163.4743 H   0  0  0  0  0  0  0  0  0  0  0  0
  147.0150  132.6246  161.3968 H   0  0  0  0  0  0  0  0  0  0  0  0
  1  2  1  0  0  0  0
  1 24  1  0  0  0  0
  2  3  1  0  0  0  0
  2 25  1  0  0  0  0
  2 26  1  0  0  0  0
  3 11  1  0  0  0  0
  3  4  2  0  0  0  0
  4  5  1  0  0  0  0
  5 10  2  0  0  0  0
  5  6  1  0  0  0  0
  6  7  2  0  0  0  0
  6 27  1  0  0  0  0
  7  8  1  0  0  0  0
  7 28  1  0  0  0  0
  8  9  2  0  0  0  0
  8 29  1  0  0  0  0
  9 10  1  0  0  0  0
  9 30  1  0  0  0  0
 10 11  1  0  0  0  0
 11 12  1  0  0  0  0
 12 13  1  0  0  0  0
 12 31  1  0  0  0  0
 12 32  1  0  0  0  0
 13 14  1  0  0  0  0
 13 15  1  0  0  0  0
 13 33  1  0  0  0  0
 14 34  1  0  0  0  0
 15 16  1  0  0  0  0
 15 35  1  0  0  0  0
 15 36  1  0  0  0  0
 16 17  1  0  0  0  0
 17 22  1  0  0  0  0
 17 18  2  0  0  0  0
 18 19  1  0  0  0  0
 18 37  1  0  0  0  0
 19 20  2  0  0  0  0
 19 38  1  0  0  0  0
 20 21  1  0  0  0  0
 20 39  1  0  0  0  0
 21 22  2  0  0  0  0
 21 40  1  0  0  0  0
 22 23  1  0  0  0  0
M  END
> <s_m_source_file>
AV-unprocessed.smi

> <i_m_source_file_index>
2144

> <i_lp_mmshare_version>
43012

> <i_f3d_flags>
0

> <s_epik_input>
W2NIXTFbY0hdW2NIXVtjSF1jKGMxMiluKGMobjIpW0NIMl1bT0hdKVtDSDJdW0NASF0oW09IXSlbQ0gyXU9jM1tjSF1bY0hdW2NIXVtjSF1jM0Y=

> <s_epik_cmdline>
J2VwaWtfcHl0aG9uJywgJy1waCcsICc3LjAnLCAnLXRuJywgJzgnLCAnLW1hJywgJzIwMCcsICctbWV0YWxfYmluZGluZycsICctaW1hZScsICc8aW5maWxlLm1hZT4nLCAnLW9tYWUnLCAnPG91dGZpbGUubWFlPic=

> <r_lp_tautomer_probability>
1

> <r_epik_Ionization_Penalty>
0.0547315

> <r_epik_Ionization_Penalty_Charging>
0

> <r_epik_Ionization_Penalty_Neutral>
0.0547315

> <r_epik_State_Penalty>
0.047032

> <r_epik_Charging_Adjusted_Penalty>
0.047032

> <i_epik_Tot_Q>
0

> <i_epik_Tot_abs_Q>
0

> <r_epik_Metal_State_Penalty>
4.89471e-05

> <b_epik_Metal_Only>
0

> <s_lp_Force_Field>
OPLS_2005

> <r_lp_Energy>
15.6378

> <b_lp_Chiralities_Consistent>
1

> <s_lp_Variant>
AV-unprocessed.smi:2144-2

> <Gold.Version>
5.8.1

> <Gold.Id.Protein>
6NUR|6NUR_protein|mol2

> <Gold.PLP.Fitness>
49.2077

> <Gold.PLP.PLP>
-46.4405

> <Gold.PLP.part.hbond>
-3.0000

> <Gold.PLP.part.metal>
0.0000

> <Gold.PLP.part.buried>
-5.8860

> <Gold.PLP.part.nonpolar>
-39.0490

> <Gold.PLP.part.repulsive>
0.0664

> <Gold.PLP.ligand.clash>
0.0000

> <Gold.PLP.ligand.torsion>
1.3586

> <Gold.PLP.Chemscore.Hbond>
1.8000

> <Gold.PLP.Chemscore.CHOScore>
0.0000

> <Gold.PLP.Chemscore.Metal>
0.0000

> <Gold.Chemscore.Hbonds>
donor molecule, donor type, donor heavy atom, donor atom, acceptor molecule, acceptor atom, score
      P1  H  6896  6908       L1    16  0.46
      P1  H  7989  7998       L1     1  0.10

> <Gold.PLP.Chemscore.Internal.Correction>
0.0843

> <Gold.Rescore>
     Score         DG    S(hbond)    S(metal)    S(lipo)     H(rot)  DE(clash)    DE(int)     intcor
     13.48     -14.74       0.94        0.00     122.85       3.22       0.08       1.18       ----

> <Gold.Chemscore.Fitness>
13.4816

> <Gold.Chemscore.DG>
-14.7425

> <Gold.Chemscore.ZeroCoef>
-5.4800

> <Gold.Chemscore.Hbond>
0.9374

> <Gold.Chemscore.Metal>
0.0000

> <Gold.Chemscore.Lipo>
122.8539

> <Gold.Chemscore.Internal_Hbond>
0.0000

> <Gold.Chemscore.DEClash>
0.0771

> <Gold.Chemscore.DEInternal>
1.1839

> <Gold.Chemscore.Rot>
3.2196

> <Gold.Chemscore.Internal.Correction>
   9.000000E+99

> <Gold.Chemscore.Hbonds>
donor molecule, donor type, donor heavy atom, donor atom, acceptor molecule, acceptor atom, score
      P1  H  6896  6908       L1    16  0.01
      P1  H  7989  7998       L1     1  0.01

> <Gold.Chemscore.Hbond.Weighted>
-3.1308

> <Gold.Chemscore.Metal.Weighted>
-0.0000

> <Gold.Chemscore.Lipo.Weighted>
-14.3739

> <Gold.Chemscore.Internal_Hbond.Weighted>
0.0000

> <Gold.Chemscore.DEClash.Weighted>
0.0771

> <Gold.Chemscore.DEInternal.Weighted>
1.1839

> <Gold.Chemscore.Rot.Weighted>
8.2422

> <Gold.Chemscore.Internal.Correction.Weighted>
   9.000000E+99

> <Gold.Protein.RotatedTorsions>
[ 6907 6896 6895 6894 ] final  175.96 input  -60.11 | X-H torsion
[ 7974 7965 7964 7962 ] final  139.49 input  175.53 | X-H torsion
[ 8008 7997 7996 7995 ] final -112.50 input   59.86 | X-H torsion
[ 10167 10162 10161 10158 ] final   61.28 input  -65.29 | X-H torsion
[ 10718 10713 10712 10709 ] final  -61.20 input   66.30 | X-H torsion
[ 10763 10752 10751 10750 ] final  -52.44 input  -60.55 | X-H torsion
[ 11005 11000 10999 10996 ] final   16.38 input  -57.11 | X-H torsion

> <Gold.Protein.ActiveResidues>
 VAL166  LYS551  ARG553  GLY616  TRP617  ASP618  TYR619  PRO620  LYS621  CYS622 
 ASP623  PHE694  ASN695  SER759  ASP760  ASP761  ALA762  ILE779  LEU786  VAL792 
 PHE793  MET794  SER795  GLU796  ALA797  LYS798  CYS799  TRP800  GLU811  SER814 

> <Gold.Protein.RotatedAtoms>
  151.7278  133.3316  159.3332 H   0  0  0  0  0  0  0  0  0  0  0  0  # atno 6907 bound_to 6896
  150.7625  134.6390  159.6236 H   0  0  0  0  0  0  0  0  0  0  0  0  # atno 6908 bound_to 6896
  152.3611  134.6873  160.0258 H   0  0  0  0  0  0  0  0  0  0  0  0  # atno 6909 bound_to 6896
  144.9274  139.5090  143.5634 H   0  0  0  0  0  0  0  0  0  0  0  0  # atno 7974 bound_to 7965
  155.0061  140.0394  157.2380 H   0  0  0  0  0  0  0  0  0  0  0  0  # atno 8008 bound_to 7997
  154.7501  140.2765  155.6277 H   0  0  0  0  0  0  0  0  0  0  0  0  # atno 8009 bound_to 7997
  156.2883  140.2648  156.2252 H   0  0  0  0  0  0  0  0  0  0  0  0  # atno 8010 bound_to 7997
  140.1565  144.4412  150.6731 H   0  0  0  0  0  0  0  0  0  0  0  0  # atno 10167 bound_to 10162
  156.0938  130.4196  150.0961 H   0  0  0  0  0  0  0  0  0  0  0  0  # atno 10718 bound_to 10713
  154.1428  135.6502  153.4946 H   0  0  0  0  0  0  0  0  0  0  0  0  # atno 10763 bound_to 10752
  153.0161  135.5319  154.6887 H   0  0  0  0  0  0  0  0  0  0  0  0  # atno 10764 bound_to 10752
  154.6153  135.2958  155.0357 H   0  0  0  0  0  0  0  0  0  0  0  0  # atno 10765 bound_to 10752
  140.4478  134.1256  155.7698 H   0  0  0  0  0  0  0  0  0  0  0  0  # atno 11005 bound_to 11000
  146.3232  139.8199  142.8929 LP  0  0  0  0  0  0  0  0  0  0  0  0  # atno 17320 bound_to 7965
  145.3197  141.0241  143.3507 LP  0  0  0  0  0  0  0  0  0  0  0  0  # atno 17321 bound_to 7965
  140.6670  143.2271  151.5719 LP  0  0  0  0  0  0  0  0  0  0  0  0  # atno 17342 bound_to 10162
  139.5401  144.2671  152.1333 LP  0  0  0  0  0  0  0  0  0  0  0  0  # atno 17343 bound_to 10162
  156.8965  130.9606  151.3582 LP  0  0  0  0  0  0  0  0  0  0  0  0  # atno 17370 bound_to 10713
  157.6093  130.8571  149.8926 LP  0  0  0  0  0  0  0  0  0  0  0  0  # atno 17371 bound_to 10713
  141.1677  133.8669  157.1664 LP  0  0  0  0  0  0  0  0  0  0  0  0  # atno 17394 bound_to 11000
  140.0027  135.0021  157.0225 LP  0  0  0  0  0  0  0  0  0  0  0  0  # atno 17395 bound_to 11000

$$$$
