AV-unprocessed.smi:686|AV-procd|sdf|3345|dock1
  -GOLD-   22720 0323D 1   1.00000     0.00000
 Structure written by MMmdl.
 40 41  0  0  0  0  0  0  0  0  3 V2000
  150.6102  133.2652  155.6071 C   0  0  0  0  0  0  0  0  0  0  0  0
  149.1965  133.1209  155.0095 C   0  0  2  0  0  0  0  0  0  0  0  0
  149.1838  133.0839  153.4707 C   0  0  0  0  0  0  0  0  0  0  0  0
  147.9904  133.8461  153.0189 N   0  3  1  0  0  0  0  0  0  0  0  0
  147.2375  133.2397  151.8844 C   0  0  0  0  0  0  0  0  0  0  0  0
  146.1354  134.1906  151.3806 C   0  0  0  0  0  0  0  0  0  0  0  0
  146.6110  131.8869  152.2733 C   0  0  0  0  0  0  0  0  0  0  0  0
  147.1937  134.1531  154.2263 C   0  0  0  0  0  0  0  0  0  0  0  0
  148.2206  134.2538  155.3516 C   0  0  1  0  0  0  0  0  0  0  0  0
  147.6103  134.0684  156.6617 N   0  5  0  0  0  0  0  0  0  0  0  0
  148.4719  134.2418  158.0322 S   0  0  0  0  0  0  0  0  0  0  0  0
  149.4387  133.1552  158.2682 O   0  0  0  0  0  0  0  0  0  0  0  0
  148.9869  135.6151  158.1381 O   0  0  0  0  0  0  0  0  0  0  0  0
  147.1622  134.1281  159.3457 C   0  0  0  0  0  0  0  0  0  0  0  0
  147.3767  135.1237  160.4553 C   0  0  0  0  0  0  0  0  0  0  0  0
  147.5767  134.8812  161.8429 C   0  0  0  0  0  0  0  0  0  0  0  0
  147.7258  136.1315  162.3692 C   0  0  0  0  0  0  0  0  0  0  0  0
  147.6408  137.0704  161.3941 O   0  0  0  0  0  0  0  0  0  0  0  0
  147.4283  136.4174  160.1750 N   0  0  0  0  0  0  0  0  0  0  0  0
  151.1066  134.1809  155.2799 H   0  0  0  0  0  0  0  0  0  0  0  0
  151.2399  132.4295  155.3013 H   0  0  0  0  0  0  0  0  0  0  0  0
  150.5909  133.2686  156.6985 H   0  0  0  0  0  0  0  0  0  0  0  0
  148.7713  132.1782  155.3604 H   0  0  0  0  0  0  0  0  0  0  0  0
  150.0746  133.5461  153.0415 H   0  0  0  0  0  0  0  0  0  0  0  0
  149.1595  132.0474  153.1304 H   0  0  0  0  0  0  0  0  0  0  0  0
  147.9399  133.0634  151.0683 H   0  0  0  0  0  0  0  0  0  0  0  0
  145.5731  133.7379  150.5633 H   0  0  0  0  0  0  0  0  0  0  0  0
  146.5415  135.1288  151.0032 H   0  0  0  0  0  0  0  0  0  0  0  0
  145.4273  134.4301  152.1745 H   0  0  0  0  0  0  0  0  0  0  0  0
  146.0198  131.4802  151.4523 H   0  0  0  0  0  0  0  0  0  0  0  0
  145.9518  131.9881  153.1361 H   0  0  0  0  0  0  0  0  0  0  0  0
  147.3673  131.1401  152.5149 H   0  0  0  0  0  0  0  0  0  0  0  0
  146.6230  135.0746  154.1076 H   0  0  0  0  0  0  0  0  0  0  0  0
  146.4928  133.3381  154.4187 H   0  0  0  0  0  0  0  0  0  0  0  0
  148.7450  135.2054  155.2612 H   0  0  0  0  0  0  0  0  0  0  0  0
  146.2069  134.3308  158.8626 H   0  0  0  0  0  0  0  0  0  0  0  0
  147.1182  133.1019  159.7114 H   0  0  0  0  0  0  0  0  0  0  0  0
  147.5975  133.9382  162.3682 H   0  0  0  0  0  0  0  0  0  0  0  0
  147.8939  136.4998  163.3703 H   0  0  0  0  0  0  0  0  0  0  0  0
  148.3407  134.7376  152.6985 H   0  0  0  0  0  0  0  0  0  0  0  0
  1  2  1  0  0  0  0
  1 20  1  0  0  0  0
  1 21  1  0  0  0  0
  1 22  1  0  0  0  0
  2  9  1  0  0  0  0
  2  3  1  0  0  0  0
  2 23  1  0  0  0  0
  3  4  1  0  0  0  0
  3 24  1  0  0  0  0
  3 25  1  0  0  0  0
  4  5  1  0  0  0  0
  4  8  1  0  0  0  0
  4 40  1  0  0  0  0
  5  6  1  0  0  0  0
  5  7  1  0  0  0  0
  5 26  1  0  0  0  0
  6 27  1  0  0  0  0
  6 28  1  0  0  0  0
  6 29  1  0  0  0  0
  7 30  1  0  0  0  0
  7 31  1  0  0  0  0
  7 32  1  0  0  0  0
  8  9  1  0  0  0  0
  8 33  1  0  0  0  0
  8 34  1  0  0  0  0
  9 10  1  0  0  0  0
  9 35  1  0  0  0  0
 10 11  1  0  0  0  0
 11 12  2  0  0  0  0
 11 13  2  0  0  0  0
 11 14  1  0  0  0  0
 14 15  1  0  0  0  0
 14 36  1  0  0  0  0
 14 37  1  0  0  0  0
 15 19  2  0  0  0  0
 15 16  1  0  0  0  0
 16 17  2  0  0  0  0
 16 38  1  0  0  0  0
 17 18  1  0  0  0  0
 17 39  1  0  0  0  0
 18 19  1  0  0  0  0
M  CHG  1   4   1
M  CHG  1  10  -1
M  END
> <s_m_source_file>
AV-unprocessed.smi

> <i_m_source_file_index>
686

> <i_lp_mmshare_version>
43012

> <i_f3d_flags>
0

> <s_epik_input>
W0NIM11bQ0BASF0xW0NIMl1OKFtDSF0oW0NIM10pW0NIM10pW0NIMl1bQ0BIXTFbTkhdUyg9TykoPU8pW0NIMl1jMltjSF1bY0hdb24y

> <s_epik_cmdline>
J2VwaWtfcHl0aG9uJywgJy1waCcsICc3LjAnLCAnLXRuJywgJzgnLCAnLW1hJywgJzIwMCcsICctbWV0YWxfYmluZGluZycsICctaW1hZScsICc8aW5maWxlLm1hZT4nLCAnLW9tYWUnLCAnPG91dGZpbGUubWFlPic=

> <r_epik_Ionization_Penalty>
3.62478

> <r_epik_Ionization_Penalty_Charging>
3.62478

> <r_epik_Ionization_Penalty_Neutral>
2.03645e-10

> <r_epik_State_Penalty>
3.6247

> <r_epik_Charging_Adjusted_Penalty>
7.24949

> <i_epik_Tot_Q>
0

> <i_epik_Tot_abs_Q>
2

> <r_epik_Metal_State_Penalty>
0.530836

> <b_epik_Metal_Only>
1

> <s_lp_Force_Field>
OPLS_2005

> <r_lp_Energy>
16.9735

> <b_lp_Chiralities_Consistent>
1

> <s_lp_Variant>
AV-unprocessed.smi:686-9

> <Gold.Version>
5.8.1

> <Gold.Id.Protein>
6NUR|6NUR_protein|mol2

> <Gold.PLP.Fitness>
43.6517

> <Gold.PLP.PLP>
-30.3337

> <Gold.PLP.part.hbond>
-4.0000

> <Gold.PLP.part.metal>
0.0000

> <Gold.PLP.part.buried>
-3.8577

> <Gold.PLP.part.nonpolar>
-21.7342

> <Gold.PLP.part.repulsive>
0.0000

> <Gold.PLP.ligand.clash>
0.0000

> <Gold.PLP.ligand.torsion>
1.1587

> <Gold.PLP.Chemscore.Hbond>
4.8480

> <Gold.PLP.Chemscore.CHOScore>
0.0000

> <Gold.PLP.Chemscore.Metal>
0.0000

> <Gold.Chemscore.Hbonds>
donor molecule, donor type, donor heavy atom, donor atom, acceptor molecule, acceptor atom, score
      L1  H     4    40       P1  7948  2.00
      P1  H  6896  6909       L1    12  1.00
      P1  H  6931  6943       L1    18  1.00
      P1  H  6934  6947       L1    18  0.80

> <Gold.PLP.Chemscore.Internal.Correction>
1.0915

> <Gold.Rescore>
     Score         DG    S(hbond)    S(metal)    S(lipo)     H(rot)  DE(clash)    DE(int)     intcor
     14.89     -18.58       2.86        0.00      65.78       1.61       0.03       3.67       ----

> <Gold.Chemscore.Fitness>
14.8913

> <Gold.Chemscore.DG>
-18.5850

> <Gold.Chemscore.ZeroCoef>
-5.4800

> <Gold.Chemscore.Hbond>
2.8571

> <Gold.Chemscore.Metal>
0.0000

> <Gold.Chemscore.Lipo>
65.7807

> <Gold.Chemscore.Internal_Hbond>
0.0000

> <Gold.Chemscore.DEClash>
0.0282

> <Gold.Chemscore.DEInternal>
3.6654

> <Gold.Chemscore.Rot>
1.6149

> <Gold.Chemscore.Internal.Correction>
   9.000000E+99

> <Gold.Chemscore.Hbonds>
donor molecule, donor type, donor heavy atom, donor atom, acceptor molecule, acceptor atom, score
      L1  H     4    40       P1  7948  0.40
      P1  H  6896  6909       L1    12  0.39
      P1  H  6931  6943       L1    18  0.29
      P1  H  6934  6947       L1    18  0.30

> <Gold.Chemscore.Hbond.Weighted>
-9.5427

> <Gold.Chemscore.Metal.Weighted>
-0.0000

> <Gold.Chemscore.Lipo.Weighted>
-7.6963

> <Gold.Chemscore.Internal_Hbond.Weighted>
0.0000

> <Gold.Chemscore.DEClash.Weighted>
0.0282

> <Gold.Chemscore.DEInternal.Weighted>
3.6654

> <Gold.Chemscore.Rot.Weighted>
4.1341

> <Gold.Chemscore.Internal.Correction.Weighted>
   9.000000E+99

> <Gold.Protein.RotatedTorsions>
[ 6907 6896 6895 6894 ] final   12.56 input  -60.11 | X-H torsion
[ 7974 7965 7964 7962 ] final  113.99 input  175.53 | X-H torsion
[ 8008 7997 7996 7995 ] final   86.47 input   59.86 | X-H torsion
[ 10167 10162 10161 10158 ] final -168.15 input  -65.29 | X-H torsion
[ 10718 10713 10712 10709 ] final   56.41 input   66.30 | X-H torsion
[ 10763 10752 10751 10750 ] final  116.30 input  -60.55 | X-H torsion
[ 11005 11000 10999 10996 ] final  110.46 input  -57.11 | X-H torsion

> <Gold.Protein.ActiveResidues>
 VAL166  LYS551  ARG553  GLY616  TRP617  ASP618  TYR619  PRO620  LYS621  CYS622 
 ASP623  PHE694  ASN695  SER759  ASP760  ASP761  ALA762  ILE779  LEU786  VAL792 
 PHE793  MET794  SER795  GLU796  ALA797  LYS798  CYS799  TRP800  GLU811  SER814 

> <Gold.Protein.RotatedAtoms>
  151.7722  135.0783  160.0361 H   0  0  0  0  0  0  0  0  0  0  0  0  # atno 6907 bound_to 6896
  152.3280  133.5923  159.5798 H   0  0  0  0  0  0  0  0  0  0  0  0  # atno 6908 bound_to 6896
  150.7406  133.9826  159.3623 H   0  0  0  0  0  0  0  0  0  0  0  0  # atno 6909 bound_to 6896
  145.2100  139.2911  143.4273 H   0  0  0  0  0  0  0  0  0  0  0  0  # atno 7974 bound_to 7965
  155.9632  140.3391  155.6509 H   0  0  0  0  0  0  0  0  0  0  0  0  # atno 8008 bound_to 7997
  155.6771  140.0733  157.2517 H   0  0  0  0  0  0  0  0  0  0  0  0  # atno 8009 bound_to 7997
  154.4148  140.1681  156.1929 H   0  0  0  0  0  0  0  0  0  0  0  0  # atno 8010 bound_to 7997
  139.6003  144.1024  152.1736 H   0  0  0  0  0  0  0  0  0  0  0  0  # atno 10167 bound_to 10162
  157.5429  130.8710  149.8848 H   0  0  0  0  0  0  0  0  0  0  0  0  # atno 10718 bound_to 10713
  153.5351  135.3570  155.2693 H   0  0  0  0  0  0  0  0  0  0  0  0  # atno 10763 bound_to 10752
  154.8723  135.4077  154.3107 H   0  0  0  0  0  0  0  0  0  0  0  0  # atno 10764 bound_to 10752
  153.3803  135.7068  153.6638 H   0  0  0  0  0  0  0  0  0  0  0  0  # atno 10765 bound_to 10752
  139.8882  134.9484  156.6282 H   0  0  0  0  0  0  0  0  0  0  0  0  # atno 11005 bound_to 11000
  146.3399  140.2373  142.8595 LP  0  0  0  0  0  0  0  0  0  0  0  0  # atno 17320 bound_to 7965
  144.9865  140.8508  143.5365 LP  0  0  0  0  0  0  0  0  0  0  0  0  # atno 17321 bound_to 7965
  140.0619  144.5850  150.7257 LP  0  0  0  0  0  0  0  0  0  0  0  0  # atno 17342 bound_to 10162
  140.7245  143.2621  151.4168 LP  0  0  0  0  0  0  0  0  0  0  0  0  # atno 17343 bound_to 10162
  156.0511  130.3717  150.1199 LP  0  0  0  0  0  0  0  0  0  0  0  0  # atno 17370 bound_to 10713
  156.9377  130.9734  151.3521 LP  0  0  0  0  0  0  0  0  0  0  0  0  # atno 17371 bound_to 10713
  140.7687  133.8756  155.8475 LP  0  0  0  0  0  0  0  0  0  0  0  0  # atno 17394 bound_to 11000
  140.9860  134.1342  157.4451 LP  0  0  0  0  0  0  0  0  0  0  0  0  # atno 17395 bound_to 11000

$$$$
