AV-unprocessed.smi:281|AV-procd|sdf|2107|dock10
  -GOLD-   2262021403D 1   1.00000     0.00000
 Structure written by MMmdl.
 55 59  0  0  0  0  0  0  0  0  1 V2000
  155.9682  137.8848  165.2630 C   0  0  0  0  0  0  0  0  0  0  0  0
  156.3381  137.6266  163.7992 C   0  0  2  0  0  0  0  0  0  0  0  0
  155.2405  138.1058  162.8342 C   0  0  0  0  0  0  0  0  0  0  0  0
  155.5927  137.7446  161.4676 N   0  0  0  0  0  0  0  0  0  0  0  0
  154.9171  138.3969  160.4890 C   0  0  0  0  0  0  0  0  0  0  0  0
  154.3908  137.6986  159.4474 N   0  0  0  0  0  0  0  0  0  0  0  0
  153.7285  138.3331  158.4759 C   0  0  0  0  0  0  0  0  0  0  0  0
  153.4840  139.6384  158.3475 N   0  0  0  0  0  0  0  0  0  0  0  0
  154.0130  140.3458  159.3865 C   0  0  0  0  0  0  0  0  0  0  0  0
  154.7383  139.8092  160.4879 C   0  0  0  0  0  0  0  0  0  0  0  0
  155.1389  140.8363  161.3344 N   0  0  0  0  0  0  0  0  0  0  0  0
  154.6719  141.9160  160.7699 C   0  0  0  0  0  0  0  0  0  0  0  0
  153.9757  141.7133  159.5993 N   0  0  0  0  0  0  0  0  0  0  0  0
  153.3597  142.7309  158.7610 C   0  0  0  0  0  0  0  0  0  0  0  0
  152.0806  143.3522  159.3707 C   0  0  2  0  0  0  0  0  0  0  0  0
  151.3390  142.3401  160.0294 O   0  0  0  0  0  0  0  0  0  0  0  0
  151.1835  143.9960  158.3206 C   0  0  0  0  0  0  0  0  0  0  0  0
  150.4893  145.1034  159.1011 C   0  0  0  0  0  0  0  0  0  0  0  0
  151.5242  145.5973  159.9337 O   0  0  0  0  0  0  0  0  0  0  0  0
  152.3291  144.5044  160.3668 C   0  0  0  0  0  0  0  0  0  0  0  0
  155.8696  136.3217  161.2936 C   0  0  0  0  0  0  0  0  0  0  0  0
  156.9288  135.8308  162.3145 C   0  0  1  0  0  0  0  0  0  0  0  0
  156.9979  134.3090  162.3156 C   0  0  0  0  0  0  0  0  0  0  0  0
  158.0585  134.0165  161.2674 C   0  0  0  0  0  0  0  0  0  0  0  0
  159.0374  135.0120  161.5084 O   0  0  0  0  0  0  0  0  0  0  0  0
  158.4115  136.1936  162.0056 C   0  0  1  0  0  0  0  0  0  0  0  0
  158.6791  137.3494  161.0259 C   0  0  0  0  0  0  0  0  0  0  0  0
  156.5325  136.2232  163.6320 O   0  0  0  0  0  0  0  0  0  0  0  0
  155.8185  138.9487  165.4475 H   0  0  0  0  0  0  0  0  0  0  0  0
  156.7581  137.5395  165.9304 H   0  0  0  0  0  0  0  0  0  0  0  0
  155.0497  137.3643  165.5360 H   0  0  0  0  0  0  0  0  0  0  0  0
  157.2689  138.1525  163.5847 H   0  0  0  0  0  0  0  0  0  0  0  0
  154.2874  137.6385  163.0856 H   0  0  0  0  0  0  0  0  0  0  0  0
  155.1029  139.1811  162.9419 H   0  0  0  0  0  0  0  0  0  0  0  0
  153.3407  137.7049  157.6876 H   0  0  0  0  0  0  0  0  0  0  0  0
  154.8288  142.8968  161.1942 H   0  0  0  0  0  0  0  0  0  0  0  0
  154.1015  143.5080  158.5722 H   0  0  0  0  0  0  0  0  0  0  0  0
  153.1339  142.2844  157.7916 H   0  0  0  0  0  0  0  0  0  0  0  0
  150.6970  142.7529  160.5864 H   0  0  0  0  0  0  0  0  0  0  0  0
  151.7871  144.4450  157.5309 H   0  0  0  0  0  0  0  0  0  0  0  0
  150.4875  143.3003  157.8502 H   0  0  0  0  0  0  0  0  0  0  0  0
  150.0827  145.8840  158.4578 H   0  0  0  0  0  0  0  0  0  0  0  0
  149.6809  144.7040  159.7156 H   0  0  0  0  0  0  0  0  0  0  0  0
  152.0687  144.2300  161.3903 H   0  0  0  0  0  0  0  0  0  0  0  0
  153.3677  144.8336  160.3708 H   0  0  0  0  0  0  0  0  0  0  0  0
  154.9354  135.7777  161.4429 H   0  0  0  0  0  0  0  0  0  0  0  0
  156.1961  136.1137  160.2740 H   0  0  0  0  0  0  0  0  0  0  0  0
  157.3469  133.9473  163.2843 H   0  0  0  0  0  0  0  0  0  0  0  0
  156.0442  133.8235  162.1058 H   0  0  0  0  0  0  0  0  0  0  0  0
  158.4761  133.0135  161.3547 H   0  0  0  0  0  0  0  0  0  0  0  0
  157.6572  134.1365  160.2601 H   0  0  0  0  0  0  0  0  0  0  0  0
  158.9188  136.4203  162.9442 H   0  0  0  0  0  0  0  0  0  0  0  0
  158.2659  138.2898  161.3891 H   0  0  0  0  0  0  0  0  0  0  0  0
  158.2582  137.1502  160.0406 H   0  0  0  0  0  0  0  0  0  0  0  0
  159.7512  137.4980  160.8956 H   0  0  0  0  0  0  0  0  0  0  0  0
  1  2  1  0  0  0  0
  1 29  1  0  0  0  0
  1 30  1  0  0  0  0
  1 31  1  0  0  0  0
  2 28  1  0  0  0  0
  2  3  1  0  0  0  0
  2 32  1  0  0  0  0
  3  4  1  0  0  0  0
  3 33  1  0  0  0  0
  3 34  1  0  0  0  0
  4  5  1  0  0  0  0
  4 21  1  0  0  0  0
  5 10  1  0  0  0  0
  5  6  2  0  0  0  0
  6  7  1  0  0  0  0
  7  8  2  0  0  0  0
  7 35  1  0  0  0  0
  8  9  1  0  0  0  0
  9 13  1  0  0  0  0
  9 10  2  0  0  0  0
 10 11  1  0  0  0  0
 11 12  2  0  0  0  0
 12 13  1  0  0  0  0
 12 36  1  0  0  0  0
 13 14  1  0  0  0  0
 14 15  1  0  0  0  0
 14 37  1  0  0  0  0
 14 38  1  0  0  0  0
 15 20  1  0  0  0  0
 15 16  1  0  0  0  0
 15 17  1  0  0  0  0
 16 39  1  0  0  0  0
 17 18  1  0  0  0  0
 17 40  1  0  0  0  0
 17 41  1  0  0  0  0
 18 19  1  0  0  0  0
 18 42  1  0  0  0  0
 18 43  1  0  0  0  0
 19 20  1  0  0  0  0
 20 44  1  0  0  0  0
 20 45  1  0  0  0  0
 21 22  1  0  0  0  0
 21 46  1  0  0  0  0
 21 47  1  0  0  0  0
 22 26  1  0  0  0  0
 22 23  1  0  0  0  0
 22 28  1  0  0  0  0
 23 24  1  0  0  0  0
 23 48  1  0  0  0  0
 23 49  1  0  0  0  0
 24 25  1  0  0  0  0
 24 50  1  0  0  0  0
 24 51  1  0  0  0  0
 25 26  1  0  0  0  0
 26 27  1  0  0  0  0
 26 52  1  0  0  0  0
 27 53  1  0  0  0  0
 27 54  1  0  0  0  0
 27 55  1  0  0  0  0
M  END
> <s_m_source_file>
AV-unprocessed.smi

> <i_m_source_file_index>
281

> <i_lp_mmshare_version>
43012

> <i_f3d_flags>
0

> <s_epik_input>
W0NIM11bQ0BASF0xT1tDSDJdW0NIMl1bQ0BAXTEyW0NIMl1OKFtDSDJdW0NASF0oTzIpW0NIM10pYyhuW2NIXW4zKWMoYzM0KW5bY0hdbjRbQ0gyXVtDQEBdNShbT0hdKVtDSDJdW0NIMl1PW0NIMl01

> <s_epik_cmdline>
J2VwaWtfcHl0aG9uJywgJy1waCcsICc3LjAnLCAnLXRuJywgJzgnLCAnLW1hJywgJzIwMCcsICctbWV0YWxfYmluZGluZycsICctaW1hZScsICc8aW5maWxlLm1hZT4nLCAnLW9tYWUnLCAnPG91dGZpbGUubWFlPic=

> <r_lp_tautomer_probability>
1

> <r_epik_Ionization_Penalty>
0.00571331

> <r_epik_Ionization_Penalty_Charging>
0

> <r_epik_Ionization_Penalty_Neutral>
0.00571331

> <r_epik_State_Penalty>
0.00399586

> <r_epik_Charging_Adjusted_Penalty>
0.00399586

> <i_epik_Tot_Q>
0

> <i_epik_Tot_abs_Q>
0

> <r_epik_Metal_State_Penalty>
-0

> <b_epik_Metal_Only>
0

> <s_lp_Force_Field>
OPLS_2005

> <r_lp_Energy>
55.2886

> <b_lp_Chiralities_Consistent>
1

> <s_lp_Variant>
AV-unprocessed.smi:281-7

> <Gold.Version>
5.8.1

> <Gold.Id.Protein>
6NUR|6NUR_protein|mol2

> <Gold.PLP.Fitness>
46.5054

> <Gold.PLP.PLP>
-44.7573

> <Gold.PLP.part.hbond>
-2.0000

> <Gold.PLP.part.metal>
0.0000

> <Gold.PLP.part.buried>
-4.0037

> <Gold.PLP.part.nonpolar>
-39.2580

> <Gold.PLP.part.repulsive>
0.2282

> <Gold.PLP.ligand.clash>
0.0000

> <Gold.PLP.ligand.torsion>
0.6702

> <Gold.PLP.Chemscore.Hbond>
0.9000

> <Gold.PLP.Chemscore.CHOScore>
0.0000

> <Gold.PLP.Chemscore.Metal>
0.0000

> <Gold.Chemscore.Hbonds>
donor molecule, donor type, donor heavy atom, donor atom, acceptor molecule, acceptor atom, score
      P1  H  7997  8009       L1     8  1.00

> <Gold.PLP.Chemscore.Internal.Correction>
0.3886

> <Gold.Rescore>
     Score         DG    S(hbond)    S(metal)    S(lipo)     H(rot)  DE(clash)    DE(int)     intcor
     11.43     -12.90       0.09        0.00     106.66       2.09       0.28       1.19       ----

> <Gold.Chemscore.Fitness>
11.4295

> <Gold.Chemscore.DG>
-12.9030

> <Gold.Chemscore.ZeroCoef>
-5.4800

> <Gold.Chemscore.Hbond>
0.0903

> <Gold.Chemscore.Metal>
0.0000

> <Gold.Chemscore.Lipo>
106.6555

> <Gold.Chemscore.Internal_Hbond>
0.0000

> <Gold.Chemscore.DEClash>
0.2832

> <Gold.Chemscore.DEInternal>
1.1903

> <Gold.Chemscore.Rot>
2.0927

> <Gold.Chemscore.Internal.Correction>
   9.000000E+99

> <Gold.Chemscore.Hbonds>
donor molecule, donor type, donor heavy atom, donor atom, acceptor molecule, acceptor atom, score
      P1  H  7997  8009       L1     8  0.12

> <Gold.Chemscore.Hbond.Weighted>
-0.3017

> <Gold.Chemscore.Metal.Weighted>
-0.0000

> <Gold.Chemscore.Lipo.Weighted>
-12.4787

> <Gold.Chemscore.Internal_Hbond.Weighted>
0.0000

> <Gold.Chemscore.DEClash.Weighted>
0.2832

> <Gold.Chemscore.DEInternal.Weighted>
1.1903

> <Gold.Chemscore.Rot.Weighted>
5.3573

> <Gold.Chemscore.Internal.Correction.Weighted>
   9.000000E+99

> <Gold.Protein.RotatedTorsions>
[ 6907 6896 6895 6894 ] final -151.14 input  -60.11 | X-H torsion
[ 7974 7965 7964 7962 ] final -173.95 input  175.53 | X-H torsion
[ 8008 7997 7996 7995 ] final  158.28 input   59.86 | X-H torsion
[ 10167 10162 10161 10158 ] final  -21.26 input  -65.29 | X-H torsion
[ 10718 10713 10712 10709 ] final  124.19 input   66.30 | X-H torsion
[ 10763 10752 10751 10750 ] final  -56.26 input  -60.55 | X-H torsion
[ 11005 11000 10999 10996 ] final  -85.39 input  -57.11 | X-H torsion

> <Gold.Protein.ActiveResidues>
 VAL166  LYS551  ARG553  GLY616  TRP617  ASP618  TYR619  PRO620  LYS621  CYS622 
 ASP623  PHE694  ASN695  SER759  ASP760  ASP761  ALA762  ILE779  LEU786  VAL792 
 PHE793  MET794  SER795  GLU796  ALA797  LYS798  CYS799  TRP800  GLU811  SER814 

> <Gold.Protein.RotatedAtoms>
  151.2088  133.4568  159.2597 H   0  0  0  0  0  0  0  0  0  0  0  0  # atno 6907 bound_to 6896
  151.0996  134.9965  159.8452 H   0  0  0  0  0  0  0  0  0  0  0  0  # atno 6908 bound_to 6896
  152.5442  134.2016  159.8767 H   0  0  0  0  0  0  0  0  0  0  0  0  # atno 6909 bound_to 6896
  144.7134  140.1545  143.6381 H   0  0  0  0  0  0  0  0  0  0  0  0  # atno 7974 bound_to 7965
  156.2312  140.1862  156.7237 H   0  0  0  0  0  0  0  0  0  0  0  0  # atno 8008 bound_to 7997
  154.6026  140.0634  156.9416 H   0  0  0  0  0  0  0  0  0  0  0  0  # atno 8009 bound_to 7997
  155.2149  140.3303  155.4326 H   0  0  0  0  0  0  0  0  0  0  0  0  # atno 8010 bound_to 7997
  140.7281  143.4645  151.0333 H   0  0  0  0  0  0  0  0  0  0  0  0  # atno 10167 bound_to 10162
  157.5605  131.1090  150.8546 H   0  0  0  0  0  0  0  0  0  0  0  0  # atno 10718 bound_to 10713
  154.2039  135.6406  153.5095 H   0  0  0  0  0  0  0  0  0  0  0  0  # atno 10763 bound_to 10752
  153.0005  135.5458  154.6287 H   0  0  0  0  0  0  0  0  0  0  0  0  # atno 10764 bound_to 10752
  154.5706  135.2916  155.0804 H   0  0  0  0  0  0  0  0  0  0  0  0  # atno 10765 bound_to 10752
  141.1641  133.7397  156.9008 H   0  0  0  0  0  0  0  0  0  0  0  0  # atno 11005 bound_to 11000
  145.9086  139.2473  143.1451 LP  0  0  0  0  0  0  0  0  0  0  0  0  # atno 17320 bound_to 7965
  145.9739  140.8738  143.0149 LP  0  0  0  0  0  0  0  0  0  0  0  0  # atno 17321 bound_to 7965
  139.8332  143.7663  152.3180 LP  0  0  0  0  0  0  0  0  0  0  0  0  # atno 17342 bound_to 10162
  139.7786  144.7452  151.0121 LP  0  0  0  0  0  0  0  0  0  0  0  0  # atno 17343 bound_to 10162
  156.9045  130.5258  149.5282 LP  0  0  0  0  0  0  0  0  0  0  0  0  # atno 17370 bound_to 10713
  156.0658  130.5702  150.9286 LP  0  0  0  0  0  0  0  0  0  0  0  0  # atno 17371 bound_to 10713
  140.1584  134.9183  157.2683 LP  0  0  0  0  0  0  0  0  0  0  0  0  # atno 17394 bound_to 11000
  140.2641  134.3537  155.7396 LP  0  0  0  0  0  0  0  0  0  0  0  0  # atno 17395 bound_to 11000

$$$$
