AV-unprocessed.smi:2034|AV-procd|sdf|8265|dock4
  -GOLD-   2272010543D 1   1.00000     0.00000
 Structure written by MMmdl.
 50 52  0  0  0  0  0  0  0  0  1 V2000
  153.6651  141.8762  160.6691 C   0  0  0  0  0  0  0  0  0  0  0  0
  152.5523  142.5611  159.8687 C   0  0  2  0  0  0  0  0  0  0  0  0
  152.0784  141.6959  158.6868 C   0  0  0  0  0  0  0  0  0  0  0  0
  151.1035  142.4295  157.8930 N   0  0  0  0  0  0  0  0  0  0  0  0
  150.5023  141.6554  156.8922 C   0  0  0  0  0  0  0  0  0  0  0  0
  149.1103  141.7070  156.6524 C   0  0  0  0  0  0  0  0  0  0  0  0
  148.5720  140.9045  155.6291 C   0  0  0  0  0  0  0  0  0  0  0  0
  149.4335  140.0854  154.8721 C   0  0  0  0  0  0  0  0  0  0  0  0
  148.8610  139.2715  153.8585 N   0  0  0  0  0  0  0  0  0  0  0  0
  147.6023  139.2856  153.3882 C   0  0  0  0  0  0  0  0  0  0  0  0
  146.6956  140.0091  153.7998 O   0  0  0  0  0  0  0  0  0  0  0  0
  147.4414  138.3802  152.4137 N   0  0  0  0  0  0  0  0  0  0  0  0
  146.1870  138.1074  151.7221 C   0  0  0  0  0  0  0  0  0  0  0  0
  145.6905  136.6797  152.0015 C   0  0  1  0  0  0  0  0  0  0  0  0
  144.1978  136.5991  152.3146 C   0  0  0  0  0  0  0  0  0  0  0  0
  143.8837  135.1721  151.9284 C   0  0  0  0  0  0  0  0  0  0  0  0
  144.7452  134.9918  150.6824 C   0  0  0  0  0  0  0  0  0  0  0  0
  145.8689  135.8521  150.8536 O   0  0  0  0  0  0  0  0  0  0  0  0
  150.8112  140.0970  155.1999 C   0  0  0  0  0  0  0  0  0  0  0  0
  151.3330  140.8627  156.1820 N   0  0  0  0  0  0  0  0  0  0  0  0
  151.6206  143.7036  157.4121 C   0  0  0  0  0  0  0  0  0  0  0  0
  152.1351  144.5590  158.5867 C   0  0  1  0  0  0  0  0  0  0  0  0
  151.0088  145.1734  159.4370 C   0  0  0  0  0  0  0  0  0  0  0  0
  153.0581  143.8034  159.3767 O   0  0  0  0  0  0  0  0  0  0  0  0
  153.3260  140.9242  161.0785 H   0  0  0  0  0  0  0  0  0  0  0  0
  153.9858  142.5007  161.5034 H   0  0  0  0  0  0  0  0  0  0  0  0
  154.5375  141.6806  160.0448 H   0  0  0  0  0  0  0  0  0  0  0  0
  151.7168  142.7475  160.5438 H   0  0  0  0  0  0  0  0  0  0  0  0
  152.9286  141.4196  158.0615 H   0  0  0  0  0  0  0  0  0  0  0  0
  151.6321  140.7705  159.0536 H   0  0  0  0  0  0  0  0  0  0  0  0
  148.4650  142.3458  157.2372 H   0  0  0  0  0  0  0  0  0  0  0  0
  147.5109  140.9240  155.4275 H   0  0  0  0  0  0  0  0  0  0  0  0
  149.4667  138.5568  153.4825 H   0  0  0  0  0  0  0  0  0  0  0  0
  148.2383  137.8219  152.1449 H   0  0  0  0  0  0  0  0  0  0  0  0
  145.4309  138.8363  152.0192 H   0  0  0  0  0  0  0  0  0  0  0  0
  146.3469  138.2465  150.6528 H   0  0  0  0  0  0  0  0  0  0  0  0
  146.2479  136.2345  152.8274 H   0  0  0  0  0  0  0  0  0  0  0  0
  143.9694  136.8212  153.3574 H   0  0  0  0  0  0  0  0  0  0  0  0
  143.6325  137.2882  151.6852 H   0  0  0  0  0  0  0  0  0  0  0  0
  144.2114  134.4906  152.7149 H   0  0  0  0  0  0  0  0  0  0  0  0
  142.8233  134.9986  151.7434 H   0  0  0  0  0  0  0  0  0  0  0  0
  145.0545  133.9564  150.5380 H   0  0  0  0  0  0  0  0  0  0  0  0
  144.1999  135.3099  149.7930 H   0  0  0  0  0  0  0  0  0  0  0  0
  151.5259  139.4700  154.6902 H   0  0  0  0  0  0  0  0  0  0  0  0
  152.4383  143.5191  156.7139 H   0  0  0  0  0  0  0  0  0  0  0  0
  150.8461  144.2393  156.8615 H   0  0  0  0  0  0  0  0  0  0  0  0
  152.7025  145.3904  158.1675 H   0  0  0  0  0  0  0  0  0  0  0  0
  150.3929  145.8421  158.8353 H   0  0  0  0  0  0  0  0  0  0  0  0
  151.4181  145.7558  160.2625 H   0  0  0  0  0  0  0  0  0  0  0  0
  150.3468  144.4162  159.8567 H   0  0  0  0  0  0  0  0  0  0  0  0
  1  2  1  0  0  0  0
  1 25  1  0  0  0  0
  1 26  1  0  0  0  0
  1 27  1  0  0  0  0
  2 24  1  0  0  0  0
  2  3  1  0  0  0  0
  2 28  1  0  0  0  0
  3  4  1  0  0  0  0
  3 29  1  0  0  0  0
  3 30  1  0  0  0  0
  4  5  1  0  0  0  0
  4 21  1  0  0  0  0
  5 20  1  0  0  0  0
  5  6  2  0  0  0  0
  6  7  1  0  0  0  0
  6 31  1  0  0  0  0
  7  8  2  0  0  0  0
  7 32  1  0  0  0  0
  8  9  1  0  0  0  0
  8 19  1  0  0  0  0
  9 10  1  0  0  0  0
  9 33  1  0  0  0  0
 10 11  2  0  0  0  0
 10 12  1  0  0  0  0
 12 13  1  0  0  0  0
 12 34  1  0  0  0  0
 13 14  1  0  0  0  0
 13 35  1  0  0  0  0
 13 36  1  0  0  0  0
 14 18  1  0  0  0  0
 14 15  1  0  0  0  0
 14 37  1  0  0  0  0
 15 16  1  0  0  0  0
 15 38  1  0  0  0  0
 15 39  1  0  0  0  0
 16 17  1  0  0  0  0
 16 40  1  0  0  0  0
 16 41  1  0  0  0  0
 17 18  1  0  0  0  0
 17 42  1  0  0  0  0
 17 43  1  0  0  0  0
 19 20  2  0  0  0  0
 19 44  1  0  0  0  0
 21 22  1  0  0  0  0
 21 45  1  0  0  0  0
 21 46  1  0  0  0  0
 22 23  1  0  0  0  0
 22 24  1  0  0  0  0
 22 47  1  0  0  0  0
 23 48  1  0  0  0  0
 23 49  1  0  0  0  0
 23 50  1  0  0  0  0
M  END
> <s_m_source_file>
AV-unprocessed.smi

> <i_m_source_file_index>
2034

> <i_lp_mmshare_version>
43012

> <i_f3d_flags>
0

> <s_epik_input>
W0NIM11bQ0BASF0xW0NIMl1OKFtDSDJdW0NASF0oTzEpW0NIM10pYzJbY0hdW2NIXWMoW2NIXW4yKVtOSF1DKD1PKVtOSF1bQ0gyXVtDQEBIXTNbQ0gyXVtDSDJdW0NIMl1PMw==

> <s_epik_cmdline>
J2VwaWtfcHl0aG9uJywgJy1waCcsICc3LjAnLCAnLXRuJywgJzgnLCAnLW1hJywgJzIwMCcsICctbWV0YWxfYmluZGluZycsICctaW1hZScsICc8aW5maWxlLm1hZT4nLCAnLW9tYWUnLCAnPG91dGZpbGUubWFlPic=

> <r_lp_tautomer_probability>
1

> <r_epik_Ionization_Penalty>
0.00268225

> <r_epik_Ionization_Penalty_Charging>
0

> <r_epik_Ionization_Penalty_Neutral>
0.00268225

> <r_epik_State_Penalty>
0.00184408

> <r_epik_Charging_Adjusted_Penalty>
0.00184408

> <i_epik_Tot_Q>
0

> <i_epik_Tot_abs_Q>
0

> <r_epik_Metal_State_Penalty>
-0

> <b_epik_Metal_Only>
0

> <s_lp_Force_Field>
OPLS_2005

> <r_lp_Energy>
37.53

> <b_lp_Chiralities_Consistent>
1

> <s_lp_Variant>
AV-unprocessed.smi:2034-3

> <Gold.Version>
5.8.1

> <Gold.Id.Protein>
6NUR|6NUR_protein|mol2

> <Gold.PLP.Fitness>
49.4385

> <Gold.PLP.PLP>
-48.8093

> <Gold.PLP.part.hbond>
-3.0000

> <Gold.PLP.part.metal>
0.0000

> <Gold.PLP.part.buried>
-3.1338

> <Gold.PLP.part.nonpolar>
-43.3013

> <Gold.PLP.part.repulsive>
0.6404

> <Gold.PLP.ligand.clash>
0.0000

> <Gold.PLP.ligand.torsion>
1.2478

> <Gold.PLP.Chemscore.Hbond>
1.0000

> <Gold.PLP.Chemscore.CHOScore>
0.0000

> <Gold.PLP.Chemscore.Metal>
0.0000

> <Gold.Chemscore.Hbonds>
donor molecule, donor type, donor heavy atom, donor atom, acceptor molecule, acceptor atom, score
      L1  H    12    34       P1  7948  1.00

> <Gold.PLP.Chemscore.Internal.Correction>
0.1249

> <Gold.Rescore>
     Score         DG    S(hbond)    S(metal)    S(lipo)     H(rot)  DE(clash)    DE(int)     intcor
     15.93     -19.20       0.98        0.00     119.16       1.37       0.65       2.62       ----

> <Gold.Chemscore.Fitness>
15.9305

> <Gold.Chemscore.DG>
-19.2022

> <Gold.Chemscore.ZeroCoef>
-5.4800

> <Gold.Chemscore.Hbond>
0.9817

> <Gold.Chemscore.Metal>
0.0000

> <Gold.Chemscore.Lipo>
119.1551

> <Gold.Chemscore.Internal_Hbond>
0.0000

> <Gold.Chemscore.DEClash>
0.6481

> <Gold.Chemscore.DEInternal>
2.6236

> <Gold.Chemscore.Rot>
1.3663

> <Gold.Chemscore.Internal.Correction>
   9.000000E+99

> <Gold.Chemscore.Hbonds>
donor molecule, donor type, donor heavy atom, donor atom, acceptor molecule, acceptor atom, score
      L1  H    12    34       P1  7948  0.95

> <Gold.Chemscore.Hbond.Weighted>
-3.2788

> <Gold.Chemscore.Metal.Weighted>
-0.0000

> <Gold.Chemscore.Lipo.Weighted>
-13.9411

> <Gold.Chemscore.Internal_Hbond.Weighted>
0.0000

> <Gold.Chemscore.DEClash.Weighted>
0.6481

> <Gold.Chemscore.DEInternal.Weighted>
2.6236

> <Gold.Chemscore.Rot.Weighted>
3.4977

> <Gold.Chemscore.Internal.Correction.Weighted>
   9.000000E+99

> <Gold.Protein.RotatedTorsions>
[ 6907 6896 6895 6894 ] final   47.16 input  -60.11 | X-H torsion
[ 7974 7965 7964 7962 ] final   61.75 input  175.53 | X-H torsion
[ 8008 7997 7996 7995 ] final   24.10 input   59.86 | X-H torsion
[ 10167 10162 10161 10158 ] final   55.27 input  -65.29 | X-H torsion
[ 10718 10713 10712 10709 ] final -174.67 input   66.30 | X-H torsion
[ 10763 10752 10751 10750 ] final   32.58 input  -60.55 | X-H torsion
[ 11005 11000 10999 10996 ] final   -9.44 input  -57.11 | X-H torsion

> <Gold.Protein.ActiveResidues>
 VAL166  LYS551  ARG553  GLY616  TRP617  ASP618  TYR619  PRO620  LYS621  CYS622 
 ASP623  PHE694  ASN695  SER759  ASP760  ASP761  ALA762  ILE779  LEU786  VAL792 
 PHE793  MET794  SER795  GLU796  ALA797  LYS798  CYS799  TRP800  GLU811  SER814 

> <Gold.Protein.RotatedAtoms>
  152.2648  134.7995  160.0424 H   0  0  0  0  0  0  0  0  0  0  0  0  # atno 6907 bound_to 6896
  151.8629  133.3455  159.3718 H   0  0  0  0  0  0  0  0  0  0  0  0  # atno 6908 bound_to 6896
  150.7130  134.5116  159.5654 H   0  0  0  0  0  0  0  0  0  0  0  0  # atno 6909 bound_to 6896
  145.8812  139.3444  143.0705 H   0  0  0  0  0  0  0  0  0  0  0  0  # atno 7974 bound_to 7965
  154.9911  140.3114  155.4906 H   0  0  0  0  0  0  0  0  0  0  0  0  # atno 8008 bound_to 7997
  156.2939  140.2249  156.4956 H   0  0  0  0  0  0  0  0  0  0  0  0  # atno 8009 bound_to 7997
  154.7703  140.0453  157.1034 H   0  0  0  0  0  0  0  0  0  0  0  0  # atno 8010 bound_to 7997
  140.2212  144.3786  150.6450 H   0  0  0  0  0  0  0  0  0  0  0  0  # atno 10167 bound_to 10162
  156.7886  130.9509  151.3120 H   0  0  0  0  0  0  0  0  0  0  0  0  # atno 10718 bound_to 10713
  153.0255  135.6409  154.1377 H   0  0  0  0  0  0  0  0  0  0  0  0  # atno 10763 bound_to 10752
  154.1106  135.2853  155.3233 H   0  0  0  0  0  0  0  0  0  0  0  0  # atno 10764 bound_to 10752
  154.6334  135.5485  153.7769 H   0  0  0  0  0  0  0  0  0  0  0  0  # atno 10765 bound_to 10752
  140.7341  133.8724  155.8916 H   0  0  0  0  0  0  0  0  0  0  0  0  # atno 11005 bound_to 11000
  145.9021  140.9236  143.0497 LP  0  0  0  0  0  0  0  0  0  0  0  0  # atno 17320 bound_to 7965
  144.6727  140.1047  143.7458 LP  0  0  0  0  0  0  0  0  0  0  0  0  # atno 17321 bound_to 7965
  140.6253  143.2180  151.6609 LP  0  0  0  0  0  0  0  0  0  0  0  0  # atno 17342 bound_to 10162
  139.5143  144.3414  152.0737 LP  0  0  0  0  0  0  0  0  0  0  0  0  # atno 17343 bound_to 10162
  157.6612  130.8967  149.9833 LP  0  0  0  0  0  0  0  0  0  0  0  0  # atno 17370 bound_to 10713
  156.1173  130.3647  149.9946 LP  0  0  0  0  0  0  0  0  0  0  0  0  # atno 17371 bound_to 10713
  140.9895  134.1298  157.4421 LP  0  0  0  0  0  0  0  0  0  0  0  0  # atno 17394 bound_to 11000
  139.8820  135.0036  156.6196 LP  0  0  0  0  0  0  0  0  0  0  0  0  # atno 17395 bound_to 11000

$$$$
