AV-unprocessed.smi:1502|AV-procd|sdf|6067|dock10
  -GOLD-   22720 6183D 1   1.00000     0.00000
 Structure written by MMmdl.
 40 41  0  0  0  0  0  0  0  0  1 V2000
  147.7101  142.1494  158.6472 O   0  0  0  0  0  0  0  0  0  0  0  0
  148.0927  141.6660  157.5823 C   0  0  0  0  0  0  0  0  0  0  0  0
  147.0465  141.1578  156.5740 C   0  0  0  0  0  0  0  0  0  0  0  0
  146.2717  142.2116  155.8972 N   0  0  0  0  0  0  0  0  0  0  0  0
  146.4956  142.2873  154.5335 N   0  0  0  0  0  0  0  0  0  0  0  0
  145.8829  143.1826  153.8385 C   0  0  0  0  0  0  0  0  0  0  0  0
  144.9582  144.1210  154.4348 C   0  0  0  0  0  0  0  0  0  0  0  0
  144.1661  145.3012  153.4515 Cl  0  0  0  0  0  0  0  0  0  0  0  0
  144.7429  144.0366  155.7717 C   0  0  0  0  0  0  0  0  0  0  0  0
  143.6518  145.1260  156.5568 Cl  0  0  0  0  0  0  0  0  0  0  0  0
  145.4245  143.0292  156.5961 C   0  0  0  0  0  0  0  0  0  0  0  0
  145.2633  142.9262  157.8124 O   0  0  0  0  0  0  0  0  0  0  0  0
  149.3923  141.5587  157.2552 N   0  0  0  0  0  0  0  0  0  0  0  0
  150.5246  141.9986  158.0666 C   0  0  0  0  0  0  0  0  0  0  0  0
  151.3425  143.0502  157.2814 C   0  0  0  0  0  0  0  0  0  0  0  0
  151.5218  144.4002  158.0018 C   0  0  0  0  0  0  0  0  0  0  0  0
  151.8913  144.3669  159.4998 C   0  0  0  0  0  0  0  0  0  0  0  0
  153.1011  143.4989  159.8880 C   0  0  0  0  0  0  0  0  0  0  0  0
  152.7705  142.0445  160.2893 C   0  0  0  0  0  0  0  0  0  0  0  0
  152.7366  141.0357  159.1277 C   0  0  0  0  0  0  0  0  0  0  0  0
  151.3561  140.7676  158.4932 C   0  0  0  0  0  0  0  0  0  0  0  0
  147.5681  140.5497  155.8327 H   0  0  0  0  0  0  0  0  0  0  0  0
  146.3750  140.4672  157.0874 H   0  0  0  0  0  0  0  0  0  0  0  0
  146.0292  143.2808  152.7628 H   0  0  0  0  0  0  0  0  0  0  0  0
  149.6140  141.1460  156.3609 H   0  0  0  0  0  0  0  0  0  0  0  0
  150.1108  142.4599  158.9623 H   0  0  0  0  0  0  0  0  0  0  0  0
  152.3206  142.6547  157.0119 H   0  0  0  0  0  0  0  0  0  0  0  0
  150.8710  143.2542  156.3185 H   0  0  0  0  0  0  0  0  0  0  0  0
  152.2761  144.9757  157.4643 H   0  0  0  0  0  0  0  0  0  0  0  0
  150.5968  144.9691  157.9010 H   0  0  0  0  0  0  0  0  0  0  0  0
  152.1144  145.3951  159.7873 H   0  0  0  0  0  0  0  0  0  0  0  0
  151.0286  144.0985  160.1090 H   0  0  0  0  0  0  0  0  0  0  0  0
  153.8711  143.5341  159.1169 H   0  0  0  0  0  0  0  0  0  0  0  0
  153.5539  143.9679  160.7627 H   0  0  0  0  0  0  0  0  0  0  0  0
  153.5637  141.7193  160.9637 H   0  0  0  0  0  0  0  0  0  0  0  0
  151.8560  141.9923  160.8812 H   0  0  0  0  0  0  0  0  0  0  0  0
  153.4652  141.3178  158.3681 H   0  0  0  0  0  0  0  0  0  0  0  0
  153.0972  140.0784  159.5059 H   0  0  0  0  0  0  0  0  0  0  0  0
  150.7636  140.1769  159.1931 H   0  0  0  0  0  0  0  0  0  0  0  0
  151.5119  140.1232  157.6269 H   0  0  0  0  0  0  0  0  0  0  0  0
  1  2  2  0  0  0  0
  2  3  1  0  0  0  0
  2 13  1  0  0  0  0
  3  4  1  0  0  0  0
  3 22  1  0  0  0  0
  3 23  1  0  0  0  0
  4 11  1  0  0  0  0
  4  5  1  0  0  0  0
  5  6  2  0  0  0  0
  6  7  1  0  0  0  0
  6 24  1  0  0  0  0
  7  8  1  0  0  0  0
  7  9  2  0  0  0  0
  9 10  1  0  0  0  0
  9 11  1  0  0  0  0
 11 12  2  0  0  0  0
 13 14  1  0  0  0  0
 13 25  1  0  0  0  0
 14 21  1  0  0  0  0
 14 15  1  0  0  0  0
 14 26  1  0  0  0  0
 15 16  1  0  0  0  0
 15 27  1  0  0  0  0
 15 28  1  0  0  0  0
 16 17  1  0  0  0  0
 16 29  1  0  0  0  0
 16 30  1  0  0  0  0
 17 18  1  0  0  0  0
 17 31  1  0  0  0  0
 17 32  1  0  0  0  0
 18 19  1  0  0  0  0
 18 33  1  0  0  0  0
 18 34  1  0  0  0  0
 19 20  1  0  0  0  0
 19 35  1  0  0  0  0
 19 36  1  0  0  0  0
 20 21  1  0  0  0  0
 20 37  1  0  0  0  0
 20 38  1  0  0  0  0
 21 39  1  0  0  0  0
 21 40  1  0  0  0  0
M  END
> <s_m_source_file>
AV-unprocessed.smi

> <i_m_source_file_index>
1502

> <i_lp_mmshare_version>
43012

> <i_f3d_flags>
0

> <s_epik_input>
Tz1jMWMoQ2wpYyhDbClbY0hdbm4xW0NIMl1DKD1PKVtOSF1bQ0hdMltDSDJdW0NIMl1bQ0gyXVtDSDJdW0NIMl1bQ0gyXVtDSDJdMg==

> <s_epik_cmdline>
J2VwaWtfcHl0aG9uJywgJy1waCcsICc3LjAnLCAnLXRuJywgJzgnLCAnLW1hJywgJzIwMCcsICctbWV0YWxfYmluZGluZycsICctaW1hZScsICc8aW5maWxlLm1hZT4nLCAnLW9tYWUnLCAnPG91dGZpbGUubWFlPic=

> <r_lp_tautomer_probability>
1

> <r_epik_Ionization_Penalty>
2.0245e-08

> <r_epik_Ionization_Penalty_Charging>
3.01779e-11

> <r_epik_Ionization_Penalty_Neutral>
2.02148e-08

> <r_epik_State_Penalty>
-0

> <r_epik_Charging_Adjusted_Penalty>
3.01779e-11

> <i_epik_Tot_Q>
0

> <i_epik_Tot_abs_Q>
0

> <r_epik_Metal_State_Penalty>
-0

> <b_epik_Metal_Only>
0

> <s_lp_Force_Field>
OPLS_2005

> <r_lp_Energy>
35.729

> <b_lp_Chiralities_Consistent>
1

> <s_lp_Variant>
AV-unprocessed.smi:1502-1

> <Gold.Version>
5.8.1

> <Gold.Id.Protein>
6NUR|6NUR_protein|mol2

> <Gold.PLP.Fitness>
42.0927

> <Gold.PLP.PLP>
-42.3963

> <Gold.PLP.part.hbond>
-0.6000

> <Gold.PLP.part.metal>
0.0000

> <Gold.PLP.part.buried>
-6.8996

> <Gold.PLP.part.nonpolar>
-35.3387

> <Gold.PLP.part.repulsive>
0.3933

> <Gold.PLP.ligand.clash>
0.0000

> <Gold.PLP.ligand.torsion>
0.1577

> <Gold.PLP.Chemscore.Hbond>
0.0000

> <Gold.PLP.Chemscore.CHOScore>
0.0000

> <Gold.PLP.Chemscore.Metal>
0.0000

> <Gold.PLP.Chemscore.Internal.Correction>
0.0119

> <Gold.Rescore>
     Score         DG    S(hbond)    S(metal)    S(lipo)     H(rot)  DE(clash)    DE(int)     intcor
     13.13     -15.13       0.00        0.00     114.98       1.49       0.34       1.65       ----

> <Gold.Chemscore.Fitness>
13.1305

> <Gold.Chemscore.DG>
-15.1267

> <Gold.Chemscore.ZeroCoef>
-5.4800

> <Gold.Chemscore.Hbond>
0.0000

> <Gold.Chemscore.Metal>
0.0000

> <Gold.Chemscore.Lipo>
114.9777

> <Gold.Chemscore.Internal_Hbond>
0.0000

> <Gold.Chemscore.DEClash>
0.3420

> <Gold.Chemscore.DEInternal>
1.6543

> <Gold.Chemscore.Rot>
1.4866

> <Gold.Chemscore.Internal.Correction>
   9.000000E+99

> <Gold.Chemscore.Hbond.Weighted>
-0.0000

> <Gold.Chemscore.Metal.Weighted>
-0.0000

> <Gold.Chemscore.Lipo.Weighted>
-13.4524

> <Gold.Chemscore.Internal_Hbond.Weighted>
0.0000

> <Gold.Chemscore.DEClash.Weighted>
0.3420

> <Gold.Chemscore.DEInternal.Weighted>
1.6543

> <Gold.Chemscore.Rot.Weighted>
3.8057

> <Gold.Chemscore.Internal.Correction.Weighted>
   9.000000E+99

> <Gold.Protein.RotatedTorsions>
[ 6907 6896 6895 6894 ] final  149.46 input  -60.11 | X-H torsion
[ 7974 7965 7964 7962 ] final   62.28 input  175.53 | X-H torsion
[ 8008 7997 7996 7995 ] final  -75.29 input   59.86 | X-H torsion
[ 10167 10162 10161 10158 ] final  124.22 input  -65.29 | X-H torsion
[ 10718 10713 10712 10709 ] final  105.49 input   66.30 | X-H torsion
[ 10763 10752 10751 10750 ] final   24.47 input  -60.55 | X-H torsion
[ 11005 11000 10999 10996 ] final  -47.43 input  -57.11 | X-H torsion

> <Gold.Protein.ActiveResidues>
 VAL166  LYS551  ARG553  GLY616  TRP617  ASP618  TYR619  PRO620  LYS621  CYS622 
 ASP623  PHE694  ASN695  SER759  ASP760  ASP761  ALA762  ILE779  LEU786  VAL792 
 PHE793  MET794  SER795  GLU796  ALA797  LYS798  CYS799  TRP800  GLU811  SER814 

> <Gold.Protein.RotatedAtoms>
  152.1277  133.4389  159.4705 H   0  0  0  0  0  0  0  0  0  0  0  0  # atno 6907 bound_to 6896
  150.6876  134.2459  159.4500 H   0  0  0  0  0  0  0  0  0  0  0  0  # atno 6908 bound_to 6896
  152.0340  134.9750  160.0623 H   0  0  0  0  0  0  0  0  0  0  0  0  # atno 6909 bound_to 6896
  145.8751  139.3404  143.0739 H   0  0  0  0  0  0  0  0  0  0  0  0  # atno 7974 bound_to 7965
  154.5404  140.0746  156.8500 H   0  0  0  0  0  0  0  0  0  0  0  0  # atno 8008 bound_to 7997
  155.3192  140.3395  155.4223 H   0  0  0  0  0  0  0  0  0  0  0  0  # atno 8009 bound_to 7997
  156.1869  140.1672  156.8154 H   0  0  0  0  0  0  0  0  0  0  0  0  # atno 8010 bound_to 7997
  139.5754  144.6961  151.3667 H   0  0  0  0  0  0  0  0  0  0  0  0  # atno 10167 bound_to 10162
  157.6703  131.0829  150.5864 H   0  0  0  0  0  0  0  0  0  0  0  0  # atno 10718 bound_to 10713
  153.0761  135.6604  154.0142 H   0  0  0  0  0  0  0  0  0  0  0  0  # atno 10763 bound_to 10752
  153.9775  135.2958  155.3424 H   0  0  0  0  0  0  0  0  0  0  0  0  # atno 10764 bound_to 10752
  154.7150  135.5189  153.8794 H   0  0  0  0  0  0  0  0  0  0  0  0  # atno 10765 bound_to 10752
  141.0640  133.6700  156.3296 H   0  0  0  0  0  0  0  0  0  0  0  0  # atno 11005 bound_to 11000
  145.9090  140.9192  143.0463 LP  0  0  0  0  0  0  0  0  0  0  0  0  # atno 17320 bound_to 7965
  144.6726  140.1135  143.7454 LP  0  0  0  0  0  0  0  0  0  0  0  0  # atno 17321 bound_to 7965
  140.7037  143.7568  150.7446 LP  0  0  0  0  0  0  0  0  0  0  0  0  # atno 17342 bound_to 10162
  140.1086  143.4720  152.2383 LP  0  0  0  0  0  0  0  0  0  0  0  0  # atno 17343 bound_to 10162
  156.6164  130.4394  149.5839 LP  0  0  0  0  0  0  0  0  0  0  0  0  # atno 17370 bound_to 10713
  156.2390  130.6839  151.1537 LP  0  0  0  0  0  0  0  0  0  0  0  0  # atno 17371 bound_to 10713
  140.5811  134.5744  157.5480 LP  0  0  0  0  0  0  0  0  0  0  0  0  # atno 17394 bound_to 11000
  139.9459  134.7703  156.0564 LP  0  0  0  0  0  0  0  0  0  0  0  0  # atno 17395 bound_to 11000

$$$$
