AV-unprocessed.smi:1692|AV-procd|sdf|6779|dock9
  -GOLD-   22720 7543D 1   1.00000     0.00000
 Structure written by MMmdl.
 46 47  0  0  0  0  0  0  0  0  2 V2000
  144.4506  137.0385  156.2543 C   0  0  0  0  0  0  0  0  0  0  0  0
  144.5527  137.5993  154.8315 C   0  0  1  0  0  0  0  0  0  0  0  0
  145.8330  138.4304  154.6247 C   0  0  0  0  0  0  0  0  0  0  0  0
  145.9330  138.8918  153.2198 N   0  3  1  0  0  0  0  0  0  0  0  0
  147.1201  139.7525  152.9891 C   0  0  0  0  0  0  0  0  0  0  0  0
  147.4770  140.6033  154.2195 C   0  0  0  0  0  0  0  0  0  0  0  0
  148.6127  141.5990  153.9296 C   0  0  0  0  0  0  0  0  0  0  0  0
  149.0685  142.2678  155.1430 N   0  0  0  0  0  0  0  0  0  0  0  0
  150.0642  141.8348  155.9304 C   0  0  0  0  0  0  0  0  0  0  0  0
  150.7161  140.8163  155.6970 O   0  0  0  0  0  0  0  0  0  0  0  0
  150.2460  142.6530  156.9819 N   0  0  0  0  0  0  0  0  0  0  0  0
  151.1907  142.5310  158.0357 C   0  0  0  0  0  0  0  0  0  0  0  0
  151.6346  143.7546  158.5865 C   0  0  0  0  0  0  0  0  0  0  0  0
  152.5710  143.7417  159.6385 C   0  0  0  0  0  0  0  0  0  0  0  0
  153.0387  142.5039  160.1145 C   0  0  0  0  0  0  0  0  0  0  0  0
  152.5460  141.3325  159.5107 C   0  0  0  0  0  0  0  0  0  0  0  0
  151.6499  141.3425  158.5013 N   0  0  0  0  0  0  0  0  0  0  0  0
  145.8475  137.7367  152.2925 C   0  0  0  0  0  0  0  0  0  0  0  0
  144.5672  136.9228  152.5609 C   0  0  1  0  0  0  0  0  0  0  0  0
  144.4788  135.6740  151.6766 C   0  0  0  0  0  0  0  0  0  0  0  0
  144.5578  136.5047  153.9217 O   0  0  0  0  0  0  0  0  0  0  0  0
  144.4358  137.8408  156.9924 H   0  0  0  0  0  0  0  0  0  0  0  0
  145.2942  136.3873  156.4841 H   0  0  0  0  0  0  0  0  0  0  0  0
  143.5375  136.4559  156.3790 H   0  0  0  0  0  0  0  0  0  0  0  0
  143.6758  138.2207  154.6406 H   0  0  0  0  0  0  0  0  0  0  0  0
  145.8226  139.2909  155.2949 H   0  0  0  0  0  0  0  0  0  0  0  0
  146.7144  137.8380  154.8763 H   0  0  0  0  0  0  0  0  0  0  0  0
  147.9777  139.1191  152.7574 H   0  0  0  0  0  0  0  0  0  0  0  0
  146.9583  140.3841  152.1142 H   0  0  0  0  0  0  0  0  0  0  0  0
  146.6002  141.1530  154.5607 H   0  0  0  0  0  0  0  0  0  0  0  0
  147.7705  139.9488  155.0413 H   0  0  0  0  0  0  0  0  0  0  0  0
  149.4639  141.0760  153.4931 H   0  0  0  0  0  0  0  0  0  0  0  0
  148.2939  142.3401  153.1945 H   0  0  0  0  0  0  0  0  0  0  0  0
  148.5831  143.1123  155.4088 H   0  0  0  0  0  0  0  0  0  0  0  0
  149.6351  143.4543  157.0387 H   0  0  0  0  0  0  0  0  0  0  0  0
  151.2636  144.6969  158.2105 H   0  0  0  0  0  0  0  0  0  0  0  0
  152.9232  144.6656  160.0727 H   0  0  0  0  0  0  0  0  0  0  0  0
  153.7557  142.4534  160.9206 H   0  0  0  0  0  0  0  0  0  0  0  0
  152.8790  140.3617  159.8467 H   0  0  0  0  0  0  0  0  0  0  0  0
  145.8442  138.0795  151.2585 H   0  0  0  0  0  0  0  0  0  0  0  0
  146.7286  137.1045  152.4164 H   0  0  0  0  0  0  0  0  0  0  0  0
  143.6902  137.5443  152.3707 H   0  0  0  0  0  0  0  0  0  0  0  0
  144.4736  135.9406  150.6194 H   0  0  0  0  0  0  0  0  0  0  0  0
  143.5654  135.1152  151.8818 H   0  0  0  0  0  0  0  0  0  0  0  0
  145.3233  135.0061  151.8492 H   0  0  0  0  0  0  0  0  0  0  0  0
  145.1205  139.4681  153.0526 H   0  0  0  0  0  0  0  0  0  0  0  0
  1  2  1  0  0  0  0
  1 22  1  0  0  0  0
  1 23  1  0  0  0  0
  1 24  1  0  0  0  0
  2 21  1  0  0  0  0
  2  3  1  0  0  0  0
  2 25  1  0  0  0  0
  3  4  1  0  0  0  0
  3 26  1  0  0  0  0
  3 27  1  0  0  0  0
  4  5  1  0  0  0  0
  4 18  1  0  0  0  0
  4 46  1  0  0  0  0
  5  6  1  0  0  0  0
  5 28  1  0  0  0  0
  5 29  1  0  0  0  0
  6  7  1  0  0  0  0
  6 30  1  0  0  0  0
  6 31  1  0  0  0  0
  7  8  1  0  0  0  0
  7 32  1  0  0  0  0
  7 33  1  0  0  0  0
  8  9  1  0  0  0  0
  8 34  1  0  0  0  0
  9 10  2  0  0  0  0
  9 11  1  0  0  0  0
 11 12  1  0  0  0  0
 11 35  1  0  0  0  0
 12 17  1  0  0  0  0
 12 13  2  0  0  0  0
 13 14  1  0  0  0  0
 13 36  1  0  0  0  0
 14 15  2  0  0  0  0
 14 37  1  0  0  0  0
 15 16  1  0  0  0  0
 15 38  1  0  0  0  0
 16 17  2  0  0  0  0
 16 39  1  0  0  0  0
 18 19  1  0  0  0  0
 18 40  1  0  0  0  0
 18 41  1  0  0  0  0
 19 20  1  0  0  0  0
 19 21  1  0  0  0  0
 19 42  1  0  0  0  0
 20 43  1  0  0  0  0
 20 44  1  0  0  0  0
 20 45  1  0  0  0  0
M  CHG  1   4   1
M  END
> <s_m_source_file>
AV-unprocessed.smi

> <i_m_source_file_index>
1692

> <i_lp_mmshare_version>
43012

> <i_f3d_flags>
0

> <s_epik_input>
W0NIM11bQ0BASF0xW0NIMl1OKFtDSDJdW0NASF0oTzEpW0NIM10pW0NIMl1bQ0gyXVtDSDJdW05IXUMoPU8pW05IXWMyW2NIXVtjSF1bY0hdW2NIXW4y

> <s_epik_cmdline>
J2VwaWtfcHl0aG9uJywgJy1waCcsICc3LjAnLCAnLXRuJywgJzgnLCAnLW1hJywgJzIwMCcsICctbWV0YWxfYmluZGluZycsICctaW1hZScsICc8aW5maWxlLm1hZT4nLCAnLW9tYWUnLCAnPG91dGZpbGUubWFlPic=

> <r_epik_Ionization_Penalty>
0.270538

> <r_epik_Ionization_Penalty_Charging>
0.270496

> <r_epik_Ionization_Penalty_Neutral>
4.22978e-05

> <r_epik_State_Penalty>
0.262618

> <r_epik_Charging_Adjusted_Penalty>
0.533114

> <i_epik_Tot_Q>
1

> <i_epik_Tot_abs_Q>
1

> <r_epik_Metal_State_Penalty>
0.262618

> <b_epik_Metal_Only>
0

> <s_lp_Force_Field>
OPLS_2005

> <r_lp_Energy>
16.7861

> <b_lp_Chiralities_Consistent>
1

> <s_lp_Variant>
AV-unprocessed.smi:1692-2

> <Gold.Version>
5.8.1

> <Gold.Id.Protein>
6NUR|6NUR_protein|mol2

> <Gold.PLP.Fitness>
47.5466

> <Gold.PLP.PLP>
-35.4536

> <Gold.PLP.part.hbond>
-4.0000

> <Gold.PLP.part.metal>
0.0000

> <Gold.PLP.part.buried>
-0.6933

> <Gold.PLP.part.nonpolar>
-30.4400

> <Gold.PLP.part.repulsive>
0.3691

> <Gold.PLP.ligand.clash>
0.0000

> <Gold.PLP.ligand.torsion>
0.6681

> <Gold.PLP.Chemscore.Hbond>
4.4655

> <Gold.PLP.Chemscore.CHOScore>
0.0000

> <Gold.PLP.Chemscore.Metal>
0.0000

> <Gold.Chemscore.Hbonds>
donor molecule, donor type, donor heavy atom, donor atom, acceptor molecule, acceptor atom, score
      L1  H     4    46       P1 10175  2.00
      L1  H     8    34       P1  8028  0.82
      L1  H    11    35       P1  8028  0.69
      P1  H  7989  7998       L1    10  0.12

> <Gold.PLP.Chemscore.Internal.Correction>
0.0328

> <Gold.Rescore>
     Score         DG    S(hbond)    S(metal)    S(lipo)     H(rot)  DE(clash)    DE(int)     intcor
     19.68     -22.45       3.37        0.00      87.85       1.78       1.44       1.33       ----

> <Gold.Chemscore.Fitness>
19.6814

> <Gold.Chemscore.DG>
-22.4482

> <Gold.Chemscore.ZeroCoef>
-5.4800

> <Gold.Chemscore.Hbond>
3.3681

> <Gold.Chemscore.Metal>
0.0000

> <Gold.Chemscore.Lipo>
87.8540

> <Gold.Chemscore.Internal_Hbond>
0.0000

> <Gold.Chemscore.DEClash>
1.4369

> <Gold.Chemscore.DEInternal>
1.3299

> <Gold.Chemscore.Rot>
1.7814

> <Gold.Chemscore.Internal.Correction>
   9.000000E+99

> <Gold.Chemscore.Hbonds>
donor molecule, donor type, donor heavy atom, donor atom, acceptor molecule, acceptor atom, score
      L1  H     4    46       P1 10175  1.00
      L1  H     8    34       P1  8028  0.81
      L1  H    11    35       P1  8028  0.63
      P1  H  7989  7998       L1    10  0.09

> <Gold.Chemscore.Hbond.Weighted>
-11.2496

> <Gold.Chemscore.Metal.Weighted>
-0.0000

> <Gold.Chemscore.Lipo.Weighted>
-10.2789

> <Gold.Chemscore.Internal_Hbond.Weighted>
0.0000

> <Gold.Chemscore.DEClash.Weighted>
1.4369

> <Gold.Chemscore.DEInternal.Weighted>
1.3299

> <Gold.Chemscore.Rot.Weighted>
4.5603

> <Gold.Chemscore.Internal.Correction.Weighted>
   9.000000E+99

> <Gold.Protein.RotatedTorsions>
[ 6907 6896 6895 6894 ] final   81.28 input  -60.11 | X-H torsion
[ 7974 7965 7964 7962 ] final   17.44 input  175.53 | X-H torsion
[ 8008 7997 7996 7995 ] final  -78.91 input   59.86 | X-H torsion
[ 10167 10162 10161 10158 ] final  160.03 input  -65.29 | X-H torsion
[ 10718 10713 10712 10709 ] final    8.06 input   66.30 | X-H torsion
[ 10763 10752 10751 10750 ] final  101.77 input  -60.55 | X-H torsion
[ 11005 11000 10999 10996 ] final  -14.86 input  -57.11 | X-H torsion

> <Gold.Protein.ActiveResidues>
 VAL166  LYS551  ARG553  GLY616  TRP617  ASP618  TYR619  PRO620  LYS621  CYS622 
 ASP623  PHE694  ASN695  SER759  ASP760  ASP761  ALA762  ILE779  LEU786  VAL792 
 PHE793  MET794  SER795  GLU796  ALA797  LYS798  CYS799  TRP800  GLU811  SER814 

> <Gold.Protein.RotatedAtoms>
  152.5263  134.3229  159.9154 H   0  0  0  0  0  0  0  0  0  0  0  0  # atno 6907 bound_to 6896
  151.3178  133.4046  159.2659 H   0  0  0  0  0  0  0  0  0  0  0  0  # atno 6908 bound_to 6896
  150.9984  134.9319  159.7997 H   0  0  0  0  0  0  0  0  0  0  0  0  # atno 6909 bound_to 6896
  146.2218  139.8601  142.8606 H   0  0  0  0  0  0  0  0  0  0  0  0  # atno 7974 bound_to 7965
  154.5734  140.0687  156.8998 H   0  0  0  0  0  0  0  0  0  0  0  0  # atno 8008 bound_to 7997
  155.2593  140.3357  155.4256 H   0  0  0  0  0  0  0  0  0  0  0  0  # atno 8009 bound_to 7997
  156.2136  140.1769  156.7626 H   0  0  0  0  0  0  0  0  0  0  0  0  # atno 8010 bound_to 7997
  139.4836  144.4673  151.8623 H   0  0  0  0  0  0  0  0  0  0  0  0  # atno 10167 bound_to 10162
  156.9460  130.5879  149.5654 H   0  0  0  0  0  0  0  0  0  0  0  0  # atno 10718 bound_to 10713
  153.3310  135.4033  155.1495 H   0  0  0  0  0  0  0  0  0  0  0  0  # atno 10763 bound_to 10752
  154.8623  135.3610  154.5471 H   0  0  0  0  0  0  0  0  0  0  0  0  # atno 10764 bound_to 10752
  153.5910  135.7074  153.5482 H   0  0  0  0  0  0  0  0  0  0  0  0  # atno 10765 bound_to 10752
  140.7908  133.8290  155.9377 H   0  0  0  0  0  0  0  0  0  0  0  0  # atno 11005 bound_to 11000
  145.2713  141.0109  143.3770 LP  0  0  0  0  0  0  0  0  0  0  0  0  # atno 17320 bound_to 7965
  144.9221  139.4399  143.6536 LP  0  0  0  0  0  0  0  0  0  0  0  0  # atno 17321 bound_to 7965
  140.4140  144.2332  150.5888 LP  0  0  0  0  0  0  0  0  0  0  0  0  # atno 17342 bound_to 10162
  140.4939  143.2339  151.8778 LP  0  0  0  0  0  0  0  0  0  0  0  0  # atno 17343 bound_to 10162
  156.0383  130.5469  150.8709 LP  0  0  0  0  0  0  0  0  0  0  0  0  # atno 17370 bound_to 10713
  157.5753  131.0946  150.9355 LP  0  0  0  0  0  0  0  0  0  0  0  0  # atno 17371 bound_to 10713
  140.9392  134.1923  157.4810 LP  0  0  0  0  0  0  0  0  0  0  0  0  # atno 17394 bound_to 11000
  139.8731  134.9865  156.5326 LP  0  0  0  0  0  0  0  0  0  0  0  0  # atno 17395 bound_to 11000

$$$$
