AV-unprocessed.smi:1843|AV-procd|sdf|7506|dock3
  -GOLD-   22720 9213D 1   1.00000     0.00000
 Structure written by MMmdl.
 36 38  0  0  0  0  0  0  0  0  2 V2000
  154.5469  141.2033  160.7755 O   0  0  0  0  0  0  0  0  0  0  0  0
  154.0462  140.8603  159.7020 C   0  0  0  0  0  0  0  0  0  0  0  0
  154.1364  139.6380  159.1303 N   0  5  0  0  0  0  0  0  0  0  0  0
  154.0380  138.5331  159.8880 C   0  0  0  0  0  0  0  0  0  0  0  0
  153.6910  137.3422  159.3798 N   0  0  0  0  0  0  0  0  0  0  0  0
  153.6529  136.3342  160.3322 N   0  0  0  0  0  0  0  0  0  0  0  0
  153.9834  136.7767  161.5477 C   0  0  0  0  0  0  0  0  0  0  0  0
  154.0187  135.8821  162.7414 C   0  0  0  0  0  0  0  0  0  0  0  0
  154.0994  136.4379  164.1465 C   0  0  0  0  0  0  0  0  0  0  0  0
  155.2851  135.7228  163.5510 C   0  0  0  0  0  0  0  0  0  0  0  0
  154.3697  138.4887  161.6192 S   0  0  0  0  0  0  0  0  0  0  0  0
  153.3368  141.7409  158.9816 N   0  0  0  0  0  0  0  0  0  0  0  0
  153.0818  143.1369  159.3330 C   0  0  2  0  0  0  0  0  0  0  0  0
  152.4504  143.2313  160.7354 C   0  0  0  0  0  0  0  0  0  0  0  0
  152.1822  144.6932  161.1270 C   0  0  0  0  0  0  0  0  0  0  0  0
  151.3032  145.3996  160.0827 C   0  0  0  0  0  0  0  0  0  0  0  0
  151.9150  145.3036  158.6729 C   0  0  0  0  0  0  0  0  0  0  0  0
  152.2141  143.8477  158.2649 C   0  0  2  0  0  0  0  0  0  0  0  0
  150.9912  143.1613  158.0693 O   0  0  0  0  0  0  0  0  0  0  0  0
  153.4016  135.0007  162.5788 H   0  0  0  0  0  0  0  0  0  0  0  0
  154.1806  137.5159  164.2706 H   0  0  0  0  0  0  0  0  0  0  0  0
  153.5382  135.9210  164.9221 H   0  0  0  0  0  0  0  0  0  0  0  0
  155.5168  134.7297  163.9299 H   0  0  0  0  0  0  0  0  0  0  0  0
  156.1448  136.3280  163.2703 H   0  0  0  0  0  0  0  0  0  0  0  0
  152.9433  141.4136  158.1116 H   0  0  0  0  0  0  0  0  0  0  0  0
  154.0443  143.6500  159.3810 H   0  0  0  0  0  0  0  0  0  0  0  0
  151.5167  142.6681  160.7647 H   0  0  0  0  0  0  0  0  0  0  0  0
  153.1100  142.7713  161.4722 H   0  0  0  0  0  0  0  0  0  0  0  0
  151.7023  144.7333  162.1051 H   0  0  0  0  0  0  0  0  0  0  0  0
  153.1298  145.2241  161.2258 H   0  0  0  0  0  0  0  0  0  0  0  0
  150.3079  144.9534  160.0828 H   0  0  0  0  0  0  0  0  0  0  0  0
  151.1693  146.4462  160.3570 H   0  0  0  0  0  0  0  0  0  0  0  0
  151.2521  145.7717  157.9443 H   0  0  0  0  0  0  0  0  0  0  0  0
  152.8430  145.8763  158.6504 H   0  0  0  0  0  0  0  0  0  0  0  0
  152.7383  143.8519  157.3087 H   0  0  0  0  0  0  0  0  0  0  0  0
  151.1835  142.3280  157.6656 H   0  0  0  0  0  0  0  0  0  0  0  0
  1  2  2  0  0  0  0
  2  3  1  0  0  0  0
  2 12  1  0  0  0  0
  3  4  1  0  0  0  0
  4 11  1  0  0  0  0
  4  5  2  0  0  0  0
  5  6  1  0  0  0  0
  6  7  2  0  0  0  0
  7  8  1  0  0  0  0
  7 11  1  0  0  0  0
  8 10  1  0  0  0  0
  8  9  1  0  0  0  0
  8 20  1  0  0  0  0
  9 10  1  0  0  0  0
  9 21  1  0  0  0  0
  9 22  1  0  0  0  0
 10 23  1  0  0  0  0
 10 24  1  0  0  0  0
 12 13  1  0  0  0  0
 12 25  1  0  0  0  0
 13 18  1  0  0  0  0
 13 14  1  0  0  0  0
 13 26  1  0  0  0  0
 14 15  1  0  0  0  0
 14 27  1  0  0  0  0
 14 28  1  0  0  0  0
 15 16  1  0  0  0  0
 15 29  1  0  0  0  0
 15 30  1  0  0  0  0
 16 17  1  0  0  0  0
 16 31  1  0  0  0  0
 16 32  1  0  0  0  0
 17 18  1  0  0  0  0
 17 33  1  0  0  0  0
 17 34  1  0  0  0  0
 18 19  1  0  0  0  0
 18 35  1  0  0  0  0
 19 36  1  0  0  0  0
M  CHG  1   3  -1
M  END
> <s_m_source_file>
AV-unprocessed.smi

> <i_m_source_file_index>
1843

> <i_lp_mmshare_version>
43012

> <i_f3d_flags>
0

> <s_epik_input>
W09IXVtDQEBIXTFbQ0gyXVtDSDJdW0NIMl1bQ0gyXVtDQEhdMVtOSF1DKD1PKVtOSF1jMm5uYyhzMilbQ0hdM1tDSDJdW0NIMl0z

> <s_epik_cmdline>
J2VwaWtfcHl0aG9uJywgJy1waCcsICc3LjAnLCAnLXRuJywgJzgnLCAnLW1hJywgJzIwMCcsICctbWV0YWxfYmluZGluZycsICctaW1hZScsICc8aW5maWxlLm1hZT4nLCAnLW9tYWUnLCAnPG91dGZpbGUubWFlPic=

> <r_lp_tautomer_probability>
1

> <r_epik_Ionization_Penalty>
4.7996

> <r_epik_Ionization_Penalty_Charging>
4.64516

> <r_epik_Ionization_Penalty_Neutral>
0.154442

> <r_epik_State_Penalty>
4.64493

> <r_epik_Charging_Adjusted_Penalty>
9.29009

> <i_epik_Tot_Q>
-1

> <i_epik_Tot_abs_Q>
1

> <r_epik_Metal_State_Penalty>
0.896144

> <b_epik_Metal_Only>
1

> <s_lp_Force_Field>
OPLS_2005

> <r_lp_Energy>
9.09011

> <b_lp_Chiralities_Consistent>
1

> <s_lp_Variant>
AV-unprocessed.smi:1843-7

> <Gold.Version>
5.8.1

> <Gold.Id.Protein>
6NUR|6NUR_protein|mol2

> <Gold.PLP.Fitness>
48.1995

> <Gold.PLP.PLP>
-40.2789

> <Gold.PLP.part.hbond>
-2.4118

> <Gold.PLP.part.metal>
0.0000

> <Gold.PLP.part.buried>
-3.6359

> <Gold.PLP.part.nonpolar>
-33.5249

> <Gold.PLP.part.repulsive>
0.0857

> <Gold.PLP.ligand.clash>
0.0000

> <Gold.PLP.ligand.torsion>
0.6011

> <Gold.PLP.Chemscore.Hbond>
2.9825

> <Gold.PLP.Chemscore.CHOScore>
0.0000

> <Gold.PLP.Chemscore.Metal>
0.0000

> <Gold.Chemscore.Hbonds>
donor molecule, donor type, donor heavy atom, donor atom, acceptor molecule, acceptor atom, score
      P1  H  6896  6907       L1     6  1.00
      P1  H  7997  8009       L1     3  1.85

> <Gold.PLP.Chemscore.Internal.Correction>
0.1754

> <Gold.Rescore>
     Score         DG    S(hbond)    S(metal)    S(lipo)     H(rot)  DE(clash)    DE(int)     intcor
     15.08     -18.50       1.56        0.00     104.21       1.72       0.30       3.12       ----

> <Gold.Chemscore.Fitness>
15.0791

> <Gold.Chemscore.DG>
-18.4955

> <Gold.Chemscore.ZeroCoef>
-5.4800

> <Gold.Chemscore.Hbond>
1.5617

> <Gold.Chemscore.Metal>
0.0000

> <Gold.Chemscore.Lipo>
104.2081

> <Gold.Chemscore.Internal_Hbond>
0.0000

> <Gold.Chemscore.DEClash>
0.2990

> <Gold.Chemscore.DEInternal>
3.1174

> <Gold.Chemscore.Rot>
1.7160

> <Gold.Chemscore.Internal.Correction>
   9.000000E+99

> <Gold.Chemscore.Hbonds>
donor molecule, donor type, donor heavy atom, donor atom, acceptor molecule, acceptor atom, score
      P1  H  6896  6907       L1     6  0.88
      P1  H  7997  8009       L1     3  0.35

> <Gold.Chemscore.Hbond.Weighted>
-5.2161

> <Gold.Chemscore.Metal.Weighted>
-0.0000

> <Gold.Chemscore.Lipo.Weighted>
-12.1923

> <Gold.Chemscore.Internal_Hbond.Weighted>
0.0000

> <Gold.Chemscore.DEClash.Weighted>
0.2990

> <Gold.Chemscore.DEInternal.Weighted>
3.1174

> <Gold.Chemscore.Rot.Weighted>
4.3930

> <Gold.Chemscore.Internal.Correction.Weighted>
   9.000000E+99

> <Gold.Protein.RotatedTorsions>
[ 6907 6896 6895 6894 ] final   44.47 input  -60.11 | X-H torsion
[ 7974 7965 7964 7962 ] final  -76.19 input  175.53 | X-H torsion
[ 8008 7997 7996 7995 ] final  123.21 input   59.86 | X-H torsion
[ 10167 10162 10161 10158 ] final   18.59 input  -65.29 | X-H torsion
[ 10718 10713 10712 10709 ] final  -98.21 input   66.30 | X-H torsion
[ 10763 10752 10751 10750 ] final  135.98 input  -60.55 | X-H torsion
[ 11005 11000 10999 10996 ] final   95.14 input  -57.11 | X-H torsion

> <Gold.Protein.ActiveResidues>
 VAL166  LYS551  ARG553  GLY616  TRP617  ASP618  TYR619  PRO620  LYS621  CYS622 
 ASP623  PHE694  ASN695  SER759  ASP760  ASP761  ALA762  ILE779  LEU786  VAL792 
 PHE793  MET794  SER795  GLU796  ALA797  LYS798  CYS799  TRP800  GLU811  SER814 

> <Gold.Protein.RotatedAtoms>
  152.2329  134.8304  160.0470 H   0  0  0  0  0  0  0  0  0  0  0  0  # atno 6907 bound_to 6896
  151.9047  133.3541  159.3851 H   0  0  0  0  0  0  0  0  0  0  0  0  # atno 6908 bound_to 6896
  150.7031  134.4718  159.5473 H   0  0  0  0  0  0  0  0  0  0  0  0  # atno 6909 bound_to 6896
  145.6162  140.9374  143.1163 H   0  0  0  0  0  0  0  0  0  0  0  0  # atno 7974 bound_to 7965
  156.2757  140.2768  156.1591 H   0  0  0  0  0  0  0  0  0  0  0  0  # atno 8008 bound_to 7997
  155.0773  140.0387  157.2645 H   0  0  0  0  0  0  0  0  0  0  0  0  # atno 8009 bound_to 7997
  154.6992  140.2645  155.6742 H   0  0  0  0  0  0  0  0  0  0  0  0  # atno 8010 bound_to 7997
  140.5642  143.9281  150.6664 H   0  0  0  0  0  0  0  0  0  0  0  0  # atno 10167 bound_to 10162
  156.0102  130.5228  150.6489 H   0  0  0  0  0  0  0  0  0  0  0  0  # atno 10718 bound_to 10713
  153.8490  135.3081  155.3431 H   0  0  0  0  0  0  0  0  0  0  0  0  # atno 10763 bound_to 10752
  154.7899  135.4788  154.0033 H   0  0  0  0  0  0  0  0  0  0  0  0  # atno 10764 bound_to 10752
  153.1530  135.6846  153.8947 H   0  0  0  0  0  0  0  0  0  0  0  0  # atno 10765 bound_to 10752
  139.8792  134.8883  156.3967 H   0  0  0  0  0  0  0  0  0  0  0  0  # atno 11005 bound_to 11000
  144.7250  139.7906  143.7368 LP  0  0  0  0  0  0  0  0  0  0  0  0  # atno 17320 bound_to 7965
  146.1467  139.4538  143.0075 LP  0  0  0  0  0  0  0  0  0  0  0  0  # atno 17321 bound_to 7965
  140.2740  143.3436  152.1212 LP  0  0  0  0  0  0  0  0  0  0  0  0  # atno 17342 bound_to 10162
  139.5085  144.6850  151.5910 LP  0  0  0  0  0  0  0  0  0  0  0  0  # atno 17343 bound_to 10162
  157.4254  131.0842  151.1090 LP  0  0  0  0  0  0  0  0  0  0  0  0  # atno 17370 bound_to 10713
  157.1679  130.6254  149.5631 LP  0  0  0  0  0  0  0  0  0  0  0  0  # atno 17371 bound_to 10713
  140.9295  133.7589  156.0007 LP  0  0  0  0  0  0  0  0  0  0  0  0  # atno 17394 bound_to 11000
  140.8347  134.3137  157.5336 LP  0  0  0  0  0  0  0  0  0  0  0  0  # atno 17395 bound_to 11000

$$$$
