AV-unprocessed.smi:2014|AV-procd|sdf|8162|dock10
  -GOLD-   2272010413D 1   1.00000     0.00000
 Structure written by MMmdl.
 46 48  0  0  0  0  0  0  0  0  1 V2000
  147.0786  133.2148  151.8586 C   0  0  0  0  0  0  0  0  0  0  0  0
  147.7155  133.3290  153.2508 C   0  0  2  0  0  0  0  0  0  0  0  0
  147.2673  134.6150  153.9722 C   0  0  0  0  0  0  0  0  0  0  0  0
  147.9156  134.7468  155.3634 C   0  0  0  0  0  0  0  0  0  0  0  0
  149.4532  134.6683  155.2988 C   0  0  2  0  0  0  0  0  0  0  0  0
  149.9848  135.8660  154.6518 N   0  0  0  0  0  0  0  0  0  0  0  0
  150.7758  136.7842  155.2263 C   0  0  0  0  0  0  0  0  0  0  0  0
  151.1110  136.7470  156.4103 O   0  0  0  0  0  0  0  0  0  0  0  0
  151.2544  137.9241  154.3180 C   0  0  0  0  0  0  0  0  0  0  0  0
  150.7896  139.2452  154.7917 N   0  0  0  0  0  0  0  0  0  0  0  0
  151.5291  139.8839  155.8203 C   0  0  0  0  0  0  0  0  0  0  0  0
  152.5451  139.3654  156.2876 O   0  0  0  0  0  0  0  0  0  0  0  0
  150.9944  141.1638  156.2783 C   0  0  0  0  0  0  0  0  0  0  0  0
  151.6926  141.8198  157.3337 C   0  0  0  0  0  0  0  0  0  0  0  0
  152.2491  142.3387  158.2060 N   0  0  0  0  0  0  0  0  0  0  0  0
  149.8833  141.6909  155.7236 C   0  0  0  0  0  0  0  0  0  0  0  0
  149.2018  141.0726  154.6979 N   0  0  0  0  0  0  0  0  0  0  0  0
  147.9380  141.5709  154.2325 C   0  0  0  0  0  0  0  0  0  0  0  0
  146.8622  141.9750  155.2219 C   0  0  0  0  0  0  0  0  0  0  0  0
  146.7026  140.7147  154.4073 C   0  0  0  0  0  0  0  0  0  0  0  0
  149.6103  139.8010  154.2391 C   0  0  0  0  0  0  0  0  0  0  0  0
  148.9559  139.1883  153.3919 O   0  0  0  0  0  0  0  0  0  0  0  0
  149.8934  133.3815  154.5665 C   0  0  0  0  0  0  0  0  0  0  0  0
  149.2527  133.2602  153.1729 C   0  0  0  0  0  0  0  0  0  0  0  0
  147.3888  134.0363  151.2119 H   0  0  0  0  0  0  0  0  0  0  0  0
  145.9903  133.2326  151.9216 H   0  0  0  0  0  0  0  0  0  0  0  0
  147.3639  132.2819  151.3717 H   0  0  0  0  0  0  0  0  0  0  0  0
  147.3718  132.4774  153.8400 H   0  0  0  0  0  0  0  0  0  0  0  0
  147.5215  135.4849  153.3650 H   0  0  0  0  0  0  0  0  0  0  0  0
  146.1818  134.6228  154.0758 H   0  0  0  0  0  0  0  0  0  0  0  0
  147.6040  135.6808  155.8328 H   0  0  0  0  0  0  0  0  0  0  0  0
  147.5437  133.9478  156.0059 H   0  0  0  0  0  0  0  0  0  0  0  0
  149.8368  134.6418  156.3202 H   0  0  0  0  0  0  0  0  0  0  0  0
  149.7598  135.9866  153.6749 H   0  0  0  0  0  0  0  0  0  0  0  0
  152.3433  137.9095  154.2419 H   0  0  0  0  0  0  0  0  0  0  0  0
  150.9161  137.7138  153.3026 H   0  0  0  0  0  0  0  0  0  0  0  0
  149.5137  142.6369  156.0924 H   0  0  0  0  0  0  0  0  0  0  0  0
  147.9807  142.1580  153.3168 H   0  0  0  0  0  0  0  0  0  0  0  0
  147.0676  141.8572  156.2843 H   0  0  0  0  0  0  0  0  0  0  0  0
  146.2361  142.8256  154.9605 H   0  0  0  0  0  0  0  0  0  0  0  0
  145.9691  140.7242  153.6038 H   0  0  0  0  0  0  0  0  0  0  0  0
  146.8046  139.7671  154.9329 H   0  0  0  0  0  0  0  0  0  0  0  0
  150.9793  133.3361  154.4808 H   0  0  0  0  0  0  0  0  0  0  0  0
  149.6061  132.5164  155.1652 H   0  0  0  0  0  0  0  0  0  0  0  0
  149.5601  132.3206  152.7131 H   0  0  0  0  0  0  0  0  0  0  0  0
  149.6281  134.0538  152.5253 H   0  0  0  0  0  0  0  0  0  0  0  0
  1  2  1  0  0  0  0
  1 25  1  0  0  0  0
  1 26  1  0  0  0  0
  1 27  1  0  0  0  0
  2 24  1  0  0  0  0
  2  3  1  0  0  0  0
  2 28  1  0  0  0  0
  3  4  1  0  0  0  0
  3 29  1  0  0  0  0
  3 30  1  0  0  0  0
  4  5  1  0  0  0  0
  4 31  1  0  0  0  0
  4 32  1  0  0  0  0
  5  6  1  0  0  0  0
  5 23  1  0  0  0  0
  5 33  1  0  0  0  0
  6  7  1  0  0  0  0
  6 34  1  0  0  0  0
  7  8  2  0  0  0  0
  7  9  1  0  0  0  0
  9 10  1  0  0  0  0
  9 35  1  0  0  0  0
  9 36  1  0  0  0  0
 10 21  1  0  0  0  0
 10 11  1  0  0  0  0
 11 12  2  0  0  0  0
 11 13  1  0  0  0  0
 13 14  1  0  0  0  0
 13 16  2  0  0  0  0
 14 15  3  0  0  0  0
 16 17  1  0  0  0  0
 16 37  1  0  0  0  0
 17 18  1  0  0  0  0
 17 21  1  0  0  0  0
 18 20  1  0  0  0  0
 18 19  1  0  0  0  0
 18 38  1  0  0  0  0
 19 20  1  0  0  0  0
 19 39  1  0  0  0  0
 19 40  1  0  0  0  0
 20 41  1  0  0  0  0
 20 42  1  0  0  0  0
 21 22  2  0  0  0  0
 23 24  1  0  0  0  0
 23 43  1  0  0  0  0
 23 44  1  0  0  0  0
 24 45  1  0  0  0  0
 24 46  1  0  0  0  0
M  END
> <s_m_source_file>
AV-unprocessed.smi

> <i_m_source_file_index>
2014

> <i_lp_mmshare_version>
43012

> <i_f3d_flags>
0

> <s_epik_input>
W0NIM11bQ0BASF0xW0NIMl1bQ0gyXVtDQEhdKFtDSDJdW0NIMl0xKVtOSF1DKD1PKVtDSDJdbjJjKD1PKWMoQyNOKVtjSF1uKGMyPU8pW0NIXTNbQ0gyXVtDSDJdMw==

> <s_epik_cmdline>
J2VwaWtfcHl0aG9uJywgJy1waCcsICc3LjAnLCAnLXRuJywgJzgnLCAnLW1hJywgJzIwMCcsICctbWV0YWxfYmluZGluZycsICctaW1hZScsICc8aW5maWxlLm1hZT4nLCAnLW9tYWUnLCAnPG91dGZpbGUubWFlPic=

> <r_lp_tautomer_probability>
1

> <r_epik_Ionization_Penalty>
1.91358e-08

> <r_epik_Ionization_Penalty_Charging>
8.89021e-11

> <r_epik_Ionization_Penalty_Neutral>
1.90469e-08

> <r_epik_State_Penalty>
-0

> <r_epik_Charging_Adjusted_Penalty>
8.89021e-11

> <i_epik_Tot_Q>
0

> <i_epik_Tot_abs_Q>
0

> <r_epik_Metal_State_Penalty>
-0

> <b_epik_Metal_Only>
0

> <s_lp_Force_Field>
OPLS_2005

> <r_lp_Energy>
34.0364

> <b_lp_Chiralities_Consistent>
1

> <s_lp_Variant>
AV-unprocessed.smi:2014-2

> <Gold.Version>
5.8.1

> <Gold.Id.Protein>
6NUR|6NUR_protein|mol2

> <Gold.PLP.Fitness>
48.7269

> <Gold.PLP.PLP>
-40.4437

> <Gold.PLP.part.hbond>
-2.0000

> <Gold.PLP.part.metal>
0.0000

> <Gold.PLP.part.buried>
-3.3285

> <Gold.PLP.part.nonpolar>
-38.0098

> <Gold.PLP.part.repulsive>
4.3405

> <Gold.PLP.ligand.clash>
0.0000

> <Gold.PLP.ligand.torsion>
0.4659

> <Gold.PLP.Chemscore.Hbond>
2.0000

> <Gold.PLP.Chemscore.CHOScore>
1.0000

> <Gold.PLP.Chemscore.Metal>
0.0000

> <Gold.Chemscore.Hbonds>
donor molecule, donor type, donor heavy atom, donor atom, acceptor molecule, acceptor atom, score
      L1  H     6    34       P1  7948  0.90
      P1  H  7997  8010       L1    12  1.00
      L1  C    16    37       P1  8028  1.00

> <Gold.PLP.Chemscore.Internal.Correction>
0.2150

> <Gold.Rescore>
     Score         DG    S(hbond)    S(metal)    S(lipo)     H(rot)  DE(clash)    DE(int)     intcor
     11.19     -13.68       1.62        0.00      61.09       1.70       0.67       1.83       ----

> <Gold.Chemscore.Fitness>
11.1890

> <Gold.Chemscore.DG>
-13.6838

> <Gold.Chemscore.ZeroCoef>
-5.4800

> <Gold.Chemscore.Hbond>
1.6222

> <Gold.Chemscore.Metal>
0.0000

> <Gold.Chemscore.Lipo>
61.0900

> <Gold.Chemscore.Internal_Hbond>
0.0000

> <Gold.Chemscore.DEClash>
0.6674

> <Gold.Chemscore.DEInternal>
1.8274

> <Gold.Chemscore.Rot>
1.7038

> <Gold.Chemscore.Internal.Correction>
   9.000000E+99

> <Gold.Chemscore.Hbonds>
donor molecule, donor type, donor heavy atom, donor atom, acceptor molecule, acceptor atom, score
      L1  H     6    34       P1  7948  0.18
      P1  H  7997  8010       L1    12  0.99

> <Gold.Chemscore.Hbond.Weighted>
-5.4181

> <Gold.Chemscore.Metal.Weighted>
-0.0000

> <Gold.Chemscore.Lipo.Weighted>
-7.1475

> <Gold.Chemscore.Internal_Hbond.Weighted>
0.0000

> <Gold.Chemscore.DEClash.Weighted>
0.6674

> <Gold.Chemscore.DEInternal.Weighted>
1.8274

> <Gold.Chemscore.Rot.Weighted>
4.3618

> <Gold.Chemscore.Internal.Correction.Weighted>
   9.000000E+99

> <Gold.Protein.RotatedTorsions>
[ 6907 6896 6895 6894 ] final -122.01 input  -60.11 | X-H torsion
[ 7974 7965 7964 7962 ] final -145.25 input  175.53 | X-H torsion
[ 8008 7997 7996 7995 ] final   73.35 input   59.86 | X-H torsion
[ 10167 10162 10161 10158 ] final -154.31 input  -65.29 | X-H torsion
[ 10718 10713 10712 10709 ] final  156.18 input   66.30 | X-H torsion
[ 10763 10752 10751 10750 ] final -114.12 input  -60.55 | X-H torsion
[ 11005 11000 10999 10996 ] final  -90.49 input  -57.11 | X-H torsion

> <Gold.Protein.ActiveResidues>
 VAL166  LYS551  ARG553  GLY616  TRP617  ASP618  TYR619  PRO620  LYS621  CYS622 
 ASP623  PHE694  ASN695  SER759  ASP760  ASP761  ALA762  ILE779  LEU786  VAL792 
 PHE793  MET794  SER795  GLU796  ALA797  LYS798  CYS799  TRP800  GLU811  SER814 

> <Gold.Protein.RotatedAtoms>
  150.8536  133.7750  159.3016 H   0  0  0  0  0  0  0  0  0  0  0  0  # atno 6907 bound_to 6896
  151.5414  135.1067  159.9937 H   0  0  0  0  0  0  0  0  0  0  0  0  # atno 6908 bound_to 6896
  152.4572  133.7704  159.6851 H   0  0  0  0  0  0  0  0  0  0  0  0  # atno 6909 bound_to 6896
  144.8241  140.5608  143.5559 H   0  0  0  0  0  0  0  0  0  0  0  0  # atno 7974 bound_to 7965
  155.7823  140.3481  155.5304 H   0  0  0  0  0  0  0  0  0  0  0  0  # atno 8008 bound_to 7997
  155.8716  140.0987  157.1567 H   0  0  0  0  0  0  0  0  0  0  0  0  # atno 8009 bound_to 7997
  154.4018  140.1339  156.4072 H   0  0  0  0  0  0  0  0  0  0  0  0  # atno 8010 bound_to 7997
  139.7024  143.9242  152.2434 H   0  0  0  0  0  0  0  0  0  0  0  0  # atno 10167 bound_to 10162
  157.2084  131.0692  151.1984 H   0  0  0  0  0  0  0  0  0  0  0  0  # atno 10718 bound_to 10713
  154.8426  135.4429  154.1456 H   0  0  0  0  0  0  0  0  0  0  0  0  # atno 10763 bound_to 10752
  153.2630  135.6938  153.7565 H   0  0  0  0  0  0  0  0  0  0  0  0  # atno 10764 bound_to 10752
  153.6834  135.3399  155.3159 H   0  0  0  0  0  0  0  0  0  0  0  0  # atno 10765 bound_to 10752
  141.1564  133.7696  156.9745 H   0  0  0  0  0  0  0  0  0  0  0  0  # atno 11005 bound_to 11000
  145.5040  139.1482  143.3641 LP  0  0  0  0  0  0  0  0  0  0  0  0  # atno 17320 bound_to 7965
  146.2546  140.5180  142.8879 LP  0  0  0  0  0  0  0  0  0  0  0  0  # atno 17321 bound_to 7965
  139.9088  144.6869  150.8585 LP  0  0  0  0  0  0  0  0  0  0  0  0  # atno 17342 bound_to 10162
  140.7713  143.3459  151.2112 LP  0  0  0  0  0  0  0  0  0  0  0  0  # atno 17343 bound_to 10162
  157.3697  130.7174  149.6556 LP  0  0  0  0  0  0  0  0  0  0  0  0  # atno 17370 bound_to 10713
  155.9693  130.4202  150.4412 LP  0  0  0  0  0  0  0  0  0  0  0  0  # atno 17371 bound_to 10713
  140.1107  134.9479  157.2060 LP  0  0  0  0  0  0  0  0  0  0  0  0  # atno 17394 bound_to 11000
  140.3198  134.2929  155.7248 LP  0  0  0  0  0  0  0  0  0  0  0  0  # atno 17395 bound_to 11000

$$$$
