AV-unprocessed.smi:415|AV-procd|sdf|2521|dock1
  -GOLD-   2262022473D 1   1.00000     0.00000
 Structure written by MMmdl.
 53 54  0  0  0  0  0  0  0  0  1 V2000
  145.3334  144.5782  152.8577 C   0  0  0  0  0  0  0  0  0  0  0  0
  145.3311  143.5554  153.8381 O   0  0  0  0  0  0  0  0  0  0  0  0
  146.5906  142.9178  153.9611 C   0  0  0  0  0  0  0  0  0  0  0  0
  146.4559  141.7453  154.9440 C   0  0  0  0  0  0  0  0  0  0  0  0
  147.6849  140.9892  155.0844 N   0  0  0  0  0  0  0  0  0  0  0  0
  148.3006  140.3258  154.0269 C   0  0  0  0  0  0  0  0  0  0  0  0
  147.7425  140.3870  152.7627 N   0  0  0  0  0  0  0  0  0  0  0  0
  149.4459  139.6299  154.2034 C   0  0  0  0  0  0  0  0  0  0  0  0
  150.1009  139.5420  155.5011 C   0  0  0  0  0  0  0  0  0  0  0  0
  151.1313  138.8939  155.6870 O   0  0  0  0  0  0  0  0  0  0  0  0
  149.4756  140.2498  156.5533 N   0  0  0  0  0  0  0  0  0  0  0  0
  150.0804  140.2015  157.9029 C   0  0  0  0  0  0  0  0  0  0  0  0
  151.4690  140.8543  157.9724 C   0  0  0  0  0  0  0  0  0  0  0  0
  152.4185  140.3973  157.3341 O   0  0  0  0  0  0  0  0  0  0  0  0
  151.5628  141.9413  158.7526 N   0  0  0  0  0  0  0  0  0  0  0  0
  152.7757  142.7296  158.9754 C   0  0  1  0  0  0  0  0  0  0  0  0
  152.5232  144.2191  158.6686 C   0  0  0  0  0  0  0  0  0  0  0  0
  151.6026  144.8676  159.7120 C   0  0  0  0  0  0  0  0  0  0  0  0
  152.1650  144.6851  161.1279 C   0  0  0  0  0  0  0  0  0  0  0  0
  152.4022  143.2003  161.4738 C   0  0  2  0  0  0  0  0  0  0  0  0
  152.9540  143.0824  162.9059 C   0  0  0  0  0  0  0  0  0  0  0  0
  153.3198  142.5281  160.4140 C   0  0  1  0  0  0  0  0  0  0  0  0
  153.5896  141.0374  160.7045 C   0  0  0  0  0  0  0  0  0  0  0  0
  148.2780  140.9788  156.3730 C   0  0  0  0  0  0  0  0  0  0  0  0
  147.7695  141.5850  157.3205 O   0  0  0  0  0  0  0  0  0  0  0  0
  144.3459  145.0365  152.8045 H   0  0  0  0  0  0  0  0  0  0  0  0
  145.5729  144.1788  151.8714 H   0  0  0  0  0  0  0  0  0  0  0  0
  146.0536  145.3597  153.1038 H   0  0  0  0  0  0  0  0  0  0  0  0
  146.9215  142.5545  152.9868 H   0  0  0  0  0  0  0  0  0  0  0  0
  147.3354  143.6314  154.3175 H   0  0  0  0  0  0  0  0  0  0  0  0
  146.1429  142.0729  155.9370 H   0  0  0  0  0  0  0  0  0  0  0  0
  145.6838  141.0471  154.6228 H   0  0  0  0  0  0  0  0  0  0  0  0
  146.8936  140.9026  152.5785 H   0  0  0  0  0  0  0  0  0  0  0  0
  148.1764  139.9416  151.9669 H   0  0  0  0  0  0  0  0  0  0  0  0
  149.8974  139.1216  153.3633 H   0  0  0  0  0  0  0  0  0  0  0  0
  149.4419  140.6837  158.6443 H   0  0  0  0  0  0  0  0  0  0  0  0
  150.1554  139.1704  158.2531 H   0  0  0  0  0  0  0  0  0  0  0  0
  150.7300  142.2486  159.2340 H   0  0  0  0  0  0  0  0  0  0  0  0
  153.5426  142.3732  158.2846 H   0  0  0  0  0  0  0  0  0  0  0  0
  153.4767  144.7486  158.6559 H   0  0  0  0  0  0  0  0  0  0  0  0
  152.0997  144.3376  157.6705 H   0  0  0  0  0  0  0  0  0  0  0  0
  151.4861  145.9294  159.4936 H   0  0  0  0  0  0  0  0  0  0  0  0
  150.6051  144.4305  159.6521 H   0  0  0  0  0  0  0  0  0  0  0  0
  153.1017  145.2371  161.2176 H   0  0  0  0  0  0  0  0  0  0  0  0
  151.4774  145.1305  161.8477 H   0  0  0  0  0  0  0  0  0  0  0  0
  151.4341  142.6975  161.4573 H   0  0  0  0  0  0  0  0  0  0  0  0
  153.9575  143.5022  162.9807 H   0  0  0  0  0  0  0  0  0  0  0  0
  152.9973  142.0458  163.2388 H   0  0  0  0  0  0  0  0  0  0  0  0
  152.3192  143.6151  163.6143 H   0  0  0  0  0  0  0  0  0  0  0  0
  154.2860  143.0336  160.4554 H   0  0  0  0  0  0  0  0  0  0  0  0
  152.6629  140.4730  160.8131 H   0  0  0  0  0  0  0  0  0  0  0  0
  154.1687  140.9042  161.6179 H   0  0  0  0  0  0  0  0  0  0  0  0
  154.1635  140.5805  159.8979 H   0  0  0  0  0  0  0  0  0  0  0  0
  1  2  1  0  0  0  0
  1 26  1  0  0  0  0
  1 27  1  0  0  0  0
  1 28  1  0  0  0  0
  2  3  1  0  0  0  0
  3  4  1  0  0  0  0
  3 29  1  0  0  0  0
  3 30  1  0  0  0  0
  4  5  1  0  0  0  0
  4 31  1  0  0  0  0
  4 32  1  0  0  0  0
  5 24  1  0  0  0  0
  5  6  1  0  0  0  0
  6  7  1  0  0  0  0
  6  8  2  0  0  0  0
  7 33  1  0  0  0  0
  7 34  1  0  0  0  0
  8  9  1  0  0  0  0
  8 35  1  0  0  0  0
  9 10  2  0  0  0  0
  9 11  1  0  0  0  0
 11 12  1  0  0  0  0
 11 24  1  0  0  0  0
 12 13  1  0  0  0  0
 12 36  1  0  0  0  0
 12 37  1  0  0  0  0
 13 14  2  0  0  0  0
 13 15  1  0  0  0  0
 15 16  1  0  0  0  0
 15 38  1  0  0  0  0
 16 22  1  0  0  0  0
 16 17  1  0  0  0  0
 16 39  1  0  0  0  0
 17 18  1  0  0  0  0
 17 40  1  0  0  0  0
 17 41  1  0  0  0  0
 18 19  1  0  0  0  0
 18 42  1  0  0  0  0
 18 43  1  0  0  0  0
 19 20  1  0  0  0  0
 19 44  1  0  0  0  0
 19 45  1  0  0  0  0
 20 21  1  0  0  0  0
 20 22  1  0  0  0  0
 20 46  1  0  0  0  0
 21 47  1  0  0  0  0
 21 48  1  0  0  0  0
 21 49  1  0  0  0  0
 22 23  1  0  0  0  0
 22 50  1  0  0  0  0
 23 51  1  0  0  0  0
 23 52  1  0  0  0  0
 23 53  1  0  0  0  0
 24 25  2  0  0  0  0
M  END
> <s_m_source_file>
AV-unprocessed.smi

> <i_m_source_file_index>
415

> <i_lp_mmshare_version>
43012

> <i_f3d_flags>
0

> <s_epik_input>
W0NIM11PW0NIMl1bQ0gyXW4xYyhbTkgyXSlbY0hdYyg9TyluKGMxPU8pW0NIMl1DKD1PKVtOSF1bQ0BASF0yW0NIMl1bQ0gyXVtDSDJdW0NAQEhdKFtDSDNdKVtDQEhdMltDSDNd

> <s_epik_cmdline>
J2VwaWtfcHl0aG9uJywgJy1waCcsICc3LjAnLCAnLXRuJywgJzgnLCAnLW1hJywgJzIwMCcsICctbWV0YWxfYmluZGluZycsICctaW1hZScsICc8aW5maWxlLm1hZT4nLCAnLW9tYWUnLCAnPG91dGZpbGUubWFlPic=

> <r_lp_tautomer_probability>
1

> <r_epik_Ionization_Penalty>
8.6647e-06

> <r_epik_Ionization_Penalty_Charging>
1.81162e-08

> <r_epik_Ionization_Penalty_Neutral>
8.64658e-06

> <r_epik_State_Penalty>
-0

> <r_epik_Charging_Adjusted_Penalty>
1.81162e-08

> <i_epik_Tot_Q>
0

> <i_epik_Tot_abs_Q>
0

> <r_epik_Metal_State_Penalty>
-0

> <b_epik_Metal_Only>
0

> <s_lp_Force_Field>
OPLS_2005

> <r_lp_Energy>
19.0862

> <b_lp_Chiralities_Consistent>
1

> <s_lp_Variant>
AV-unprocessed.smi:415-4

> <Gold.Version>
5.8.1

> <Gold.Id.Protein>
6NUR|6NUR_protein|mol2

> <Gold.PLP.Fitness>
59.3553

> <Gold.PLP.PLP>
-54.2519

> <Gold.PLP.part.hbond>
-1.9461

> <Gold.PLP.part.metal>
0.0000

> <Gold.PLP.part.buried>
-5.8048

> <Gold.PLP.part.nonpolar>
-46.5488

> <Gold.PLP.part.repulsive>
0.5118

> <Gold.PLP.ligand.clash>
0.0000

> <Gold.PLP.ligand.torsion>
0.1184

> <Gold.PLP.Chemscore.Hbond>
1.7600

> <Gold.PLP.Chemscore.CHOScore>
0.0000

> <Gold.PLP.Chemscore.Metal>
0.0000

> <Gold.Chemscore.Hbonds>
donor molecule, donor type, donor heavy atom, donor atom, acceptor molecule, acceptor atom, score
      L1  H     7    34       P1  7957  0.77
      P1  H  7997  8009       L1    14  0.80

> <Gold.PLP.Chemscore.Internal.Correction>
0.0602

> <Gold.Rescore>
     Score         DG    S(hbond)    S(metal)    S(lipo)     H(rot)  DE(clash)    DE(int)     intcor
     16.26     -19.94       1.63        0.00     126.58       2.26       0.39       3.30       ----

> <Gold.Chemscore.Fitness>
16.2595

> <Gold.Chemscore.DG>
-19.9443

> <Gold.Chemscore.ZeroCoef>
-5.4800

> <Gold.Chemscore.Hbond>
1.6321

> <Gold.Chemscore.Metal>
0.0000

> <Gold.Chemscore.Lipo>
126.5832

> <Gold.Chemscore.Internal_Hbond>
0.0000

> <Gold.Chemscore.DEClash>
0.3885

> <Gold.Chemscore.DEInternal>
3.2963

> <Gold.Chemscore.Rot>
2.2645

> <Gold.Chemscore.Internal.Correction>
   9.000000E+99

> <Gold.Chemscore.Hbonds>
donor molecule, donor type, donor heavy atom, donor atom, acceptor molecule, acceptor atom, score
      L1  H     7    34       P1  7957  0.75
      P1  H  7997  8009       L1    14  0.76

> <Gold.Chemscore.Hbond.Weighted>
-5.4513

> <Gold.Chemscore.Metal.Weighted>
-0.0000

> <Gold.Chemscore.Lipo.Weighted>
-14.8102

> <Gold.Chemscore.Internal_Hbond.Weighted>
0.0000

> <Gold.Chemscore.DEClash.Weighted>
0.3885

> <Gold.Chemscore.DEInternal.Weighted>
3.2963

> <Gold.Chemscore.Rot.Weighted>
5.7972

> <Gold.Chemscore.Internal.Correction.Weighted>
   9.000000E+99

> <Gold.Protein.RotatedTorsions>
[ 6907 6896 6895 6894 ] final   12.57 input  -60.11 | X-H torsion
[ 7974 7965 7964 7962 ] final  -90.76 input  175.53 | X-H torsion
[ 8008 7997 7996 7995 ] final -179.48 input   59.86 | X-H torsion
[ 10167 10162 10161 10158 ] final -168.30 input  -65.29 | X-H torsion
[ 10718 10713 10712 10709 ] final   12.47 input   66.30 | X-H torsion
[ 10763 10752 10751 10750 ] final  127.44 input  -60.55 | X-H torsion
[ 11005 11000 10999 10996 ] final  156.16 input  -57.11 | X-H torsion

> <Gold.Protein.ActiveResidues>
 VAL166  LYS551  ARG553  GLY616  TRP617  ASP618  TYR619  PRO620  LYS621  CYS622 
 ASP623  PHE694  ASN695  SER759  ASP760  ASP761  ALA762  ILE779  LEU786  VAL792 
 PHE793  MET794  SER795  GLU796  ALA797  LYS798  CYS799  TRP800  GLU811  SER814 

> <Gold.Protein.RotatedAtoms>
  151.7724  135.0783  160.0361 H   0  0  0  0  0  0  0  0  0  0  0  0  # atno 6907 bound_to 6896
  152.3279  133.5921  159.5798 H   0  0  0  0  0  0  0  0  0  0  0  0  # atno 6908 bound_to 6896
  150.7406  133.9828  159.3623 H   0  0  0  0  0  0  0  0  0  0  0  0  # atno 6909 bound_to 6896
  145.4221  140.9551  143.2175 H   0  0  0  0  0  0  0  0  0  0  0  0  # atno 7974 bound_to 7965
  156.0310  140.1282  157.0258 H   0  0  0  0  0  0  0  0  0  0  0  0  # atno 8008 bound_to 7997
  154.4350  140.1049  156.6170 H   0  0  0  0  0  0  0  0  0  0  0  0  # atno 8009 bound_to 7997
  155.5806  140.3468  155.4541 H   0  0  0  0  0  0  0  0  0  0  0  0  # atno 8010 bound_to 7997
  139.5994  144.1043  152.1726 H   0  0  0  0  0  0  0  0  0  0  0  0  # atno 10167 bound_to 10162
  157.0106  130.6116  149.5707 H   0  0  0  0  0  0  0  0  0  0  0  0  # atno 10718 bound_to 10713
  153.7094  135.3270  155.3243 H   0  0  0  0  0  0  0  0  0  0  0  0  # atno 10763 bound_to 10752
  154.8389  135.4473  154.1329 H   0  0  0  0  0  0  0  0  0  0  0  0  # atno 10764 bound_to 10752
  153.2419  135.6972  153.7853 H   0  0  0  0  0  0  0  0  0  0  0  0  # atno 10765 bound_to 10752
  140.1648  134.8584  157.2619 H   0  0  0  0  0  0  0  0  0  0  0  0  # atno 11005 bound_to 11000
  144.8238  139.5745  143.6975 LP  0  0  0  0  0  0  0  0  0  0  0  0  # atno 17320 bound_to 7965
  146.2651  139.6501  142.9335 LP  0  0  0  0  0  0  0  0  0  0  0  0  # atno 17321 bound_to 7965
  140.0636  144.5837  150.7244 LP  0  0  0  0  0  0  0  0  0  0  0  0  # atno 17342 bound_to 10162
  140.7237  143.2615  151.4191 LP  0  0  0  0  0  0  0  0  0  0  0  0  # atno 17343 bound_to 10162
  156.0137  130.5230  150.8069 LP  0  0  0  0  0  0  0  0  0  0  0  0  # atno 17370 bound_to 10713
  157.5323  131.0937  150.9939 LP  0  0  0  0  0  0  0  0  0  0  0  0  # atno 17371 bound_to 10713
  140.2446  134.3755  155.7466 LP  0  0  0  0  0  0  0  0  0  0  0  0  # atno 17394 bound_to 11000
  141.2213  133.7284  156.8842 LP  0  0  0  0  0  0  0  0  0  0  0  0  # atno 17395 bound_to 11000

$$$$
