AV-unprocessed.smi:314|AV-procd|sdf|2315|dock8
  -GOLD-   2262022223D 1   1.00000     0.00000
 Structure written by MMmdl.
 48 49  0  0  0  0  0  0  0  0  1 V2000
  143.6288  132.2440  150.5618 C   0  0  0  0  0  0  0  0  0  0  0  0
  143.3647  133.1765  151.6043 O   0  0  0  0  0  0  0  0  0  0  0  0
  144.1848  134.2803  151.7193 C   0  0  0  0  0  0  0  0  0  0  0  0
  144.0960  135.0679  152.8843 C   0  0  0  0  0  0  0  0  0  0  0  0
  144.9284  136.1966  153.0050 C   0  0  0  0  0  0  0  0  0  0  0  0
  145.8147  136.5119  151.9558 C   0  0  0  0  0  0  0  0  0  0  0  0
  146.6580  137.6450  152.1067 N   0  0  0  0  0  0  0  0  0  0  0  0
  146.5708  138.6264  153.0206 C   0  0  0  0  0  0  0  0  0  0  0  0
  145.7611  138.6633  153.9473 O   0  0  0  0  0  0  0  0  0  0  0  0
  147.5000  139.5701  152.8126 N   0  0  0  0  0  0  0  0  0  0  0  0
  147.6789  140.7610  153.6362 C   0  0  0  0  0  0  0  0  0  0  0  0
  148.4079  140.4362  154.9567 C   0  0  0  0  0  0  0  0  0  0  0  0
  149.5910  139.4678  154.7898 C   0  0  0  0  0  0  0  0  0  0  0  0
  149.3997  138.3780  154.2480 O   0  0  0  0  0  0  0  0  0  0  0  0
  150.8082  139.8368  155.2560 N   0  0  0  0  0  0  0  0  0  0  0  0
  151.9696  138.9460  155.2664 C   0  0  0  0  0  0  0  0  0  0  0  0
  152.3081  138.6176  156.7338 C   0  0  1  0  0  0  0  0  0  0  0  0
  153.5579  137.7396  156.8549 C   0  0  0  0  0  0  0  0  0  0  0  0
  152.5477  139.8305  157.4531 O   0  0  0  0  0  0  0  0  0  0  0  0
  151.4973  140.8018  157.4017 C   0  0  2  0  0  0  0  0  0  0  0  0
  150.2988  140.3813  158.2721 C   0  0  0  0  0  0  0  0  0  0  0  0
  151.1332  141.0964  155.9312 C   0  0  0  0  0  0  0  0  0  0  0  0
  145.8398  135.6505  150.8320 C   0  0  0  0  0  0  0  0  0  0  0  0
  145.0469  134.5648  150.7120 N   0  0  0  0  0  0  0  0  0  0  0  0
  142.8909  131.4430  150.5989 H   0  0  0  0  0  0  0  0  0  0  0  0
  144.6150  131.7907  150.6727 H   0  0  0  0  0  0  0  0  0  0  0  0
  143.5586  132.7132  149.5793 H   0  0  0  0  0  0  0  0  0  0  0  0
  143.4020  134.8106  153.6705 H   0  0  0  0  0  0  0  0  0  0  0  0
  144.8799  136.8139  153.8902 H   0  0  0  0  0  0  0  0  0  0  0  0
  147.4411  137.6933  151.4715 H   0  0  0  0  0  0  0  0  0  0  0  0
  148.1301  139.4566  152.0320 H   0  0  0  0  0  0  0  0  0  0  0  0
  148.2238  141.5168  153.0672 H   0  0  0  0  0  0  0  0  0  0  0  0
  146.6921  141.1767  153.8433 H   0  0  0  0  0  0  0  0  0  0  0  0
  148.7682  141.3582  155.4145 H   0  0  0  0  0  0  0  0  0  0  0  0
  147.6954  139.9886  155.6498 H   0  0  0  0  0  0  0  0  0  0  0  0
  151.8003  138.0247  154.7071 H   0  0  0  0  0  0  0  0  0  0  0  0
  152.8125  139.4406  154.7815 H   0  0  0  0  0  0  0  0  0  0  0  0
  151.4738  138.0835  157.1897 H   0  0  0  0  0  0  0  0  0  0  0  0
  153.4213  136.7899  156.3372 H   0  0  0  0  0  0  0  0  0  0  0  0
  153.7792  137.5194  157.8996 H   0  0  0  0  0  0  0  0  0  0  0  0
  154.4301  138.2333  156.4260 H   0  0  0  0  0  0  0  0  0  0  0  0
  151.9038  141.7159  157.8358 H   0  0  0  0  0  0  0  0  0  0  0  0
  149.5472  141.1705  158.3026 H   0  0  0  0  0  0  0  0  0  0  0  0
  150.6137  140.1875  159.2976 H   0  0  0  0  0  0  0  0  0  0  0  0
  149.8091  139.4822  157.8995 H   0  0  0  0  0  0  0  0  0  0  0  0
  151.9885  141.5501  155.4283 H   0  0  0  0  0  0  0  0  0  0  0  0
  150.3434  141.8443  155.8794 H   0  0  0  0  0  0  0  0  0  0  0  0
  146.5203  135.8056  150.0093 H   0  0  0  0  0  0  0  0  0  0  0  0
  1  2  1  0  0  0  0
  1 25  1  0  0  0  0
  1 26  1  0  0  0  0
  1 27  1  0  0  0  0
  2  3  1  0  0  0  0
  3 24  1  0  0  0  0
  3  4  2  0  0  0  0
  4  5  1  0  0  0  0
  4 28  1  0  0  0  0
  5  6  2  0  0  0  0
  5 29  1  0  0  0  0
  6  7  1  0  0  0  0
  6 23  1  0  0  0  0
  7  8  1  0  0  0  0
  7 30  1  0  0  0  0
  8  9  2  0  0  0  0
  8 10  1  0  0  0  0
 10 11  1  0  0  0  0
 10 31  1  0  0  0  0
 11 12  1  0  0  0  0
 11 32  1  0  0  0  0
 11 33  1  0  0  0  0
 12 13  1  0  0  0  0
 12 34  1  0  0  0  0
 12 35  1  0  0  0  0
 13 14  2  0  0  0  0
 13 15  1  0  0  0  0
 15 22  1  0  0  0  0
 15 16  1  0  0  0  0
 16 17  1  0  0  0  0
 16 36  1  0  0  0  0
 16 37  1  0  0  0  0
 17 18  1  0  0  0  0
 17 19  1  0  0  0  0
 17 38  1  0  0  0  0
 18 39  1  0  0  0  0
 18 40  1  0  0  0  0
 18 41  1  0  0  0  0
 19 20  1  0  0  0  0
 20 21  1  0  0  0  0
 20 22  1  0  0  0  0
 20 42  1  0  0  0  0
 21 43  1  0  0  0  0
 21 44  1  0  0  0  0
 21 45  1  0  0  0  0
 22 46  1  0  0  0  0
 22 47  1  0  0  0  0
 23 24  2  0  0  0  0
 23 48  1  0  0  0  0
M  END
> <s_m_source_file>
AV-unprocessed.smi

> <i_m_source_file_index>
314

> <i_lp_mmshare_version>
43012

> <i_f3d_flags>
0

> <s_epik_input>
W0NIM11PYzFbY0hdW2NIXWMoW2NIXW4xKVtOSF1DKD1PKVtOSF1bQ0gyXVtDSDJdQyg9TylOMltDSDJdW0NAQEhdKFtDSDNdKU9bQ0BASF0oW0NIM10pW0NIMl0y

> <s_epik_cmdline>
J2VwaWtfcHl0aG9uJywgJy1waCcsICc3LjAnLCAnLXRuJywgJzgnLCAnLW1hJywgJzIwMCcsICctbWV0YWxfYmluZGluZycsICctaW1hZScsICc8aW5maWxlLm1hZT4nLCAnLW9tYWUnLCAnPG91dGZpbGUubWFlPic=

> <r_lp_tautomer_probability>
1

> <r_epik_Ionization_Penalty>
8.55977e-05

> <r_epik_Ionization_Penalty_Charging>
0

> <r_epik_Ionization_Penalty_Neutral>
8.55977e-05

> <r_epik_State_Penalty>
-0

> <r_epik_Charging_Adjusted_Penalty>
0

> <i_epik_Tot_Q>
0

> <i_epik_Tot_abs_Q>
0

> <r_epik_Metal_State_Penalty>
-0

> <b_epik_Metal_Only>
0

> <s_lp_Force_Field>
OPLS_2005

> <r_lp_Energy>
24.1988

> <b_lp_Chiralities_Consistent>
1

> <s_lp_Variant>
AV-unprocessed.smi:314-3

> <Gold.Version>
5.8.1

> <Gold.Id.Protein>
6NUR|6NUR_protein|mol2

> <Gold.PLP.Fitness>
46.0703

> <Gold.PLP.PLP>
-37.8120

> <Gold.PLP.part.hbond>
-3.0000

> <Gold.PLP.part.metal>
0.0000

> <Gold.PLP.part.buried>
-6.0845

> <Gold.PLP.part.nonpolar>
-30.7796

> <Gold.PLP.part.repulsive>
1.4622

> <Gold.PLP.ligand.clash>
0.0000

> <Gold.PLP.ligand.torsion>
0.3903

> <Gold.PLP.Chemscore.Hbond>
2.1211

> <Gold.PLP.Chemscore.CHOScore>
0.8832

> <Gold.PLP.Chemscore.Metal>
0.0000

> <Gold.Chemscore.Hbonds>
donor molecule, donor type, donor heavy atom, donor atom, acceptor molecule, acceptor atom, score
      L1  H     7    30       P1  7948  0.25
      L1  H    10    31       P1  7957  0.98
      P1  H  7997  8010       L1    19  0.80
      L1  C    23    48       P1  7921  0.78

> <Gold.PLP.Chemscore.Internal.Correction>
0.0261

> <Gold.Rescore>
     Score         DG    S(hbond)    S(metal)    S(lipo)     H(rot)  DE(clash)    DE(int)     intcor
     12.02     -15.45       1.71        0.00      75.84       1.81       0.00       3.43       ----

> <Gold.Chemscore.Fitness>
12.0220

> <Gold.Chemscore.DG>
-15.4550

> <Gold.Chemscore.ZeroCoef>
-5.4800

> <Gold.Chemscore.Hbond>
1.7148

> <Gold.Chemscore.Metal>
0.0000

> <Gold.Chemscore.Lipo>
75.8358

> <Gold.Chemscore.Internal_Hbond>
0.0000

> <Gold.Chemscore.DEClash>
0.0036

> <Gold.Chemscore.DEInternal>
3.4294

> <Gold.Chemscore.Rot>
1.8067

> <Gold.Chemscore.Internal.Correction>
   9.000000E+99

> <Gold.Chemscore.Hbonds>
donor molecule, donor type, donor heavy atom, donor atom, acceptor molecule, acceptor atom, score
      L1  H     7    30       P1  7948  0.24
      L1  H    10    31       P1  7957  0.93
      P1  H  7997  8010       L1    19  0.13

> <Gold.Chemscore.Hbond.Weighted>
-5.7273

> <Gold.Chemscore.Metal.Weighted>
-0.0000

> <Gold.Chemscore.Lipo.Weighted>
-8.8728

> <Gold.Chemscore.Internal_Hbond.Weighted>
0.0000

> <Gold.Chemscore.DEClash.Weighted>
0.0036

> <Gold.Chemscore.DEInternal.Weighted>
3.4294

> <Gold.Chemscore.Rot.Weighted>
4.6252

> <Gold.Chemscore.Internal.Correction.Weighted>
   9.000000E+99

> <Gold.Protein.RotatedTorsions>
[ 6907 6896 6895 6894 ] final  -51.62 input  -60.11 | X-H torsion
[ 7974 7965 7964 7962 ] final  -14.97 input  175.53 | X-H torsion
[ 8008 7997 7996 7995 ] final   39.97 input   59.86 | X-H torsion
[ 10167 10162 10161 10158 ] final    3.74 input  -65.29 | X-H torsion
[ 10718 10713 10712 10709 ] final  -12.65 input   66.30 | X-H torsion
[ 10763 10752 10751 10750 ] final   54.35 input  -60.55 | X-H torsion
[ 11005 11000 10999 10996 ] final   46.04 input  -57.11 | X-H torsion

> <Gold.Protein.ActiveResidues>
 VAL166  LYS551  ARG553  GLY616  TRP617  ASP618  TYR619  PRO620  LYS621  CYS622 
 ASP623  PHE694  ASN695  SER759  ASP760  ASP761  ALA762  ILE779  LEU786  VAL792 
 PHE793  MET794  SER795  GLU796  ALA797  LYS798  CYS799  TRP800  GLU811  SER814 

> <Gold.Protein.RotatedAtoms>
  150.8594  134.7942  159.7070 H   0  0  0  0  0  0  0  0  0  0  0  0  # atno 6907 bound_to 6896
  152.4636  134.5125  159.9768 H   0  0  0  0  0  0  0  0  0  0  0  0  # atno 6908 bound_to 6896
  151.5231  133.3424  159.2940 H   0  0  0  0  0  0  0  0  0  0  0  0  # atno 6909 bound_to 6896
  146.2052  140.3426  142.8409 H   0  0  0  0  0  0  0  0  0  0  0  0  # atno 7974 bound_to 7965
  155.2455  140.3348  155.4287 H   0  0  0  0  0  0  0  0  0  0  0  0  # atno 8008 bound_to 7997
  156.2238  140.1820  156.7458 H   0  0  0  0  0  0  0  0  0  0  0  0  # atno 8009 bound_to 7997
  154.5866  140.0645  156.9165 H   0  0  0  0  0  0  0  0  0  0  0  0  # atno 8010 bound_to 7997
  140.6570  143.7401  150.7671 H   0  0  0  0  0  0  0  0  0  0  0  0  # atno 10167 bound_to 10162
  156.6416  130.4929  149.6093 H   0  0  0  0  0  0  0  0  0  0  0  0  # atno 10718 bound_to 10713
  152.9804  135.5748  154.4889 H   0  0  0  0  0  0  0  0  0  0  0  0  # atno 10763 bound_to 10752
  154.4427  135.2776  155.1838 H   0  0  0  0  0  0  0  0  0  0  0  0  # atno 10764 bound_to 10752
  154.3500  135.6211  153.5691 H   0  0  0  0  0  0  0  0  0  0  0  0  # atno 10765 bound_to 10752
  140.1404  134.4590  155.8454 H   0  0  0  0  0  0  0  0  0  0  0  0  # atno 11005 bound_to 11000
  144.8775  140.7356  143.6008 LP  0  0  0  0  0  0  0  0  0  0  0  0  # atno 17320 bound_to 7965
  145.3346  139.1750  143.4519 LP  0  0  0  0  0  0  0  0  0  0  0  0  # atno 17321 bound_to 7965
  140.1063  143.4741  152.2396 LP  0  0  0  0  0  0  0  0  0  0  0  0  # atno 17342 bound_to 10162
  139.5795  144.7504  151.3677 LP  0  0  0  0  0  0  0  0  0  0  0  0  # atno 17343 bound_to 10162
  156.2154  130.6704  151.1313 LP  0  0  0  0  0  0  0  0  0  0  0  0  # atno 17370 bound_to 10713
  157.7169  131.0704  150.6291 LP  0  0  0  0  0  0  0  0  0  0  0  0  # atno 17371 bound_to 10713
  141.2185  133.6831  156.7237 LP  0  0  0  0  0  0  0  0  0  0  0  0  # atno 17394 bound_to 11000
  140.2729  134.8378  157.3863 LP  0  0  0  0  0  0  0  0  0  0  0  0  # atno 17395 bound_to 11000

$$$$
