AV-unprocessed.smi:2693|AV-procd|sdf|10402|dock2
  -GOLD-   2272014433D 1   1.00000     0.00000
 Structure written by MMmdl.
 45 47  0  0  0  0  0  0  0  0  1 V2000
  145.3550  131.8670  149.3188 C   0  0  0  0  0  0  0  0  0  0  0  0
  145.3001  132.1201  150.7558 N   0  0  0  0  0  0  0  0  0  0  0  0
  145.6491  131.0201  151.6502 C   0  0  0  0  0  0  0  0  0  0  0  0
  144.9341  133.3728  151.2569 C   0  0  0  0  0  0  0  0  0  0  0  0
  144.8823  134.3928  150.3901 N   0  0  0  0  0  0  0  0  0  0  0  0
  144.5321  135.6067  150.8659 C   0  0  0  0  0  0  0  0  0  0  0  0
  144.2239  135.8082  152.2326 C   0  0  0  0  0  0  0  0  0  0  0  0
  143.8746  137.0541  152.8192 N   0  0  0  0  0  0  0  0  0  0  0  0
  143.4072  137.2924  154.0561 C   0  0  0  0  0  0  0  0  0  0  0  0
  143.2776  136.4496  154.9435 O   0  0  0  0  0  0  0  0  0  0  0  0
  143.1019  138.5865  154.2182 N   0  0  0  0  0  0  0  0  0  0  0  0
  142.5563  139.1545  155.4467 C   0  0  1  0  0  0  0  0  0  0  0  0
  141.9151  140.5334  155.2257 C   0  0  2  0  0  0  0  0  0  0  0  0
  142.5198  141.7526  155.8674 C   0  0  0  0  0  0  0  0  0  0  0  0
  141.7057  141.8996  157.1562 C   0  0  0  0  0  0  0  0  0  0  0  0
  141.1671  140.6007  157.3928 O   0  0  0  0  0  0  0  0  0  0  0  0
  140.7886  140.0572  156.1303 C   0  0  2  0  0  0  0  0  0  0  0  0
  141.1752  138.5871  155.8647 C   0  0  0  0  0  0  0  0  0  0  0  0
  140.3310  137.9012  154.7806 C   0  0  0  0  0  0  0  0  0  0  0  0
  141.1665  137.6605  157.0815 C   0  0  0  0  0  0  0  0  0  0  0  0
  144.3190  134.6685  153.0556 C   0  0  0  0  0  0  0  0  0  0  0  0
  144.6686  133.4600  152.5671 N   0  0  0  0  0  0  0  0  0  0  0  0
  146.0342  132.5683  148.8330 H   0  0  0  0  0  0  0  0  0  0  0  0
  144.3656  131.9833  148.8758 H   0  0  0  0  0  0  0  0  0  0  0  0
  145.7050  130.8593  149.0950 H   0  0  0  0  0  0  0  0  0  0  0  0
  146.5303  131.2752  152.2393 H   0  0  0  0  0  0  0  0  0  0  0  0
  145.8672  130.1030  151.1032 H   0  0  0  0  0  0  0  0  0  0  0  0
  144.8272  130.8094  152.3350 H   0  0  0  0  0  0  0  0  0  0  0  0
  144.5277  136.4045  150.1399 H   0  0  0  0  0  0  0  0  0  0  0  0
  144.0057  137.8627  152.2290 H   0  0  0  0  0  0  0  0  0  0  0  0
  143.2442  139.2167  153.4427 H   0  0  0  0  0  0  0  0  0  0  0  0
  143.2660  139.1680  156.2772 H   0  0  0  0  0  0  0  0  0  0  0  0
  141.5702  140.6800  154.2005 H   0  0  0  0  0  0  0  0  0  0  0  0
  143.5752  141.5922  156.0905 H   0  0  0  0  0  0  0  0  0  0  0  0
  142.4405  142.6406  155.2396 H   0  0  0  0  0  0  0  0  0  0  0  0
  142.3069  142.2442  157.9976 H   0  0  0  0  0  0  0  0  0  0  0  0
  140.8842  142.6030  157.0121 H   0  0  0  0  0  0  0  0  0  0  0  0
  139.7933  140.3621  155.8032 H   0  0  0  0  0  0  0  0  0  0  0  0
  139.3038  137.7499  155.1135 H   0  0  0  0  0  0  0  0  0  0  0  0
  140.7337  136.9236  154.5131 H   0  0  0  0  0  0  0  0  0  0  0  0
  140.2852  138.4942  153.8669 H   0  0  0  0  0  0  0  0  0  0  0  0
  140.1575  137.5186  157.4697 H   0  0  0  0  0  0  0  0  0  0  0  0
  141.7721  138.0596  157.8955 H   0  0  0  0  0  0  0  0  0  0  0  0
  141.5693  136.6770  156.8372 H   0  0  0  0  0  0  0  0  0  0  0  0
  144.1148  134.7237  154.1149 H   0  0  0  0  0  0  0  0  0  0  0  0
  1  2  1  0  0  0  0
  1 23  1  0  0  0  0
  1 24  1  0  0  0  0
  1 25  1  0  0  0  0
  2  3  1  0  0  0  0
  2  4  1  0  0  0  0
  3 26  1  0  0  0  0
  3 27  1  0  0  0  0
  3 28  1  0  0  0  0
  4 22  1  0  0  0  0
  4  5  2  0  0  0  0
  5  6  1  0  0  0  0
  6  7  2  0  0  0  0
  6 29  1  0  0  0  0
  7  8  1  0  0  0  0
  7 21  1  0  0  0  0
  8  9  1  0  0  0  0
  8 30  1  0  0  0  0
  9 10  2  0  0  0  0
  9 11  1  0  0  0  0
 11 12  1  0  0  0  0
 11 31  1  0  0  0  0
 12 18  1  0  0  0  0
 12 13  1  0  0  0  0
 12 32  1  0  0  0  0
 13 17  1  0  0  0  0
 13 14  1  0  0  0  0
 13 33  1  0  0  0  0
 14 15  1  0  0  0  0
 14 34  1  0  0  0  0
 14 35  1  0  0  0  0
 15 16  1  0  0  0  0
 15 36  1  0  0  0  0
 15 37  1  0  0  0  0
 16 17  1  0  0  0  0
 17 18  1  0  0  0  0
 17 38  1  0  0  0  0
 18 19  1  0  0  0  0
 18 20  1  0  0  0  0
 19 39  1  0  0  0  0
 19 40  1  0  0  0  0
 19 41  1  0  0  0  0
 20 42  1  0  0  0  0
 20 43  1  0  0  0  0
 20 44  1  0  0  0  0
 21 22  2  0  0  0  0
 21 45  1  0  0  0  0
M  END
> <s_m_source_file>
AV-unprocessed.smi

> <i_m_source_file_index>
2693

> <i_lp_mmshare_version>
43012

> <i_f3d_flags>
0

> <s_epik_input>
W0NIM11OKFtDSDNdKWMxbltjSF1jKFtjSF1uMSlbTkhdQyg9TylbTkhdW0NASF0yQyhbQ0gzXSkoW0NIM10pW0NAQEhdKFtDQEhdMjMpT1tDSDJdW0NIMl0z

> <s_epik_cmdline>
J2VwaWtfcHl0aG9uJywgJy1waCcsICc3LjAnLCAnLXRuJywgJzgnLCAnLW1hJywgJzIwMCcsICctbWV0YWxfYmluZGluZycsICctaW1hZScsICc8aW5maWxlLm1hZT4nLCAnLW9tYWUnLCAnPG91dGZpbGUubWFlPic=

> <r_lp_tautomer_probability>
1

> <r_epik_Ionization_Penalty>
0.00031779

> <r_epik_Ionization_Penalty_Charging>
0

> <r_epik_Ionization_Penalty_Neutral>
0.00031779

> <r_epik_State_Penalty>
-0

> <r_epik_Charging_Adjusted_Penalty>
0

> <i_epik_Tot_Q>
0

> <i_epik_Tot_abs_Q>
0

> <r_epik_Metal_State_Penalty>
-0

> <b_epik_Metal_Only>
0

> <s_lp_Force_Field>
OPLS_2005

> <r_lp_Energy>
29.1856

> <b_lp_Chiralities_Consistent>
1

> <s_lp_Variant>
AV-unprocessed.smi:2693-6

> <Gold.Version>
5.8.1

> <Gold.Id.Protein>
6NUR|6NUR_protein|mol2

> <Gold.PLP.Fitness>
40.2295

> <Gold.PLP.PLP>
-34.3190

> <Gold.PLP.part.hbond>
-1.8993

> <Gold.PLP.part.metal>
0.0000

> <Gold.PLP.part.buried>
-5.7137

> <Gold.PLP.part.nonpolar>
-27.6564

> <Gold.PLP.part.repulsive>
1.7130

> <Gold.PLP.ligand.clash>
0.0000

> <Gold.PLP.ligand.torsion>
0.2098

> <Gold.PLP.Chemscore.Hbond>
1.1365

> <Gold.PLP.Chemscore.CHOScore>
0.9136

> <Gold.PLP.Chemscore.Metal>
0.0000

> <Gold.Chemscore.Hbonds>
donor molecule, donor type, donor heavy atom, donor atom, acceptor molecule, acceptor atom, score
      L1  H    11    31       P1 10175  1.00
      L1  C     6    29       P1 10171  1.00

> <Gold.PLP.Chemscore.Internal.Correction>
0.1798

> <Gold.Rescore>
     Score         DG    S(hbond)    S(metal)    S(lipo)     H(rot)  DE(clash)    DE(int)     intcor
     13.25     -14.82       1.00        0.00      73.17       1.00       0.02       1.54       ----

> <Gold.Chemscore.Fitness>
13.2541

> <Gold.Chemscore.DG>
-14.8156

> <Gold.Chemscore.ZeroCoef>
-5.4800

> <Gold.Chemscore.Hbond>
0.9983

> <Gold.Chemscore.Metal>
0.0000

> <Gold.Chemscore.Lipo>
73.1734

> <Gold.Chemscore.Internal_Hbond>
0.0000

> <Gold.Chemscore.DEClash>
0.0226

> <Gold.Chemscore.DEInternal>
1.5389

> <Gold.Chemscore.Rot>
1.0000

> <Gold.Chemscore.Internal.Correction>
   9.000000E+99

> <Gold.Chemscore.Hbonds>
donor molecule, donor type, donor heavy atom, donor atom, acceptor molecule, acceptor atom, score
      L1  H     8    30       P1 10171  0.01
      L1  H    11    31       P1 10175  0.99

> <Gold.Chemscore.Hbond.Weighted>
-3.3344

> <Gold.Chemscore.Metal.Weighted>
-0.0000

> <Gold.Chemscore.Lipo.Weighted>
-8.5613

> <Gold.Chemscore.Internal_Hbond.Weighted>
0.0000

> <Gold.Chemscore.DEClash.Weighted>
0.0226

> <Gold.Chemscore.DEInternal.Weighted>
1.5389

> <Gold.Chemscore.Rot.Weighted>
2.5600

> <Gold.Chemscore.Internal.Correction.Weighted>
   9.000000E+99

> <Gold.Protein.RotatedTorsions>
[ 6907 6896 6895 6894 ] final   27.57 input  -60.11 | X-H torsion
[ 7974 7965 7964 7962 ] final  -90.94 input  175.53 | X-H torsion
[ 8008 7997 7996 7995 ] final  -94.95 input   59.86 | X-H torsion
[ 10167 10162 10161 10158 ] final   95.40 input  -65.29 | X-H torsion
[ 10718 10713 10712 10709 ] final  166.44 input   66.30 | X-H torsion
[ 10763 10752 10751 10750 ] final -138.65 input  -60.55 | X-H torsion
[ 11005 11000 10999 10996 ] final   86.96 input  -57.11 | X-H torsion

> <Gold.Protein.ActiveResidues>
 VAL166  LYS551  ARG553  GLY616  TRP617  ASP618  TYR619  PRO620  LYS621  CYS622 
 ASP623  PHE694  ASN695  SER759  ASP760  ASP761  ALA762  ILE779  LEU786  VAL792 
 PHE793  MET794  SER795  GLU796  ALA797  LYS798  CYS799  TRP800  GLU811  SER814 

> <Gold.Protein.RotatedAtoms>
  152.0042  134.9912  160.0565 H   0  0  0  0  0  0  0  0  0  0  0  0  # atno 6907 bound_to 6896
  152.1491  133.4506  159.4812 H   0  0  0  0  0  0  0  0  0  0  0  0  # atno 6908 bound_to 6896
  150.6873  134.2130  159.4410 H   0  0  0  0  0  0  0  0  0  0  0  0  # atno 6909 bound_to 6896
  145.4197  140.9550  143.2187 H   0  0  0  0  0  0  0  0  0  0  0  0  # atno 7974 bound_to 7965
  154.7550  140.0484  157.0925 H   0  0  0  0  0  0  0  0  0  0  0  0  # atno 8008 bound_to 7997
  155.0009  140.3124  155.4848 H   0  0  0  0  0  0  0  0  0  0  0  0  # atno 8009 bound_to 7997
  156.2893  140.2201  156.5119 H   0  0  0  0  0  0  0  0  0  0  0  0  # atno 8010 bound_to 7997
  139.7992  144.6820  150.9787 H   0  0  0  0  0  0  0  0  0  0  0  0  # atno 10167 bound_to 10162
  157.0658  131.0352  151.2630 H   0  0  0  0  0  0  0  0  0  0  0  0  # atno 10718 bound_to 10713
  154.8631  135.3605  154.5420 H   0  0  0  0  0  0  0  0  0  0  0  0  # atno 10763 bound_to 10752
  153.6041  135.7011  153.5377 H   0  0  0  0  0  0  0  0  0  0  0  0  # atno 10764 bound_to 10752
  153.3265  135.4136  155.1421 H   0  0  0  0  0  0  0  0  0  0  0  0  # atno 10765 bound_to 10752
  139.8931  134.8390  156.2793 H   0  0  0  0  0  0  0  0  0  0  0  0  # atno 11005 bound_to 11000
  144.8253  139.5720  143.6968 LP  0  0  0  0  0  0  0  0  0  0  0  0  # atno 17320 bound_to 7965
  146.2663  139.6527  142.9327 LP  0  0  0  0  0  0  0  0  0  0  0  0  # atno 17321 bound_to 7965
  140.7820  143.4299  151.0711 LP  0  0  0  0  0  0  0  0  0  0  0  0  # atno 17342 bound_to 10162
  139.7971  143.8135  152.3159 LP  0  0  0  0  0  0  0  0  0  0  0  0  # atno 17343 bound_to 10162
  157.4918  130.7826  149.7515 LP  0  0  0  0  0  0  0  0  0  0  0  0  # atno 17370 bound_to 10713
  155.9965  130.3905  150.2777 LP  0  0  0  0  0  0  0  0  0  0  0  0  # atno 17371 bound_to 10713
  141.0049  133.7129  156.1019 LP  0  0  0  0  0  0  0  0  0  0  0  0  # atno 17394 bound_to 11000
  140.7447  134.4111  157.5550 LP  0  0  0  0  0  0  0  0  0  0  0  0  # atno 17395 bound_to 11000

$$$$
