AV-unprocessed.smi:2724|AV-procd|sdf|10507|dock2
  -GOLD-   2272014553D 1   1.00000     0.00000
 Structure written by MMmdl.
 25 26  0  0  0  0  0  0  0  0  1 V2000
  151.7440  144.2330  162.1668 O   0  0  0  0  0  0  0  0  0  0  0  0
  152.2142  144.3224  160.8379 C   0  0  2  0  0  0  0  0  0  0  0  0
  151.5022  145.4353  160.0706 C   0  0  0  0  0  0  0  0  0  0  0  0
  151.7044  145.0602  158.6031 C   0  0  0  0  0  0  0  0  0  0  0  0
  151.7501  143.5257  158.5669 C   0  0  0  0  0  0  0  0  0  0  0  0
  151.9056  143.0530  160.0269 C   0  0  1  0  0  0  0  0  0  0  0  0
  152.9363  141.9445  160.1986 C   0  0  0  0  0  0  0  0  0  0  0  0
  153.5031  141.6509  161.4582 C   0  0  0  0  0  0  0  0  0  0  0  0
  154.4506  140.6141  161.5547 C   0  0  0  0  0  0  0  0  0  0  0  0
  154.7944  139.9093  160.3844 C   0  0  0  0  0  0  0  0  0  0  0  0
  154.2607  140.1789  159.1738 N   0  0  0  0  0  0  0  0  0  0  0  0
  153.3533  141.1755  159.0904 C   0  0  0  0  0  0  0  0  0  0  0  0
  151.0931  143.5490  162.2082 H   0  0  0  0  0  0  0  0  0  0  0  0
  153.2840  144.5333  160.8437 H   0  0  0  0  0  0  0  0  0  0  0  0
  150.4356  145.4288  160.3012 H   0  0  0  0  0  0  0  0  0  0  0  0
  151.8890  146.4266  160.3089 H   0  0  0  0  0  0  0  0  0  0  0  0
  150.9235  145.4689  157.9613 H   0  0  0  0  0  0  0  0  0  0  0  0
  152.6577  145.4599  158.2552 H   0  0  0  0  0  0  0  0  0  0  0  0
  150.8398  143.1123  158.1315 H   0  0  0  0  0  0  0  0  0  0  0  0
  152.5774  143.2014  157.9346 H   0  0  0  0  0  0  0  0  0  0  0  0
  150.9319  142.6758  160.3457 H   0  0  0  0  0  0  0  0  0  0  0  0
  153.2196  142.2103  162.3377 H   0  0  0  0  0  0  0  0  0  0  0  0
  154.9036  140.3655  162.5029 H   0  0  0  0  0  0  0  0  0  0  0  0
  155.5179  139.1084  160.4218 H   0  0  0  0  0  0  0  0  0  0  0  0
  152.9492  141.3627  158.1063 H   0  0  0  0  0  0  0  0  0  0  0  0
  1  2  1  0  0  0  0
  1 13  1  0  0  0  0
  2  6  1  0  0  0  0
  2  3  1  0  0  0  0
  2 14  1  0  0  0  0
  3  4  1  0  0  0  0
  3 15  1  0  0  0  0
  3 16  1  0  0  0  0
  4  5  1  0  0  0  0
  4 17  1  0  0  0  0
  4 18  1  0  0  0  0
  5  6  1  0  0  0  0
  5 19  1  0  0  0  0
  5 20  1  0  0  0  0
  6  7  1  0  0  0  0
  6 21  1  0  0  0  0
  7 12  1  0  0  0  0
  7  8  2  0  0  0  0
  8  9  1  0  0  0  0
  8 22  1  0  0  0  0
  9 10  2  0  0  0  0
  9 23  1  0  0  0  0
 10 11  1  0  0  0  0
 10 24  1  0  0  0  0
 11 12  2  0  0  0  0
 12 25  1  0  0  0  0
M  END
> <s_m_source_file>
AV-unprocessed.smi

> <i_m_source_file_index>
2724

> <i_lp_mmshare_version>
43012

> <i_f3d_flags>
0

> <s_epik_input>
W09IXVtDQEBIXTFbQ0gyXVtDSDJdW0NIMl1bQ0BIXTFjMltjSF1bY0hdW2NIXW5bY0hdMg==

> <s_epik_cmdline>
J2VwaWtfcHl0aG9uJywgJy1waCcsICc3LjAnLCAnLXRuJywgJzgnLCAnLW1hJywgJzIwMCcsICctbWV0YWxfYmluZGluZycsICctaW1hZScsICc8aW5maWxlLm1hZT4nLCAnLW9tYWUnLCAnPG91dGZpbGUubWFlPic=

> <r_epik_Ionization_Penalty>
0.0175299

> <r_epik_Ionization_Penalty_Charging>
0

> <r_epik_Ionization_Penalty_Neutral>
0.0175299

> <r_epik_State_Penalty>
0.0138989

> <r_epik_Charging_Adjusted_Penalty>
0.0138989

> <i_epik_Tot_Q>
0

> <i_epik_Tot_abs_Q>
0

> <r_epik_Metal_State_Penalty>
1.40631e-05

> <b_epik_Metal_Only>
0

> <s_lp_Force_Field>
OPLS_2005

> <r_lp_Energy>
19.5065

> <b_lp_Chiralities_Consistent>
1

> <s_lp_Variant>
AV-unprocessed.smi:2724-1

> <Gold.Version>
5.8.1

> <Gold.Id.Protein>
6NUR|6NUR_protein|mol2

> <Gold.PLP.Fitness>
38.4091

> <Gold.PLP.PLP>
-36.6397

> <Gold.PLP.part.hbond>
-3.0000

> <Gold.PLP.part.metal>
0.0000

> <Gold.PLP.part.buried>
-4.0410

> <Gold.PLP.part.nonpolar>
-28.6414

> <Gold.PLP.part.repulsive>
0.0000

> <Gold.PLP.ligand.clash>
0.0000

> <Gold.PLP.ligand.torsion>
0.5316

> <Gold.PLP.Chemscore.Hbond>
0.9440

> <Gold.PLP.Chemscore.CHOScore>
0.0000

> <Gold.PLP.Chemscore.Metal>
0.0000

> <Gold.Chemscore.Hbonds>
donor molecule, donor type, donor heavy atom, donor atom, acceptor molecule, acceptor atom, score
      P1  H  7997  8009       L1    11  0.94

> <Gold.PLP.Chemscore.Internal.Correction>
0.0005

> <Gold.Rescore>
     Score         DG    S(hbond)    S(metal)    S(lipo)     H(rot)  DE(clash)    DE(int)     intcor
     15.50     -16.65       0.73        0.00     103.43       1.32       0.80       0.35       ----

> <Gold.Chemscore.Fitness>
15.4994

> <Gold.Chemscore.DG>
-16.6522

> <Gold.Chemscore.ZeroCoef>
-5.4800

> <Gold.Chemscore.Hbond>
0.7331

> <Gold.Chemscore.Metal>
0.0000

> <Gold.Chemscore.Lipo>
103.4266

> <Gold.Chemscore.Internal_Hbond>
0.0000

> <Gold.Chemscore.DEClash>
0.8008

> <Gold.Chemscore.DEInternal>
0.3521

> <Gold.Chemscore.Rot>
1.3192

> <Gold.Chemscore.Internal.Correction>
   9.000000E+99

> <Gold.Chemscore.Hbonds>
donor molecule, donor type, donor heavy atom, donor atom, acceptor molecule, acceptor atom, score
      P1  H  7997  8009       L1    11  0.39

> <Gold.Chemscore.Hbond.Weighted>
-2.4485

> <Gold.Chemscore.Metal.Weighted>
-0.0000

> <Gold.Chemscore.Lipo.Weighted>
-12.1009

> <Gold.Chemscore.Internal_Hbond.Weighted>
0.0000

> <Gold.Chemscore.DEClash.Weighted>
0.8008

> <Gold.Chemscore.DEInternal.Weighted>
0.3521

> <Gold.Chemscore.Rot.Weighted>
3.3772

> <Gold.Chemscore.Internal.Correction.Weighted>
   9.000000E+99

> <Gold.Protein.RotatedTorsions>
[ 6907 6896 6895 6894 ] final  -35.85 input  -60.11 | X-H torsion
[ 7974 7965 7964 7962 ] final  103.61 input  175.53 | X-H torsion
[ 8008 7997 7996 7995 ] final  126.13 input   59.86 | X-H torsion
[ 10167 10162 10161 10158 ] final  139.15 input  -65.29 | X-H torsion
[ 10718 10713 10712 10709 ] final  -70.69 input   66.30 | X-H torsion
[ 10763 10752 10751 10750 ] final -158.44 input  -60.55 | X-H torsion
[ 11005 11000 10999 10996 ] final   57.83 input  -57.11 | X-H torsion

> <Gold.Protein.ActiveResidues>
 VAL166  LYS551  ARG553  GLY616  TRP617  ASP618  TYR619  PRO620  LYS621  CYS622 
 ASP623  PHE694  ASN695  SER759  ASP760  ASP761  ALA762  ILE779  LEU786  VAL792 
 PHE793  MET794  SER795  GLU796  ALA797  LYS798  CYS799  TRP800  GLU811  SER814 

> <Gold.Protein.RotatedAtoms>
  151.0346  134.9564  159.8129 H   0  0  0  0  0  0  0  0  0  0  0  0  # atno 6907 bound_to 6896
  152.5352  134.2736  159.8991 H   0  0  0  0  0  0  0  0  0  0  0  0  # atno 6908 bound_to 6896
  151.2746  133.4196  159.2657 H   0  0  0  0  0  0  0  0  0  0  0  0  # atno 6909 bound_to 6896
  145.3437  139.2456  143.3596 H   0  0  0  0  0  0  0  0  0  0  0  0  # atno 7974 bound_to 7965
  156.2855  140.2700  156.2061 H   0  0  0  0  0  0  0  0  0  0  0  0  # atno 8008 bound_to 7997
  155.0312  140.0386  157.2492 H   0  0  0  0  0  0  0  0  0  0  0  0  # atno 8009 bound_to 7997
  154.7353  140.2714  155.6425 H   0  0  0  0  0  0  0  0  0  0  0  0  # atno 8010 bound_to 7997
  139.5088  144.6312  151.5813 H   0  0  0  0  0  0  0  0  0  0  0  0  # atno 10167 bound_to 10162
  156.0396  130.4336  150.2333 H   0  0  0  0  0  0  0  0  0  0  0  0  # atno 10718 bound_to 10713
  154.7556  135.3104  154.8476 H   0  0  0  0  0  0  0  0  0  0  0  0  # atno 10763 bound_to 10752
  153.9250  135.6791  153.4751 H   0  0  0  0  0  0  0  0  0  0  0  0  # atno 10764 bound_to 10752
  153.1153  135.4847  154.9035 H   0  0  0  0  0  0  0  0  0  0  0  0  # atno 10765 bound_to 10752
  140.0423  134.5855  155.9366 H   0  0  0  0  0  0  0  0  0  0  0  0  # atno 11005 bound_to 11000
  146.2997  140.4039  142.8708 LP  0  0  0  0  0  0  0  0  0  0  0  0  # atno 17320 bound_to 7965
  144.8771  140.7351  143.6010 LP  0  0  0  0  0  0  0  0  0  0  0  0  # atno 17321 bound_to 7965
  140.6045  143.9550  150.6409 LP  0  0  0  0  0  0  0  0  0  0  0  0  # atno 17342 bound_to 10162
  140.2772  143.3414  152.1184 LP  0  0  0  0  0  0  0  0  0  0  0  0  # atno 17343 bound_to 10162
  157.0429  131.0040  151.3278 LP  0  0  0  0  0  0  0  0  0  0  0  0  # atno 17370 bound_to 10713
  157.5196  130.7990  149.7794 LP  0  0  0  0  0  0  0  0  0  0  0  0  # atno 17371 bound_to 10713
  141.1889  133.6564  156.5346 LP  0  0  0  0  0  0  0  0  0  0  0  0  # atno 17394 bound_to 11000
  140.4049  134.7324  157.4802 LP  0  0  0  0  0  0  0  0  0  0  0  0  # atno 17395 bound_to 11000

$$$$
