AV-unprocessed.smi:2430|AV-procd|sdf|9584|dock1
  -GOLD-   2272013213D 1   1.00000     0.00000
 Structure written by MMmdl.
 46 47  0  0  0  0  0  0  0  0  1 V2000
  151.3447  144.7246  158.3604 C   0  0  0  0  0  0  0  0  0  0  0  0
  152.0721  143.3788  158.2744 C   0  0  2  0  0  0  0  0  0  0  0  0
  151.1923  142.2854  157.6401 C   0  0  0  0  0  0  0  0  0  0  0  0
  151.8621  140.9885  157.6897 N   0  0  0  0  0  0  0  0  0  0  0  0
  151.3548  139.9305  156.8999 C   0  0  0  0  0  0  0  0  0  0  0  0
  150.9858  140.1097  155.5426 C   0  0  0  0  0  0  0  0  0  0  0  0
  150.5009  139.0093  154.8109 C   0  0  0  0  0  0  0  0  0  0  0  0
  150.4009  137.7525  155.4369 C   0  0  0  0  0  0  0  0  0  0  0  0
  149.8905  136.6649  154.6777 N   0  0  0  0  0  0  0  0  0  0  0  0
  149.7072  135.3898  155.0616 C   0  0  0  0  0  0  0  0  0  0  0  0
  150.0012  134.9284  156.1642 O   0  0  0  0  0  0  0  0  0  0  0  0
  149.1716  134.6585  154.0740 N   0  0  0  0  0  0  0  0  0  0  0  0
  148.8473  133.2394  154.1651 C   0  0  0  0  0  0  0  0  0  0  0  0
  148.3676  132.6809  152.8154 C   0  0  0  0  0  0  0  0  0  0  0  0
  146.9493  133.1461  152.4616 C   0  0  0  0  0  0  0  0  0  0  0  0
  146.9165  134.5536  152.3656 O   0  0  0  0  0  0  0  0  0  0  0  0
  150.7788  137.6690  156.7972 C   0  0  0  0  0  0  0  0  0  0  0  0
  151.2430  138.7219  157.5019 N   0  0  0  0  0  0  0  0  0  0  0  0
  152.3706  140.6351  159.0149 C   0  0  0  0  0  0  0  0  0  0  0  0
  153.2093  141.7859  159.6019 C   0  0  2  0  0  0  0  0  0  0  0  0
  153.6419  141.5038  161.0444 C   0  0  0  0  0  0  0  0  0  0  0  0
  152.4366  142.9825  159.5929 O   0  0  0  0  0  0  0  0  0  0  0  0
  151.0524  145.0767  157.3707 H   0  0  0  0  0  0  0  0  0  0  0  0
  151.9850  145.4852  158.8076 H   0  0  0  0  0  0  0  0  0  0  0  0
  150.4432  144.6479  158.9689 H   0  0  0  0  0  0  0  0  0  0  0  0
  152.9766  143.5129  157.6783 H   0  0  0  0  0  0  0  0  0  0  0  0
  150.2376  142.2151  158.1631 H   0  0  0  0  0  0  0  0  0  0  0  0
  150.9848  142.5641  156.6065 H   0  0  0  0  0  0  0  0  0  0  0  0
  151.0547  141.0660  155.0473 H   0  0  0  0  0  0  0  0  0  0  0  0
  150.2117  139.1332  153.7773 H   0  0  0  0  0  0  0  0  0  0  0  0
  149.6786  136.8729  153.7129 H   0  0  0  0  0  0  0  0  0  0  0  0
  148.9677  135.1167  153.1978 H   0  0  0  0  0  0  0  0  0  0  0  0
  149.7433  132.7089  154.4890 H   0  0  0  0  0  0  0  0  0  0  0  0
  148.0935  133.0753  154.9373 H   0  0  0  0  0  0  0  0  0  0  0  0
  149.0541  132.9891  152.0254 H   0  0  0  0  0  0  0  0  0  0  0  0
  148.3969  131.5905  152.8426 H   0  0  0  0  0  0  0  0  0  0  0  0
  146.6285  132.7177  151.5118 H   0  0  0  0  0  0  0  0  0  0  0  0
  146.2380  132.8252  153.2233 H   0  0  0  0  0  0  0  0  0  0  0  0
  147.7906  134.8634  152.1832 H   0  0  0  0  0  0  0  0  0  0  0  0
  150.6965  136.7532  157.3607 H   0  0  0  0  0  0  0  0  0  0  0  0
  151.5231  140.4155  159.6654 H   0  0  0  0  0  0  0  0  0  0  0  0
  152.9878  139.7373  158.9826 H   0  0  0  0  0  0  0  0  0  0  0  0
  154.1050  141.9332  158.9957 H   0  0  0  0  0  0  0  0  0  0  0  0
  154.2496  140.6003  161.1017 H   0  0  0  0  0  0  0  0  0  0  0  0
  152.7784  141.3689  161.6962 H   0  0  0  0  0  0  0  0  0  0  0  0
  154.2341  142.3282  161.4418 H   0  0  0  0  0  0  0  0  0  0  0  0
  1  2  1  0  0  0  0
  1 23  1  0  0  0  0
  1 24  1  0  0  0  0
  1 25  1  0  0  0  0
  2 22  1  0  0  0  0
  2  3  1  0  0  0  0
  2 26  1  0  0  0  0
  3  4  1  0  0  0  0
  3 27  1  0  0  0  0
  3 28  1  0  0  0  0
  4  5  1  0  0  0  0
  4 19  1  0  0  0  0
  5 18  1  0  0  0  0
  5  6  2  0  0  0  0
  6  7  1  0  0  0  0
  6 29  1  0  0  0  0
  7  8  2  0  0  0  0
  7 30  1  0  0  0  0
  8  9  1  0  0  0  0
  8 17  1  0  0  0  0
  9 10  1  0  0  0  0
  9 31  1  0  0  0  0
 10 11  2  0  0  0  0
 10 12  1  0  0  0  0
 12 13  1  0  0  0  0
 12 32  1  0  0  0  0
 13 14  1  0  0  0  0
 13 33  1  0  0  0  0
 13 34  1  0  0  0  0
 14 15  1  0  0  0  0
 14 35  1  0  0  0  0
 14 36  1  0  0  0  0
 15 16  1  0  0  0  0
 15 37  1  0  0  0  0
 15 38  1  0  0  0  0
 16 39  1  0  0  0  0
 17 18  2  0  0  0  0
 17 40  1  0  0  0  0
 19 20  1  0  0  0  0
 19 41  1  0  0  0  0
 19 42  1  0  0  0  0
 20 21  1  0  0  0  0
 20 22  1  0  0  0  0
 20 43  1  0  0  0  0
 21 44  1  0  0  0  0
 21 45  1  0  0  0  0
 21 46  1  0  0  0  0
M  END
> <s_m_source_file>
AV-unprocessed.smi

> <i_m_source_file_index>
2430

> <i_lp_mmshare_version>
43012

> <i_f3d_flags>
0

> <s_epik_input>
W0NIM11bQ0BASF0xW0NIMl1OKFtDSDJdW0NASF0oTzEpW0NIM10pYzJbY0hdW2NIXWMoW2NIXW4yKVtOSF1DKD1PKVtOSF1bQ0gyXVtDSDJdW0NIMl1bT0hd

> <s_epik_cmdline>
J2VwaWtfcHl0aG9uJywgJy1waCcsICc3LjAnLCAnLXRuJywgJzgnLCAnLW1hJywgJzIwMCcsICctbWV0YWxfYmluZGluZycsICctaW1hZScsICc8aW5maWxlLm1hZT4nLCAnLW9tYWUnLCAnPG91dGZpbGUubWFlPic=

> <r_lp_tautomer_probability>
1

> <r_epik_Ionization_Penalty>
0.00269907

> <r_epik_Ionization_Penalty_Charging>
0

> <r_epik_Ionization_Penalty_Neutral>
0.00269907

> <r_epik_State_Penalty>
0.00185337

> <r_epik_Charging_Adjusted_Penalty>
0.00185337

> <i_epik_Tot_Q>
0

> <i_epik_Tot_abs_Q>
0

> <r_epik_Metal_State_Penalty>
-0

> <b_epik_Metal_Only>
0

> <s_lp_Force_Field>
OPLS_2005

> <r_lp_Energy>
18.4655

> <b_lp_Chiralities_Consistent>
1

> <s_lp_Variant>
AV-unprocessed.smi:2430-2

> <Gold.Version>
5.8.1

> <Gold.Id.Protein>
6NUR|6NUR_protein|mol2

> <Gold.PLP.Fitness>
49.3093

> <Gold.PLP.PLP>
-40.7238

> <Gold.PLP.part.hbond>
-3.0000

> <Gold.PLP.part.metal>
0.0000

> <Gold.PLP.part.buried>
-5.4252

> <Gold.PLP.part.nonpolar>
-32.8283

> <Gold.PLP.part.repulsive>
0.0667

> <Gold.PLP.ligand.clash>
0.0000

> <Gold.PLP.ligand.torsion>
0.2992

> <Gold.PLP.Chemscore.Hbond>
2.9027

> <Gold.PLP.Chemscore.CHOScore>
0.0000

> <Gold.PLP.Chemscore.Metal>
0.0000

> <Gold.Chemscore.Hbonds>
donor molecule, donor type, donor heavy atom, donor atom, acceptor molecule, acceptor atom, score
      L1  H     9    31       P1  7948  0.92
      L1  H    12    32       P1  7948  1.00
      L1  H    16    39       P1  7948  1.00

> <Gold.PLP.Chemscore.Internal.Correction>
0.4758

> <Gold.Rescore>
     Score         DG    S(hbond)    S(metal)    S(lipo)     H(rot)  DE(clash)    DE(int)     intcor
     16.82     -19.74       2.57        0.00      99.56       2.33       0.05       2.87       ----

> <Gold.Chemscore.Fitness>
16.8219

> <Gold.Chemscore.DG>
-19.7421

> <Gold.Chemscore.ZeroCoef>
-5.4800

> <Gold.Chemscore.Hbond>
2.5720

> <Gold.Chemscore.Metal>
0.0000

> <Gold.Chemscore.Lipo>
99.5555

> <Gold.Chemscore.Internal_Hbond>
0.0000

> <Gold.Chemscore.DEClash>
0.0518

> <Gold.Chemscore.DEInternal>
2.8684

> <Gold.Chemscore.Rot>
2.3346

> <Gold.Chemscore.Internal.Correction>
   9.000000E+99

> <Gold.Chemscore.Hbonds>
donor molecule, donor type, donor heavy atom, donor atom, acceptor molecule, acceptor atom, score
      L1  H     9    31       P1  7948  0.58
      L1  H    12    32       P1  7948  0.30
      L1  H    16    39       P1  7948  0.72

> <Gold.Chemscore.Hbond.Weighted>
-8.5906

> <Gold.Chemscore.Metal.Weighted>
-0.0000

> <Gold.Chemscore.Lipo.Weighted>
-11.6480

> <Gold.Chemscore.Internal_Hbond.Weighted>
0.0000

> <Gold.Chemscore.DEClash.Weighted>
0.0518

> <Gold.Chemscore.DEInternal.Weighted>
2.8684

> <Gold.Chemscore.Rot.Weighted>
5.9766

> <Gold.Chemscore.Internal.Correction.Weighted>
   9.000000E+99

> <Gold.Protein.RotatedTorsions>
[ 6907 6896 6895 6894 ] final -147.78 input  -60.11 | X-H torsion
[ 7974 7965 7964 7962 ] final   91.09 input  175.53 | X-H torsion
[ 8008 7997 7996 7995 ] final  -47.15 input   59.86 | X-H torsion
[ 10167 10162 10161 10158 ] final  123.10 input  -65.29 | X-H torsion
[ 10718 10713 10712 10709 ] final   54.79 input   66.30 | X-H torsion
[ 10763 10752 10751 10750 ] final   40.19 input  -60.55 | X-H torsion
[ 11005 11000 10999 10996 ] final   -0.39 input  -57.11 | X-H torsion

> <Gold.Protein.ActiveResidues>
 VAL166  LYS551  ARG553  GLY616  TRP617  ASP618  TYR619  PRO620  LYS621  CYS622 
 ASP623  PHE694  ASN695  SER759  ASP760  ASP761  ALA762  ILE779  LEU786  VAL792 
 PHE793  MET794  SER795  GLU796  ALA797  LYS798  CYS799  TRP800  GLU811  SER814 

> <Gold.Protein.RotatedAtoms>
  151.1605  133.4848  159.2594 H   0  0  0  0  0  0  0  0  0  0  0  0  # atno 6907 bound_to 6896
  151.1460  135.0203  159.8657 H   0  0  0  0  0  0  0  0  0  0  0  0  # atno 6908 bound_to 6896
  152.5463  134.1494  159.8565 H   0  0  0  0  0  0  0  0  0  0  0  0  # atno 6909 bound_to 6896
  145.5103  139.2277  143.2728 H   0  0  0  0  0  0  0  0  0  0  0  0  # atno 7974 bound_to 7965
  154.4014  140.1353  156.4128 H   0  0  0  0  0  0  0  0  0  0  0  0  # atno 8008 bound_to 7997
  155.7717  140.3483  155.5230 H   0  0  0  0  0  0  0  0  0  0  0  0  # atno 8009 bound_to 7997
  155.8760  140.0979  157.1508 H   0  0  0  0  0  0  0  0  0  0  0  0  # atno 8010 bound_to 7997
  139.5819  144.6990  151.3507 H   0  0  0  0  0  0  0  0  0  0  0  0  # atno 10167 bound_to 10162
  157.5288  130.8616  149.8658 H   0  0  0  0  0  0  0  0  0  0  0  0  # atno 10718 bound_to 10713
  152.9944  135.6199  154.2586 H   0  0  0  0  0  0  0  0  0  0  0  0  # atno 10763 bound_to 10752
  154.2322  135.2791  155.2887 H   0  0  0  0  0  0  0  0  0  0  0  0  # atno 10764 bound_to 10752
  154.5440  135.5753  153.6921 H   0  0  0  0  0  0  0  0  0  0  0  0  # atno 10765 bound_to 10752
  140.6357  133.9535  155.8298 H   0  0  0  0  0  0  0  0  0  0  0  0  # atno 11005 bound_to 11000
  146.2171  140.5909  142.9034 LP  0  0  0  0  0  0  0  0  0  0  0  0  # atno 17320 bound_to 7965
  144.7731  140.5681  143.6656 LP  0  0  0  0  0  0  0  0  0  0  0  0  # atno 17321 bound_to 7965
  140.7096  143.7425  150.7543 LP  0  0  0  0  0  0  0  0  0  0  0  0  # atno 17342 bound_to 10162
  140.0959  143.4833  152.2452 LP  0  0  0  0  0  0  0  0  0  0  0  0  # atno 17343 bound_to 10162
  156.0407  130.3740  150.1444 LP  0  0  0  0  0  0  0  0  0  0  0  0  # atno 17370 bound_to 10713
  156.9629  130.9810  151.3475 LP  0  0  0  0  0  0  0  0  0  0  0  0  # atno 17371 bound_to 10713
  141.0643  134.0300  157.3615 LP  0  0  0  0  0  0  0  0  0  0  0  0  # atno 17394 bound_to 11000
  139.9099  135.0188  156.7647 LP  0  0  0  0  0  0  0  0  0  0  0  0  # atno 17395 bound_to 11000

$$$$
