AV-unprocessed.smi:2514|AV-procd|sdf|9896|dock6
  -GOLD-   2272013533D 1   1.00000     0.00000
 Structure written by MMmdl.
 24 25  0  0  0  0  0  0  0  0  1 V2000
  152.7728  144.6003  158.2777 C   0  0  0  0  0  0  0  0  0  0  0  0
  151.4624  143.8612  158.5766 C   0  0  1  0  0  0  0  0  0  0  0  0
  150.3651  144.6627  158.1876 O   0  0  0  0  0  0  0  0  0  0  0  0
  151.3476  142.5619  157.8297 C   0  0  0  0  0  0  0  0  0  0  0  0
  150.4313  142.2016  156.8824 C   0  0  0  0  0  0  0  0  0  0  0  0
  150.7983  140.9140  156.5531 N   0  0  0  0  0  0  0  0  0  0  0  0
  150.1654  140.0472  155.6011 C   0  0  0  0  0  0  0  0  0  0  0  0
  150.9372  139.4040  154.4440 C   0  0  0  0  0  0  0  0  0  0  0  0
  149.7283  139.5688  153.6548 N   0  0  0  0  0  0  0  0  0  0  0  0
  149.2505  140.6308  154.5242 C   0  0  0  0  0  0  0  0  0  0  0  0
  151.8753  140.5048  157.2649 N   0  0  0  0  0  0  0  0  0  0  0  0
  152.2179  141.4883  158.0360 N   0  0  0  0  0  0  0  0  0  0  0  0
  153.6346  143.9966  158.5634 H   0  0  0  0  0  0  0  0  0  0  0  0
  152.8292  145.5385  158.8299 H   0  0  0  0  0  0  0  0  0  0  0  0
  152.8661  144.8328  157.2162 H   0  0  0  0  0  0  0  0  0  0  0  0
  151.3863  143.6850  159.6501 H   0  0  0  0  0  0  0  0  0  0  0  0
  150.1329  144.4406  157.2990 H   0  0  0  0  0  0  0  0  0  0  0  0
  149.5948  142.7202  156.4376 H   0  0  0  0  0  0  0  0  0  0  0  0
  149.6429  139.2861  156.1851 H   0  0  0  0  0  0  0  0  0  0  0  0
  151.7610  140.0014  154.0507 H   0  0  0  0  0  0  0  0  0  0  0  0
  151.2177  138.3643  154.6143 H   0  0  0  0  0  0  0  0  0  0  0  0
  149.9216  139.8960  152.7187 H   0  0  0  0  0  0  0  0  0  0  0  0
  148.1873  140.5697  154.7579 H   0  0  0  0  0  0  0  0  0  0  0  0
  149.5465  141.6185  154.1674 H   0  0  0  0  0  0  0  0  0  0  0  0
  1  2  1  0  0  0  0
  1 13  1  0  0  0  0
  1 14  1  0  0  0  0
  1 15  1  0  0  0  0
  2  3  1  0  0  0  0
  2  4  1  0  0  0  0
  2 16  1  0  0  0  0
  3 17  1  0  0  0  0
  4 12  1  0  0  0  0
  4  5  2  0  0  0  0
  5  6  1  0  0  0  0
  5 18  1  0  0  0  0
  6  7  1  0  0  0  0
  6 11  1  0  0  0  0
  7 10  1  0  0  0  0
  7  8  1  0  0  0  0
  7 19  1  0  0  0  0
  8  9  1  0  0  0  0
  8 20  1  0  0  0  0
  8 21  1  0  0  0  0
  9 10  1  0  0  0  0
  9 22  1  0  0  0  0
 10 23  1  0  0  0  0
 10 24  1  0  0  0  0
 11 12  2  0  0  0  0
M  END
> <s_m_source_file>
AV-unprocessed.smi

> <i_m_source_file_index>
2514

> <i_lp_mmshare_version>
43012

> <i_f3d_flags>
0

> <s_epik_input>
W0NIM11bQ0BIXShbT0hdKWMxW2NIXW4obm4xKVtDSF0yW0NIMl1bTkhdW0NIMl0y

> <s_epik_cmdline>
J2VwaWtfcHl0aG9uJywgJy1waCcsICc3LjAnLCAnLXRuJywgJzgnLCAnLW1hJywgJzIwMCcsICctbWV0YWxfYmluZGluZycsICctaW1hZScsICc8aW5maWxlLm1hZT4nLCAnLW9tYWUnLCAnPG91dGZpbGUubWFlPic=

> <r_lp_tautomer_probability>
1

> <r_epik_Ionization_Penalty>
0.704859

> <r_epik_Ionization_Penalty_Charging>
0

> <r_epik_Ionization_Penalty_Neutral>
0.704859

> <r_epik_State_Penalty>
0.727806

> <r_epik_Charging_Adjusted_Penalty>
0.727806

> <i_epik_Tot_Q>
0

> <i_epik_Tot_abs_Q>
0

> <r_epik_Metal_State_Penalty>
0.727738

> <b_epik_Metal_Only>
0

> <s_lp_Force_Field>
OPLS_2005

> <r_lp_Energy>
11.7069

> <b_lp_Chiralities_Consistent>
1

> <s_lp_Variant>
AV-unprocessed.smi:2514-4

> <Gold.Version>
5.8.1

> <Gold.Id.Protein>
6NUR|6NUR_protein|mol2

> <Gold.PLP.Fitness>
33.8506

> <Gold.PLP.PLP>
-25.5536

> <Gold.PLP.part.hbond>
-3.6907

> <Gold.PLP.part.metal>
0.0000

> <Gold.PLP.part.buried>
-0.4863

> <Gold.PLP.part.nonpolar>
-21.5225

> <Gold.PLP.part.repulsive>
0.0000

> <Gold.PLP.ligand.clash>
0.0000

> <Gold.PLP.ligand.torsion>
0.3105

> <Gold.PLP.Chemscore.Hbond>
1.9040

> <Gold.PLP.Chemscore.CHOScore>
1.0000

> <Gold.PLP.Chemscore.Metal>
0.0000

> <Gold.Chemscore.Hbonds>
donor molecule, donor type, donor heavy atom, donor atom, acceptor molecule, acceptor atom, score
      L1  H     3    17       P1  8028  0.92
      L1  H     9    22       P1  7957  1.00
      L1  C     5    18       P1  8028  1.00

> <Gold.PLP.Chemscore.Internal.Correction>
0.2060

> <Gold.Rescore>
     Score         DG    S(hbond)    S(metal)    S(lipo)     H(rot)  DE(clash)    DE(int)     intcor
     13.36     -13.62       1.63        0.00      61.90       1.78       0.09       0.17       ----

> <Gold.Chemscore.Fitness>
13.3580

> <Gold.Chemscore.DG>
-13.6166

> <Gold.Chemscore.ZeroCoef>
-5.4800

> <Gold.Chemscore.Hbond>
1.6339

> <Gold.Chemscore.Metal>
0.0000

> <Gold.Chemscore.Lipo>
61.8988

> <Gold.Chemscore.Internal_Hbond>
0.0000

> <Gold.Chemscore.DEClash>
0.0876

> <Gold.Chemscore.DEInternal>
0.1711

> <Gold.Chemscore.Rot>
1.7823

> <Gold.Chemscore.Internal.Correction>
   9.000000E+99

> <Gold.Chemscore.Hbonds>
donor molecule, donor type, donor heavy atom, donor atom, acceptor molecule, acceptor atom, score
      L1  H     3    17       P1  8028  0.42
      L1  H     9    22       P1  7957  0.96

> <Gold.Chemscore.Hbond.Weighted>
-5.4572

> <Gold.Chemscore.Metal.Weighted>
-0.0000

> <Gold.Chemscore.Lipo.Weighted>
-7.2422

> <Gold.Chemscore.Internal_Hbond.Weighted>
0.0000

> <Gold.Chemscore.DEClash.Weighted>
0.0876

> <Gold.Chemscore.DEInternal.Weighted>
0.1711

> <Gold.Chemscore.Rot.Weighted>
4.5627

> <Gold.Chemscore.Internal.Correction.Weighted>
   9.000000E+99

> <Gold.Protein.RotatedTorsions>
[ 6907 6896 6895 6894 ] final  116.18 input  -60.11 | X-H torsion
[ 7974 7965 7964 7962 ] final  157.80 input  175.53 | X-H torsion
[ 8008 7997 7996 7995 ] final -146.32 input   59.86 | X-H torsion
[ 10167 10162 10161 10158 ] final -169.37 input  -65.29 | X-H torsion
[ 10718 10713 10712 10709 ] final  137.00 input   66.30 | X-H torsion
[ 10763 10752 10751 10750 ] final -136.34 input  -60.55 | X-H torsion
[ 11005 11000 10999 10996 ] final  -37.39 input  -57.11 | X-H torsion

> <Gold.Protein.ActiveResidues>
 VAL166  LYS551  ARG553  GLY616  TRP617  ASP618  TYR619  PRO620  LYS621  CYS622 
 ASP623  PHE694  ASN695  SER759  ASP760  ASP761  ALA762  ILE779  LEU786  VAL792 
 PHE793  MET794  SER795  GLU796  ALA797  LYS798  CYS799  TRP800  GLU811  SER814 

> <Gold.Protein.RotatedAtoms>
  152.4694  133.7996  159.6945 H   0  0  0  0  0  0  0  0  0  0  0  0  # atno 6907 bound_to 6896
  150.8676  133.7543  159.2978 H   0  0  0  0  0  0  0  0  0  0  0  0  # atno 6908 bound_to 6896
  151.5088  135.1067  159.9900 H   0  0  0  0  0  0  0  0  0  0  0  0  # atno 6909 bound_to 6896
  144.7882  139.7390  143.6232 H   0  0  0  0  0  0  0  0  0  0  0  0  # atno 7974 bound_to 7965
  155.5575  140.0622  157.2836 H   0  0  0  0  0  0  0  0  0  0  0  0  # atno 8008 bound_to 7997
  154.4401  140.1891  156.0794 H   0  0  0  0  0  0  0  0  0  0  0  0  # atno 8009 bound_to 7997
  156.0471  140.3289  155.7312 H   0  0  0  0  0  0  0  0  0  0  0  0  # atno 8010 bound_to 7997
  139.5927  144.1178  152.1653 H   0  0  0  0  0  0  0  0  0  0  0  0  # atno 10167 bound_to 10162
  157.4407  131.1057  151.0146 H   0  0  0  0  0  0  0  0  0  0  0  0  # atno 10718 bound_to 10713
  154.8686  135.3676  154.5044 H   0  0  0  0  0  0  0  0  0  0  0  0  # atno 10763 bound_to 10752
  153.5683  135.7021  153.5521 H   0  0  0  0  0  0  0  0  0  0  0  0  # atno 10764 bound_to 10752
  153.3565  135.4058  155.1649 H   0  0  0  0  0  0  0  0  0  0  0  0  # atno 10765 bound_to 10752
  140.9948  133.6986  156.1915 H   0  0  0  0  0  0  0  0  0  0  0  0  # atno 11005 bound_to 11000
  146.2123  139.5489  142.9672 LP  0  0  0  0  0  0  0  0  0  0  0  0  # atno 17320 bound_to 7965
  145.5864  141.0375  143.2094 LP  0  0  0  0  0  0  0  0  0  0  0  0  # atno 17321 bound_to 7965
  140.0756  144.5743  150.7159 LP  0  0  0  0  0  0  0  0  0  0  0  0  # atno 17342 bound_to 10162
  140.7186  143.2568  151.4352 LP  0  0  0  0  0  0  0  0  0  0  0  0  # atno 17343 bound_to 10162
  157.1010  130.5982  149.5460 LP  0  0  0  0  0  0  0  0  0  0  0  0  # atno 17370 bound_to 10713
  155.9947  130.5012  150.7432 LP  0  0  0  0  0  0  0  0  0  0  0  0  # atno 17371 bound_to 10713
  140.6983  134.4592  157.5587 LP  0  0  0  0  0  0  0  0  0  0  0  0  # atno 17394 bound_to 11000
  139.9009  134.8557  156.1899 LP  0  0  0  0  0  0  0  0  0  0  0  0  # atno 17395 bound_to 11000

$$$$
