AV-unprocessed.smi:499|AV-procd|sdf|2733|dock4
  -GOLD-   2262023183D 1   1.00000     0.00000
 Structure written by MMmdl.
 36 37  0  0  0  0  0  0  0  0  1 V2000
  146.9883  140.4112  154.0566 C   0  0  0  0  0  0  0  0  0  0  0  0
  147.1057  141.6857  154.9165 C   0  0  2  0  0  0  0  0  0  0  0  0
  146.5019  142.7926  154.1517 C   0  0  0  0  0  0  0  0  0  0  0  0
  146.0276  143.6595  153.5489 N   0  0  0  0  0  0  0  0  0  0  0  0
  148.5186  142.0179  155.1172 N   0  0  0  0  0  0  0  0  0  0  0  0
  149.4796  141.2558  155.6662 C   0  0  0  0  0  0  0  0  0  0  0  0
  149.2935  140.1069  156.0672 O   0  0  0  0  0  0  0  0  0  0  0  0
  150.8722  141.8963  155.7509 C   0  0  0  0  0  0  0  0  0  0  0  0
  151.4219  141.9103  157.1168 N   0  0  0  0  0  0  0  0  0  0  0  0
  151.1822  143.0604  157.8940 C   0  0  0  0  0  0  0  0  0  0  0  0
  151.6207  143.1940  159.1605 C   0  0  0  0  0  0  0  0  0  0  0  0
  151.3974  144.4735  159.9515 C   0  0  0  0  0  0  0  0  0  0  0  0
  151.9230  145.5078  159.2968 F   0  0  0  0  0  0  0  0  0  0  0  0
  150.0972  144.7102  160.1276 F   0  0  0  0  0  0  0  0  0  0  0  0
  151.9769  144.4046  161.1507 F   0  0  0  0  0  0  0  0  0  0  0  0
  152.3952  142.0910  159.6945 C   0  0  0  0  0  0  0  0  0  0  0  0
  152.6460  140.9897  158.9596 C   0  0  0  0  0  0  0  0  0  0  0  0
  152.1480  140.8530  157.5891 C   0  0  0  0  0  0  0  0  0  0  0  0
  152.3703  139.8519  156.9074 O   0  0  0  0  0  0  0  0  0  0  0  0
  146.3369  141.4951  156.2289 C   0  0  0  0  0  0  0  0  0  0  0  0
  144.8376  141.6709  156.3266 C   0  0  0  0  0  0  0  0  0  0  0  0
  145.7620  142.6539  157.0116 C   0  0  0  0  0  0  0  0  0  0  0  0
  145.9461  140.2018  153.8131 H   0  0  0  0  0  0  0  0  0  0  0  0
  147.3813  139.5320  154.5672 H   0  0  0  0  0  0  0  0  0  0  0  0
  147.5281  140.5170  153.1148 H   0  0  0  0  0  0  0  0  0  0  0  0
  148.7916  142.9425  154.8163 H   0  0  0  0  0  0  0  0  0  0  0  0
  151.5363  141.3541  155.0764 H   0  0  0  0  0  0  0  0  0  0  0  0
  150.8316  142.9126  155.3540 H   0  0  0  0  0  0  0  0  0  0  0  0
  150.6254  143.8363  157.3887 H   0  0  0  0  0  0  0  0  0  0  0  0
  152.7792  142.1463  160.7025 H   0  0  0  0  0  0  0  0  0  0  0  0
  153.2259  140.1868  159.3906 H   0  0  0  0  0  0  0  0  0  0  0  0
  146.7240  140.6785  156.8350 H   0  0  0  0  0  0  0  0  0  0  0  0
  144.2968  142.0180  155.4487 H   0  0  0  0  0  0  0  0  0  0  0  0
  144.2933  140.9711  156.9574 H   0  0  0  0  0  0  0  0  0  0  0  0
  145.8325  142.6064  158.0964 H   0  0  0  0  0  0  0  0  0  0  0  0
  145.8386  143.6525  156.5870 H   0  0  0  0  0  0  0  0  0  0  0  0
  1  2  1  0  0  0  0
  1 23  1  0  0  0  0
  1 24  1  0  0  0  0
  1 25  1  0  0  0  0
  2  3  1  0  0  0  0
  2  5  1  0  0  0  0
  2 20  1  0  0  0  0
  3  4  3  0  0  0  0
  5  6  1  0  0  0  0
  5 26  1  0  0  0  0
  6  7  2  0  0  0  0
  6  8  1  0  0  0  0
  8  9  1  0  0  0  0
  8 27  1  0  0  0  0
  8 28  1  0  0  0  0
  9 18  1  0  0  0  0
  9 10  1  0  0  0  0
 10 11  2  0  0  0  0
 10 29  1  0  0  0  0
 11 12  1  0  0  0  0
 11 16  1  0  0  0  0
 12 13  1  0  0  0  0
 12 14  1  0  0  0  0
 12 15  1  0  0  0  0
 16 17  2  0  0  0  0
 16 30  1  0  0  0  0
 17 18  1  0  0  0  0
 17 31  1  0  0  0  0
 18 19  2  0  0  0  0
 20 22  1  0  0  0  0
 20 21  1  0  0  0  0
 20 32  1  0  0  0  0
 21 22  1  0  0  0  0
 21 33  1  0  0  0  0
 21 34  1  0  0  0  0
 22 35  1  0  0  0  0
 22 36  1  0  0  0  0
M  END
> <s_m_source_file>
AV-unprocessed.smi

> <i_m_source_file_index>
499

> <i_lp_mmshare_version>
43012

> <i_f3d_flags>
0

> <s_epik_input>
W0NIMl0xW0NIMl1bQ0hdMVtDQF0oW0NIM10pKEMjTilbTkhdQyg9TylbQ0gyXW4yW2NIXWMoQyhGKShGKUYpW2NIXVtjSF1jMj1P

> <s_epik_cmdline>
J2VwaWtfcHl0aG9uJywgJy1waCcsICc3LjAnLCAnLXRuJywgJzgnLCAnLW1hJywgJzIwMCcsICctbWV0YWxfYmluZGluZycsICctaW1hZScsICc8aW5maWxlLm1hZT4nLCAnLW9tYWUnLCAnPG91dGZpbGUubWFlPic=

> <r_lp_tautomer_probability>
1

> <r_epik_Ionization_Penalty>
4.79953e-07

> <r_epik_Ionization_Penalty_Charging>
1.46911e-08

> <r_epik_Ionization_Penalty_Neutral>
4.65262e-07

> <r_epik_State_Penalty>
-0

> <r_epik_Charging_Adjusted_Penalty>
1.46911e-08

> <i_epik_Tot_Q>
0

> <i_epik_Tot_abs_Q>
0

> <r_epik_Metal_State_Penalty>
-0

> <b_epik_Metal_Only>
0

> <s_lp_Force_Field>
OPLS_2005

> <r_lp_Energy>
23.9412

> <b_lp_Chiralities_Consistent>
1

> <s_lp_Variant>
AV-unprocessed.smi:499-2

> <Gold.Version>
5.8.1

> <Gold.Id.Protein>
6NUR|6NUR_protein|mol2

> <Gold.PLP.Fitness>
48.5862

> <Gold.PLP.PLP>
-41.2291

> <Gold.PLP.part.hbond>
-2.5201

> <Gold.PLP.part.metal>
0.0000

> <Gold.PLP.part.buried>
-5.4355

> <Gold.PLP.part.nonpolar>
-33.1977

> <Gold.PLP.part.repulsive>
0.3864

> <Gold.PLP.ligand.clash>
0.0000

> <Gold.PLP.ligand.torsion>
1.1905

> <Gold.PLP.Chemscore.Hbond>
1.7110

> <Gold.PLP.Chemscore.CHOScore>
0.9983

> <Gold.PLP.Chemscore.Metal>
0.0000

> <Gold.Chemscore.Hbonds>
donor molecule, donor type, donor heavy atom, donor atom, acceptor molecule, acceptor atom, score
      L1  H     5    26       P1  8028  0.72
      P1  H  7997  8009       L1    19  0.94
      L1  C    10    29       P1  8028  0.86

> <Gold.PLP.Chemscore.Internal.Correction>
1.6102

> <Gold.Rescore>
     Score         DG    S(hbond)    S(metal)    S(lipo)     H(rot)  DE(clash)    DE(int)     intcor
     13.26     -14.79       1.77        0.00      70.63       1.90       0.24       1.30       ----

> <Gold.Chemscore.Fitness>
13.2597

> <Gold.Chemscore.DG>
-14.7946

> <Gold.Chemscore.ZeroCoef>
-5.4800

> <Gold.Chemscore.Hbond>
1.7734

> <Gold.Chemscore.Metal>
0.0000

> <Gold.Chemscore.Lipo>
70.6252

> <Gold.Chemscore.Internal_Hbond>
0.0000

> <Gold.Chemscore.DEClash>
0.2381

> <Gold.Chemscore.DEInternal>
1.2969

> <Gold.Chemscore.Rot>
1.9030

> <Gold.Chemscore.Internal.Correction>
   9.000000E+99

> <Gold.Chemscore.Hbonds>
donor molecule, donor type, donor heavy atom, donor atom, acceptor molecule, acceptor atom, score
      L1  H     5    26       P1  8028  0.71
      P1  H  7997  8009       L1    19  0.20

> <Gold.Chemscore.Hbond.Weighted>
-5.9233

> <Gold.Chemscore.Metal.Weighted>
-0.0000

> <Gold.Chemscore.Lipo.Weighted>
-8.2632

> <Gold.Chemscore.Internal_Hbond.Weighted>
0.0000

> <Gold.Chemscore.DEClash.Weighted>
0.2381

> <Gold.Chemscore.DEInternal.Weighted>
1.2969

> <Gold.Chemscore.Rot.Weighted>
4.8718

> <Gold.Chemscore.Internal.Correction.Weighted>
   9.000000E+99

> <Gold.Protein.RotatedTorsions>
[ 6907 6896 6895 6894 ] final   25.90 input  -60.11 | X-H torsion
[ 7974 7965 7964 7962 ] final  -54.44 input  175.53 | X-H torsion
[ 8008 7997 7996 7995 ] final  178.31 input   59.86 | X-H torsion
[ 10167 10162 10161 10158 ] final   58.09 input  -65.29 | X-H torsion
[ 10718 10713 10712 10709 ] final  105.54 input   66.30 | X-H torsion
[ 10763 10752 10751 10750 ] final  -69.31 input  -60.55 | X-H torsion
[ 11005 11000 10999 10996 ] final  -41.14 input  -57.11 | X-H torsion

> <Gold.Protein.ActiveResidues>
 VAL166  LYS551  ARG553  GLY616  TRP617  ASP618  TYR619  PRO620  LYS621  CYS622 
 ASP623  PHE694  ASN695  SER759  ASP760  ASP761  ALA762  ILE779  LEU786  VAL792 
 PHE793  MET794  SER795  GLU796  ALA797  LYS798  CYS799  TRP800  GLU811  SER814 

> <Gold.Protein.RotatedAtoms>
  151.9794  135.0036  160.0556 H   0  0  0  0  0  0  0  0  0  0  0  0  # atno 6907 bound_to 6896
  152.1710  133.4639  159.4917 H   0  0  0  0  0  0  0  0  0  0  0  0  # atno 6908 bound_to 6896
  150.6902  134.1870  159.4313 H   0  0  0  0  0  0  0  0  0  0  0  0  # atno 6909 bound_to 6896
  145.8855  140.8111  142.9818 H   0  0  0  0  0  0  0  0  0  0  0  0  # atno 7974 bound_to 7965
  156.0560  140.1336  156.9996 H   0  0  0  0  0  0  0  0  0  0  0  0  # atno 8008 bound_to 7997
  154.4458  140.1001  156.6517 H   0  0  0  0  0  0  0  0  0  0  0  0  # atno 8009 bound_to 7997
  155.5450  140.3461  155.4457 H   0  0  0  0  0  0  0  0  0  0  0  0  # atno 8010 bound_to 7997
  140.1910  144.4085  150.6571 H   0  0  0  0  0  0  0  0  0  0  0  0  # atno 10167 bound_to 10162
  157.6702  131.0830  150.5872 H   0  0  0  0  0  0  0  0  0  0  0  0  # atno 10718 bound_to 10713
  154.4015  135.6030  153.5900 H   0  0  0  0  0  0  0  0  0  0  0  0  # atno 10763 bound_to 10752
  152.9788  135.5907  154.4178 H   0  0  0  0  0  0  0  0  0  0  0  0  # atno 10764 bound_to 10752
  154.3977  135.2842  155.2094 H   0  0  0  0  0  0  0  0  0  0  0  0  # atno 10765 bound_to 10752
  141.0224  133.6856  156.2416 H   0  0  0  0  0  0  0  0  0  0  0  0  # atno 11005 bound_to 11000
  144.6728  140.1450  143.7434 LP  0  0  0  0  0  0  0  0  0  0  0  0  # atno 17320 bound_to 7965
  145.8971  139.2409  143.1515 LP  0  0  0  0  0  0  0  0  0  0  0  0  # atno 17321 bound_to 7965
  140.6456  143.2212  151.6194 LP  0  0  0  0  0  0  0  0  0  0  0  0  # atno 17342 bound_to 10162
  139.5256  144.3070  152.1025 LP  0  0  0  0  0  0  0  0  0  0  0  0  # atno 17343 bound_to 10162
  156.6172  130.4396  149.5836 LP  0  0  0  0  0  0  0  0  0  0  0  0  # atno 17370 bound_to 10713
  156.2384  130.6836  151.1532 LP  0  0  0  0  0  0  0  0  0  0  0  0  # atno 17371 bound_to 10713
  140.6549  134.5028  157.5580 LP  0  0  0  0  0  0  0  0  0  0  0  0  # atno 17394 bound_to 11000
  139.9155  134.8256  156.1382 LP  0  0  0  0  0  0  0  0  0  0  0  0  # atno 17395 bound_to 11000

$$$$
