AV-unprocessed.smi:3118|AV-procd|sdf|11886|dock3
  -GOLD-   2272017273D 1   1.00000     0.00000
 Structure written by MMmdl.
 33 34  0  0  0  0  0  0  0  0  2 V2000
  149.0300  140.2617  157.3273 C   0  0  0  0  0  0  0  0  0  0  0  0
  149.8627  141.0418  156.3010 C   0  0  2  0  0  0  0  0  0  0  0  0
  151.1764  140.3016  155.9682 C   0  0  0  0  0  0  0  0  0  0  0  0
  150.9525  138.9741  155.3857 N   0  0  0  0  0  0  0  0  0  0  0  0
  151.3868  137.7695  155.8762 C   0  0  0  0  0  0  0  0  0  0  0  0
  150.9298  136.8081  155.0122 C   0  0  0  0  0  0  0  0  0  0  0  0
  150.2412  137.4662  154.0287 N   0  3  0  0  0  0  0  0  0  0  0  0
  150.2604  138.7837  154.2547 C   0  0  0  0  0  0  0  0  0  0  0  0
  150.1301  142.3792  156.8293 N   0  0  0  0  0  0  0  0  0  0  0  0
  150.9862  142.6759  157.8197 C   0  0  0  0  0  0  0  0  0  0  0  0
  151.6570  141.8278  158.4094 O   0  0  0  0  0  0  0  0  0  0  0  0
  151.0803  144.1577  158.2041 C   0  0  0  0  0  0  0  0  0  0  0  0
  152.5124  144.7075  158.3317 C   0  0  0  0  0  0  0  0  0  0  0  0
  152.0850  145.4037  159.6272 C   0  0  0  0  0  0  0  0  0  0  0  0
  150.9070  144.4285  159.7086 C   0  0  0  0  0  0  0  0  0  0  0  0
  148.7790  139.2681  156.9550 H   0  0  0  0  0  0  0  0  0  0  0  0
  148.0931  140.7754  157.5458 H   0  0  0  0  0  0  0  0  0  0  0  0
  149.5695  140.1378  158.2670 H   0  0  0  0  0  0  0  0  0  0  0  0
  149.2614  141.1189  155.3930 H   0  0  0  0  0  0  0  0  0  0  0  0
  151.7926  140.8868  155.2834 H   0  0  0  0  0  0  0  0  0  0  0  0
  151.7659  140.1544  156.8740 H   0  0  0  0  0  0  0  0  0  0  0  0
  151.9665  137.6875  156.7842 H   0  0  0  0  0  0  0  0  0  0  0  0
  151.0391  135.7333  155.0241 H   0  0  0  0  0  0  0  0  0  0  0  0
  149.7966  139.5421  153.6495 H   0  0  0  0  0  0  0  0  0  0  0  0
  149.6271  143.1430  156.4009 H   0  0  0  0  0  0  0  0  0  0  0  0
  150.4473  144.8073  157.5960 H   0  0  0  0  0  0  0  0  0  0  0  0
  153.2778  143.9470  158.4962 H   0  0  0  0  0  0  0  0  0  0  0  0
  152.8023  145.3941  157.5359 H   0  0  0  0  0  0  0  0  0  0  0  0
  152.8012  145.3226  160.4453 H   0  0  0  0  0  0  0  0  0  0  0  0
  151.7681  146.4353  159.4662 H   0  0  0  0  0  0  0  0  0  0  0  0
  149.9599  144.8988  159.9739 H   0  0  0  0  0  0  0  0  0  0  0  0
  151.1161  143.5672  160.3461 H   0  0  0  0  0  0  0  0  0  0  0  0
  149.7811  137.0219  153.2441 H   0  0  0  0  0  0  0  0  0  0  0  0
  1  2  1  0  0  0  0
  1 16  1  0  0  0  0
  1 17  1  0  0  0  0
  1 18  1  0  0  0  0
  2  3  1  0  0  0  0
  2  9  1  0  0  0  0
  2 19  1  0  0  0  0
  3  4  1  0  0  0  0
  3 20  1  0  0  0  0
  3 21  1  0  0  0  0
  4  8  1  0  0  0  0
  4  5  1  0  0  0  0
  5  6  2  0  0  0  0
  5 22  1  0  0  0  0
  6  7  1  0  0  0  0
  6 23  1  0  0  0  0
  7  8  2  0  0  0  0
  7 33  1  0  0  0  0
  8 24  1  0  0  0  0
  9 10  1  0  0  0  0
  9 25  1  0  0  0  0
 10 11  2  0  0  0  0
 10 12  1  0  0  0  0
 12 15  1  0  0  0  0
 12 13  1  0  0  0  0
 12 26  1  0  0  0  0
 13 14  1  0  0  0  0
 13 27  1  0  0  0  0
 13 28  1  0  0  0  0
 14 15  1  0  0  0  0
 14 29  1  0  0  0  0
 14 30  1  0  0  0  0
 15 31  1  0  0  0  0
 15 32  1  0  0  0  0
M  CHG  1   7   1
M  END
> <s_m_source_file>
AV-unprocessed.smi

> <i_m_source_file_index>
3118

> <i_lp_mmshare_version>
43012

> <i_f3d_flags>
0

> <s_epik_input>
W0NIMl0xW0NIMl1bQ0gyXVtDSF0xQyg9TylbTkhdW0NASF0oW0NIM10pW0NIMl1uMltjSF1bY0hdbltjSF0y

> <s_epik_cmdline>
J2VwaWtfcHl0aG9uJywgJy1waCcsICc3LjAnLCAnLXRuJywgJzgnLCAnLW1hJywgJzIwMCcsICctbWV0YWxfYmluZGluZycsICctaW1hZScsICc8aW5maWxlLm1hZT4nLCAnLW9tYWUnLCAnPG91dGZpbGUubWFlPic=

> <r_lp_tautomer_probability>
1

> <r_epik_Ionization_Penalty>
0.244425

> <r_epik_Ionization_Penalty_Charging>
0

> <r_epik_Ionization_Penalty_Neutral>
0.244425

> <r_epik_State_Penalty>
0.23553

> <r_epik_Charging_Adjusted_Penalty>
0.23553

> <i_epik_Tot_Q>
1

> <i_epik_Tot_abs_Q>
1

> <r_epik_Metal_State_Penalty>
0.5288

> <b_epik_Metal_Only>
0

> <s_lp_Force_Field>
OPLS_2005

> <r_lp_Energy>
13.9066

> <b_lp_Chiralities_Consistent>
1

> <s_lp_Variant>
AV-unprocessed.smi:3118-1

> <Gold.Version>
5.8.1

> <Gold.Id.Protein>
6NUR|6NUR_protein|mol2

> <Gold.PLP.Fitness>
46.5819

> <Gold.PLP.PLP>
-34.8197

> <Gold.PLP.part.hbond>
-3.0000

> <Gold.PLP.part.metal>
0.0000

> <Gold.PLP.part.buried>
-3.9837

> <Gold.PLP.part.nonpolar>
-28.9370

> <Gold.PLP.part.repulsive>
0.1076

> <Gold.PLP.ligand.clash>
0.0000

> <Gold.PLP.ligand.torsion>
0.3275

> <Gold.PLP.Chemscore.Hbond>
3.0000

> <Gold.PLP.Chemscore.CHOScore>
1.0000

> <Gold.PLP.Chemscore.Metal>
0.0000

> <Gold.Chemscore.Hbonds>
donor molecule, donor type, donor heavy atom, donor atom, acceptor molecule, acceptor atom, score
      L1  H     7    33       P1  7948  2.00
      L1  H     9    25       P1  8028  1.00
      L1  C     8    24       P1  7957  0.97

> <Gold.PLP.Chemscore.Internal.Correction>
0.4172

> <Gold.Rescore>
     Score         DG    S(hbond)    S(metal)    S(lipo)     H(rot)  DE(clash)    DE(int)     intcor
     14.92     -16.00       1.94        0.00      74.99       1.86       0.00       1.07       ----

> <Gold.Chemscore.Fitness>
14.9225

> <Gold.Chemscore.DG>
-15.9958

> <Gold.Chemscore.ZeroCoef>
-5.4800

> <Gold.Chemscore.Hbond>
1.9442

> <Gold.Chemscore.Metal>
0.0000

> <Gold.Chemscore.Lipo>
74.9883

> <Gold.Chemscore.Internal_Hbond>
0.0000

> <Gold.Chemscore.DEClash>
0.0021

> <Gold.Chemscore.DEInternal>
1.0712

> <Gold.Chemscore.Rot>
1.8561

> <Gold.Chemscore.Internal.Correction>
   9.000000E+99

> <Gold.Chemscore.Hbonds>
donor molecule, donor type, donor heavy atom, donor atom, acceptor molecule, acceptor atom, score
      L1  H     7    33       P1  7948  0.45
      L1  H     9    25       P1  8028  1.00

> <Gold.Chemscore.Hbond.Weighted>
-6.4938

> <Gold.Chemscore.Metal.Weighted>
-0.0000

> <Gold.Chemscore.Lipo.Weighted>
-8.7736

> <Gold.Chemscore.Internal_Hbond.Weighted>
0.0000

> <Gold.Chemscore.DEClash.Weighted>
0.0021

> <Gold.Chemscore.DEInternal.Weighted>
1.0712

> <Gold.Chemscore.Rot.Weighted>
4.7516

> <Gold.Chemscore.Internal.Correction.Weighted>
   9.000000E+99

> <Gold.Protein.RotatedTorsions>
[ 6907 6896 6895 6894 ] final  173.76 input  -60.11 | X-H torsion
[ 7974 7965 7964 7962 ] final -113.77 input  175.53 | X-H torsion
[ 8008 7997 7996 7995 ] final  -37.55 input   59.86 | X-H torsion
[ 10167 10162 10161 10158 ] final  117.59 input  -65.29 | X-H torsion
[ 10718 10713 10712 10709 ] final  -90.50 input   66.30 | X-H torsion
[ 10763 10752 10751 10750 ] final  -73.19 input  -60.55 | X-H torsion
[ 11005 11000 10999 10996 ] final  145.87 input  -57.11 | X-H torsion

> <Gold.Protein.ActiveResidues>
 VAL166  LYS551  ARG553  GLY616  TRP617  ASP618  TYR619  PRO620  LYS621  CYS622 
 ASP623  PHE694  ASN695  SER759  ASP760  ASP761  ALA762  ILE779  LEU786  VAL792 
 PHE793  MET794  SER795  GLU796  ALA797  LYS798  CYS799  TRP800  GLU811  SER814 

> <Gold.Protein.RotatedAtoms>
  151.7631  133.3335  159.3423 H   0  0  0  0  0  0  0  0  0  0  0  0  # atno 6907 bound_to 6896
  150.7490  134.6087  159.6084 H   0  0  0  0  0  0  0  0  0  0  0  0  # atno 6908 bound_to 6896
  152.3392  134.7160  160.0320 H   0  0  0  0  0  0  0  0  0  0  0  0  # atno 6909 bound_to 6896
  145.1281  140.8709  143.3774 H   0  0  0  0  0  0  0  0  0  0  0  0  # atno 7974 bound_to 7965
  154.4051  140.1601  156.2555 H   0  0  0  0  0  0  0  0  0  0  0  0  # atno 8008 bound_to 7997
  155.9082  140.3429  155.6056 H   0  0  0  0  0  0  0  0  0  0  0  0  # atno 8009 bound_to 7997
  155.7367  140.0787  157.2255 H   0  0  0  0  0  0  0  0  0  0  0  0  # atno 8010 bound_to 7997
  139.6168  144.7093  151.2721 H   0  0  0  0  0  0  0  0  0  0  0  0  # atno 10167 bound_to 10162
  155.9988  130.4912  150.5332 H   0  0  0  0  0  0  0  0  0  0  0  0  # atno 10718 bound_to 10713
  154.4561  135.5905  153.6224 H   0  0  0  0  0  0  0  0  0  0  0  0  # atno 10763 bound_to 10752
  152.9818  135.6032  154.3544 H   0  0  0  0  0  0  0  0  0  0  0  0  # atno 10764 bound_to 10752
  154.3411  135.2841  155.2401 H   0  0  0  0  0  0  0  0  0  0  0  0  # atno 10765 bound_to 10752
  140.0747  134.9131  157.1404 H   0  0  0  0  0  0  0  0  0  0  0  0  # atno 11005 bound_to 11000
  145.0665  139.3064  143.5853 LP  0  0  0  0  0  0  0  0  0  0  0  0  # atno 17320 bound_to 7965
  146.3516  140.0125  142.8666 LP  0  0  0  0  0  0  0  0  0  0  0  0  # atno 17321 bound_to 7965
  140.7356  143.6731  150.8064 LP  0  0  0  0  0  0  0  0  0  0  0  0  # atno 17342 bound_to 10162
  140.0335  143.5419  152.2749 LP  0  0  0  0  0  0  0  0  0  0  0  0  # atno 17343 bound_to 10162
  157.3279  131.0694  151.1883 LP  0  0  0  0  0  0  0  0  0  0  0  0  # atno 17370 bound_to 10713
  157.2774  130.6733  149.6049 LP  0  0  0  0  0  0  0  0  0  0  0  0  # atno 17371 bound_to 10713
  140.3575  134.2531  155.7191 LP  0  0  0  0  0  0  0  0  0  0  0  0  # atno 17394 bound_to 11000
  141.2025  133.7936  157.0387 LP  0  0  0  0  0  0  0  0  0  0  0  0  # atno 17395 bound_to 11000

$$$$
