AV-unprocessed.smi:2526|AV-procd|sdf|9934|dock2
  -GOLD-   2272013573D 1   1.00000     0.00000
 Structure written by MMmdl.
 29 30  0  0  0  0  0  0  0  0  2 V2000
  141.4895  138.2513  154.0708 C   0  0  0  0  0  0  0  0  0  0  0  0
  142.0835  137.0733  153.4761 N   0  0  0  0  0  0  0  0  0  0  0  0
  142.9889  136.9969  152.4404 C   0  0  0  0  0  0  0  0  0  0  0  0
  143.2645  135.6734  152.2292 C   0  0  0  0  0  0  0  0  0  0  0  0
  144.1821  135.0374  151.2123 C   0  0  2  0  0  0  0  0  0  0  0  0
  143.5659  133.8379  150.6391 N   0  0  0  0  0  0  0  0  0  0  0  0
  144.1954  132.7157  150.2470 C   0  0  0  0  0  0  0  0  0  0  0  0
  143.5851  131.7913  149.7165 O   0  0  0  0  0  0  0  0  0  0  0  0
  145.7039  132.5743  150.5034 C   0  0  0  0  0  0  0  0  0  0  0  0
  146.4024  133.9024  150.8390 C   0  0  0  0  0  0  0  0  0  0  0  0
  145.5675  134.7270  151.8256 C   0  0  1  0  0  0  0  0  0  0  0  0
  146.2762  135.9566  152.2251 N   0  3  0  0  0  0  0  0  0  0  0  0
  142.4651  135.0152  153.2082 C   0  0  0  0  0  0  0  0  0  0  0  0
  141.7592  135.8528  153.9484 N   0  0  0  0  0  0  0  0  0  0  0  0
  141.6068  139.1057  153.4035 H   0  0  0  0  0  0  0  0  0  0  0  0
  141.9809  138.4702  155.0194 H   0  0  0  0  0  0  0  0  0  0  0  0
  140.4262  138.0855  154.2481 H   0  0  0  0  0  0  0  0  0  0  0  0
  143.3578  137.8822  151.9426 H   0  0  0  0  0  0  0  0  0  0  0  0
  144.3261  135.7205  150.3735 H   0  0  0  0  0  0  0  0  0  0  0  0
  142.5697  133.8832  150.4774 H   0  0  0  0  0  0  0  0  0  0  0  0
  145.8291  131.8800  151.3349 H   0  0  0  0  0  0  0  0  0  0  0  0
  146.1783  132.1104  149.6377 H   0  0  0  0  0  0  0  0  0  0  0  0
  147.3881  133.6964  151.2580 H   0  0  0  0  0  0  0  0  0  0  0  0
  146.5691  134.4716  149.9230 H   0  0  0  0  0  0  0  0  0  0  0  0
  145.4297  134.1349  152.7321 H   0  0  0  0  0  0  0  0  0  0  0  0
  147.2712  135.7834  152.2430 H   0  0  0  0  0  0  0  0  0  0  0  0
  145.9674  136.2400  153.1442 H   0  0  0  0  0  0  0  0  0  0  0  0
  142.3753  133.9560  153.3993 H   0  0  0  0  0  0  0  0  0  0  0  0
  146.0734  136.6907  151.5616 H   0  0  0  0  0  0  0  0  0  0  0  0
  1  2  1  0  0  0  0
  1 15  1  0  0  0  0
  1 16  1  0  0  0  0
  1 17  1  0  0  0  0
  2 14  1  0  0  0  0
  2  3  1  0  0  0  0
  3  4  2  0  0  0  0
  3 18  1  0  0  0  0
  4  5  1  0  0  0  0
  4 13  1  0  0  0  0
  5 11  1  0  0  0  0
  5  6  1  0  0  0  0
  5 19  1  0  0  0  0
  6  7  1  0  0  0  0
  6 20  1  0  0  0  0
  7  8  2  0  0  0  0
  7  9  1  0  0  0  0
  9 10  1  0  0  0  0
  9 21  1  0  0  0  0
  9 22  1  0  0  0  0
 10 11  1  0  0  0  0
 10 23  1  0  0  0  0
 10 24  1  0  0  0  0
 11 12  1  0  0  0  0
 11 25  1  0  0  0  0
 12 26  1  0  0  0  0
 12 27  1  0  0  0  0
 12 29  1  0  0  0  0
 13 14  2  0  0  0  0
 13 28  1  0  0  0  0
M  CHG  1  12   1
M  END
> <s_m_source_file>
AV-unprocessed.smi

> <i_m_source_file_index>
2526

> <i_lp_mmshare_version>
43012

> <i_f3d_flags>
0

> <s_epik_input>
W0NIM11uMVtjSF1jKFtjSF1uMSlbQ0BASF0yW05IXUMoPU8pW0NIMl1bQ0gyXVtDQEhdMltOSDJd

> <s_epik_cmdline>
J2VwaWtfcHl0aG9uJywgJy1waCcsICc3LjAnLCAnLXRuJywgJzgnLCAnLW1hJywgJzIwMCcsICctbWV0YWxfYmluZGluZycsICctaW1hZScsICc8aW5maWxlLm1hZT4nLCAnLW9tYWUnLCAnPG91dGZpbGUubWFlPic=

> <r_lp_tautomer_probability>
1

> <r_epik_Ionization_Penalty>
0.00878543

> <r_epik_Ionization_Penalty_Charging>
0.00874185

> <r_epik_Ionization_Penalty_Neutral>
4.35793e-05

> <r_epik_State_Penalty>
0.00660351

> <r_epik_Charging_Adjusted_Penalty>
0.0153454

> <i_epik_Tot_Q>
1

> <i_epik_Tot_abs_Q>
1

> <r_epik_Metal_State_Penalty>
0.00660727

> <b_epik_Metal_Only>
0

> <s_lp_Force_Field>
OPLS_2005

> <r_lp_Energy>
10.7235

> <b_lp_Chiralities_Consistent>
1

> <s_lp_Variant>
AV-unprocessed.smi:2526-1

> <Gold.Version>
5.8.1

> <Gold.Id.Protein>
6NUR|6NUR_protein|mol2

> <Gold.PLP.Fitness>
45.2711

> <Gold.PLP.PLP>
-25.7370

> <Gold.PLP.part.hbond>
-3.0000

> <Gold.PLP.part.metal>
0.0000

> <Gold.PLP.part.buried>
-6.8985

> <Gold.PLP.part.nonpolar>
-16.6187

> <Gold.PLP.part.repulsive>
0.3176

> <Gold.PLP.ligand.clash>
0.0000

> <Gold.PLP.ligand.torsion>
0.5907

> <Gold.PLP.Chemscore.Hbond>
3.9760

> <Gold.PLP.Chemscore.CHOScore>
2.9220

> <Gold.PLP.Chemscore.Metal>
0.0000

> <Gold.Chemscore.Hbonds>
donor molecule, donor type, donor heavy atom, donor atom, acceptor molecule, acceptor atom, score
      L1  H     6    20       P1 10186  1.00
      L1  H    12    26       P1  7948  2.00
      P1  H 10785 10796       L1     8  0.96
      L1  C     3    18       P1 10171  1.00
      L1  C     3    18       P1 10175  0.80
      L1  C    13    28       P1 10957  0.84

> <Gold.PLP.Chemscore.Internal.Correction>
0.0215

> <Gold.Rescore>
     Score         DG    S(hbond)    S(metal)    S(lipo)     H(rot)  DE(clash)    DE(int)     intcor
     16.31     -16.83       2.69        0.00      42.11       1.00       0.05       0.47       ----

> <Gold.Chemscore.Fitness>
16.3117

> <Gold.Chemscore.DG>
-16.8310

> <Gold.Chemscore.ZeroCoef>
-5.4800

> <Gold.Chemscore.Hbond>
2.6899

> <Gold.Chemscore.Metal>
0.0000

> <Gold.Chemscore.Lipo>
42.1088

> <Gold.Chemscore.Internal_Hbond>
0.0000

> <Gold.Chemscore.DEClash>
0.0482

> <Gold.Chemscore.DEInternal>
0.4710

> <Gold.Chemscore.Rot>
1.0000

> <Gold.Chemscore.Internal.Correction>
   9.000000E+99

> <Gold.Chemscore.Hbonds>
donor molecule, donor type, donor heavy atom, donor atom, acceptor molecule, acceptor atom, score
      L1  H     6    20       P1 10186  0.91
      L1  H    12    26       P1  7948  0.96
      P1  H 10785 10796       L1     8  0.91

> <Gold.Chemscore.Hbond.Weighted>
-8.9842

> <Gold.Chemscore.Metal.Weighted>
-0.0000

> <Gold.Chemscore.Lipo.Weighted>
-4.9267

> <Gold.Chemscore.Internal_Hbond.Weighted>
0.0000

> <Gold.Chemscore.DEClash.Weighted>
0.0482

> <Gold.Chemscore.DEInternal.Weighted>
0.4710

> <Gold.Chemscore.Rot.Weighted>
2.5600

> <Gold.Chemscore.Internal.Correction.Weighted>
   9.000000E+99

> <Gold.Protein.RotatedTorsions>
[ 6907 6896 6895 6894 ] final  -87.53 input  -60.11 | X-H torsion
[ 7974 7965 7964 7962 ] final   33.78 input  175.53 | X-H torsion
[ 8008 7997 7996 7995 ] final -167.26 input   59.86 | X-H torsion
[ 10167 10162 10161 10158 ] final -130.54 input  -65.29 | X-H torsion
[ 10718 10713 10712 10709 ] final -156.98 input   66.30 | X-H torsion
[ 10763 10752 10751 10750 ] final -121.98 input  -60.55 | X-H torsion
[ 11005 11000 10999 10996 ] final  -63.11 input  -57.11 | X-H torsion

> <Gold.Protein.ActiveResidues>
 VAL166  LYS551  ARG553  GLY616  TRP617  ASP618  TYR619  PRO620  LYS621  CYS622 
 ASP623  PHE694  ASN695  SER759  ASP760  ASP761  ALA762  ILE779  LEU786  VAL792 
 PHE793  MET794  SER795  GLU796  ALA797  LYS798  CYS799  TRP800  GLU811  SER814 

> <Gold.Protein.RotatedAtoms>
  150.6866  134.2882  159.4655 H   0  0  0  0  0  0  0  0  0  0  0  0  # atno 6907 bound_to 6896
  152.0789  134.9481  160.0583 H   0  0  0  0  0  0  0  0  0  0  0  0  # atno 6908 bound_to 6896
  152.0842  133.4133  159.4551 H   0  0  0  0  0  0  0  0  0  0  0  0  # atno 6909 bound_to 6896
  146.1398  139.6353  142.9171 H   0  0  0  0  0  0  0  0  0  0  0  0  # atno 7974 bound_to 7965
  155.8753  140.1000  157.1522 H   0  0  0  0  0  0  0  0  0  0  0  0  # atno 8008 bound_to 7997
  154.4000  140.1339  156.4192 H   0  0  0  0  0  0  0  0  0  0  0  0  # atno 8009 bound_to 7997
  155.7705  140.3461  155.5246 H   0  0  0  0  0  0  0  0  0  0  0  0  # atno 8010 bound_to 7997
  139.9282  143.6303  152.2536 H   0  0  0  0  0  0  0  0  0  0  0  0  # atno 10167 bound_to 10162
  156.5339  130.8533  151.2726 H   0  0  0  0  0  0  0  0  0  0  0  0  # atno 10718 bound_to 10713
  154.8680  135.4149  154.2708 H   0  0  0  0  0  0  0  0  0  0  0  0  # atno 10763 bound_to 10752
  153.3618  135.7003  153.6712 H   0  0  0  0  0  0  0  0  0  0  0  0  # atno 10764 bound_to 10752
  153.5609  135.3610  155.2771 H   0  0  0  0  0  0  0  0  0  0  0  0  # atno 10765 bound_to 10752
  141.1382  133.6648  156.5630 H   0  0  0  0  0  0  0  0  0  0  0  0  # atno 11005 bound_to 11000
  145.5073  141.0436  143.2507 LP  0  0  0  0  0  0  0  0  0  0  0  0  # atno 17320 bound_to 7965
  144.7779  139.6589  143.7167 LP  0  0  0  0  0  0  0  0  0  0  0  0  # atno 17321 bound_to 7965
  139.6804  144.7656  151.1618 LP  0  0  0  0  0  0  0  0  0  0  0  0  # atno 17342 bound_to 10162
  140.7644  143.5733  150.8973 LP  0  0  0  0  0  0  0  0  0  0  0  0  # atno 17343 bound_to 10162
  157.7417  130.9875  150.2463 LP  0  0  0  0  0  0  0  0  0  0  0  0  # atno 17370 bound_to 10713
  156.3034  130.3761  149.7729 LP  0  0  0  0  0  0  0  0  0  0  0  0  # atno 17371 bound_to 10713
  140.3973  134.7387  157.4758 LP  0  0  0  0  0  0  0  0  0  0  0  0  # atno 17394 bound_to 11000
  140.0522  134.6115  155.8848 LP  0  0  0  0  0  0  0  0  0  0  0  0  # atno 17395 bound_to 11000

$$$$
