AV-unprocessed.smi:2221|AV-procd|sdf|8981|dock1
  -GOLD-   2272012193D 1   1.00000     0.00000
 Structure written by MMmdl.
 54 55  0  0  0  0  0  0  0  0  3 V2000
  150.8198  145.1635  159.4637 C   0  0  0  0  0  0  0  0  0  0  0  0
  151.3850  143.7861  159.1881 C   0  0  0  0  0  0  0  0  0  0  0  0
  152.4877  143.3004  159.9163 C   0  0  0  0  0  0  0  0  0  0  0  0
  152.9661  142.0099  159.6167 C   0  0  0  0  0  0  0  0  0  0  0  0
  154.1506  141.4277  160.3593 C   0  0  0  0  0  0  0  0  0  0  0  0
  152.4116  141.2197  158.6724 N   0  0  0  0  0  0  0  0  0  0  0  0
  151.3488  141.6772  157.9653 C   0  0  0  0  0  0  0  0  0  0  0  0
  150.6963  140.9265  156.9516 N   0  0  0  0  0  0  0  0  0  0  0  0
  151.2531  140.1319  156.0211 C   0  0  0  0  0  0  0  0  0  0  0  0
  152.4587  139.9186  155.8936 O   0  0  0  0  0  0  0  0  0  0  0  0
  150.3204  139.5660  155.2410 N   0  0  0  0  0  0  0  0  0  0  0  0
  150.5907  138.6449  154.1384 C   0  0  0  0  0  0  0  0  0  0  0  0
  151.1941  137.2982  154.5967 C   0  0  0  0  0  0  0  0  0  0  0  0
  150.2260  136.1729  154.5355 N   0  3  2  0  0  0  0  0  0  0  0  0
  148.9922  136.4401  155.3177 C   0  0  0  0  0  0  0  0  0  0  0  0
  147.9650  135.3070  155.1364 C   0  0  0  0  0  0  0  0  0  0  0  0
  148.5424  133.9319  155.5481 C   0  0  2  0  0  0  0  0  0  0  0  0
  148.7802  133.8009  157.0237 N   0  3  0  0  0  0  0  0  0  0  0  0
  149.4567  132.5366  157.4075 C   0  0  0  0  0  0  0  0  0  0  0  0
  147.5593  133.9960  157.8449 C   0  0  0  0  0  0  0  0  0  0  0  0
  149.8179  133.7163  154.6992 C   0  0  0  0  0  0  0  0  0  0  0  0
  150.8317  134.8608  154.8821 C   0  0  0  0  0  0  0  0  0  0  0  0
  150.8108  142.9624  158.1988 C   0  0  0  0  0  0  0  0  0  0  0  0
  151.5379  145.7827  160.0023 H   0  0  0  0  0  0  0  0  0  0  0  0
  149.9147  145.0843  160.0665 H   0  0  0  0  0  0  0  0  0  0  0  0
  150.5694  145.6688  158.5306 H   0  0  0  0  0  0  0  0  0  0  0  0
  152.9543  143.9011  160.6836 H   0  0  0  0  0  0  0  0  0  0  0  0
  154.7038  142.2043  160.8884 H   0  0  0  0  0  0  0  0  0  0  0  0
  154.8362  140.9384  159.6666 H   0  0  0  0  0  0  0  0  0  0  0  0
  153.8129  140.6905  161.0879 H   0  0  0  0  0  0  0  0  0  0  0  0
  149.6896  140.9968  156.9425 H   0  0  0  0  0  0  0  0  0  0  0  0
  149.3542  139.8087  155.4053 H   0  0  0  0  0  0  0  0  0  0  0  0
  149.6494  138.4719  153.6168 H   0  0  0  0  0  0  0  0  0  0  0  0
  151.2510  139.1237  153.4137 H   0  0  0  0  0  0  0  0  0  0  0  0
  152.0866  137.0607  154.0161 H   0  0  0  0  0  0  0  0  0  0  0  0
  151.5328  137.4146  155.6270 H   0  0  0  0  0  0  0  0  0  0  0  0
  149.2433  136.5646  156.3720 H   0  0  0  0  0  0  0  0  0  0  0  0
  148.5476  137.3791  154.9852 H   0  0  0  0  0  0  0  0  0  0  0  0
  147.0387  135.5392  155.6592 H   0  0  0  0  0  0  0  0  0  0  0  0
  147.6811  135.2658  154.0835 H   0  0  0  0  0  0  0  0  0  0  0  0
  147.8171  133.1643  155.2730 H   0  0  0  0  0  0  0  0  0  0  0  0
  148.9032  131.6698  157.0440 H   0  0  0  0  0  0  0  0  0  0  0  0
  149.5409  132.4507  158.4915 H   0  0  0  0  0  0  0  0  0  0  0  0
  150.4743  132.4884  157.0225 H   0  0  0  0  0  0  0  0  0  0  0  0
  146.7634  133.3189  157.5318 H   0  0  0  0  0  0  0  0  0  0  0  0
  147.1920  135.0194  157.7859 H   0  0  0  0  0  0  0  0  0  0  0  0
  147.7632  133.8095  158.8999 H   0  0  0  0  0  0  0  0  0  0  0  0
  150.2861  132.7531  154.8952 H   0  0  0  0  0  0  0  0  0  0  0  0
  149.5344  133.6736  153.6465 H   0  0  0  0  0  0  0  0  0  0  0  0
  151.6956  134.6727  154.2449 H   0  0  0  0  0  0  0  0  0  0  0  0
  151.1976  134.8837  155.9098 H   0  0  0  0  0  0  0  0  0  0  0  0
  149.9633  143.3151  157.6286 H   0  0  0  0  0  0  0  0  0  0  0  0
  149.4115  134.5437  157.2872 H   0  0  0  0  0  0  0  0  0  0  0  0
  149.9329  136.1146  153.5703 H   0  0  0  0  0  0  0  0  0  0  0  0
  1  2  1  0  0  0  0
  1 24  1  0  0  0  0
  1 25  1  0  0  0  0
  1 26  1  0  0  0  0
  2 23  1  0  0  0  0
  2  3  2  0  0  0  0
  3  4  1  0  0  0  0
  3 27  1  0  0  0  0
  4  5  1  0  0  0  0
  4  6  2  0  0  0  0
  5 28  1  0  0  0  0
  5 29  1  0  0  0  0
  5 30  1  0  0  0  0
  6  7  1  0  0  0  0
  7  8  1  0  0  0  0
  7 23  2  0  0  0  0
  8  9  1  0  0  0  0
  8 31  1  0  0  0  0
  9 10  2  0  0  0  0
  9 11  1  0  0  0  0
 11 12  1  0  0  0  0
 11 32  1  0  0  0  0
 12 13  1  0  0  0  0
 12 33  1  0  0  0  0
 12 34  1  0  0  0  0
 13 14  1  0  0  0  0
 13 35  1  0  0  0  0
 13 36  1  0  0  0  0
 14 22  1  0  0  0  0
 14 15  1  0  0  0  0
 14 54  1  0  0  0  0
 15 16  1  0  0  0  0
 15 37  1  0  0  0  0
 15 38  1  0  0  0  0
 16 17  1  0  0  0  0
 16 39  1  0  0  0  0
 16 40  1  0  0  0  0
 17 18  1  0  0  0  0
 17 21  1  0  0  0  0
 17 41  1  0  0  0  0
 18 19  1  0  0  0  0
 18 20  1  0  0  0  0
 18 53  1  0  0  0  0
 19 42  1  0  0  0  0
 19 43  1  0  0  0  0
 19 44  1  0  0  0  0
 20 45  1  0  0  0  0
 20 46  1  0  0  0  0
 20 47  1  0  0  0  0
 21 22  1  0  0  0  0
 21 48  1  0  0  0  0
 21 49  1  0  0  0  0
 22 50  1  0  0  0  0
 22 51  1  0  0  0  0
 23 52  1  0  0  0  0
M  CHG  1  14   1
M  CHG  1  18   1
M  END
> <s_m_source_file>
AV-unprocessed.smi

> <i_m_source_file_index>
2221

> <i_lp_mmshare_version>
43012

> <i_f3d_flags>
0

> <s_epik_input>
W0NIM11jMVtjSF1jKFtDSDNdKW5jKFtjSF0xKVtOSF1DKD1PKVtOSF1bQ0gyXVtDSDJdTjJbQ0gyXVtDSDJdW0NIXShOKFtDSDNdKVtDSDNdKVtDSDJdW0NIMl0y

> <s_epik_cmdline>
J2VwaWtfcHl0aG9uJywgJy1waCcsICc3LjAnLCAnLXRuJywgJzgnLCAnLW1hJywgJzIwMCcsICctbWV0YWxfYmluZGluZycsICctaW1hZScsICc8aW5maWxlLm1hZT4nLCAnLW9tYWUnLCAnPG91dGZpbGUubWFlPic=

> <r_epik_Ionization_Penalty>
0.206417

> <r_epik_Ionization_Penalty_Charging>
0.206231

> <r_epik_Ionization_Penalty_Neutral>
0.00018626

> <r_epik_State_Penalty>
0.176025

> <r_epik_Charging_Adjusted_Penalty>
0.382256

> <i_epik_Tot_Q>
2

> <i_epik_Tot_abs_Q>
2

> <r_epik_Metal_State_Penalty>
0.176034

> <b_epik_Metal_Only>
0

> <s_lp_Force_Field>
OPLS_2005

> <r_lp_Energy>
43.913

> <b_lp_Chiralities_Consistent>
1

> <s_lp_Variant>
AV-unprocessed.smi:2221-2

> <Gold.Version>
5.8.1

> <Gold.Id.Protein>
6NUR|6NUR_protein|mol2

> <Gold.PLP.Fitness>
49.1156

> <Gold.PLP.PLP>
-41.2543

> <Gold.PLP.part.hbond>
-2.0644

> <Gold.PLP.part.metal>
0.0000

> <Gold.PLP.part.buried>
-6.2324

> <Gold.PLP.part.nonpolar>
-33.8998

> <Gold.PLP.part.repulsive>
0.2418

> <Gold.PLP.ligand.clash>
0.0000

> <Gold.PLP.ligand.torsion>
0.6817

> <Gold.PLP.Chemscore.Hbond>
3.0000

> <Gold.PLP.Chemscore.CHOScore>
0.0000

> <Gold.PLP.Chemscore.Metal>
0.0000

> <Gold.Chemscore.Hbonds>
donor molecule, donor type, donor heavy atom, donor atom, acceptor molecule, acceptor atom, score
      L1  H    14    54       P1  7948  1.40
      P1  H  7997  8010       L1    10  1.00

> <Gold.PLP.Chemscore.Internal.Correction>
0.2248

> <Gold.Rescore>
     Score         DG    S(hbond)    S(metal)    S(lipo)     H(rot)  DE(clash)    DE(int)     intcor
     17.69     -19.23       1.95        0.00      98.64       1.68       0.00       1.54       ----

> <Gold.Chemscore.Fitness>
17.6887

> <Gold.Chemscore.DG>
-19.2263

> <Gold.Chemscore.ZeroCoef>
-5.4800

> <Gold.Chemscore.Hbond>
1.9481

> <Gold.Chemscore.Metal>
0.0000

> <Gold.Chemscore.Lipo>
98.6364

> <Gold.Chemscore.Internal_Hbond>
0.0000

> <Gold.Chemscore.DEClash>
0.0015

> <Gold.Chemscore.DEInternal>
1.5362

> <Gold.Chemscore.Rot>
1.6800

> <Gold.Chemscore.Internal.Correction>
   9.000000E+99

> <Gold.Chemscore.Hbonds>
donor molecule, donor type, donor heavy atom, donor atom, acceptor molecule, acceptor atom, score
      L1  H    14    54       P1  7948  0.07
      P1  H  7997  8010       L1    10  0.98

> <Gold.Chemscore.Hbond.Weighted>
-6.5067

> <Gold.Chemscore.Metal.Weighted>
-0.0000

> <Gold.Chemscore.Lipo.Weighted>
-11.5405

> <Gold.Chemscore.Internal_Hbond.Weighted>
0.0000

> <Gold.Chemscore.DEClash.Weighted>
0.0015

> <Gold.Chemscore.DEInternal.Weighted>
1.5362

> <Gold.Chemscore.Rot.Weighted>
4.3009

> <Gold.Chemscore.Internal.Correction.Weighted>
   9.000000E+99

> <Gold.Protein.RotatedTorsions>
[ 6907 6896 6895 6894 ] final  173.77 input  -60.11 | X-H torsion
[ 7974 7965 7964 7962 ] final  -78.45 input  175.53 | X-H torsion
[ 8008 7997 7996 7995 ] final   71.68 input   59.86 | X-H torsion
[ 10167 10162 10161 10158 ] final -101.29 input  -65.29 | X-H torsion
[ 10718 10713 10712 10709 ] final   27.09 input   66.30 | X-H torsion
[ 10763 10752 10751 10750 ] final  -72.21 input  -60.55 | X-H torsion
[ 11005 11000 10999 10996 ] final  140.59 input  -57.11 | X-H torsion

> <Gold.Protein.ActiveResidues>
 VAL166  LYS551  ARG553  GLY616  TRP617  ASP618  TYR619  PRO620  LYS621  CYS622 
 ASP623  PHE694  ASN695  SER759  ASP760  ASP761  ALA762  ILE779  LEU786  VAL792 
 PHE793  MET794  SER795  GLU796  ALA797  LYS798  CYS799  TRP800  GLU811  SER814 

> <Gold.Protein.RotatedAtoms>
  151.7629  133.3335  159.3422 H   0  0  0  0  0  0  0  0  0  0  0  0  # atno 6907 bound_to 6896
  150.7491  134.6089  159.6085 H   0  0  0  0  0  0  0  0  0  0  0  0  # atno 6908 bound_to 6896
  152.3393  134.7158  160.0319 H   0  0  0  0  0  0  0  0  0  0  0  0  # atno 6909 bound_to 6896
  145.5863  140.9438  143.1316 H   0  0  0  0  0  0  0  0  0  0  0  0  # atno 7974 bound_to 7965
  155.7576  140.3487  155.5181 H   0  0  0  0  0  0  0  0  0  0  0  0  # atno 8008 bound_to 7997
  155.8945  140.1023  157.1416 H   0  0  0  0  0  0  0  0  0  0  0  0  # atno 8009 bound_to 7997
  154.4037  140.1298  156.4345 H   0  0  0  0  0  0  0  0  0  0  0  0  # atno 8010 bound_to 7997
  140.2429  143.3526  152.0786 H   0  0  0  0  0  0  0  0  0  0  0  0  # atno 10167 bound_to 10162
  157.2156  130.6955  149.6247 H   0  0  0  0  0  0  0  0  0  0  0  0  # atno 10718 bound_to 10713
  154.4425  135.5937  153.6138 H   0  0  0  0  0  0  0  0  0  0  0  0  # atno 10763 bound_to 10752
  152.9806  135.6001  154.3705 H   0  0  0  0  0  0  0  0  0  0  0  0  # atno 10764 bound_to 10752
  154.3556  135.2841  155.2327 H   0  0  0  0  0  0  0  0  0  0  0  0  # atno 10765 bound_to 10752
  140.0339  134.9338  157.0715 H   0  0  0  0  0  0  0  0  0  0  0  0  # atno 11005 bound_to 11000
  144.7371  139.7555  143.7325 LP  0  0  0  0  0  0  0  0  0  0  0  0  # atno 17320 bound_to 7965
  146.1679  139.4818  142.9946 LP  0  0  0  0  0  0  0  0  0  0  0  0  # atno 17321 bound_to 7965
  139.5071  144.6826  151.5968 LP  0  0  0  0  0  0  0  0  0  0  0  0  # atno 17342 bound_to 10162
  140.6100  143.9454  150.6446 LP  0  0  0  0  0  0  0  0  0  0  0  0  # atno 17343 bound_to 10162
  155.9686  130.4537  150.5820 LP  0  0  0  0  0  0  0  0  0  0  0  0  # atno 17370 bound_to 10713
  157.3628  131.0752  151.1622 LP  0  0  0  0  0  0  0  0  0  0  0  0  # atno 17371 bound_to 10713
  140.4180  134.1910  155.7164 LP  0  0  0  0  0  0  0  0  0  0  0  0  # atno 17394 bound_to 11000
  141.1846  133.8340  157.1133 LP  0  0  0  0  0  0  0  0  0  0  0  0  # atno 17395 bound_to 11000

$$$$
