AV-unprocessed.smi:1824|AV-procd|sdf|7403|dock8
  -GOLD-   22720 9 73D 1   1.00000     0.00000
 Structure written by MMmdl.
 45 47  0  0  0  0  0  0  0  0  2 V2000
  146.5857  143.1349  153.7896 C   0  0  0  0  0  0  0  0  0  0  0  0
  146.7623  141.6805  154.2395 C   0  0  2  0  0  0  0  0  0  0  0  0
  148.0577  141.4744  155.0473 C   0  0  0  0  0  0  0  0  0  0  0  0
  148.2301  140.0449  155.3972 N   0  3  2  0  0  0  0  0  0  0  0  0
  149.4311  139.8052  156.2377 C   0  0  0  0  0  0  0  0  0  0  0  0
  150.6776  140.5479  155.7171 C   0  0  2  0  0  0  0  0  0  0  0  0
  151.2230  139.8137  154.6373 O   0  0  0  0  0  0  0  0  0  0  0  0
  151.7453  140.7091  156.8161 C   0  0  0  0  0  0  0  0  0  0  0  0
  151.5533  141.9121  157.6069 N   0  0  0  0  0  0  0  0  0  0  0  0
  150.8595  143.0110  157.2527 C   0  0  0  0  0  0  0  0  0  0  0  0
  150.8092  144.0087  158.1303 N   0  0  0  0  0  0  0  0  0  0  0  0
  151.5530  143.4971  159.1797 C   0  0  0  0  0  0  0  0  0  0  0  0
  151.8835  144.0638  160.4313 C   0  0  0  0  0  0  0  0  0  0  0  0
  152.6683  143.3443  161.3567 C   0  0  0  0  0  0  0  0  0  0  0  0
  152.9757  143.9018  162.5517 F   0  0  0  0  0  0  0  0  0  0  0  0
  153.1341  142.0496  161.0441 C   0  0  0  0  0  0  0  0  0  0  0  0
  153.8874  141.3661  161.9376 F   0  0  0  0  0  0  0  0  0  0  0  0
  152.8179  141.4649  159.8027 C   0  0  0  0  0  0  0  0  0  0  0  0
  152.0334  142.1857  158.8835 C   0  0  0  0  0  0  0  0  0  0  0  0
  148.1816  139.2059  154.1744 C   0  0  0  0  0  0  0  0  0  0  0  0
  146.8830  139.4721  153.3895 C   0  0  2  0  0  0  0  0  0  0  0  0
  146.8285  138.6843  152.0760 C   0  0  0  0  0  0  0  0  0  0  0  0
  146.8043  140.8587  153.0780 O   0  0  0  0  0  0  0  0  0  0  0  0
  146.5434  143.8086  154.6457 H   0  0  0  0  0  0  0  0  0  0  0  0
  145.6615  143.2579  153.2244 H   0  0  0  0  0  0  0  0  0  0  0  0
  147.4105  143.4544  153.1519 H   0  0  0  0  0  0  0  0  0  0  0  0
  145.9008  141.3994  154.8476 H   0  0  0  0  0  0  0  0  0  0  0  0
  148.9213  141.8150  154.4733 H   0  0  0  0  0  0  0  0  0  0  0  0
  148.0199  142.0736  155.9581 H   0  0  0  0  0  0  0  0  0  0  0  0
  149.2128  140.0957  157.2665 H   0  0  0  0  0  0  0  0  0  0  0  0
  149.6530  138.7369  156.2661 H   0  0  0  0  0  0  0  0  0  0  0  0
  150.4063  141.5382  155.3522 H   0  0  0  0  0  0  0  0  0  0  0  0
  151.0958  138.8920  154.8056 H   0  0  0  0  0  0  0  0  0  0  0  0
  151.7209  139.8524  157.4910 H   0  0  0  0  0  0  0  0  0  0  0  0
  152.7453  140.7321  156.3807 H   0  0  0  0  0  0  0  0  0  0  0  0
  150.3652  143.0836  156.2948 H   0  0  0  0  0  0  0  0  0  0  0  0
  151.5330  145.0541  160.6813 H   0  0  0  0  0  0  0  0  0  0  0  0
  153.1747  140.4746  159.5621 H   0  0  0  0  0  0  0  0  0  0  0  0
  149.0490  139.4240  153.5489 H   0  0  0  0  0  0  0  0  0  0  0  0
  148.2352  138.1497  154.4354 H   0  0  0  0  0  0  0  0  0  0  0  0
  146.0215  139.1907  153.9978 H   0  0  0  0  0  0  0  0  0  0  0  0
  146.8725  137.6104  152.2594 H   0  0  0  0  0  0  0  0  0  0  0  0
  147.6610  138.9469  151.4224 H   0  0  0  0  0  0  0  0  0  0  0  0
  145.9041  138.8904  151.5362 H   0  0  0  0  0  0  0  0  0  0  0  0
  147.4318  139.7953  155.9641 H   0  0  0  0  0  0  0  0  0  0  0  0
  1  2  1  0  0  0  0
  1 24  1  0  0  0  0
  1 25  1  0  0  0  0
  1 26  1  0  0  0  0
  2 23  1  0  0  0  0
  2  3  1  0  0  0  0
  2 27  1  0  0  0  0
  3  4  1  0  0  0  0
  3 28  1  0  0  0  0
  3 29  1  0  0  0  0
  4  5  1  0  0  0  0
  4 20  1  0  0  0  0
  4 45  1  0  0  0  0
  5  6  1  0  0  0  0
  5 30  1  0  0  0  0
  5 31  1  0  0  0  0
  6  7  1  0  0  0  0
  6  8  1  0  0  0  0
  6 32  1  0  0  0  0
  7 33  1  0  0  0  0
  8  9  1  0  0  0  0
  8 34  1  0  0  0  0
  8 35  1  0  0  0  0
  9 19  1  0  0  0  0
  9 10  1  0  0  0  0
 10 11  2  0  0  0  0
 10 36  1  0  0  0  0
 11 12  1  0  0  0  0
 12 19  2  0  0  0  0
 12 13  1  0  0  0  0
 13 14  2  0  0  0  0
 13 37  1  0  0  0  0
 14 15  1  0  0  0  0
 14 16  1  0  0  0  0
 16 17  1  0  0  0  0
 16 18  2  0  0  0  0
 18 19  1  0  0  0  0
 18 38  1  0  0  0  0
 20 21  1  0  0  0  0
 20 39  1  0  0  0  0
 20 40  1  0  0  0  0
 21 22  1  0  0  0  0
 21 23  1  0  0  0  0
 21 41  1  0  0  0  0
 22 42  1  0  0  0  0
 22 43  1  0  0  0  0
 22 44  1  0  0  0  0
M  CHG  1   4   1
M  END
> <s_m_source_file>
AV-unprocessed.smi

> <i_m_source_file_index>
1824

> <i_lp_mmshare_version>
43012

> <i_f3d_flags>
0

> <s_epik_input>
W0NIM11bQ0BASF0xW0NIMl1OKFtDSDJdW0NASF0oTzEpW0NIM10pW0NIMl1bQ0BIXShbT0hdKVtDSDJdbihbY0hdbjIpYyhjMjMpW2NIXWMoRiljKEYpW2NIXTM=

> <s_epik_cmdline>
J2VwaWtfcHl0aG9uJywgJy1waCcsICc3LjAnLCAnLXRuJywgJzgnLCAnLW1hJywgJzIwMCcsICctbWV0YWxfYmluZGluZycsICctaW1hZScsICc8aW5maWxlLm1hZT4nLCAnLW9tYWUnLCAnPG91dGZpbGUubWFlPic=

> <r_epik_Ionization_Penalty>
0.61967

> <r_epik_Ionization_Penalty_Charging>
0.608065

> <r_epik_Ionization_Penalty_Neutral>
0.0116057

> <r_epik_State_Penalty>
0.664205

> <r_epik_Charging_Adjusted_Penalty>
1.27227

> <i_epik_Tot_Q>
1

> <i_epik_Tot_abs_Q>
1

> <r_epik_Metal_State_Penalty>
0.654947

> <b_epik_Metal_Only>
0

> <s_lp_Force_Field>
OPLS_2005

> <r_lp_Energy>
19.9364

> <b_lp_Chiralities_Consistent>
1

> <s_lp_Variant>
AV-unprocessed.smi:1824-11

> <Gold.Version>
5.8.1

> <Gold.Id.Protein>
6NUR|6NUR_protein|mol2

> <Gold.PLP.Fitness>
53.9741

> <Gold.PLP.PLP>
-49.8892

> <Gold.PLP.part.hbond>
-1.0000

> <Gold.PLP.part.metal>
0.0000

> <Gold.PLP.part.buried>
-5.7827

> <Gold.PLP.part.nonpolar>
-43.8663

> <Gold.PLP.part.repulsive>
0.3486

> <Gold.PLP.ligand.clash>
0.0000

> <Gold.PLP.ligand.torsion>
0.9742

> <Gold.PLP.Chemscore.Hbond>
1.0000

> <Gold.PLP.Chemscore.CHOScore>
1.0000

> <Gold.PLP.Chemscore.Metal>
0.0000

> <Gold.Chemscore.Hbonds>
donor molecule, donor type, donor heavy atom, donor atom, acceptor molecule, acceptor atom, score
      P1  H  7989  7998       L1     7  1.00
      L1  C    10    36       P1  8028  0.92

> <Gold.PLP.Chemscore.Internal.Correction>
0.0333

> <Gold.Rescore>
     Score         DG    S(hbond)    S(metal)    S(lipo)     H(rot)  DE(clash)    DE(int)     intcor
     14.85     -15.94       0.97        0.00     112.59       2.33       0.09       0.99       ----

> <Gold.Chemscore.Fitness>
14.8526

> <Gold.Chemscore.DG>
-15.9377

> <Gold.Chemscore.ZeroCoef>
-5.4800

> <Gold.Chemscore.Hbond>
0.9693

> <Gold.Chemscore.Metal>
0.0000

> <Gold.Chemscore.Lipo>
112.5854

> <Gold.Chemscore.Internal_Hbond>
0.0000

> <Gold.Chemscore.DEClash>
0.0930

> <Gold.Chemscore.DEInternal>
0.9922

> <Gold.Chemscore.Rot>
2.3251

> <Gold.Chemscore.Internal.Correction>
   9.000000E+99

> <Gold.Chemscore.Hbonds>
donor molecule, donor type, donor heavy atom, donor atom, acceptor molecule, acceptor atom, score
      P1  H  7989  7998       L1     7  0.64

> <Gold.Chemscore.Hbond.Weighted>
-3.2376

> <Gold.Chemscore.Metal.Weighted>
-0.0000

> <Gold.Chemscore.Lipo.Weighted>
-13.1725

> <Gold.Chemscore.Internal_Hbond.Weighted>
0.0000

> <Gold.Chemscore.DEClash.Weighted>
0.0930

> <Gold.Chemscore.DEInternal.Weighted>
0.9922

> <Gold.Chemscore.Rot.Weighted>
5.9523

> <Gold.Chemscore.Internal.Correction.Weighted>
   9.000000E+99

> <Gold.Protein.RotatedTorsions>
[ 6907 6896 6895 6894 ] final  -13.57 input  -60.11 | X-H torsion
[ 7974 7965 7964 7962 ] final  -91.69 input  175.53 | X-H torsion
[ 8008 7997 7996 7995 ] final  124.30 input   59.86 | X-H torsion
[ 10167 10162 10161 10158 ] final  -50.21 input  -65.29 | X-H torsion
[ 10718 10713 10712 10709 ] final  149.36 input   66.30 | X-H torsion
[ 10763 10752 10751 10750 ] final  126.83 input  -60.55 | X-H torsion
[ 11005 11000 10999 10996 ] final  -36.89 input  -57.11 | X-H torsion

> <Gold.Protein.ActiveResidues>
 VAL166  LYS551  ARG553  GLY616  TRP617  ASP618  TYR619  PRO620  LYS621  CYS622 
 ASP623  PHE694  ASN695  SER759  ASP760  ASP761  ALA762  ILE779  LEU786  VAL792 
 PHE793  MET794  SER795  GLU796  ALA797  LYS798  CYS799  TRP800  GLU811  SER814 

> <Gold.Protein.RotatedAtoms>
  151.3529  135.0888  159.9408 H   0  0  0  0  0  0  0  0  0  0  0  0  # atno 6907 bound_to 6896
  152.5182  133.9335  159.7602 H   0  0  0  0  0  0  0  0  0  0  0  0  # atno 6908 bound_to 6896
  150.9714  133.6287  159.2767 H   0  0  0  0  0  0  0  0  0  0  0  0  # atno 6909 bound_to 6896
  145.4098  140.9544  143.2240 H   0  0  0  0  0  0  0  0  0  0  0  0  # atno 7974 bound_to 7965
  156.2796  140.2743  156.1766 H   0  0  0  0  0  0  0  0  0  0  0  0  # atno 8008 bound_to 7997
  155.0599  140.0386  157.2591 H   0  0  0  0  0  0  0  0  0  0  0  0  # atno 8009 bound_to 7997
  154.7125  140.2671  155.6621 H   0  0  0  0  0  0  0  0  0  0  0  0  # atno 8010 bound_to 7997
  140.6649  143.2667  151.4326 H   0  0  0  0  0  0  0  0  0  0  0  0  # atno 10167 bound_to 10162
  157.2971  131.0864  151.1418 H   0  0  0  0  0  0  0  0  0  0  0  0  # atno 10718 bound_to 10713
  153.6997  135.3285  155.3221 H   0  0  0  0  0  0  0  0  0  0  0  0  # atno 10763 bound_to 10752
  154.8416  135.4451  154.1424 H   0  0  0  0  0  0  0  0  0  0  0  0  # atno 10764 bound_to 10752
  153.2488  135.6979  153.7780 H   0  0  0  0  0  0  0  0  0  0  0  0  # atno 10765 bound_to 10752
  140.9910  133.7005  156.1850 H   0  0  0  0  0  0  0  0  0  0  0  0  # atno 11005 bound_to 11000
  144.8317  139.5618  143.6941 LP  0  0  0  0  0  0  0  0  0  0  0  0  # atno 17320 bound_to 7965
  146.2710  139.6636  142.9296 LP  0  0  0  0  0  0  0  0  0  0  0  0  # atno 17321 bound_to 7965
  139.5894  144.1533  152.2069 LP  0  0  0  0  0  0  0  0  0  0  0  0  # atno 17342 bound_to 10162
  140.0882  144.5643  150.7073 LP  0  0  0  0  0  0  0  0  0  0  0  0  # atno 17343 bound_to 10162
  157.2792  130.6742  149.6057 LP  0  0  0  0  0  0  0  0  0  0  0  0  # atno 17370 bound_to 10713
  155.9669  130.4455  150.5504 LP  0  0  0  0  0  0  0  0  0  0  0  0  # atno 17371 bound_to 10713
  140.7040  134.4533  157.5585 LP  0  0  0  0  0  0  0  0  0  0  0  0  # atno 17394 bound_to 11000
  139.8992  134.8596  156.1969 LP  0  0  0  0  0  0  0  0  0  0  0  0  # atno 17395 bound_to 11000

$$$$
