AV-unprocessed.smi:1731|AV-procd|sdf|6975|dock8
  -GOLD-   22720 8183D 1   1.00000     0.00000
 Structure written by MMmdl.
 41 42  0  0  0  0  0  0  0  0  1 V2000
  144.2821  144.2067  154.7099 C   0  0  0  0  0  0  0  0  0  0  0  0
  145.3584  143.1488  154.9921 C   0  0  2  0  0  0  0  0  0  0  0  0
  146.0704  142.7107  153.6978 C   0  0  0  0  0  0  0  0  0  0  0  0
  147.1470  141.6454  153.9731 C   0  0  0  0  0  0  0  0  0  0  0  0
  146.5820  140.4235  154.7225 C   0  0  2  0  0  0  0  0  0  0  0  0
  145.7076  139.6507  153.8417 N   0  0  0  0  0  0  0  0  0  0  0  0
  145.8370  138.3455  153.5653 C   0  0  0  0  0  0  0  0  0  0  0  0
  146.7299  137.6350  154.0279 O   0  0  0  0  0  0  0  0  0  0  0  0
  144.8716  137.9274  152.7306 N   0  0  0  0  0  0  0  0  0  0  0  0
  144.6828  136.6183  152.2205 C   0  0  0  0  0  0  0  0  0  0  0  0
  143.4888  135.8629  152.3516 C   0  0  0  0  0  0  0  0  0  0  0  0
  143.6067  134.6767  151.7751 N   0  0  0  0  0  0  0  0  0  0  0  0
  144.8672  134.6516  151.2735 N   0  0  0  0  0  0  0  0  0  0  0  0
  145.3371  133.4737  150.5658 C   0  0  0  0  0  0  0  0  0  0  0  0
  144.2932  132.9794  149.5620 C   0  0  0  0  0  0  0  0  0  0  0  0
  144.0166  133.7766  148.5268 N   0  0  0  0  0  0  0  0  0  0  0  0
  143.7457  131.8897  149.7162 O   0  0  0  0  0  0  0  0  0  0  0  0
  145.5508  135.8259  151.5241 C   0  0  0  0  0  0  0  0  0  0  0  0
  145.8440  140.8620  156.0052 C   0  0  0  0  0  0  0  0  0  0  0  0
  144.7695  141.9272  155.7234 C   0  0  0  0  0  0  0  0  0  0  0  0
  143.5002  143.8139  154.0591 H   0  0  0  0  0  0  0  0  0  0  0  0
  144.7115  145.0830  154.2234 H   0  0  0  0  0  0  0  0  0  0  0  0
  143.8096  144.5419  155.6335 H   0  0  0  0  0  0  0  0  0  0  0  0
  146.1026  143.6047  155.6464 H   0  0  0  0  0  0  0  0  0  0  0  0
  145.3400  142.3194  152.9883 H   0  0  0  0  0  0  0  0  0  0  0  0
  146.5308  143.5742  153.2165 H   0  0  0  0  0  0  0  0  0  0  0  0
  147.6118  141.3328  153.0373 H   0  0  0  0  0  0  0  0  0  0  0  0
  147.9426  142.0927  154.5703 H   0  0  0  0  0  0  0  0  0  0  0  0
  147.4238  139.7889  155.0054 H   0  0  0  0  0  0  0  0  0  0  0  0
  144.9414  140.1511  153.4157 H   0  0  0  0  0  0  0  0  0  0  0  0
  144.1974  138.6170  152.4322 H   0  0  0  0  0  0  0  0  0  0  0  0
  142.5604  136.1292  152.8353 H   0  0  0  0  0  0  0  0  0  0  0  0
  146.2646  133.7072  150.0405 H   0  0  0  0  0  0  0  0  0  0  0  0
  145.5696  132.6978  151.2965 H   0  0  0  0  0  0  0  0  0  0  0  0
  143.3349  133.4932  147.8376 H   0  0  0  0  0  0  0  0  0  0  0  0
  144.4925  134.6627  148.4372 H   0  0  0  0  0  0  0  0  0  0  0  0
  146.5671  135.9790  151.1927 H   0  0  0  0  0  0  0  0  0  0  0  0
  145.3947  140.0010  156.5016 H   0  0  0  0  0  0  0  0  0  0  0  0
  146.5694  141.2692  156.7106 H   0  0  0  0  0  0  0  0  0  0  0  0
  144.3148  142.2405  156.6637 H   0  0  0  0  0  0  0  0  0  0  0  0
  143.9676  141.4897  155.1270 H   0  0  0  0  0  0  0  0  0  0  0  0
  1  2  1  0  0  0  0
  1 21  1  0  0  0  0
  1 22  1  0  0  0  0
  1 23  1  0  0  0  0
  2 20  1  0  0  0  0
  2  3  1  0  0  0  0
  2 24  1  0  0  0  0
  3  4  1  0  0  0  0
  3 25  1  0  0  0  0
  3 26  1  0  0  0  0
  4  5  1  0  0  0  0
  4 27  1  0  0  0  0
  4 28  1  0  0  0  0
  5  6  1  0  0  0  0
  5 19  1  0  0  0  0
  5 29  1  0  0  0  0
  6  7  1  0  0  0  0
  6 30  1  0  0  0  0
  7  8  2  0  0  0  0
  7  9  1  0  0  0  0
  9 10  1  0  0  0  0
  9 31  1  0  0  0  0
 10 18  2  0  0  0  0
 10 11  1  0  0  0  0
 11 12  2  0  0  0  0
 11 32  1  0  0  0  0
 12 13  1  0  0  0  0
 13 14  1  0  0  0  0
 13 18  1  0  0  0  0
 14 15  1  0  0  0  0
 14 33  1  0  0  0  0
 14 34  1  0  0  0  0
 15 16  1  0  0  0  0
 15 17  2  0  0  0  0
 16 35  1  0  0  0  0
 16 36  1  0  0  0  0
 18 37  1  0  0  0  0
 19 20  1  0  0  0  0
 19 38  1  0  0  0  0
 19 39  1  0  0  0  0
 20 40  1  0  0  0  0
 20 41  1  0  0  0  0
M  END
> <s_m_source_file>
AV-unprocessed.smi

> <i_m_source_file_index>
1731

> <i_lp_mmshare_version>
43012

> <i_f3d_flags>
0

> <s_epik_input>
W0NIM11bQ0BASF0xW0NIMl1bQ0gyXVtDQEhdKFtDSDJdW0NIMl0xKVtOSF1DKD1PKVtOSF1jMltjSF1ubihbY0hdMilbQ0gyXUMoPU8pW05IMl0=

> <s_epik_cmdline>
J2VwaWtfcHl0aG9uJywgJy1waCcsICc3LjAnLCAnLXRuJywgJzgnLCAnLW1hJywgJzIwMCcsICctbWV0YWxfYmluZGluZycsICctaW1hZScsICc8aW5maWxlLm1hZT4nLCAnLW9tYWUnLCAnPG91dGZpbGUubWFlPic=

> <r_lp_tautomer_probability>
1

> <r_epik_Ionization_Penalty>
4.81284e-05

> <r_epik_Ionization_Penalty_Charging>
0

> <r_epik_Ionization_Penalty_Neutral>
4.81284e-05

> <r_epik_State_Penalty>
-0

> <r_epik_Charging_Adjusted_Penalty>
0

> <i_epik_Tot_Q>
0

> <i_epik_Tot_abs_Q>
0

> <r_epik_Metal_State_Penalty>
-0

> <b_epik_Metal_Only>
0

> <s_lp_Force_Field>
OPLS_2005

> <r_lp_Energy>
11.3018

> <b_lp_Chiralities_Consistent>
1

> <s_lp_Variant>
AV-unprocessed.smi:1731-2

> <Gold.Version>
5.8.1

> <Gold.Id.Protein>
6NUR|6NUR_protein|mol2

> <Gold.PLP.Fitness>
47.3637

> <Gold.PLP.PLP>
-35.3871

> <Gold.PLP.part.hbond>
-5.6589

> <Gold.PLP.part.metal>
0.0000

> <Gold.PLP.part.buried>
-8.2559

> <Gold.PLP.part.nonpolar>
-23.3144

> <Gold.PLP.part.repulsive>
0.7590

> <Gold.PLP.ligand.clash>
0.0000

> <Gold.PLP.ligand.torsion>
0.7592

> <Gold.PLP.Chemscore.Hbond>
3.4960

> <Gold.PLP.Chemscore.CHOScore>
1.0000

> <Gold.PLP.Chemscore.Metal>
0.0000

> <Gold.Chemscore.Hbonds>
donor molecule, donor type, donor heavy atom, donor atom, acceptor molecule, acceptor atom, score
      L1  H     6    30       P1 10175  1.00
      L1  H     9    31       P1 10175  0.96
      L1  H    16    36       P1  7921  0.45
      P1  H 10785 10796       L1    17  0.80
      L1  C    18    37       P1  7948  1.00

> <Gold.PLP.Chemscore.Internal.Correction>
0.0071

> <Gold.Rescore>
     Score         DG    S(hbond)    S(metal)    S(lipo)     H(rot)  DE(clash)    DE(int)     intcor
     16.97     -17.80       3.54        0.00      45.96       1.90       0.07       0.76       ----

> <Gold.Chemscore.Fitness>
16.9705

> <Gold.Chemscore.DG>
-17.7964

> <Gold.Chemscore.ZeroCoef>
-5.4800

> <Gold.Chemscore.Hbond>
3.5362

> <Gold.Chemscore.Metal>
0.0000

> <Gold.Chemscore.Lipo>
45.9567

> <Gold.Chemscore.Internal_Hbond>
0.0000

> <Gold.Chemscore.DEClash>
0.0682

> <Gold.Chemscore.DEInternal>
0.7577

> <Gold.Chemscore.Rot>
1.9029

> <Gold.Chemscore.Internal.Correction>
   9.000000E+99

> <Gold.Chemscore.Hbonds>
donor molecule, donor type, donor heavy atom, donor atom, acceptor molecule, acceptor atom, score
      L1  H     6    30       P1 10175  0.98
      L1  H     9    31       P1 10175  0.92
      L1  H    16    36       P1  7921  0.44
      P1  H 10785 10796       L1    17  0.77

> <Gold.Chemscore.Hbond.Weighted>
-11.8109

> <Gold.Chemscore.Metal.Weighted>
-0.0000

> <Gold.Chemscore.Lipo.Weighted>
-5.3769

> <Gold.Chemscore.Internal_Hbond.Weighted>
0.0000

> <Gold.Chemscore.DEClash.Weighted>
0.0682

> <Gold.Chemscore.DEInternal.Weighted>
0.7577

> <Gold.Chemscore.Rot.Weighted>
4.8714

> <Gold.Chemscore.Internal.Correction.Weighted>
   9.000000E+99

> <Gold.Protein.RotatedTorsions>
[ 6907 6896 6895 6894 ] final -134.75 input  -60.11 | X-H torsion
[ 7974 7965 7964 7962 ] final -165.72 input  175.53 | X-H torsion
[ 8008 7997 7996 7995 ] final   85.13 input   59.86 | X-H torsion
[ 10167 10162 10161 10158 ] final   13.27 input  -65.29 | X-H torsion
[ 10718 10713 10712 10709 ] final  135.44 input   66.30 | X-H torsion
[ 10763 10752 10751 10750 ] final -108.44 input  -60.55 | X-H torsion
[ 11005 11000 10999 10996 ] final  109.24 input  -57.11 | X-H torsion

> <Gold.Protein.ActiveResidues>
 VAL166  LYS551  ARG553  GLY616  TRP617  ASP618  TYR619  PRO620  LYS621  CYS622 
 ASP623  PHE694  ASN695  SER759  ASP760  ASP761  ALA762  ILE779  LEU786  VAL792 
 PHE793  MET794  SER795  GLU796  ALA797  LYS798  CYS799  TRP800  GLU811  SER814 

> <Gold.Protein.RotatedAtoms>
  150.9896  133.6162  159.2710 H   0  0  0  0  0  0  0  0  0  0  0  0  # atno 6907 bound_to 6896
  151.3388  135.0858  159.9373 H   0  0  0  0  0  0  0  0  0  0  0  0  # atno 6908 bound_to 6896
  152.5242  133.9512  159.7727 H   0  0  0  0  0  0  0  0  0  0  0  0  # atno 6909 bound_to 6896
  144.7263  140.2773  143.6241 H   0  0  0  0  0  0  0  0  0  0  0  0  # atno 7974 bound_to 7965
  155.9460  140.3404  155.6367 H   0  0  0  0  0  0  0  0  0  0  0  0  # atno 8008 bound_to 7997
  155.6979  140.0757  157.2440 H   0  0  0  0  0  0  0  0  0  0  0  0  # atno 8009 bound_to 7997
  154.4112  140.1645  156.2146 H   0  0  0  0  0  0  0  0  0  0  0  0  # atno 8010 bound_to 7997
  140.6014  143.8597  150.6969 H   0  0  0  0  0  0  0  0  0  0  0  0  # atno 10167 bound_to 10162
  157.4570  131.1070  150.9966 H   0  0  0  0  0  0  0  0  0  0  0  0  # atno 10718 bound_to 10713
  154.8136  135.4637  154.0582 H   0  0  0  0  0  0  0  0  0  0  0  0  # atno 10763 bound_to 10752
  153.1993  135.6866  153.8258 H   0  0  0  0  0  0  0  0  0  0  0  0  # atno 10764 bound_to 10752
  153.7749  135.3265  155.3334 H   0  0  0  0  0  0  0  0  0  0  0  0  # atno 10765 bound_to 10752
  139.8858  134.9453  156.6095 H   0  0  0  0  0  0  0  0  0  0  0  0  # atno 11005 bound_to 11000
  145.7984  139.1954  143.2062 LP  0  0  0  0  0  0  0  0  0  0  0  0  # atno 17320 bound_to 7965
  146.0697  140.7882  142.9694 LP  0  0  0  0  0  0  0  0  0  0  0  0  # atno 17321 bound_to 7965
  140.2144  143.3858  152.1693 LP  0  0  0  0  0  0  0  0  0  0  0  0  # atno 17342 bound_to 10162
  139.5294  144.7141  151.5112 LP  0  0  0  0  0  0  0  0  0  0  0  0  # atno 17343 bound_to 10162
  157.0776  130.5890  149.5414 LP  0  0  0  0  0  0  0  0  0  0  0  0  # atno 17370 bound_to 10713
  156.0011  130.5091  150.7667 LP  0  0  0  0  0  0  0  0  0  0  0  0  # atno 17371 bound_to 10713
  140.7822  133.8650  155.8577 LP  0  0  0  0  0  0  0  0  0  0  0  0  # atno 17394 bound_to 11000
  140.9750  134.1481  157.4544 LP  0  0  0  0  0  0  0  0  0  0  0  0  # atno 17395 bound_to 11000

$$$$
