AV-unprocessed.smi:907|AV-procd|sdf|4113|dock10
  -GOLD-   22720 2 13D 1   1.00000     0.00000
 Structure written by MMmdl.
 54 57  0  0  0  0  0  0  0  0  3 V2000
  151.5575  139.3901  156.5160 O   0  0  0  0  0  0  0  0  0  0  0  0
  150.6290  139.5415  155.7211 C   0  0  0  0  0  0  0  0  0  0  0  0
  149.7857  140.5856  155.7986 N   0  0  0  0  0  0  0  0  0  0  0  0
  149.8836  141.6690  156.7711 C   0  0  0  0  0  0  0  0  0  0  0  0
  151.2138  142.4312  156.6441 C   0  0  0  0  0  0  0  0  0  0  0  0
  151.5012  143.2899  157.8604 C   0  0  0  0  0  0  0  0  0  0  0  0
  152.4769  142.9310  158.8158 C   0  0  0  0  0  0  0  0  0  0  0  0
  152.7021  143.7761  159.9224 C   0  0  0  0  0  0  0  0  0  0  0  0
  151.9492  144.9619  160.0497 C   0  0  0  0  0  0  0  0  0  0  0  0
  150.9889  145.2728  159.0651 C   0  0  0  0  0  0  0  0  0  0  0  0
  150.8022  144.4373  158.0195 N   0  3  0  0  0  0  0  0  0  0  0  0
  150.3312  138.6424  154.7504 N   0  0  0  0  0  0  0  0  0  0  0  0
  151.1257  137.4584  154.3972 C   0  0  0  0  0  0  0  0  0  0  0  0
  150.4281  136.1985  154.9461 C   0  0  0  0  0  0  0  0  0  0  0  0
  149.0166  136.0921  154.4748 N   0  3  0  0  0  0  0  0  0  0  0  0
  148.3089  134.8898  155.0026 C   0  0  1  0  0  0  0  0  0  0  0  0
  146.9066  134.6516  154.3894 C   0  0  0  0  0  0  0  0  0  0  0  0
  146.9521  133.1686  153.9757 C   0  0  1  0  0  0  0  0  0  0  0  0
  147.8000  133.0375  152.6992 C   0  0  0  0  0  0  0  0  0  0  0  0
  149.2246  133.3034  153.2168 C   0  0  0  0  0  0  0  0  0  0  0  0
  149.0081  133.5342  154.7286 C   0  0  2  0  0  0  0  0  0  0  0  0
  147.8736  132.5589  155.0251 C   0  0  0  0  0  0  0  0  0  0  0  0
  148.2534  137.3527  154.7029 C   0  0  0  0  0  0  0  0  0  0  0  0
  149.0016  138.5739  154.1409 C   0  0  0  0  0  0  0  0  0  0  0  0
  149.0261  140.6333  155.1350 H   0  0  0  0  0  0  0  0  0  0  0  0
  149.0406  142.3515  156.6497 H   0  0  0  0  0  0  0  0  0  0  0  0
  149.7925  141.2393  157.7690 H   0  0  0  0  0  0  0  0  0  0  0  0
  152.0365  141.7294  156.5016 H   0  0  0  0  0  0  0  0  0  0  0  0
  151.2013  143.0714  155.7608 H   0  0  0  0  0  0  0  0  0  0  0  0
  153.0479  142.0207  158.7029 H   0  0  0  0  0  0  0  0  0  0  0  0
  153.4445  143.5182  160.6637 H   0  0  0  0  0  0  0  0  0  0  0  0
  152.1071  145.6231  160.8893 H   0  0  0  0  0  0  0  0  0  0  0  0
  150.3698  146.1579  159.0819 H   0  0  0  0  0  0  0  0  0  0  0  0
  151.2046  137.3952  153.3108 H   0  0  0  0  0  0  0  0  0  0  0  0
  152.1522  137.4925  154.7617 H   0  0  0  0  0  0  0  0  0  0  0  0
  150.9992  135.3247  154.6341 H   0  0  0  0  0  0  0  0  0  0  0  0
  150.4424  136.2146  156.0371 H   0  0  0  0  0  0  0  0  0  0  0  0
  148.2066  135.0091  156.0831 H   0  0  0  0  0  0  0  0  0  0  0  0
  146.1299  134.8285  155.1343 H   0  0  0  0  0  0  0  0  0  0  0  0
  146.6915  135.2858  153.5288 H   0  0  0  0  0  0  0  0  0  0  0  0
  145.9689  132.7040  153.8959 H   0  0  0  0  0  0  0  0  0  0  0  0
  147.7242  132.0315  152.2839 H   0  0  0  0  0  0  0  0  0  0  0  0
  147.4986  133.7421  151.9230 H   0  0  0  0  0  0  0  0  0  0  0  0
  149.8578  132.4316  153.0477 H   0  0  0  0  0  0  0  0  0  0  0  0
  149.6952  134.1514  152.7190 H   0  0  0  0  0  0  0  0  0  0  0  0
  149.9016  133.3672  155.3309 H   0  0  0  0  0  0  0  0  0  0  0  0
  147.4843  132.6380  156.0418 H   0  0  0  0  0  0  0  0  0  0  0  0
  148.1320  131.5178  154.8220 H   0  0  0  0  0  0  0  0  0  0  0  0
  147.2706  137.2989  154.2364 H   0  0  0  0  0  0  0  0  0  0  0  0
  148.0853  137.4849  155.7732 H   0  0  0  0  0  0  0  0  0  0  0  0
  148.4177  139.4809  154.3056 H   0  0  0  0  0  0  0  0  0  0  0  0
  149.1050  138.4845  153.0582 H   0  0  0  0  0  0  0  0  0  0  0  0
  149.0680  135.9724  153.4733 H   0  0  0  0  0  0  0  0  0  0  0  0
  150.1020  144.6831  157.3193 H   0  0  0  0  0  0  0  0  0  0  0  0
  1  2  2  0  0  0  0
  2  3  1  0  0  0  0
  2 12  1  0  0  0  0
  3  4  1  0  0  0  0
  3 25  1  0  0  0  0
  4  5  1  0  0  0  0
  4 26  1  0  0  0  0
  4 27  1  0  0  0  0
  5  6  1  0  0  0  0
  5 28  1  0  0  0  0
  5 29  1  0  0  0  0
  6 11  1  0  0  0  0
  6  7  2  0  0  0  0
  7  8  1  0  0  0  0
  7 30  1  0  0  0  0
  8  9  2  0  0  0  0
  8 31  1  0  0  0  0
  9 10  1  0  0  0  0
  9 32  1  0  0  0  0
 10 11  2  0  0  0  0
 10 33  1  0  0  0  0
 11 54  1  0  0  0  0
 12 24  1  0  0  0  0
 12 13  1  0  0  0  0
 13 14  1  0  0  0  0
 13 34  1  0  0  0  0
 13 35  1  0  0  0  0
 14 15  1  0  0  0  0
 14 36  1  0  0  0  0
 14 37  1  0  0  0  0
 15 16  1  0  0  0  0
 15 23  1  0  0  0  0
 15 53  1  0  0  0  0
 16 21  1  0  0  0  0
 16 17  1  0  0  0  0
 16 38  1  0  0  0  0
 17 18  1  0  0  0  0
 17 39  1  0  0  0  0
 17 40  1  0  0  0  0
 18 22  1  0  0  0  0
 18 19  1  0  0  0  0
 18 41  1  0  0  0  0
 19 20  1  0  0  0  0
 19 42  1  0  0  0  0
 19 43  1  0  0  0  0
 20 21  1  0  0  0  0
 20 44  1  0  0  0  0
 20 45  1  0  0  0  0
 21 22  1  0  0  0  0
 21 46  1  0  0  0  0
 22 47  1  0  0  0  0
 22 48  1  0  0  0  0
 23 24  1  0  0  0  0
 23 49  1  0  0  0  0
 23 50  1  0  0  0  0
 24 51  1  0  0  0  0
 24 52  1  0  0  0  0
M  CHG  1  11   1
M  CHG  1  15   1
M  END
> <s_m_source_file>
AV-unprocessed.smi

> <i_m_source_file_index>
907

> <i_lp_mmshare_version>
43012

> <i_f3d_flags>
0

> <s_epik_input>
W0NIMl0xW0NIMl1bQ0BASF0oW0NIMl0yKVtDQEBIXShbQ0gyXVtDQEhdMTIpTihbQ0gyXVtDSDJdMylbQ0gyXVtDSDJdTjNDKD1PKVtOSF1bQ0gyXVtDSDJdYzRbY0hdW2NIXVtjSF1bY0hdbjQ=

> <s_epik_cmdline>
J2VwaWtfcHl0aG9uJywgJy1waCcsICc3LjAnLCAnLXRuJywgJzgnLCAnLW1hJywgJzIwMCcsICctbWV0YWxfYmluZGluZycsICctaW1hZScsICc8aW5maWxlLm1hZT4nLCAnLW9tYWUnLCAnPG91dGZpbGUubWFlPic=

> <r_epik_Ionization_Penalty>
1.63018

> <r_epik_Ionization_Penalty_Charging>
1.63015

> <r_epik_Ionization_Penalty_Neutral>
2.64641e-05

> <r_epik_State_Penalty>
1.72761

> <r_epik_Charging_Adjusted_Penalty>
3.35777

> <i_epik_Tot_Q>
2

> <i_epik_Tot_abs_Q>
2

> <r_epik_Metal_State_Penalty>
1.76501

> <b_epik_Metal_Only>
0

> <s_lp_Force_Field>
OPLS_2005

> <r_lp_Energy>
102.542

> <b_lp_Chiralities_Consistent>
1

> <s_lp_Variant>
AV-unprocessed.smi:907-8

> <Gold.Version>
5.8.1

> <Gold.Id.Protein>
6NUR|6NUR_protein|mol2

> <Gold.PLP.Fitness>
54.3357

> <Gold.PLP.PLP>
-43.9570

> <Gold.PLP.part.hbond>
-2.0649

> <Gold.PLP.part.metal>
0.0000

> <Gold.PLP.part.buried>
-4.3727

> <Gold.PLP.part.nonpolar>
-37.5704

> <Gold.PLP.part.repulsive>
0.1610

> <Gold.PLP.ligand.clash>
1.0101

> <Gold.PLP.ligand.torsion>
0.3579

> <Gold.PLP.Chemscore.Hbond>
4.0000

> <Gold.PLP.Chemscore.CHOScore>
0.0000

> <Gold.PLP.Chemscore.Metal>
0.0000

> <Gold.Chemscore.Hbonds>
donor molecule, donor type, donor heavy atom, donor atom, acceptor molecule, acceptor atom, score
      L1  H    11    54       P1  8028  2.00
      L1  H    15    53       P1  7948  2.00

> <Gold.PLP.Chemscore.Internal.Correction>
0.1044

> <Gold.Rescore>
     Score         DG    S(hbond)    S(metal)    S(lipo)     H(rot)  DE(clash)    DE(int)     intcor
     19.75     -20.46       1.32        0.00     122.26       1.46       0.39       0.32       ----

> <Gold.Chemscore.Fitness>
19.7517

> <Gold.Chemscore.DG>
-20.4634

> <Gold.Chemscore.ZeroCoef>
-5.4800

> <Gold.Chemscore.Hbond>
1.3201

> <Gold.Chemscore.Metal>
0.0000

> <Gold.Chemscore.Lipo>
122.2632

> <Gold.Chemscore.Internal_Hbond>
0.0000

> <Gold.Chemscore.DEClash>
0.3870

> <Gold.Chemscore.DEInternal>
0.3247

> <Gold.Chemscore.Rot>
1.4572

> <Gold.Chemscore.Internal.Correction>
   9.000000E+99

> <Gold.Chemscore.Hbonds>
donor molecule, donor type, donor heavy atom, donor atom, acceptor molecule, acceptor atom, score
      L1  H    11    54       P1  8028  0.24
      L1  H    15    53       P1  7948  0.90

> <Gold.Chemscore.Hbond.Weighted>
-4.4091

> <Gold.Chemscore.Metal.Weighted>
-0.0000

> <Gold.Chemscore.Lipo.Weighted>
-14.3048

> <Gold.Chemscore.Internal_Hbond.Weighted>
0.0000

> <Gold.Chemscore.DEClash.Weighted>
0.3870

> <Gold.Chemscore.DEInternal.Weighted>
0.3247

> <Gold.Chemscore.Rot.Weighted>
3.7305

> <Gold.Chemscore.Internal.Correction.Weighted>
   9.000000E+99

> <Gold.Protein.RotatedTorsions>
[ 6907 6896 6895 6894 ] final -139.72 input  -60.11 | X-H torsion
[ 7974 7965 7964 7962 ] final  103.93 input  175.53 | X-H torsion
[ 8008 7997 7996 7995 ] final  -35.88 input   59.86 | X-H torsion
[ 10167 10162 10161 10158 ] final    5.87 input  -65.29 | X-H torsion
[ 10718 10713 10712 10709 ] final  -49.33 input   66.30 | X-H torsion
[ 10763 10752 10751 10750 ] final -161.76 input  -60.55 | X-H torsion
[ 11005 11000 10999 10996 ] final  -67.08 input  -57.11 | X-H torsion

> <Gold.Protein.ActiveResidues>
 VAL166  LYS551  ARG553  GLY616  TRP617  ASP618  TYR619  PRO620  LYS621  CYS622 
 ASP623  PHE694  ASN695  SER759  ASP760  ASP761  ALA762  ILE779  LEU786  VAL792 
 PHE793  MET794  SER795  GLU796  ALA797  LYS798  CYS799  TRP800  GLU811  SER814 

> <Gold.Protein.RotatedAtoms>
  151.0514  133.5621  159.2641 H   0  0  0  0  0  0  0  0  0  0  0  0  # atno 6907 bound_to 6896
  151.2631  135.0659  159.9115 H   0  0  0  0  0  0  0  0  0  0  0  0  # atno 6908 bound_to 6896
  152.5382  134.0256  159.8055 H   0  0  0  0  0  0  0  0  0  0  0  0  # atno 6909 bound_to 6896
  145.3395  139.2466  143.3617 H   0  0  0  0  0  0  0  0  0  0  0  0  # atno 7974 bound_to 7965
  154.4085  140.1645  156.2283 H   0  0  0  0  0  0  0  0  0  0  0  0  # atno 8008 bound_to 7997
  155.9304  140.3415  155.6222 H   0  0  0  0  0  0  0  0  0  0  0  0  # atno 8009 bound_to 7997
  155.7113  140.0757  157.2360 H   0  0  0  0  0  0  0  0  0  0  0  0  # atno 8010 bound_to 7997
  140.6459  143.7664  150.7497 H   0  0  0  0  0  0  0  0  0  0  0  0  # atno 10167 bound_to 10162
  156.1903  130.4152  149.9381 H   0  0  0  0  0  0  0  0  0  0  0  0  # atno 10718 bound_to 10713
  154.7274  135.3039  154.8947 H   0  0  0  0  0  0  0  0  0  0  0  0  # atno 10763 bound_to 10752
  153.9800  135.6731  153.4754 H   0  0  0  0  0  0  0  0  0  0  0  0  # atno 10764 bound_to 10752
  153.0888  135.4970  154.8568 H   0  0  0  0  0  0  0  0  0  0  0  0  # atno 10765 bound_to 10752
  141.1499  133.6712  156.6237 H   0  0  0  0  0  0  0  0  0  0  0  0  # atno 11005 bound_to 11000
  146.3013  140.3989  142.8703 LP  0  0  0  0  0  0  0  0  0  0  0  0  # atno 17320 bound_to 7965
  144.8802  140.7390  143.5992 LP  0  0  0  0  0  0  0  0  0  0  0  0  # atno 17321 bound_to 7965
  140.1305  143.4530  152.2257 LP  0  0  0  0  0  0  0  0  0  0  0  0  # atno 17342 bound_to 10162
  139.5669  144.7440  151.3997 LP  0  0  0  0  0  0  0  0  0  0  0  0  # atno 17343 bound_to 10162
  156.7123  130.8975  151.3610 LP  0  0  0  0  0  0  0  0  0  0  0  0  # atno 17370 bound_to 10713
  157.6925  130.9248  150.0552 LP  0  0  0  0  0  0  0  0  0  0  0  0  # atno 17371 bound_to 10713
  140.3520  134.7760  157.4474 LP  0  0  0  0  0  0  0  0  0  0  0  0  # atno 17394 bound_to 11000
  140.0853  134.5675  155.8499 LP  0  0  0  0  0  0  0  0  0  0  0  0  # atno 17395 bound_to 11000

$$$$
