AV-unprocessed.smi:315|AV-procd|sdf|2321|dock2
  -GOLD-   2262022223D 1   1.00000     0.00000
 Structure written by MMmdl.
 47 49  0  0  0  0  0  0  0  0  2 V2000
  151.3972  138.9027  155.8592 C   0  0  0  0  0  0  0  0  0  0  0  0
  151.5339  138.5195  154.3836 C   0  0  0  0  0  0  0  0  0  0  0  0
  150.2295  138.3960  153.8275 O   0  0  0  0  0  0  0  0  0  0  0  0
  149.3612  139.4675  153.9188 C   0  0  0  0  0  0  0  0  0  0  0  0
  149.8285  140.6403  154.4148 N   0  0  0  0  0  0  0  0  0  0  0  0
  148.9778  141.6840  154.5009 C   0  0  0  0  0  0  0  0  0  0  0  0
  147.6321  141.6172  154.0948 C   0  0  0  0  0  0  0  0  0  0  0  0
  147.1456  140.4013  153.5794 C   0  0  0  0  0  0  0  0  0  0  0  0
  148.0233  139.2937  153.4968 C   0  0  0  0  0  0  0  0  0  0  0  0
  147.6531  138.0232  152.9805 N   0  0  0  0  0  0  0  0  0  0  0  0
  146.4353  137.4526  152.9151 C   0  0  0  0  0  0  0  0  0  0  0  0
  145.3842  137.9960  153.2455 O   0  0  0  0  0  0  0  0  0  0  0  0
  146.4520  136.1890  152.4552 N   0  0  0  0  0  0  0  0  0  0  0  0
  145.3128  135.2899  152.2617 C   0  0  1  0  0  0  0  0  0  0  0  0
  144.3693  135.6991  151.1115 C   0  0  0  0  0  0  0  0  0  0  0  0
  143.9484  134.3795  150.4357 C   0  0  0  0  0  0  0  0  0  0  0  0
  144.5533  133.3120  151.2547 N   0  3  1  0  0  0  0  0  0  0  0  0
  144.8007  132.0117  150.5944 C   0  0  0  0  0  0  0  0  0  0  0  0
  145.3573  131.0140  151.6304 C   0  0  0  0  0  0  0  0  0  0  0  0
  146.5918  131.5783  152.3637 C   0  0  0  0  0  0  0  0  0  0  0  0
  146.3007  132.9732  152.9503 C   0  0  0  0  0  0  0  0  0  0  0  0
  145.7702  133.8944  151.8401 C   0  0  2  0  0  0  0  0  0  0  0  0
  152.3761  139.0081  156.3269 H   0  0  0  0  0  0  0  0  0  0  0  0
  150.8424  138.1436  156.4112 H   0  0  0  0  0  0  0  0  0  0  0  0
  150.8701  139.8508  155.9692 H   0  0  0  0  0  0  0  0  0  0  0  0
  152.1031  139.2876  153.8576 H   0  0  0  0  0  0  0  0  0  0  0  0
  152.0752  137.5761  154.2970 H   0  0  0  0  0  0  0  0  0  0  0  0
  149.3834  142.6017  154.9002 H   0  0  0  0  0  0  0  0  0  0  0  0
  146.9882  142.4806  154.1728 H   0  0  0  0  0  0  0  0  0  0  0  0
  146.1206  140.3486  153.2479 H   0  0  0  0  0  0  0  0  0  0  0  0
  148.4272  137.4298  152.7208 H   0  0  0  0  0  0  0  0  0  0  0  0
  147.3575  135.8128  152.2136 H   0  0  0  0  0  0  0  0  0  0  0  0
  144.7408  135.2071  153.1883 H   0  0  0  0  0  0  0  0  0  0  0  0
  143.5082  136.2532  151.4871 H   0  0  0  0  0  0  0  0  0  0  0  0
  144.8783  136.3372  150.3876 H   0  0  0  0  0  0  0  0  0  0  0  0
  142.8651  134.2638  150.3877 H   0  0  0  0  0  0  0  0  0  0  0  0
  144.3396  134.3398  149.4177 H   0  0  0  0  0  0  0  0  0  0  0  0
  143.8706  131.6340  150.1683 H   0  0  0  0  0  0  0  0  0  0  0  0
  145.5050  132.1405  149.7712 H   0  0  0  0  0  0  0  0  0  0  0  0
  144.5810  130.7836  152.3614 H   0  0  0  0  0  0  0  0  0  0  0  0
  145.6100  130.0716  151.1440 H   0  0  0  0  0  0  0  0  0  0  0  0
  146.9036  130.8958  153.1547 H   0  0  0  0  0  0  0  0  0  0  0  0
  147.4275  131.6458  151.6659 H   0  0  0  0  0  0  0  0  0  0  0  0
  145.5682  132.8914  153.7547 H   0  0  0  0  0  0  0  0  0  0  0  0
  147.2060  133.3918  153.3912 H   0  0  0  0  0  0  0  0  0  0  0  0
  146.5232  133.9863  151.0535 H   0  0  0  0  0  0  0  0  0  0  0  0
  143.9186  133.1447  152.0224 H   0  0  0  0  0  0  0  0  0  0  0  0
  1  2  1  0  0  0  0
  1 23  1  0  0  0  0
  1 24  1  0  0  0  0
  1 25  1  0  0  0  0
  2  3  1  0  0  0  0
  2 26  1  0  0  0  0
  2 27  1  0  0  0  0
  3  4  1  0  0  0  0
  4  9  1  0  0  0  0
  4  5  2  0  0  0  0
  5  6  1  0  0  0  0
  6  7  2  0  0  0  0
  6 28  1  0  0  0  0
  7  8  1  0  0  0  0
  7 29  1  0  0  0  0
  8  9  2  0  0  0  0
  8 30  1  0  0  0  0
  9 10  1  0  0  0  0
 10 11  1  0  0  0  0
 10 31  1  0  0  0  0
 11 12  2  0  0  0  0
 11 13  1  0  0  0  0
 13 14  1  0  0  0  0
 13 32  1  0  0  0  0
 14 22  1  0  0  0  0
 14 15  1  0  0  0  0
 14 33  1  0  0  0  0
 15 16  1  0  0  0  0
 15 34  1  0  0  0  0
 15 35  1  0  0  0  0
 16 17  1  0  0  0  0
 16 36  1  0  0  0  0
 16 37  1  0  0  0  0
 17 22  1  0  0  0  0
 17 18  1  0  0  0  0
 17 47  1  0  0  0  0
 18 19  1  0  0  0  0
 18 38  1  0  0  0  0
 18 39  1  0  0  0  0
 19 20  1  0  0  0  0
 19 40  1  0  0  0  0
 19 41  1  0  0  0  0
 20 21  1  0  0  0  0
 20 42  1  0  0  0  0
 20 43  1  0  0  0  0
 21 22  1  0  0  0  0
 21 44  1  0  0  0  0
 21 45  1  0  0  0  0
 22 46  1  0  0  0  0
M  CHG  1  17   1
M  END
> <s_m_source_file>
AV-unprocessed.smi

> <i_m_source_file_index>
315

> <i_lp_mmshare_version>
43012

> <i_f3d_flags>
0

> <s_epik_input>
W0NIM11bQ0gyXU9jMW5bY0hdW2NIXVtjSF1jMVtOSF1DKD1PKVtOSF1bQ0BIXShbQ0gyXVtDSDJdMilbQ0BASF0oTjIzKVtDSDJdW0NIMl1bQ0gyXVtDSDJdMw==

> <s_epik_cmdline>
J2VwaWtfcHl0aG9uJywgJy1waCcsICc3LjAnLCAnLXRuJywgJzgnLCAnLW1hJywgJzIwMCcsICctbWV0YWxfYmluZGluZycsICctaW1hZScsICc8aW5maWxlLm1hZT4nLCAnLW9tYWUnLCAnPG91dGZpbGUubWFlPic=

> <r_lp_tautomer_probability>
1

> <r_epik_Ionization_Penalty>
0.00106455

> <r_epik_Ionization_Penalty_Charging>
0.000974069

> <r_epik_Ionization_Penalty_Neutral>
9.04821e-05

> <r_epik_State_Penalty>
0.000633842

> <r_epik_Charging_Adjusted_Penalty>
0.00160791

> <i_epik_Tot_Q>
1

> <i_epik_Tot_abs_Q>
1

> <r_epik_Metal_State_Penalty>
-0

> <b_epik_Metal_Only>
0

> <s_lp_Force_Field>
OPLS_2005

> <r_lp_Energy>
47.5767

> <b_lp_Chiralities_Consistent>
1

> <s_lp_Variant>
AV-unprocessed.smi:315-6

> <Gold.Version>
5.8.1

> <Gold.Id.Protein>
6NUR|6NUR_protein|mol2

> <Gold.PLP.Fitness>
43.8775

> <Gold.PLP.PLP>
-33.4598

> <Gold.PLP.part.hbond>
-2.8135

> <Gold.PLP.part.metal>
0.0000

> <Gold.PLP.part.buried>
1.6609

> <Gold.PLP.part.nonpolar>
-32.3889

> <Gold.PLP.part.repulsive>
0.8721

> <Gold.PLP.ligand.clash>
0.0000

> <Gold.PLP.ligand.torsion>
0.2318

> <Gold.PLP.Chemscore.Hbond>
2.6174

> <Gold.PLP.Chemscore.CHOScore>
1.0000

> <Gold.PLP.Chemscore.Metal>
0.0000

> <Gold.Chemscore.Hbonds>
donor molecule, donor type, donor heavy atom, donor atom, acceptor molecule, acceptor atom, score
      L1  H    10    31       P1  7948  0.98
      L1  H    13    32       P1  7948  0.90
      P1  H  7989  7998       L1     5  0.74
      L1  C     6    28       P1  8028  1.00

> <Gold.PLP.Chemscore.Internal.Correction>
0.0290

> <Gold.Rescore>
     Score         DG    S(hbond)    S(metal)    S(lipo)     H(rot)  DE(clash)    DE(int)     intcor
     15.73     -18.98       1.96        0.00      89.55       1.38       0.53       2.71       ----

> <Gold.Chemscore.Fitness>
15.7332

> <Gold.Chemscore.DG>
-18.9774

> <Gold.Chemscore.ZeroCoef>
-5.4800

> <Gold.Chemscore.Hbond>
1.9597

> <Gold.Chemscore.Metal>
0.0000

> <Gold.Chemscore.Lipo>
89.5494

> <Gold.Chemscore.Internal_Hbond>
0.0000

> <Gold.Chemscore.DEClash>
0.5303

> <Gold.Chemscore.DEInternal>
2.7140

> <Gold.Chemscore.Rot>
1.3770

> <Gold.Chemscore.Internal.Correction>
   9.000000E+99

> <Gold.Chemscore.Hbonds>
donor molecule, donor type, donor heavy atom, donor atom, acceptor molecule, acceptor atom, score
      L1  H    10    31       P1  7948  0.89
      L1  H    13    32       P1  7948  0.88
      P1  H  7989  7998       L1     5  0.30

> <Gold.Chemscore.Hbond.Weighted>
-6.5453

> <Gold.Chemscore.Metal.Weighted>
-0.0000

> <Gold.Chemscore.Lipo.Weighted>
-10.4773

> <Gold.Chemscore.Internal_Hbond.Weighted>
0.0000

> <Gold.Chemscore.DEClash.Weighted>
0.5303

> <Gold.Chemscore.DEInternal.Weighted>
2.7140

> <Gold.Chemscore.Rot.Weighted>
3.5252

> <Gold.Chemscore.Internal.Correction.Weighted>
   9.000000E+99

> <Gold.Protein.RotatedTorsions>
[ 6907 6896 6895 6894 ] final   36.01 input  -60.11 | X-H torsion
[ 7974 7965 7964 7962 ] final   39.65 input  175.53 | X-H torsion
[ 8008 7997 7996 7995 ] final -168.65 input   59.86 | X-H torsion
[ 10167 10162 10161 10158 ] final -118.29 input  -65.29 | X-H torsion
[ 10718 10713 10712 10709 ] final -132.53 input   66.30 | X-H torsion
[ 10763 10752 10751 10750 ] final   68.96 input  -60.55 | X-H torsion
[ 11005 11000 10999 10996 ] final  -40.94 input  -57.11 | X-H torsion

> <Gold.Protein.ActiveResidues>
 VAL166  LYS551  ARG553  GLY616  TRP617  ASP618  TYR619  PRO620  LYS621  CYS622 
 ASP623  PHE694  ASN695  SER759  ASP760  ASP761  ALA762  ILE779  LEU786  VAL792 
 PHE793  MET794  SER795  GLU796  ALA797  LYS798  CYS799  TRP800  GLU811  SER814 

> <Gold.Protein.RotatedAtoms>
  152.1239  134.9185  160.0561 H   0  0  0  0  0  0  0  0  0  0  0  0  # atno 6907 bound_to 6896
  152.0315  133.3934  159.4307 H   0  0  0  0  0  0  0  0  0  0  0  0  # atno 6908 bound_to 6896
  150.6851  134.3436  159.4922 H   0  0  0  0  0  0  0  0  0  0  0  0  # atno 6909 bound_to 6896
  146.0967  139.5626  142.9440 H   0  0  0  0  0  0  0  0  0  0  0  0  # atno 7974 bound_to 7965
  155.8943  140.1030  157.1396 H   0  0  0  0  0  0  0  0  0  0  0  0  # atno 8008 bound_to 7997
  154.4018  140.1305  156.4419 H   0  0  0  0  0  0  0  0  0  0  0  0  # atno 8009 bound_to 7997
  155.7497  140.3465  155.5147 H   0  0  0  0  0  0  0  0  0  0  0  0  # atno 8010 bound_to 7997
  140.0591  143.4985  152.2041 H   0  0  0  0  0  0  0  0  0  0  0  0  # atno 10167 bound_to 10162
  156.2355  130.7064  151.0903 H   0  0  0  0  0  0  0  0  0  0  0  0  # atno 10718 bound_to 10713
  153.0262  135.5228  154.7215 H   0  0  0  0  0  0  0  0  0  0  0  0  # atno 10763 bound_to 10752
  154.6269  135.2895  155.0264 H   0  0  0  0  0  0  0  0  0  0  0  0  # atno 10764 bound_to 10752
  154.1230  135.6604  153.4959 H   0  0  0  0  0  0  0  0  0  0  0  0  # atno 10765 bound_to 10752
  141.0211  133.6862  156.2390 H   0  0  0  0  0  0  0  0  0  0  0  0  # atno 11005 bound_to 11000
  145.5934  141.0366  143.2058 LP  0  0  0  0  0  0  0  0  0  0  0  0  # atno 17320 bound_to 7965
  144.7401  139.7473  143.7314 LP  0  0  0  0  0  0  0  0  0  0  0  0  # atno 17321 bound_to 7965
  139.5905  144.7548  151.3413 LP  0  0  0  0  0  0  0  0  0  0  0  0  # atno 17342 bound_to 10162
  140.7180  143.7212  150.7694 LP  0  0  0  0  0  0  0  0  0  0  0  0  # atno 17343 bound_to 10162
  157.7152  131.0713  150.6352 LP  0  0  0  0  0  0  0  0  0  0  0  0  # atno 17370 bound_to 10713
  156.6422  130.4461  149.5748 LP  0  0  0  0  0  0  0  0  0  0  0  0  # atno 17371 bound_to 10713
  140.6572  134.5005  157.5581 LP  0  0  0  0  0  0  0  0  0  0  0  0  # atno 17394 bound_to 11000
  139.9146  134.8272  156.1409 LP  0  0  0  0  0  0  0  0  0  0  0  0  # atno 17395 bound_to 11000

$$$$
