AV-unprocessed.smi:2516|AV-procd|sdf|9899|dock7
  -GOLD-   2272013533D 1   1.00000     0.00000
 Structure written by MMmdl.
 47 48  0  0  0  0  0  0  0  0  1 V2000
  150.8570  141.6306  157.2957 C   0  0  0  0  0  0  0  0  0  0  0  0
  151.2791  141.0270  155.9513 C   0  0  0  0  0  0  0  0  0  0  0  0
  150.1336  140.5539  155.1939 N   0  0  0  0  0  0  0  0  0  0  0  0
  149.1090  141.4077  154.9565 N   0  0  0  0  0  0  0  0  0  0  0  0
  148.2236  140.7177  154.2527 C   0  0  0  0  0  0  0  0  0  0  0  0
  146.9861  141.4162  153.7611 C   0  0  0  0  0  0  0  0  0  0  0  0
  148.6733  139.3760  154.0687 C   0  0  0  0  0  0  0  0  0  0  0  0
  148.0579  138.3158  153.3568 N   0  0  0  0  0  0  0  0  0  0  0  0
  146.7920  137.8896  153.4848 C   0  0  0  0  0  0  0  0  0  0  0  0
  145.9619  138.3703  154.2554 O   0  0  0  0  0  0  0  0  0  0  0  0
  146.5445  136.8476  152.6780 N   0  0  0  0  0  0  0  0  0  0  0  0
  145.2784  136.1202  152.5908 C   0  0  1  0  0  0  0  0  0  0  0  0
  144.1269  137.1400  152.5097 C   0  0  0  0  0  0  0  0  0  0  0  0
  145.3108  135.1338  151.3937 C   0  0  0  0  0  0  0  0  0  0  0  0
  143.9844  134.3660  151.2185 C   0  0  0  0  0  0  0  0  0  0  0  0
  144.0771  133.3397  150.0775 C   0  0  0  0  0  0  0  0  0  0  0  0
  145.1513  132.4390  150.3154 O   0  0  0  0  0  0  0  0  0  0  0  0
  146.4142  133.0917  150.3523 C   0  0  0  0  0  0  0  0  0  0  0  0
  146.4504  134.0986  151.5130 C   0  0  0  0  0  0  0  0  0  0  0  0
  149.9066  139.3021  154.6487 C   0  0  0  0  0  0  0  0  0  0  0  0
  150.8857  138.1771  154.7516 C   0  0  0  0  0  0  0  0  0  0  0  0
  151.7258  141.9782  157.8548 H   0  0  0  0  0  0  0  0  0  0  0  0
  150.3363  140.8971  157.9117 H   0  0  0  0  0  0  0  0  0  0  0  0
  150.1905  142.4817  157.1531 H   0  0  0  0  0  0  0  0  0  0  0  0
  151.8133  141.7696  155.3569 H   0  0  0  0  0  0  0  0  0  0  0  0
  151.9703  140.1985  156.1073 H   0  0  0  0  0  0  0  0  0  0  0  0
  146.6704  141.0259  152.7939 H   0  0  0  0  0  0  0  0  0  0  0  0
  147.1541  142.4866  153.6387 H   0  0  0  0  0  0  0  0  0  0  0  0
  146.1606  141.2901  154.4614 H   0  0  0  0  0  0  0  0  0  0  0  0
  148.6681  137.7582  152.7780 H   0  0  0  0  0  0  0  0  0  0  0  0
  147.2926  136.5231  152.0831 H   0  0  0  0  0  0  0  0  0  0  0  0
  145.1466  135.5323  153.5012 H   0  0  0  0  0  0  0  0  0  0  0  0
  143.1527  136.6562  152.5689 H   0  0  0  0  0  0  0  0  0  0  0  0
  144.1644  137.7086  151.5798 H   0  0  0  0  0  0  0  0  0  0  0  0
  144.1735  137.8516  153.3348 H   0  0  0  0  0  0  0  0  0  0  0  0
  145.4834  135.7124  150.4845 H   0  0  0  0  0  0  0  0  0  0  0  0
  143.7286  133.8523  152.1462 H   0  0  0  0  0  0  0  0  0  0  0  0
  143.1651  135.0518  151.0048 H   0  0  0  0  0  0  0  0  0  0  0  0
  143.1502  132.7696  150.0116 H   0  0  0  0  0  0  0  0  0  0  0  0
  144.2118  133.8379  149.1162 H   0  0  0  0  0  0  0  0  0  0  0  0
  147.1936  132.3409  150.4839 H   0  0  0  0  0  0  0  0  0  0  0  0
  146.6085  133.5881  149.4002 H   0  0  0  0  0  0  0  0  0  0  0  0
  147.4238  134.5895  151.5237 H   0  0  0  0  0  0  0  0  0  0  0  0
  146.3634  133.5624  152.4589 H   0  0  0  0  0  0  0  0  0  0  0  0
  150.4568  137.2454  154.3836 H   0  0  0  0  0  0  0  0  0  0  0  0
  151.1882  138.0175  155.7866 H   0  0  0  0  0  0  0  0  0  0  0  0
  151.7798  138.3892  154.1653 H   0  0  0  0  0  0  0  0  0  0  0  0
  1  2  1  0  0  0  0
  1 22  1  0  0  0  0
  1 23  1  0  0  0  0
  1 24  1  0  0  0  0
  2  3  1  0  0  0  0
  2 25  1  0  0  0  0
  2 26  1  0  0  0  0
  3 20  1  0  0  0  0
  3  4  1  0  0  0  0
  4  5  2  0  0  0  0
  5  6  1  0  0  0  0
  5  7  1  0  0  0  0
  6 27  1  0  0  0  0
  6 28  1  0  0  0  0
  6 29  1  0  0  0  0
  7  8  1  0  0  0  0
  7 20  2  0  0  0  0
  8  9  1  0  0  0  0
  8 30  1  0  0  0  0
  9 10  2  0  0  0  0
  9 11  1  0  0  0  0
 11 12  1  0  0  0  0
 11 31  1  0  0  0  0
 12 13  1  0  0  0  0
 12 14  1  0  0  0  0
 12 32  1  0  0  0  0
 13 33  1  0  0  0  0
 13 34  1  0  0  0  0
 13 35  1  0  0  0  0
 14 19  1  0  0  0  0
 14 15  1  0  0  0  0
 14 36  1  0  0  0  0
 15 16  1  0  0  0  0
 15 37  1  0  0  0  0
 15 38  1  0  0  0  0
 16 17  1  0  0  0  0
 16 39  1  0  0  0  0
 16 40  1  0  0  0  0
 17 18  1  0  0  0  0
 18 19  1  0  0  0  0
 18 41  1  0  0  0  0
 18 42  1  0  0  0  0
 19 43  1  0  0  0  0
 19 44  1  0  0  0  0
 20 21  1  0  0  0  0
 21 45  1  0  0  0  0
 21 46  1  0  0  0  0
 21 47  1  0  0  0  0
M  END
> <s_m_source_file>
AV-unprocessed.smi

> <i_m_source_file_index>
2516

> <i_lp_mmshare_version>
43012

> <i_f3d_flags>
0

> <s_epik_input>
W0NIM11bQ0gyXW4xbmMoW0NIM10pYyhjMVtDSDNdKVtOSF1DKD1PKVtOSF1bQ0BIXShbQ0gzXSlbQ0hdMltDSDJdW0NIMl1PW0NIMl1bQ0gyXTI=

> <s_epik_cmdline>
J2VwaWtfcHl0aG9uJywgJy1waCcsICc3LjAnLCAnLXRuJywgJzgnLCAnLW1hJywgJzIwMCcsICctbWV0YWxfYmluZGluZycsICctaW1hZScsICc8aW5maWxlLm1hZT4nLCAnLW9tYWUnLCAnPG91dGZpbGUubWFlPic=

> <r_lp_tautomer_probability>
1

> <r_epik_Ionization_Penalty>
0.00383358

> <r_epik_Ionization_Penalty_Charging>
0

> <r_epik_Ionization_Penalty_Neutral>
0.00383358

> <r_epik_State_Penalty>
0.00270714

> <r_epik_Charging_Adjusted_Penalty>
0.00270714

> <i_epik_Tot_Q>
0

> <i_epik_Tot_abs_Q>
0

> <r_epik_Metal_State_Penalty>
-0

> <b_epik_Metal_Only>
0

> <s_lp_Force_Field>
OPLS_2005

> <r_lp_Energy>
15.2282

> <b_lp_Chiralities_Consistent>
1

> <s_lp_Variant>
AV-unprocessed.smi:2516-2

> <Gold.Version>
5.8.1

> <Gold.Id.Protein>
6NUR|6NUR_protein|mol2

> <Gold.PLP.Fitness>
42.8366

> <Gold.PLP.PLP>
-37.6867

> <Gold.PLP.part.hbond>
-2.4204

> <Gold.PLP.part.metal>
0.0000

> <Gold.PLP.part.buried>
-2.9079

> <Gold.PLP.part.nonpolar>
-31.7288

> <Gold.PLP.part.repulsive>
0.4182

> <Gold.PLP.ligand.clash>
0.0000

> <Gold.PLP.ligand.torsion>
0.5838

> <Gold.PLP.Chemscore.Hbond>
2.0000

> <Gold.PLP.Chemscore.CHOScore>
0.0000

> <Gold.PLP.Chemscore.Metal>
0.0000

> <Gold.Chemscore.Hbonds>
donor molecule, donor type, donor heavy atom, donor atom, acceptor molecule, acceptor atom, score
      L1  H     8    30       P1  7948  1.00
      L1  H    11    31       P1  7948  1.00

> <Gold.PLP.Chemscore.Internal.Correction>
0.3175

> <Gold.Rescore>
     Score         DG    S(hbond)    S(metal)    S(lipo)     H(rot)  DE(clash)    DE(int)     intcor
     16.80     -18.90       1.91        0.00      88.72       1.30       0.02       2.09       ----

> <Gold.Chemscore.Fitness>
16.7963

> <Gold.Chemscore.DG>
-18.9020

> <Gold.Chemscore.ZeroCoef>
-5.4800

> <Gold.Chemscore.Hbond>
1.9063

> <Gold.Chemscore.Metal>
0.0000

> <Gold.Chemscore.Lipo>
88.7205

> <Gold.Chemscore.Internal_Hbond>
0.0000

> <Gold.Chemscore.DEClash>
0.0167

> <Gold.Chemscore.DEInternal>
2.0890

> <Gold.Chemscore.Rot>
1.2990

> <Gold.Chemscore.Internal.Correction>
   9.000000E+99

> <Gold.Chemscore.Hbonds>
donor molecule, donor type, donor heavy atom, donor atom, acceptor molecule, acceptor atom, score
      L1  H     8    30       P1  7948  0.94
      L1  H    11    31       P1  7948  0.94

> <Gold.Chemscore.Hbond.Weighted>
-6.3672

> <Gold.Chemscore.Metal.Weighted>
-0.0000

> <Gold.Chemscore.Lipo.Weighted>
-10.3803

> <Gold.Chemscore.Internal_Hbond.Weighted>
0.0000

> <Gold.Chemscore.DEClash.Weighted>
0.0167

> <Gold.Chemscore.DEInternal.Weighted>
2.0890

> <Gold.Chemscore.Rot.Weighted>
3.3254

> <Gold.Chemscore.Internal.Correction.Weighted>
   9.000000E+99

> <Gold.Protein.RotatedTorsions>
[ 6907 6896 6895 6894 ] final -172.65 input  -60.11 | X-H torsion
[ 7974 7965 7964 7962 ] final  -53.63 input  175.53 | X-H torsion
[ 8008 7997 7996 7995 ] final -109.67 input   59.86 | X-H torsion
[ 10167 10162 10161 10158 ] final -127.13 input  -65.29 | X-H torsion
[ 10718 10713 10712 10709 ] final -126.10 input   66.30 | X-H torsion
[ 10763 10752 10751 10750 ] final -126.21 input  -60.55 | X-H torsion
[ 11005 11000 10999 10996 ] final  -85.39 input  -57.11 | X-H torsion

> <Gold.Protein.ActiveResidues>
 VAL166  LYS551  ARG553  GLY616  TRP617  ASP618  TYR619  PRO620  LYS621  CYS622 
 ASP623  PHE694  ASN695  SER759  ASP760  ASP761  ALA762  ILE779  LEU786  VAL792 
 PHE793  MET794  SER795  GLU796  ALA797  LYS798  CYS799  TRP800  GLU811  SER814 

> <Gold.Protein.RotatedAtoms>
  151.5435  133.3429  159.2939 H   0  0  0  0  0  0  0  0  0  0  0  0  # atno 6907 bound_to 6896
  150.8521  134.7852  159.7028 H   0  0  0  0  0  0  0  0  0  0  0  0  # atno 6908 bound_to 6896
  152.4565  134.5289  159.9856 H   0  0  0  0  0  0  0  0  0  0  0  0  # atno 6909 bound_to 6896
  145.8946  140.8043  142.9774 H   0  0  0  0  0  0  0  0  0  0  0  0  # atno 7974 bound_to 7965
  154.9629  140.0399  157.2198 H   0  0  0  0  0  0  0  0  0  0  0  0  # atno 8008 bound_to 7997
  154.7872  140.2829  155.5996 H   0  0  0  0  0  0  0  0  0  0  0  0  # atno 8009 bound_to 7997
  156.2945  140.2580  156.2712 H   0  0  0  0  0  0  0  0  0  0  0  0  # atno 8010 bound_to 7997
  139.9641  143.5917  152.2435 H   0  0  0  0  0  0  0  0  0  0  0  0  # atno 10167 bound_to 10162
  156.1734  130.6683  151.0210 H   0  0  0  0  0  0  0  0  0  0  0  0  # atno 10718 bound_to 10713
  154.8743  135.4003  154.3394 H   0  0  0  0  0  0  0  0  0  0  0  0  # atno 10763 bound_to 10752
  153.4196  135.7023  153.6308 H   0  0  0  0  0  0  0  0  0  0  0  0  # atno 10764 bound_to 10752
  153.4976  135.3734  155.2494 H   0  0  0  0  0  0  0  0  0  0  0  0  # atno 10765 bound_to 10752
  141.1641  133.7396  156.9007 H   0  0  0  0  0  0  0  0  0  0  0  0  # atno 11005 bound_to 11000
  144.6732  140.1583  143.7424 LP  0  0  0  0  0  0  0  0  0  0  0  0  # atno 17320 bound_to 7965
  145.8866  139.2352  143.1574 LP  0  0  0  0  0  0  0  0  0  0  0  0  # atno 17321 bound_to 7965
  139.6531  144.7661  151.2109 LP  0  0  0  0  0  0  0  0  0  0  0  0  # atno 17342 bound_to 10162
  140.7543  143.6129  150.8588 LP  0  0  0  0  0  0  0  0  0  0  0  0  # atno 17343 bound_to 10162
  157.6819  131.0835  150.7347 LP  0  0  0  0  0  0  0  0  0  0  0  0  # atno 17370 bound_to 10713
  156.7406  130.4738  149.5478 LP  0  0  0  0  0  0  0  0  0  0  0  0  # atno 17371 bound_to 10713
  140.1584  134.9182  157.2683 LP  0  0  0  0  0  0  0  0  0  0  0  0  # atno 17394 bound_to 11000
  140.2640  134.3538  155.7396 LP  0  0  0  0  0  0  0  0  0  0  0  0  # atno 17395 bound_to 11000

$$$$
