AV-unprocessed.smi:2341|AV-procd|sdf|9352|dock7
  -GOLD-   2272012573D 1   1.00000     0.00000
 Structure written by MMmdl.
 52 54  0  0  0  0  0  0  0  0  2 V2000
  141.5701  134.3417  152.9503 C   0  0  0  0  0  0  0  0  0  0  0  0
  142.5110  135.4824  153.2757 C   0  0  0  0  0  0  0  0  0  0  0  0
  142.0267  136.7829  153.5127 C   0  0  0  0  0  0  0  0  0  0  0  0
  142.9473  137.8060  153.8104 C   0  0  0  0  0  0  0  0  0  0  0  0
  144.3272  137.5065  153.8631 C   0  0  0  0  0  0  0  0  0  0  0  0
  145.1696  138.6079  154.1706 N   0  0  0  0  0  0  0  0  0  0  0  0
  146.2763  138.6200  154.9341 C   0  0  0  0  0  0  0  0  0  0  0  0
  146.7577  137.6434  155.5093 O   0  0  0  0  0  0  0  0  0  0  0  0
  146.8098  139.8489  154.9969 N   0  0  0  0  0  0  0  0  0  0  0  0
  148.0084  140.2042  155.7510 C   0  0  2  0  0  0  0  0  0  0  0  0
  147.6258  141.0378  156.9806 C   0  0  0  0  0  0  0  0  0  0  0  0
  148.8699  141.4994  157.7595 C   0  0  0  0  0  0  0  0  0  0  0  0
  149.8105  142.2680  156.8925 N   0  3  1  0  0  0  0  0  0  0  0  0
  150.9980  142.8674  157.5862 C   0  0  0  0  0  0  0  0  0  0  0  0
  151.8344  141.8575  158.4176 C   0  0  0  0  0  0  0  0  0  0  0  0
  153.0166  142.5311  159.1330 C   0  0  0  0  0  0  0  0  0  0  0  0
  152.5443  143.6785  160.0337 C   0  0  0  0  0  0  0  0  0  0  0  0
  151.7307  144.6981  159.2277 C   0  0  0  0  0  0  0  0  0  0  0  0
  150.5485  144.0276  158.5100 C   0  0  0  0  0  0  0  0  0  0  0  0
  150.2073  141.4583  155.7048 C   0  0  0  0  0  0  0  0  0  0  0  0
  148.9879  141.0111  154.8838 C   0  0  0  0  0  0  0  0  0  0  0  0
  144.7842  136.2505  153.6322 N   0  0  0  0  0  0  0  0  0  0  0  0
  143.9013  135.2704  153.3474 C   0  0  0  0  0  0  0  0  0  0  0  0
  140.5303  134.6296  153.1076 H   0  0  0  0  0  0  0  0  0  0  0  0
  141.7837  133.4805  153.5838 H   0  0  0  0  0  0  0  0  0  0  0  0
  141.6887  134.0410  151.9093 H   0  0  0  0  0  0  0  0  0  0  0  0
  140.9689  136.9976  153.4681 H   0  0  0  0  0  0  0  0  0  0  0  0
  142.5921  138.8094  153.9952 H   0  0  0  0  0  0  0  0  0  0  0  0
  144.8955  139.4891  153.7622 H   0  0  0  0  0  0  0  0  0  0  0  0
  146.3489  140.5932  154.4937 H   0  0  0  0  0  0  0  0  0  0  0  0
  148.4986  139.2906  156.0936 H   0  0  0  0  0  0  0  0  0  0  0  0
  147.0504  141.9120  156.6716 H   0  0  0  0  0  0  0  0  0  0  0  0
  146.9762  140.4582  157.6378 H   0  0  0  0  0  0  0  0  0  0  0  0
  148.5113  142.1132  158.5847 H   0  0  0  0  0  0  0  0  0  0  0  0
  149.3867  140.6411  158.1919 H   0  0  0  0  0  0  0  0  0  0  0  0
  151.6617  143.2688  156.8180 H   0  0  0  0  0  0  0  0  0  0  0  0
  151.2001  141.3676  159.1579 H   0  0  0  0  0  0  0  0  0  0  0  0
  152.2439  141.0743  157.7793 H   0  0  0  0  0  0  0  0  0  0  0  0
  153.5599  141.7948  159.7263 H   0  0  0  0  0  0  0  0  0  0  0  0
  153.7223  142.9126  158.3939 H   0  0  0  0  0  0  0  0  0  0  0  0
  151.9360  143.2817  160.8476 H   0  0  0  0  0  0  0  0  0  0  0  0
  153.4020  144.1674  160.4968 H   0  0  0  0  0  0  0  0  0  0  0  0
  151.3656  145.4846  159.8888 H   0  0  0  0  0  0  0  0  0  0  0  0
  152.3754  145.1855  158.4951 H   0  0  0  0  0  0  0  0  0  0  0  0
  150.0150  144.7952  157.9518 H   0  0  0  0  0  0  0  0  0  0  0  0
  149.8444  143.6497  159.2529 H   0  0  0  0  0  0  0  0  0  0  0  0
  150.8699  142.0225  155.0509 H   0  0  0  0  0  0  0  0  0  0  0  0
  150.7706  140.5837  156.0346 H   0  0  0  0  0  0  0  0  0  0  0  0
  149.3212  140.4121  154.0355 H   0  0  0  0  0  0  0  0  0  0  0  0
  148.4873  141.8865  154.4669 H   0  0  0  0  0  0  0  0  0  0  0  0
  144.3182  134.2897  153.1713 H   0  0  0  0  0  0  0  0  0  0  0  0
  149.2741  143.0501  156.5449 H   0  0  0  0  0  0  0  0  0  0  0  0
  1  2  1  0  0  0  0
  1 24  1  0  0  0  0
  1 25  1  0  0  0  0
  1 26  1  0  0  0  0
  2 23  1  0  0  0  0
  2  3  2  0  0  0  0
  3  4  1  0  0  0  0
  3 27  1  0  0  0  0
  4  5  2  0  0  0  0
  4 28  1  0  0  0  0
  5  6  1  0  0  0  0
  5 22  1  0  0  0  0
  6  7  1  0  0  0  0
  6 29  1  0  0  0  0
  7  8  2  0  0  0  0
  7  9  1  0  0  0  0
  9 10  1  0  0  0  0
  9 30  1  0  0  0  0
 10 21  1  0  0  0  0
 10 11  1  0  0  0  0
 10 31  1  0  0  0  0
 11 12  1  0  0  0  0
 11 32  1  0  0  0  0
 11 33  1  0  0  0  0
 12 13  1  0  0  0  0
 12 34  1  0  0  0  0
 12 35  1  0  0  0  0
 13 14  1  0  0  0  0
 13 20  1  0  0  0  0
 13 52  1  0  0  0  0
 14 19  1  0  0  0  0
 14 15  1  0  0  0  0
 14 36  1  0  0  0  0
 15 16  1  0  0  0  0
 15 37  1  0  0  0  0
 15 38  1  0  0  0  0
 16 17  1  0  0  0  0
 16 39  1  0  0  0  0
 16 40  1  0  0  0  0
 17 18  1  0  0  0  0
 17 41  1  0  0  0  0
 17 42  1  0  0  0  0
 18 19  1  0  0  0  0
 18 43  1  0  0  0  0
 18 44  1  0  0  0  0
 19 45  1  0  0  0  0
 19 46  1  0  0  0  0
 20 21  1  0  0  0  0
 20 47  1  0  0  0  0
 20 48  1  0  0  0  0
 21 49  1  0  0  0  0
 21 50  1  0  0  0  0
 22 23  2  0  0  0  0
 23 51  1  0  0  0  0
M  CHG  1  13   1
M  END
> <s_m_source_file>
AV-unprocessed.smi

> <i_m_source_file_index>
2341

> <i_lp_mmshare_version>
43012

> <i_f3d_flags>
0

> <s_epik_input>
W0NIM11jMVtjSF1bY0hdYyhuW2NIXTEpW05IXUMoPU8pW05IXVtDSF0yW0NIMl1bQ0gyXU4oW0NIMl1bQ0gyXTIpW0NIXTNbQ0gyXVtDSDJdW0NIMl1bQ0gyXVtDSDJdMw==

> <s_epik_cmdline>
J2VwaWtfcHl0aG9uJywgJy1waCcsICc3LjAnLCAnLXRuJywgJzgnLCAnLW1hJywgJzIwMCcsICctbWV0YWxfYmluZGluZycsICctaW1hZScsICc8aW5maWxlLm1hZT4nLCAnLW9tYWUnLCAnPG91dGZpbGUubWFlPic=

> <r_epik_Ionization_Penalty>
0.00176486

> <r_epik_Ionization_Penalty_Charging>
0.00171891

> <r_epik_Ionization_Penalty_Neutral>
4.59494e-05

> <r_epik_State_Penalty>
0.00116222

> <r_epik_Charging_Adjusted_Penalty>
0.00288114

> <i_epik_Tot_Q>
1

> <i_epik_Tot_abs_Q>
1

> <r_epik_Metal_State_Penalty>
-0

> <b_epik_Metal_Only>
0

> <s_lp_Force_Field>
OPLS_2005

> <r_lp_Energy>
29.4095

> <b_lp_Chiralities_Consistent>
1

> <s_lp_Variant>
AV-unprocessed.smi:2341-1

> <Gold.Version>
5.8.1

> <Gold.Id.Protein>
6NUR|6NUR_protein|mol2

> <Gold.PLP.Fitness>
45.0722

> <Gold.PLP.PLP>
-37.2835

> <Gold.PLP.part.hbond>
-2.0000

> <Gold.PLP.part.metal>
0.0000

> <Gold.PLP.part.buried>
-4.9589

> <Gold.PLP.part.nonpolar>
-31.2612

> <Gold.PLP.part.repulsive>
0.1174

> <Gold.PLP.ligand.clash>
0.0000

> <Gold.PLP.ligand.torsion>
0.5655

> <Gold.PLP.Chemscore.Hbond>
2.9600

> <Gold.PLP.Chemscore.CHOScore>
0.0000

> <Gold.PLP.Chemscore.Metal>
0.0000

> <Gold.Chemscore.Hbonds>
donor molecule, donor type, donor heavy atom, donor atom, acceptor molecule, acceptor atom, score
      L1  H     6    29       P1 10175  0.94
      L1  H    13    52       P1  8028  2.00

> <Gold.PLP.Chemscore.Internal.Correction>
0.0398

> <Gold.Rescore>
     Score         DG    S(hbond)    S(metal)    S(lipo)     H(rot)  DE(clash)    DE(int)     intcor
     20.24     -21.50       1.91        0.00     108.44       1.19       0.04       1.23       ----

> <Gold.Chemscore.Fitness>
20.2351

> <Gold.Chemscore.DG>
-21.4970

> <Gold.Chemscore.ZeroCoef>
-5.4800

> <Gold.Chemscore.Hbond>
1.9103

> <Gold.Chemscore.Metal>
0.0000

> <Gold.Chemscore.Lipo>
108.4418

> <Gold.Chemscore.Internal_Hbond>
0.0000

> <Gold.Chemscore.DEClash>
0.0363

> <Gold.Chemscore.DEInternal>
1.2256

> <Gold.Chemscore.Rot>
1.1918

> <Gold.Chemscore.Internal.Correction>
   9.000000E+99

> <Gold.Chemscore.Hbonds>
donor molecule, donor type, donor heavy atom, donor atom, acceptor molecule, acceptor atom, score
      L1  H     6    29       P1 10175  0.85
      L1  H    13    52       P1  8028  0.99

> <Gold.Chemscore.Hbond.Weighted>
-6.3804

> <Gold.Chemscore.Metal.Weighted>
-0.0000

> <Gold.Chemscore.Lipo.Weighted>
-12.6877

> <Gold.Chemscore.Internal_Hbond.Weighted>
0.0000

> <Gold.Chemscore.DEClash.Weighted>
0.0363

> <Gold.Chemscore.DEInternal.Weighted>
1.2256

> <Gold.Chemscore.Rot.Weighted>
3.0511

> <Gold.Chemscore.Internal.Correction.Weighted>
   9.000000E+99

> <Gold.Protein.RotatedTorsions>
[ 6907 6896 6895 6894 ] final   -5.21 input  -60.11 | X-H torsion
[ 7974 7965 7964 7962 ] final  -21.66 input  175.53 | X-H torsion
[ 8008 7997 7996 7995 ] final   31.86 input   59.86 | X-H torsion
[ 10167 10162 10161 10158 ] final   96.11 input  -65.29 | X-H torsion
[ 10718 10713 10712 10709 ] final -176.60 input   66.30 | X-H torsion
[ 10763 10752 10751 10750 ] final  172.37 input  -60.55 | X-H torsion
[ 11005 11000 10999 10996 ] final  139.08 input  -57.11 | X-H torsion

> <Gold.Protein.ActiveResidues>
 VAL166  LYS551  ARG553  GLY616  TRP617  ASP618  TYR619  PRO620  LYS621  CYS622 
 ASP623  PHE694  ASN695  SER759  ASP760  ASP761  ALA762  ILE779  LEU786  VAL792 
 PHE793  MET794  SER795  GLU796  ALA797  LYS798  CYS799  TRP800  GLU811  SER814 

> <Gold.Protein.RotatedAtoms>
  151.4852  135.1054  159.9788 H   0  0  0  0  0  0  0  0  0  0  0  0  # atno 6907 bound_to 6896
  152.4763  133.8143  159.7030 H   0  0  0  0  0  0  0  0  0  0  0  0  # atno 6908 bound_to 6896
  150.8803  133.7319  159.2960 H   0  0  0  0  0  0  0  0  0  0  0  0  # atno 6909 bound_to 6896
  146.1720  140.4372  142.8528 H   0  0  0  0  0  0  0  0  0  0  0  0  # atno 7974 bound_to 7965
  155.1133  140.3241  155.4516 H   0  0  0  0  0  0  0  0  0  0  0  0  # atno 8008 bound_to 7997
  156.2684  140.2040  156.6204 H   0  0  0  0  0  0  0  0  0  0  0  0  # atno 8009 bound_to 7997
  154.6740  140.0533  157.0182 H   0  0  0  0  0  0  0  0  0  0  0  0  # atno 8010 bound_to 7997
  139.7925  144.6846  150.9873 H   0  0  0  0  0  0  0  0  0  0  0  0  # atno 10167 bound_to 10162
  156.8171  130.9607  151.3113 H   0  0  0  0  0  0  0  0  0  0  0  0  # atno 10718 bound_to 10713
  154.4250  135.2758  155.1950 H   0  0  0  0  0  0  0  0  0  0  0  0  # atno 10763 bound_to 10752
  154.3880  135.6072  153.5831 H   0  0  0  0  0  0  0  0  0  0  0  0  # atno 10764 bound_to 10752
  152.9834  135.5896  154.4553 H   0  0  0  0  0  0  0  0  0  0  0  0  # atno 10765 bound_to 10752
  140.0229  134.9388  157.0510 H   0  0  0  0  0  0  0  0  0  0  0  0  # atno 11005 bound_to 11000
  144.8178  140.6498  143.6373 LP  0  0  0  0  0  0  0  0  0  0  0  0  # atno 17320 bound_to 7965
  145.4314  139.1548  143.4020 LP  0  0  0  0  0  0  0  0  0  0  0  0  # atno 17321 bound_to 7965
  140.7820  143.4366  151.0614 LP  0  0  0  0  0  0  0  0  0  0  0  0  # atno 17342 bound_to 10162
  139.8042  143.8041  152.3166 LP  0  0  0  0  0  0  0  0  0  0  0  0  # atno 17343 bound_to 10162
  157.6476  130.8857  149.9569 LP  0  0  0  0  0  0  0  0  0  0  0  0  # atno 17370 bound_to 10713
  156.1010  130.3656  150.0218 LP  0  0  0  0  0  0  0  0  0  0  0  0  # atno 17371 bound_to 10713
  140.4356  134.1734  155.7170 LP  0  0  0  0  0  0  0  0  0  0  0  0  # atno 17394 bound_to 11000
  141.1785  133.8464  157.1340 LP  0  0  0  0  0  0  0  0  0  0  0  0  # atno 17395 bound_to 11000

$$$$
