AV-unprocessed.smi:618|AV-procd|sdf|3084|dock2
  -GOLD-   22720 0 03D 1   1.00000     0.00000
 Structure written by MMmdl.
 40 42  0  0  0  0  0  0  0  0  1 V2000
  149.9085  135.1246  156.1812 O   0  0  0  0  0  0  0  0  0  0  0  0
  149.5219  135.4719  155.0653 C   0  0  0  0  0  0  0  0  0  0  0  0
  149.3830  136.7528  154.6971 N   0  0  0  0  0  0  0  0  0  0  0  0
  149.6674  137.9032  155.5482 C   0  0  0  0  0  0  0  0  0  0  0  0
  150.7737  138.7984  154.9498 C   0  0  2  0  0  0  0  0  0  0  0  0
  151.8391  139.2108  155.9931 C   0  0  0  0  0  0  0  0  0  0  0  0
  151.3208  140.2368  156.8789 N   0  0  0  0  0  0  0  0  0  0  0  0
  152.2428  140.7864  157.8457 C   0  0  0  0  0  0  0  0  0  0  0  0
  151.5681  142.0844  158.3220 C   0  0  0  0  0  0  0  0  0  0  0  0
  150.5543  142.4226  157.2067 C   0  0  0  0  0  0  0  0  0  0  0  0
  150.8700  141.3796  156.1328 C   0  0  2  0  0  0  0  0  0  0  0  0
  149.7383  140.9889  155.1735 C   0  0  0  0  0  0  0  0  0  0  0  0
  150.2192  139.9573  154.3058 O   0  0  0  0  0  0  0  0  0  0  0  0
  149.2096  134.6390  154.0579 N   0  0  0  0  0  0  0  0  0  0  0  0
  149.1979  133.2183  154.0655 C   0  0  0  0  0  0  0  0  0  0  0  0
  150.0582  132.5502  154.9609 C   0  0  0  0  0  0  0  0  0  0  0  0
  150.0771  131.1425  154.9718 C   0  0  0  0  0  0  0  0  0  0  0  0
  149.2382  130.4545  154.0738 C   0  0  0  0  0  0  0  0  0  0  0  0
  148.4212  131.0776  153.1989 N   0  0  0  0  0  0  0  0  0  0  0  0
  148.4059  132.4280  153.1959 C   0  0  0  0  0  0  0  0  0  0  0  0
  149.0683  136.9489  153.7583 H   0  0  0  0  0  0  0  0  0  0  0  0
  148.7435  138.4645  155.6839 H   0  0  0  0  0  0  0  0  0  0  0  0
  149.9591  137.5621  156.5430 H   0  0  0  0  0  0  0  0  0  0  0  0
  151.2814  138.2240  154.1741 H   0  0  0  0  0  0  0  0  0  0  0  0
  152.1652  138.3443  156.5690 H   0  0  0  0  0  0  0  0  0  0  0  0
  152.7206  139.5890  155.4733 H   0  0  0  0  0  0  0  0  0  0  0  0
  152.4346  140.0883  158.6608 H   0  0  0  0  0  0  0  0  0  0  0  0
  153.1956  141.0191  157.3673 H   0  0  0  0  0  0  0  0  0  0  0  0
  151.0522  141.9326  159.2708 H   0  0  0  0  0  0  0  0  0  0  0  0
  152.3015  142.8790  158.4625 H   0  0  0  0  0  0  0  0  0  0  0  0
  149.5353  142.3005  157.5765 H   0  0  0  0  0  0  0  0  0  0  0  0
  150.6613  143.4420  156.8349 H   0  0  0  0  0  0  0  0  0  0  0  0
  151.7017  141.7604  155.5360 H   0  0  0  0  0  0  0  0  0  0  0  0
  148.8581  140.6473  155.7191 H   0  0  0  0  0  0  0  0  0  0  0  0
  149.4310  141.8458  154.5742 H   0  0  0  0  0  0  0  0  0  0  0  0
  149.0041  135.0714  153.1691 H   0  0  0  0  0  0  0  0  0  0  0  0
  150.6933  133.1064  155.6349 H   0  0  0  0  0  0  0  0  0  0  0  0
  150.7200  130.6022  155.6509 H   0  0  0  0  0  0  0  0  0  0  0  0
  149.2272  129.3747  154.0539 H   0  0  0  0  0  0  0  0  0  0  0  0
  147.7546  132.8705  152.4581 H   0  0  0  0  0  0  0  0  0  0  0  0
  1  2  2  0  0  0  0
  2  3  1  0  0  0  0
  2 14  1  0  0  0  0
  3  4  1  0  0  0  0
  3 21  1  0  0  0  0
  4  5  1  0  0  0  0
  4 22  1  0  0  0  0
  4 23  1  0  0  0  0
  5 13  1  0  0  0  0
  5  6  1  0  0  0  0
  5 24  1  0  0  0  0
  6  7  1  0  0  0  0
  6 25  1  0  0  0  0
  6 26  1  0  0  0  0
  7 11  1  0  0  0  0
  7  8  1  0  0  0  0
  8  9  1  0  0  0  0
  8 27  1  0  0  0  0
  8 28  1  0  0  0  0
  9 10  1  0  0  0  0
  9 29  1  0  0  0  0
  9 30  1  0  0  0  0
 10 11  1  0  0  0  0
 10 31  1  0  0  0  0
 10 32  1  0  0  0  0
 11 12  1  0  0  0  0
 11 33  1  0  0  0  0
 12 13  1  0  0  0  0
 12 34  1  0  0  0  0
 12 35  1  0  0  0  0
 14 15  1  0  0  0  0
 14 36  1  0  0  0  0
 15 20  1  0  0  0  0
 15 16  2  0  0  0  0
 16 17  1  0  0  0  0
 16 37  1  0  0  0  0
 17 18  2  0  0  0  0
 17 38  1  0  0  0  0
 18 19  1  0  0  0  0
 18 39  1  0  0  0  0
 19 20  2  0  0  0  0
 20 40  1  0  0  0  0
M  END
> <s_m_source_file>
AV-unprocessed.smi

> <i_m_source_file_index>
618

> <i_lp_mmshare_version>
43012

> <i_f3d_flags>
0

> <s_epik_input>
W2NIXTFuW2NIXVtjSF1bY0hdYzFbTkhdQyg9TylbTkhdW0NIMl1bQ0BIXShbQ0gyXTIpT1tDSDJdW0NAQEhdKE4yMylbQ0gyXVtDSDJdW0NIMl0z

> <s_epik_cmdline>
J2VwaWtfcHl0aG9uJywgJy1waCcsICc3LjAnLCAnLXRuJywgJzgnLCAnLW1hJywgJzIwMCcsICctbWV0YWxfYmluZGluZycsICctaW1hZScsICc8aW5maWxlLm1hZT4nLCAnLW9tYWUnLCAnPG91dGZpbGUubWFlPic=

> <r_epik_Ionization_Penalty>
1.07277

> <r_epik_Ionization_Penalty_Charging>
0

> <r_epik_Ionization_Penalty_Neutral>
1.07277

> <r_epik_State_Penalty>
1.13623

> <r_epik_Charging_Adjusted_Penalty>
1.13623

> <i_epik_Tot_Q>
0

> <i_epik_Tot_abs_Q>
0

> <r_epik_Metal_State_Penalty>
1.13277

> <b_epik_Metal_Only>
0

> <s_lp_Force_Field>
OPLS_2005

> <r_lp_Energy>
52.4513

> <b_lp_Chiralities_Consistent>
1

> <s_lp_Variant>
AV-unprocessed.smi:618-11

> <Gold.Version>
5.8.1

> <Gold.Id.Protein>
6NUR|6NUR_protein|mol2

> <Gold.PLP.Fitness>
41.5977

> <Gold.PLP.PLP>
-34.4276

> <Gold.PLP.part.hbond>
-3.0000

> <Gold.PLP.part.metal>
0.0000

> <Gold.PLP.part.buried>
-4.7032

> <Gold.PLP.part.nonpolar>
-28.3799

> <Gold.PLP.part.repulsive>
1.1743

> <Gold.PLP.ligand.clash>
0.0000

> <Gold.PLP.ligand.torsion>
0.7633

> <Gold.PLP.Chemscore.Hbond>
2.8960

> <Gold.PLP.Chemscore.CHOScore>
0.0000

> <Gold.PLP.Chemscore.Metal>
0.0000

> <Gold.Chemscore.Hbonds>
donor molecule, donor type, donor heavy atom, donor atom, acceptor molecule, acceptor atom, score
      L1  H     3    21       P1  7948  0.88
      L1  H    14    36       P1  7948  0.95
      P1  H  7989  7998       L1    13  1.00

> <Gold.PLP.Chemscore.Internal.Correction>
0.0087

> <Gold.Rescore>
     Score         DG    S(hbond)    S(metal)    S(lipo)     H(rot)  DE(clash)    DE(int)     intcor
     13.69     -15.77       1.33        0.00      77.25       1.25       0.02       2.06       ----

> <Gold.Chemscore.Fitness>
13.6867

> <Gold.Chemscore.DG>
-15.7715

> <Gold.Chemscore.ZeroCoef>
-5.4800

> <Gold.Chemscore.Hbond>
1.3303

> <Gold.Chemscore.Metal>
0.0000

> <Gold.Chemscore.Lipo>
77.2522

> <Gold.Chemscore.Internal_Hbond>
0.0000

> <Gold.Chemscore.DEClash>
0.0222

> <Gold.Chemscore.DEInternal>
2.0626

> <Gold.Chemscore.Rot>
1.2461

> <Gold.Chemscore.Internal.Correction>
   9.000000E+99

> <Gold.Chemscore.Hbonds>
donor molecule, donor type, donor heavy atom, donor atom, acceptor molecule, acceptor atom, score
      L1  H     3    21       P1  7948  0.82
      L1  H    14    36       P1  7948  0.21
      P1  H  7989  7998       L1    13  0.16

> <Gold.Chemscore.Hbond.Weighted>
-4.4431

> <Gold.Chemscore.Metal.Weighted>
-0.0000

> <Gold.Chemscore.Lipo.Weighted>
-9.0385

> <Gold.Chemscore.Internal_Hbond.Weighted>
0.0000

> <Gold.Chemscore.DEClash.Weighted>
0.0222

> <Gold.Chemscore.DEInternal.Weighted>
2.0626

> <Gold.Chemscore.Rot.Weighted>
3.1901

> <Gold.Chemscore.Internal.Correction.Weighted>
   9.000000E+99

> <Gold.Protein.RotatedTorsions>
[ 6907 6896 6895 6894 ] final   14.17 input  -60.11 | X-H torsion
[ 7974 7965 7964 7962 ] final   49.52 input  175.53 | X-H torsion
[ 8008 7997 7996 7995 ] final  134.36 input   59.86 | X-H torsion
[ 10167 10162 10161 10158 ] final  100.03 input  -65.29 | X-H torsion
[ 10718 10713 10712 10709 ] final  134.38 input   66.30 | X-H torsion
[ 10763 10752 10751 10750 ] final   41.78 input  -60.55 | X-H torsion
[ 11005 11000 10999 10996 ] final   40.70 input  -57.11 | X-H torsion

> <Gold.Protein.ActiveResidues>
 VAL166  LYS551  ARG553  GLY616  TRP617  ASP618  TYR619  PRO620  LYS621  CYS622 
 ASP623  PHE694  ASN695  SER759  ASP760  ASP761  ALA762  ILE779  LEU786  VAL792 
 PHE793  MET794  SER795  GLU796  ALA797  LYS798  CYS799  TRP800  GLU811  SER814 

> <Gold.Protein.RotatedAtoms>
  151.7980  135.0717  160.0396 H   0  0  0  0  0  0  0  0  0  0  0  0  # atno 6907 bound_to 6896
  152.3109  133.5748  159.5689 H   0  0  0  0  0  0  0  0  0  0  0  0  # atno 6908 bound_to 6896
  150.7319  134.0069  159.3699 H   0  0  0  0  0  0  0  0  0  0  0  0  # atno 6909 bound_to 6896
  146.0101  139.4533  142.9962 H   0  0  0  0  0  0  0  0  0  0  0  0  # atno 7974 bound_to 7965
  156.2998  140.2498  156.3405 H   0  0  0  0  0  0  0  0  0  0  0  0  # atno 8008 bound_to 7997
  154.9059  140.0405  157.1939 H   0  0  0  0  0  0  0  0  0  0  0  0  # atno 8009 bound_to 7997
  154.8453  140.2897  155.5637 H   0  0  0  0  0  0  0  0  0  0  0  0  # atno 8010 bound_to 7997
  139.7563  144.6968  151.0357 H   0  0  0  0  0  0  0  0  0  0  0  0  # atno 10167 bound_to 10162
  157.4678  131.1078  150.9841 H   0  0  0  0  0  0  0  0  0  0  0  0  # atno 10718 bound_to 10713
  152.9899  135.6151  154.2843 H   0  0  0  0  0  0  0  0  0  0  0  0  # atno 10763 bound_to 10752
  154.2571  135.2783  155.2795 H   0  0  0  0  0  0  0  0  0  0  0  0  # atno 10764 bound_to 10752
  154.5238  135.5807  153.6760 H   0  0  0  0  0  0  0  0  0  0  0  0  # atno 10765 bound_to 10752
  140.1905  134.3992  155.8149 H   0  0  0  0  0  0  0  0  0  0  0  0  # atno 11005 bound_to 11000
  145.7356  141.0027  143.1328 LP  0  0  0  0  0  0  0  0  0  0  0  0  # atno 17320 bound_to 7965
  144.6950  139.9037  143.7460 LP  0  0  0  0  0  0  0  0  0  0  0  0  # atno 17321 bound_to 7965
  140.7803  143.4749  151.0096 LP  0  0  0  0  0  0  0  0  0  0  0  0  # atno 17342 bound_to 10162
  139.8436  143.7531  152.3180 LP  0  0  0  0  0  0  0  0  0  0  0  0  # atno 17343 bound_to 10162
  157.0616  130.5828  149.5387 LP  0  0  0  0  0  0  0  0  0  0  0  0  # atno 17370 bound_to 10713
  156.0058  130.5145  150.7826 LP  0  0  0  0  0  0  0  0  0  0  0  0  # atno 17371 bound_to 10713
  141.2226  133.7044  156.8087 LP  0  0  0  0  0  0  0  0  0  0  0  0  # atno 17394 bound_to 11000
  140.2165  134.8789  157.3331 LP  0  0  0  0  0  0  0  0  0  0  0  0  # atno 17395 bound_to 11000

$$$$
