AV-unprocessed.smi:2168|AV-procd|sdf|8820|dock3
  -GOLD-   2272012 13D 1   1.00000     0.00000
 Structure written by MMmdl.
 45 46  0  0  0  0  0  0  0  0  2 V2000
  147.7986  135.5142  155.9609 C   0  0  0  0  0  0  0  0  0  0  0  0
  149.0015  135.5156  155.0051 C   0  0  0  0  0  0  0  0  0  0  0  0
  150.1780  134.8226  155.5685 N   0  0  0  0  0  0  0  0  0  0  0  0
  150.4484  133.4509  155.0902 C   0  0  0  0  0  0  0  0  0  0  0  0
  149.6009  132.3835  155.8012 C   0  0  0  0  0  0  0  0  0  0  0  0
  151.3386  135.6833  156.5521 S   0  0  0  0  0  0  0  0  0  0  0  0
  150.5367  136.4338  157.5309 O   0  0  0  0  0  0  0  0  0  0  0  0
  152.2749  134.6722  157.0746 O   0  0  0  0  0  0  0  0  0  0  0  0
  151.9530  136.6604  155.4021 N   0  5  0  0  0  0  0  0  0  0  0  0
  151.1789  137.7418  154.8115 C   0  0  0  0  0  0  0  0  0  0  0  0
  151.2573  139.0027  155.6593 C   0  0  0  0  0  0  0  0  0  0  0  0
  150.4314  140.1151  155.3883 C   0  0  0  0  0  0  0  0  0  0  0  0
  150.5489  141.2663  156.1917 C   0  0  0  0  0  0  0  0  0  0  0  0
  151.4885  141.2797  157.2498 C   0  0  0  0  0  0  0  0  0  0  0  0
  151.6309  142.4261  158.0626 N   0  0  0  0  0  0  0  0  0  0  0  0
  151.6041  143.7366  157.4147 C   0  0  0  0  0  0  0  0  0  0  0  0
  151.4573  144.8510  158.4643 C   0  0  0  0  0  0  0  0  0  0  0  0
  152.4920  144.7357  159.4352 O   0  0  0  0  0  0  0  0  0  0  0  0
  152.4275  143.4960  160.1321 C   0  0  0  0  0  0  0  0  0  0  0  0
  152.6094  142.3316  159.1430 C   0  0  0  0  0  0  0  0  0  0  0  0
  152.2813  140.2098  157.5063 N   0  0  0  0  0  0  0  0  0  0  0  0
  152.1672  139.1074  156.7342 C   0  0  0  0  0  0  0  0  0  0  0  0
  146.9797  136.1027  155.5477 H   0  0  0  0  0  0  0  0  0  0  0  0
  148.0511  135.9368  156.9328 H   0  0  0  0  0  0  0  0  0  0  0  0
  147.4211  134.5049  156.1234 H   0  0  0  0  0  0  0  0  0  0  0  0
  148.7231  135.0335  154.0680 H   0  0  0  0  0  0  0  0  0  0  0  0
  149.2690  136.5395  154.7432 H   0  0  0  0  0  0  0  0  0  0  0  0
  150.2683  133.3958  154.0171 H   0  0  0  0  0  0  0  0  0  0  0  0
  151.5073  133.2341  155.2318 H   0  0  0  0  0  0  0  0  0  0  0  0
  149.7720  131.4030  155.3571 H   0  0  0  0  0  0  0  0  0  0  0  0
  148.5366  132.5986  155.7201 H   0  0  0  0  0  0  0  0  0  0  0  0
  149.8480  132.3061  156.8595 H   0  0  0  0  0  0  0  0  0  0  0  0
  151.5304  137.9874  153.8088 H   0  0  0  0  0  0  0  0  0  0  0  0
  150.1288  137.4722  154.6948 H   0  0  0  0  0  0  0  0  0  0  0  0
  149.7190  140.1079  154.5744 H   0  0  0  0  0  0  0  0  0  0  0  0
  149.9337  142.1256  155.9711 H   0  0  0  0  0  0  0  0  0  0  0  0
  152.5245  143.8769  156.8463 H   0  0  0  0  0  0  0  0  0  0  0  0
  150.7731  143.7951  156.7107 H   0  0  0  0  0  0  0  0  0  0  0  0
  151.5262  145.8279  157.9859 H   0  0  0  0  0  0  0  0  0  0  0  0
  150.4809  144.8022  158.9492 H   0  0  0  0  0  0  0  0  0  0  0  0
  153.2126  143.4724  160.8878 H   0  0  0  0  0  0  0  0  0  0  0  0
  151.4757  143.4123  160.6596 H   0  0  0  0  0  0  0  0  0  0  0  0
  152.5268  141.3919  159.6868 H   0  0  0  0  0  0  0  0  0  0  0  0
  153.6111  142.3610  158.7126 H   0  0  0  0  0  0  0  0  0  0  0  0
  152.8327  138.2964  156.9962 H   0  0  0  0  0  0  0  0  0  0  0  0
  1  2  1  0  0  0  0
  1 23  1  0  0  0  0
  1 24  1  0  0  0  0
  1 25  1  0  0  0  0
  2  3  1  0  0  0  0
  2 26  1  0  0  0  0
  2 27  1  0  0  0  0
  3  4  1  0  0  0  0
  3  6  1  0  0  0  0
  4  5  1  0  0  0  0
  4 28  1  0  0  0  0
  4 29  1  0  0  0  0
  5 30  1  0  0  0  0
  5 31  1  0  0  0  0
  5 32  1  0  0  0  0
  6  7  2  0  0  0  0
  6  8  2  0  0  0  0
  6  9  1  0  0  0  0
  9 10  1  0  0  0  0
 10 11  1  0  0  0  0
 10 33  1  0  0  0  0
 10 34  1  0  0  0  0
 11 22  1  0  0  0  0
 11 12  2  0  0  0  0
 12 13  1  0  0  0  0
 12 35  1  0  0  0  0
 13 14  2  0  0  0  0
 13 36  1  0  0  0  0
 14 15  1  0  0  0  0
 14 21  1  0  0  0  0
 15 20  1  0  0  0  0
 15 16  1  0  0  0  0
 16 17  1  0  0  0  0
 16 37  1  0  0  0  0
 16 38  1  0  0  0  0
 17 18  1  0  0  0  0
 17 39  1  0  0  0  0
 17 40  1  0  0  0  0
 18 19  1  0  0  0  0
 19 20  1  0  0  0  0
 19 41  1  0  0  0  0
 19 42  1  0  0  0  0
 20 43  1  0  0  0  0
 20 44  1  0  0  0  0
 21 22  2  0  0  0  0
 22 45  1  0  0  0  0
M  CHG  1   9  -1
M  END
> <s_m_source_file>
AV-unprocessed.smi

> <i_m_source_file_index>
2168

> <i_lp_mmshare_version>
43012

> <i_f3d_flags>
0

> <s_epik_input>
W0NIM11bQ0gyXU4oW0NIMl1bQ0gzXSlTKD1PKSg9TylbTkhdW0NIMl1jMVtjSF1bY0hdYyhuW2NIXTEpTjJbQ0gyXVtDSDJdT1tDSDJdW0NIMl0y

> <s_epik_cmdline>
J2VwaWtfcHl0aG9uJywgJy1waCcsICc3LjAnLCAnLXRuJywgJzgnLCAnLW1hJywgJzIwMCcsICctbWV0YWxfYmluZGluZycsICctaW1hZScsICc8aW5maWxlLm1hZT4nLCAnLW9tYWUnLCAnPG91dGZpbGUubWFlPic=

> <r_lp_tautomer_probability>
1

> <r_epik_Ionization_Penalty>
2.49252

> <r_epik_Ionization_Penalty_Charging>
2.41478

> <r_epik_Ionization_Penalty_Neutral>
0.0777351

> <r_epik_State_Penalty>
2.68884

> <r_epik_Charging_Adjusted_Penalty>
5.10362

> <i_epik_Tot_Q>
-1

> <i_epik_Tot_abs_Q>
1

> <r_epik_Metal_State_Penalty>
0.584574

> <b_epik_Metal_Only>
0

> <s_lp_Force_Field>
OPLS_2005

> <r_lp_Energy>
16.7

> <b_lp_Chiralities_Consistent>
1

> <s_lp_Variant>
AV-unprocessed.smi:2168-3

> <Gold.Version>
5.8.1

> <Gold.Id.Protein>
6NUR|6NUR_protein|mol2

> <Gold.PLP.Fitness>
42.5877

> <Gold.PLP.PLP>
-38.0640

> <Gold.PLP.part.hbond>
-2.9083

> <Gold.PLP.part.metal>
0.0000

> <Gold.PLP.part.buried>
-4.7867

> <Gold.PLP.part.nonpolar>
-30.4963

> <Gold.PLP.part.repulsive>
0.1270

> <Gold.PLP.ligand.clash>
0.0000

> <Gold.PLP.ligand.torsion>
2.6001

> <Gold.PLP.Chemscore.Hbond>
2.0000

> <Gold.PLP.Chemscore.CHOScore>
0.0000

> <Gold.PLP.Chemscore.Metal>
0.0000

> <Gold.Chemscore.Hbonds>
donor molecule, donor type, donor heavy atom, donor atom, acceptor molecule, acceptor atom, score
      P1  H 10752 10763       L1     9  1.90

> <Gold.PLP.Chemscore.Internal.Correction>
3.7240

> <Gold.Rescore>
     Score         DG    S(hbond)    S(metal)    S(lipo)     H(rot)  DE(clash)    DE(int)     intcor
     12.54     -15.14       0.99        0.00      90.87       1.66       0.19       2.40       ----

> <Gold.Chemscore.Fitness>
12.5440

> <Gold.Chemscore.DG>
-15.1425

> <Gold.Chemscore.ZeroCoef>
-5.4800

> <Gold.Chemscore.Hbond>
0.9854

> <Gold.Chemscore.Metal>
0.0000

> <Gold.Chemscore.Lipo>
90.8691

> <Gold.Chemscore.Internal_Hbond>
0.0000

> <Gold.Chemscore.DEClash>
0.1941

> <Gold.Chemscore.DEInternal>
2.4044

> <Gold.Chemscore.Rot>
1.6642

> <Gold.Chemscore.Internal.Correction>
   9.000000E+99

> <Gold.Chemscore.Hbonds>
donor molecule, donor type, donor heavy atom, donor atom, acceptor molecule, acceptor atom, score
      P1  H 10752 10763       L1     9  0.21

> <Gold.Chemscore.Hbond.Weighted>
-3.2912

> <Gold.Chemscore.Metal.Weighted>
-0.0000

> <Gold.Chemscore.Lipo.Weighted>
-10.6317

> <Gold.Chemscore.Internal_Hbond.Weighted>
0.0000

> <Gold.Chemscore.DEClash.Weighted>
0.1941

> <Gold.Chemscore.DEInternal.Weighted>
2.4044

> <Gold.Chemscore.Rot.Weighted>
4.2604

> <Gold.Chemscore.Internal.Correction.Weighted>
   9.000000E+99

> <Gold.Protein.RotatedTorsions>
[ 6907 6896 6895 6894 ] final   78.74 input  -60.11 | X-H torsion
[ 7974 7965 7964 7962 ] final  -69.34 input  175.53 | X-H torsion
[ 8008 7997 7996 7995 ] final -113.47 input   59.86 | X-H torsion
[ 10167 10162 10161 10158 ] final -108.63 input  -65.29 | X-H torsion
[ 10718 10713 10712 10709 ] final  174.56 input   66.30 | X-H torsion
[ 10763 10752 10751 10750 ] final   64.45 input  -60.55 | X-H torsion
[ 11005 11000 10999 10996 ] final  133.21 input  -57.11 | X-H torsion

> <Gold.Protein.ActiveResidues>
 VAL166  LYS551  ARG553  GLY616  TRP617  ASP618  TYR619  PRO620  LYS621  CYS622 
 ASP623  PHE694  ASN695  SER759  ASP760  ASP761  ALA762  ILE779  LEU786  VAL792 
 PHE793  MET794  SER795  GLU796  ALA797  LYS798  CYS799  TRP800  GLU811  SER814 

> <Gold.Protein.RotatedAtoms>
  152.5171  134.3618  159.9287 H   0  0  0  0  0  0  0  0  0  0  0  0  # atno 6907 bound_to 6896
  151.3570  133.3897  159.2693 H   0  0  0  0  0  0  0  0  0  0  0  0  # atno 6908 bound_to 6896
  150.9681  134.9078  159.7830 H   0  0  0  0  0  0  0  0  0  0  0  0  # atno 6909 bound_to 6896
  145.7051  140.9101  143.0710 H   0  0  0  0  0  0  0  0  0  0  0  0  # atno 7974 bound_to 7965
  155.0212  140.0393  157.2438 H   0  0  0  0  0  0  0  0  0  0  0  0  # atno 8008 bound_to 7997
  154.7376  140.2742  155.6378 H   0  0  0  0  0  0  0  0  0  0  0  0  # atno 8009 bound_to 7997
  156.2856  140.2672  156.2094 H   0  0  0  0  0  0  0  0  0  0  0  0  # atno 8010 bound_to 7997
  140.1640  143.4097  152.1404 H   0  0  0  0  0  0  0  0  0  0  0  0  # atno 10167 bound_to 10162
  156.9478  131.0021  151.2955 H   0  0  0  0  0  0  0  0  0  0  0  0  # atno 10718 bound_to 10713
  153.0056  135.5393  154.6511 H   0  0  0  0  0  0  0  0  0  0  0  0  # atno 10763 bound_to 10752
  154.5743  135.2844  155.0798 H   0  0  0  0  0  0  0  0  0  0  0  0  # atno 10764 bound_to 10752
  154.1952  135.6493  153.5124 H   0  0  0  0  0  0  0  0  0  0  0  0  # atno 10765 bound_to 10752
  139.9837  134.9539  156.9692 H   0  0  0  0  0  0  0  0  0  0  0  0  # atno 11005 bound_to 11000
  144.6957  139.8999  143.7458 LP  0  0  0  0  0  0  0  0  0  0  0  0  # atno 17320 bound_to 7965
  146.0763  139.3751  143.0492 LP  0  0  0  0  0  0  0  0  0  0  0  0  # atno 17321 bound_to 7965
  139.5368  144.7217  151.4867 LP  0  0  0  0  0  0  0  0  0  0  0  0  # atno 17342 bound_to 10162
  140.6625  143.8469  150.6904 LP  0  0  0  0  0  0  0  0  0  0  0  0  # atno 17343 bound_to 10162
  157.5742  130.8331  149.8433 LP  0  0  0  0  0  0  0  0  0  0  0  0  # atno 17370 bound_to 10713
  156.0376  130.3747  150.1519 LP  0  0  0  0  0  0  0  0  0  0  0  0  # atno 17371 bound_to 10713
  140.5044  134.1065  155.7257 LP  0  0  0  0  0  0  0  0  0  0  0  0  # atno 17394 bound_to 11000
  141.1506  133.8976  157.2108 LP  0  0  0  0  0  0  0  0  0  0  0  0  # atno 17395 bound_to 11000

$$$$
