AV-unprocessed.smi:1993|AV-procd|sdf|8070|dock8
  -GOLD-   2272010283D 1   1.00000     0.00000
 Structure written by MMmdl.
 50 51  0  0  0  0  0  0  0  0  1 V2000
  145.4004  135.7176  150.7972 C   0  0  0  0  0  0  0  0  0  0  0  0
  145.6112  134.7939  151.9924 C   0  0  0  0  0  0  0  0  0  0  0  0
  144.7531  133.9610  152.2824 O   0  0  0  0  0  0  0  0  0  0  0  0
  146.7543  134.9505  152.6790 N   0  0  0  0  0  0  0  0  0  0  0  0
  147.1471  134.1787  153.8594 C   0  0  2  0  0  0  0  0  0  0  0  0
  147.4101  135.1619  155.0151 C   0  0  0  0  0  0  0  0  0  0  0  0
  147.0135  134.9087  156.1541 O   0  0  0  0  0  0  0  0  0  0  0  0
  148.0656  136.2884  154.6982 N   0  0  0  0  0  0  0  0  0  0  0  0
  148.3645  137.3722  155.6253 C   0  0  0  0  0  0  0  0  0  0  0  0
  148.4797  138.7222  154.9294 C   0  0  0  0  0  0  0  0  0  0  0  0
  147.3881  139.2148  154.1834 C   0  0  0  0  0  0  0  0  0  0  0  0
  147.5025  140.4610  153.5411 C   0  0  0  0  0  0  0  0  0  0  0  0
  148.7111  141.1695  153.6707 C   0  0  0  0  0  0  0  0  0  0  0  0
  149.7644  140.7109  154.3779 N   0  0  0  0  0  0  0  0  0  0  0  0
  149.6575  139.5106  154.9982 C   0  0  0  0  0  0  0  0  0  0  0  0
  150.7769  139.0491  155.7103 N   0  0  0  0  0  0  0  0  0  0  0  0
  151.1243  139.8204  156.8977 C   0  0  0  0  0  0  0  0  0  0  0  0
  152.2547  139.1127  157.6647 C   0  0  0  0  0  0  0  0  0  0  0  0
  153.3705  138.9190  156.7993 O   0  0  0  0  0  0  0  0  0  0  0  0
  153.0423  138.1120  155.6714 C   0  0  0  0  0  0  0  0  0  0  0  0
  151.9289  138.7918  154.8569 C   0  0  0  0  0  0  0  0  0  0  0  0
  148.4436  133.3800  153.5311 C   0  0  0  0  0  0  0  0  0  0  0  0
  148.1295  132.0017  152.9164 C   0  0  0  0  0  0  0  0  0  0  0  0
  149.3604  133.1857  154.7567 C   0  0  0  0  0  0  0  0  0  0  0  0
  144.6097  136.4360  151.0136 H   0  0  0  0  0  0  0  0  0  0  0  0
  145.1081  135.1392  149.9204 H   0  0  0  0  0  0  0  0  0  0  0  0
  146.3084  136.2699  150.5524 H   0  0  0  0  0  0  0  0  0  0  0  0
  147.3966  135.6668  152.3726 H   0  0  0  0  0  0  0  0  0  0  0  0
  146.3505  133.4824  154.1308 H   0  0  0  0  0  0  0  0  0  0  0  0
  148.3620  136.4121  153.7410 H   0  0  0  0  0  0  0  0  0  0  0  0
  147.6065  137.4180  156.4093 H   0  0  0  0  0  0  0  0  0  0  0  0
  149.3023  137.1450  156.1330 H   0  0  0  0  0  0  0  0  0  0  0  0
  146.4745  138.6445  154.1009 H   0  0  0  0  0  0  0  0  0  0  0  0
  146.6839  140.8634  152.9630 H   0  0  0  0  0  0  0  0  0  0  0  0
  148.8364  142.1295  153.1923 H   0  0  0  0  0  0  0  0  0  0  0  0
  151.4464  140.8223  156.6104 H   0  0  0  0  0  0  0  0  0  0  0  0
  150.2472  139.9311  157.5363 H   0  0  0  0  0  0  0  0  0  0  0  0
  152.5660  139.7158  158.5176 H   0  0  0  0  0  0  0  0  0  0  0  0
  151.9162  138.1529  158.0586 H   0  0  0  0  0  0  0  0  0  0  0  0
  153.9320  137.9808  155.0556 H   0  0  0  0  0  0  0  0  0  0  0  0
  152.7315  137.1188  155.9995 H   0  0  0  0  0  0  0  0  0  0  0  0
  151.6394  138.1588  154.0194 H   0  0  0  0  0  0  0  0  0  0  0  0
  152.2911  139.7325  154.4393 H   0  0  0  0  0  0  0  0  0  0  0  0
  149.0153  133.9367  152.7862 H   0  0  0  0  0  0  0  0  0  0  0  0
  147.5262  131.3961  153.5936 H   0  0  0  0  0  0  0  0  0  0  0  0
  149.0453  131.4488  152.7048 H   0  0  0  0  0  0  0  0  0  0  0  0
  147.5875  132.0876  151.9746 H   0  0  0  0  0  0  0  0  0  0  0  0
  148.8443  132.6460  155.5508 H   0  0  0  0  0  0  0  0  0  0  0  0
  149.7112  134.1327  155.1674 H   0  0  0  0  0  0  0  0  0  0  0  0
  150.2482  132.6104  154.4929 H   0  0  0  0  0  0  0  0  0  0  0  0
  1  2  1  0  0  0  0
  1 25  1  0  0  0  0
  1 26  1  0  0  0  0
  1 27  1  0  0  0  0
  2  3  2  0  0  0  0
  2  4  1  0  0  0  0
  4  5  1  0  0  0  0
  4 28  1  0  0  0  0
  5  6  1  0  0  0  0
  5 22  1  0  0  0  0
  5 29  1  0  0  0  0
  6  7  2  0  0  0  0
  6  8  1  0  0  0  0
  8  9  1  0  0  0  0
  8 30  1  0  0  0  0
  9 10  1  0  0  0  0
  9 31  1  0  0  0  0
  9 32  1  0  0  0  0
 10 15  1  0  0  0  0
 10 11  2  0  0  0  0
 11 12  1  0  0  0  0
 11 33  1  0  0  0  0
 12 13  2  0  0  0  0
 12 34  1  0  0  0  0
 13 14  1  0  0  0  0
 13 35  1  0  0  0  0
 14 15  2  0  0  0  0
 15 16  1  0  0  0  0
 16 21  1  0  0  0  0
 16 17  1  0  0  0  0
 17 18  1  0  0  0  0
 17 36  1  0  0  0  0
 17 37  1  0  0  0  0
 18 19  1  0  0  0  0
 18 38  1  0  0  0  0
 18 39  1  0  0  0  0
 19 20  1  0  0  0  0
 20 21  1  0  0  0  0
 20 40  1  0  0  0  0
 20 41  1  0  0  0  0
 21 42  1  0  0  0  0
 21 43  1  0  0  0  0
 22 23  1  0  0  0  0
 22 24  1  0  0  0  0
 22 44  1  0  0  0  0
 23 45  1  0  0  0  0
 23 46  1  0  0  0  0
 23 47  1  0  0  0  0
 24 48  1  0  0  0  0
 24 49  1  0  0  0  0
 24 50  1  0  0  0  0
M  END
> <s_m_source_file>
AV-unprocessed.smi

> <i_m_source_file_index>
1993

> <i_lp_mmshare_version>
43012

> <i_f3d_flags>
0

> <s_epik_input>
W0NIM11DKD1PKVtOSF1bQ0BASF0oW0NIXShbQ0gzXSlbQ0gzXSlDKD1PKVtOSF1bQ0gyXWMxW2NIXVtjSF1bY0hdbmMxTjJbQ0gyXVtDSDJdT1tDSDJdW0NIMl0y

> <s_epik_cmdline>
J2VwaWtfcHl0aG9uJywgJy1waCcsICc3LjAnLCAnLXRuJywgJzgnLCAnLW1hJywgJzIwMCcsICctbWV0YWxfYmluZGluZycsICctaW1hZScsICc8aW5maWxlLm1hZT4nLCAnLW9tYWUnLCAnPG91dGZpbGUubWFlPic=

> <r_lp_tautomer_probability>
1

> <r_epik_Ionization_Penalty>
0.00485175

> <r_epik_Ionization_Penalty_Charging>
0

> <r_epik_Ionization_Penalty_Neutral>
0.00485175

> <r_epik_State_Penalty>
0.00351951

> <r_epik_Charging_Adjusted_Penalty>
0.00351951

> <i_epik_Tot_Q>
0

> <i_epik_Tot_abs_Q>
0

> <r_epik_Metal_State_Penalty>
-0

> <b_epik_Metal_Only>
0

> <s_lp_Force_Field>
OPLS_2005

> <r_lp_Energy>
19.1581

> <b_lp_Chiralities_Consistent>
1

> <s_lp_Variant>
AV-unprocessed.smi:1993-1

> <Gold.Version>
5.8.1

> <Gold.Id.Protein>
6NUR|6NUR_protein|mol2

> <Gold.PLP.Fitness>
39.7228

> <Gold.PLP.PLP>
-31.4347

> <Gold.PLP.part.hbond>
-3.7614

> <Gold.PLP.part.metal>
0.0000

> <Gold.PLP.part.buried>
1.5863

> <Gold.PLP.part.nonpolar>
-30.1113

> <Gold.PLP.part.repulsive>
0.2211

> <Gold.PLP.ligand.clash>
0.0000

> <Gold.PLP.ligand.torsion>
1.4796

> <Gold.PLP.Chemscore.Hbond>
3.6891

> <Gold.PLP.Chemscore.CHOScore>
0.0000

> <Gold.PLP.Chemscore.Metal>
0.0000

> <Gold.Chemscore.Hbonds>
donor molecule, donor type, donor heavy atom, donor atom, acceptor molecule, acceptor atom, score
      L1  H     4    28       P1  7948  1.00
      L1  H     8    30       P1  7948  1.00
      P1  H  7989  7998       L1    14  0.65
      P1  H  7997  8009       L1    19  1.00

> <Gold.PLP.Chemscore.Internal.Correction>
0.1800

> <Gold.Rescore>
     Score         DG    S(hbond)    S(metal)    S(lipo)     H(rot)  DE(clash)    DE(int)     intcor
     17.40     -20.26       3.41        0.00      76.87       2.18       1.53       1.34       ----

> <Gold.Chemscore.Fitness>
17.3954

> <Gold.Chemscore.DG>
-20.2625

> <Gold.Chemscore.ZeroCoef>
-5.4800

> <Gold.Chemscore.Hbond>
3.4051

> <Gold.Chemscore.Metal>
0.0000

> <Gold.Chemscore.Lipo>
76.8698

> <Gold.Chemscore.Internal_Hbond>
0.0000

> <Gold.Chemscore.DEClash>
1.5254

> <Gold.Chemscore.DEInternal>
1.3416

> <Gold.Chemscore.Rot>
2.1813

> <Gold.Chemscore.Internal.Correction>
   9.000000E+99

> <Gold.Chemscore.Hbonds>
donor molecule, donor type, donor heavy atom, donor atom, acceptor molecule, acceptor atom, score
      L1  H     4    28       P1  7948  0.96
      L1  H     8    30       P1  7948  0.98
      P1  H  7989  7998       L1    14  0.46
      P1  H  7997  8009       L1    19  0.87

> <Gold.Chemscore.Hbond.Weighted>
-11.3729

> <Gold.Chemscore.Metal.Weighted>
-0.0000

> <Gold.Chemscore.Lipo.Weighted>
-8.9938

> <Gold.Chemscore.Internal_Hbond.Weighted>
0.0000

> <Gold.Chemscore.DEClash.Weighted>
1.5254

> <Gold.Chemscore.DEInternal.Weighted>
1.3416

> <Gold.Chemscore.Rot.Weighted>
5.5842

> <Gold.Chemscore.Internal.Correction.Weighted>
   9.000000E+99

> <Gold.Protein.RotatedTorsions>
[ 6907 6896 6895 6894 ] final   20.11 input  -60.11 | X-H torsion
[ 7974 7965 7964 7962 ] final   32.19 input  175.53 | X-H torsion
[ 8008 7997 7996 7995 ] final  170.35 input   59.86 | X-H torsion
[ 10167 10162 10161 10158 ] final -133.41 input  -65.29 | X-H torsion
[ 10718 10713 10712 10709 ] final   95.26 input   66.30 | X-H torsion
[ 10763 10752 10751 10750 ] final -162.86 input  -60.55 | X-H torsion
[ 11005 11000 10999 10996 ] final  123.41 input  -57.11 | X-H torsion

> <Gold.Protein.ActiveResidues>
 VAL166  LYS551  ARG553  GLY616  TRP617  ASP618  TYR619  PRO620  LYS621  CYS622 
 ASP623  PHE694  ASN695  SER759  ASP760  ASP761  ALA762  ILE779  LEU786  VAL792 
 PHE793  MET794  SER795  GLU796  ALA797  LYS798  CYS799  TRP800  GLU811  SER814 

> <Gold.Protein.RotatedAtoms>
  151.8913  135.0415  160.0497 H   0  0  0  0  0  0  0  0  0  0  0  0  # atno 6907 bound_to 6896
  152.2434  133.5149  159.5291 H   0  0  0  0  0  0  0  0  0  0  0  0  # atno 6908 bound_to 6896
  150.7060  134.0975  159.3996 H   0  0  0  0  0  0  0  0  0  0  0  0  # atno 6909 bound_to 6896
  146.1502  139.6559  142.9103 H   0  0  0  0  0  0  0  0  0  0  0  0  # atno 7974 bound_to 7965
  156.1374  140.1540  156.8973 H   0  0  0  0  0  0  0  0  0  0  0  0  # atno 8008 bound_to 7997
  154.4958  140.0838  156.7733 H   0  0  0  0  0  0  0  0  0  0  0  0  # atno 8009 bound_to 7997
  155.4143  140.3420  155.4268 H   0  0  0  0  0  0  0  0  0  0  0  0  # atno 8010 bound_to 7997
  139.8986  143.6635  152.2599 H   0  0  0  0  0  0  0  0  0  0  0  0  # atno 10167 bound_to 10162
  157.6940  131.0540  150.4312 H   0  0  0  0  0  0  0  0  0  0  0  0  # atno 10718 bound_to 10713
  154.7175  135.3019  154.9100 H   0  0  0  0  0  0  0  0  0  0  0  0  # atno 10763 bound_to 10752
  153.9982  135.6710  153.4762 H   0  0  0  0  0  0  0  0  0  0  0  0  # atno 10764 bound_to 10752
  153.0806  135.5011  154.8410 H   0  0  0  0  0  0  0  0  0  0  0  0  # atno 10765 bound_to 10752
  139.9311  134.9641  156.8255 H   0  0  0  0  0  0  0  0  0  0  0  0  # atno 11005 bound_to 11000
  145.4840  141.0438  143.2630 LP  0  0  0  0  0  0  0  0  0  0  0  0  # atno 17320 bound_to 7965
  144.7895  139.6357  143.7119 LP  0  0  0  0  0  0  0  0  0  0  0  0  # atno 17321 bound_to 7965
  139.7046  144.7630  151.1216 LP  0  0  0  0  0  0  0  0  0  0  0  0  # atno 17342 bound_to 10162
  140.7712  143.5412  150.9310 LP  0  0  0  0  0  0  0  0  0  0  0  0  # atno 17343 bound_to 10162
  156.4678  130.4046  149.6536 LP  0  0  0  0  0  0  0  0  0  0  0  0  # atno 17370 bound_to 10713
  156.3628  130.7490  151.2464 LP  0  0  0  0  0  0  0  0  0  0  0  0  # atno 17371 bound_to 10713
  140.6199  134.0003  155.7614 LP  0  0  0  0  0  0  0  0  0  0  0  0  # atno 17394 bound_to 11000
  141.0900  133.9931  157.3252 LP  0  0  0  0  0  0  0  0  0  0  0  0  # atno 17395 bound_to 11000

$$$$
