AV-unprocessed.smi:2799|AV-procd|sdf|10790|dock8
  -GOLD-   2272015223D 1   1.00000     0.00000
 Structure written by MMmdl.
 52 53  0  0  0  0  0  0  0  0  2 V2000
  142.6811  137.5249  153.4330 C   0  0  0  0  0  0  0  0  0  0  0  0
  143.7318  137.2250  154.5156 C   0  0  0  0  0  0  0  0  0  0  0  0
  143.1991  136.1753  155.5018 C   0  0  0  0  0  0  0  0  0  0  0  0
  144.1702  138.5006  155.2708 C   0  0  0  0  0  0  0  0  0  0  0  0
  145.1301  139.3634  154.5257 N   0  3  1  0  0  0  0  0  0  0  0  0
  145.5291  140.5608  155.3138 C   0  0  0  0  0  0  0  0  0  0  0  0
  146.3140  141.5627  154.4524 C   0  0  0  0  0  0  0  0  0  0  0  0
  147.5334  140.8986  153.8042 C   0  0  0  0  0  0  0  0  0  0  0  0
  147.0915  139.6566  153.0186 C   0  0  0  0  0  0  0  0  0  0  0  0
  146.2951  138.6632  153.8977 C   0  0  1  0  0  0  0  0  0  0  0  0
  147.1782  137.8978  154.9215 C   0  0  0  0  0  0  0  0  0  0  0  0
  147.8838  136.7730  154.3164 N   0  0  0  0  0  0  0  0  0  0  0  0
  148.2041  135.6402  154.9576 C   0  0  0  0  0  0  0  0  0  0  0  0
  147.9405  135.4436  156.1439 O   0  0  0  0  0  0  0  0  0  0  0  0
  148.8097  134.7709  154.1280 N   0  0  0  0  0  0  0  0  0  0  0  0
  149.2995  133.4804  154.3951 C   0  0  0  0  0  0  0  0  0  0  0  0
  148.8652  132.3497  153.7836 C   0  0  0  0  0  0  0  0  0  0  0  0
  149.4201  131.0619  154.1246 C   0  0  0  0  0  0  0  0  0  0  0  0
  150.3692  131.0067  155.0694 C   0  0  0  0  0  0  0  0  0  0  0  0
  150.8259  132.1633  155.7239 N   0  0  0  0  0  0  0  0  0  0  0  0
  151.8646  131.9993  156.7442 C   0  0  0  0  0  0  0  0  0  0  0  0
  150.3391  133.4082  155.4405 C   0  0  0  0  0  0  0  0  0  0  0  0
  150.7560  134.4069  156.0327 O   0  0  0  0  0  0  0  0  0  0  0  0
  141.7873  137.9792  153.8618 H   0  0  0  0  0  0  0  0  0  0  0  0
  142.3753  136.6117  152.9216 H   0  0  0  0  0  0  0  0  0  0  0  0
  143.0691  138.2043  152.6740 H   0  0  0  0  0  0  0  0  0  0  0  0
  144.5992  136.7738  154.0349 H   0  0  0  0  0  0  0  0  0  0  0  0
  142.3178  136.5376  156.0322 H   0  0  0  0  0  0  0  0  0  0  0  0
  143.9530  135.9169  156.2462 H   0  0  0  0  0  0  0  0  0  0  0  0
  142.9219  135.2557  154.9854 H   0  0  0  0  0  0  0  0  0  0  0  0
  143.2770  139.0898  155.4833 H   0  0  0  0  0  0  0  0  0  0  0  0
  144.5859  138.2413  156.2447 H   0  0  0  0  0  0  0  0  0  0  0  0
  144.6386  141.0562  155.7027 H   0  0  0  0  0  0  0  0  0  0  0  0
  146.1180  140.2601  156.1810 H   0  0  0  0  0  0  0  0  0  0  0  0
  145.6619  141.9653  153.6760 H   0  0  0  0  0  0  0  0  0  0  0  0
  146.6303  142.4108  155.0604 H   0  0  0  0  0  0  0  0  0  0  0  0
  148.0343  141.6036  153.1400 H   0  0  0  0  0  0  0  0  0  0  0  0
  148.2606  140.6233  154.5684 H   0  0  0  0  0  0  0  0  0  0  0  0
  146.4623  139.9736  152.1856 H   0  0  0  0  0  0  0  0  0  0  0  0
  147.9570  139.1740  152.5640 H   0  0  0  0  0  0  0  0  0  0  0  0
  145.8915  137.9303  153.2007 H   0  0  0  0  0  0  0  0  0  0  0  0
  147.9257  138.5562  155.3624 H   0  0  0  0  0  0  0  0  0  0  0  0
  146.5817  137.5173  155.7508 H   0  0  0  0  0  0  0  0  0  0  0  0
  148.1333  136.8580  153.3415 H   0  0  0  0  0  0  0  0  0  0  0  0
  148.8922  135.0557  153.1626 H   0  0  0  0  0  0  0  0  0  0  0  0
  148.0861  132.3672  153.0390 H   0  0  0  0  0  0  0  0  0  0  0  0
  149.0795  130.1649  153.6288 H   0  0  0  0  0  0  0  0  0  0  0  0
  150.8346  130.0823  155.3791 H   0  0  0  0  0  0  0  0  0  0  0  0
  152.7587  132.5635  156.4745 H   0  0  0  0  0  0  0  0  0  0  0  0
  152.1653  130.9594  156.8762 H   0  0  0  0  0  0  0  0  0  0  0  0
  151.5125  132.3603  157.7116 H   0  0  0  0  0  0  0  0  0  0  0  0
  144.5982  139.7292  153.7491 H   0  0  0  0  0  0  0  0  0  0  0  0
  1  2  1  0  0  0  0
  1 24  1  0  0  0  0
  1 25  1  0  0  0  0
  1 26  1  0  0  0  0
  2  3  1  0  0  0  0
  2  4  1  0  0  0  0
  2 27  1  0  0  0  0
  3 28  1  0  0  0  0
  3 29  1  0  0  0  0
  3 30  1  0  0  0  0
  4  5  1  0  0  0  0
  4 31  1  0  0  0  0
  4 32  1  0  0  0  0
  5 10  1  0  0  0  0
  5  6  1  0  0  0  0
  5 52  1  0  0  0  0
  6  7  1  0  0  0  0
  6 33  1  0  0  0  0
  6 34  1  0  0  0  0
  7  8  1  0  0  0  0
  7 35  1  0  0  0  0
  7 36  1  0  0  0  0
  8  9  1  0  0  0  0
  8 37  1  0  0  0  0
  8 38  1  0  0  0  0
  9 10  1  0  0  0  0
  9 39  1  0  0  0  0
  9 40  1  0  0  0  0
 10 11  1  0  0  0  0
 10 41  1  0  0  0  0
 11 12  1  0  0  0  0
 11 42  1  0  0  0  0
 11 43  1  0  0  0  0
 12 13  1  0  0  0  0
 12 44  1  0  0  0  0
 13 14  2  0  0  0  0
 13 15  1  0  0  0  0
 15 16  1  0  0  0  0
 15 45  1  0  0  0  0
 16 22  1  0  0  0  0
 16 17  2  0  0  0  0
 17 18  1  0  0  0  0
 17 46  1  0  0  0  0
 18 19  2  0  0  0  0
 18 47  1  0  0  0  0
 19 20  1  0  0  0  0
 19 48  1  0  0  0  0
 20 21  1  0  0  0  0
 20 22  1  0  0  0  0
 21 49  1  0  0  0  0
 21 50  1  0  0  0  0
 21 51  1  0  0  0  0
 22 23  2  0  0  0  0
M  CHG  1   5   1
M  END
> <s_m_source_file>
AV-unprocessed.smi

> <i_m_source_file_index>
2799

> <i_lp_mmshare_version>
43012

> <i_f3d_flags>
0

> <s_epik_input>
W0NIM11bQ0hdKFtDSDNdKVtDSDJdTjFbQ0gyXVtDSDJdW0NIMl1bQ0gyXVtDQEhdMVtDSDJdW05IXUMoPU8pW05IXWMyW2NIXVtjSF1bY0hdbihbQ0gzXSljMj1P

> <s_epik_cmdline>
J2VwaWtfcHl0aG9uJywgJy1waCcsICc3LjAnLCAnLXRuJywgJzgnLCAnLW1hJywgJzIwMCcsICctbWV0YWxfYmluZGluZycsICctaW1hZScsICc8aW5maWxlLm1hZT4nLCAnLW9tYWUnLCAnPG91dGZpbGUubWFlPic=

> <r_lp_tautomer_probability>
1

> <r_epik_Ionization_Penalty>
0.0010885

> <r_epik_Ionization_Penalty_Charging>
0.00106921

> <r_epik_Ionization_Penalty_Neutral>
1.92865e-05

> <r_epik_State_Penalty>
0.000697184

> <r_epik_Charging_Adjusted_Penalty>
0.0017664

> <i_epik_Tot_Q>
1

> <i_epik_Tot_abs_Q>
1

> <r_epik_Metal_State_Penalty>
-0

> <b_epik_Metal_Only>
0

> <s_lp_Force_Field>
OPLS_2005

> <r_lp_Energy>
35.5071

> <b_lp_Chiralities_Consistent>
1

> <s_lp_Variant>
AV-unprocessed.smi:2799-2

> <Gold.Version>
5.8.1

> <Gold.Id.Protein>
6NUR|6NUR_protein|mol2

> <Gold.PLP.Fitness>
41.2784

> <Gold.PLP.PLP>
-31.6321

> <Gold.PLP.part.hbond>
-3.0000

> <Gold.PLP.part.metal>
0.0000

> <Gold.PLP.part.buried>
-2.6792

> <Gold.PLP.part.nonpolar>
-25.4466

> <Gold.PLP.part.repulsive>
0.0397

> <Gold.PLP.ligand.clash>
0.0000

> <Gold.PLP.ligand.torsion>
1.2186

> <Gold.PLP.Chemscore.Hbond>
4.0000

> <Gold.PLP.Chemscore.CHOScore>
0.0000

> <Gold.PLP.Chemscore.Metal>
0.0000

> <Gold.Chemscore.Hbonds>
donor molecule, donor type, donor heavy atom, donor atom, acceptor molecule, acceptor atom, score
      L1  H     5    52       P1 10175  2.00
      L1  H    12    44       P1  7948  1.00
      L1  H    15    45       P1  7948  1.00

> <Gold.PLP.Chemscore.Internal.Correction>
0.0835

> <Gold.Rescore>
     Score         DG    S(hbond)    S(metal)    S(lipo)     H(rot)  DE(clash)    DE(int)     intcor
     16.12     -17.49       2.64        0.00      61.68       1.57       0.04       1.33       ----

> <Gold.Chemscore.Fitness>
16.1152

> <Gold.Chemscore.DG>
-17.4854

> <Gold.Chemscore.ZeroCoef>
-5.4800

> <Gold.Chemscore.Hbond>
2.6361

> <Gold.Chemscore.Metal>
0.0000

> <Gold.Chemscore.Lipo>
61.6813

> <Gold.Chemscore.Internal_Hbond>
0.0000

> <Gold.Chemscore.DEClash>
0.0416

> <Gold.Chemscore.DEInternal>
1.3286

> <Gold.Chemscore.Rot>
1.5688

> <Gold.Chemscore.Internal.Correction>
   9.000000E+99

> <Gold.Chemscore.Hbonds>
donor molecule, donor type, donor heavy atom, donor atom, acceptor molecule, acceptor atom, score
      L1  H     5    52       P1 10175  1.00
      L1  H    12    44       P1  7948  0.95
      L1  H    15    45       P1  7948  0.34

> <Gold.Chemscore.Hbond.Weighted>
-8.8047

> <Gold.Chemscore.Metal.Weighted>
-0.0000

> <Gold.Chemscore.Lipo.Weighted>
-7.2167

> <Gold.Chemscore.Internal_Hbond.Weighted>
0.0000

> <Gold.Chemscore.DEClash.Weighted>
0.0416

> <Gold.Chemscore.DEInternal.Weighted>
1.3286

> <Gold.Chemscore.Rot.Weighted>
4.0161

> <Gold.Chemscore.Internal.Correction.Weighted>
   9.000000E+99

> <Gold.Protein.RotatedTorsions>
[ 6907 6896 6895 6894 ] final   28.79 input  -60.11 | X-H torsion
[ 7974 7965 7964 7962 ] final -130.96 input  175.53 | X-H torsion
[ 8008 7997 7996 7995 ] final -127.48 input   59.86 | X-H torsion
[ 10167 10162 10161 10158 ] final  -97.44 input  -65.29 | X-H torsion
[ 10718 10713 10712 10709 ] final   98.56 input   66.30 | X-H torsion
[ 10763 10752 10751 10750 ] final  -66.33 input  -60.55 | X-H torsion
[ 11005 11000 10999 10996 ] final -116.58 input  -57.11 | X-H torsion

> <Gold.Protein.ActiveResidues>
 VAL166  LYS551  ARG553  GLY616  TRP617  ASP618  TYR619  PRO620  LYS621  CYS622 
 ASP623  PHE694  ASN695  SER759  ASP760  ASP761  ALA762  ILE779  LEU786  VAL792 
 PHE793  MET794  SER795  GLU796  ALA797  LYS798  CYS799  TRP800  GLU811  SER814 

> <Gold.Protein.RotatedAtoms>
  152.0221  134.9817  160.0570 H   0  0  0  0  0  0  0  0  0  0  0  0  # atno 6907 bound_to 6896
  152.1327  133.4412  159.4737 H   0  0  0  0  0  0  0  0  0  0  0  0  # atno 6908 bound_to 6896
  150.6857  134.2319  159.4481 H   0  0  0  0  0  0  0  0  0  0  0  0  # atno 6909 bound_to 6896
  144.9425  140.7254  143.4838 H   0  0  0  0  0  0  0  0  0  0  0  0  # atno 7974 bound_to 7965
  155.2468  140.0431  157.2982 H   0  0  0  0  0  0  0  0  0  0  0  0  # atno 8008 bound_to 7997
  154.5794  140.2396  155.8046 H   0  0  0  0  0  0  0  0  0  0  0  0  # atno 8009 bound_to 7997
  156.2182  140.2978  155.9896 H   0  0  0  0  0  0  0  0  0  0  0  0  # atno 8010 bound_to 7997
  140.2833  143.3268  152.0419 H   0  0  0  0  0  0  0  0  0  0  0  0  # atno 10167 bound_to 10162
  157.6893  131.0644  150.4815 H   0  0  0  0  0  0  0  0  0  0  0  0  # atno 10718 bound_to 10713
  154.3583  135.6121  153.5677 H   0  0  0  0  0  0  0  0  0  0  0  0  # atno 10763 bound_to 10752
  152.9795  135.5809  154.4663 H   0  0  0  0  0  0  0  0  0  0  0  0  # atno 10764 bound_to 10752
  154.4396  135.2850  155.1834 H   0  0  0  0  0  0  0  0  0  0  0  0  # atno 10765 bound_to 10752
  141.0412  133.9832  157.2991 H   0  0  0  0  0  0  0  0  0  0  0  0  # atno 11005 bound_to 11000
  145.2969  139.1864  143.4710 LP  0  0  0  0  0  0  0  0  0  0  0  0  # atno 17320 bound_to 7965
  146.3291  140.2954  142.8617 LP  0  0  0  0  0  0  0  0  0  0  0  0  # atno 17321 bound_to 7965
  139.4957  144.6576  151.6537 LP  0  0  0  0  0  0  0  0  0  0  0  0  # atno 17342 bound_to 10162
  140.5793  143.9973  150.6259 LP  0  0  0  0  0  0  0  0  0  0  0  0  # atno 17343 bound_to 10162
  156.5147  130.4147  149.6282 LP  0  0  0  0  0  0  0  0  0  0  0  0  # atno 17370 bound_to 10713
  156.3209  130.7280  151.2191 LP  0  0  0  0  0  0  0  0  0  0  0  0  # atno 17371 bound_to 10713
  139.9277  135.0201  156.8293 LP  0  0  0  0  0  0  0  0  0  0  0  0  # atno 17394 bound_to 11000
  140.6230  133.9976  155.7627 LP  0  0  0  0  0  0  0  0  0  0  0  0  # atno 17395 bound_to 11000

$$$$
