AV-unprocessed.smi:3240|AV-procd|sdf|12384|dock2
  -GOLD-   2272018243D 1   1.00000     0.00000
 Structure written by MMmdl.
 43 44  0  0  0  0  0  0  0  0  1 V2000
  152.0842  144.7231  160.1382 C   0  0  0  0  0  0  0  0  0  0  0  0
  151.8498  143.6613  159.1028 C   0  0  0  0  0  0  0  0  0  0  0  0
  151.2113  143.8011  157.8378 C   0  0  0  0  0  0  0  0  0  0  0  0
  151.1627  142.6673  157.1580 N   0  0  0  0  0  0  0  0  0  0  0  0
  151.7603  141.7643  157.9644 N   0  0  0  0  0  0  0  0  0  0  0  0
  151.8881  140.3816  157.5375 C   0  0  0  0  0  0  0  0  0  0  0  0
  151.4810  140.1651  156.0648 C   0  0  1  0  0  0  0  0  0  0  0  0
  152.4529  139.2315  155.3130 C   0  0  0  0  0  0  0  0  0  0  0  0
  150.1021  139.6686  156.0182 N   0  0  0  0  0  0  0  0  0  0  0  0
  149.6014  139.3083  154.6881 C   0  0  0  0  0  0  0  0  0  0  0  0
  148.2444  139.9742  154.3657 C   0  0  0  0  0  0  0  0  0  0  0  0
  147.8909  139.5719  153.0547 O   0  0  0  0  0  0  0  0  0  0  0  0
  147.1271  139.5704  155.3618 C   0  0  0  0  0  0  0  0  0  0  0  0
  145.8118  140.3372  155.1322 C   0  0  0  0  0  0  0  0  0  0  0  0
  146.0346  141.8555  155.1528 C   0  0  0  0  0  0  0  0  0  0  0  0
  147.0954  142.2667  154.1232 C   0  0  0  0  0  0  0  0  0  0  0  0
  148.4172  141.5119  154.3514 C   0  0  0  0  0  0  0  0  0  0  0  0
  152.1889  142.3384  159.1423 C   0  0  0  0  0  0  0  0  0  0  0  0
  152.2603  145.6981  159.6837 H   0  0  0  0  0  0  0  0  0  0  0  0
  152.9509  144.4984  160.7602 H   0  0  0  0  0  0  0  0  0  0  0  0
  151.2280  144.8285  160.8047 H   0  0  0  0  0  0  0  0  0  0  0  0
  150.7848  144.6895  157.3956 H   0  0  0  0  0  0  0  0  0  0  0  0
  152.9172  140.0547  157.6981 H   0  0  0  0  0  0  0  0  0  0  0  0
  151.2641  139.7721  158.1928 H   0  0  0  0  0  0  0  0  0  0  0  0
  151.5140  141.1389  155.5747 H   0  0  0  0  0  0  0  0  0  0  0  0
  153.4779  139.5987  155.3610 H   0  0  0  0  0  0  0  0  0  0  0  0
  152.2083  139.1518  154.2546 H   0  0  0  0  0  0  0  0  0  0  0  0
  152.4425  138.2269  155.7371 H   0  0  0  0  0  0  0  0  0  0  0  0
  149.4812  140.3529  156.4383 H   0  0  0  0  0  0  0  0  0  0  0  0
  150.3319  139.6132  153.9376 H   0  0  0  0  0  0  0  0  0  0  0  0
  149.4988  138.2274  154.5953 H   0  0  0  0  0  0  0  0  0  0  0  0
  148.5166  139.9436  152.4515 H   0  0  0  0  0  0  0  0  0  0  0  0
  146.9271  138.4999  155.3053 H   0  0  0  0  0  0  0  0  0  0  0  0
  147.4700  139.7610  156.3796 H   0  0  0  0  0  0  0  0  0  0  0  0
  145.3766  140.0447  154.1759 H   0  0  0  0  0  0  0  0  0  0  0  0
  145.0848  140.0606  155.8962 H   0  0  0  0  0  0  0  0  0  0  0  0
  145.0966  142.3723  154.9472 H   0  0  0  0  0  0  0  0  0  0  0  0
  146.3494  142.1672  156.1494 H   0  0  0  0  0  0  0  0  0  0  0  0
  146.7249  142.0694  153.1165 H   0  0  0  0  0  0  0  0  0  0  0  0
  147.2694  143.3413  154.1804 H   0  0  0  0  0  0  0  0  0  0  0  0
  148.8385  141.8347  155.3046 H   0  0  0  0  0  0  0  0  0  0  0  0
  149.1414  141.8043  153.5898 H   0  0  0  0  0  0  0  0  0  0  0  0
  152.6921  141.7624  159.9046 H   0  0  0  0  0  0  0  0  0  0  0  0
  1  2  1  0  0  0  0
  1 19  1  0  0  0  0
  1 20  1  0  0  0  0
  1 21  1  0  0  0  0
  2 18  2  0  0  0  0
  2  3  1  0  0  0  0
  3  4  2  0  0  0  0
  3 22  1  0  0  0  0
  4  5  1  0  0  0  0
  5  6  1  0  0  0  0
  5 18  1  0  0  0  0
  6  7  1  0  0  0  0
  6 23  1  0  0  0  0
  6 24  1  0  0  0  0
  7  8  1  0  0  0  0
  7  9  1  0  0  0  0
  7 25  1  0  0  0  0
  8 26  1  0  0  0  0
  8 27  1  0  0  0  0
  8 28  1  0  0  0  0
  9 10  1  0  0  0  0
  9 29  1  0  0  0  0
 10 11  1  0  0  0  0
 10 30  1  0  0  0  0
 10 31  1  0  0  0  0
 11 17  1  0  0  0  0
 11 12  1  0  0  0  0
 11 13  1  0  0  0  0
 12 32  1  0  0  0  0
 13 14  1  0  0  0  0
 13 33  1  0  0  0  0
 13 34  1  0  0  0  0
 14 15  1  0  0  0  0
 14 35  1  0  0  0  0
 14 36  1  0  0  0  0
 15 16  1  0  0  0  0
 15 37  1  0  0  0  0
 15 38  1  0  0  0  0
 16 17  1  0  0  0  0
 16 39  1  0  0  0  0
 16 40  1  0  0  0  0
 17 41  1  0  0  0  0
 17 42  1  0  0  0  0
 18 43  1  0  0  0  0
M  END
> <s_m_source_file>
AV-unprocessed.smi

> <i_m_source_file_index>
3240

> <i_lp_mmshare_version>
43012

> <i_f3d_flags>
0

> <s_epik_input>
W0NIM11jMVtjSF1ubihbY0hdMSlbQ0gyXVtDQEhdKFtDSDNdKVtOSF1bQ0gyXUMyKFtPSF0pW0NIMl1bQ0gyXVtDSDJdW0NIMl1bQ0gyXTI=

> <s_epik_cmdline>
J2VwaWtfcHl0aG9uJywgJy1waCcsICc3LjAnLCAnLXRuJywgJzgnLCAnLW1hJywgJzIwMCcsICctbWV0YWxfYmluZGluZycsICctaW1hZScsICc8aW5maWxlLm1hZT4nLCAnLW9tYWUnLCAnPG91dGZpbGUubWFlPic=

> <r_lp_tautomer_probability>
1

> <r_epik_Ionization_Penalty>
2.35969

> <r_epik_Ionization_Penalty_Charging>
0

> <r_epik_Ionization_Penalty_Neutral>
2.35969

> <r_epik_State_Penalty>
2.51455

> <r_epik_Charging_Adjusted_Penalty>
2.51455

> <i_epik_Tot_Q>
0

> <i_epik_Tot_abs_Q>
0

> <r_epik_Metal_State_Penalty>
2.51446

> <b_epik_Metal_Only>
0

> <s_lp_Force_Field>
OPLS_2005

> <r_lp_Energy>
22.6589

> <b_lp_Chiralities_Consistent>
1

> <s_lp_Variant>
AV-unprocessed.smi:3240-4

> <Gold.Version>
5.8.1

> <Gold.Id.Protein>
6NUR|6NUR_protein|mol2

> <Gold.PLP.Fitness>
41.3351

> <Gold.PLP.PLP>
-37.6049

> <Gold.PLP.part.hbond>
-1.0000

> <Gold.PLP.part.metal>
0.0000

> <Gold.PLP.part.buried>
-3.9324

> <Gold.PLP.part.nonpolar>
-32.7557

> <Gold.PLP.part.repulsive>
0.1049

> <Gold.PLP.ligand.clash>
0.0000

> <Gold.PLP.ligand.torsion>
1.0284

> <Gold.PLP.Chemscore.Hbond>
1.0000

> <Gold.PLP.Chemscore.CHOScore>
0.9014

> <Gold.PLP.Chemscore.Metal>
0.0000

> <Gold.Chemscore.Hbonds>
donor molecule, donor type, donor heavy atom, donor atom, acceptor molecule, acceptor atom, score
      L1  H    12    32       P1  7957  1.00
      L1  C     3    22       P1  8028  0.93

> <Gold.PLP.Chemscore.Internal.Correction>
0.0829

> <Gold.Rescore>
     Score         DG    S(hbond)    S(metal)    S(lipo)     H(rot)  DE(clash)    DE(int)     intcor
     14.48     -15.48       1.00        0.00     101.71       2.04       0.04       0.96       ----

> <Gold.Chemscore.Fitness>
14.4807

> <Gold.Chemscore.DG>
-15.4830

> <Gold.Chemscore.ZeroCoef>
-5.4800

> <Gold.Chemscore.Hbond>
0.9991

> <Gold.Chemscore.Metal>
0.0000

> <Gold.Chemscore.Lipo>
101.7132

> <Gold.Chemscore.Internal_Hbond>
0.0000

> <Gold.Chemscore.DEClash>
0.0429

> <Gold.Chemscore.DEInternal>
0.9594

> <Gold.Chemscore.Rot>
2.0447

> <Gold.Chemscore.Internal.Correction>
   9.000000E+99

> <Gold.Chemscore.Hbonds>
donor molecule, donor type, donor heavy atom, donor atom, acceptor molecule, acceptor atom, score
      L1  H    12    32       P1  7957  0.99

> <Gold.Chemscore.Hbond.Weighted>
-3.3369

> <Gold.Chemscore.Metal.Weighted>
-0.0000

> <Gold.Chemscore.Lipo.Weighted>
-11.9004

> <Gold.Chemscore.Internal_Hbond.Weighted>
0.0000

> <Gold.Chemscore.DEClash.Weighted>
0.0429

> <Gold.Chemscore.DEInternal.Weighted>
0.9594

> <Gold.Chemscore.Rot.Weighted>
5.2344

> <Gold.Chemscore.Internal.Correction.Weighted>
   9.000000E+99

> <Gold.Protein.RotatedTorsions>
[ 6907 6896 6895 6894 ] final -135.19 input  -60.11 | X-H torsion
[ 7974 7965 7964 7962 ] final  -60.82 input  175.53 | X-H torsion
[ 8008 7997 7996 7995 ] final  138.27 input   59.86 | X-H torsion
[ 10167 10162 10161 10158 ] final -131.04 input  -65.29 | X-H torsion
[ 10718 10713 10712 10709 ] final  -25.92 input   66.30 | X-H torsion
[ 10763 10752 10751 10750 ] final   40.55 input  -60.55 | X-H torsion
[ 11005 11000 10999 10996 ] final  -73.54 input  -57.11 | X-H torsion

> <Gold.Protein.ActiveResidues>
 VAL166  LYS551  ARG553  GLY616  TRP617  ASP618  TYR619  PRO620  LYS621  CYS622 
 ASP623  PHE694  ASN695  SER759  ASP760  ASP761  ALA762  ILE779  LEU786  VAL792 
 PHE793  MET794  SER795  GLU796  ALA797  LYS798  CYS799  TRP800  GLU811  SER814 

> <Gold.Protein.RotatedAtoms>
  150.9948  133.6113  159.2702 H   0  0  0  0  0  0  0  0  0  0  0  0  # atno 6907 bound_to 6896
  151.3321  135.0843  159.9352 H   0  0  0  0  0  0  0  0  0  0  0  0  # atno 6908 bound_to 6896
  152.5257  133.9576  159.7756 H   0  0  0  0  0  0  0  0  0  0  0  0  # atno 6909 bound_to 6896
  145.8109  140.8599  143.0182 H   0  0  0  0  0  0  0  0  0  0  0  0  # atno 7974 bound_to 7965
  156.2998  140.2398  156.4046 H   0  0  0  0  0  0  0  0  0  0  0  0  # atno 8008 bound_to 7997
  154.8496  140.0424  157.1615 H   0  0  0  0  0  0  0  0  0  0  0  0  # atno 8009 bound_to 7997
  154.9014  140.2977  155.5319 H   0  0  0  0  0  0  0  0  0  0  0  0  # atno 8010 bound_to 7997
  139.9231  143.6359  152.2549 H   0  0  0  0  0  0  0  0  0  0  0  0  # atno 10167 bound_to 10162
  156.4580  130.4498  149.6947 H   0  0  0  0  0  0  0  0  0  0  0  0  # atno 10718 bound_to 10713
  152.9933  135.6188  154.2645 H   0  0  0  0  0  0  0  0  0  0  0  0  # atno 10763 bound_to 10752
  154.2380  135.2789  155.2866 H   0  0  0  0  0  0  0  0  0  0  0  0  # atno 10764 bound_to 10752
  154.5393  135.5765  153.6884 H   0  0  0  0  0  0  0  0  0  0  0  0  # atno 10765 bound_to 10752
  141.1624  133.6881  156.7227 H   0  0  0  0  0  0  0  0  0  0  0  0  # atno 11005 bound_to 11000
  144.6757  140.0394  143.7481 LP  0  0  0  0  0  0  0  0  0  0  0  0  # atno 17320 bound_to 7965
  145.9778  139.2918  143.1060 LP  0  0  0  0  0  0  0  0  0  0  0  0  # atno 17321 bound_to 7965
  139.6845  144.7653  151.1549 LP  0  0  0  0  0  0  0  0  0  0  0  0  # atno 17342 bound_to 10162
  140.7657  143.5677  150.9029 LP  0  0  0  0  0  0  0  0  0  0  0  0  # atno 17343 bound_to 10162
  156.3746  130.7548  151.2535 LP  0  0  0  0  0  0  0  0  0  0  0  0  # atno 17370 bound_to 10713
  157.7499  131.0313  150.4176 LP  0  0  0  0  0  0  0  0  0  0  0  0  # atno 17371 bound_to 10713
  140.2804  134.8321  157.3928 LP  0  0  0  0  0  0  0  0  0  0  0  0  # atno 17394 bound_to 11000
  140.1439  134.4937  155.8011 LP  0  0  0  0  0  0  0  0  0  0  0  0  # atno 17395 bound_to 11000

$$$$
