AV-unprocessed.smi:1590|AV-procd|sdf|6395|dock7
  -GOLD-   22720 7 33D 1   1.00000     0.00000
 Structure written by MMmdl.
 35 36  0  0  0  0  0  0  0  0  1 V2000
  146.4199  128.3945  154.0754 C   0  0  0  0  0  0  0  0  0  0  0  0
  146.5131  129.0149  152.6735 C   0  0  0  0  0  0  0  0  0  0  0  0
  147.5039  128.2698  151.7679 C   0  0  0  0  0  0  0  0  0  0  0  0
  146.8040  130.4833  152.7286 C   0  0  0  0  0  0  0  0  0  0  0  0
  145.9791  131.4004  152.2065 N   0  0  0  0  0  0  0  0  0  0  0  0
  146.4530  132.6940  152.3720 N   0  0  0  0  0  0  0  0  0  0  0  0
  147.6294  132.7176  153.0127 C   0  0  0  0  0  0  0  0  0  0  0  0
  148.3344  133.9102  153.3240 N   0  0  0  0  0  0  0  0  0  0  0  0
  149.0712  134.1819  154.4156 C   0  0  0  0  0  0  0  0  0  0  0  0
  149.2282  133.4265  155.3752 O   0  0  0  0  0  0  0  0  0  0  0  0
  149.6231  135.4011  154.3371 N   0  0  0  0  0  0  0  0  0  0  0  0
  150.4793  135.9988  155.3550 C   0  0  0  0  0  0  0  0  0  0  0  0
  151.1223  137.2902  154.8565 C   0  0  0  0  0  0  0  0  0  0  0  0
  151.9217  138.1728  155.8277 C   0  0  0  0  0  0  0  0  0  0  0  0
  151.3898  139.3991  155.0815 C   0  0  0  0  0  0  0  0  0  0  0  0
  150.2398  138.5177  154.5871 C   0  0  0  0  0  0  0  0  0  0  0  0
  148.2614  131.1448  153.4671 S   0  0  0  0  0  0  0  0  0  0  0  0
  145.6635  128.8988  154.6774 H   0  0  0  0  0  0  0  0  0  0  0  0
  147.3697  128.4622  154.6066 H   0  0  0  0  0  0  0  0  0  0  0  0
  146.1475  127.3404  154.0200 H   0  0  0  0  0  0  0  0  0  0  0  0
  145.5279  128.9035  152.2178 H   0  0  0  0  0  0  0  0  0  0  0  0
  147.4999  128.6841  150.7591 H   0  0  0  0  0  0  0  0  0  0  0  0
  147.2461  127.2133  151.6907 H   0  0  0  0  0  0  0  0  0  0  0  0
  148.5223  128.3351  152.1520 H   0  0  0  0  0  0  0  0  0  0  0  0
  148.2824  134.6376  152.6264 H   0  0  0  0  0  0  0  0  0  0  0  0
  149.4398  135.9567  153.5144 H   0  0  0  0  0  0  0  0  0  0  0  0
  149.9084  136.1803  156.2670 H   0  0  0  0  0  0  0  0  0  0  0  0
  151.2463  135.2699  155.6181 H   0  0  0  0  0  0  0  0  0  0  0  0
  151.7319  137.1046  153.9694 H   0  0  0  0  0  0  0  0  0  0  0  0
  151.5558  138.1145  156.8542 H   0  0  0  0  0  0  0  0  0  0  0  0
  153.0029  138.0404  155.7781 H   0  0  0  0  0  0  0  0  0  0  0  0
  151.0873  140.2281  155.7219 H   0  0  0  0  0  0  0  0  0  0  0  0
  152.0503  139.7259  154.2767 H   0  0  0  0  0  0  0  0  0  0  0  0
  149.9692  138.6626  153.5408 H   0  0  0  0  0  0  0  0  0  0  0  0
  149.3655  138.5629  155.2386 H   0  0  0  0  0  0  0  0  0  0  0  0
  1  2  1  0  0  0  0
  1 18  1  0  0  0  0
  1 19  1  0  0  0  0
  1 20  1  0  0  0  0
  2  3  1  0  0  0  0
  2  4  1  0  0  0  0
  2 21  1  0  0  0  0
  3 22  1  0  0  0  0
  3 23  1  0  0  0  0
  3 24  1  0  0  0  0
  4 17  1  0  0  0  0
  4  5  2  0  0  0  0
  5  6  1  0  0  0  0
  6  7  2  0  0  0  0
  7  8  1  0  0  0  0
  7 17  1  0  0  0  0
  8  9  1  0  0  0  0
  8 25  1  0  0  0  0
  9 10  2  0  0  0  0
  9 11  1  0  0  0  0
 11 12  1  0  0  0  0
 11 26  1  0  0  0  0
 12 13  1  0  0  0  0
 12 27  1  0  0  0  0
 12 28  1  0  0  0  0
 13 16  1  0  0  0  0
 13 14  1  0  0  0  0
 13 29  1  0  0  0  0
 14 15  1  0  0  0  0
 14 30  1  0  0  0  0
 14 31  1  0  0  0  0
 15 16  1  0  0  0  0
 15 32  1  0  0  0  0
 15 33  1  0  0  0  0
 16 34  1  0  0  0  0
 16 35  1  0  0  0  0
M  END
> <s_m_source_file>
AV-unprocessed.smi

> <i_m_source_file_index>
1590

> <i_lp_mmshare_version>
43012

> <i_f3d_flags>
0

> <s_epik_input>
W0NIM11bQ0hdKFtDSDNdKWMxbm5jKHMxKVtOSF1DKD1PKVtOSF1bQ0gyXVtDSF0yW0NIMl1bQ0gyXVtDSDJdMg==

> <s_epik_cmdline>
J2VwaWtfcHl0aG9uJywgJy1waCcsICc3LjAnLCAnLXRuJywgJzgnLCAnLW1hJywgJzIwMCcsICctbWV0YWxfYmluZGluZycsICctaW1hZScsICc8aW5maWxlLm1hZT4nLCAnLW9tYWUnLCAnPG91dGZpbGUubWFlPic=

> <r_lp_tautomer_probability>
1

> <r_epik_Ionization_Penalty>
0.000374979

> <r_epik_Ionization_Penalty_Charging>
0

> <r_epik_Ionization_Penalty_Neutral>
0.000374979

> <r_epik_State_Penalty>
-0

> <r_epik_Charging_Adjusted_Penalty>
0

> <i_epik_Tot_Q>
0

> <i_epik_Tot_abs_Q>
0

> <r_epik_Metal_State_Penalty>
0.186879

> <b_epik_Metal_Only>
0

> <s_lp_Force_Field>
OPLS_2005

> <r_lp_Energy>
5.08701

> <b_lp_Chiralities_Consistent>
1

> <s_lp_Variant>
AV-unprocessed.smi:1590-1

> <Gold.Version>
5.8.1

> <Gold.Id.Protein>
6NUR|6NUR_protein|mol2

> <Gold.PLP.Fitness>
35.1278

> <Gold.PLP.PLP>
-29.7573

> <Gold.PLP.part.hbond>
-2.4630

> <Gold.PLP.part.metal>
0.0000

> <Gold.PLP.part.buried>
-1.0008

> <Gold.PLP.part.nonpolar>
-25.9195

> <Gold.PLP.part.repulsive>
0.3556

> <Gold.PLP.ligand.clash>
0.0000

> <Gold.PLP.ligand.torsion>
0.3740

> <Gold.PLP.Chemscore.Hbond>
2.0000

> <Gold.PLP.Chemscore.CHOScore>
0.0000

> <Gold.PLP.Chemscore.Metal>
0.0000

> <Gold.Chemscore.Hbonds>
donor molecule, donor type, donor heavy atom, donor atom, acceptor molecule, acceptor atom, score
      L1  H     8    25       P1  7948  1.00
      L1  H    11    26       P1  7948  1.00

> <Gold.PLP.Chemscore.Internal.Correction>
0.1185

> <Gold.Rescore>
     Score         DG    S(hbond)    S(metal)    S(lipo)     H(rot)  DE(clash)    DE(int)     intcor
     13.27     -13.64       1.42        0.00      59.47       1.39       0.00       0.37       ----

> <Gold.Chemscore.Fitness>
13.2677

> <Gold.Chemscore.DG>
-13.6381

> <Gold.Chemscore.ZeroCoef>
-5.4800

> <Gold.Chemscore.Hbond>
1.4231

> <Gold.Chemscore.Metal>
0.0000

> <Gold.Chemscore.Lipo>
59.4677

> <Gold.Chemscore.Internal_Hbond>
0.0000

> <Gold.Chemscore.DEClash>
0.0047

> <Gold.Chemscore.DEInternal>
0.3657

> <Gold.Chemscore.Rot>
1.3879

> <Gold.Chemscore.Internal.Correction>
   9.000000E+99

> <Gold.Chemscore.Hbonds>
donor molecule, donor type, donor heavy atom, donor atom, acceptor molecule, acceptor atom, score
      L1  H     8    25       P1  7948  0.33
      L1  H    11    26       P1  7948  0.49

> <Gold.Chemscore.Hbond.Weighted>
-4.7533

> <Gold.Chemscore.Metal.Weighted>
-0.0000

> <Gold.Chemscore.Lipo.Weighted>
-6.9577

> <Gold.Chemscore.Internal_Hbond.Weighted>
0.0000

> <Gold.Chemscore.DEClash.Weighted>
0.0047

> <Gold.Chemscore.DEInternal.Weighted>
0.3657

> <Gold.Chemscore.Rot.Weighted>
3.5529

> <Gold.Chemscore.Internal.Correction.Weighted>
   9.000000E+99

> <Gold.Protein.RotatedTorsions>
[ 6907 6896 6895 6894 ] final   30.42 input  -60.11 | X-H torsion
[ 7974 7965 7964 7962 ] final -163.53 input  175.53 | X-H torsion
[ 8008 7997 7996 7995 ] final   48.00 input   59.86 | X-H torsion
[ 10167 10162 10161 10158 ] final -100.36 input  -65.29 | X-H torsion
[ 10718 10713 10712 10709 ] final -131.23 input   66.30 | X-H torsion
[ 10763 10752 10751 10750 ] final  141.19 input  -60.55 | X-H torsion
[ 11005 11000 10999 10996 ] final   28.47 input  -57.11 | X-H torsion

> <Gold.Protein.ActiveResidues>
 VAL166  LYS551  ARG553  GLY616  TRP617  ASP618  TYR619  PRO620  LYS621  CYS622 
 ASP623  PHE694  ASN695  SER759  ASP760  ASP761  ALA762  ILE779  LEU786  VAL792 
 PHE793  MET794  SER795  GLU796  ALA797  LYS798  CYS799  TRP800  GLU811  SER814 

> <Gold.Protein.RotatedAtoms>
  152.0457  134.9684  160.0574 H   0  0  0  0  0  0  0  0  0  0  0  0  # atno 6907 bound_to 6896
  152.1105  133.4293  159.4637 H   0  0  0  0  0  0  0  0  0  0  0  0  # atno 6908 bound_to 6896
  150.6843  134.2573  159.4578 H   0  0  0  0  0  0  0  0  0  0  0  0  # atno 6909 bound_to 6896
  144.7323  140.3094  143.6190 H   0  0  0  0  0  0  0  0  0  0  0  0  # atno 7974 bound_to 7965
  155.3783  140.3427  155.4246 H   0  0  0  0  0  0  0  0  0  0  0  0  # atno 8008 bound_to 7997
  156.1624  140.1605  156.8623 H   0  0  0  0  0  0  0  0  0  0  0  0  # atno 8009 bound_to 7997
  154.5152  140.0780  156.8050 H   0  0  0  0  0  0  0  0  0  0  0  0  # atno 8010 bound_to 7997
  140.2528  143.3461  152.0699 H   0  0  0  0  0  0  0  0  0  0  0  0  # atno 10167 bound_to 10162
  156.2223  130.6986  151.0769 H   0  0  0  0  0  0  0  0  0  0  0  0  # atno 10718 bound_to 10713
  153.9352  135.2986  155.3444 H   0  0  0  0  0  0  0  0  0  0  0  0  # atno 10763 bound_to 10752
  154.7506  135.4982  153.9285 H   0  0  0  0  0  0  0  0  0  0  0  0  # atno 10764 bound_to 10752
  153.1071  135.6749  153.9673 H   0  0  0  0  0  0  0  0  0  0  0  0  # atno 10765 bound_to 10752
  140.3152  134.2605  155.7727 H   0  0  0  0  0  0  0  0  0  0  0  0  # atno 11005 bound_to 11000
  145.7680  139.1847  143.2229 LP  0  0  0  0  0  0  0  0  0  0  0  0  # atno 17320 bound_to 7965
  146.0933  140.7630  142.9584 LP  0  0  0  0  0  0  0  0  0  0  0  0  # atno 17321 bound_to 7965
  139.5041  144.6768  151.6107 LP  0  0  0  0  0  0  0  0  0  0  0  0  # atno 17342 bound_to 10162
  140.6027  143.9580  150.6397 LP  0  0  0  0  0  0  0  0  0  0  0  0  # atno 17343 bound_to 10162
  157.7093  131.0741  150.6556 LP  0  0  0  0  0  0  0  0  0  0  0  0  # atno 17370 bound_to 10713
  156.6619  130.4514  149.5685 LP  0  0  0  0  0  0  0  0  0  0  0  0  # atno 17371 bound_to 10713
  141.2099  133.7735  156.9966 LP  0  0  0  0  0  0  0  0  0  0  0  0  # atno 17394 bound_to 11000
  140.0990  134.9547  157.1893 LP  0  0  0  0  0  0  0  0  0  0  0  0  # atno 17395 bound_to 11000

$$$$
