AV-unprocessed.smi:1440|AV-procd|sdf|5874|dock7
  -GOLD-   22720 5553D 1   1.00000     0.00000
 Structure written by MMmdl.
 41 42  0  0  0  0  0  0  0  0  1 V2000
  151.9500  142.9586  159.3404 C   0  0  0  0  0  0  0  0  0  0  0  0
  152.3404  141.7363  158.4975 C   0  0  2  0  0  0  0  0  0  0  0  0
  151.3802  141.5420  157.3082 C   0  0  0  0  0  0  0  0  0  0  0  0
  151.7621  140.3134  156.4624 C   0  0  0  0  0  0  0  0  0  0  0  0
  151.8511  139.0269  157.3059 C   0  0  2  0  0  0  0  0  0  0  0  0
  150.5159  138.6071  157.7290 N   0  0  0  0  0  0  0  0  0  0  0  0
  150.2461  137.6096  158.5844 C   0  0  0  0  0  0  0  0  0  0  0  0
  151.1198  136.9263  159.1209 O   0  0  0  0  0  0  0  0  0  0  0  0
  148.7598  137.3710  158.8790 C   0  0  0  0  0  0  0  0  0  0  0  0
  148.5149  136.2074  159.7275 N   0  0  0  0  0  0  0  0  0  0  0  0
  147.9089  136.2329  160.9255 C   0  0  0  0  0  0  0  0  0  0  0  0
  147.4890  137.2628  161.4523 O   0  0  0  0  0  0  0  0  0  0  0  0
  147.7510  134.8893  161.6384 C   0  0  0  0  0  0  0  0  0  0  0  0
  146.3958  134.7141  162.1279 N   0  0  0  0  0  0  0  0  0  0  0  0
  145.4180  135.6034  162.3119 C   0  0  0  0  0  0  0  0  0  0  0  0
  144.2990  135.0773  162.7903 N   0  0  0  0  0  0  0  0  0  0  0  0
  144.6830  133.7692  162.8828 C   0  0  0  0  0  0  0  0  0  0  0  0
  145.9303  133.4974  162.4985 N   0  0  0  0  0  0  0  0  0  0  0  0
  152.7917  139.2300  158.5130 C   0  0  0  0  0  0  0  0  0  0  0  0
  152.4017  140.4577  159.3547 C   0  0  0  0  0  0  0  0  0  0  0  0
  150.9542  142.8434  159.7696 H   0  0  0  0  0  0  0  0  0  0  0  0
  151.9498  143.8670  158.7374 H   0  0  0  0  0  0  0  0  0  0  0  0
  152.6513  143.1092  160.1616 H   0  0  0  0  0  0  0  0  0  0  0  0
  153.3385  141.9193  158.0968 H   0  0  0  0  0  0  0  0  0  0  0  0
  150.3580  141.4333  157.6729 H   0  0  0  0  0  0  0  0  0  0  0  0
  151.3858  142.4317  156.6776 H   0  0  0  0  0  0  0  0  0  0  0  0
  151.0477  140.1831  155.6486 H   0  0  0  0  0  0  0  0  0  0  0  0
  152.7276  140.4965  155.9891 H   0  0  0  0  0  0  0  0  0  0  0  0
  152.2637  138.2400  156.6718 H   0  0  0  0  0  0  0  0  0  0  0  0
  149.7369  139.1184  157.3398 H   0  0  0  0  0  0  0  0  0  0  0  0
  148.3612  138.2503  159.3857 H   0  0  0  0  0  0  0  0  0  0  0  0
  148.2112  137.2756  157.9403 H   0  0  0  0  0  0  0  0  0  0  0  0
  148.8229  135.3132  159.3732 H   0  0  0  0  0  0  0  0  0  0  0  0
  147.9838  134.0726  160.9538 H   0  0  0  0  0  0  0  0  0  0  0  0
  148.4535  134.8223  162.4708 H   0  0  0  0  0  0  0  0  0  0  0  0
  145.5292  136.6559  162.0957 H   0  0  0  0  0  0  0  0  0  0  0  0
  144.0237  132.9940  163.2449 H   0  0  0  0  0  0  0  0  0  0  0  0
  152.8102  138.3382  159.1403 H   0  0  0  0  0  0  0  0  0  0  0  0
  153.8117  139.3599  158.1495 H   0  0  0  0  0  0  0  0  0  0  0  0
  153.1223  140.5861  160.1629 H   0  0  0  0  0  0  0  0  0  0  0  0
  151.4358  140.2841  159.8307 H   0  0  0  0  0  0  0  0  0  0  0  0
  1  2  1  0  0  0  0
  1 21  1  0  0  0  0
  1 22  1  0  0  0  0
  1 23  1  0  0  0  0
  2 20  1  0  0  0  0
  2  3  1  0  0  0  0
  2 24  1  0  0  0  0
  3  4  1  0  0  0  0
  3 25  1  0  0  0  0
  3 26  1  0  0  0  0
  4  5  1  0  0  0  0
  4 27  1  0  0  0  0
  4 28  1  0  0  0  0
  5  6  1  0  0  0  0
  5 19  1  0  0  0  0
  5 29  1  0  0  0  0
  6  7  1  0  0  0  0
  6 30  1  0  0  0  0
  7  8  2  0  0  0  0
  7  9  1  0  0  0  0
  9 10  1  0  0  0  0
  9 31  1  0  0  0  0
  9 32  1  0  0  0  0
 10 11  1  0  0  0  0
 10 33  1  0  0  0  0
 11 12  2  0  0  0  0
 11 13  1  0  0  0  0
 13 14  1  0  0  0  0
 13 34  1  0  0  0  0
 13 35  1  0  0  0  0
 14 18  1  0  0  0  0
 14 15  1  0  0  0  0
 15 16  2  0  0  0  0
 15 36  1  0  0  0  0
 16 17  1  0  0  0  0
 17 18  2  0  0  0  0
 17 37  1  0  0  0  0
 19 20  1  0  0  0  0
 19 38  1  0  0  0  0
 19 39  1  0  0  0  0
 20 40  1  0  0  0  0
 20 41  1  0  0  0  0
M  END
> <s_m_source_file>
AV-unprocessed.smi

> <i_m_source_file_index>
1440

> <i_lp_mmshare_version>
43012

> <i_f3d_flags>
0

> <s_epik_input>
W0NIM11bQ0BASF0xW0NIMl1bQ0gyXVtDQEhdKFtDSDJdW0NIMl0xKVtOSF1DKD1PKVtDSDJdW05IXUMoPU8pW0NIMl1uMltjSF1uW2NIXW4y

> <s_epik_cmdline>
J2VwaWtfcHl0aG9uJywgJy1waCcsICc3LjAnLCAnLXRuJywgJzgnLCAnLW1hJywgJzIwMCcsICctbWV0YWxfYmluZGluZycsICctaW1hZScsICc8aW5maWxlLm1hZT4nLCAnLW9tYWUnLCAnPG91dGZpbGUubWFlPic=

> <r_lp_tautomer_probability>
1

> <r_epik_Ionization_Penalty>
7.34071e-06

> <r_epik_Ionization_Penalty_Charging>
0

> <r_epik_Ionization_Penalty_Neutral>
7.34071e-06

> <r_epik_State_Penalty>
-0

> <r_epik_Charging_Adjusted_Penalty>
0

> <i_epik_Tot_Q>
0

> <i_epik_Tot_abs_Q>
0

> <r_epik_Metal_State_Penalty>
-0

> <b_epik_Metal_Only>
0

> <s_lp_Force_Field>
OPLS_2005

> <r_lp_Energy>
6.43363

> <b_lp_Chiralities_Consistent>
1

> <s_lp_Variant>
AV-unprocessed.smi:1440-2

> <Gold.Version>
5.8.1

> <Gold.Id.Protein>
6NUR|6NUR_protein|mol2

> <Gold.PLP.Fitness>
41.8832

> <Gold.PLP.PLP>
-34.4389

> <Gold.PLP.part.hbond>
-3.0000

> <Gold.PLP.part.metal>
0.0000

> <Gold.PLP.part.buried>
-5.4810

> <Gold.PLP.part.nonpolar>
-25.3230

> <Gold.PLP.part.repulsive>
0.3320

> <Gold.PLP.ligand.clash>
0.0000

> <Gold.PLP.ligand.torsion>
0.4523

> <Gold.PLP.Chemscore.Hbond>
2.7760

> <Gold.PLP.Chemscore.CHOScore>
0.0000

> <Gold.PLP.Chemscore.Metal>
0.0000

> <Gold.Chemscore.Hbonds>
donor molecule, donor type, donor heavy atom, donor atom, acceptor molecule, acceptor atom, score
      P1  H  6896  6909       L1     8  1.00
      P1  H  6931  6943       L1    12  0.90
      P1  H  6934  6947       L1    12  0.86

> <Gold.PLP.Chemscore.Internal.Correction>
0.0210

> <Gold.Rescore>
     Score         DG    S(hbond)    S(metal)    S(lipo)     H(rot)  DE(clash)    DE(int)     intcor
     12.44     -14.26       2.65        0.00      62.11       2.86       0.07       1.76       ----

> <Gold.Chemscore.Fitness>
12.4372

> <Gold.Chemscore.DG>
-14.2598

> <Gold.Chemscore.ZeroCoef>
-5.4800

> <Gold.Chemscore.Hbond>
2.6466

> <Gold.Chemscore.Metal>
0.0000

> <Gold.Chemscore.Lipo>
62.1126

> <Gold.Chemscore.Internal_Hbond>
0.0000

> <Gold.Chemscore.DEClash>
0.0672

> <Gold.Chemscore.DEInternal>
1.7554

> <Gold.Chemscore.Rot>
2.8621

> <Gold.Chemscore.Internal.Correction>
   9.000000E+99

> <Gold.Chemscore.Hbonds>
donor molecule, donor type, donor heavy atom, donor atom, acceptor molecule, acceptor atom, score
      P1  H  6896  6909       L1     8  0.92
      P1  H  6931  6943       L1    12  0.49
      P1  H  6934  6947       L1    12  0.85

> <Gold.Chemscore.Hbond.Weighted>
-8.8395

> <Gold.Chemscore.Metal.Weighted>
-0.0000

> <Gold.Chemscore.Lipo.Weighted>
-7.2672

> <Gold.Chemscore.Internal_Hbond.Weighted>
0.0000

> <Gold.Chemscore.DEClash.Weighted>
0.0672

> <Gold.Chemscore.DEInternal.Weighted>
1.7554

> <Gold.Chemscore.Rot.Weighted>
7.3270

> <Gold.Chemscore.Internal.Correction.Weighted>
   9.000000E+99

> <Gold.Protein.RotatedTorsions>
[ 6907 6896 6895 6894 ] final   89.30 input  -60.11 | X-H torsion
[ 7974 7965 7964 7962 ] final  -40.02 input  175.53 | X-H torsion
[ 8008 7997 7996 7995 ] final  168.28 input   59.86 | X-H torsion
[ 10167 10162 10161 10158 ] final -105.54 input  -65.29 | X-H torsion
[ 10718 10713 10712 10709 ] final -108.31 input   66.30 | X-H torsion
[ 10763 10752 10751 10750 ] final -175.23 input  -60.55 | X-H torsion
[ 11005 11000 10999 10996 ] final   77.16 input  -57.11 | X-H torsion

> <Gold.Protein.ActiveResidues>
 VAL166  LYS551  ARG553  GLY616  TRP617  ASP618  TYR619  PRO620  LYS621  CYS622 
 ASP623  PHE694  ASN695  SER759  ASP760  ASP761  ALA762  ILE779  LEU786  VAL792 
 PHE793  MET794  SER795  GLU796  ALA797  LYS798  CYS799  TRP800  GLU811  SER814 

> <Gold.Protein.RotatedAtoms>
  152.5435  134.1988  159.8703 H   0  0  0  0  0  0  0  0  0  0  0  0  # atno 6907 bound_to 6896
  151.1978  133.4622  159.2603 H   0  0  0  0  0  0  0  0  0  0  0  0  # atno 6908 bound_to 6896
  151.1019  134.9989  159.8508 H   0  0  0  0  0  0  0  0  0  0  0  0  # atno 6909 bound_to 6896
  146.0343  140.6692  142.9118 H   0  0  0  0  0  0  0  0  0  0  0  0  # atno 7974 bound_to 7965
  156.1561  140.1594  156.8691 H   0  0  0  0  0  0  0  0  0  0  0  0  # atno 8008 bound_to 7997
  154.5116  140.0799  156.8036 H   0  0  0  0  0  0  0  0  0  0  0  0  # atno 8009 bound_to 7997
  155.3801  140.3404  155.4249 H   0  0  0  0  0  0  0  0  0  0  0  0  # atno 8010 bound_to 7997
  140.1974  143.3845  152.1157 H   0  0  0  0  0  0  0  0  0  0  0  0  # atno 10167 bound_to 10162
  156.0479  130.5706  150.7943 H   0  0  0  0  0  0  0  0  0  0  0  0  # atno 10718 bound_to 10713
  154.5868  135.2841  155.0676 H   0  0  0  0  0  0  0  0  0  0  0  0  # atno 10763 bound_to 10752
  154.1992  135.6427  153.5086 H   0  0  0  0  0  0  0  0  0  0  0  0  # atno 10764 bound_to 10752
  153.0107  135.5465  154.6541 H   0  0  0  0  0  0  0  0  0  0  0  0  # atno 10765 bound_to 10752
  139.9266  134.7660  156.1487 H   0  0  0  0  0  0  0  0  0  0  0  0  # atno 11005 bound_to 11000
  144.7044  140.3791  143.7130 LP  0  0  0  0  0  0  0  0  0  0  0  0  # atno 17320 bound_to 7965
  145.6990  139.1657  143.2603 LP  0  0  0  0  0  0  0  0  0  0  0  0  # atno 17321 bound_to 7965
  139.5231  144.7067  151.5332 LP  0  0  0  0  0  0  0  0  0  0  0  0  # atno 17342 bound_to 10162
  140.6414  143.8881  150.6695 LP  0  0  0  0  0  0  0  0  0  0  0  0  # atno 17343 bound_to 10162
  157.5374  131.0939  150.9873 LP  0  0  0  0  0  0  0  0  0  0  0  0  # atno 17370 bound_to 10713
  157.0164  130.5657  149.5326 LP  0  0  0  0  0  0  0  0  0  0  0  0  # atno 17371 bound_to 10713
  141.0828  133.6747  156.2373 LP  0  0  0  0  0  0  0  0  0  0  0  0  # atno 17394 bound_to 11000
  140.6318  134.5256  157.5560 LP  0  0  0  0  0  0  0  0  0  0  0  0  # atno 17395 bound_to 11000

$$$$
