AV-unprocessed.smi:3237|AV-procd|sdf|12367|dock9
  -GOLD-   2272018223D 1   1.00000     0.00000
 Structure written by MMmdl.
 36 38  0  0  0  0  0  0  0  0  3 V2000
  146.9932  136.1646  162.9335 C   0  0  0  0  0  0  0  0  0  0  0  0
  147.6129  136.0500  161.5827 C   0  0  0  0  0  0  0  0  0  0  0  0
  148.0130  134.9800  160.8339 C   0  0  0  0  0  0  0  0  0  0  0  0
  148.5107  135.5824  159.6463 C   0  0  0  0  0  0  0  0  0  0  0  0
  149.0333  134.9338  158.5941 N   0  5  0  0  0  0  0  0  0  0  0  0
  148.9207  135.4544  157.3513 C   0  0  0  0  0  0  0  0  0  0  0  0
  149.4613  136.4816  156.9351 O   0  0  0  0  0  0  0  0  0  0  0  0
  148.1280  134.7422  156.5384 N   0  0  0  0  0  0  0  0  0  0  0  0
  147.8242  135.0746  155.1511 C   0  0  2  0  0  0  0  0  0  0  0  0
  146.3305  135.2156  154.8463 C   0  0  0  0  0  0  0  0  0  0  0  0
  146.1994  134.8067  153.3702 C   0  0  0  0  0  0  0  0  0  0  0  0
  147.5112  134.2534  152.9596 N   0  3  2  0  0  0  0  0  0  0  0  0
  147.4244  133.1121  152.0247 C   0  0  0  0  0  0  0  0  0  0  0  0
  146.3386  133.2626  150.9861 C   0  0  0  0  0  0  0  0  0  0  0  0
  146.1445  132.3217  152.1557 C   0  0  0  0  0  0  0  0  0  0  0  0
  148.2549  133.9650  154.1981 C   0  0  0  0  0  0  0  0  0  0  0  0
  148.4346  136.9024  159.6784 N   0  0  0  0  0  0  0  0  0  0  0  0
  147.8523  137.2101  160.9139 O   0  0  0  0  0  0  0  0  0  0  0  0
  147.5111  135.5274  163.6504 H   0  0  0  0  0  0  0  0  0  0  0  0
  145.9472  135.8597  162.9042 H   0  0  0  0  0  0  0  0  0  0  0  0
  147.0372  137.1899  163.3009 H   0  0  0  0  0  0  0  0  0  0  0  0
  147.9560  133.9331  161.0916 H   0  0  0  0  0  0  0  0  0  0  0  0
  147.7060  133.9072  156.9178 H   0  0  0  0  0  0  0  0  0  0  0  0
  148.3405  135.9956  154.8731 H   0  0  0  0  0  0  0  0  0  0  0  0
  145.7495  134.5316  155.4671 H   0  0  0  0  0  0  0  0  0  0  0  0
  145.9639  136.2251  155.0351 H   0  0  0  0  0  0  0  0  0  0  0  0
  145.4025  134.0706  153.2544 H   0  0  0  0  0  0  0  0  0  0  0  0
  145.9565  135.6610  152.7377 H   0  0  0  0  0  0  0  0  0  0  0  0
  148.3594  132.6106  151.7809 H   0  0  0  0  0  0  0  0  0  0  0  0
  145.7569  134.1827  150.9788 H   0  0  0  0  0  0  0  0  0  0  0  0
  146.5123  132.8146  150.0098 H   0  0  0  0  0  0  0  0  0  0  0  0
  146.1911  131.2541  151.9503 H   0  0  0  0  0  0  0  0  0  0  0  0
  145.4334  132.6160  152.9257 H   0  0  0  0  0  0  0  0  0  0  0  0
  149.3318  133.9536  154.0267 H   0  0  0  0  0  0  0  0  0  0  0  0
  147.9600  132.9884  154.5876 H   0  0  0  0  0  0  0  0  0  0  0  0
  148.0069  135.0013  152.4959 H   0  0  0  0  0  0  0  0  0  0  0  0
  1  2  1  0  0  0  0
  1 19  1  0  0  0  0
  1 20  1  0  0  0  0
  1 21  1  0  0  0  0
  2 18  1  0  0  0  0
  2  3  2  0  0  0  0
  3  4  1  0  0  0  0
  3 22  1  0  0  0  0
  4  5  1  0  0  0  0
  4 17  2  0  0  0  0
  5  6  1  0  0  0  0
  6  7  2  0  0  0  0
  6  8  1  0  0  0  0
  8  9  1  0  0  0  0
  8 23  1  0  0  0  0
  9 16  1  0  0  0  0
  9 10  1  0  0  0  0
  9 24  1  0  0  0  0
 10 11  1  0  0  0  0
 10 25  1  0  0  0  0
 10 26  1  0  0  0  0
 11 12  1  0  0  0  0
 11 27  1  0  0  0  0
 11 28  1  0  0  0  0
 12 13  1  0  0  0  0
 12 16  1  0  0  0  0
 12 36  1  0  0  0  0
 13 15  1  0  0  0  0
 13 14  1  0  0  0  0
 13 29  1  0  0  0  0
 14 15  1  0  0  0  0
 14 30  1  0  0  0  0
 14 31  1  0  0  0  0
 15 32  1  0  0  0  0
 15 33  1  0  0  0  0
 16 34  1  0  0  0  0
 16 35  1  0  0  0  0
 17 18  1  0  0  0  0
M  CHG  1   5  -1
M  CHG  1  12   1
M  END
> <s_m_source_file>
AV-unprocessed.smi

> <i_m_source_file_index>
3237

> <i_lp_mmshare_version>
43012

> <i_f3d_flags>
0

> <s_epik_input>
W0NIM11jMVtjSF1jKG5vMSlbTkhdQyg9TylbTkhdW0NAQEhdMltDSDJdW0NIMl1OKFtDSDJdMilbQ0hdM1tDSDJdW0NIMl0z

> <s_epik_cmdline>
J2VwaWtfcHl0aG9uJywgJy1waCcsICc3LjAnLCAnLXRuJywgJzgnLCAnLW1hJywgJzIwMCcsICctbWV0YWxfYmluZGluZycsICctaW1hZScsICc8aW5maWxlLm1hZT4nLCAnLW9tYWUnLCAnPG91dGZpbGUubWFlPic=

> <r_epik_Ionization_Penalty>
6.08472

> <r_epik_Ionization_Penalty_Charging>
6.08464

> <r_epik_Ionization_Penalty_Neutral>
8.41751e-05

> <r_epik_State_Penalty>
6.08438

> <r_epik_Charging_Adjusted_Penalty>
12.169

> <i_epik_Tot_Q>
0

> <i_epik_Tot_abs_Q>
2

> <r_epik_Metal_State_Penalty>
2.0369

> <b_epik_Metal_Only>
1

> <s_lp_Force_Field>
OPLS_2005

> <r_lp_Energy>
23.7168

> <b_lp_Chiralities_Consistent>
1

> <s_lp_Variant>
AV-unprocessed.smi:3237-5

> <Gold.Version>
5.8.1

> <Gold.Id.Protein>
6NUR|6NUR_protein|mol2

> <Gold.PLP.Fitness>
39.1519

> <Gold.PLP.PLP>
-23.7496

> <Gold.PLP.part.hbond>
-4.0000

> <Gold.PLP.part.metal>
0.0000

> <Gold.PLP.part.buried>
-2.2459

> <Gold.PLP.part.nonpolar>
-17.6973

> <Gold.PLP.part.repulsive>
0.0038

> <Gold.PLP.ligand.clash>
0.0000

> <Gold.PLP.ligand.torsion>
1.4780

> <Gold.PLP.Chemscore.Hbond>
5.6960

> <Gold.PLP.Chemscore.CHOScore>
0.0000

> <Gold.PLP.Chemscore.Metal>
0.0000

> <Gold.Chemscore.Hbonds>
donor molecule, donor type, donor heavy atom, donor atom, acceptor molecule, acceptor atom, score
      L1  H    12    36       P1  7948  2.00
      P1  H  6896  6908       L1     5  2.00
      P1  H  6931  6943       L1    18  0.88
      P1  H  6934  6947       L1    18  0.82

> <Gold.PLP.Chemscore.Internal.Correction>
1.2703

> <Gold.Rescore>
     Score         DG    S(hbond)    S(metal)    S(lipo)     H(rot)  DE(clash)    DE(int)     intcor
     14.08     -16.78       2.51        0.00      52.12       1.25       0.06       2.64       ----

> <Gold.Chemscore.Fitness>
14.0777

> <Gold.Chemscore.DG>
-16.7840

> <Gold.Chemscore.ZeroCoef>
-5.4800

> <Gold.Chemscore.Hbond>
2.5142

> <Gold.Chemscore.Metal>
0.0000

> <Gold.Chemscore.Lipo>
52.1161

> <Gold.Chemscore.Internal_Hbond>
0.0000

> <Gold.Chemscore.DEClash>
0.0621

> <Gold.Chemscore.DEInternal>
2.6441

> <Gold.Chemscore.Rot>
1.2464

> <Gold.Chemscore.Internal.Correction>
   9.000000E+99

> <Gold.Chemscore.Hbonds>
donor molecule, donor type, donor heavy atom, donor atom, acceptor molecule, acceptor atom, score
      L1  H    12    36       P1  7948  0.85
      P1  H  6896  6908       L1     5  0.37
      P1  H  6931  6943       L1    18  0.45
      P1  H  6934  6947       L1    18  0.64

> <Gold.Chemscore.Hbond.Weighted>
-8.3973

> <Gold.Chemscore.Metal.Weighted>
-0.0000

> <Gold.Chemscore.Lipo.Weighted>
-6.0976

> <Gold.Chemscore.Internal_Hbond.Weighted>
0.0000

> <Gold.Chemscore.DEClash.Weighted>
0.0621

> <Gold.Chemscore.DEInternal.Weighted>
2.6441

> <Gold.Chemscore.Rot.Weighted>
3.1909

> <Gold.Chemscore.Internal.Correction.Weighted>
   9.000000E+99

> <Gold.Protein.RotatedTorsions>
[ 6907 6896 6895 6894 ] final  137.89 input  -60.11 | X-H torsion
[ 7974 7965 7964 7962 ] final  -54.55 input  175.53 | X-H torsion
[ 8008 7997 7996 7995 ] final   94.82 input   59.86 | X-H torsion
[ 10167 10162 10161 10158 ] final -139.70 input  -65.29 | X-H torsion
[ 10718 10713 10712 10709 ] final -157.82 input   66.30 | X-H torsion
[ 10763 10752 10751 10750 ] final  -20.14 input  -60.55 | X-H torsion
[ 11005 11000 10999 10996 ] final -171.88 input  -57.11 | X-H torsion

> <Gold.Protein.ActiveResidues>
 VAL166  LYS551  ARG553  GLY616  TRP617  ASP618  TYR619  PRO620  LYS621  CYS622 
 ASP623  PHE694  ASN695  SER759  ASP760  ASP761  ALA762  ILE779  LEU786  VAL792 
 PHE793  MET794  SER795  GLU796  ALA797  LYS798  CYS799  TRP800  GLU811  SER814 

> <Gold.Protein.RotatedAtoms>
  152.2729  133.5399  159.5449 H   0  0  0  0  0  0  0  0  0  0  0  0  # atno 6907 bound_to 6896
  150.7166  134.0673  159.3861 H   0  0  0  0  0  0  0  0  0  0  0  0  # atno 6908 bound_to 6896
  151.8587  135.0532  160.0518 H   0  0  0  0  0  0  0  0  0  0  0  0  # atno 6909 bound_to 6896
  145.8843  140.8120  142.9824 H   0  0  0  0  0  0  0  0  0  0  0  0  # atno 7974 bound_to 7965
  156.0621  140.3295  155.7474 H   0  0  0  0  0  0  0  0  0  0  0  0  # atno 8008 bound_to 7997
  155.5439  140.0604  157.2882 H   0  0  0  0  0  0  0  0  0  0  0  0  # atno 8009 bound_to 7997
  154.4486  140.1906  156.0606 H   0  0  0  0  0  0  0  0  0  0  0  0  # atno 8010 bound_to 7997
  139.8353  143.7392  152.2665 H   0  0  0  0  0  0  0  0  0  0  0  0  # atno 10167 bound_to 10162
  156.5455  130.8582  151.2763 H   0  0  0  0  0  0  0  0  0  0  0  0  # atno 10718 bound_to 10713
  153.6157  135.6994  153.5329 H   0  0  0  0  0  0  0  0  0  0  0  0  # atno 10763 bound_to 10752
  153.2979  135.4137  155.1226 H   0  0  0  0  0  0  0  0  0  0  0  0  # atno 10764 bound_to 10752
  154.8554  135.3641  154.5697 H   0  0  0  0  0  0  0  0  0  0  0  0  # atno 10765 bound_to 10752
  140.5033  134.5872  157.4995 H   0  0  0  0  0  0  0  0  0  0  0  0  # atno 11005 bound_to 11000
  144.6728  140.1431  143.7435 LP  0  0  0  0  0  0  0  0  0  0  0  0  # atno 17320 bound_to 7965
  145.8986  139.2417  143.1507 LP  0  0  0  0  0  0  0  0  0  0  0  0  # atno 17321 bound_to 7965
  139.7613  144.7505  151.0360 LP  0  0  0  0  0  0  0  0  0  0  0  0  # atno 17342 bound_to 10162
  140.7803  143.4748  151.0097 LP  0  0  0  0  0  0  0  0  0  0  0  0  # atno 17343 bound_to 10162
  157.7397  130.9837  150.2332 LP  0  0  0  0  0  0  0  0  0  0  0  0  # atno 17370 bound_to 10713
  156.2932  130.3748  149.7821 LP  0  0  0  0  0  0  0  0  0  0  0  0  # atno 17371 bound_to 10713
  139.9701  134.7308  156.0059 LP  0  0  0  0  0  0  0  0  0  0  0  0  # atno 17394 bound_to 11000
  141.1424  133.6562  156.3768 LP  0  0  0  0  0  0  0  0  0  0  0  0  # atno 17395 bound_to 11000

$$$$
