AV-unprocessed.smi:415|AV-procd|sdf|2519|dock10
  -GOLD-   2262022473D 1   1.00000     0.00000
 Structure written by MMmdl.
 53 54  0  0  0  0  0  0  0  0  1 V2000
  143.5717  145.6417  154.4038 C   0  0  0  0  0  0  0  0  0  0  0  0
  143.5194  145.1560  155.7338 O   0  0  0  0  0  0  0  0  0  0  0  0
  144.5758  144.2575  156.0266 C   0  0  0  0  0  0  0  0  0  0  0  0
  144.2669  142.9025  155.3732 C   0  0  0  0  0  0  0  0  0  0  0  0
  145.3187  141.9272  155.5850 N   0  0  0  0  0  0  0  0  0  0  0  0
  145.1728  140.8177  156.4128 C   0  0  0  0  0  0  0  0  0  0  0  0
  143.9696  140.6007  157.0599 N   0  0  0  0  0  0  0  0  0  0  0  0
  146.1796  139.9336  156.5897 C   0  0  0  0  0  0  0  0  0  0  0  0
  147.4649  140.0888  155.9236 C   0  0  0  0  0  0  0  0  0  0  0  0
  148.4028  139.3087  156.0917 O   0  0  0  0  0  0  0  0  0  0  0  0
  147.5805  141.2048  155.0629 N   0  0  0  0  0  0  0  0  0  0  0  0
  148.8681  141.4236  154.3663 C   0  0  0  0  0  0  0  0  0  0  0  0
  150.0780  141.4409  155.3134 C   0  0  0  0  0  0  0  0  0  0  0  0
  150.9521  140.5758  155.2426 O   0  0  0  0  0  0  0  0  0  0  0  0
  150.1018  142.4373  156.2114 N   0  0  0  0  0  0  0  0  0  0  0  0
  151.1418  142.6483  157.2160 C   0  0  1  0  0  0  0  0  0  0  0  0
  150.6397  143.6361  158.2869 C   0  0  0  0  0  0  0  0  0  0  0  0
  151.7191  143.9066  159.3456 C   0  0  0  0  0  0  0  0  0  0  0  0
  152.2303  142.6024  159.9774 C   0  0  0  0  0  0  0  0  0  0  0  0
  152.7277  141.6129  158.9039 C   0  0  1  0  0  0  0  0  0  0  0  0
  153.3388  140.3486  159.5308 C   0  0  0  0  0  0  0  0  0  0  0  0
  151.6297  141.3152  157.8476 C   0  0  1  0  0  0  0  0  0  0  0  0
  150.4742  140.4399  158.3871 C   0  0  0  0  0  0  0  0  0  0  0  0
  146.5277  142.1289  154.8707 C   0  0  0  0  0  0  0  0  0  0  0  0
  146.6695  143.0841  154.1021 O   0  0  0  0  0  0  0  0  0  0  0  0
  142.7401  146.3248  154.2309 H   0  0  0  0  0  0  0  0  0  0  0  0
  143.4929  144.8275  153.6824 H   0  0  0  0  0  0  0  0  0  0  0  0
  144.4986  146.1859  154.2183 H   0  0  0  0  0  0  0  0  0  0  0  0
  145.5169  144.6535  155.6417 H   0  0  0  0  0  0  0  0  0  0  0  0
  144.6817  144.1444  157.1067 H   0  0  0  0  0  0  0  0  0  0  0  0
  143.3264  142.4773  155.7277 H   0  0  0  0  0  0  0  0  0  0  0  0
  144.1403  143.0035  154.2957 H   0  0  0  0  0  0  0  0  0  0  0  0
  143.1846  141.2267  156.9510 H   0  0  0  0  0  0  0  0  0  0  0  0
  143.8168  139.7897  157.6421 H   0  0  0  0  0  0  0  0  0  0  0  0
  146.0366  139.0839  157.2420 H   0  0  0  0  0  0  0  0  0  0  0  0
  149.0264  140.6588  153.6040 H   0  0  0  0  0  0  0  0  0  0  0  0
  148.8650  142.3576  153.8029 H   0  0  0  0  0  0  0  0  0  0  0  0
  149.3410  143.1007  156.2012 H   0  0  0  0  0  0  0  0  0  0  0  0
  151.9930  143.1211  156.7212 H   0  0  0  0  0  0  0  0  0  0  0  0
  150.3504  144.5773  157.8179 H   0  0  0  0  0  0  0  0  0  0  0  0
  149.7422  143.2477  158.7696 H   0  0  0  0  0  0  0  0  0  0  0  0
  152.5531  144.4377  158.8852 H   0  0  0  0  0  0  0  0  0  0  0  0
  151.3246  144.5653  160.1196 H   0  0  0  0  0  0  0  0  0  0  0  0
  153.0386  142.8329  160.6724 H   0  0  0  0  0  0  0  0  0  0  0  0
  151.4388  142.1469  160.5734 H   0  0  0  0  0  0  0  0  0  0  0  0
  153.5435  142.1073  158.3739 H   0  0  0  0  0  0  0  0  0  0  0  0
  152.6260  139.8241  160.1670 H   0  0  0  0  0  0  0  0  0  0  0  0
  154.1995  140.6006  160.1506 H   0  0  0  0  0  0  0  0  0  0  0  0
  153.6801  139.6543  158.7625 H   0  0  0  0  0  0  0  0  0  0  0  0
  152.1030  140.7374  157.0523 H   0  0  0  0  0  0  0  0  0  0  0  0
  149.9423  140.9222  159.2063 H   0  0  0  0  0  0  0  0  0  0  0  0
  150.8355  139.4786  158.7500 H   0  0  0  0  0  0  0  0  0  0  0  0
  149.7442  140.2168  157.6092 H   0  0  0  0  0  0  0  0  0  0  0  0
  1  2  1  0  0  0  0
  1 26  1  0  0  0  0
  1 27  1  0  0  0  0
  1 28  1  0  0  0  0
  2  3  1  0  0  0  0
  3  4  1  0  0  0  0
  3 29  1  0  0  0  0
  3 30  1  0  0  0  0
  4  5  1  0  0  0  0
  4 31  1  0  0  0  0
  4 32  1  0  0  0  0
  5 24  1  0  0  0  0
  5  6  1  0  0  0  0
  6  7  1  0  0  0  0
  6  8  2  0  0  0  0
  7 33  1  0  0  0  0
  7 34  1  0  0  0  0
  8  9  1  0  0  0  0
  8 35  1  0  0  0  0
  9 10  2  0  0  0  0
  9 11  1  0  0  0  0
 11 12  1  0  0  0  0
 11 24  1  0  0  0  0
 12 13  1  0  0  0  0
 12 36  1  0  0  0  0
 12 37  1  0  0  0  0
 13 14  2  0  0  0  0
 13 15  1  0  0  0  0
 15 16  1  0  0  0  0
 15 38  1  0  0  0  0
 16 22  1  0  0  0  0
 16 17  1  0  0  0  0
 16 39  1  0  0  0  0
 17 18  1  0  0  0  0
 17 40  1  0  0  0  0
 17 41  1  0  0  0  0
 18 19  1  0  0  0  0
 18 42  1  0  0  0  0
 18 43  1  0  0  0  0
 19 20  1  0  0  0  0
 19 44  1  0  0  0  0
 19 45  1  0  0  0  0
 20 21  1  0  0  0  0
 20 22  1  0  0  0  0
 20 46  1  0  0  0  0
 21 47  1  0  0  0  0
 21 48  1  0  0  0  0
 21 49  1  0  0  0  0
 22 23  1  0  0  0  0
 22 50  1  0  0  0  0
 23 51  1  0  0  0  0
 23 52  1  0  0  0  0
 23 53  1  0  0  0  0
 24 25  2  0  0  0  0
M  END
> <s_m_source_file>
AV-unprocessed.smi

> <i_m_source_file_index>
415

> <i_lp_mmshare_version>
43012

> <i_f3d_flags>
0

> <s_epik_input>
W0NIM11PW0NIMl1bQ0gyXW4xYyhbTkgyXSlbY0hdYyg9TyluKGMxPU8pW0NIMl1DKD1PKVtOSF1bQ0BASF0yW0NIMl1bQ0gyXVtDSDJdW0NAQEhdKFtDSDNdKVtDQEhdMltDSDNd

> <s_epik_cmdline>
J2VwaWtfcHl0aG9uJywgJy1waCcsICc3LjAnLCAnLXRuJywgJzgnLCAnLW1hJywgJzIwMCcsICctbWV0YWxfYmluZGluZycsICctaW1hZScsICc8aW5maWxlLm1hZT4nLCAnLW9tYWUnLCAnPG91dGZpbGUubWFlPic=

> <r_lp_tautomer_probability>
1

> <r_epik_Ionization_Penalty>
8.6647e-06

> <r_epik_Ionization_Penalty_Charging>
1.81162e-08

> <r_epik_Ionization_Penalty_Neutral>
8.64658e-06

> <r_epik_State_Penalty>
-0

> <r_epik_Charging_Adjusted_Penalty>
1.81162e-08

> <i_epik_Tot_Q>
0

> <i_epik_Tot_abs_Q>
0

> <r_epik_Metal_State_Penalty>
-0

> <b_epik_Metal_Only>
0

> <s_lp_Force_Field>
OPLS_2005

> <r_lp_Energy>
22.062

> <b_lp_Chiralities_Consistent>
1

> <s_lp_Variant>
AV-unprocessed.smi:415-2

> <Gold.Version>
5.8.1

> <Gold.Id.Protein>
6NUR|6NUR_protein|mol2

> <Gold.PLP.Fitness>
44.8974

> <Gold.PLP.PLP>
-40.0334

> <Gold.PLP.part.hbond>
-3.0000

> <Gold.PLP.part.metal>
0.0000

> <Gold.PLP.part.buried>
-4.0929

> <Gold.PLP.part.nonpolar>
-32.4493

> <Gold.PLP.part.repulsive>
1.0104

> <Gold.PLP.ligand.clash>
0.0000

> <Gold.PLP.ligand.torsion>
0.4766

> <Gold.PLP.Chemscore.Hbond>
1.9247

> <Gold.PLP.Chemscore.CHOScore>
0.0000

> <Gold.PLP.Chemscore.Metal>
0.0000

> <Gold.Chemscore.Hbonds>
donor molecule, donor type, donor heavy atom, donor atom, acceptor molecule, acceptor atom, score
      L1  H    15    38       P1  8028  0.86
      P1  H  7989  7998       L1    14  0.94

> <Gold.PLP.Chemscore.Internal.Correction>
0.0433

> <Gold.Rescore>
     Score         DG    S(hbond)    S(metal)    S(lipo)     H(rot)  DE(clash)    DE(int)     intcor
     11.21     -14.51       1.36        0.00      87.88       2.26       0.42       2.88       ----

> <Gold.Chemscore.Fitness>
11.2096

> <Gold.Chemscore.DG>
-14.5133

> <Gold.Chemscore.ZeroCoef>
-5.4800

> <Gold.Chemscore.Hbond>
1.3620

> <Gold.Chemscore.Metal>
0.0000

> <Gold.Chemscore.Lipo>
87.8750

> <Gold.Chemscore.Internal_Hbond>
0.0000

> <Gold.Chemscore.DEClash>
0.4198

> <Gold.Chemscore.DEInternal>
2.8838

> <Gold.Chemscore.Rot>
2.2645

> <Gold.Chemscore.Internal.Correction>
   9.000000E+99

> <Gold.Chemscore.Hbonds>
donor molecule, donor type, donor heavy atom, donor atom, acceptor molecule, acceptor atom, score
      L1  H    15    38       P1  8028  0.85
      P1  H  7989  7998       L1    14  0.27

> <Gold.Chemscore.Hbond.Weighted>
-4.5490

> <Gold.Chemscore.Metal.Weighted>
-0.0000

> <Gold.Chemscore.Lipo.Weighted>
-10.2814

> <Gold.Chemscore.Internal_Hbond.Weighted>
0.0000

> <Gold.Chemscore.DEClash.Weighted>
0.4198

> <Gold.Chemscore.DEInternal.Weighted>
2.8838

> <Gold.Chemscore.Rot.Weighted>
5.7972

> <Gold.Chemscore.Internal.Correction.Weighted>
   9.000000E+99

> <Gold.Protein.RotatedTorsions>
[ 6907 6896 6895 6894 ] final  -36.48 input  -60.11 | X-H torsion
[ 7974 7965 7964 7962 ] final -158.24 input  175.53 | X-H torsion
[ 8008 7997 7996 7995 ] final   68.29 input   59.86 | X-H torsion
[ 10167 10162 10161 10158 ] final -175.18 input  -65.29 | X-H torsion
[ 10718 10713 10712 10709 ] final  -60.59 input   66.30 | X-H torsion
[ 10763 10752 10751 10750 ] final  -16.84 input  -60.55 | X-H torsion
[ 11005 11000 10999 10996 ] final   76.46 input  -57.11 | X-H torsion

> <Gold.Protein.ActiveResidues>
 VAL166  LYS551  ARG553  GLY616  TRP617  ASP618  TYR619  PRO620  LYS621  CYS622 
 ASP623  PHE694  ASN695  SER759  ASP760  ASP761  ALA762  ILE779  LEU786  VAL792 
 PHE793  MET794  SER795  GLU796  ALA797  LYS798  CYS799  TRP800  GLU811  SER814 

> <Gold.Protein.RotatedAtoms>
  151.0267  134.9509  159.8088 H   0  0  0  0  0  0  0  0  0  0  0  0  # atno 6907 bound_to 6896
  152.5337  134.2833  159.9026 H   0  0  0  0  0  0  0  0  0  0  0  0  # atno 6908 bound_to 6896
  151.2842  133.4153  159.2663 H   0  0  0  0  0  0  0  0  0  0  0  0  # atno 6909 bound_to 6896
  144.7514  140.3855  143.6045 H   0  0  0  0  0  0  0  0  0  0  0  0  # atno 7974 bound_to 7965
  155.7060  140.3495  155.4953 H   0  0  0  0  0  0  0  0  0  0  0  0  # atno 8008 bound_to 7997
  155.9398  140.1099  157.1086 H   0  0  0  0  0  0  0  0  0  0  0  0  # atno 8009 bound_to 7997
  154.4100  140.1215  156.4899 H   0  0  0  0  0  0  0  0  0  0  0  0  # atno 8010 bound_to 7997
  139.5594  144.1907  152.1214 H   0  0  0  0  0  0  0  0  0  0  0  0  # atno 10167 bound_to 10162
  156.0980  130.4190  150.0875 H   0  0  0  0  0  0  0  0  0  0  0  0  # atno 10718 bound_to 10713
  153.5647  135.7009  153.5531 H   0  0  0  0  0  0  0  0  0  0  0  0  # atno 10763 bound_to 10752
  153.3398  135.4024  155.1562 H   0  0  0  0  0  0  0  0  0  0  0  0  # atno 10764 bound_to 10752
  154.8642  135.3739  154.5166 H   0  0  0  0  0  0  0  0  0  0  0  0  # atno 10765 bound_to 10752
  139.9297  134.7603  156.1399 H   0  0  0  0  0  0  0  0  0  0  0  0  # atno 11005 bound_to 11000
  145.6932  139.1644  143.2635 LP  0  0  0  0  0  0  0  0  0  0  0  0  # atno 17320 bound_to 7965
  146.1468  140.6981  142.9341 LP  0  0  0  0  0  0  0  0  0  0  0  0  # atno 17321 bound_to 7965
  140.1417  144.5195  150.6740 LP  0  0  0  0  0  0  0  0  0  0  0  0  # atno 17342 bound_to 10162
  140.6872  143.2356  151.5229 LP  0  0  0  0  0  0  0  0  0  0  0  0  # atno 17343 bound_to 10162
  156.8870  130.9575  151.3593 LP  0  0  0  0  0  0  0  0  0  0  0  0  # atno 17370 bound_to 10713
  157.6145  130.8608  149.9005 LP  0  0  0  0  0  0  0  0  0  0  0  0  # atno 17371 bound_to 10713
  141.0878  133.6727  156.2474 LP  0  0  0  0  0  0  0  0  0  0  0  0  # atno 17394 bound_to 11000
  140.6236  134.5336  157.5551 LP  0  0  0  0  0  0  0  0  0  0  0  0  # atno 17395 bound_to 11000

$$$$
