AV-unprocessed.smi:12|AV-procd|sdf|67|dock2
  -GOLD-   2262015183D 1   1.00000     0.00000
 Structure written by MMmdl.
 41 44  0  0  0  0  0  0  0  0  1 V2000
  152.2623  141.5280  159.7205 C   0  0  0  0  0  0  0  0  0  0  0  0
  151.7530  141.1750  158.3347 C   0  0  0  0  0  0  0  0  0  0  0  0
  150.7217  141.8412  157.7636 C   0  0  0  0  0  0  0  0  0  0  0  0
  150.2983  141.4792  156.5154 N   0  0  0  0  0  0  0  0  0  0  0  0
  150.9456  140.4280  155.8354 C   0  0  0  0  0  0  0  0  0  0  0  0
  151.9369  139.7414  156.3122 N   0  0  0  0  0  0  0  0  0  0  0  0
  152.4097  140.0657  157.5983 C   0  0  0  0  0  0  0  0  0  0  0  0
  153.3469  139.4421  158.0946 O   0  0  0  0  0  0  0  0  0  0  0  0
  150.3618  140.2727  154.6168 O   0  0  0  0  0  0  0  0  0  0  0  0
  149.3468  141.2723  154.4174 C   0  0  1  0  0  0  0  0  0  0  0  0
  147.9566  140.6667  154.2790 C   0  0  1  0  0  0  0  0  0  0  0  0
  147.9644  139.4886  153.4979 O   0  0  0  0  0  0  0  0  0  0  0  0
  147.5229  140.4788  155.7325 C   0  0  2  0  0  0  0  0  0  0  0  0
  146.0071  140.3618  155.9370 C   0  0  0  0  0  0  0  0  0  0  0  0
  145.3651  141.4958  155.3765 O   0  0  0  0  0  0  0  0  0  0  0  0
  144.8849  142.4662  156.1780 C   0  0  0  0  0  0  0  0  0  0  0  0
  144.7792  142.3511  157.4007 O   0  0  0  0  0  0  0  0  0  0  0  0
  144.4946  143.6959  155.4291 C   0  0  0  0  0  0  0  0  0  0  0  0
  144.9589  143.8774  154.1051 C   0  0  0  0  0  0  0  0  0  0  0  0
  144.6070  145.0279  153.3728 C   0  0  0  0  0  0  0  0  0  0  0  0
  143.7860  146.0107  153.9553 C   0  0  0  0  0  0  0  0  0  0  0  0
  143.3173  145.8420  155.2711 C   0  0  0  0  0  0  0  0  0  0  0  0
  143.6683  144.6924  156.0055 C   0  0  0  0  0  0  0  0  0  0  0  0
  147.9936  141.6870  156.3233 O   0  0  0  0  0  0  0  0  0  0  0  0
  149.2062  142.0665  155.7352 C   0  0  1  0  0  0  0  0  0  0  0  0
  151.7001  142.3572  160.1511 H   0  0  0  0  0  0  0  0  0  0  0  0
  153.3123  141.8188  159.6785 H   0  0  0  0  0  0  0  0  0  0  0  0
  152.1676  140.6722  160.3898 H   0  0  0  0  0  0  0  0  0  0  0  0
  150.2259  142.6498  158.2808 H   0  0  0  0  0  0  0  0  0  0  0  0
  149.6097  141.9314  153.5892 H   0  0  0  0  0  0  0  0  0  0  0  0
  147.2997  141.3944  153.8001 H   0  0  0  0  0  0  0  0  0  0  0  0
  148.2536  139.7085  152.6253 H   0  0  0  0  0  0  0  0  0  0  0  0
  148.0403  139.6341  156.1911 H   0  0  0  0  0  0  0  0  0  0  0  0
  145.6358  139.4609  155.4467 H   0  0  0  0  0  0  0  0  0  0  0  0
  145.7719  140.2782  156.9989 H   0  0  0  0  0  0  0  0  0  0  0  0
  145.5905  143.1365  153.6366 H   0  0  0  0  0  0  0  0  0  0  0  0
  144.9680  145.1559  152.3630 H   0  0  0  0  0  0  0  0  0  0  0  0
  143.5162  146.8927  153.3932 H   0  0  0  0  0  0  0  0  0  0  0  0
  142.6870  146.5960  155.7191 H   0  0  0  0  0  0  0  0  0  0  0  0
  143.2908  144.5951  157.0131 H   0  0  0  0  0  0  0  0  0  0  0  0
  149.3983  143.1388  155.6897 H   0  0  0  0  0  0  0  0  0  0  0  0
  1  2  1  0  0  0  0
  1 26  1  0  0  0  0
  1 27  1  0  0  0  0
  1 28  1  0  0  0  0
  2  7  1  0  0  0  0
  2  3  2  0  0  0  0
  3  4  1  0  0  0  0
  3 29  1  0  0  0  0
  4 25  1  0  0  0  0
  4  5  1  0  0  0  0
  5  6  2  0  0  0  0
  5  9  1  0  0  0  0
  6  7  1  0  0  0  0
  7  8  2  0  0  0  0
  9 10  1  0  0  0  0
 10 25  1  0  0  0  0
 10 11  1  0  0  0  0
 10 30  1  0  0  0  0
 11 12  1  0  0  0  0
 11 13  1  0  0  0  0
 11 31  1  0  0  0  0
 12 32  1  0  0  0  0
 13 14  1  0  0  0  0
 13 24  1  0  0  0  0
 13 33  1  0  0  0  0
 14 15  1  0  0  0  0
 14 34  1  0  0  0  0
 14 35  1  0  0  0  0
 15 16  1  0  0  0  0
 16 17  2  0  0  0  0
 16 18  1  0  0  0  0
 18 23  1  0  0  0  0
 18 19  2  0  0  0  0
 19 20  1  0  0  0  0
 19 36  1  0  0  0  0
 20 21  2  0  0  0  0
 20 37  1  0  0  0  0
 21 22  1  0  0  0  0
 21 38  1  0  0  0  0
 22 23  2  0  0  0  0
 22 39  1  0  0  0  0
 23 40  1  0  0  0  0
 24 25  1  0  0  0  0
 25 41  1  0  0  0  0
M  END
> <s_m_source_file>
AV-unprocessed.smi

> <i_m_source_file_index>
12

> <i_lp_mmshare_version>
43012

> <i_f3d_flags>
0

> <s_epik_input>
W0NIM11jKFtjSF0xKWMoPU8pbmMobjEyKU9bQ0BIXTNbQ0BASF0yT1tDQEBIXShbQ0BASF0zW09IXSlbQ0gyXU9DKD1PKWM0W2NIXVtjSF1bY0hdW2NIXVtjSF00

> <s_epik_cmdline>
J2VwaWtfcHl0aG9uJywgJy1waCcsICc3LjAnLCAnLXRuJywgJzgnLCAnLW1hJywgJzIwMCcsICctbWV0YWxfYmluZGluZycsICctaW1hZScsICc8aW5maWxlLm1hZT4nLCAnLW9tYWUnLCAnPG91dGZpbGUubWFlPic=

> <r_lp_tautomer_probability>
0.933681

> <r_epik_Ionization_Penalty>
0.00399549

> <r_epik_Ionization_Penalty_Charging>
3.09373e-09

> <r_epik_Ionization_Penalty_Neutral>
0.00399549

> <r_epik_State_Penalty>
0.00284953

> <r_epik_Charging_Adjusted_Penalty>
0.00284953

> <i_epik_Tot_Q>
0

> <i_epik_Tot_abs_Q>
0

> <r_epik_Metal_State_Penalty>
-0

> <b_epik_Metal_Only>
0

> <s_epik_Chemistry_Notes>
This compound has an ester and may undergo hydrolysis at high or low pH. This compound contains an acetal/aminal-like group ( X-CH(R)-Y where X, Y are N, S, or O) that may be acid/base labile, releasing an aldehyde.

> <s_lp_Force_Field>
OPLS_2005

> <r_lp_Energy>
46.3609

> <b_lp_Chiralities_Consistent>
1

> <s_lp_Variant>
AV-unprocessed.smi:12-7

> <Gold.Version>
5.8.1

> <Gold.Id.Protein>
6NUR|6NUR_protein|mol2

> <Gold.PLP.Fitness>
44.1494

> <Gold.PLP.PLP>
-36.5646

> <Gold.PLP.part.hbond>
-3.0000

> <Gold.PLP.part.metal>
0.0000

> <Gold.PLP.part.buried>
0.6515

> <Gold.PLP.part.nonpolar>
-34.6644

> <Gold.PLP.part.repulsive>
0.3622

> <Gold.PLP.ligand.clash>
0.0000

> <Gold.PLP.ligand.torsion>
0.5663

> <Gold.PLP.Chemscore.Hbond>
2.9000

> <Gold.PLP.Chemscore.CHOScore>
0.0000

> <Gold.PLP.Chemscore.Metal>
0.0000

> <Gold.Chemscore.Hbonds>
donor molecule, donor type, donor heavy atom, donor atom, acceptor molecule, acceptor atom, score
      L1  H    12    32       P1  7957  1.00
      P1  H  7989  7998       L1     9  1.00
      P1  H  7997  8009       L1     8  1.00

> <Gold.PLP.Chemscore.Internal.Correction>
0.0173

> <Gold.Rescore>
     Score         DG    S(hbond)    S(metal)    S(lipo)     H(rot)  DE(clash)    DE(int)     intcor
     13.38     -15.88       2.10        0.00      76.74       2.18       1.98       0.52       ----

> <Gold.Chemscore.Fitness>
13.3802

> <Gold.Chemscore.DG>
-15.8842

> <Gold.Chemscore.ZeroCoef>
-5.4800

> <Gold.Chemscore.Hbond>
2.0977

> <Gold.Chemscore.Metal>
0.0000

> <Gold.Chemscore.Lipo>
76.7410

> <Gold.Chemscore.Internal_Hbond>
0.0000

> <Gold.Chemscore.DEClash>
1.9818

> <Gold.Chemscore.DEInternal>
0.5222

> <Gold.Chemscore.Rot>
2.1800

> <Gold.Chemscore.Internal.Correction>
   9.000000E+99

> <Gold.Chemscore.Hbonds>
donor molecule, donor type, donor heavy atom, donor atom, acceptor molecule, acceptor atom, score
      L1  H    12    32       P1  7957  0.94
      P1  H  7989  7998       L1     9  0.10
      P1  H  7997  8009       L1     8  0.35

> <Gold.Chemscore.Hbond.Weighted>
-7.0062

> <Gold.Chemscore.Metal.Weighted>
-0.0000

> <Gold.Chemscore.Lipo.Weighted>
-8.9787

> <Gold.Chemscore.Internal_Hbond.Weighted>
0.0000

> <Gold.Chemscore.DEClash.Weighted>
1.9818

> <Gold.Chemscore.DEInternal.Weighted>
0.5222

> <Gold.Chemscore.Rot.Weighted>
5.5807

> <Gold.Chemscore.Internal.Correction.Weighted>
   9.000000E+99

> <Gold.Protein.RotatedTorsions>
[ 6907 6896 6895 6894 ] final  -11.24 input  -60.11 | X-H torsion
[ 7974 7965 7964 7962 ] final -147.23 input  175.53 | X-H torsion
[ 8008 7997 7996 7995 ] final  143.36 input   59.86 | X-H torsion
[ 10167 10162 10161 10158 ] final  -13.37 input  -65.29 | X-H torsion
[ 10718 10713 10712 10709 ] final  133.80 input   66.30 | X-H torsion
[ 10763 10752 10751 10750 ] final    5.41 input  -60.55 | X-H torsion
[ 11005 11000 10999 10996 ] final   76.06 input  -57.11 | X-H torsion

> <Gold.Protein.ActiveResidues>
 VAL166  LYS551  ARG553  GLY616  TRP617  ASP618  TYR619  PRO620  LYS621  CYS622 
 ASP623  PHE694  ASN695  SER759  ASP760  ASP761  ALA762  ILE779  LEU786  VAL792 
 PHE793  MET794  SER795  GLU796  ALA797  LYS798  CYS799  TRP800  GLU811  SER814 

> <Gold.Protein.RotatedAtoms>
  151.3894  135.0953  159.9520 H   0  0  0  0  0  0  0  0  0  0  0  0  # atno 6907 bound_to 6896
  152.5084  133.8995  159.7444 H   0  0  0  0  0  0  0  0  0  0  0  0  # atno 6908 bound_to 6896
  150.9445  133.6563  159.2813 H   0  0  0  0  0  0  0  0  0  0  0  0  # atno 6909 bound_to 6896
  144.8107  140.5354  143.5644 H   0  0  0  0  0  0  0  0  0  0  0  0  # atno 7974 bound_to 7965
  156.2931  140.2264  156.4878 H   0  0  0  0  0  0  0  0  0  0  0  0  # atno 8008 bound_to 7997
  154.7797  140.0461  157.1138 H   0  0  0  0  0  0  0  0  0  0  0  0  # atno 8009 bound_to 7997
  154.9774  140.3074  155.4965 H   0  0  0  0  0  0  0  0  0  0  0  0  # atno 8010 bound_to 7997
  140.7181  143.5434  150.9383 H   0  0  0  0  0  0  0  0  0  0  0  0  # atno 10167 bound_to 10162
  157.4737  131.1081  150.9770 H   0  0  0  0  0  0  0  0  0  0  0  0  # atno 10718 bound_to 10713
  153.2598  135.6922  153.7591 H   0  0  0  0  0  0  0  0  0  0  0  0  # atno 10763 bound_to 10752
  153.6654  135.3353  155.3139 H   0  0  0  0  0  0  0  0  0  0  0  0  # atno 10764 bound_to 10752
  154.8426  135.4487  154.1584 H   0  0  0  0  0  0  0  0  0  0  0  0  # atno 10765 bound_to 10752
  139.9315  134.7570  156.1349 H   0  0  0  0  0  0  0  0  0  0  0  0  # atno 11005 bound_to 11000
  145.5331  139.1475  143.3488 LP  0  0  0  0  0  0  0  0  0  0  0  0  # atno 17320 bound_to 7965
  146.2405  140.5471  142.8936 LP  0  0  0  0  0  0  0  0  0  0  0  0  # atno 17321 bound_to 7965
  139.9157  143.6667  152.3107 LP  0  0  0  0  0  0  0  0  0  0  0  0  # atno 17342 bound_to 10162
  139.7066  144.7627  151.1183 LP  0  0  0  0  0  0  0  0  0  0  0  0  # atno 17343 bound_to 10162
  157.0527  130.5793  149.5373 LP  0  0  0  0  0  0  0  0  0  0  0  0  # atno 17370 bound_to 10713
  156.0086  130.5175  150.7913 LP  0  0  0  0  0  0  0  0  0  0  0  0  # atno 17371 bound_to 10713
  141.0906  133.6716  156.2532 LP  0  0  0  0  0  0  0  0  0  0  0  0  # atno 17394 bound_to 11000
  140.6189  134.5381  157.5545 LP  0  0  0  0  0  0  0  0  0  0  0  0  # atno 17395 bound_to 11000

$$$$
