AV-unprocessed.smi:1531|AV-procd|sdf|6159|dock4
  -GOLD-   22720 6303D 1   1.00000     0.00000
 Structure written by MMmdl.
 44 45  0  0  0  0  0  0  0  0  1 V2000
  151.8212  145.8958  160.1612 C   0  0  0  0  0  0  0  0  0  0  0  0
  151.1778  144.6376  159.5609 C   0  0  0  0  0  0  0  0  0  0  0  0
  152.1510  143.4473  159.3776 C   0  0  1  0  0  0  0  0  0  0  0  0
  152.9459  143.1586  160.6729 C   0  0  0  0  0  0  0  0  0  0  0  0
  153.9038  141.9683  160.5172 C   0  0  0  0  0  0  0  0  0  0  0  0
  153.1516  140.7091  160.0710 C   0  0  0  0  0  0  0  0  0  0  0  0
  152.3813  140.9685  158.7704 C   0  0  0  0  0  0  0  0  0  0  0  0
  151.4157  142.1638  158.9063 C   0  0  2  0  0  0  0  0  0  0  0  0
  150.7539  142.3882  157.6219 N   0  0  0  0  0  0  0  0  0  0  0  0
  149.8698  141.5599  157.0472 C   0  0  0  0  0  0  0  0  0  0  0  0
  149.5087  140.4937  157.5456 O   0  0  0  0  0  0  0  0  0  0  0  0
  149.4443  142.0439  155.8695 N   0  0  0  0  0  0  0  0  0  0  0  0
  148.4861  141.4640  155.0012 C   0  0  0  0  0  0  0  0  0  0  0  0
  147.4219  142.0856  154.2886 C   0  0  0  0  0  0  0  0  0  0  0  0
  146.7492  141.1988  153.5704 N   0  0  0  0  0  0  0  0  0  0  0  0
  147.3635  140.0125  153.8070 N   0  0  0  0  0  0  0  0  0  0  0  0
  146.8735  138.8074  153.1616 C   0  0  0  0  0  0  0  0  0  0  0  0
  146.7959  138.9840  151.6440 C   0  0  0  0  0  0  0  0  0  0  0  0
  146.8226  140.2336  151.1727 N   0  0  0  0  0  0  0  0  0  0  0  0
  146.7115  138.0042  150.9067 O   0  0  0  0  0  0  0  0  0  0  0  0
  148.4273  140.1417  154.6790 C   0  0  0  0  0  0  0  0  0  0  0  0
  151.1121  146.7238  160.1657 H   0  0  0  0  0  0  0  0  0  0  0  0
  152.6913  146.2088  159.5838 H   0  0  0  0  0  0  0  0  0  0  0  0
  152.1374  145.7380  161.1920 H   0  0  0  0  0  0  0  0  0  0  0  0
  150.3323  144.3324  160.1786 H   0  0  0  0  0  0  0  0  0  0  0  0
  150.7547  144.9212  158.5974 H   0  0  0  0  0  0  0  0  0  0  0  0
  152.8688  143.7212  158.6025 H   0  0  0  0  0  0  0  0  0  0  0  0
  153.5278  144.0319  160.9666 H   0  0  0  0  0  0  0  0  0  0  0  0
  152.2534  142.9608  161.4923 H   0  0  0  0  0  0  0  0  0  0  0  0
  154.6773  142.2130  159.7881 H   0  0  0  0  0  0  0  0  0  0  0  0
  154.4167  141.7789  161.4605 H   0  0  0  0  0  0  0  0  0  0  0  0
  153.8525  139.8857  159.9304 H   0  0  0  0  0  0  0  0  0  0  0  0
  152.4581  140.3972  160.8530 H   0  0  0  0  0  0  0  0  0  0  0  0
  153.0905  141.1563  157.9629 H   0  0  0  0  0  0  0  0  0  0  0  0
  151.8287  140.0703  158.4915 H   0  0  0  0  0  0  0  0  0  0  0  0
  150.6663  141.9158  159.6609 H   0  0  0  0  0  0  0  0  0  0  0  0
  150.9896  143.2410  157.1357 H   0  0  0  0  0  0  0  0  0  0  0  0
  149.8397  142.9220  155.5667 H   0  0  0  0  0  0  0  0  0  0  0  0
  147.1166  143.1208  154.2591 H   0  0  0  0  0  0  0  0  0  0  0  0
  147.5450  137.9835  153.4075 H   0  0  0  0  0  0  0  0  0  0  0  0
  145.8903  138.5492  153.5590 H   0  0  0  0  0  0  0  0  0  0  0  0
  146.7654  140.3981  150.1779 H   0  0  0  0  0  0  0  0  0  0  0  0
  146.8916  141.0104  151.8140 H   0  0  0  0  0  0  0  0  0  0  0  0
  149.0348  139.3012  154.9812 H   0  0  0  0  0  0  0  0  0  0  0  0
  1  2  1  0  0  0  0
  1 22  1  0  0  0  0
  1 23  1  0  0  0  0
  1 24  1  0  0  0  0
  2  3  1  0  0  0  0
  2 25  1  0  0  0  0
  2 26  1  0  0  0  0
  3  8  1  0  0  0  0
  3  4  1  0  0  0  0
  3 27  1  0  0  0  0
  4  5  1  0  0  0  0
  4 28  1  0  0  0  0
  4 29  1  0  0  0  0
  5  6  1  0  0  0  0
  5 30  1  0  0  0  0
  5 31  1  0  0  0  0
  6  7  1  0  0  0  0
  6 32  1  0  0  0  0
  6 33  1  0  0  0  0
  7  8  1  0  0  0  0
  7 34  1  0  0  0  0
  7 35  1  0  0  0  0
  8  9  1  0  0  0  0
  8 36  1  0  0  0  0
  9 10  1  0  0  0  0
  9 37  1  0  0  0  0
 10 11  2  0  0  0  0
 10 12  1  0  0  0  0
 12 13  1  0  0  0  0
 12 38  1  0  0  0  0
 13 21  2  0  0  0  0
 13 14  1  0  0  0  0
 14 15  2  0  0  0  0
 14 39  1  0  0  0  0
 15 16  1  0  0  0  0
 16 17  1  0  0  0  0
 16 21  1  0  0  0  0
 17 18  1  0  0  0  0
 17 40  1  0  0  0  0
 17 41  1  0  0  0  0
 18 19  1  0  0  0  0
 18 20  2  0  0  0  0
 19 42  1  0  0  0  0
 19 43  1  0  0  0  0
 21 44  1  0  0  0  0
M  END
> <s_m_source_file>
AV-unprocessed.smi

> <i_m_source_file_index>
1531

> <i_lp_mmshare_version>
43012

> <i_f3d_flags>
0

> <s_epik_input>
W0NIM11bQ0gyXVtDQEBIXTFbQ0gyXVtDSDJdW0NIMl1bQ0gyXVtDQEhdMVtOSF1DKD1PKVtOSF1jMltjSF1ubihbY0hdMilbQ0gyXUMoPU8pW05IMl0=

> <s_epik_cmdline>
J2VwaWtfcHl0aG9uJywgJy1waCcsICc3LjAnLCAnLXRuJywgJzgnLCAnLW1hJywgJzIwMCcsICctbWV0YWxfYmluZGluZycsICctaW1hZScsICc8aW5maWxlLm1hZT4nLCAnLW9tYWUnLCAnPG91dGZpbGUubWFlPic=

> <r_lp_tautomer_probability>
1

> <r_epik_Ionization_Penalty>
4.83437e-05

> <r_epik_Ionization_Penalty_Charging>
0

> <r_epik_Ionization_Penalty_Neutral>
4.83437e-05

> <r_epik_State_Penalty>
-0

> <r_epik_Charging_Adjusted_Penalty>
0

> <i_epik_Tot_Q>
0

> <i_epik_Tot_abs_Q>
0

> <r_epik_Metal_State_Penalty>
-0

> <b_epik_Metal_Only>
0

> <s_lp_Force_Field>
OPLS_2005

> <r_lp_Energy>
14.9038

> <b_lp_Chiralities_Consistent>
1

> <s_lp_Variant>
AV-unprocessed.smi:1531-4

> <Gold.Version>
5.8.1

> <Gold.Id.Protein>
6NUR|6NUR_protein|mol2

> <Gold.PLP.Fitness>
47.2981

> <Gold.PLP.PLP>
-43.3042

> <Gold.PLP.part.hbond>
-3.0000

> <Gold.PLP.part.metal>
0.0000

> <Gold.PLP.part.buried>
-3.7415

> <Gold.PLP.part.nonpolar>
-38.3676

> <Gold.PLP.part.repulsive>
2.1874

> <Gold.PLP.ligand.clash>
0.0000

> <Gold.PLP.ligand.torsion>
0.7390

> <Gold.PLP.Chemscore.Hbond>
1.4368

> <Gold.PLP.Chemscore.CHOScore>
0.3807

> <Gold.PLP.Chemscore.Metal>
0.0000

> <Gold.Chemscore.Hbonds>
donor molecule, donor type, donor heavy atom, donor atom, acceptor molecule, acceptor atom, score
      L1  H    12    38       P1  8028  0.51
      P1  H  7954  7966       L1    20  1.00
      L1  C    14    39       P1  8028  0.35

> <Gold.PLP.Chemscore.Internal.Correction>
0.0194

> <Gold.Rescore>
     Score         DG    S(hbond)    S(metal)    S(lipo)     H(rot)  DE(clash)    DE(int)     intcor
     12.82     -15.24       0.88        0.00     105.09       2.13       1.84       0.58       ----

> <Gold.Chemscore.Fitness>
12.8221

> <Gold.Chemscore.DG>
-15.2421

> <Gold.Chemscore.ZeroCoef>
-5.4800

> <Gold.Chemscore.Hbond>
0.8768

> <Gold.Chemscore.Metal>
0.0000

> <Gold.Chemscore.Lipo>
105.0881

> <Gold.Chemscore.Internal_Hbond>
0.0000

> <Gold.Chemscore.DEClash>
1.8409

> <Gold.Chemscore.DEInternal>
0.5791

> <Gold.Chemscore.Rot>
2.1335

> <Gold.Chemscore.Internal.Correction>
   9.000000E+99

> <Gold.Chemscore.Hbonds>
donor molecule, donor type, donor heavy atom, donor atom, acceptor molecule, acceptor atom, score
      L1  H    12    38       P1  8028  0.46
      P1  H  7954  7966       L1    20  0.74

> <Gold.Chemscore.Hbond.Weighted>
-2.9286

> <Gold.Chemscore.Metal.Weighted>
-0.0000

> <Gold.Chemscore.Lipo.Weighted>
-12.2953

> <Gold.Chemscore.Internal_Hbond.Weighted>
0.0000

> <Gold.Chemscore.DEClash.Weighted>
1.8409

> <Gold.Chemscore.DEInternal.Weighted>
0.5791

> <Gold.Chemscore.Rot.Weighted>
5.4618

> <Gold.Chemscore.Internal.Correction.Weighted>
   9.000000E+99

> <Gold.Protein.RotatedTorsions>
[ 6907 6896 6895 6894 ] final  164.47 input  -60.11 | X-H torsion
[ 7974 7965 7964 7962 ] final   99.04 input  175.53 | X-H torsion
[ 8008 7997 7996 7995 ] final  -96.98 input   59.86 | X-H torsion
[ 10167 10162 10161 10158 ] final  119.71 input  -65.29 | X-H torsion
[ 10718 10713 10712 10709 ] final  -23.41 input   66.30 | X-H torsion
[ 10763 10752 10751 10750 ] final  137.45 input  -60.55 | X-H torsion
[ 11005 11000 10999 10996 ] final  -90.17 input  -57.11 | X-H torsion

> <Gold.Protein.ActiveResidues>
 VAL166  LYS551  ARG553  GLY616  TRP617  ASP618  TYR619  PRO620  LYS621  CYS622 
 ASP623  PHE694  ASN695  SER759  ASP760  ASP761  ALA762  ILE779  LEU786  VAL792 
 PHE793  MET794  SER795  GLU796  ALA797  LYS798  CYS799  TRP800  GLU811  SER814 

> <Gold.Protein.RotatedAtoms>
  151.9093  133.3557  159.3857 H   0  0  0  0  0  0  0  0  0  0  0  0  # atno 6907 bound_to 6896
  150.7061  134.4748  159.5451 H   0  0  0  0  0  0  0  0  0  0  0  0  # atno 6908 bound_to 6896
  152.2351  134.8284  160.0519 H   0  0  0  0  0  0  0  0  0  0  0  0  # atno 6909 bound_to 6896
  145.4041  139.2343  143.3284 H   0  0  0  0  0  0  0  0  0  0  0  0  # atno 7974 bound_to 7965
  154.7816  140.0467  157.1131 H   0  0  0  0  0  0  0  0  0  0  0  0  # atno 8008 bound_to 7997
  154.9698  140.3088  155.4973 H   0  0  0  0  0  0  0  0  0  0  0  0  # atno 8009 bound_to 7997
  156.2937  140.2255  156.4789 H   0  0  0  0  0  0  0  0  0  0  0  0  # atno 8010 bound_to 7997
  139.6028  144.7062  151.3022 H   0  0  0  0  0  0  0  0  0  0  0  0  # atno 10167 bound_to 10162
  156.4914  130.4567  149.6753 H   0  0  0  0  0  0  0  0  0  0  0  0  # atno 10718 bound_to 10713
  153.8732  135.3053  155.3443 H   0  0  0  0  0  0  0  0  0  0  0  0  # atno 10763 bound_to 10752
  154.7796  135.4843  153.9819 H   0  0  0  0  0  0  0  0  0  0  0  0  # atno 10764 bound_to 10752
  153.1394  135.6821  153.9148 H   0  0  0  0  0  0  0  0  0  0  0  0  # atno 10765 bound_to 10752
  141.1571  133.7675  156.9700 H   0  0  0  0  0  0  0  0  0  0  0  0  # atno 11005 bound_to 11000
  146.2737  140.4743  142.8804 LP  0  0  0  0  0  0  0  0  0  0  0  0  # atno 17320 bound_to 7965
  144.8353  140.6773  143.6264 LP  0  0  0  0  0  0  0  0  0  0  0  0  # atno 17321 bound_to 7965
  140.7263  143.6995  150.7857 LP  0  0  0  0  0  0  0  0  0  0  0  0  # atno 17342 bound_to 10162
  140.0574  143.5188  152.2644 LP  0  0  0  0  0  0  0  0  0  0  0  0  # atno 17343 bound_to 10162
  156.3423  130.7388  151.2335 LP  0  0  0  0  0  0  0  0  0  0  0  0  # atno 17370 bound_to 10713
  157.7473  131.0400  150.4578 LP  0  0  0  0  0  0  0  0  0  0  0  0  # atno 17371 bound_to 10713
  140.1136  134.9461  157.2101 LP  0  0  0  0  0  0  0  0  0  0  0  0  # atno 17394 bound_to 11000
  140.3162  134.2968  155.7256 LP  0  0  0  0  0  0  0  0  0  0  0  0  # atno 17395 bound_to 11000

$$$$
