AV-unprocessed.smi:3301|AV-procd|sdf|12654|dock2
  -GOLD-   2272018593D 1   1.00000     0.00000
 Structure written by MMmdl.
 36 37  0  0  0  0  0  0  0  0  1 V2000
  150.8047  139.8468  154.9937 C   0  0  0  0  0  0  0  0  0  0  0  0
  149.7096  140.8156  155.4595 C   0  0  2  0  0  0  0  0  0  0  0  0
  148.8140  141.2586  154.2824 C   0  0  0  0  0  0  0  0  0  0  0  0
  147.5457  141.8144  154.7187 N   0  0  0  0  0  0  0  0  0  0  0  0
  146.5601  142.3810  153.9213 C   0  0  0  0  0  0  0  0  0  0  0  0
  145.5520  142.7830  154.7677 C   0  0  0  0  0  0  0  0  0  0  0  0
  145.8879  142.4646  156.0814 N   0  0  0  0  0  0  0  0  0  0  0  0
  147.0796  141.8913  155.9728 C   0  0  0  0  0  0  0  0  0  0  0  0
  150.3375  141.9713  156.0996 N   0  0  0  0  0  0  0  0  0  0  0  0
  150.7954  142.0134  157.3608 C   0  0  0  0  0  0  0  0  0  0  0  0
  150.7753  141.0451  158.1218 O   0  0  0  0  0  0  0  0  0  0  0  0
  151.3729  143.3538  157.8287 C   0  0  0  0  0  0  0  0  0  0  0  0
  151.8431  143.2988  159.2126 N   0  0  0  0  0  0  0  0  0  0  0  0
  151.3779  144.2622  160.1966 C   0  0  0  0  0  0  0  0  0  0  0  0
  152.2817  144.0488  161.4193 C   0  0  0  0  0  0  0  0  0  0  0  0
  152.9882  142.7088  161.1864 C   0  0  0  0  0  0  0  0  0  0  0  0
  152.7167  142.4200  159.7201 C   0  0  0  0  0  0  0  0  0  0  0  0
  153.2488  141.4923  159.1122 O   0  0  0  0  0  0  0  0  0  0  0  0
  150.3714  138.9542  154.5415 H   0  0  0  0  0  0  0  0  0  0  0  0
  151.4244  139.5225  155.8304 H   0  0  0  0  0  0  0  0  0  0  0  0
  151.4583  140.3103  154.2539 H   0  0  0  0  0  0  0  0  0  0  0  0
  149.0947  140.2789  156.1843 H   0  0  0  0  0  0  0  0  0  0  0  0
  149.3282  141.9984  153.6670 H   0  0  0  0  0  0  0  0  0  0  0  0
  148.5993  140.4087  153.6335 H   0  0  0  0  0  0  0  0  0  0  0  0
  146.6595  142.4611  152.8488 H   0  0  0  0  0  0  0  0  0  0  0  0
  144.6184  143.2728  154.5337 H   0  0  0  0  0  0  0  0  0  0  0  0
  147.6308  141.5262  156.8268 H   0  0  0  0  0  0  0  0  0  0  0  0
  150.4031  142.8142  155.5475 H   0  0  0  0  0  0  0  0  0  0  0  0
  152.1990  143.6265  157.1708 H   0  0  0  0  0  0  0  0  0  0  0  0
  150.6240  144.1418  157.7302 H   0  0  0  0  0  0  0  0  0  0  0  0
  151.4439  145.2832  159.8183 H   0  0  0  0  0  0  0  0  0  0  0  0
  150.3351  144.0533  160.4389 H   0  0  0  0  0  0  0  0  0  0  0  0
  153.0202  144.8494  161.4819 H   0  0  0  0  0  0  0  0  0  0  0  0
  151.7117  144.0551  162.3488 H   0  0  0  0  0  0  0  0  0  0  0  0
  154.0581  142.7654  161.3899 H   0  0  0  0  0  0  0  0  0  0  0  0
  152.5546  141.9174  161.7986 H   0  0  0  0  0  0  0  0  0  0  0  0
  1  2  1  0  0  0  0
  1 19  1  0  0  0  0
  1 20  1  0  0  0  0
  1 21  1  0  0  0  0
  2  3  1  0  0  0  0
  2  9  1  0  0  0  0
  2 22  1  0  0  0  0
  3  4  1  0  0  0  0
  3 23  1  0  0  0  0
  3 24  1  0  0  0  0
  4  8  1  0  0  0  0
  4  5  1  0  0  0  0
  5  6  2  0  0  0  0
  5 25  1  0  0  0  0
  6  7  1  0  0  0  0
  6 26  1  0  0  0  0
  7  8  2  0  0  0  0
  8 27  1  0  0  0  0
  9 10  1  0  0  0  0
  9 28  1  0  0  0  0
 10 11  2  0  0  0  0
 10 12  1  0  0  0  0
 12 13  1  0  0  0  0
 12 29  1  0  0  0  0
 12 30  1  0  0  0  0
 13 17  1  0  0  0  0
 13 14  1  0  0  0  0
 14 15  1  0  0  0  0
 14 31  1  0  0  0  0
 14 32  1  0  0  0  0
 15 16  1  0  0  0  0
 15 33  1  0  0  0  0
 15 34  1  0  0  0  0
 16 17  1  0  0  0  0
 16 35  1  0  0  0  0
 16 36  1  0  0  0  0
 17 18  2  0  0  0  0
M  END
> <s_m_source_file>
AV-unprocessed.smi

> <i_m_source_file_index>
3301

> <i_lp_mmshare_version>
43012

> <i_f3d_flags>
0

> <s_epik_input>
W2NIXTFuW2NIXVtjSF1uMVtDSDJdW0NAQEhdKFtDSDNdKVtOSF1DKD1PKVtDSDJdTjJbQ0gyXVtDSDJdW0NIMl1DMj1P

> <s_epik_cmdline>
J2VwaWtfcHl0aG9uJywgJy1waCcsICc3LjAnLCAnLXRuJywgJzgnLCAnLW1hJywgJzIwMCcsICctbWV0YWxfYmluZGluZycsICctaW1hZScsICc8aW5maWxlLm1hZT4nLCAnLW9tYWUnLCAnPG91dGZpbGUubWFlPic=

> <r_lp_tautomer_probability>
1

> <r_epik_Ionization_Penalty>
0.623868

> <r_epik_Ionization_Penalty_Charging>
0.623868

> <r_epik_Ionization_Penalty_Neutral>
4.45089e-08

> <r_epik_State_Penalty>
0.640129

> <r_epik_Charging_Adjusted_Penalty>
1.264

> <i_epik_Tot_Q>
0

> <i_epik_Tot_abs_Q>
0

> <r_epik_Metal_State_Penalty>
0.307431

> <b_epik_Metal_Only>
0

> <s_lp_Force_Field>
OPLS_2005

> <r_lp_Energy>
13.1823

> <b_lp_Chiralities_Consistent>
1

> <s_lp_Variant>
AV-unprocessed.smi:3301-3

> <Gold.Version>
5.8.1

> <Gold.Id.Protein>
6NUR|6NUR_protein|mol2

> <Gold.PLP.Fitness>
41.8585

> <Gold.PLP.PLP>
-42.8106

> <Gold.PLP.part.hbond>
-0.6397

> <Gold.PLP.part.metal>
0.0000

> <Gold.PLP.part.buried>
-4.3062

> <Gold.PLP.part.nonpolar>
-38.0041

> <Gold.PLP.part.repulsive>
0.2601

> <Gold.PLP.ligand.clash>
0.0000

> <Gold.PLP.ligand.torsion>
0.5144

> <Gold.PLP.Chemscore.Hbond>
0.0000

> <Gold.PLP.Chemscore.CHOScore>
0.0000

> <Gold.PLP.Chemscore.Metal>
0.0000

> <Gold.PLP.Chemscore.Internal.Correction>
0.0766

> <Gold.Rescore>
     Score         DG    S(hbond)    S(metal)    S(lipo)     H(rot)  DE(clash)    DE(int)     intcor
      7.52      -8.80       0.00        0.00      77.94       2.26       0.09       1.19       ----

> <Gold.Chemscore.Fitness>
7.5204

> <Gold.Chemscore.DG>
-8.8020

> <Gold.Chemscore.ZeroCoef>
-5.4800

> <Gold.Chemscore.Hbond>
0.0000

> <Gold.Chemscore.Metal>
0.0000

> <Gold.Chemscore.Lipo>
77.9450

> <Gold.Chemscore.Internal_Hbond>
0.0000

> <Gold.Chemscore.DEClash>
0.0889

> <Gold.Chemscore.DEInternal>
1.1927

> <Gold.Chemscore.Rot>
2.2647

> <Gold.Chemscore.Internal.Correction>
   9.000000E+99

> <Gold.Chemscore.Hbonds>
donor molecule, donor type, donor heavy atom, donor atom, acceptor molecule, acceptor atom, score
      L1  H     9    28       P1  8028  0.03

> <Gold.Chemscore.Hbond.Weighted>
-0.0000

> <Gold.Chemscore.Metal.Weighted>
-0.0000

> <Gold.Chemscore.Lipo.Weighted>
-9.1196

> <Gold.Chemscore.Internal_Hbond.Weighted>
0.0000

> <Gold.Chemscore.DEClash.Weighted>
0.0889

> <Gold.Chemscore.DEInternal.Weighted>
1.1927

> <Gold.Chemscore.Rot.Weighted>
5.7975

> <Gold.Chemscore.Internal.Correction.Weighted>
   9.000000E+99

> <Gold.Protein.RotatedTorsions>
[ 6907 6896 6895 6894 ] final  176.08 input  -60.11 | X-H torsion
[ 7974 7965 7964 7962 ] final   52.94 input  175.53 | X-H torsion
[ 8008 7997 7996 7995 ] final   71.63 input   59.86 | X-H torsion
[ 10167 10162 10161 10158 ] final  -92.57 input  -65.29 | X-H torsion
[ 10718 10713 10712 10709 ] final   62.74 input   66.30 | X-H torsion
[ 10763 10752 10751 10750 ] final -162.15 input  -60.55 | X-H torsion
[ 11005 11000 10999 10996 ] final  178.36 input  -57.11 | X-H torsion

> <Gold.Protein.ActiveResidues>
 VAL166  LYS551  ARG553  GLY616  TRP617  ASP618  TYR619  PRO620  LYS621  CYS622 
 ASP623  PHE694  ASN695  SER759  ASP760  ASP761  ALA762  ILE779  LEU786  VAL792 
 PHE793  MET794  SER795  GLU796  ALA797  LYS798  CYS799  TRP800  GLU811  SER814 

> <Gold.Protein.RotatedAtoms>
  151.7259  133.3316  159.3327 H   0  0  0  0  0  0  0  0  0  0  0  0  # atno 6907 bound_to 6896
  150.7633  134.6406  159.6244 H   0  0  0  0  0  0  0  0  0  0  0  0  # atno 6908 bound_to 6896
  152.3622  134.6857  160.0255 H   0  0  0  0  0  0  0  0  0  0  0  0  # atno 6909 bound_to 6896
  145.9763  139.4198  143.0159 H   0  0  0  0  0  0  0  0  0  0  0  0  # atno 7974 bound_to 7965
  155.7568  140.3487  155.5178 H   0  0  0  0  0  0  0  0  0  0  0  0  # atno 8008 bound_to 7997
  155.8952  140.1024  157.1411 H   0  0  0  0  0  0  0  0  0  0  0  0  # atno 8009 bound_to 7997
  154.4037  140.1296  156.4353 H   0  0  0  0  0  0  0  0  0  0  0  0  # atno 8010 bound_to 7997
  140.3335  143.2981  151.9915 H   0  0  0  0  0  0  0  0  0  0  0  0  # atno 10167 bound_to 10162
  157.5922  130.9067  149.9626 H   0  0  0  0  0  0  0  0  0  0  0  0  # atno 10718 bound_to 10713
  154.7240  135.3032  154.9001 H   0  0  0  0  0  0  0  0  0  0  0  0  # atno 10763 bound_to 10752
  153.9864  135.6724  153.4756 H   0  0  0  0  0  0  0  0  0  0  0  0  # atno 10764 bound_to 10752
  153.0859  135.4984  154.8514 H   0  0  0  0  0  0  0  0  0  0  0  0  # atno 10765 bound_to 10752
  140.3943  134.6835  157.4525 H   0  0  0  0  0  0  0  0  0  0  0  0  # atno 11005 bound_to 11000
  145.7834  140.9846  143.1087 LP  0  0  0  0  0  0  0  0  0  0  0  0  # atno 17320 bound_to 7965
  144.6849  139.9593  143.7480 LP  0  0  0  0  0  0  0  0  0  0  0  0  # atno 17321 bound_to 7965
  139.4852  144.6215  151.7245 LP  0  0  0  0  0  0  0  0  0  0  0  0  # atno 17342 bound_to 10162
  140.5375  144.0632  150.6076 LP  0  0  0  0  0  0  0  0  0  0  0  0  # atno 17343 bound_to 10162
  156.0978  130.3658  150.0273 LP  0  0  0  0  0  0  0  0  0  0  0  0  # atno 17370 bound_to 10713
  156.8394  130.9420  151.3633 LP  0  0  0  0  0  0  0  0  0  0  0  0  # atno 17371 bound_to 10713
  140.0384  134.6304  155.9013 LP  0  0  0  0  0  0  0  0  0  0  0  0  # atno 17394 bound_to 11000
  141.1880  133.6561  156.5305 LP  0  0  0  0  0  0  0  0  0  0  0  0  # atno 17395 bound_to 11000

$$$$
