AV-unprocessed.smi:3338|AV-procd|sdf|12870|dock1
  -GOLD-   2272019273D 1   1.00000     0.00000
 Structure written by MMmdl.
 44 45  0  0  0  0  0  0  0  0  2 V2000
  145.9726  136.1677  150.9193 C   0  0  0  0  0  0  0  0  0  0  0  0
  145.3791  135.0784  151.8296 C   0  0  1  0  0  0  0  0  0  0  0  0
  145.6866  133.6526  151.3356 C   0  0  0  0  0  0  0  0  0  0  0  0
  147.1517  133.2755  151.5968 C   0  0  0  0  0  0  0  0  0  0  0  0
  147.5223  133.4904  153.0727 C   0  0  0  0  0  0  0  0  0  0  0  0
  147.2472  134.8879  153.4951 N   0  3  2  0  0  0  0  0  0  0  0  0
  147.7365  135.1696  154.8677 C   0  0  0  0  0  0  0  0  0  0  0  0
  149.2641  135.0381  154.9778 C   0  0  0  0  0  0  0  0  0  0  0  0
  149.9109  136.2543  154.5062 N   0  0  0  0  0  0  0  0  0  0  0  0
  150.6341  137.0856  155.2716 C   0  0  0  0  0  0  0  0  0  0  0  0
  150.8419  136.8835  156.4688 O   0  0  0  0  0  0  0  0  0  0  0  0
  151.2029  138.3284  154.5674 C   0  0  2  0  0  0  0  0  0  0  0  0
  152.7432  138.3613  154.5459 C   0  0  0  0  0  0  0  0  0  0  0  0
  150.6571  139.5404  155.1664 N   0  0  0  0  0  0  0  0  0  0  0  0
  150.4657  139.8376  156.5020 C   0  0  0  0  0  0  0  0  0  0  0  0
  149.8959  141.0765  156.5681 C   0  0  0  0  0  0  0  0  0  0  0  0
  149.7678  141.4624  155.2050 C   0  0  0  0  0  0  0  0  0  0  0  0
  150.2170  140.5400  154.3697 N   0  0  0  0  0  0  0  0  0  0  0  0
  145.8162  135.2476  153.2992 C   0  0  0  0  0  0  0  0  0  0  0  0
  147.0622  136.1452  150.9129 H   0  0  0  0  0  0  0  0  0  0  0  0
  145.6670  137.1607  151.2495 H   0  0  0  0  0  0  0  0  0  0  0  0
  145.6322  136.0471  149.8904 H   0  0  0  0  0  0  0  0  0  0  0  0
  144.2965  135.2066  151.7938 H   0  0  0  0  0  0  0  0  0  0  0  0
  145.0400  132.9456  151.8570 H   0  0  0  0  0  0  0  0  0  0  0  0
  145.4525  133.5547  150.2750 H   0  0  0  0  0  0  0  0  0  0  0  0
  147.3213  132.2345  151.3198 H   0  0  0  0  0  0  0  0  0  0  0  0
  147.8090  133.8703  150.9619 H   0  0  0  0  0  0  0  0  0  0  0  0
  146.9658  132.7991  153.7078 H   0  0  0  0  0  0  0  0  0  0  0  0
  148.5806  133.2640  153.2077 H   0  0  0  0  0  0  0  0  0  0  0  0
  147.4042  136.1595  155.1849 H   0  0  0  0  0  0  0  0  0  0  0  0
  147.2892  134.4580  155.5635 H   0  0  0  0  0  0  0  0  0  0  0  0
  149.5398  134.8438  156.0158 H   0  0  0  0  0  0  0  0  0  0  0  0
  149.6355  134.2031  154.3842 H   0  0  0  0  0  0  0  0  0  0  0  0
  149.7911  136.4941  153.5321 H   0  0  0  0  0  0  0  0  0  0  0  0
  150.8677  138.2847  153.5292 H   0  0  0  0  0  0  0  0  0  0  0  0
  153.1503  137.4769  154.0542 H   0  0  0  0  0  0  0  0  0  0  0  0
  153.1642  138.4060  155.5510 H   0  0  0  0  0  0  0  0  0  0  0  0
  153.1045  139.2323  153.9984 H   0  0  0  0  0  0  0  0  0  0  0  0
  150.7463  139.1495  157.2858 H   0  0  0  0  0  0  0  0  0  0  0  0
  149.6116  141.6230  157.4549 H   0  0  0  0  0  0  0  0  0  0  0  0
  149.3608  142.3772  154.8002 H   0  0  0  0  0  0  0  0  0  0  0  0
  145.6313  136.2745  153.6132 H   0  0  0  0  0  0  0  0  0  0  0  0
  145.2008  134.6147  153.9404 H   0  0  0  0  0  0  0  0  0  0  0  0
  147.7858  135.4766  152.8757 H   0  0  0  0  0  0  0  0  0  0  0  0
  1  2  1  0  0  0  0
  1 20  1  0  0  0  0
  1 21  1  0  0  0  0
  1 22  1  0  0  0  0
  2 19  1  0  0  0  0
  2  3  1  0  0  0  0
  2 23  1  0  0  0  0
  3  4  1  0  0  0  0
  3 24  1  0  0  0  0
  3 25  1  0  0  0  0
  4  5  1  0  0  0  0
  4 26  1  0  0  0  0
  4 27  1  0  0  0  0
  5  6  1  0  0  0  0
  5 28  1  0  0  0  0
  5 29  1  0  0  0  0
  6  7  1  0  0  0  0
  6 19  1  0  0  0  0
  6 44  1  0  0  0  0
  7  8  1  0  0  0  0
  7 30  1  0  0  0  0
  7 31  1  0  0  0  0
  8  9  1  0  0  0  0
  8 32  1  0  0  0  0
  8 33  1  0  0  0  0
  9 10  1  0  0  0  0
  9 34  1  0  0  0  0
 10 11  2  0  0  0  0
 10 12  1  0  0  0  0
 12 13  1  0  0  0  0
 12 14  1  0  0  0  0
 12 35  1  0  0  0  0
 13 36  1  0  0  0  0
 13 37  1  0  0  0  0
 13 38  1  0  0  0  0
 14 18  1  0  0  0  0
 14 15  1  0  0  0  0
 15 16  2  0  0  0  0
 15 39  1  0  0  0  0
 16 17  1  0  0  0  0
 16 40  1  0  0  0  0
 17 18  2  0  0  0  0
 17 41  1  0  0  0  0
 19 42  1  0  0  0  0
 19 43  1  0  0  0  0
M  CHG  1   6   1
M  END
> <s_m_source_file>
AV-unprocessed.smi

> <i_m_source_file_index>
3338

> <i_lp_mmshare_version>
43012

> <i_f3d_flags>
0

> <s_epik_input>
W0NIM11bQ0BASF0xW0NIMl1bQ0gyXVtDSDJdTihbQ0gyXTEpW0NIMl1bQ0gyXVtOSF1DKD1PKVtDQEhdKFtDSDNdKW4yW2NIXVtjSF1bY0hdbjI=

> <s_epik_cmdline>
J2VwaWtfcHl0aG9uJywgJy1waCcsICc3LjAnLCAnLXRuJywgJzgnLCAnLW1hJywgJzIwMCcsICctbWV0YWxfYmluZGluZycsICctaW1hZScsICc8aW5maWxlLm1hZT4nLCAnLW9tYWUnLCAnPG91dGZpbGUubWFlPic=

> <r_lp_tautomer_probability>
1

> <r_epik_Ionization_Penalty>
0.00225707

> <r_epik_Ionization_Penalty_Charging>
0.00223709

> <r_epik_Ionization_Penalty_Neutral>
1.99775e-05

> <r_epik_State_Penalty>
0.00153978

> <r_epik_Charging_Adjusted_Penalty>
0.00377687

> <i_epik_Tot_Q>
1

> <i_epik_Tot_abs_Q>
1

> <r_epik_Metal_State_Penalty>
-0

> <b_epik_Metal_Only>
0

> <s_lp_Force_Field>
OPLS_2005

> <r_lp_Energy>
22.9717

> <b_lp_Chiralities_Consistent>
1

> <s_lp_Variant>
AV-unprocessed.smi:3338-2

> <Gold.Version>
5.8.1

> <Gold.Id.Protein>
6NUR|6NUR_protein|mol2

> <Gold.PLP.Fitness>
46.2602

> <Gold.PLP.PLP>
-32.7878

> <Gold.PLP.part.hbond>
-3.5347

> <Gold.PLP.part.metal>
0.0000

> <Gold.PLP.part.buried>
-3.4206

> <Gold.PLP.part.nonpolar>
-26.2985

> <Gold.PLP.part.repulsive>
0.1733

> <Gold.PLP.ligand.clash>
0.0000

> <Gold.PLP.ligand.torsion>
0.6991

> <Gold.PLP.Chemscore.Hbond>
3.9120

> <Gold.PLP.Chemscore.CHOScore>
1.0000

> <Gold.PLP.Chemscore.Metal>
0.0000

> <Gold.Chemscore.Hbonds>
donor molecule, donor type, donor heavy atom, donor atom, acceptor molecule, acceptor atom, score
      L1  H     6    44       P1  7948  2.00
      L1  H     9    34       P1  7948  1.00
      P1  H  7989  7998       L1    18  0.88
      L1  C    17    41       P1  8028  1.00

> <Gold.PLP.Chemscore.Internal.Correction>
0.1346

> <Gold.Rescore>
     Score         DG    S(hbond)    S(metal)    S(lipo)     H(rot)  DE(clash)    DE(int)     intcor
     15.16     -17.14       2.47        0.00      67.53       1.76       0.03       1.94       ----

> <Gold.Chemscore.Fitness>
15.1620

> <Gold.Chemscore.DG>
-17.1367

> <Gold.Chemscore.ZeroCoef>
-5.4800

> <Gold.Chemscore.Hbond>
2.4711

> <Gold.Chemscore.Metal>
0.0000

> <Gold.Chemscore.Lipo>
67.5293

> <Gold.Chemscore.Internal_Hbond>
0.0000

> <Gold.Chemscore.DEClash>
0.0327

> <Gold.Chemscore.DEInternal>
1.9419

> <Gold.Chemscore.Rot>
1.7570

> <Gold.Chemscore.Internal.Correction>
   9.000000E+99

> <Gold.Chemscore.Hbonds>
donor molecule, donor type, donor heavy atom, donor atom, acceptor molecule, acceptor atom, score
      L1  H     6    44       P1  7948  1.00
      L1  H     9    34       P1  7948  0.29
      P1  H  7989  7998       L1    18  0.25

> <Gold.Chemscore.Hbond.Weighted>
-8.2536

> <Gold.Chemscore.Metal.Weighted>
-0.0000

> <Gold.Chemscore.Lipo.Weighted>
-7.9009

> <Gold.Chemscore.Internal_Hbond.Weighted>
0.0000

> <Gold.Chemscore.DEClash.Weighted>
0.0327

> <Gold.Chemscore.DEInternal.Weighted>
1.9419

> <Gold.Chemscore.Rot.Weighted>
4.4979

> <Gold.Chemscore.Internal.Correction.Weighted>
   9.000000E+99

> <Gold.Protein.RotatedTorsions>
[ 6907 6896 6895 6894 ] final  -78.19 input  -60.11 | X-H torsion
[ 7974 7965 7964 7962 ] final   93.74 input  175.53 | X-H torsion
[ 8008 7997 7996 7995 ] final  -96.42 input   59.86 | X-H torsion
[ 10167 10162 10161 10158 ] final -103.63 input  -65.29 | X-H torsion
[ 10718 10713 10712 10709 ] final  -53.01 input   66.30 | X-H torsion
[ 10763 10752 10751 10750 ] final -133.67 input  -60.55 | X-H torsion
[ 11005 11000 10999 10996 ] final   -8.10 input  -57.11 | X-H torsion

> <Gold.Protein.ActiveResidues>
 VAL166  LYS551  ARG553  GLY616  TRP617  ASP618  TYR619  PRO620  LYS621  CYS622 
 ASP623  PHE694  ASN695  SER759  ASP760  ASP761  ALA762  ILE779  LEU786  VAL792 
 PHE793  MET794  SER795  GLU796  ALA797  LYS798  CYS799  TRP800  GLU811  SER814 

> <Gold.Protein.RotatedAtoms>
  150.6979  134.4310  159.5247 H   0  0  0  0  0  0  0  0  0  0  0  0  # atno 6907 bound_to 6896
  152.2036  134.8563  160.0514 H   0  0  0  0  0  0  0  0  0  0  0  0  # atno 6908 bound_to 6896
  151.9474  133.3620  159.4024 H   0  0  0  0  0  0  0  0  0  0  0  0  # atno 6909 bound_to 6896
  145.4749  139.2280  143.2914 H   0  0  0  0  0  0  0  0  0  0  0  0  # atno 7974 bound_to 7965
  154.7742  140.0471  157.1076 H   0  0  0  0  0  0  0  0  0  0  0  0  # atno 8008 bound_to 7997
  154.9783  140.3098  155.4938 H   0  0  0  0  0  0  0  0  0  0  0  0  # atno 8009 bound_to 7997
  156.2926  140.2240  156.4880 H   0  0  0  0  0  0  0  0  0  0  0  0  # atno 8010 bound_to 7997
  140.2180  143.3697  152.0994 H   0  0  0  0  0  0  0  0  0  0  0  0  # atno 10167 bound_to 10162
  156.1571  130.4150  149.9851 H   0  0  0  0  0  0  0  0  0  0  0  0  # atno 10718 bound_to 10713
  154.8729  135.3759  154.4610 H   0  0  0  0  0  0  0  0  0  0  0  0  # atno 10763 bound_to 10752
  153.5278  135.7028  153.5703 H   0  0  0  0  0  0  0  0  0  0  0  0  # atno 10764 bound_to 10752
  153.3922  135.3969  155.1896 H   0  0  0  0  0  0  0  0  0  0  0  0  # atno 10765 bound_to 10752
  140.7199  133.8837  155.8813 H   0  0  0  0  0  0  0  0  0  0  0  0  # atno 11005 bound_to 11000
  146.2375  140.5531  142.8948 LP  0  0  0  0  0  0  0  0  0  0  0  0  # atno 17320 bound_to 7965
  144.7923  140.6055  143.6533 LP  0  0  0  0  0  0  0  0  0  0  0  0  # atno 17321 bound_to 7965
  139.5155  144.6963  151.5620 LP  0  0  0  0  0  0  0  0  0  0  0  0  # atno 17342 bound_to 10162
  140.6276  143.9139  150.6578 LP  0  0  0  0  0  0  0  0  0  0  0  0  # atno 17343 bound_to 10162
  156.7691  130.9179  151.3644 LP  0  0  0  0  0  0  0  0  0  0  0  0  # atno 17370 bound_to 10713
  157.6704  130.9045  150.0027 LP  0  0  0  0  0  0  0  0  0  0  0  0  # atno 17371 bound_to 10713
  141.0012  134.1147  157.4315 LP  0  0  0  0  0  0  0  0  0  0  0  0  # atno 17394 bound_to 11000
  139.8851  135.0069  156.6410 LP  0  0  0  0  0  0  0  0  0  0  0  0  # atno 17395 bound_to 11000

$$$$
