AV-unprocessed.smi:249|AV-procd|sdf|1923|dock5
  -GOLD-   2262021 33D 1   1.00000     0.00000
 Structure written by MMmdl.
 64 67  0  0  0  0  0  0  0  0  2 V2000
  146.5983  129.9160  152.3955 C   0  0  0  0  0  0  0  0  0  0  0  0
  147.2143  131.2588  152.8218 C   0  0  0  0  0  0  0  0  0  0  0  0
  146.6612  131.7941  154.1001 N   0  3  1  0  0  0  0  0  0  0  0  0
  146.9700  130.9030  155.2561 C   0  0  0  0  0  0  0  0  0  0  0  0
  146.3342  131.4035  156.5628 C   0  0  0  0  0  0  0  0  0  0  0  0
  146.8009  132.8275  156.9084 C   0  0  1  0  0  0  0  0  0  0  0  0
  148.2294  132.8814  157.2608 N   0  0  0  0  0  0  0  0  0  0  0  0
  148.6768  132.0425  158.3681 C   0  0  0  0  0  0  0  0  0  0  0  0
  148.7485  134.1245  157.3735 C   0  0  0  0  0  0  0  0  0  0  0  0
  148.4651  134.8173  158.5038 N   0  0  0  0  0  0  0  0  0  0  0  0
  148.9631  136.0462  158.6744 C   0  0  0  0  0  0  0  0  0  0  0  0
  149.7465  136.7514  157.8548 N   0  0  0  0  0  0  0  0  0  0  0  0
  150.0248  136.0570  156.7140 C   0  0  0  0  0  0  0  0  0  0  0  0
  149.5694  134.7482  156.3928 C   0  0  0  0  0  0  0  0  0  0  0  0
  150.0534  134.3677  155.1470 N   0  0  0  0  0  0  0  0  0  0  0  0
  150.7576  135.3941  154.7539 C   0  0  0  0  0  0  0  0  0  0  0  0
  150.7913  136.4533  155.6330 N   0  0  0  0  0  0  0  0  0  0  0  0
  151.4931  137.7116  155.4533 C   0  0  0  0  0  0  0  0  0  0  0  0
  150.6194  138.9419  155.8126 C   0  0  2  0  0  0  0  0  0  0  0  0
  149.6252  139.3314  154.6937 C   0  0  0  0  0  0  0  0  0  0  0  0
  150.1944  140.2378  153.7714 O   0  0  0  0  0  0  0  0  0  0  0  0
  151.4165  140.1616  156.3485 C   0  0  1  0  0  0  0  0  0  0  0  0
  150.6034  141.4460  156.5241 C   0  0  0  0  0  0  0  0  0  0  0  0
  150.9836  141.9469  157.9181 C   0  0  0  0  0  0  0  0  0  0  0  0
  152.2267  141.3194  158.1856 O   0  0  0  0  0  0  0  0  0  0  0  0
  152.1192  139.9910  157.7026 C   0  0  0  0  0  0  0  0  0  0  0  0
  146.4263  133.7129  155.7002 C   0  0  0  0  0  0  0  0  0  0  0  0
  147.0513  133.2159  154.3753 C   0  0  2  0  0  0  0  0  0  0  0  0
  146.6467  134.1871  153.2474 C   0  0  0  0  0  0  0  0  0  0  0  0
  146.9120  129.6590  151.3833 H   0  0  0  0  0  0  0  0  0  0  0  0
  145.5088  129.9596  152.4003 H   0  0  0  0  0  0  0  0  0  0  0  0
  146.9116  129.0934  153.0374 H   0  0  0  0  0  0  0  0  0  0  0  0
  148.2993  131.1720  152.8940 H   0  0  0  0  0  0  0  0  0  0  0  0
  147.0108  131.9496  152.0066 H   0  0  0  0  0  0  0  0  0  0  0  0
  146.5918  129.8982  155.0756 H   0  0  0  0  0  0  0  0  0  0  0  0
  148.0514  130.8151  155.3707 H   0  0  0  0  0  0  0  0  0  0  0  0
  145.2486  131.3971  156.4545 H   0  0  0  0  0  0  0  0  0  0  0  0
  146.5466  130.7096  157.3761 H   0  0  0  0  0  0  0  0  0  0  0  0
  146.2349  133.1669  157.7764 H   0  0  0  0  0  0  0  0  0  0  0  0
  149.6598  132.3405  158.7375 H   0  0  0  0  0  0  0  0  0  0  0  0
  148.7548  131.0042  158.0459 H   0  0  0  0  0  0  0  0  0  0  0  0
  147.9729  132.0916  159.1996 H   0  0  0  0  0  0  0  0  0  0  0  0
  148.6960  136.5344  159.6002 H   0  0  0  0  0  0  0  0  0  0  0  0
  151.2712  135.4100  153.8034 H   0  0  0  0  0  0  0  0  0  0  0  0
  152.3947  137.6772  156.0641 H   0  0  0  0  0  0  0  0  0  0  0  0
  151.8284  137.7613  154.4179 H   0  0  0  0  0  0  0  0  0  0  0  0
  149.9902  138.6315  156.6481 H   0  0  0  0  0  0  0  0  0  0  0  0
  149.2932  138.4480  154.1479 H   0  0  0  0  0  0  0  0  0  0  0  0
  148.7282  139.7813  155.1200 H   0  0  0  0  0  0  0  0  0  0  0  0
  149.8601  140.0395  152.9098 H   0  0  0  0  0  0  0  0  0  0  0  0
  152.1933  140.3954  155.6187 H   0  0  0  0  0  0  0  0  0  0  0  0
  150.8939  142.1740  155.7655 H   0  0  0  0  0  0  0  0  0  0  0  0
  149.5266  141.3040  156.4357 H   0  0  0  0  0  0  0  0  0  0  0  0
  151.0607  143.0331  157.9700 H   0  0  0  0  0  0  0  0  0  0  0  0
  150.2501  141.6209  158.6572 H   0  0  0  0  0  0  0  0  0  0  0  0
  151.5295  139.4091  158.4105 H   0  0  0  0  0  0  0  0  0  0  0  0
  153.0996  139.5231  157.6110 H   0  0  0  0  0  0  0  0  0  0  0  0
  145.3401  133.7223  155.5965 H   0  0  0  0  0  0  0  0  0  0  0  0
  146.7001  134.7527  155.8830 H   0  0  0  0  0  0  0  0  0  0  0  0
  148.1377  133.2513  154.4693 H   0  0  0  0  0  0  0  0  0  0  0  0
  146.8173  135.2218  153.5472 H   0  0  0  0  0  0  0  0  0  0  0  0
  145.5903  134.0887  152.9954 H   0  0  0  0  0  0  0  0  0  0  0  0
  147.2318  134.0402  152.3403 H   0  0  0  0  0  0  0  0  0  0  0  0
  145.6562  131.7939  153.9983 H   0  0  0  0  0  0  0  0  0  0  0  0
  1  2  1  0  0  0  0
  1 30  1  0  0  0  0
  1 31  1  0  0  0  0
  1 32  1  0  0  0  0
  2  3  1  0  0  0  0
  2 33  1  0  0  0  0
  2 34  1  0  0  0  0
  3 28  1  0  0  0  0
  3  4  1  0  0  0  0
  3 64  1  0  0  0  0
  4  5  1  0  0  0  0
  4 35  1  0  0  0  0
  4 36  1  0  0  0  0
  5  6  1  0  0  0  0
  5 37  1  0  0  0  0
  5 38  1  0  0  0  0
  6  7  1  0  0  0  0
  6 27  1  0  0  0  0
  6 39  1  0  0  0  0
  7  8  1  0  0  0  0
  7  9  1  0  0  0  0
  8 40  1  0  0  0  0
  8 41  1  0  0  0  0
  8 42  1  0  0  0  0
  9 14  1  0  0  0  0
  9 10  2  0  0  0  0
 10 11  1  0  0  0  0
 11 12  2  0  0  0  0
 11 43  1  0  0  0  0
 12 13  1  0  0  0  0
 13 17  1  0  0  0  0
 13 14  2  0  0  0  0
 14 15  1  0  0  0  0
 15 16  2  0  0  0  0
 16 17  1  0  0  0  0
 16 44  1  0  0  0  0
 17 18  1  0  0  0  0
 18 19  1  0  0  0  0
 18 45  1  0  0  0  0
 18 46  1  0  0  0  0
 19 20  1  0  0  0  0
 19 22  1  0  0  0  0
 19 47  1  0  0  0  0
 20 21  1  0  0  0  0
 20 48  1  0  0  0  0
 20 49  1  0  0  0  0
 21 50  1  0  0  0  0
 22 26  1  0  0  0  0
 22 23  1  0  0  0  0
 22 51  1  0  0  0  0
 23 24  1  0  0  0  0
 23 52  1  0  0  0  0
 23 53  1  0  0  0  0
 24 25  1  0  0  0  0
 24 54  1  0  0  0  0
 24 55  1  0  0  0  0
 25 26  1  0  0  0  0
 26 56  1  0  0  0  0
 26 57  1  0  0  0  0
 27 28  1  0  0  0  0
 27 58  1  0  0  0  0
 27 59  1  0  0  0  0
 28 29  1  0  0  0  0
 28 60  1  0  0  0  0
 29 61  1  0  0  0  0
 29 62  1  0  0  0  0
 29 63  1  0  0  0  0
M  CHG  1   3   1
M  END
> <s_m_source_file>
AV-unprocessed.smi

> <i_m_source_file_index>
249

> <i_lp_mmshare_version>
43012

> <i_f3d_flags>
0

> <s_epik_input>
W0NIM11bQ0gyXU4xW0NIMl1bQ0gyXVtDQEhdKFtDSDJdW0NASF0xW0NIM10pTihbQ0gzXSljKG5bY0hdbjIpYyhjMjMpbltjSF1uM1tDSDJdW0NASF0oW0NIMl1bT0hdKVtDQEBIXTRbQ0gyXVtDSDJdT1tDSDJdNA==

> <s_epik_cmdline>
J2VwaWtfcHl0aG9uJywgJy1waCcsICc3LjAnLCAnLXRuJywgJzgnLCAnLW1hJywgJzIwMCcsICctbWV0YWxfYmluZGluZycsICctaW1hZScsICc8aW5maWxlLm1hZT4nLCAnLW9tYWUnLCAnPG91dGZpbGUubWFlPic=

> <r_lp_tautomer_probability>
1

> <r_epik_Ionization_Penalty>
0.00294688

> <r_epik_Ionization_Penalty_Charging>
0.00169971

> <r_epik_Ionization_Penalty_Neutral>
0.00124717

> <r_epik_State_Penalty>
-0

> <r_epik_Charging_Adjusted_Penalty>
0.00169971

> <i_epik_Tot_Q>
1

> <i_epik_Tot_abs_Q>
1

> <r_epik_Metal_State_Penalty>
-0

> <b_epik_Metal_Only>
0

> <s_lp_Force_Field>
OPLS_2005

> <r_lp_Energy>
58.1803

> <b_lp_Chiralities_Consistent>
1

> <s_lp_Variant>
AV-unprocessed.smi:249-26

> <Gold.Version>
5.8.1

> <Gold.Id.Protein>
6NUR|6NUR_protein|mol2

> <Gold.PLP.Fitness>
36.3731

> <Gold.PLP.PLP>
-30.0696

> <Gold.PLP.part.hbond>
-1.8481

> <Gold.PLP.part.metal>
0.0000

> <Gold.PLP.part.buried>
-3.9906

> <Gold.PLP.part.nonpolar>
-23.4252

> <Gold.PLP.part.repulsive>
0.1056

> <Gold.PLP.ligand.clash>
0.0000

> <Gold.PLP.ligand.torsion>
1.1946

> <Gold.PLP.Chemscore.Hbond>
1.7040

> <Gold.PLP.Chemscore.CHOScore>
0.9931

> <Gold.PLP.Chemscore.Metal>
0.0000

> <Gold.Chemscore.Hbonds>
donor molecule, donor type, donor heavy atom, donor atom, acceptor molecule, acceptor atom, score
      L1  H    21    50       P1  7957  1.00
      P1  H  7989  7998       L1    21  0.78
      L1  C    16    44       P1  7949  1.00

> <Gold.PLP.Chemscore.Internal.Correction>
0.6013

> <Gold.Rescore>
     Score         DG    S(hbond)    S(metal)    S(lipo)     H(rot)  DE(clash)    DE(int)     intcor
     10.50     -11.69       1.58        0.00      71.39       2.90       0.02       1.16       ----

> <Gold.Chemscore.Fitness>
10.5032

> <Gold.Chemscore.DG>
-11.6863

> <Gold.Chemscore.ZeroCoef>
-5.4800

> <Gold.Chemscore.Hbond>
1.5807

> <Gold.Chemscore.Metal>
0.0000

> <Gold.Chemscore.Lipo>
71.3864

> <Gold.Chemscore.Internal_Hbond>
0.0000

> <Gold.Chemscore.DEClash>
0.0227

> <Gold.Chemscore.DEInternal>
1.1604

> <Gold.Chemscore.Rot>
2.9006

> <Gold.Chemscore.Internal.Correction>
   9.000000E+99

> <Gold.Chemscore.Hbonds>
donor molecule, donor type, donor heavy atom, donor atom, acceptor molecule, acceptor atom, score
      L1  H    21    50       P1  7957  1.00
      P1  H  7989  7998       L1    21  0.30

> <Gold.Chemscore.Hbond.Weighted>
-5.2797

> <Gold.Chemscore.Metal.Weighted>
-0.0000

> <Gold.Chemscore.Lipo.Weighted>
-8.3522

> <Gold.Chemscore.Internal_Hbond.Weighted>
0.0000

> <Gold.Chemscore.DEClash.Weighted>
0.0227

> <Gold.Chemscore.DEInternal.Weighted>
1.1604

> <Gold.Chemscore.Rot.Weighted>
7.4256

> <Gold.Chemscore.Internal.Correction.Weighted>
   9.000000E+99

> <Gold.Protein.RotatedTorsions>
[ 6907 6896 6895 6894 ] final  -72.37 input  -60.11 | X-H torsion
[ 7974 7965 7964 7962 ] final  155.11 input  175.53 | X-H torsion
[ 8008 7997 7996 7995 ] final  -45.31 input   59.86 | X-H torsion
[ 10167 10162 10161 10158 ] final  116.91 input  -65.29 | X-H torsion
[ 10718 10713 10712 10709 ] final   28.69 input   66.30 | X-H torsion
[ 10763 10752 10751 10750 ] final   22.91 input  -60.55 | X-H torsion
[ 11005 11000 10999 10996 ] final  -81.11 input  -57.11 | X-H torsion

> <Gold.Protein.ActiveResidues>
 VAL166  LYS551  ARG553  GLY616  TRP617  ASP618  TYR619  PRO620  LYS621  CYS622 
 ASP623  PHE694  ASN695  SER759  ASP760  ASP761  ALA762  ILE779  LEU786  VAL792 
 PHE793  MET794  SER795  GLU796  ALA797  LYS798  CYS799  TRP800  GLU811  SER814 

> <Gold.Protein.RotatedAtoms>
  150.7173  134.5172  159.5635 H   0  0  0  0  0  0  0  0  0  0  0  0  # atno 6907 bound_to 6896
  152.2736  134.7903  160.0419 H   0  0  0  0  0  0  0  0  0  0  0  0  # atno 6908 bound_to 6896
  151.8575  133.3415  159.3729 H   0  0  0  0  0  0  0  0  0  0  0  0  # atno 6909 bound_to 6896
  144.8045  139.7024  143.6167 H   0  0  0  0  0  0  0  0  0  0  0  0  # atno 7974 bound_to 7965
  154.4000  140.1400  156.3826 H   0  0  0  0  0  0  0  0  0  0  0  0  # atno 8008 bound_to 7997
  155.7989  140.3476  155.5371 H   0  0  0  0  0  0  0  0  0  0  0  0  # atno 8009 bound_to 7997
  155.8503  140.0940  157.1669 H   0  0  0  0  0  0  0  0  0  0  0  0  # atno 8010 bound_to 7997
  139.6214  144.7101  151.2626 H   0  0  0  0  0  0  0  0  0  0  0  0  # atno 10167 bound_to 10162
  157.2368  130.7050  149.6339 H   0  0  0  0  0  0  0  0  0  0  0  0  # atno 10718 bound_to 10713
  153.0879  135.6638  153.9913 H   0  0  0  0  0  0  0  0  0  0  0  0  # atno 10763 bound_to 10752
  153.9517  135.2983  155.3439 H   0  0  0  0  0  0  0  0  0  0  0  0  # atno 10764 bound_to 10752
  154.7289  135.5131  153.9005 H   0  0  0  0  0  0  0  0  0  0  0  0  # atno 10765 bound_to 10752
  141.1667  133.7181  156.8374 H   0  0  0  0  0  0  0  0  0  0  0  0  # atno 11005 bound_to 11000
  146.2334  139.5858  142.9540 LP  0  0  0  0  0  0  0  0  0  0  0  0  # atno 17320 bound_to 7965
  145.5471  141.0416  143.2299 LP  0  0  0  0  0  0  0  0  0  0  0  0  # atno 17321 bound_to 7965
  140.7384  143.6648  150.8132 LP  0  0  0  0  0  0  0  0  0  0  0  0  # atno 17342 bound_to 10162
  140.0259  143.5493  152.2781 LP  0  0  0  0  0  0  0  0  0  0  0  0  # atno 17343 bound_to 10162
  155.9672  130.4471  150.5567 LP  0  0  0  0  0  0  0  0  0  0  0  0  # atno 17370 bound_to 10713
  157.3421  131.0718  151.1780 LP  0  0  0  0  0  0  0  0  0  0  0  0  # atno 17371 bound_to 10713
  140.2008  134.8898  157.3166 LP  0  0  0  0  0  0  0  0  0  0  0  0  # atno 17394 bound_to 11000
  140.2190  134.4047  155.7575 LP  0  0  0  0  0  0  0  0  0  0  0  0  # atno 17395 bound_to 11000

$$$$
