AV-unprocessed.smi:1907|AV-procd|sdf|7732|dock5
  -GOLD-   22720 9473D 1   1.00000     0.00000
 Structure written by MMmdl.
 31 32  0  0  0  0  0  0  0  0  2 V2000
  147.5493  141.0144  155.1553 N   0  0  0  0  0  0  0  0  0  0  0  0
  148.5830  140.6951  154.3714 C   0  0  0  0  0  0  0  0  0  0  0  0
  149.1857  141.5338  153.7046 O   0  0  0  0  0  0  0  0  0  0  0  0
  149.0094  139.2255  154.3398 C   0  0  0  0  0  0  0  0  0  0  0  0
  150.4249  139.0761  154.8173 C   0  0  0  0  0  0  0  0  0  0  0  0
  151.4101  138.3078  154.2527 C   0  0  0  0  0  0  0  0  0  0  0  0
  152.9046  138.4257  155.1366 S   0  0  0  0  0  0  0  0  0  0  0  0
  152.1418  139.5572  156.2556 C   0  0  0  0  0  0  0  0  0  0  0  0
  152.7465  140.1155  157.3185 N   0  5  0  0  0  0  0  0  0  0  0  0
  152.1556  141.0235  158.1447 C   0  0  0  0  0  0  0  0  0  0  0  0
  150.9423  141.1282  158.3212 O   0  0  0  0  0  0  0  0  0  0  0  0
  153.1042  141.9806  158.9198 C   0  0  0  0  0  0  0  0  0  0  0  0
  152.9846  141.7903  160.4509 C   0  0  0  0  0  0  0  0  0  0  0  0
  152.4983  143.1217  161.0387 C   0  0  0  0  0  0  0  0  0  0  0  0
  151.9086  143.8929  159.8616 C   0  0  0  0  0  0  0  0  0  0  0  0
  152.7817  143.4711  158.6819 C   0  0  0  0  0  0  0  0  0  0  0  0
  150.8567  139.7706  155.9511 N   0  0  0  0  0  0  0  0  0  0  0  0
  147.2199  141.9679  155.1909 H   0  0  0  0  0  0  0  0  0  0  0  0
  147.0876  140.2947  155.6934 H   0  0  0  0  0  0  0  0  0  0  0  0
  148.3325  138.6409  154.9641 H   0  0  0  0  0  0  0  0  0  0  0  0
  148.8984  138.8412  153.3248 H   0  0  0  0  0  0  0  0  0  0  0  0
  151.3458  137.6774  153.3788 H   0  0  0  0  0  0  0  0  0  0  0  0
  154.1358  141.8335  158.5994 H   0  0  0  0  0  0  0  0  0  0  0  0
  152.2764  140.9992  160.7029 H   0  0  0  0  0  0  0  0  0  0  0  0
  153.9417  141.5023  160.8871 H   0  0  0  0  0  0  0  0  0  0  0  0
  151.7797  142.9833  161.8469 H   0  0  0  0  0  0  0  0  0  0  0  0
  153.3481  143.6723  161.4439 H   0  0  0  0  0  0  0  0  0  0  0  0
  150.8772  143.5811  159.6919 H   0  0  0  0  0  0  0  0  0  0  0  0
  151.9106  144.9712  160.0218 H   0  0  0  0  0  0  0  0  0  0  0  0
  153.7087  144.0456  158.6956 H   0  0  0  0  0  0  0  0  0  0  0  0
  152.3040  143.6742  157.7224 H   0  0  0  0  0  0  0  0  0  0  0  0
  1  2  1  0  0  0  0
  1 18  1  0  0  0  0
  1 19  1  0  0  0  0
  2  3  2  0  0  0  0
  2  4  1  0  0  0  0
  4  5  1  0  0  0  0
  4 20  1  0  0  0  0
  4 21  1  0  0  0  0
  5 17  1  0  0  0  0
  5  6  2  0  0  0  0
  6  7  1  0  0  0  0
  6 22  1  0  0  0  0
  7  8  1  0  0  0  0
  8  9  1  0  0  0  0
  8 17  2  0  0  0  0
  9 10  1  0  0  0  0
 10 11  2  0  0  0  0
 10 12  1  0  0  0  0
 12 16  1  0  0  0  0
 12 13  1  0  0  0  0
 12 23  1  0  0  0  0
 13 14  1  0  0  0  0
 13 24  1  0  0  0  0
 13 25  1  0  0  0  0
 14 15  1  0  0  0  0
 14 26  1  0  0  0  0
 14 27  1  0  0  0  0
 15 16  1  0  0  0  0
 15 28  1  0  0  0  0
 15 29  1  0  0  0  0
 16 30  1  0  0  0  0
 16 31  1  0  0  0  0
M  CHG  1   9  -1
M  END
> <s_m_source_file>
AV-unprocessed.smi

> <i_m_source_file_index>
1907

> <i_lp_mmshare_version>
43012

> <i_f3d_flags>
0

> <s_epik_input>
W05IMl1DKD1PKVtDSDJdYzFbY0hdc2MobjEpW05IXUMoPU8pW0NIXTJbQ0gyXVtDSDJdW0NIMl1bQ0gyXTI=

> <s_epik_cmdline>
J2VwaWtfcHl0aG9uJywgJy1waCcsICc3LjAnLCAnLXRuJywgJzgnLCAnLW1hJywgJzIwMCcsICctbWV0YWxfYmluZGluZycsICctaW1hZScsICc8aW5maWxlLm1hZT4nLCAnLW9tYWUnLCAnPG91dGZpbGUubWFlPic=

> <r_lp_tautomer_probability>
1

> <r_epik_Ionization_Penalty>
5.3563

> <r_epik_Ionization_Penalty_Charging>
4.90463

> <r_epik_Ionization_Penalty_Neutral>
0.451677

> <r_epik_State_Penalty>
4.90447

> <r_epik_Charging_Adjusted_Penalty>
9.8091

> <i_epik_Tot_Q>
-1

> <i_epik_Tot_abs_Q>
1

> <r_epik_Metal_State_Penalty>
1.05508

> <b_epik_Metal_Only>
1

> <s_lp_Force_Field>
OPLS_2005

> <r_lp_Energy>
19.4478

> <b_lp_Chiralities_Consistent>
1

> <s_lp_Variant>
AV-unprocessed.smi:1907-2

> <Gold.Version>
5.8.1

> <Gold.Id.Protein>
6NUR|6NUR_protein|mol2

> <Gold.PLP.Fitness>
48.1499

> <Gold.PLP.PLP>
-38.0552

> <Gold.PLP.part.hbond>
-3.0000

> <Gold.PLP.part.metal>
0.0000

> <Gold.PLP.part.buried>
-3.5485

> <Gold.PLP.part.nonpolar>
-31.1812

> <Gold.PLP.part.repulsive>
0.4885

> <Gold.PLP.ligand.clash>
0.0000

> <Gold.PLP.ligand.torsion>
0.3614

> <Gold.PLP.Chemscore.Hbond>
2.6880

> <Gold.PLP.Chemscore.CHOScore>
0.9054

> <Gold.PLP.Chemscore.Metal>
0.0000

> <Gold.Chemscore.Hbonds>
donor molecule, donor type, donor heavy atom, donor atom, acceptor molecule, acceptor atom, score
      P1  H  7997  8009       L1     9  2.00
      P1  H  8011  8017       L1     3  0.75
      L1  C     6    22       P1  7949  0.98

> <Gold.PLP.Chemscore.Internal.Correction>
0.0373

> <Gold.Rescore>
     Score         DG    S(hbond)    S(metal)    S(lipo)     H(rot)  DE(clash)    DE(int)     intcor
     13.20     -15.11       1.29        0.00      86.51       1.87       0.03       1.88       ----

> <Gold.Chemscore.Fitness>
13.1953

> <Gold.Chemscore.DG>
-15.1089

> <Gold.Chemscore.ZeroCoef>
-5.4800

> <Gold.Chemscore.Hbond>
1.2892

> <Gold.Chemscore.Metal>
0.0000

> <Gold.Chemscore.Lipo>
86.5055

> <Gold.Chemscore.Internal_Hbond>
0.0000

> <Gold.Chemscore.DEClash>
0.0333

> <Gold.Chemscore.DEInternal>
1.8803

> <Gold.Chemscore.Rot>
1.8743

> <Gold.Chemscore.Internal.Correction>
   9.000000E+99

> <Gold.Chemscore.Hbonds>
donor molecule, donor type, donor heavy atom, donor atom, acceptor molecule, acceptor atom, score
      P1  H  7997  8009       L1     9  0.33
      P1  H  8011  8017       L1     3  0.76

> <Gold.Chemscore.Hbond.Weighted>
-4.3060

> <Gold.Chemscore.Metal.Weighted>
-0.0000

> <Gold.Chemscore.Lipo.Weighted>
-10.1211

> <Gold.Chemscore.Internal_Hbond.Weighted>
0.0000

> <Gold.Chemscore.DEClash.Weighted>
0.0333

> <Gold.Chemscore.DEInternal.Weighted>
1.8803

> <Gold.Chemscore.Rot.Weighted>
4.7982

> <Gold.Chemscore.Internal.Correction.Weighted>
   9.000000E+99

> <Gold.Protein.RotatedTorsions>
[ 6907 6896 6895 6894 ] final   53.91 input  -60.11 | X-H torsion
[ 7974 7965 7964 7962 ] final  114.27 input  175.53 | X-H torsion
[ 8008 7997 7996 7995 ] final  166.74 input   59.86 | X-H torsion
[ 10167 10162 10161 10158 ] final   77.72 input  -65.29 | X-H torsion
[ 10718 10713 10712 10709 ] final   37.33 input   66.30 | X-H torsion
[ 10763 10752 10751 10750 ] final  -46.17 input  -60.55 | X-H torsion
[ 11005 11000 10999 10996 ] final   -8.01 input  -57.11 | X-H torsion

> <Gold.Protein.ActiveResidues>
 VAL166  LYS551  ARG553  GLY616  TRP617  ASP618  TYR619  PRO620  LYS621  CYS622 
 ASP623  PHE694  ASN695  SER759  ASP760  ASP761  ALA762  ILE779  LEU786  VAL792 
 PHE793  MET794  SER795  GLU796  ALA797  LYS798  CYS799  TRP800  GLU811  SER814 

> <Gold.Protein.RotatedAtoms>
  152.3385  134.7166  160.0270 H   0  0  0  0  0  0  0  0  0  0  0  0  # atno 6907 bound_to 6896
  151.7559  133.3325  159.3412 H   0  0  0  0  0  0  0  0  0  0  0  0  # atno 6908 bound_to 6896
  150.7465  134.6082  159.6117 H   0  0  0  0  0  0  0  0  0  0  0  0  # atno 6909 bound_to 6896
  145.2065  139.2927  143.4291 H   0  0  0  0  0  0  0  0  0  0  0  0  # atno 7974 bound_to 7965
  156.1693  140.1635  156.8476 H   0  0  0  0  0  0  0  0  0  0  0  0  # atno 8008 bound_to 7997
  154.5239  140.0772  156.8258 H   0  0  0  0  0  0  0  0  0  0  0  0  # atno 8009 bound_to 7997
  155.3547  140.3392  155.4242 H   0  0  0  0  0  0  0  0  0  0  0  0  # atno 8010 bound_to 7997
  139.9785  144.5843  150.7921 H   0  0  0  0  0  0  0  0  0  0  0  0  # atno 10167 bound_to 10162
  157.3457  130.7571  149.6943 H   0  0  0  0  0  0  0  0  0  0  0  0  # atno 10718 bound_to 10713
  154.0406  135.6644  153.4789 H   0  0  0  0  0  0  0  0  0  0  0  0  # atno 10763 bound_to 10752
  153.0503  135.5089  154.7846 H   0  0  0  0  0  0  0  0  0  0  0  0  # atno 10764 bound_to 10752
  154.6820  135.3046  154.9565 H   0  0  0  0  0  0  0  0  0  0  0  0  # atno 10765 bound_to 10752
  140.7189  133.8845  155.8806 H   0  0  0  0  0  0  0  0  0  0  0  0  # atno 11005 bound_to 11000
  146.3407  140.2327  142.8593 LP  0  0  0  0  0  0  0  0  0  0  0  0  # atno 17320 bound_to 7965
  144.9897  140.8536  143.5347 LP  0  0  0  0  0  0  0  0  0  0  0  0  # atno 17321 bound_to 7965
  140.7497  143.2943  151.3246 LP  0  0  0  0  0  0  0  0  0  0  0  0  # atno 17342 bound_to 10162
  139.6427  144.0509  152.2567 LP  0  0  0  0  0  0  0  0  0  0  0  0  # atno 17343 bound_to 10162
  155.9714  130.4155  150.4184 LP  0  0  0  0  0  0  0  0  0  0  0  0  # atno 17370 bound_to 10713
  157.2239  131.0489  151.2531 LP  0  0  0  0  0  0  0  0  0  0  0  0  # atno 17371 bound_to 10713
  141.0021  134.1136  157.4307 LP  0  0  0  0  0  0  0  0  0  0  0  0  # atno 17394 bound_to 11000
  139.8853  135.0071  156.6425 LP  0  0  0  0  0  0  0  0  0  0  0  0  # atno 17395 bound_to 11000

$$$$
