AV-unprocessed.smi:1509|AV-procd|sdf|6090|dock1
  -GOLD-   22720 6213D 1   1.00000     0.00000
 Structure written by MMmdl.
 42 43  0  0  0  0  0  0  0  0  2 V2000
  151.9649  144.5199  157.4858 C   0  0  0  0  0  0  0  0  0  0  0  0
  151.8348  143.8187  158.8455 C   0  0  2  0  0  0  0  0  0  0  0  0
  151.6690  144.8347  159.9877 C   0  0  0  0  0  0  0  0  0  0  0  0
  151.5673  144.1075  161.3340 C   0  0  0  0  0  0  0  0  0  0  0  0
  152.7729  143.1792  161.5498 C   0  0  0  0  0  0  0  0  0  0  0  0
  152.9081  142.2062  160.4349 N   0  3  2  0  0  0  0  0  0  0  0  0
  153.9857  141.2153  160.6855 C   0  0  0  0  0  0  0  0  0  0  0  0
  153.9969  140.0785  159.6489 C   0  0  0  0  0  0  0  0  0  0  0  0
  152.6886  139.2701  159.6598 C   0  0  0  0  0  0  0  0  0  0  0  0
  152.4146  138.6637  158.3621 N   0  0  0  0  0  0  0  0  0  0  0  0
  152.3130  137.3445  158.1359 C   0  0  0  0  0  0  0  0  0  0  0  0
  152.4642  136.4946  159.0132 O   0  0  0  0  0  0  0  0  0  0  0  0
  151.9854  136.9167  156.7046 C   0  0  0  0  0  0  0  0  0  0  0  0
  151.5637  138.0529  155.9069 N   0  0  0  0  0  0  0  0  0  0  0  0
  152.2620  139.0562  155.3709 C   0  0  0  0  0  0  0  0  0  0  0  0
  151.4813  139.8985  154.7116 N   0  0  0  0  0  0  0  0  0  0  0  0
  150.2204  139.3480  154.8702 N   0  0  0  0  0  0  0  0  0  0  0  0
  150.2632  138.2526  155.5781 N   0  0  0  0  0  0  0  0  0  0  0  0
  153.0389  142.8956  159.1223 C   0  0  0  0  0  0  0  0  0  0  0  0
  152.8493  145.1568  157.4504 H   0  0  0  0  0  0  0  0  0  0  0  0
  151.0957  145.1459  157.2822 H   0  0  0  0  0  0  0  0  0  0  0  0
  152.0441  143.7949  156.6752 H   0  0  0  0  0  0  0  0  0  0  0  0
  150.9368  143.1998  158.8103 H   0  0  0  0  0  0  0  0  0  0  0  0
  152.5176  145.5204  160.0040 H   0  0  0  0  0  0  0  0  0  0  0  0
  150.7787  145.4439  159.8273 H   0  0  0  0  0  0  0  0  0  0  0  0
  151.5057  144.8335  162.1451 H   0  0  0  0  0  0  0  0  0  0  0  0
  150.6449  143.5261  161.3686 H   0  0  0  0  0  0  0  0  0  0  0  0
  153.6895  143.7650  161.6372 H   0  0  0  0  0  0  0  0  0  0  0  0
  152.6454  142.6460  162.4927 H   0  0  0  0  0  0  0  0  0  0  0  0
  154.9529  141.7192  160.7201 H   0  0  0  0  0  0  0  0  0  0  0  0
  153.8381  140.7676  161.6693 H   0  0  0  0  0  0  0  0  0  0  0  0
  154.1559  140.4958  158.6536 H   0  0  0  0  0  0  0  0  0  0  0  0
  154.8322  139.4052  159.8382 H   0  0  0  0  0  0  0  0  0  0  0  0
  152.7225  138.4974  160.4297 H   0  0  0  0  0  0  0  0  0  0  0  0
  151.8510  139.9211  159.9112 H   0  0  0  0  0  0  0  0  0  0  0  0
  152.2755  139.2918  157.5836 H   0  0  0  0  0  0  0  0  0  0  0  0
  152.8529  136.4577  156.2280 H   0  0  0  0  0  0  0  0  0  0  0  0
  151.1922  136.1677  156.7189 H   0  0  0  0  0  0  0  0  0  0  0  0
  153.3320  139.1698  155.4653 H   0  0  0  0  0  0  0  0  0  0  0  0
  153.1112  142.1624  158.3199 H   0  0  0  0  0  0  0  0  0  0  0  0
  153.9664  143.4707  159.1059 H   0  0  0  0  0  0  0  0  0  0  0  0
  152.0417  141.6876  160.4101 H   0  0  0  0  0  0  0  0  0  0  0  0
  1  2  1  0  0  0  0
  1 20  1  0  0  0  0
  1 21  1  0  0  0  0
  1 22  1  0  0  0  0
  2 19  1  0  0  0  0
  2  3  1  0  0  0  0
  2 23  1  0  0  0  0
  3  4  1  0  0  0  0
  3 24  1  0  0  0  0
  3 25  1  0  0  0  0
  4  5  1  0  0  0  0
  4 26  1  0  0  0  0
  4 27  1  0  0  0  0
  5  6  1  0  0  0  0
  5 28  1  0  0  0  0
  5 29  1  0  0  0  0
  6  7  1  0  0  0  0
  6 19  1  0  0  0  0
  6 42  1  0  0  0  0
  7  8  1  0  0  0  0
  7 30  1  0  0  0  0
  7 31  1  0  0  0  0
  8  9  1  0  0  0  0
  8 32  1  0  0  0  0
  8 33  1  0  0  0  0
  9 10  1  0  0  0  0
  9 34  1  0  0  0  0
  9 35  1  0  0  0  0
 10 11  1  0  0  0  0
 10 36  1  0  0  0  0
 11 12  2  0  0  0  0
 11 13  1  0  0  0  0
 13 14  1  0  0  0  0
 13 37  1  0  0  0  0
 13 38  1  0  0  0  0
 14 18  1  0  0  0  0
 14 15  1  0  0  0  0
 15 16  2  0  0  0  0
 15 39  1  0  0  0  0
 16 17  1  0  0  0  0
 17 18  2  0  0  0  0
 19 40  1  0  0  0  0
 19 41  1  0  0  0  0
M  CHG  1   6   1
M  END
> <s_m_source_file>
AV-unprocessed.smi

> <i_m_source_file_index>
1509

> <i_lp_mmshare_version>
43012

> <i_f3d_flags>
0

> <s_epik_input>
W0NIM11bQ0BASF0xW0NIMl1bQ0gyXVtDSDJdTihbQ0gyXTEpW0NIMl1bQ0gyXVtDSDJdW05IXUMoPU8pW0NIMl1uMltjSF1ubm4y

> <s_epik_cmdline>
J2VwaWtfcHl0aG9uJywgJy1waCcsICc3LjAnLCAnLXRuJywgJzgnLCAnLW1hJywgJzIwMCcsICctbWV0YWxfYmluZGluZycsICctaW1hZScsICc8aW5maWxlLm1hZT4nLCAnLW9tYWUnLCAnPG91dGZpbGUubWFlPic=

> <r_lp_tautomer_probability>
1

> <r_epik_Ionization_Penalty>
0.00044216

> <r_epik_Ionization_Penalty_Charging>
0.000440775

> <r_epik_Ionization_Penalty_Neutral>
1.38512e-06

> <r_epik_State_Penalty>
0.000271914

> <r_epik_Charging_Adjusted_Penalty>
0.000712689

> <i_epik_Tot_Q>
1

> <i_epik_Tot_abs_Q>
1

> <r_epik_Metal_State_Penalty>
-0

> <b_epik_Metal_Only>
0

> <s_lp_Force_Field>
OPLS_2005

> <r_lp_Energy>
19.8667

> <b_lp_Chiralities_Consistent>
1

> <s_lp_Variant>
AV-unprocessed.smi:1509-1

> <Gold.Version>
5.8.1

> <Gold.Id.Protein>
6NUR|6NUR_protein|mol2

> <Gold.PLP.Fitness>
43.3368

> <Gold.PLP.PLP>
-38.7973

> <Gold.PLP.part.hbond>
-1.9617

> <Gold.PLP.part.metal>
0.0000

> <Gold.PLP.part.buried>
-7.0395

> <Gold.PLP.part.nonpolar>
-30.5673

> <Gold.PLP.part.repulsive>
0.3464

> <Gold.PLP.ligand.clash>
0.0000

> <Gold.PLP.ligand.torsion>
0.5072

> <Gold.PLP.Chemscore.Hbond>
1.8320

> <Gold.PLP.Chemscore.CHOScore>
0.0000

> <Gold.PLP.Chemscore.Metal>
0.0000

> <Gold.Chemscore.Hbonds>
donor molecule, donor type, donor heavy atom, donor atom, acceptor molecule, acceptor atom, score
      P1  H  6896  6909       L1    12  0.83
      P1  H  7989  7998       L1    16  1.00

> <Gold.PLP.Chemscore.Internal.Correction>
0.0579

> <Gold.Rescore>
     Score         DG    S(hbond)    S(metal)    S(lipo)     H(rot)  DE(clash)    DE(int)     intcor
     15.30     -16.53       1.95        0.00     103.72       2.97       0.10       1.13       ----

> <Gold.Chemscore.Fitness>
15.2984

> <Gold.Chemscore.DG>
-16.5256

> <Gold.Chemscore.ZeroCoef>
-5.4800

> <Gold.Chemscore.Hbond>
1.9486

> <Gold.Chemscore.Metal>
0.0000

> <Gold.Chemscore.Lipo>
103.7192

> <Gold.Chemscore.Internal_Hbond>
0.0000

> <Gold.Chemscore.DEClash>
0.0995

> <Gold.Chemscore.DEInternal>
1.1277

> <Gold.Chemscore.Rot>
2.9680

> <Gold.Chemscore.Internal.Correction>
   9.000000E+99

> <Gold.Chemscore.Hbonds>
donor molecule, donor type, donor heavy atom, donor atom, acceptor molecule, acceptor atom, score
      P1  H  6896  6909       L1    12  0.81
      P1  H  7989  7998       L1    16  0.89

> <Gold.Chemscore.Hbond.Weighted>
-6.5084

> <Gold.Chemscore.Metal.Weighted>
-0.0000

> <Gold.Chemscore.Lipo.Weighted>
-12.1351

> <Gold.Chemscore.Internal_Hbond.Weighted>
0.0000

> <Gold.Chemscore.DEClash.Weighted>
0.0995

> <Gold.Chemscore.DEInternal.Weighted>
1.1277

> <Gold.Chemscore.Rot.Weighted>
7.5980

> <Gold.Chemscore.Internal.Correction.Weighted>
   9.000000E+99

> <Gold.Protein.RotatedTorsions>
[ 6907 6896 6895 6894 ] final  136.46 input  -60.11 | X-H torsion
[ 7974 7965 7964 7962 ] final  130.52 input  175.53 | X-H torsion
[ 8008 7997 7996 7995 ] final   23.27 input   59.86 | X-H torsion
[ 10167 10162 10161 10158 ] final -100.40 input  -65.29 | X-H torsion
[ 10718 10713 10712 10709 ] final  139.44 input   66.30 | X-H torsion
[ 10763 10752 10751 10750 ] final  -76.67 input  -60.55 | X-H torsion
[ 11005 11000 10999 10996 ] final  -74.83 input  -57.11 | X-H torsion

> <Gold.Protein.ActiveResidues>
 VAL166  LYS551  ARG553  GLY616  TRP617  ASP618  TYR619  PRO620  LYS621  CYS622 
 ASP623  PHE694  ASN695  SER759  ASP760  ASP761  ALA762  ILE779  LEU786  VAL792 
 PHE793  MET794  SER795  GLU796  ALA797  LYS798  CYS799  TRP800  GLU811  SER814 

> <Gold.Protein.RotatedAtoms>
  152.2891  133.5544  159.5545 H   0  0  0  0  0  0  0  0  0  0  0  0  # atno 6907 bound_to 6896
  150.7228  134.0454  159.3789 H   0  0  0  0  0  0  0  0  0  0  0  0  # atno 6908 bound_to 6896
  151.8361  135.0606  160.0493 H   0  0  0  0  0  0  0  0  0  0  0  0  # atno 6909 bound_to 6896
  145.0170  139.4167  143.5216 H   0  0  0  0  0  0  0  0  0  0  0  0  # atno 7974 bound_to 7965
  154.9784  140.3099  155.4957 H   0  0  0  0  0  0  0  0  0  0  0  0  # atno 8008 bound_to 7997
  156.2957  140.2271  156.4821 H   0  0  0  0  0  0  0  0  0  0  0  0  # atno 8009 bound_to 7997
  154.7812  140.0446  157.1117 H   0  0  0  0  0  0  0  0  0  0  0  0  # atno 8010 bound_to 7997
  140.2523  143.3464  152.0703 H   0  0  0  0  0  0  0  0  0  0  0  0  # atno 10167 bound_to 10162
  157.4144  131.1031  151.0420 H   0  0  0  0  0  0  0  0  0  0  0  0  # atno 10718 bound_to 10713
  154.5029  135.5790  153.6545 H   0  0  0  0  0  0  0  0  0  0  0  0  # atno 10763 bound_to 10752
  152.9882  135.6140  154.2979 H   0  0  0  0  0  0  0  0  0  0  0  0  # atno 10764 bound_to 10752
  154.2888  135.2849  155.2643 H   0  0  0  0  0  0  0  0  0  0  0  0  # atno 10765 bound_to 10752
  141.1639  133.6925  156.7424 H   0  0  0  0  0  0  0  0  0  0  0  0  # atno 11005 bound_to 11000
  146.3479  139.9646  142.8713 LP  0  0  0  0  0  0  0  0  0  0  0  0  # atno 17320 bound_to 7965
  145.1946  140.9827  143.4191 LP  0  0  0  0  0  0  0  0  0  0  0  0  # atno 17321 bound_to 7965
  139.5042  144.6771  151.6100 LP  0  0  0  0  0  0  0  0  0  0  0  0  # atno 17342 bound_to 10162
  140.6031  143.9573  150.6400 LP  0  0  0  0  0  0  0  0  0  0  0  0  # atno 17343 bound_to 10162
  157.1373  130.6128  149.5545 LP  0  0  0  0  0  0  0  0  0  0  0  0  # atno 17370 bound_to 10713
  155.9860  130.4893  150.7060 LP  0  0  0  0  0  0  0  0  0  0  0  0  # atno 17371 bound_to 10713
  140.2664  134.8426  157.3807 LP  0  0  0  0  0  0  0  0  0  0  0  0  # atno 17394 bound_to 11000
  140.1562  134.4786  155.7926 LP  0  0  0  0  0  0  0  0  0  0  0  0  # atno 17395 bound_to 11000

$$$$
