AV-unprocessed.smi:72|AV-procd|sdf|758|dock5
  -GOLD-   2262017 93D 1   1.00000     0.00000
 Structure written by MMmdl.
 29 30  0  0  0  0  0  0  0  0  1 V2000
  152.3694  139.6357  158.8865 N   0  0  0  0  0  0  0  0  0  0  0  0
  151.5936  139.9538  157.7912 C   0  0  0  0  0  0  0  0  0  0  0  0
  150.4869  140.7806  158.0298 N   0  0  0  0  0  0  0  0  0  0  0  0
  149.7511  141.0737  157.0048 C   0  0  0  0  0  0  0  0  0  0  0  0
  150.0611  140.5620  155.6824 N   0  0  0  0  0  0  0  0  0  0  0  0
  149.2053  140.9197  154.4879 C   0  0  1  0  0  0  0  0  0  0  0  0
  148.7144  139.7435  153.9148 O   0  0  0  0  0  0  0  0  0  0  0  0
  147.3391  139.9093  153.5867 C   0  0  1  0  0  0  0  0  0  0  0  0
  146.6433  138.5401  153.5372 C   0  0  0  0  0  0  0  0  0  0  0  0
  146.9290  137.8947  152.3146 O   0  0  0  0  0  0  0  0  0  0  0  0
  146.8428  140.8102  154.7189 C   0  0  2  0  0  0  0  0  0  0  0  0
  145.6189  141.4548  154.4193 O   0  0  0  0  0  0  0  0  0  0  0  0
  148.0048  141.7801  154.9145 C   0  0  2  0  0  0  0  0  0  0  0  0
  147.8934  142.9306  154.0972 O   0  0  0  0  0  0  0  0  0  0  0  0
  151.2139  139.7481  155.5070 C   0  0  0  0  0  0  0  0  0  0  0  0
  151.5211  139.3350  154.3890 O   0  0  0  0  0  0  0  0  0  0  0  0
  151.9700  139.4551  156.6487 N   0  0  0  0  0  0  0  0  0  0  0  0
  149.8570  141.4063  153.7612 H   0  0  0  0  0  0  0  0  0  0  0  0
  147.2535  140.4352  152.6334 H   0  0  0  0  0  0  0  0  0  0  0  0
  146.7161  140.2182  155.6263 H   0  0  0  0  0  0  0  0  0  0  0  0
  148.0952  142.0999  155.9537 H   0  0  0  0  0  0  0  0  0  0  0  0
  153.1902  139.0502  158.8345 H   0  0  0  0  0  0  0  0  0  0  0  0
  152.1762  139.9664  159.8207 H   0  0  0  0  0  0  0  0  0  0  0  0
  148.8698  141.7138  157.0643 H   0  0  0  0  0  0  0  0  0  0  0  0
  146.9403  137.9128  154.3784 H   0  0  0  0  0  0  0  0  0  0  0  0
  145.5619  138.6662  153.5932 H   0  0  0  0  0  0  0  0  0  0  0  0
  147.7987  137.5285  152.3636 H   0  0  0  0  0  0  0  0  0  0  0  0
  145.0893  140.8664  153.9034 H   0  0  0  0  0  0  0  0  0  0  0  0
  148.3040  143.6551  154.5440 H   0  0  0  0  0  0  0  0  0  0  0  0
  1  2  1  0  0  0  0
  1 22  1  0  0  0  0
  1 23  1  0  0  0  0
  2 17  2  0  0  0  0
  2  3  1  0  0  0  0
  3  4  2  0  0  0  0
  4  5  1  0  0  0  0
  4 24  1  0  0  0  0
  5  6  1  0  0  0  0
  5 15  1  0  0  0  0
  6 18  1  0  0  0  0
  6 13  1  0  0  0  0
  6  7  1  0  0  0  0
  7  8  1  0  0  0  0
  8 19  1  0  0  0  0
  8  9  1  0  0  0  0
  8 11  1  0  0  0  0
  9 10  1  0  0  0  0
  9 25  1  0  0  0  0
  9 26  1  0  0  0  0
 10 27  1  0  0  0  0
 11 20  1  0  0  0  0
 11 12  1  0  0  0  0
 11 13  1  0  0  0  0
 12 28  1  0  0  0  0
 13 21  1  0  0  0  0
 13 14  1  0  0  0  0
 14 29  1  0  0  0  0
 15 16  2  0  0  0  0
 15 17  1  0  0  0  0
M  END
> <s_m_source_file>
AV-unprocessed.smi

> <i_m_source_file_index>
72

> <i_lp_mmshare_version>
43012

> <i_f3d_flags>
0

> <s_epik_input>
W05IMl1jMW5bY0hdbihjKD1PKW4xKVtDQEBIXTJPW0NASF0oW0NIMl1bT0hdKVtDQEBIXShbT0hdKVtDQEhdMltPSF0=

> <s_epik_cmdline>
J2VwaWtfcHl0aG9uJywgJy1waCcsICc3LjAnLCAnLXRuJywgJzgnLCAnLW1hJywgJzIwMCcsICctbWV0YWxfYmluZGluZycsICctaW1hZScsICc8aW5maWxlLm1hZT4nLCAnLW9tYWUnLCAnPG91dGZpbGUubWFlPic=

> <r_lp_tautomer_probability>
4.77166e-05

> <r_epik_Ionization_Penalty>
1.3546

> <r_epik_Ionization_Penalty_Charging>
1.46833e-10

> <r_epik_Ionization_Penalty_Neutral>
1.3546

> <r_epik_State_Penalty>
3.51908

> <r_epik_Charging_Adjusted_Penalty>
3.51908

> <i_epik_Tot_Q>
0

> <i_epik_Tot_abs_Q>
0

> <r_epik_Metal_State_Penalty>
3.44088

> <b_epik_Metal_Only>
1

> <s_epik_Chemistry_Notes>
This compound contains an acetal/aminal-like group ( X-CH(R)-Y where X, Y are N, S, or O) that may be acid/base labile, releasing an aldehyde.

> <s_lp_Force_Field>
OPLS_2005

> <r_lp_Energy>
31.7119

> <b_lp_Chiralities_Consistent>
1

> <s_lp_Variant>
AV-unprocessed.smi:72-96

> <Gold.Version>
5.8.1

> <Gold.Id.Protein>
6NUR|6NUR_protein|mol2

> <Gold.PLP.Fitness>
35.6149

> <Gold.PLP.PLP>
-23.8705

> <Gold.PLP.part.hbond>
-6.0000

> <Gold.PLP.part.metal>
0.0000

> <Gold.PLP.part.buried>
-3.4960

> <Gold.PLP.part.nonpolar>
-15.8628

> <Gold.PLP.part.repulsive>
1.6353

> <Gold.PLP.ligand.clash>
0.0000

> <Gold.PLP.ligand.torsion>
0.1357

> <Gold.PLP.Chemscore.Hbond>
4.0000

> <Gold.PLP.Chemscore.CHOScore>
0.0000

> <Gold.PLP.Chemscore.Metal>
0.0000

> <Gold.Chemscore.Hbonds>
donor molecule, donor type, donor heavy atom, donor atom, acceptor molecule, acceptor atom, score
      L1  H    10    27       P1  7948  0.96
      L1  H    12    28       P1 10175  0.99
      L1  H    14    29       P1  8028  1.00
      P1  H  7989  7998       L1    16  1.00

> <Gold.PLP.Chemscore.Internal.Correction>
0.0157

> <Gold.Rescore>
     Score         DG    S(hbond)    S(metal)    S(lipo)     H(rot)  DE(clash)    DE(int)     intcor
      7.96      -9.74       3.64        0.00      21.49       4.06       0.43       1.36       ----

> <Gold.Chemscore.Fitness>
7.9592

> <Gold.Chemscore.DG>
-9.7438

> <Gold.Chemscore.ZeroCoef>
-5.4800

> <Gold.Chemscore.Hbond>
3.6356

> <Gold.Chemscore.Metal>
0.0000

> <Gold.Chemscore.Lipo>
21.4905

> <Gold.Chemscore.Internal_Hbond>
0.0000

> <Gold.Chemscore.DEClash>
0.4261

> <Gold.Chemscore.DEInternal>
1.3585

> <Gold.Chemscore.Rot>
4.0600

> <Gold.Chemscore.Internal.Correction>
   9.000000E+99

> <Gold.Chemscore.Hbonds>
donor molecule, donor type, donor heavy atom, donor atom, acceptor molecule, acceptor atom, score
      L1  H    10    27       P1  7948  0.92
      L1  H    12    28       P1 10175  0.82
      L1  H    14    29       P1  8028  0.94
      P1  H  7989  7998       L1    16  0.30
      P1  H  7997  8009       L1    17  0.01

> <Gold.Chemscore.Hbond.Weighted>
-12.1430

> <Gold.Chemscore.Metal.Weighted>
-0.0000

> <Gold.Chemscore.Lipo.Weighted>
-2.5144

> <Gold.Chemscore.Internal_Hbond.Weighted>
0.0000

> <Gold.Chemscore.DEClash.Weighted>
0.4261

> <Gold.Chemscore.DEInternal.Weighted>
1.3585

> <Gold.Chemscore.Rot.Weighted>
10.3936

> <Gold.Chemscore.Internal.Correction.Weighted>
   9.000000E+99

> <Gold.Protein.RotatedTorsions>
[ 6907 6896 6895 6894 ] final  109.69 input  -60.11 | X-H torsion
[ 7974 7965 7964 7962 ] final  -25.70 input  175.53 | X-H torsion
[ 8008 7997 7996 7995 ] final -173.58 input   59.86 | X-H torsion
[ 10167 10162 10161 10158 ] final   96.46 input  -65.29 | X-H torsion
[ 10718 10713 10712 10709 ] final  115.62 input   66.30 | X-H torsion
[ 10763 10752 10751 10750 ] final  -15.77 input  -60.55 | X-H torsion
[ 11005 11000 10999 10996 ] final -138.16 input  -57.11 | X-H torsion

> <Gold.Protein.ActiveResidues>
 VAL166  LYS551  ARG553  GLY616  TRP617  ASP618  TYR619  PRO620  LYS621  CYS622 
 ASP623  PHE694  ASN695  SER759  ASP760  ASP761  ALA762  ILE779  LEU786  VAL792 
 PHE793  MET794  SER795  GLU796  ALA797  LYS798  CYS799  TRP800  GLU811  SER814 

> <Gold.Protein.RotatedAtoms>
  152.5055  133.8908  159.7392 H   0  0  0  0  0  0  0  0  0  0  0  0  # atno 6907 bound_to 6896
  150.9347  133.6717  159.2810 H   0  0  0  0  0  0  0  0  0  0  0  0  # atno 6908 bound_to 6896
  151.4049  135.0981  159.9620 H   0  0  0  0  0  0  0  0  0  0  0  0  # atno 6909 bound_to 6896
  146.1474  140.4921  142.8626 H   0  0  0  0  0  0  0  0  0  0  0  0  # atno 7974 bound_to 7965
  155.9593  140.1141  157.0910 H   0  0  0  0  0  0  0  0  0  0  0  0  # atno 8008 bound_to 7997
  154.4128  140.1185  156.5224 H   0  0  0  0  0  0  0  0  0  0  0  0  # atno 8009 bound_to 7997
  155.6741  140.3473  155.4832 H   0  0  0  0  0  0  0  0  0  0  0  0  # atno 8010 bound_to 7997
  139.7892  144.6859  150.9916 H   0  0  0  0  0  0  0  0  0  0  0  0  # atno 10167 bound_to 10162
  157.6211  131.1015  150.7355 H   0  0  0  0  0  0  0  0  0  0  0  0  # atno 10718 bound_to 10713
  153.5484  135.7012  153.5603 H   0  0  0  0  0  0  0  0  0  0  0  0  # atno 10763 bound_to 10752
  153.3538  135.3988  155.1666 H   0  0  0  0  0  0  0  0  0  0  0  0  # atno 10764 bound_to 10752
  154.8664  135.3772  154.4994 H   0  0  0  0  0  0  0  0  0  0  0  0  # atno 10765 bound_to 10752
  140.8643  134.2130  157.4689 H   0  0  0  0  0  0  0  0  0  0  0  0  # atno 11005 bound_to 11000
  144.7863  140.5942  143.6572 LP  0  0  0  0  0  0  0  0  0  0  0  0  # atno 17320 bound_to 7965
  145.4904  139.1489  143.3712 LP  0  0  0  0  0  0  0  0  0  0  0  0  # atno 17321 bound_to 7965
  140.7820  143.4399  151.0567 LP  0  0  0  0  0  0  0  0  0  0  0  0  # atno 17342 bound_to 10162
  139.8076  143.7995  152.3168 LP  0  0  0  0  0  0  0  0  0  0  0  0  # atno 17343 bound_to 10162
  156.7713  130.4829  149.5418 LP  0  0  0  0  0  0  0  0  0  0  0  0  # atno 17370 bound_to 10713
  156.1357  130.6209  151.0397 LP  0  0  0  0  0  0  0  0  0  0  0  0  # atno 17371 bound_to 10713
  139.8708  134.9744  156.4845 LP  0  0  0  0  0  0  0  0  0  0  0  0  # atno 17394 bound_to 11000
  140.8647  133.8033  155.9302 LP  0  0  0  0  0  0  0  0  0  0  0  0  # atno 17395 bound_to 11000

$$$$
