AV-unprocessed.smi:155|AV-procd|sdf|1268|dock3
  -GOLD-   2262018523D 1   1.00000     0.00000
 Structure written by MMmdl.
 63 66  0  0  0  0  0  0  0  0  2 V2000
  145.7592  132.3387  149.6774 C   0  0  0  0  0  0  0  0  0  0  0  0
  145.3391  133.3605  150.6269 N   0  0  0  0  0  0  0  0  0  0  0  0
  143.9039  133.2179  150.8466 C   0  0  0  0  0  0  0  0  0  0  0  0
  146.0936  133.1980  151.8695 C   0  0  0  0  0  0  0  0  0  0  0  0
  145.7901  134.2859  152.9301 C   0  0  0  0  0  0  0  0  0  0  0  0
  146.3584  135.6317  152.6384 N   0  3  1  0  0  0  0  0  0  0  0  0
  145.6993  136.3242  151.5029 C   0  0  0  0  0  0  0  0  0  0  0  0
  146.5224  137.5041  150.9610 C   0  0  0  0  0  0  0  0  0  0  0  0
  146.4731  138.7435  151.8687 C   0  0  0  0  0  0  0  0  0  0  0  0
  147.4034  138.6866  152.9979 N   0  0  0  0  0  0  0  0  0  0  0  0
  147.8075  139.8572  153.5578 C   0  0  0  0  0  0  0  0  0  0  0  0
  147.0605  140.9744  153.3516 N   0  0  0  0  0  0  0  0  0  0  0  0
  147.4235  142.1418  153.8906 C   0  0  0  0  0  0  0  0  0  0  0  0
  148.4835  142.4144  154.6529 N   0  0  0  0  0  0  0  0  0  0  0  0
  149.2452  141.3024  154.8560 C   0  0  0  0  0  0  0  0  0  0  0  0
  148.9836  139.9959  154.3523 C   0  0  0  0  0  0  0  0  0  0  0  0
  149.9910  139.1268  154.7585 N   0  0  0  0  0  0  0  0  0  0  0  0
  150.7941  139.8729  155.4665 C   0  0  0  0  0  0  0  0  0  0  0  0
  150.4199  141.1918  155.5788 N   0  0  0  0  0  0  0  0  0  0  0  0
  151.1304  142.2350  156.2989 C   0  0  0  0  0  0  0  0  0  0  0  0
  151.3636  141.8763  157.7822 C   0  0  2  0  0  0  0  0  0  0  0  0
  150.1015  141.7603  158.4110 O   0  0  0  0  0  0  0  0  0  0  0  0
  152.1725  142.9450  158.5453 C   0  0  2  0  0  0  0  0  0  0  0  0
  152.3450  142.6765  160.0413 C   0  0  0  0  0  0  0  0  0  0  0  0
  152.6119  144.0560  160.6172 C   0  0  0  0  0  0  0  0  0  0  0  0
  152.0372  145.0070  159.5646 C   0  0  0  0  0  0  0  0  0  0  0  0
  151.4510  144.1680  158.5776 O   0  0  0  0  0  0  0  0  0  0  0  0
  147.7297  137.4372  153.6869 C   0  0  0  0  0  0  0  0  0  0  0  0
  146.5344  136.4837  153.8411 C   0  0  0  0  0  0  0  0  0  0  0  0
  146.8236  132.4311  149.4585 H   0  0  0  0  0  0  0  0  0  0  0  0
  145.2208  132.4442  148.7349 H   0  0  0  0  0  0  0  0  0  0  0  0
  145.5762  131.3352  150.0648 H   0  0  0  0  0  0  0  0  0  0  0  0
  143.5191  133.9957  151.5047 H   0  0  0  0  0  0  0  0  0  0  0  0
  143.6627  132.2482  151.2847 H   0  0  0  0  0  0  0  0  0  0  0  0
  143.3655  133.3048  149.9021 H   0  0  0  0  0  0  0  0  0  0  0  0
  145.8681  132.2156  152.2872 H   0  0  0  0  0  0  0  0  0  0  0  0
  147.1619  133.1827  151.6549 H   0  0  0  0  0  0  0  0  0  0  0  0
  144.7227  134.3709  153.1306 H   0  0  0  0  0  0  0  0  0  0  0  0
  146.2224  133.9584  153.8763 H   0  0  0  0  0  0  0  0  0  0  0  0
  145.5616  135.6059  150.6936 H   0  0  0  0  0  0  0  0  0  0  0  0
  144.7039  136.6667  151.7877 H   0  0  0  0  0  0  0  0  0  0  0  0
  147.5509  137.2084  150.7492 H   0  0  0  0  0  0  0  0  0  0  0  0
  146.0921  137.7857  149.9994 H   0  0  0  0  0  0  0  0  0  0  0  0
  146.7307  139.6111  151.2591 H   0  0  0  0  0  0  0  0  0  0  0  0
  145.4594  138.9131  152.2339 H   0  0  0  0  0  0  0  0  0  0  0  0
  146.7714  142.9770  153.6809 H   0  0  0  0  0  0  0  0  0  0  0  0
  151.6878  139.4801  155.9295 H   0  0  0  0  0  0  0  0  0  0  0  0
  152.0799  142.3974  155.7885 H   0  0  0  0  0  0  0  0  0  0  0  0
  150.5704  143.1674  156.2158 H   0  0  0  0  0  0  0  0  0  0  0  0
  151.8769  140.9156  157.8434 H   0  0  0  0  0  0  0  0  0  0  0  0
  149.7740  142.6284  158.5900 H   0  0  0  0  0  0  0  0  0  0  0  0
  153.1506  143.1022  158.0854 H   0  0  0  0  0  0  0  0  0  0  0  0
  151.4195  142.2790  160.4610 H   0  0  0  0  0  0  0  0  0  0  0  0
  153.1462  141.9689  160.2567 H   0  0  0  0  0  0  0  0  0  0  0  0
  152.1389  144.1814  161.5918 H   0  0  0  0  0  0  0  0  0  0  0  0
  153.6821  144.2278  160.7369 H   0  0  0  0  0  0  0  0  0  0  0  0
  151.2935  145.6875  159.9796 H   0  0  0  0  0  0  0  0  0  0  0  0
  152.8299  145.6032  159.1110 H   0  0  0  0  0  0  0  0  0  0  0  0
  148.5611  136.9436  153.1824 H   0  0  0  0  0  0  0  0  0  0  0  0
  148.0786  137.6682  154.6939 H   0  0  0  0  0  0  0  0  0  0  0  0
  145.6179  137.0180  154.0959 H   0  0  0  0  0  0  0  0  0  0  0  0
  146.7539  135.8345  154.6895 H   0  0  0  0  0  0  0  0  0  0  0  0
  147.2973  135.4344  152.3227 H   0  0  0  0  0  0  0  0  0  0  0  0
  1  2  1  0  0  0  0
  1 30  1  0  0  0  0
  1 31  1  0  0  0  0
  1 32  1  0  0  0  0
  2  3  1  0  0  0  0
  2  4  1  0  0  0  0
  3 33  1  0  0  0  0
  3 34  1  0  0  0  0
  3 35  1  0  0  0  0
  4  5  1  0  0  0  0
  4 36  1  0  0  0  0
  4 37  1  0  0  0  0
  5  6  1  0  0  0  0
  5 38  1  0  0  0  0
  5 39  1  0  0  0  0
  6 29  1  0  0  0  0
  6  7  1  0  0  0  0
  6 63  1  0  0  0  0
  7  8  1  0  0  0  0
  7 40  1  0  0  0  0
  7 41  1  0  0  0  0
  8  9  1  0  0  0  0
  8 42  1  0  0  0  0
  8 43  1  0  0  0  0
  9 10  1  0  0  0  0
  9 44  1  0  0  0  0
  9 45  1  0  0  0  0
 10 11  1  0  0  0  0
 10 28  1  0  0  0  0
 11 16  1  0  0  0  0
 11 12  2  0  0  0  0
 12 13  1  0  0  0  0
 13 14  2  0  0  0  0
 13 46  1  0  0  0  0
 14 15  1  0  0  0  0
 15 19  1  0  0  0  0
 15 16  2  0  0  0  0
 16 17  1  0  0  0  0
 17 18  2  0  0  0  0
 18 19  1  0  0  0  0
 18 47  1  0  0  0  0
 19 20  1  0  0  0  0
 20 21  1  0  0  0  0
 20 48  1  0  0  0  0
 20 49  1  0  0  0  0
 21 22  1  0  0  0  0
 21 23  1  0  0  0  0
 21 50  1  0  0  0  0
 22 51  1  0  0  0  0
 23 27  1  0  0  0  0
 23 24  1  0  0  0  0
 23 52  1  0  0  0  0
 24 25  1  0  0  0  0
 24 53  1  0  0  0  0
 24 54  1  0  0  0  0
 25 26  1  0  0  0  0
 25 55  1  0  0  0  0
 25 56  1  0  0  0  0
 26 27  1  0  0  0  0
 26 57  1  0  0  0  0
 26 58  1  0  0  0  0
 28 29  1  0  0  0  0
 28 59  1  0  0  0  0
 28 60  1  0  0  0  0
 29 61  1  0  0  0  0
 29 62  1  0  0  0  0
M  CHG  1   6   1
M  END
> <s_m_source_file>
AV-unprocessed.smi

> <i_m_source_file_index>
155

> <i_lp_mmshare_version>
43012

> <i_f3d_flags>
0

> <s_epik_input>
W0NIM11OKFtDSDNdKVtDSDJdW0NIMl1OMVtDSDJdW0NIMl1bQ0gyXU4oW0NIMl1bQ0gyXTEpYyhuW2NIXW4yKWMoYzIzKW5bY0hdbjNbQ0gyXVtDQEhdKFtPSF0pW0NAQEhdNFtDSDJdW0NIMl1bQ0gyXU80

> <s_epik_cmdline>
J2VwaWtfcHl0aG9uJywgJy1waCcsICc3LjAnLCAnLXRuJywgJzgnLCAnLW1hJywgJzIwMCcsICctbWV0YWxfYmluZGluZycsICctaW1hZScsICc8aW5maWxlLm1hZT4nLCAnLW9tYWUnLCAnPG91dGZpbGUubWFlPic=

> <r_epik_Ionization_Penalty>
0.0619615

> <r_epik_Ionization_Penalty_Charging>
0.0161638

> <r_epik_Ionization_Penalty_Neutral>
0.0457976

> <r_epik_State_Penalty>
0.403408

> <r_epik_Charging_Adjusted_Penalty>
0.419572

> <i_epik_Tot_Q>
1

> <i_epik_Tot_abs_Q>
1

> <r_epik_Metal_State_Penalty>
0.404222

> <b_epik_Metal_Only>
0

> <s_lp_Force_Field>
OPLS_2005

> <r_lp_Energy>
54.9727

> <b_lp_Chiralities_Consistent>
1

> <s_lp_Variant>
AV-unprocessed.smi:155-2

> <Gold.Version>
5.8.1

> <Gold.Id.Protein>
6NUR|6NUR_protein|mol2

> <Gold.PLP.Fitness>
52.0390

> <Gold.PLP.PLP>
-47.0513

> <Gold.PLP.part.hbond>
-1.0000

> <Gold.PLP.part.metal>
0.0000

> <Gold.PLP.part.buried>
1.6862

> <Gold.PLP.part.nonpolar>
-51.8480

> <Gold.PLP.part.repulsive>
4.1763

> <Gold.PLP.ligand.clash>
0.0000

> <Gold.PLP.ligand.torsion>
0.5123

> <Gold.PLP.Chemscore.Hbond>
1.8880

> <Gold.PLP.Chemscore.CHOScore>
0.0000

> <Gold.PLP.Chemscore.Metal>
0.0000

> <Gold.Chemscore.Hbonds>
donor molecule, donor type, donor heavy atom, donor atom, acceptor molecule, acceptor atom, score
      L1  H     6    63       P1  7948  1.79

> <Gold.PLP.Chemscore.Internal.Correction>
0.3483

> <Gold.Rescore>
     Score         DG    S(hbond)    S(metal)    S(lipo)     H(rot)  DE(clash)    DE(int)     intcor
     10.19     -16.71       0.90        0.00     128.00       2.63       4.86       1.67       ----

> <Gold.Chemscore.Fitness>
10.1878

> <Gold.Chemscore.DG>
-16.7128

> <Gold.Chemscore.ZeroCoef>
-5.4800

> <Gold.Chemscore.Hbond>
0.8968

> <Gold.Chemscore.Metal>
0.0000

> <Gold.Chemscore.Lipo>
128.0022

> <Gold.Chemscore.Internal_Hbond>
0.0000

> <Gold.Chemscore.DEClash>
4.8571

> <Gold.Chemscore.DEInternal>
1.6680

> <Gold.Chemscore.Rot>
2.6324

> <Gold.Chemscore.Internal.Correction>
   9.000000E+99

> <Gold.Chemscore.Hbonds>
donor molecule, donor type, donor heavy atom, donor atom, acceptor molecule, acceptor atom, score
      L1  H     6    63       P1  7948  0.88

> <Gold.Chemscore.Hbond.Weighted>
-2.9954

> <Gold.Chemscore.Metal.Weighted>
-0.0000

> <Gold.Chemscore.Lipo.Weighted>
-14.9763

> <Gold.Chemscore.Internal_Hbond.Weighted>
0.0000

> <Gold.Chemscore.DEClash.Weighted>
4.8571

> <Gold.Chemscore.DEInternal.Weighted>
1.6680

> <Gold.Chemscore.Rot.Weighted>
6.7389

> <Gold.Chemscore.Internal.Correction.Weighted>
   9.000000E+99

> <Gold.Protein.RotatedTorsions>
[ 6907 6896 6895 6894 ] final  -78.74 input  -60.11 | X-H torsion
[ 7974 7965 7964 7962 ] final   83.01 input  175.53 | X-H torsion
[ 8008 7997 7996 7995 ] final   55.22 input   59.86 | X-H torsion
[ 10167 10162 10161 10158 ] final -169.77 input  -65.29 | X-H torsion
[ 10718 10713 10712 10709 ] final -124.82 input   66.30 | X-H torsion
[ 10763 10752 10751 10750 ] final   51.50 input  -60.55 | X-H torsion
[ 11005 11000 10999 10996 ] final -127.62 input  -57.11 | X-H torsion

> <Gold.Protein.ActiveResidues>
 VAL166  LYS551  ARG553  GLY616  TRP617  ASP618  TYR619  PRO620  LYS621  CYS622 
 ASP623  PHE694  ASN695  SER759  ASP760  ASP761  ALA762  ILE779  LEU786  VAL792 
 PHE793  MET794  SER795  GLU796  ALA797  LYS798  CYS799  TRP800  GLU811  SER814 

> <Gold.Protein.RotatedAtoms>
  150.6966  134.4226  159.5211 H   0  0  0  0  0  0  0  0  0  0  0  0  # atno 6907 bound_to 6896
  152.1967  134.8622  160.0521 H   0  0  0  0  0  0  0  0  0  0  0  0  # atno 6908 bound_to 6896
  151.9557  133.3645  159.4053 H   0  0  0  0  0  0  0  0  0  0  0  0  # atno 6909 bound_to 6896
  145.6175  139.2379  143.2157 H   0  0  0  0  0  0  0  0  0  0  0  0  # atno 7974 bound_to 7965
  155.4976  140.3473  155.4365 H   0  0  0  0  0  0  0  0  0  0  0  0  # atno 8008 bound_to 7997
  156.0935  140.1417  156.9588 H   0  0  0  0  0  0  0  0  0  0  0  0  # atno 8009 bound_to 7997
  154.4649  140.0921  156.6972 H   0  0  0  0  0  0  0  0  0  0  0  0  # atno 8010 bound_to 7997
  139.5902  144.1229  152.1625 H   0  0  0  0  0  0  0  0  0  0  0  0  # atno 10167 bound_to 10162
  156.1621  130.6609  151.0063 H   0  0  0  0  0  0  0  0  0  0  0  0  # atno 10718 bound_to 10713
  152.9785  135.5843  154.4426 H   0  0  0  0  0  0  0  0  0  0  0  0  # atno 10763 bound_to 10752
  154.4026  135.2769  155.2089 H   0  0  0  0  0  0  0  0  0  0  0  0  # atno 10764 bound_to 10752
  154.3914  135.6124  153.5899 H   0  0  0  0  0  0  0  0  0  0  0  0  # atno 10765 bound_to 10752
  140.9584  134.0969  157.3993 H   0  0  0  0  0  0  0  0  0  0  0  0  # atno 11005 bound_to 11000
  146.1457  140.6996  142.9346 LP  0  0  0  0  0  0  0  0  0  0  0  0  # atno 17320 bound_to 7965
  144.7244  140.4479  143.6984 LP  0  0  0  0  0  0  0  0  0  0  0  0  # atno 17321 bound_to 7965
  140.0802  144.5707  150.7128 LP  0  0  0  0  0  0  0  0  0  0  0  0  # atno 17342 bound_to 10162
  140.7167  143.2551  151.4412 LP  0  0  0  0  0  0  0  0  0  0  0  0  # atno 17343 bound_to 10162
  157.6740  131.0855  150.7541 LP  0  0  0  0  0  0  0  0  0  0  0  0  # atno 17370 bound_to 10713
  156.7604  130.4796  149.5438 LP  0  0  0  0  0  0  0  0  0  0  0  0  # atno 17371 bound_to 10713
  139.8870  135.0086  156.6533 LP  0  0  0  0  0  0  0  0  0  0  0  0  # atno 17394 bound_to 11000
  140.7502  133.8904  155.8341 LP  0  0  0  0  0  0  0  0  0  0  0  0  # atno 17395 bound_to 11000

$$$$
