AV-unprocessed.smi:2713|AV-procd|sdf|10479|dock9
  -GOLD-   2272014523D 1   1.00000     0.00000
 Structure written by MMmdl.
 52 53  0  0  0  0  0  0  0  0  1 V2000
  144.3032  141.8038  155.7518 C   0  0  0  0  0  0  0  0  0  0  0  0
  145.4043  142.8772  155.6044 C   0  0  0  0  0  0  0  0  0  0  0  0
  144.6860  144.2296  155.4107 C   0  0  0  0  0  0  0  0  0  0  0  0
  146.2180  142.9685  156.9113 C   0  0  0  0  0  0  0  0  0  0  0  0
  146.2928  142.6429  154.3365 C   0  0  0  0  0  0  0  0  0  0  0  0
  147.3408  141.4862  154.2561 C   0  0  0  0  0  0  0  0  0  0  0  0
  146.7869  140.1233  154.7252 C   0  0  0  0  0  0  0  0  0  0  0  0
  147.7874  141.3670  152.7813 C   0  0  0  0  0  0  0  0  0  0  0  0
  148.5076  141.9044  155.0412 N   0  0  0  0  0  0  0  0  0  0  0  0
  149.7370  141.1380  154.8713 C   0  0  0  0  0  0  0  0  0  0  0  0
  150.6157  141.1896  156.1048 C   0  0  0  0  0  0  0  0  0  0  0  0
  151.7140  140.3231  156.2799 C   0  0  0  0  0  0  0  0  0  0  0  0
  152.4962  140.3837  157.3789 N   0  0  0  0  0  0  0  0  0  0  0  0
  152.2013  141.3043  158.3077 C   0  0  0  0  0  0  0  0  0  0  0  0
  153.0153  141.3633  159.4461 N   0  0  0  0  0  0  0  0  0  0  0  0
  154.2356  140.5634  159.5732 C   0  0  0  0  0  0  0  0  0  0  0  0
  154.4951  140.1951  161.0440 C   0  0  0  0  0  0  0  0  0  0  0  0
  154.5340  141.3750  161.8374 O   0  0  0  0  0  0  0  0  0  0  0  0
  153.2952  142.0725  161.7986 C   0  0  0  0  0  0  0  0  0  0  0  0
  152.9900  142.5109  160.3563 C   0  0  0  0  0  0  0  0  0  0  0  0
  151.1842  142.1737  158.2291 N   0  0  0  0  0  0  0  0  0  0  0  0
  150.3928  142.1227  157.1366 C   0  0  0  0  0  0  0  0  0  0  0  0
  143.5873  142.0820  156.5263 H   0  0  0  0  0  0  0  0  0  0  0  0
  144.6930  140.8304  156.0386 H   0  0  0  0  0  0  0  0  0  0  0  0
  143.7417  141.6770  154.8256 H   0  0  0  0  0  0  0  0  0  0  0  0
  144.0839  144.2344  154.5011 H   0  0  0  0  0  0  0  0  0  0  0  0
  145.3965  145.0537  155.3371 H   0  0  0  0  0  0  0  0  0  0  0  0
  144.0188  144.4544  156.2439 H   0  0  0  0  0  0  0  0  0  0  0  0
  145.5805  143.2350  157.7550 H   0  0  0  0  0  0  0  0  0  0  0  0
  146.9989  143.7266  156.8418 H   0  0  0  0  0  0  0  0  0  0  0  0
  146.6942  142.0217  157.1634 H   0  0  0  0  0  0  0  0  0  0  0  0
  145.6113  142.5370  153.4909 H   0  0  0  0  0  0  0  0  0  0  0  0
  146.8303  143.5699  154.1274 H   0  0  0  0  0  0  0  0  0  0  0  0
  145.8234  139.9113  154.2611 H   0  0  0  0  0  0  0  0  0  0  0  0
  146.6632  140.0808  155.8065 H   0  0  0  0  0  0  0  0  0  0  0  0
  147.4509  139.3024  154.4522 H   0  0  0  0  0  0  0  0  0  0  0  0
  146.9373  141.1577  152.1308 H   0  0  0  0  0  0  0  0  0  0  0  0
  148.5031  140.5599  152.6255 H   0  0  0  0  0  0  0  0  0  0  0  0
  148.2484  142.2895  152.4253 H   0  0  0  0  0  0  0  0  0  0  0  0
  148.6888  142.8859  154.8857 H   0  0  0  0  0  0  0  0  0  0  0  0
  149.5061  140.0917  154.6722 H   0  0  0  0  0  0  0  0  0  0  0  0
  150.3061  141.5144  154.0222 H   0  0  0  0  0  0  0  0  0  0  0  0
  151.9675  139.5791  155.5387 H   0  0  0  0  0  0  0  0  0  0  0  0
  154.1790  139.6409  158.9956 H   0  0  0  0  0  0  0  0  0  0  0  0
  155.0737  141.1371  159.1759 H   0  0  0  0  0  0  0  0  0  0  0  0
  153.7251  139.5175  161.4168 H   0  0  0  0  0  0  0  0  0  0  0  0
  155.4481  139.6746  161.1374 H   0  0  0  0  0  0  0  0  0  0  0  0
  152.4955  141.4423  162.1915 H   0  0  0  0  0  0  0  0  0  0  0  0
  153.3604  142.9450  162.4490 H   0  0  0  0  0  0  0  0  0  0  0  0
  153.7345  143.2342  160.0214 H   0  0  0  0  0  0  0  0  0  0  0  0
  152.0293  143.0247  160.3496 H   0  0  0  0  0  0  0  0  0  0  0  0
  149.5791  142.8316  157.0892 H   0  0  0  0  0  0  0  0  0  0  0  0
  1  2  1  0  0  0  0
  1 23  1  0  0  0  0
  1 24  1  0  0  0  0
  1 25  1  0  0  0  0
  2  3  1  0  0  0  0
  2  4  1  0  0  0  0
  2  5  1  0  0  0  0
  3 26  1  0  0  0  0
  3 27  1  0  0  0  0
  3 28  1  0  0  0  0
  4 29  1  0  0  0  0
  4 30  1  0  0  0  0
  4 31  1  0  0  0  0
  5  6  1  0  0  0  0
  5 32  1  0  0  0  0
  5 33  1  0  0  0  0
  6  7  1  0  0  0  0
  6  8  1  0  0  0  0
  6  9  1  0  0  0  0
  7 34  1  0  0  0  0
  7 35  1  0  0  0  0
  7 36  1  0  0  0  0
  8 37  1  0  0  0  0
  8 38  1  0  0  0  0
  8 39  1  0  0  0  0
  9 10  1  0  0  0  0
  9 40  1  0  0  0  0
 10 11  1  0  0  0  0
 10 41  1  0  0  0  0
 10 42  1  0  0  0  0
 11 22  1  0  0  0  0
 11 12  2  0  0  0  0
 12 13  1  0  0  0  0
 12 43  1  0  0  0  0
 13 14  2  0  0  0  0
 14 15  1  0  0  0  0
 14 21  1  0  0  0  0
 15 20  1  0  0  0  0
 15 16  1  0  0  0  0
 16 17  1  0  0  0  0
 16 44  1  0  0  0  0
 16 45  1  0  0  0  0
 17 18  1  0  0  0  0
 17 46  1  0  0  0  0
 17 47  1  0  0  0  0
 18 19  1  0  0  0  0
 19 20  1  0  0  0  0
 19 48  1  0  0  0  0
 19 49  1  0  0  0  0
 20 50  1  0  0  0  0
 20 51  1  0  0  0  0
 21 22  2  0  0  0  0
 22 52  1  0  0  0  0
M  END
> <s_m_source_file>
AV-unprocessed.smi

> <i_m_source_file_index>
2713

> <i_lp_mmshare_version>
43012

> <i_f3d_flags>
0

> <s_epik_input>
W0NIM11DKFtDSDNdKShbQ0gzXSlbQ0gyXUMoW0NIM10pKFtDSDNdKVtOSF1bQ0gyXWMxW2NIXW5jKG5bY0hdMSlOMltDSDJdW0NIMl1PW0NIMl1bQ0gyXTI=

> <s_epik_cmdline>
J2VwaWtfcHl0aG9uJywgJy1waCcsICc3LjAnLCAnLXRuJywgJzgnLCAnLW1hJywgJzIwMCcsICctbWV0YWxfYmluZGluZycsICctaW1hZScsICc8aW5maWxlLm1hZT4nLCAnLW9tYWUnLCAnPG91dGZpbGUubWFlPic=

> <r_lp_tautomer_probability>
1

> <r_epik_Ionization_Penalty>
1.66691

> <r_epik_Ionization_Penalty_Charging>
0

> <r_epik_Ionization_Penalty_Neutral>
1.66691

> <r_epik_State_Penalty>
1.77023

> <r_epik_Charging_Adjusted_Penalty>
1.77023

> <i_epik_Tot_Q>
0

> <i_epik_Tot_abs_Q>
0

> <r_epik_Metal_State_Penalty>
1.77023

> <b_epik_Metal_Only>
0

> <s_lp_Force_Field>
OPLS_2005

> <r_lp_Energy>
27.9038

> <b_lp_Chiralities_Consistent>
1

> <s_lp_Variant>
AV-unprocessed.smi:2713-2

> <Gold.Version>
5.8.1

> <Gold.Id.Protein>
6NUR|6NUR_protein|mol2

> <Gold.PLP.Fitness>
48.6721

> <Gold.PLP.PLP>
-41.1741

> <Gold.PLP.part.hbond>
-3.0000

> <Gold.PLP.part.metal>
0.0000

> <Gold.PLP.part.buried>
-1.0594

> <Gold.PLP.part.nonpolar>
-34.1623

> <Gold.PLP.part.repulsive>
0.0336

> <Gold.PLP.ligand.clash>
0.0000

> <Gold.PLP.ligand.torsion>
0.6855

> <Gold.PLP.Chemscore.Hbond>
1.9051

> <Gold.PLP.Chemscore.CHOScore>
1.0000

> <Gold.PLP.Chemscore.Metal>
0.0000

> <Gold.Chemscore.Hbonds>
donor molecule, donor type, donor heavy atom, donor atom, acceptor molecule, acceptor atom, score
      L1  H     9    40       P1  8028  0.98
      P1  H  7997  8008       L1    13  0.94
      L1  C    22    52       P1  8028  1.00

> <Gold.PLP.Chemscore.Internal.Correction>
0.1539

> <Gold.Rescore>
     Score         DG    S(hbond)    S(metal)    S(lipo)     H(rot)  DE(clash)    DE(int)     intcor
     14.85     -18.98       1.77        0.00      97.32       1.48       3.13       0.99       ----

> <Gold.Chemscore.Fitness>
14.8496

> <Gold.Chemscore.DG>
-18.9759

> <Gold.Chemscore.ZeroCoef>
-5.4800

> <Gold.Chemscore.Hbond>
1.7664

> <Gold.Chemscore.Metal>
0.0000

> <Gold.Chemscore.Lipo>
97.3181

> <Gold.Chemscore.Internal_Hbond>
0.0000

> <Gold.Chemscore.DEClash>
3.1333

> <Gold.Chemscore.DEInternal>
0.9930

> <Gold.Chemscore.Rot>
1.4805

> <Gold.Chemscore.Internal.Correction>
   9.000000E+99

> <Gold.Chemscore.Hbonds>
donor molecule, donor type, donor heavy atom, donor atom, acceptor molecule, acceptor atom, score
      L1  H     9    40       P1  8028  0.91
      P1  H  7997  8008       L1    13  0.42

> <Gold.Chemscore.Hbond.Weighted>
-5.8997

> <Gold.Chemscore.Metal.Weighted>
-0.0000

> <Gold.Chemscore.Lipo.Weighted>
-11.3862

> <Gold.Chemscore.Internal_Hbond.Weighted>
0.0000

> <Gold.Chemscore.DEClash.Weighted>
3.1333

> <Gold.Chemscore.DEInternal.Weighted>
0.9930

> <Gold.Chemscore.Rot.Weighted>
3.7900

> <Gold.Chemscore.Internal.Correction.Weighted>
   9.000000E+99

> <Gold.Protein.RotatedTorsions>
[ 6907 6896 6895 6894 ] final    6.71 input  -60.11 | X-H torsion
[ 7974 7965 7964 7962 ] final  -52.45 input  175.53 | X-H torsion
[ 8008 7997 7996 7995 ] final  -63.63 input   59.86 | X-H torsion
[ 10167 10162 10161 10158 ] final   56.00 input  -65.29 | X-H torsion
[ 10718 10713 10712 10709 ] final -131.35 input   66.30 | X-H torsion
[ 10763 10752 10751 10750 ] final   63.20 input  -60.55 | X-H torsion
[ 11005 11000 10999 10996 ] final -127.42 input  -57.11 | X-H torsion

> <Gold.Protein.ActiveResidues>
 VAL166  LYS551  ARG553  GLY616  TRP617  ASP618  TYR619  PRO620  LYS621  CYS622 
 ASP623  PHE694  ASN695  SER759  ASP760  ASP761  ALA762  ILE779  LEU786  VAL792 
 PHE793  MET794  SER795  GLU796  ALA797  LYS798  CYS799  TRP800  GLU811  SER814 

> <Gold.Protein.RotatedAtoms>
  151.6782  135.0966  160.0210 H   0  0  0  0  0  0  0  0  0  0  0  0  # atno 6907 bound_to 6896
  152.3851  133.6596  159.6201 H   0  0  0  0  0  0  0  0  0  0  0  0  # atno 6908 bound_to 6896
  150.7779  133.8965  159.3370 H   0  0  0  0  0  0  0  0  0  0  0  0  # atno 6909 bound_to 6896
  145.9078  140.7941  142.9710 H   0  0  0  0  0  0  0  0  0  0  0  0  # atno 7974 bound_to 7965
  154.4565  140.0971  156.6772 H   0  0  0  0  0  0  0  0  0  0  0  0  # atno 8008 bound_to 7997
  155.5122  140.3476  155.4372 H   0  0  0  0  0  0  0  0  0  0  0  0  # atno 8009 bound_to 7997
  156.0788  140.1368  156.9727 H   0  0  0  0  0  0  0  0  0  0  0  0  # atno 8010 bound_to 7997
  140.2134  144.3865  150.6479 H   0  0  0  0  0  0  0  0  0  0  0  0  # atno 10167 bound_to 10162
  156.2235  130.6993  151.0782 H   0  0  0  0  0  0  0  0  0  0  0  0  # atno 10718 bound_to 10713
  153.0009  135.5437  154.6315 H   0  0  0  0  0  0  0  0  0  0  0  0  # atno 10763 bound_to 10752
  154.5591  135.2832  155.0938 H   0  0  0  0  0  0  0  0  0  0  0  0  # atno 10764 bound_to 10752
  154.2148  135.6461  153.5179 H   0  0  0  0  0  0  0  0  0  0  0  0  # atno 10765 bound_to 10752
  140.9601  134.0948  157.3977 H   0  0  0  0  0  0  0  0  0  0  0  0  # atno 11005 bound_to 11000
  144.6740  140.1778  143.7408 LP  0  0  0  0  0  0  0  0  0  0  0  0  # atno 17320 bound_to 7965
  145.8710  139.2272  143.1661 LP  0  0  0  0  0  0  0  0  0  0  0  0  # atno 17321 bound_to 7965
  140.6307  143.2187  151.6501 LP  0  0  0  0  0  0  0  0  0  0  0  0  # atno 17342 bound_to 10162
  139.5171  144.3325  152.0813 LP  0  0  0  0  0  0  0  0  0  0  0  0  # atno 17343 bound_to 10162
  157.7099  131.0739  150.6537 LP  0  0  0  0  0  0  0  0  0  0  0  0  # atno 17370 bound_to 10713
  156.6601  130.4510  149.5690 LP  0  0  0  0  0  0  0  0  0  0  0  0  # atno 17371 bound_to 10713
  139.8875  135.0090  156.6564 LP  0  0  0  0  0  0  0  0  0  0  0  0  # atno 17394 bound_to 11000
  140.7480  133.8921  155.8326 LP  0  0  0  0  0  0  0  0  0  0  0  0  # atno 17395 bound_to 11000

$$$$
