AV-unprocessed.smi:107|AV-procd|sdf|1017|dock9
  -GOLD-   2262018 23D 1   1.00000     0.00000
 Structure written by MMmdl.
 31 32  0  0  0  0  0  0  0  0  1 V2000
  152.1545  138.0310  154.4945 C   0  0  0  0  0  0  0  0  0  0  0  0
  151.5433  139.2449  155.1743 C   0  0  0  0  0  0  0  0  0  0  0  0
  150.5268  139.9539  154.6206 C   0  0  0  0  0  0  0  0  0  0  0  0
  149.9483  141.0669  155.2135 N   0  0  0  0  0  0  0  0  0  0  0  0
  148.8349  141.8129  154.5134 C   0  0  2  0  0  0  0  0  0  0  0  0
  147.5561  141.8269  155.3586 C   0  0  0  0  0  0  0  0  0  0  0  0
  146.6357  140.9053  154.5784 C   0  0  1  0  0  0  0  0  0  0  0  0
  145.2864  141.3026  154.7139 O   0  0  0  0  0  0  0  0  0  0  0  0
  147.1472  141.0548  153.1429 C   0  0  2  0  0  0  0  0  0  0  0  0
  146.8158  139.8526  152.2457 C   0  0  0  0  0  0  0  0  0  0  0  0
  147.6122  138.7447  152.6068 O   0  0  0  0  0  0  0  0  0  0  0  0
  148.5568  141.1549  153.3153 O   0  0  0  0  0  0  0  0  0  0  0  0
  150.4351  141.5165  156.4597 C   0  0  0  0  0  0  0  0  0  0  0  0
  149.9782  142.4937  157.0517 O   0  0  0  0  0  0  0  0  0  0  0  0
  151.4789  140.7888  157.0291 N   0  0  0  0  0  0  0  0  0  0  0  0
  152.0839  139.6596  156.4716 C   0  0  0  0  0  0  0  0  0  0  0  0
  152.9982  139.1001  157.0746 O   0  0  0  0  0  0  0  0  0  0  0  0
  151.8282  141.1055  157.9218 H   0  0  0  0  0  0  0  0  0  0  0  0
  151.6679  137.8119  153.5439 H   0  0  0  0  0  0  0  0  0  0  0  0
  152.0587  137.1495  155.1293 H   0  0  0  0  0  0  0  0  0  0  0  0
  153.2140  138.1986  154.2974 H   0  0  0  0  0  0  0  0  0  0  0  0
  150.1500  139.6354  153.6602 H   0  0  0  0  0  0  0  0  0  0  0  0
  149.1880  142.8176  154.2795 H   0  0  0  0  0  0  0  0  0  0  0  0
  147.7326  141.5011  156.3845 H   0  0  0  0  0  0  0  0  0  0  0  0
  147.1738  142.8488  155.3775 H   0  0  0  0  0  0  0  0  0  0  0  0
  146.7528  139.8778  154.9247 H   0  0  0  0  0  0  0  0  0  0  0  0
  144.8269  141.0884  153.9163 H   0  0  0  0  0  0  0  0  0  0  0  0
  146.7736  141.9873  152.7145 H   0  0  0  0  0  0  0  0  0  0  0  0
  145.7574  139.5961  152.3010 H   0  0  0  0  0  0  0  0  0  0  0  0
  147.0384  140.0883  151.2046 H   0  0  0  0  0  0  0  0  0  0  0  0
  148.4657  138.8472  152.2140 H   0  0  0  0  0  0  0  0  0  0  0  0
  1  2  1  0  0  0  0
  1 19  1  0  0  0  0
  1 20  1  0  0  0  0
  1 21  1  0  0  0  0
  2 16  1  0  0  0  0
  2  3  2  0  0  0  0
  3  4  1  0  0  0  0
  3 22  1  0  0  0  0
  4  5  1  0  0  0  0
  4 13  1  0  0  0  0
  5 12  1  0  0  0  0
  5  6  1  0  0  0  0
  5 23  1  0  0  0  0
  6  7  1  0  0  0  0
  6 24  1  0  0  0  0
  6 25  1  0  0  0  0
  7  8  1  0  0  0  0
  7  9  1  0  0  0  0
  7 26  1  0  0  0  0
  8 27  1  0  0  0  0
  9 10  1  0  0  0  0
  9 12  1  0  0  0  0
  9 28  1  0  0  0  0
 10 11  1  0  0  0  0
 10 29  1  0  0  0  0
 10 30  1  0  0  0  0
 11 31  1  0  0  0  0
 13 14  2  0  0  0  0
 13 15  1  0  0  0  0
 15 18  1  0  0  0  0
 15 16  1  0  0  0  0
 16 17  2  0  0  0  0
M  END
> <s_m_source_file>
AV-unprocessed.smi

> <i_m_source_file_index>
107

> <i_lp_mmshare_version>
43012

> <i_f3d_flags>
0

> <s_epik_input>
Tz1jMVtuSF1jKD1PKW4oW2NIXWMxW0NIM10pW0NAQEhdMltDSDJdW0NAQEhdKFtPSF0pW0NASF0oTzIpW0NIMl1bT0hd

> <s_epik_cmdline>
J2VwaWtfcHl0aG9uJywgJy1waCcsICc3LjAnLCAnLXRuJywgJzgnLCAnLW1hJywgJzIwMCcsICctbWV0YWxfYmluZGluZycsICctaW1hZScsICc8aW5maWxlLm1hZT4nLCAnLW9tYWUnLCAnPG91dGZpbGUubWFlPic=

> <r_lp_tautomer_probability>
0.999537

> <r_epik_Ionization_Penalty>
0.00121888

> <r_epik_Ionization_Penalty_Charging>
0.00121876

> <r_epik_Ionization_Penalty_Neutral>
1.19946e-07

> <r_epik_State_Penalty>
0.000805124

> <r_epik_Charging_Adjusted_Penalty>
0.00202389

> <i_epik_Tot_Q>
0

> <i_epik_Tot_abs_Q>
0

> <r_epik_Metal_State_Penalty>
0.662472

> <b_epik_Metal_Only>
0

> <s_epik_Chemistry_Notes>
This compound contains an acetal/aminal-like group ( X-CH(R)-Y where X, Y are N, S, or O) that may be acid/base labile, releasing an aldehyde.

> <s_lp_Force_Field>
OPLS_2005

> <r_lp_Energy>
24.9707

> <b_lp_Chiralities_Consistent>
1

> <s_lp_Variant>
AV-unprocessed.smi:107-5

> <Gold.Version>
5.8.1

> <Gold.Id.Protein>
6NUR|6NUR_protein|mol2

> <Gold.PLP.Fitness>
41.5558

> <Gold.PLP.PLP>
-27.1845

> <Gold.PLP.part.hbond>
-5.0000

> <Gold.PLP.part.metal>
0.0000

> <Gold.PLP.part.buried>
1.8966

> <Gold.PLP.part.nonpolar>
-26.2500

> <Gold.PLP.part.repulsive>
2.7043

> <Gold.PLP.ligand.clash>
0.0000

> <Gold.PLP.ligand.torsion>
0.1125

> <Gold.PLP.Chemscore.Hbond>
3.8723

> <Gold.PLP.Chemscore.CHOScore>
0.9889

> <Gold.PLP.Chemscore.Metal>
0.0000

> <Gold.Chemscore.Hbonds>
donor molecule, donor type, donor heavy atom, donor atom, acceptor molecule, acceptor atom, score
      L1  H     8    27       P1 10175  1.00
      L1  H    11    31       P1  7957  0.90
      P1  H  7997  8009       L1    17  1.00
      P1  H  8011  8017       L1    12  0.47
      L1  C     3    22       P1  7957  0.87

> <Gold.PLP.Chemscore.Internal.Correction>
0.0127

> <Gold.Rescore>
     Score         DG    S(hbond)    S(metal)    S(lipo)     H(rot)  DE(clash)    DE(int)     intcor
     11.27     -14.02       2.98        0.00      47.52       2.73       1.77       0.98       ----

> <Gold.Chemscore.Fitness>
11.2739

> <Gold.Chemscore.DG>
-14.0224

> <Gold.Chemscore.ZeroCoef>
-5.4800

> <Gold.Chemscore.Hbond>
2.9818

> <Gold.Chemscore.Metal>
0.0000

> <Gold.Chemscore.Lipo>
47.5211

> <Gold.Chemscore.Internal_Hbond>
0.0000

> <Gold.Chemscore.DEClash>
1.7720

> <Gold.Chemscore.DEInternal>
0.9765

> <Gold.Chemscore.Rot>
2.7253

> <Gold.Chemscore.Internal.Correction>
   9.000000E+99

> <Gold.Chemscore.Hbonds>
donor molecule, donor type, donor heavy atom, donor atom, acceptor molecule, acceptor atom, score
      L1  H     8    27       P1 10175  0.74
      L1  H    11    31       P1  7957  0.85
      P1  H  7997  8009       L1    17  0.55
      P1  H  8011  8017       L1    12  0.02

> <Gold.Chemscore.Hbond.Weighted>
-9.9593

> <Gold.Chemscore.Metal.Weighted>
-0.0000

> <Gold.Chemscore.Lipo.Weighted>
-5.5600

> <Gold.Chemscore.Internal_Hbond.Weighted>
0.0000

> <Gold.Chemscore.DEClash.Weighted>
1.7720

> <Gold.Chemscore.DEInternal.Weighted>
0.9765

> <Gold.Chemscore.Rot.Weighted>
6.9769

> <Gold.Chemscore.Internal.Correction.Weighted>
   9.000000E+99

> <Gold.Protein.RotatedTorsions>
[ 6907 6896 6895 6894 ] final -169.59 input  -60.11 | X-H torsion
[ 7974 7965 7964 7962 ] final  114.26 input  175.53 | X-H torsion
[ 8008 7997 7996 7995 ] final  172.30 input   59.86 | X-H torsion
[ 10167 10162 10161 10158 ] final -175.15 input  -65.29 | X-H torsion
[ 10718 10713 10712 10709 ] final  -95.83 input   66.30 | X-H torsion
[ 10763 10752 10751 10750 ] final  150.93 input  -60.55 | X-H torsion
[ 11005 11000 10999 10996 ] final  155.28 input  -57.11 | X-H torsion

> <Gold.Protein.ActiveResidues>
 VAL166  LYS551  ARG553  GLY616  TRP617  ASP618  TYR619  PRO620  LYS621  CYS622 
 ASP623  PHE694  ASN695  SER759  ASP760  ASP761  ALA762  ILE779  LEU786  VAL792 
 PHE793  MET794  SER795  GLU796  ALA797  LYS798  CYS799  TRP800  GLU811  SER814 

> <Gold.Protein.RotatedAtoms>
  151.4941  133.3518  159.2857 H   0  0  0  0  0  0  0  0  0  0  0  0  # atno 6907 bound_to 6896
  150.8815  134.8209  159.7239 H   0  0  0  0  0  0  0  0  0  0  0  0  # atno 6908 bound_to 6896
  152.4766  134.4839  159.9726 H   0  0  0  0  0  0  0  0  0  0  0  0  # atno 6909 bound_to 6896
  145.2066  139.2926  143.4290 H   0  0  0  0  0  0  0  0  0  0  0  0  # atno 7974 bound_to 7965
  156.1187  140.1489  156.9235 H   0  0  0  0  0  0  0  0  0  0  0  0  # atno 8008 bound_to 7997
  154.4820  140.0876  156.7441 H   0  0  0  0  0  0  0  0  0  0  0  0  # atno 8009 bound_to 7997
  155.4466  140.3433  155.4298 H   0  0  0  0  0  0  0  0  0  0  0  0  # atno 8010 bound_to 7997
  139.5596  144.1903  152.1217 H   0  0  0  0  0  0  0  0  0  0  0  0  # atno 10167 bound_to 10162
  156.0050  130.5126  150.6135 H   0  0  0  0  0  0  0  0  0  0  0  0  # atno 10718 bound_to 10713
  154.0956  135.2849  155.3262 H   0  0  0  0  0  0  0  0  0  0  0  0  # atno 10763 bound_to 10752
  154.6591  135.5341  153.7998 H   0  0  0  0  0  0  0  0  0  0  0  0  # atno 10764 bound_to 10752
  153.0397  135.6529  154.1122 H   0  0  0  0  0  0  0  0  0  0  0  0  # atno 10765 bound_to 10752
  140.1567  134.8638  157.2523 H   0  0  0  0  0  0  0  0  0  0  0  0  # atno 11005 bound_to 11000
  146.3406  140.2329  142.8593 LP  0  0  0  0  0  0  0  0  0  0  0  0  # atno 17320 bound_to 7965
  144.9896  140.8534  143.5348 LP  0  0  0  0  0  0  0  0  0  0  0  0  # atno 17321 bound_to 7965
  140.1413  144.5199  150.6742 LP  0  0  0  0  0  0  0  0  0  0  0  0  # atno 17342 bound_to 10162
  140.6874  143.2357  151.5223 LP  0  0  0  0  0  0  0  0  0  0  0  0  # atno 17343 bound_to 10162
  157.3963  131.0803  151.1348 LP  0  0  0  0  0  0  0  0  0  0  0  0  # atno 17370 bound_to 10713
  157.2024  130.6400  149.5743 LP  0  0  0  0  0  0  0  0  0  0  0  0  # atno 17371 bound_to 10713
  140.2539  134.3650  155.7431 LP  0  0  0  0  0  0  0  0  0  0  0  0  # atno 17394 bound_to 11000
  141.2205  133.7332  156.8977 LP  0  0  0  0  0  0  0  0  0  0  0  0  # atno 17395 bound_to 11000

$$$$
