AV-unprocessed.smi:1767|AV-procd|sdf|7141|dock5
  -GOLD-   22720 8383D 1   1.00000     0.00000
 Structure written by MMmdl.
 33 35  0  0  0  0  0  0  0  0  2 V2000
  153.7318  138.9586  157.8929 O   0  0  0  0  0  0  0  0  0  0  0  0
  152.5269  139.3268  157.2540 C   0  0  2  0  0  0  0  0  0  0  0  0
  151.6337  140.0422  158.2879 C   0  0  0  0  0  0  0  0  0  0  0  0
  151.3283  141.4281  157.9041 N   0  0  0  0  0  0  0  0  0  0  0  0
  150.6965  141.8996  156.7950 C   0  0  0  0  0  0  0  0  0  0  0  0
  150.6340  143.2557  156.9014 N   0  3  0  0  0  0  0  0  0  0  0  0
  151.2363  143.6581  158.0950 C   0  0  0  0  0  0  0  0  0  0  0  0
  151.4118  144.9250  158.6433 C   0  0  0  0  0  0  0  0  0  0  0  0
  152.0691  144.9901  159.8895 C   0  0  0  0  0  0  0  0  0  0  0  0
  152.5252  143.8257  160.5407 C   0  0  0  0  0  0  0  0  0  0  0  0
  152.3442  142.5472  159.9741 C   0  0  0  0  0  0  0  0  0  0  0  0
  151.6904  142.4897  158.7431 C   0  0  0  0  0  0  0  0  0  0  0  0
  151.8300  138.1390  156.6035 C   0  0  0  0  0  0  0  0  0  0  0  0
  151.4227  137.0440  157.3958 C   0  0  0  0  0  0  0  0  0  0  0  0
  150.8073  135.9259  156.8006 C   0  0  0  0  0  0  0  0  0  0  0  0
  150.5931  135.8968  155.4094 C   0  0  0  0  0  0  0  0  0  0  0  0
  150.0058  134.8196  154.8371 F   0  0  0  0  0  0  0  0  0  0  0  0
  150.9927  136.9875  154.6138 C   0  0  0  0  0  0  0  0  0  0  0  0
  151.6098  138.1054  155.2083 C   0  0  0  0  0  0  0  0  0  0  0  0
  153.5524  138.2417  158.4824 H   0  0  0  0  0  0  0  0  0  0  0  0
  152.8004  140.0377  156.4729 H   0  0  0  0  0  0  0  0  0  0  0  0
  150.7076  139.4958  158.4677 H   0  0  0  0  0  0  0  0  0  0  0  0
  152.1482  140.0926  159.2488 H   0  0  0  0  0  0  0  0  0  0  0  0
  150.3084  141.3046  155.9807 H   0  0  0  0  0  0  0  0  0  0  0  0
  151.0627  145.8185  158.1469 H   0  0  0  0  0  0  0  0  0  0  0  0
  152.2261  145.9522  160.3552 H   0  0  0  0  0  0  0  0  0  0  0  0
  153.0234  143.9144  161.4954 H   0  0  0  0  0  0  0  0  0  0  0  0
  152.6953  141.6638  160.4860 H   0  0  0  0  0  0  0  0  0  0  0  0
  151.5914  137.0530  158.4627 H   0  0  0  0  0  0  0  0  0  0  0  0
  150.5019  135.0890  157.4115 H   0  0  0  0  0  0  0  0  0  0  0  0
  150.8293  136.9655  153.5463 H   0  0  0  0  0  0  0  0  0  0  0  0
  151.9227  138.9321  154.5875 H   0  0  0  0  0  0  0  0  0  0  0  0
  150.2093  143.8596  156.2090 H   0  0  0  0  0  0  0  0  0  0  0  0
  1  2  1  0  0  0  0
  1 20  1  0  0  0  0
  2  3  1  0  0  0  0
  2 13  1  0  0  0  0
  2 21  1  0  0  0  0
  3  4  1  0  0  0  0
  3 22  1  0  0  0  0
  3 23  1  0  0  0  0
  4 12  1  0  0  0  0
  4  5  1  0  0  0  0
  5  6  2  0  0  0  0
  5 24  1  0  0  0  0
  6  7  1  0  0  0  0
  6 33  1  0  0  0  0
  7 12  2  0  0  0  0
  7  8  1  0  0  0  0
  8  9  2  0  0  0  0
  8 25  1  0  0  0  0
  9 10  1  0  0  0  0
  9 26  1  0  0  0  0
 10 11  2  0  0  0  0
 10 27  1  0  0  0  0
 11 12  1  0  0  0  0
 11 28  1  0  0  0  0
 13 19  1  0  0  0  0
 13 14  2  0  0  0  0
 14 15  1  0  0  0  0
 14 29  1  0  0  0  0
 15 16  2  0  0  0  0
 15 30  1  0  0  0  0
 16 17  1  0  0  0  0
 16 18  1  0  0  0  0
 18 19  2  0  0  0  0
 18 31  1  0  0  0  0
 19 32  1  0  0  0  0
M  CHG  1   6   1
M  END
> <s_m_source_file>
AV-unprocessed.smi

> <i_m_source_file_index>
1767

> <i_lp_mmshare_version>
43012

> <i_f3d_flags>
0

> <s_epik_input>
W2NIXTFbY0hdYyhGKVtjSF1bY0hdYzFbQ0BIXShbT0hdKVtDSDJdbihbY0hdbjIpYyhjMjMpW2NIXVtjSF1bY0hdW2NIXTM=

> <s_epik_cmdline>
J2VwaWtfcHl0aG9uJywgJy1waCcsICc3LjAnLCAnLXRuJywgJzgnLCAnLW1hJywgJzIwMCcsICctbWV0YWxfYmluZGluZycsICctaW1hZScsICc8aW5maWxlLm1hZT4nLCAnLW9tYWUnLCAnPG91dGZpbGUubWFlPic=

> <r_epik_Ionization_Penalty>
1.3029

> <r_epik_Ionization_Penalty_Charging>
1.3029

> <r_epik_Ionization_Penalty_Neutral>
1.79538e-06

> <r_epik_State_Penalty>
1.377

> <r_epik_Charging_Adjusted_Penalty>
2.6799

> <i_epik_Tot_Q>
1

> <i_epik_Tot_abs_Q>
1

> <r_epik_Metal_State_Penalty>
5.40879

> <b_epik_Metal_Only>
0

> <s_lp_Force_Field>
OPLS_2005

> <r_lp_Energy>
17.7516

> <b_lp_Chiralities_Consistent>
1

> <s_lp_Variant>
AV-unprocessed.smi:1767-3

> <Gold.Version>
5.8.1

> <Gold.Id.Protein>
6NUR|6NUR_protein|mol2

> <Gold.PLP.Fitness>
47.5269

> <Gold.PLP.PLP>
-40.0144

> <Gold.PLP.part.hbond>
-2.0000

> <Gold.PLP.part.metal>
0.0000

> <Gold.PLP.part.buried>
-5.1102

> <Gold.PLP.part.nonpolar>
-33.7289

> <Gold.PLP.part.repulsive>
0.0253

> <Gold.PLP.ligand.clash>
0.0000

> <Gold.PLP.ligand.torsion>
0.7512

> <Gold.PLP.Chemscore.Hbond>
3.0000

> <Gold.PLP.Chemscore.CHOScore>
0.0000

> <Gold.PLP.Chemscore.Metal>
0.0000

> <Gold.Chemscore.Hbonds>
donor molecule, donor type, donor heavy atom, donor atom, acceptor molecule, acceptor atom, score
      L1  H     6    33       P1  8028  2.00
      P1  H  7997  8010       L1     1  1.00

> <Gold.PLP.Chemscore.Internal.Correction>
0.0148

> <Gold.Rescore>
     Score         DG    S(hbond)    S(metal)    S(lipo)     H(rot)  DE(clash)    DE(int)     intcor
     18.34     -19.12       1.85        0.00     106.81       1.97       0.01       0.77       ----

> <Gold.Chemscore.Fitness>
18.3435

> <Gold.Chemscore.DG>
-19.1221

> <Gold.Chemscore.ZeroCoef>
-5.4800

> <Gold.Chemscore.Hbond>
1.8511

> <Gold.Chemscore.Metal>
0.0000

> <Gold.Chemscore.Lipo>
106.8095

> <Gold.Chemscore.Internal_Hbond>
0.0000

> <Gold.Chemscore.DEClash>
0.0106

> <Gold.Chemscore.DEInternal>
0.7680

> <Gold.Chemscore.Rot>
1.9677

> <Gold.Chemscore.Internal.Correction>
   9.000000E+99

> <Gold.Chemscore.Hbonds>
donor molecule, donor type, donor heavy atom, donor atom, acceptor molecule, acceptor atom, score
      L1  H     6    33       P1  8028  0.94
      P1  H  7997  8010       L1     1  0.43

> <Gold.Chemscore.Hbond.Weighted>
-6.1826

> <Gold.Chemscore.Metal.Weighted>
-0.0000

> <Gold.Chemscore.Lipo.Weighted>
-12.4967

> <Gold.Chemscore.Internal_Hbond.Weighted>
0.0000

> <Gold.Chemscore.DEClash.Weighted>
0.0106

> <Gold.Chemscore.DEInternal.Weighted>
0.7680

> <Gold.Chemscore.Rot.Weighted>
5.0372

> <Gold.Chemscore.Internal.Correction.Weighted>
   9.000000E+99

> <Gold.Protein.RotatedTorsions>
[ 6907 6896 6895 6894 ] final   56.12 input  -60.11 | X-H torsion
[ 7974 7965 7964 7962 ] final  -79.97 input  175.53 | X-H torsion
[ 8008 7997 7996 7995 ] final   12.55 input   59.86 | X-H torsion
[ 10167 10162 10161 10158 ] final  122.49 input  -65.29 | X-H torsion
[ 10718 10713 10712 10709 ] final -159.41 input   66.30 | X-H torsion
[ 10763 10752 10751 10750 ] final  -98.49 input  -60.55 | X-H torsion
[ 11005 11000 10999 10996 ] final -178.34 input  -57.11 | X-H torsion

> <Gold.Protein.ActiveResidues>
 VAL166  LYS551  ARG553  GLY616  TRP617  ASP618  TYR619  PRO620  LYS621  CYS622 
 ASP623  PHE694  ASN695  SER759  ASP760  ASP761  ALA762  ILE779  LEU786  VAL792 
 PHE793  MET794  SER795  GLU796  ALA797  LYS798  CYS799  TRP800  GLU811  SER814 

> <Gold.Protein.RotatedAtoms>
  152.3605  134.6879  160.0208 H   0  0  0  0  0  0  0  0  0  0  0  0  # atno 6907 bound_to 6896
  151.7203  133.3309  159.3322 H   0  0  0  0  0  0  0  0  0  0  0  0  # atno 6908 bound_to 6896
  150.7601  134.6388  159.6270 H   0  0  0  0  0  0  0  0  0  0  0  0  # atno 6909 bound_to 6896
  145.5661  140.9474  143.1421 H   0  0  0  0  0  0  0  0  0  0  0  0  # atno 7974 bound_to 7965
  154.8222  140.2886  155.5779 H   0  0  0  0  0  0  0  0  0  0  0  0  # atno 8008 bound_to 7997
  156.2998  140.2548  156.3062 H   0  0  0  0  0  0  0  0  0  0  0  0  # atno 8009 bound_to 7997
  154.9325  140.0383  157.2045 H   0  0  0  0  0  0  0  0  0  0  0  0  # atno 8010 bound_to 7997
  139.5856  144.7005  151.3418 H   0  0  0  0  0  0  0  0  0  0  0  0  # atno 10167 bound_to 10162
  156.5678  130.8675  151.2829 H   0  0  0  0  0  0  0  0  0  0  0  0  # atno 10718 bound_to 10713
  154.7419  135.5007  153.9137 H   0  0  0  0  0  0  0  0  0  0  0  0  # atno 10763 bound_to 10752
  153.1052  135.6695  153.9608 H   0  0  0  0  0  0  0  0  0  0  0  0  # atno 10764 bound_to 10752
  153.9383  135.3070  155.3422 H   0  0  0  0  0  0  0  0  0  0  0  0  # atno 10765 bound_to 10752
  140.4308  134.6520  157.4711 H   0  0  0  0  0  0  0  0  0  0  0  0  # atno 11005 bound_to 11000
  144.7460  139.7320  143.7292 LP  0  0  0  0  0  0  0  0  0  0  0  0  # atno 17320 bound_to 7965
  146.1817  139.5012  142.9862 LP  0  0  0  0  0  0  0  0  0  0  0  0  # atno 17321 bound_to 7965
  140.7128  143.7346  150.7598 LP  0  0  0  0  0  0  0  0  0  0  0  0  # atno 17342 bound_to 10162
  140.0889  143.4896  152.2489 LP  0  0  0  0  0  0  0  0  0  0  0  0  # atno 17343 bound_to 10162
  157.7355  130.9763  150.2084 LP  0  0  0  0  0  0  0  0  0  0  0  0  # atno 17370 bound_to 10713
  156.2742  130.3725  149.8001 LP  0  0  0  0  0  0  0  0  0  0  0  0  # atno 17371 bound_to 10713
  140.0135  134.6654  155.9344 LP  0  0  0  0  0  0  0  0  0  0  0  0  # atno 17394 bound_to 11000
  141.1746  133.6539  156.4780 LP  0  0  0  0  0  0  0  0  0  0  0  0  # atno 17395 bound_to 11000

$$$$
