AV-unprocessed.smi:1641|AV-procd|sdf|6556|dock8
  -GOLD-   22720 7243D 1   1.00000     0.00000
 Structure written by MMmdl.
 41 42  0  0  0  0  0  0  0  0  1 V2000
  146.6293  134.0088  162.6235 C   0  0  0  0  0  0  0  0  0  0  0  0
  147.2987  135.0988  161.8582 C   0  0  0  0  0  0  0  0  0  0  0  0
  147.0705  136.3961  162.0967 N   0  0  0  0  0  0  0  0  0  0  0  0
  147.8085  137.2226  161.2607 N   0  0  0  0  0  0  0  0  0  0  0  0
  148.5743  136.5212  160.4137 C   0  0  0  0  0  0  0  0  0  0  0  0
  149.4302  137.1135  159.4475 N   0  0  0  0  0  0  0  0  0  0  0  0
  149.2051  138.2015  158.6900 C   0  0  0  0  0  0  0  0  0  0  0  0
  148.1793  138.8826  158.7075 O   0  0  0  0  0  0  0  0  0  0  0  0
  150.2498  138.4612  157.8907 N   0  0  0  0  0  0  0  0  0  0  0  0
  150.3193  139.5629  156.9385 C   0  0  0  0  0  0  0  0  0  0  0  0
  150.0847  140.9172  157.6335 C   0  0  0  0  0  0  0  0  0  0  0  0
  151.2992  141.6625  157.9595 N   0  0  0  0  0  0  0  0  0  0  0  0
  152.0156  141.0948  159.0993 C   0  0  0  0  0  0  0  0  0  0  0  0
  153.2792  141.9049  159.4492 C   0  0  2  0  0  0  0  0  0  0  0  0
  153.9839  141.3663  160.6986 C   0  0  0  0  0  0  0  0  0  0  0  0
  152.9150  143.2612  159.6912 O   0  0  0  0  0  0  0  0  0  0  0  0
  152.2526  143.8726  158.5878 C   0  0  2  0  0  0  0  0  0  0  0  0
  151.9222  145.3201  158.9665 C   0  0  0  0  0  0  0  0  0  0  0  0
  150.9904  143.0585  158.2467 C   0  0  0  0  0  0  0  0  0  0  0  0
  148.4583  134.7771  160.5745 S   0  0  0  0  0  0  0  0  0  0  0  0
  147.2556  133.7041  163.4620 H   0  0  0  0  0  0  0  0  0  0  0  0
  146.4612  133.1458  161.9791 H   0  0  0  0  0  0  0  0  0  0  0  0
  145.6668  134.3477  163.0083 H   0  0  0  0  0  0  0  0  0  0  0  0
  150.3174  136.6510  159.3149 H   0  0  0  0  0  0  0  0  0  0  0  0
  151.0534  137.8521  157.9401 H   0  0  0  0  0  0  0  0  0  0  0  0
  151.2819  139.5362  156.4267 H   0  0  0  0  0  0  0  0  0  0  0  0
  149.5558  139.4001  156.1771 H   0  0  0  0  0  0  0  0  0  0  0  0
  149.4696  141.5254  156.9686 H   0  0  0  0  0  0  0  0  0  0  0  0
  149.4918  140.7707  158.5378 H   0  0  0  0  0  0  0  0  0  0  0  0
  151.3555  141.0571  159.9675 H   0  0  0  0  0  0  0  0  0  0  0  0
  152.3098  140.0677  158.8863 H   0  0  0  0  0  0  0  0  0  0  0  0
  153.9776  141.8705  158.6110 H   0  0  0  0  0  0  0  0  0  0  0  0
  154.2899  140.3291  160.5600 H   0  0  0  0  0  0  0  0  0  0  0  0
  153.3295  141.4094  161.5698 H   0  0  0  0  0  0  0  0  0  0  0  0
  154.8773  141.9493  160.9238 H   0  0  0  0  0  0  0  0  0  0  0  0
  152.9262  143.8801  157.7292 H   0  0  0  0  0  0  0  0  0  0  0  0
  151.4174  145.8342  158.1484 H   0  0  0  0  0  0  0  0  0  0  0  0
  152.8290  145.8782  159.2006 H   0  0  0  0  0  0  0  0  0  0  0  0
  151.2713  145.3602  159.8403 H   0  0  0  0  0  0  0  0  0  0  0  0
  150.4934  143.5096  157.3870 H   0  0  0  0  0  0  0  0  0  0  0  0
  150.2859  143.1158  159.0784 H   0  0  0  0  0  0  0  0  0  0  0  0
  1  2  1  0  0  0  0
  1 21  1  0  0  0  0
  1 22  1  0  0  0  0
  1 23  1  0  0  0  0
  2 20  1  0  0  0  0
  2  3  2  0  0  0  0
  3  4  1  0  0  0  0
  4  5  2  0  0  0  0
  5  6  1  0  0  0  0
  5 20  1  0  0  0  0
  6  7  1  0  0  0  0
  6 24  1  0  0  0  0
  7  8  2  0  0  0  0
  7  9  1  0  0  0  0
  9 10  1  0  0  0  0
  9 25  1  0  0  0  0
 10 11  1  0  0  0  0
 10 26  1  0  0  0  0
 10 27  1  0  0  0  0
 11 12  1  0  0  0  0
 11 28  1  0  0  0  0
 11 29  1  0  0  0  0
 12 19  1  0  0  0  0
 12 13  1  0  0  0  0
 13 14  1  0  0  0  0
 13 30  1  0  0  0  0
 13 31  1  0  0  0  0
 14 15  1  0  0  0  0
 14 16  1  0  0  0  0
 14 32  1  0  0  0  0
 15 33  1  0  0  0  0
 15 34  1  0  0  0  0
 15 35  1  0  0  0  0
 16 17  1  0  0  0  0
 17 18  1  0  0  0  0
 17 19  1  0  0  0  0
 17 36  1  0  0  0  0
 18 37  1  0  0  0  0
 18 38  1  0  0  0  0
 18 39  1  0  0  0  0
 19 40  1  0  0  0  0
 19 41  1  0  0  0  0
M  END
> <s_m_source_file>
AV-unprocessed.smi

> <i_m_source_file_index>
1641

> <i_lp_mmshare_version>
43012

> <i_f3d_flags>
0

> <s_epik_input>
W0NIM11jMW5uYyhzMSlbTkhdQyg9TylbTkhdW0NIMl1bQ0gyXU4yW0NIMl1bQ0BASF0oW0NIM10pT1tDQEBIXShbQ0gzXSlbQ0gyXTI=

> <s_epik_cmdline>
J2VwaWtfcHl0aG9uJywgJy1waCcsICc3LjAnLCAnLXRuJywgJzgnLCAnLW1hJywgJzIwMCcsICctbWV0YWxfYmluZGluZycsICctaW1hZScsICc8aW5maWxlLm1hZT4nLCAnLW9tYWUnLCAnPG91dGZpbGUubWFlPic=

> <r_lp_tautomer_probability>
1

> <r_epik_Ionization_Penalty>
0.221104

> <r_epik_Ionization_Penalty_Charging>
0

> <r_epik_Ionization_Penalty_Neutral>
0.221104

> <r_epik_State_Penalty>
0.209349

> <r_epik_Charging_Adjusted_Penalty>
0.209349

> <i_epik_Tot_Q>
0

> <i_epik_Tot_abs_Q>
0

> <r_epik_Metal_State_Penalty>
0.560954

> <b_epik_Metal_Only>
0

> <s_lp_Force_Field>
OPLS_2005

> <r_lp_Energy>
18.567

> <b_lp_Chiralities_Consistent>
1

> <s_lp_Variant>
AV-unprocessed.smi:1641-1

> <Gold.Version>
5.8.1

> <Gold.Id.Protein>
6NUR|6NUR_protein|mol2

> <Gold.PLP.Fitness>
40.8570

> <Gold.PLP.PLP>
-36.8494

> <Gold.PLP.part.hbond>
-3.0000

> <Gold.PLP.part.metal>
0.0000

> <Gold.PLP.part.buried>
-5.7039

> <Gold.PLP.part.nonpolar>
-28.2982

> <Gold.PLP.part.repulsive>
0.2904

> <Gold.PLP.ligand.clash>
0.0000

> <Gold.PLP.ligand.torsion>
0.6868

> <Gold.PLP.Chemscore.Hbond>
1.7920

> <Gold.PLP.Chemscore.CHOScore>
0.0000

> <Gold.PLP.Chemscore.Metal>
0.0000

> <Gold.Chemscore.Hbonds>
donor molecule, donor type, donor heavy atom, donor atom, acceptor molecule, acceptor atom, score
      P1  H  6931  6943       L1     4  0.88
      P1  H  6934  6947       L1     4  0.78

> <Gold.PLP.Chemscore.Internal.Correction>
0.0051

> <Gold.Rescore>
     Score         DG    S(hbond)    S(metal)    S(lipo)     H(rot)  DE(clash)    DE(int)     intcor
     14.18     -16.26       1.42        0.00      86.46       1.60       0.02       2.06       ----

> <Gold.Chemscore.Fitness>
14.1809

> <Gold.Chemscore.DG>
-16.2590

> <Gold.Chemscore.ZeroCoef>
-5.4800

> <Gold.Chemscore.Hbond>
1.4231

> <Gold.Chemscore.Metal>
0.0000

> <Gold.Chemscore.Lipo>
86.4578

> <Gold.Chemscore.Internal_Hbond>
0.0000

> <Gold.Chemscore.DEClash>
0.0199

> <Gold.Chemscore.DEInternal>
2.0582

> <Gold.Chemscore.Rot>
1.5975

> <Gold.Chemscore.Internal.Correction>
   9.000000E+99

> <Gold.Chemscore.Hbonds>
donor molecule, donor type, donor heavy atom, donor atom, acceptor molecule, acceptor atom, score
      P1  H  6931  6943       L1     4  0.16
      P1  H  6934  6947       L1     4  0.75

> <Gold.Chemscore.Hbond.Weighted>
-4.7530

> <Gold.Chemscore.Metal.Weighted>
-0.0000

> <Gold.Chemscore.Lipo.Weighted>
-10.1156

> <Gold.Chemscore.Internal_Hbond.Weighted>
0.0000

> <Gold.Chemscore.DEClash.Weighted>
0.0199

> <Gold.Chemscore.DEInternal.Weighted>
2.0582

> <Gold.Chemscore.Rot.Weighted>
4.0896

> <Gold.Chemscore.Internal.Correction.Weighted>
   9.000000E+99

> <Gold.Protein.RotatedTorsions>
[ 6907 6896 6895 6894 ] final  -64.42 input  -60.11 | X-H torsion
[ 7974 7965 7964 7962 ] final -132.59 input  175.53 | X-H torsion
[ 8008 7997 7996 7995 ] final  134.77 input   59.86 | X-H torsion
[ 10167 10162 10161 10158 ] final   23.99 input  -65.29 | X-H torsion
[ 10718 10713 10712 10709 ] final   52.57 input   66.30 | X-H torsion
[ 10763 10752 10751 10750 ] final  127.50 input  -60.55 | X-H torsion
[ 11005 11000 10999 10996 ] final -122.11 input  -57.11 | X-H torsion

> <Gold.Protein.ActiveResidues>
 VAL166  LYS551  ARG553  GLY616  TRP617  ASP618  TYR619  PRO620  LYS621  CYS622 
 ASP623  PHE694  ASN695  SER759  ASP760  ASP761  ALA762  ILE779  LEU786  VAL792 
 PHE793  MET794  SER795  GLU796  ALA797  LYS798  CYS799  TRP800  GLU811  SER814 

> <Gold.Protein.RotatedAtoms>
  150.7587  134.6301  159.6181 H   0  0  0  0  0  0  0  0  0  0  0  0  # atno 6907 bound_to 6896
  152.3581  134.6908  160.0224 H   0  0  0  0  0  0  0  0  0  0  0  0  # atno 6908 bound_to 6896
  151.7307  133.3281  159.3376 H   0  0  0  0  0  0  0  0  0  0  0  0  # atno 6909 bound_to 6896
  144.9271  140.7084  143.4929 H   0  0  0  0  0  0  0  0  0  0  0  0  # atno 7974 bound_to 7965
  156.3000  140.2487  156.3472 H   0  0  0  0  0  0  0  0  0  0  0  0  # atno 8008 bound_to 7997
  154.8999  140.0406  157.1906 H   0  0  0  0  0  0  0  0  0  0  0  0  # atno 8009 bound_to 7997
  154.8511  140.2906  155.5602 H   0  0  0  0  0  0  0  0  0  0  0  0  # atno 8010 bound_to 7997
  140.5224  143.9980  150.6423 H   0  0  0  0  0  0  0  0  0  0  0  0  # atno 10167 bound_to 10162
  157.5087  130.8486  149.8408 H   0  0  0  0  0  0  0  0  0  0  0  0  # atno 10718 bound_to 10713
  153.7104  135.3269  155.3245 H   0  0  0  0  0  0  0  0  0  0  0  0  # atno 10763 bound_to 10752
  154.8386  135.4475  154.1320 H   0  0  0  0  0  0  0  0  0  0  0  0  # atno 10764 bound_to 10752
  153.2412  135.6971  153.7860 H   0  0  0  0  0  0  0  0  0  0  0  0  # atno 10765 bound_to 10752
  141.0020  134.0389  157.3526 H   0  0  0  0  0  0  0  0  0  0  0  0  # atno 11005 bound_to 11000
  145.3202  139.1791  143.4592 LP  0  0  0  0  0  0  0  0  0  0  0  0  # atno 17320 bound_to 7965
  146.3231  140.3218  142.8634 LP  0  0  0  0  0  0  0  0  0  0  0  0  # atno 17321 bound_to 7965
  140.3332  143.3064  152.0665 LP  0  0  0  0  0  0  0  0  0  0  0  0  # atno 17342 bound_to 10162
  139.4927  144.6494  151.6708 LP  0  0  0  0  0  0  0  0  0  0  0  0  # atno 17343 bound_to 10162
  156.0275  130.3775  150.1781 LP  0  0  0  0  0  0  0  0  0  0  0  0  # atno 17370 bound_to 10713
  156.9971  130.9911  151.3400 LP  0  0  0  0  0  0  0  0  0  0  0  0  # atno 17371 bound_to 10713
  139.9043  135.0175  156.7416 LP  0  0  0  0  0  0  0  0  0  0  0  0  # atno 17394 bound_to 11000
  140.6874  133.9420  155.7946 LP  0  0  0  0  0  0  0  0  0  0  0  0  # atno 17395 bound_to 11000

$$$$
