AV-unprocessed.smi:3237|AV-procd|sdf|12367|dock1
  -GOLD-   2272018223D 1   1.00000     0.00000
 Structure written by MMmdl.
 36 38  0  0  0  0  0  0  0  0  3 V2000
  146.5094  136.3539  162.6712 C   0  0  0  0  0  0  0  0  0  0  0  0
  147.3044  136.2602  161.4137 C   0  0  0  0  0  0  0  0  0  0  0  0
  147.8688  135.2084  160.7498 C   0  0  0  0  0  0  0  0  0  0  0  0
  148.4737  135.8241  159.6203 C   0  0  0  0  0  0  0  0  0  0  0  0
  149.1701  135.1960  158.6602 N   0  5  0  0  0  0  0  0  0  0  0  0
  149.6372  135.8884  157.5969 C   0  0  0  0  0  0  0  0  0  0  0  0
  150.7878  136.3033  157.4405 O   0  0  0  0  0  0  0  0  0  0  0  0
  148.7118  136.1188  156.6551 N   0  0  0  0  0  0  0  0  0  0  0  0
  148.9364  136.8449  155.4103 C   0  0  2  0  0  0  0  0  0  0  0  0
  149.4678  138.2688  155.5947 C   0  0  0  0  0  0  0  0  0  0  0  0
  148.9281  139.0406  154.3797 C   0  0  0  0  0  0  0  0  0  0  0  0
  147.9669  138.1450  153.6943 N   0  3  2  0  0  0  0  0  0  0  0  0
  146.7902  138.8359  153.1266 C   0  0  0  0  0  0  0  0  0  0  0  0
  145.9243  137.9471  152.2661 C   0  0  0  0  0  0  0  0  0  0  0  0
  146.8369  138.9693  151.6233 C   0  0  0  0  0  0  0  0  0  0  0  0
  147.6360  137.0714  154.6470 C   0  0  0  0  0  0  0  0  0  0  0  0
  148.3055  137.1359  159.6084 N   0  0  0  0  0  0  0  0  0  0  0  0
  147.5494  137.4228  160.7513 O   0  0  0  0  0  0  0  0  0  0  0  0
  146.9722  135.7667  163.4644 H   0  0  0  0  0  0  0  0  0  0  0  0
  145.4988  135.9760  162.5166 H   0  0  0  0  0  0  0  0  0  0  0  0
  146.4365  137.3858  163.0146 H   0  0  0  0  0  0  0  0  0  0  0  0
  147.8496  134.1646  161.0250 H   0  0  0  0  0  0  0  0  0  0  0  0
  147.7826  135.7608  156.8215 H   0  0  0  0  0  0  0  0  0  0  0  0
  149.6221  136.2804  154.7750 H   0  0  0  0  0  0  0  0  0  0  0  0
  149.0700  138.7074  156.5113 H   0  0  0  0  0  0  0  0  0  0  0  0
  150.5560  138.2984  155.6596 H   0  0  0  0  0  0  0  0  0  0  0  0
  148.4489  139.9651  154.7054 H   0  0  0  0  0  0  0  0  0  0  0  0
  149.7268  139.3070  153.6870 H   0  0  0  0  0  0  0  0  0  0  0  0
  146.3459  139.6209  153.7361 H   0  0  0  0  0  0  0  0  0  0  0  0
  146.1980  136.8978  152.1706 H   0  0  0  0  0  0  0  0  0  0  0  0
  144.8558  138.1523  152.2485 H   0  0  0  0  0  0  0  0  0  0  0  0
  146.3700  139.8481  151.1830 H   0  0  0  0  0  0  0  0  0  0  0  0
  147.7170  138.5997  151.1000 H   0  0  0  0  0  0  0  0  0  0  0  0
  147.2879  136.1734  154.1355 H   0  0  0  0  0  0  0  0  0  0  0  0
  146.8473  137.4073  155.3235 H   0  0  0  0  0  0  0  0  0  0  0  0
  148.4705  137.7088  152.9353 H   0  0  0  0  0  0  0  0  0  0  0  0
  1  2  1  0  0  0  0
  1 19  1  0  0  0  0
  1 20  1  0  0  0  0
  1 21  1  0  0  0  0
  2 18  1  0  0  0  0
  2  3  2  0  0  0  0
  3  4  1  0  0  0  0
  3 22  1  0  0  0  0
  4  5  1  0  0  0  0
  4 17  2  0  0  0  0
  5  6  1  0  0  0  0
  6  7  2  0  0  0  0
  6  8  1  0  0  0  0
  8  9  1  0  0  0  0
  8 23  1  0  0  0  0
  9 16  1  0  0  0  0
  9 10  1  0  0  0  0
  9 24  1  0  0  0  0
 10 11  1  0  0  0  0
 10 25  1  0  0  0  0
 10 26  1  0  0  0  0
 11 12  1  0  0  0  0
 11 27  1  0  0  0  0
 11 28  1  0  0  0  0
 12 13  1  0  0  0  0
 12 16  1  0  0  0  0
 12 36  1  0  0  0  0
 13 15  1  0  0  0  0
 13 14  1  0  0  0  0
 13 29  1  0  0  0  0
 14 15  1  0  0  0  0
 14 30  1  0  0  0  0
 14 31  1  0  0  0  0
 15 32  1  0  0  0  0
 15 33  1  0  0  0  0
 16 34  1  0  0  0  0
 16 35  1  0  0  0  0
 17 18  1  0  0  0  0
M  CHG  1   5  -1
M  CHG  1  12   1
M  END
> <s_m_source_file>
AV-unprocessed.smi

> <i_m_source_file_index>
3237

> <i_lp_mmshare_version>
43012

> <i_f3d_flags>
0

> <s_epik_input>
W0NIM11jMVtjSF1jKG5vMSlbTkhdQyg9TylbTkhdW0NAQEhdMltDSDJdW0NIMl1OKFtDSDJdMilbQ0hdM1tDSDJdW0NIMl0z

> <s_epik_cmdline>
J2VwaWtfcHl0aG9uJywgJy1waCcsICc3LjAnLCAnLXRuJywgJzgnLCAnLW1hJywgJzIwMCcsICctbWV0YWxfYmluZGluZycsICctaW1hZScsICc8aW5maWxlLm1hZT4nLCAnLW9tYWUnLCAnPG91dGZpbGUubWFlPic=

> <r_epik_Ionization_Penalty>
6.08472

> <r_epik_Ionization_Penalty_Charging>
6.08464

> <r_epik_Ionization_Penalty_Neutral>
8.41751e-05

> <r_epik_State_Penalty>
6.08438

> <r_epik_Charging_Adjusted_Penalty>
12.169

> <i_epik_Tot_Q>
0

> <i_epik_Tot_abs_Q>
2

> <r_epik_Metal_State_Penalty>
2.0369

> <b_epik_Metal_Only>
1

> <s_lp_Force_Field>
OPLS_2005

> <r_lp_Energy>
23.7168

> <b_lp_Chiralities_Consistent>
1

> <s_lp_Variant>
AV-unprocessed.smi:3237-5

> <Gold.Version>
5.8.1

> <Gold.Id.Protein>
6NUR|6NUR_protein|mol2

> <Gold.PLP.Fitness>
40.0205

> <Gold.PLP.PLP>
-24.9041

> <Gold.PLP.part.hbond>
-4.6154

> <Gold.PLP.part.metal>
0.0000

> <Gold.PLP.part.buried>
-0.2729

> <Gold.PLP.part.nonpolar>
-20.6161

> <Gold.PLP.part.repulsive>
0.0265

> <Gold.PLP.ligand.clash>
0.0000

> <Gold.PLP.ligand.torsion>
1.4493

> <Gold.PLP.Chemscore.Hbond>
5.5816

> <Gold.PLP.Chemscore.CHOScore>
0.0000

> <Gold.PLP.Chemscore.Metal>
0.0000

> <Gold.Chemscore.Hbonds>
donor molecule, donor type, donor heavy atom, donor atom, acceptor molecule, acceptor atom, score
      L1  H    12    36       P1  7948  2.00
      P1  H  6896  6909       L1     5  2.00
      P1  H  6931  6943       L1    18  0.64
      P1  H  6934  6947       L1    18  0.98

> <Gold.PLP.Chemscore.Internal.Correction>
1.2703

> <Gold.Rescore>
     Score         DG    S(hbond)    S(metal)    S(lipo)     H(rot)  DE(clash)    DE(int)     intcor
     14.87     -17.44       2.45        0.00      59.53       1.25       0.10       2.47       ----

> <Gold.Chemscore.Fitness>
14.8747

> <Gold.Chemscore.DG>
-17.4417

> <Gold.Chemscore.ZeroCoef>
-5.4800

> <Gold.Chemscore.Hbond>
2.4515

> <Gold.Chemscore.Metal>
0.0000

> <Gold.Chemscore.Lipo>
59.5265

> <Gold.Chemscore.Internal_Hbond>
0.0000

> <Gold.Chemscore.DEClash>
0.0971

> <Gold.Chemscore.DEInternal>
2.4699

> <Gold.Chemscore.Rot>
1.2464

> <Gold.Chemscore.Internal.Correction>
   9.000000E+99

> <Gold.Chemscore.Hbonds>
donor molecule, donor type, donor heavy atom, donor atom, acceptor molecule, acceptor atom, score
      L1  H    12    36       P1  7948  0.98
      P1  H  6896  6909       L1     5  0.17
      P1  H  6931  6943       L1    18  0.05
      P1  H  6934  6947       L1    18  0.82

> <Gold.Chemscore.Hbond.Weighted>
-8.1880

> <Gold.Chemscore.Metal.Weighted>
-0.0000

> <Gold.Chemscore.Lipo.Weighted>
-6.9646

> <Gold.Chemscore.Internal_Hbond.Weighted>
0.0000

> <Gold.Chemscore.DEClash.Weighted>
0.0971

> <Gold.Chemscore.DEInternal.Weighted>
2.4699

> <Gold.Chemscore.Rot.Weighted>
3.1909

> <Gold.Chemscore.Internal.Correction.Weighted>
   9.000000E+99

> <Gold.Protein.RotatedTorsions>
[ 6907 6896 6895 6894 ] final   56.43 input  -60.11 | X-H torsion
[ 7974 7965 7964 7962 ] final   55.16 input  175.53 | X-H torsion
[ 8008 7997 7996 7995 ] final   77.08 input   59.86 | X-H torsion
[ 10167 10162 10161 10158 ] final  134.38 input  -65.29 | X-H torsion
[ 10718 10713 10712 10709 ] final -158.95 input   66.30 | X-H torsion
[ 10763 10752 10751 10750 ] final  -62.26 input  -60.55 | X-H torsion
[ 11005 11000 10999 10996 ] final  -16.66 input  -57.11 | X-H torsion

> <Gold.Protein.ActiveResidues>
 VAL166  LYS551  ARG553  GLY616  TRP617  ASP618  TYR619  PRO620  LYS621  CYS622 
 ASP623  PHE694  ASN695  SER759  ASP760  ASP761  ALA762  ILE779  LEU786  VAL792 
 PHE793  MET794  SER795  GLU796  ALA797  LYS798  CYS799  TRP800  GLU811  SER814 

> <Gold.Protein.RotatedAtoms>
  152.3635  134.6838  160.0199 H   0  0  0  0  0  0  0  0  0  0  0  0  # atno 6907 bound_to 6896
  151.7153  133.3307  159.3309 H   0  0  0  0  0  0  0  0  0  0  0  0  # atno 6908 bound_to 6896
  150.7621  134.6430  159.6292 H   0  0  0  0  0  0  0  0  0  0  0  0  # atno 6909 bound_to 6896
  145.9533  139.3992  143.0292 H   0  0  0  0  0  0  0  0  0  0  0  0  # atno 7974 bound_to 7965
  155.8365  140.3464  155.5605 H   0  0  0  0  0  0  0  0  0  0  0  0  # atno 8008 bound_to 7997
  155.8186  140.0909  157.1882 H   0  0  0  0  0  0  0  0  0  0  0  0  # atno 8009 bound_to 7997
  154.4004  140.1434  156.3460 H   0  0  0  0  0  0  0  0  0  0  0  0  # atno 8010 bound_to 7997
  139.5258  144.6570  151.5131 H   0  0  0  0  0  0  0  0  0  0  0  0  # atno 10167 bound_to 10162
  156.5613  130.8648  151.2810 H   0  0  0  0  0  0  0  0  0  0  0  0  # atno 10718 bound_to 10713
  154.2972  135.6242  153.5409 H   0  0  0  0  0  0  0  0  0  0  0  0  # atno 10763 bound_to 10752
  152.9845  135.5670  154.5324 H   0  0  0  0  0  0  0  0  0  0  0  0  # atno 10764 bound_to 10752
  154.4947  135.2869  155.1444 H   0  0  0  0  0  0  0  0  0  0  0  0  # atno 10765 bound_to 10752
  140.8091  133.8155  155.9545 H   0  0  0  0  0  0  0  0  0  0  0  0  # atno 11005 bound_to 11000
  145.8141  140.9711  143.0933 LP  0  0  0  0  0  0  0  0  0  0  0  0  # atno 17320 bound_to 7965
  144.6800  139.9958  143.7484 LP  0  0  0  0  0  0  0  0  0  0  0  0  # atno 17321 bound_to 7965
  140.6400  143.8907  150.6683 LP  0  0  0  0  0  0  0  0  0  0  0  0  # atno 17342 bound_to 10162
  140.2239  143.3787  152.1620 LP  0  0  0  0  0  0  0  0  0  0  0  0  # atno 17343 bound_to 10162
  157.7368  130.9785  150.2156 LP  0  0  0  0  0  0  0  0  0  0  0  0  # atno 17370 bound_to 10713
  156.2797  130.3732  149.7948 LP  0  0  0  0  0  0  0  0  0  0  0  0  # atno 17371 bound_to 10713
  140.9217  134.2134  157.4922 LP  0  0  0  0  0  0  0  0  0  0  0  0  # atno 17394 bound_to 11000
  139.8715  134.9795  156.5038 LP  0  0  0  0  0  0  0  0  0  0  0  0  # atno 17395 bound_to 11000

$$$$
