AV-unprocessed.smi:1033|AV-procd|sdf|4495|dock3
  -GOLD-   22720 2483D 1   1.00000     0.00000
 Structure written by MMmdl.
 56 58  0  0  0  0  0  0  0  0  2 V2000
  153.3881  142.5716  161.9167 C   0  0  0  0  0  0  0  0  0  0  0  0
  152.7879  142.2340  160.5631 C   0  0  0  0  0  0  0  0  0  0  0  0
  153.1888  141.0462  159.9112 C   0  0  0  0  0  0  0  0  0  0  0  0
  152.6571  140.6971  158.6505 C   0  0  0  0  0  0  0  0  0  0  0  0
  152.9045  139.6005  157.8428 N   0  0  0  0  0  0  0  0  0  0  0  0
  152.1103  139.8469  156.8051 C   0  0  0  0  0  0  0  0  0  0  0  0
  151.3789  140.9777  156.8433 N   0  0  0  0  0  0  0  0  0  0  0  0
  150.4515  141.4560  155.8340 C   0  0  0  0  0  0  0  0  0  0  0  0
  148.9827  141.2920  156.2701 C   0  0  1  0  0  0  0  0  0  0  0  0
  148.1606  142.2318  155.6070 O   0  0  0  0  0  0  0  0  0  0  0  0
  148.3698  139.8819  156.1136 C   0  0  0  0  0  0  0  0  0  0  0  0
  148.3379  139.3267  154.7521 N   0  0  0  0  0  0  0  0  0  0  0  0
  149.6562  139.0994  154.1478 C   0  0  0  0  0  0  0  0  0  0  0  0
  150.4309  137.9156  154.7659 C   0  0  0  0  0  0  0  0  0  0  0  0
  149.6194  136.6714  154.7019 N   0  3  0  0  0  0  0  0  0  0  0  0
  150.3158  135.4750  155.2391 C   0  0  0  0  0  0  0  0  0  0  0  0
  149.4567  134.1968  155.1633 C   0  0  2  0  0  0  0  0  0  0  0  0
  150.2469  132.9188  155.4806 C   0  0  0  0  0  0  0  0  0  0  0  0
  148.9436  134.0828  153.8531 O   0  0  0  0  0  0  0  0  0  0  0  0
  148.2928  136.8862  155.3323 C   0  0  0  0  0  0  0  0  0  0  0  0
  147.5790  138.0787  154.6675 C   0  0  0  0  0  0  0  0  0  0  0  0
  151.7056  141.5761  158.0551 C   0  0  0  0  0  0  0  0  0  0  0  0
  151.2969  142.7595  158.6947 C   0  0  0  0  0  0  0  0  0  0  0  0
  151.8390  143.0937  159.9535 C   0  0  0  0  0  0  0  0  0  0  0  0
  151.3930  144.3750  160.6353 C   0  0  0  0  0  0  0  0  0  0  0  0
  154.0718  141.7922  162.2544 H   0  0  0  0  0  0  0  0  0  0  0  0
  152.6049  142.6767  162.6679 H   0  0  0  0  0  0  0  0  0  0  0  0
  153.9462  143.5067  161.8639 H   0  0  0  0  0  0  0  0  0  0  0  0
  153.9118  140.3911  160.3750 H   0  0  0  0  0  0  0  0  0  0  0  0
  152.0597  139.1682  155.9660 H   0  0  0  0  0  0  0  0  0  0  0  0
  150.6807  142.5038  155.6393 H   0  0  0  0  0  0  0  0  0  0  0  0
  150.6386  140.9047  154.9117 H   0  0  0  0  0  0  0  0  0  0  0  0
  148.9239  141.5370  157.3313 H   0  0  0  0  0  0  0  0  0  0  0  0
  148.4989  143.0982  155.7749 H   0  0  0  0  0  0  0  0  0  0  0  0
  148.8690  139.1931  156.7939 H   0  0  0  0  0  0  0  0  0  0  0  0
  147.3483  139.9520  156.4905 H   0  0  0  0  0  0  0  0  0  0  0  0
  149.5226  138.9068  153.0823 H   0  0  0  0  0  0  0  0  0  0  0  0
  150.2719  139.9928  154.2032 H   0  0  0  0  0  0  0  0  0  0  0  0
  151.3619  137.7852  154.2160 H   0  0  0  0  0  0  0  0  0  0  0  0
  150.7096  138.1265  155.7987 H   0  0  0  0  0  0  0  0  0  0  0  0
  151.2562  135.3380  154.7024 H   0  0  0  0  0  0  0  0  0  0  0  0
  150.5832  135.6498  156.2826 H   0  0  0  0  0  0  0  0  0  0  0  0
  148.5995  134.2697  155.8317 H   0  0  0  0  0  0  0  0  0  0  0  0
  150.6302  132.9331  156.5011 H   0  0  0  0  0  0  0  0  0  0  0  0
  151.0966  132.7971  154.8077 H   0  0  0  0  0  0  0  0  0  0  0  0
  149.6165  132.0341  155.3827 H   0  0  0  0  0  0  0  0  0  0  0  0
  148.8709  134.9470  153.4767 H   0  0  0  0  0  0  0  0  0  0  0  0
  147.6811  135.9911  155.2135 H   0  0  0  0  0  0  0  0  0  0  0  0
  148.4103  137.0507  156.4045 H   0  0  0  0  0  0  0  0  0  0  0  0
  146.5910  138.2140  155.1093 H   0  0  0  0  0  0  0  0  0  0  0  0
  147.4000  137.8424  153.6174 H   0  0  0  0  0  0  0  0  0  0  0  0
  150.5737  143.4052  158.2191 H   0  0  0  0  0  0  0  0  0  0  0  0
  150.6750  144.9219  160.0236 H   0  0  0  0  0  0  0  0  0  0  0  0
  152.2458  145.0298  160.8159 H   0  0  0  0  0  0  0  0  0  0  0  0
  150.9174  144.1528  161.5906 H   0  0  0  0  0  0  0  0  0  0  0  0
  149.4381  136.4864  153.7256 H   0  0  0  0  0  0  0  0  0  0  0  0
  1  2  1  0  0  0  0
  1 26  1  0  0  0  0
  1 27  1  0  0  0  0
  1 28  1  0  0  0  0
  2 24  1  0  0  0  0
  2  3  2  0  0  0  0
  3  4  1  0  0  0  0
  3 29  1  0  0  0  0
  4 22  2  0  0  0  0
  4  5  1  0  0  0  0
  5  6  2  0  0  0  0
  6  7  1  0  0  0  0
  6 30  1  0  0  0  0
  7  8  1  0  0  0  0
  7 22  1  0  0  0  0
  8  9  1  0  0  0  0
  8 31  1  0  0  0  0
  8 32  1  0  0  0  0
  9 10  1  0  0  0  0
  9 11  1  0  0  0  0
  9 33  1  0  0  0  0
 10 34  1  0  0  0  0
 11 12  1  0  0  0  0
 11 35  1  0  0  0  0
 11 36  1  0  0  0  0
 12 21  1  0  0  0  0
 12 13  1  0  0  0  0
 13 14  1  0  0  0  0
 13 37  1  0  0  0  0
 13 38  1  0  0  0  0
 14 15  1  0  0  0  0
 14 39  1  0  0  0  0
 14 40  1  0  0  0  0
 15 16  1  0  0  0  0
 15 20  1  0  0  0  0
 15 56  1  0  0  0  0
 16 17  1  0  0  0  0
 16 41  1  0  0  0  0
 16 42  1  0  0  0  0
 17 18  1  0  0  0  0
 17 19  1  0  0  0  0
 17 43  1  0  0  0  0
 18 44  1  0  0  0  0
 18 45  1  0  0  0  0
 18 46  1  0  0  0  0
 19 47  1  0  0  0  0
 20 21  1  0  0  0  0
 20 48  1  0  0  0  0
 20 49  1  0  0  0  0
 21 50  1  0  0  0  0
 21 51  1  0  0  0  0
 22 23  1  0  0  0  0
 23 24  2  0  0  0  0
 23 52  1  0  0  0  0
 24 25  1  0  0  0  0
 25 53  1  0  0  0  0
 25 54  1  0  0  0  0
 25 55  1  0  0  0  0
M  CHG  1  15   1
M  END
> <s_m_source_file>
AV-unprocessed.smi

> <i_m_source_file_index>
1033

> <i_lp_mmshare_version>
43012

> <i_f3d_flags>
0

> <s_epik_input>
W0NIM11jKFtjSF0xKWMoW0NIM10pW2NIXWMoYzEyKW4oW2NIXW4yKVtDSDJdW0NASF0oW09IXSlbQ0gyXU4zW0NIMl1bQ0gyXU4oW0NIMl1bQ0gyXTMpW0NIMl1bQ0BIXShbQ0gzXSlbT0hd

> <s_epik_cmdline>
J2VwaWtfcHl0aG9uJywgJy1waCcsICc3LjAnLCAnLXRuJywgJzgnLCAnLW1hJywgJzIwMCcsICctbWV0YWxfYmluZGluZycsICctaW1hZScsICc8aW5maWxlLm1hZT4nLCAnLW9tYWUnLCAnPG91dGZpbGUubWFlPic=

> <r_epik_Ionization_Penalty>
0.129152

> <r_epik_Ionization_Penalty_Charging>
0.00083231

> <r_epik_Ionization_Penalty_Neutral>
0.128319

> <r_epik_State_Penalty>
0.556973

> <r_epik_Charging_Adjusted_Penalty>
0.557805

> <i_epik_Tot_Q>
1

> <i_epik_Tot_abs_Q>
1

> <r_epik_Metal_State_Penalty>
0.490047

> <b_epik_Metal_Only>
0

> <s_lp_Force_Field>
OPLS_2005

> <r_lp_Energy>
40.305

> <b_lp_Chiralities_Consistent>
1

> <s_lp_Variant>
AV-unprocessed.smi:1033-6

> <Gold.Version>
5.8.1

> <Gold.Id.Protein>
6NUR|6NUR_protein|mol2

> <Gold.PLP.Fitness>
60.5367

> <Gold.PLP.PLP>
-46.2242

> <Gold.PLP.part.hbond>
-4.0000

> <Gold.PLP.part.metal>
0.0000

> <Gold.PLP.part.buried>
-5.0670

> <Gold.PLP.part.nonpolar>
-36.9353

> <Gold.PLP.part.repulsive>
0.1310

> <Gold.PLP.ligand.clash>
0.0000

> <Gold.PLP.ligand.torsion>
0.4823

> <Gold.PLP.Chemscore.Hbond>
5.0000

> <Gold.PLP.Chemscore.CHOScore>
0.0000

> <Gold.PLP.Chemscore.Metal>
0.0000

> <Gold.Chemscore.Hbonds>
donor molecule, donor type, donor heavy atom, donor atom, acceptor molecule, acceptor atom, score
      L1  H    10    34       P1  8028  1.00
      L1  H    15    56       P1  7948  2.00
      L1  H    19    47       P1  7948  0.99
      P1  H  7997  8009       L1     5  1.00

> <Gold.PLP.Chemscore.Internal.Correction>
0.2771

> <Gold.Rescore>
     Score         DG    S(hbond)    S(metal)    S(lipo)     H(rot)  DE(clash)    DE(int)     intcor
     21.17     -21.79       3.01        0.00     120.69       3.07       0.12       0.51       ----

> <Gold.Chemscore.Fitness>
21.1661

> <Gold.Chemscore.DG>
-21.7941

> <Gold.Chemscore.ZeroCoef>
-5.4800

> <Gold.Chemscore.Hbond>
3.0061

> <Gold.Chemscore.Metal>
0.0000

> <Gold.Chemscore.Lipo>
120.6869

> <Gold.Chemscore.Internal_Hbond>
0.0000

> <Gold.Chemscore.DEClash>
0.1177

> <Gold.Chemscore.DEInternal>
0.5104

> <Gold.Chemscore.Rot>
3.0650

> <Gold.Chemscore.Internal.Correction>
   9.000000E+99

> <Gold.Chemscore.Hbonds>
donor molecule, donor type, donor heavy atom, donor atom, acceptor molecule, acceptor atom, score
      L1  H    10    34       P1  8028  0.99
      L1  H    15    56       P1  7948  0.82
      L1  H    19    47       P1  7948  0.40
      P1  H  7997  8009       L1     5  0.10

> <Gold.Chemscore.Hbond.Weighted>
-10.0402

> <Gold.Chemscore.Metal.Weighted>
-0.0000

> <Gold.Chemscore.Lipo.Weighted>
-14.1204

> <Gold.Chemscore.Internal_Hbond.Weighted>
0.0000

> <Gold.Chemscore.DEClash.Weighted>
0.1177

> <Gold.Chemscore.DEInternal.Weighted>
0.5104

> <Gold.Chemscore.Rot.Weighted>
7.8465

> <Gold.Chemscore.Internal.Correction.Weighted>
   9.000000E+99

> <Gold.Protein.RotatedTorsions>
[ 6907 6896 6895 6894 ] final  -29.94 input  -60.11 | X-H torsion
[ 7974 7965 7964 7962 ] final  137.89 input  175.53 | X-H torsion
[ 8008 7997 7996 7995 ] final  147.86 input   59.86 | X-H torsion
[ 10167 10162 10161 10158 ] final   14.25 input  -65.29 | X-H torsion
[ 10718 10713 10712 10709 ] final  154.82 input   66.30 | X-H torsion
[ 10763 10752 10751 10750 ] final   29.13 input  -60.55 | X-H torsion
[ 11005 11000 10999 10996 ] final  -40.67 input  -57.11 | X-H torsion

> <Gold.Protein.ActiveResidues>
 VAL166  LYS551  ARG553  GLY616  TRP617  ASP618  TYR619  PRO620  LYS621  CYS622 
 ASP623  PHE694  ASN695  SER759  ASP760  ASP761  ALA762  ILE779  LEU786  VAL792 
 PHE793  MET794  SER795  GLU796  ALA797  LYS798  CYS799  TRP800  GLU811  SER814 

> <Gold.Protein.RotatedAtoms>
  151.1123  135.0034  159.8499 H   0  0  0  0  0  0  0  0  0  0  0  0  # atno 6907 bound_to 6896
  152.5444  134.1821  159.8649 H   0  0  0  0  0  0  0  0  0  0  0  0  # atno 6908 bound_to 6896
  151.1872  133.4644  159.2627 H   0  0  0  0  0  0  0  0  0  0  0  0  # atno 6909 bound_to 6896
  144.9424  139.4914  143.5565 H   0  0  0  0  0  0  0  0  0  0  0  0  # atno 7974 bound_to 7965
  156.2811  140.2144  156.5605 H   0  0  0  0  0  0  0  0  0  0  0  0  # atno 8008 bound_to 7997
  154.7217  140.0503  157.0668 H   0  0  0  0  0  0  0  0  0  0  0  0  # atno 8009 bound_to 7997
  155.0470  140.3152  155.4708 H   0  0  0  0  0  0  0  0  0  0  0  0  # atno 8010 bound_to 7997
  140.5948  143.8723  150.6907 H   0  0  0  0  0  0  0  0  0  0  0  0  # atno 10167 bound_to 10162
  157.2266  131.0730  151.1879 H   0  0  0  0  0  0  0  0  0  0  0  0  # atno 10718 bound_to 10713
  153.0449  135.6496  154.0843 H   0  0  0  0  0  0  0  0  0  0  0  0  # atno 10763 bound_to 10752
  154.0543  135.2893  155.3337 H   0  0  0  0  0  0  0  0  0  0  0  0  # atno 10764 bound_to 10752
  154.6699  135.5360  153.8191 H   0  0  0  0  0  0  0  0  0  0  0  0  # atno 10765 bound_to 10752
  141.0191  133.6871  156.2353 H   0  0  0  0  0  0  0  0  0  0  0  0  # atno 11005 bound_to 11000
  146.3291  139.8453  142.8883 LP  0  0  0  0  0  0  0  0  0  0  0  0  # atno 17320 bound_to 7965
  145.2970  141.0183  143.3630 LP  0  0  0  0  0  0  0  0  0  0  0  0  # atno 17321 bound_to 7965
  140.2255  143.3776  152.1608 LP  0  0  0  0  0  0  0  0  0  0  0  0  # atno 17342 bound_to 10162
  139.5251  144.7092  151.5260 LP  0  0  0  0  0  0  0  0  0  0  0  0  # atno 17343 bound_to 10162
  157.3522  130.7088  149.6447 LP  0  0  0  0  0  0  0  0  0  0  0  0  # atno 17370 bound_to 10713
  155.9678  130.4249  150.4631 LP  0  0  0  0  0  0  0  0  0  0  0  0  # atno 17371 bound_to 10713
  140.6603  134.4974  157.5583 LP  0  0  0  0  0  0  0  0  0  0  0  0  # atno 17394 bound_to 11000
  139.9135  134.8295  156.1446 LP  0  0  0  0  0  0  0  0  0  0  0  0  # atno 17395 bound_to 11000

$$$$
