AV-unprocessed.smi:2222|AV-procd|sdf|8987|dock7
  -GOLD-   2272012203D 1   1.00000     0.00000
 Structure written by MMmdl.
 34 35  0  0  0  0  0  0  0  0  1 V2000
  152.3246  139.1980  157.1420 C   0  0  0  0  0  0  0  0  0  0  0  0
  151.6305  140.4347  157.0681 O   0  0  0  0  0  0  0  0  0  0  0  0
  151.8262  141.3556  158.0790 C   0  0  0  0  0  0  0  0  0  0  0  0
  152.8289  141.2275  159.0739 C   0  0  0  0  0  0  0  0  0  0  0  0
  152.9520  142.2190  160.0626 C   0  0  0  0  0  0  0  0  0  0  0  0
  152.0650  143.3093  160.0240 C   0  0  0  0  0  0  0  0  0  0  0  0
  152.1420  144.4159  161.0544 C   0  0  0  0  0  0  0  0  0  0  0  0
  151.1081  143.4419  159.0838 N   0  0  0  0  0  0  0  0  0  0  0  0
  150.9778  142.4921  158.1247 C   0  0  0  0  0  0  0  0  0  0  0  0
  149.9952  142.5603  157.0992 N   0  0  0  0  0  0  0  0  0  0  0  0
  149.1499  141.5999  156.6755 C   0  0  0  0  0  0  0  0  0  0  0  0
  149.1296  140.4464  157.1016 O   0  0  0  0  0  0  0  0  0  0  0  0
  148.3219  141.9886  155.6892 N   0  0  0  0  0  0  0  0  0  0  0  0
  147.3151  141.2127  155.0265 C   0  0  2  0  0  0  0  0  0  0  0  0
  147.3705  141.1637  153.5149 C   0  0  0  0  0  0  0  0  0  0  0  0
  146.2623  141.9229  154.1954 C   0  0  2  0  0  0  0  0  0  0  0  0
  146.1915  143.4349  154.1054 C   0  0  0  0  0  0  0  0  0  0  0  0
  152.0692  138.5911  156.2736 H   0  0  0  0  0  0  0  0  0  0  0  0
  152.0427  138.6341  158.0322 H   0  0  0  0  0  0  0  0  0  0  0  0
  153.4054  139.3462  157.1338 H   0  0  0  0  0  0  0  0  0  0  0  0
  153.5075  140.3886  159.0993 H   0  0  0  0  0  0  0  0  0  0  0  0
  153.7099  142.1409  160.8283 H   0  0  0  0  0  0  0  0  0  0  0  0
  152.8465  144.1685  161.8487 H   0  0  0  0  0  0  0  0  0  0  0  0
  151.1645  144.5831  161.5077 H   0  0  0  0  0  0  0  0  0  0  0  0
  152.4674  145.3453  160.5863 H   0  0  0  0  0  0  0  0  0  0  0  0
  149.9174  143.4554  156.6389 H   0  0  0  0  0  0  0  0  0  0  0  0
  148.4641  142.9202  155.3265 H   0  0  0  0  0  0  0  0  0  0  0  0
  147.0109  140.2794  155.4980 H   0  0  0  0  0  0  0  0  0  0  0  0
  148.1488  141.7390  153.0166 H   0  0  0  0  0  0  0  0  0  0  0  0
  147.1097  140.2236  153.0330 H   0  0  0  0  0  0  0  0  0  0  0  0
  145.2832  141.4478  154.1845 H   0  0  0  0  0  0  0  0  0  0  0  0
  147.1876  143.8731  154.0383 H   0  0  0  0  0  0  0  0  0  0  0  0
  145.6921  143.8385  154.9863 H   0  0  0  0  0  0  0  0  0  0  0  0
  145.6270  143.7291  153.2206 H   0  0  0  0  0  0  0  0  0  0  0  0
  1  2  1  0  0  0  0
  1 18  1  0  0  0  0
  1 19  1  0  0  0  0
  1 20  1  0  0  0  0
  2  3  1  0  0  0  0
  3  9  1  0  0  0  0
  3  4  2  0  0  0  0
  4  5  1  0  0  0  0
  4 21  1  0  0  0  0
  5  6  2  0  0  0  0
  5 22  1  0  0  0  0
  6  7  1  0  0  0  0
  6  8  1  0  0  0  0
  7 23  1  0  0  0  0
  7 24  1  0  0  0  0
  7 25  1  0  0  0  0
  8  9  2  0  0  0  0
  9 10  1  0  0  0  0
 10 11  1  0  0  0  0
 10 26  1  0  0  0  0
 11 12  2  0  0  0  0
 11 13  1  0  0  0  0
 13 14  1  0  0  0  0
 13 27  1  0  0  0  0
 14 16  1  0  0  0  0
 14 15  1  0  0  0  0
 14 28  1  0  0  0  0
 15 16  1  0  0  0  0
 15 29  1  0  0  0  0
 15 30  1  0  0  0  0
 16 17  1  0  0  0  0
 16 31  1  0  0  0  0
 17 32  1  0  0  0  0
 17 33  1  0  0  0  0
 17 34  1  0  0  0  0
M  END
> <s_m_source_file>
AV-unprocessed.smi

> <i_m_source_file_index>
2222

> <i_lp_mmshare_version>
43012

> <i_f3d_flags>
0

> <s_epik_input>
W0NIM11PYzFbY0hdW2NIXWMoW0NIM10pbmMxW05IXUMoPU8pW05IXVtDQEBIXTJbQ0gyXVtDQEhdMltDSDNd

> <s_epik_cmdline>
J2VwaWtfcHl0aG9uJywgJy1waCcsICc3LjAnLCAnLXRuJywgJzgnLCAnLW1hJywgJzIwMCcsICctbWV0YWxfYmluZGluZycsICctaW1hZScsICc8aW5maWxlLm1hZT4nLCAnLW9tYWUnLCAnPG91dGZpbGUubWFlPic=

> <r_lp_tautomer_probability>
1

> <r_epik_Ionization_Penalty>
6.59103e-05

> <r_epik_Ionization_Penalty_Charging>
0

> <r_epik_Ionization_Penalty_Neutral>
6.59103e-05

> <r_epik_State_Penalty>
-0

> <r_epik_Charging_Adjusted_Penalty>
0

> <i_epik_Tot_Q>
0

> <i_epik_Tot_abs_Q>
0

> <r_epik_Metal_State_Penalty>
-0

> <b_epik_Metal_Only>
0

> <s_lp_Force_Field>
OPLS_2005

> <r_lp_Energy>
34.1661

> <b_lp_Chiralities_Consistent>
1

> <s_lp_Variant>
AV-unprocessed.smi:2222-3

> <Gold.Version>
5.8.1

> <Gold.Id.Protein>
6NUR|6NUR_protein|mol2

> <Gold.PLP.Fitness>
37.3898

> <Gold.PLP.PLP>
-32.6273

> <Gold.PLP.part.hbond>
-2.0000

> <Gold.PLP.part.metal>
0.0000

> <Gold.PLP.part.buried>
-4.9061

> <Gold.PLP.part.nonpolar>
-25.4929

> <Gold.PLP.part.repulsive>
0.1846

> <Gold.PLP.ligand.clash>
0.0000

> <Gold.PLP.ligand.torsion>
0.6257

> <Gold.PLP.Chemscore.Hbond>
1.9920

> <Gold.PLP.Chemscore.CHOScore>
0.0000

> <Gold.PLP.Chemscore.Metal>
0.0000

> <Gold.Chemscore.Hbonds>
donor molecule, donor type, donor heavy atom, donor atom, acceptor molecule, acceptor atom, score
      L1  H    10    26       P1  8028  1.00
      L1  H    13    27       P1  8028  0.99

> <Gold.PLP.Chemscore.Internal.Correction>
0.0379

> <Gold.Rescore>
     Score         DG    S(hbond)    S(metal)    S(lipo)     H(rot)  DE(clash)    DE(int)     intcor
     14.29     -17.91       1.78        0.00      81.92       1.22       0.02       3.59       ----

> <Gold.Chemscore.Fitness>
14.2913

> <Gold.Chemscore.DG>
-17.9110

> <Gold.Chemscore.ZeroCoef>
-5.4800

> <Gold.Chemscore.Hbond>
1.7849

> <Gold.Chemscore.Metal>
0.0000

> <Gold.Chemscore.Lipo>
81.9184

> <Gold.Chemscore.Internal_Hbond>
0.0000

> <Gold.Chemscore.DEClash>
0.0249

> <Gold.Chemscore.DEInternal>
3.5948

> <Gold.Chemscore.Rot>
1.2168

> <Gold.Chemscore.Internal.Correction>
   9.000000E+99

> <Gold.Chemscore.Hbonds>
donor molecule, donor type, donor heavy atom, donor atom, acceptor molecule, acceptor atom, score
      L1  H    10    26       P1  8028  0.95
      L1  H    13    27       P1  8028  0.93

> <Gold.Chemscore.Hbond.Weighted>
-5.9616

> <Gold.Chemscore.Metal.Weighted>
-0.0000

> <Gold.Chemscore.Lipo.Weighted>
-9.5845

> <Gold.Chemscore.Internal_Hbond.Weighted>
0.0000

> <Gold.Chemscore.DEClash.Weighted>
0.0249

> <Gold.Chemscore.DEInternal.Weighted>
3.5948

> <Gold.Chemscore.Rot.Weighted>
3.1150

> <Gold.Chemscore.Internal.Correction.Weighted>
   9.000000E+99

> <Gold.Protein.RotatedTorsions>
[ 6907 6896 6895 6894 ] final  -41.81 input  -60.11 | X-H torsion
[ 7974 7965 7964 7962 ] final   18.98 input  175.53 | X-H torsion
[ 8008 7997 7996 7995 ] final  -41.80 input   59.86 | X-H torsion
[ 10167 10162 10161 10158 ] final  118.80 input  -65.29 | X-H torsion
[ 10718 10713 10712 10709 ] final -134.37 input   66.30 | X-H torsion
[ 10763 10752 10751 10750 ] final  108.41 input  -60.55 | X-H torsion
[ 11005 11000 10999 10996 ] final   65.32 input  -57.11 | X-H torsion

> <Gold.Protein.ActiveResidues>
 VAL166  LYS551  ARG553  GLY616  TRP617  ASP618  TYR619  PRO620  LYS621  CYS622 
 ASP623  PHE694  ASN695  SER759  ASP760  ASP761  ALA762  ILE779  LEU786  VAL792 
 PHE793  MET794  SER795  GLU796  ALA797  LYS798  CYS799  TRP800  GLU811  SER814 

> <Gold.Protein.RotatedAtoms>
  150.9624  134.9010  159.7738 H   0  0  0  0  0  0  0  0  0  0  0  0  # atno 6907 bound_to 6896
  152.5161  134.3654  159.9309 H   0  0  0  0  0  0  0  0  0  0  0  0  # atno 6908 bound_to 6896
  151.3666  133.3829  159.2730 H   0  0  0  0  0  0  0  0  0  0  0  0  # atno 6909 bound_to 6896
  146.2166  139.8379  142.8647 H   0  0  0  0  0  0  0  0  0  0  0  0  # atno 7974 bound_to 7965
  154.4002  140.1490  156.3250 H   0  0  0  0  0  0  0  0  0  0  0  0  # atno 8008 bound_to 7997
  155.8495  140.3458  155.5662 H   0  0  0  0  0  0  0  0  0  0  0  0  # atno 8009 bound_to 7997
  155.8000  140.0869  157.1953 H   0  0  0  0  0  0  0  0  0  0  0  0  # atno 8010 bound_to 7997
  139.6088  144.7076  151.2892 H   0  0  0  0  0  0  0  0  0  0  0  0  # atno 10167 bound_to 10162
  156.2547  130.7174  151.1087 H   0  0  0  0  0  0  0  0  0  0  0  0  # atno 10718 bound_to 10713
  153.4202  135.3813  155.2106 H   0  0  0  0  0  0  0  0  0  0  0  0  # atno 10763 bound_to 10752
  154.8744  135.3815  154.4393 H   0  0  0  0  0  0  0  0  0  0  0  0  # atno 10764 bound_to 10752
  153.4912  135.7088  153.5945 H   0  0  0  0  0  0  0  0  0  0  0  0  # atno 10765 bound_to 10752
  139.9902  134.6604  156.0104 H   0  0  0  0  0  0  0  0  0  0  0  0  # atno 11005 bound_to 11000
  145.2929  141.0172  143.3652 LP  0  0  0  0  0  0  0  0  0  0  0  0  # atno 17320 bound_to 7965
  144.9063  139.4585  143.6608 LP  0  0  0  0  0  0  0  0  0  0  0  0  # atno 17321 bound_to 7965
  140.7304  143.6881  150.7945 LP  0  0  0  0  0  0  0  0  0  0  0  0  # atno 17342 bound_to 10162
  140.0471  143.5287  152.2691 LP  0  0  0  0  0  0  0  0  0  0  0  0  # atno 17343 bound_to 10162
  157.7228  131.0670  150.6062 LP  0  0  0  0  0  0  0  0  0  0  0  0  # atno 17370 bound_to 10713
  156.6145  130.4389  149.5846 LP  0  0  0  0  0  0  0  0  0  0  0  0  # atno 17371 bound_to 10713
  141.1559  133.6543  156.4160 LP  0  0  0  0  0  0  0  0  0  0  0  0  # atno 17394 bound_to 11000
  140.4923  134.6563  157.5216 LP  0  0  0  0  0  0  0  0  0  0  0  0  # atno 17395 bound_to 11000

$$$$
