AV-unprocessed.smi:513|AV-procd|sdf|2773|dock4
  -GOLD-   2262023243D 1   1.00000     0.00000
 Structure written by MMmdl.
 42 44  0  0  0  0  0  0  0  0  1 V2000
  149.4277  138.4800  153.9141 C   0  0  0  0  0  0  0  0  0  0  0  0
  150.8239  138.6844  154.0291 O   0  0  0  0  0  0  0  0  0  0  0  0
  151.4000  137.9417  155.0915 C   0  0  0  0  0  0  0  0  0  0  0  0
  150.7169  138.3229  156.4118 C   0  0  0  0  0  0  0  0  0  0  0  0
  151.4695  139.3454  157.1362 N   0  0  0  0  0  0  0  0  0  0  0  0
  152.2157  139.2264  158.2706 C   0  0  0  0  0  0  0  0  0  0  0  0
  152.4132  138.0041  158.9143 N   0  0  0  0  0  0  0  0  0  0  0  0
  152.4797  136.7143  158.2331 C   0  0  0  0  0  0  0  0  0  0  0  0
  153.6861  135.8909  158.7286 C   0  0  0  0  0  0  0  0  0  0  0  0
  153.5630  135.6439  160.1616 N   0  0  0  0  0  0  0  0  0  0  0  0
  153.5109  136.9275  160.8530 C   0  0  0  0  0  0  0  0  0  0  0  0
  152.2980  137.7326  160.3456 C   0  0  0  0  0  0  0  0  0  0  0  0
  152.7035  140.3797  158.7378 N   0  0  0  0  0  0  0  0  0  0  0  0
  152.2587  141.3071  157.8096 C   0  0  0  0  0  0  0  0  0  0  0  0
  151.5152  140.7100  156.8454 C   0  0  0  0  0  0  0  0  0  0  0  0
  150.8883  141.4685  155.7550 C   0  0  0  0  0  0  0  0  0  0  0  0
  150.1979  140.9526  154.8787 O   0  0  0  0  0  0  0  0  0  0  0  0
  151.1440  142.7980  155.8174 N   0  0  0  0  0  0  0  0  0  0  0  0
  151.8861  143.4602  156.7571 C   0  0  0  0  0  0  0  0  0  0  0  0
  152.0220  144.6806  156.6765 O   0  0  0  0  0  0  0  0  0  0  0  0
  152.4507  142.7156  157.7631 N   0  0  0  0  0  0  0  0  0  0  0  0
  153.2577  143.3270  158.8209 C   0  0  0  0  0  0  0  0  0  0  0  0
  150.7367  143.3662  155.0889 H   0  0  0  0  0  0  0  0  0  0  0  0
  149.0396  139.0706  153.0843 H   0  0  0  0  0  0  0  0  0  0  0  0
  148.9081  138.7905  154.8215 H   0  0  0  0  0  0  0  0  0  0  0  0
  149.1976  137.4319  153.7180 H   0  0  0  0  0  0  0  0  0  0  0  0
  151.2799  136.8731  154.9083 H   0  0  0  0  0  0  0  0  0  0  0  0
  152.4704  138.1441  155.1511 H   0  0  0  0  0  0  0  0  0  0  0  0
  149.7071  138.6634  156.2084 H   0  0  0  0  0  0  0  0  0  0  0  0
  150.5987  137.4471  157.0485 H   0  0  0  0  0  0  0  0  0  0  0  0
  151.5488  136.1669  158.3893 H   0  0  0  0  0  0  0  0  0  0  0  0
  152.5697  136.8767  157.1585 H   0  0  0  0  0  0  0  0  0  0  0  0
  153.7278  134.9345  158.2070 H   0  0  0  0  0  0  0  0  0  0  0  0
  154.6217  136.4114  158.5197 H   0  0  0  0  0  0  0  0  0  0  0  0
  154.3603  135.1152  160.4855 H   0  0  0  0  0  0  0  0  0  0  0  0
  153.4220  136.7474  161.9245 H   0  0  0  0  0  0  0  0  0  0  0  0
  154.4403  137.4758  160.6931 H   0  0  0  0  0  0  0  0  0  0  0  0
  152.1898  138.6625  160.9022 H   0  0  0  0  0  0  0  0  0  0  0  0
  151.3783  137.1751  160.5287 H   0  0  0  0  0  0  0  0  0  0  0  0
  153.4147  144.3990  158.6971 H   0  0  0  0  0  0  0  0  0  0  0  0
  154.2412  142.8575  158.8572 H   0  0  0  0  0  0  0  0  0  0  0  0
  152.7782  143.1748  159.7883 H   0  0  0  0  0  0  0  0  0  0  0  0
  1  2  1  0  0  0  0
  1 24  1  0  0  0  0
  1 25  1  0  0  0  0
  1 26  1  0  0  0  0
  2  3  1  0  0  0  0
  3  4  1  0  0  0  0
  3 27  1  0  0  0  0
  3 28  1  0  0  0  0
  4  5  1  0  0  0  0
  4 29  1  0  0  0  0
  4 30  1  0  0  0  0
  5 15  1  0  0  0  0
  5  6  1  0  0  0  0
  6  7  1  0  0  0  0
  6 13  2  0  0  0  0
  7 12  1  0  0  0  0
  7  8  1  0  0  0  0
  8  9  1  0  0  0  0
  8 31  1  0  0  0  0
  8 32  1  0  0  0  0
  9 10  1  0  0  0  0
  9 33  1  0  0  0  0
  9 34  1  0  0  0  0
 10 11  1  0  0  0  0
 10 35  1  0  0  0  0
 11 12  1  0  0  0  0
 11 36  1  0  0  0  0
 11 37  1  0  0  0  0
 12 38  1  0  0  0  0
 12 39  1  0  0  0  0
 13 14  1  0  0  0  0
 14 21  1  0  0  0  0
 14 15  2  0  0  0  0
 15 16  1  0  0  0  0
 16 17  2  0  0  0  0
 16 18  1  0  0  0  0
 18 23  1  0  0  0  0
 18 19  1  0  0  0  0
 19 20  2  0  0  0  0
 19 21  1  0  0  0  0
 21 22  1  0  0  0  0
 22 40  1  0  0  0  0
 22 41  1  0  0  0  0
 22 42  1  0  0  0  0
M  END
> <s_m_source_file>
AV-unprocessed.smi

> <i_m_source_file_index>
513

> <i_lp_mmshare_version>
43012

> <i_f3d_flags>
0

> <s_epik_input>
W0NIM11uMWMoPU8pW25IXWMoPU8pYyhjMTIpbihbQ0gyXVtDSDJdT1tDSDNdKWMobjIpTjNbQ0gyXVtDSDJdW05IXVtDSDJdW0NIMl0z

> <s_epik_cmdline>
J2VwaWtfcHl0aG9uJywgJy1waCcsICc3LjAnLCAnLXRuJywgJzgnLCAnLW1hJywgJzIwMCcsICctbWV0YWxfYmluZGluZycsICctaW1hZScsICc8aW5maWxlLm1hZT4nLCAnLW9tYWUnLCAnPG91dGZpbGUubWFlPic=

> <r_epik_Ionization_Penalty>
2.51416

> <r_epik_Ionization_Penalty_Charging>
1.6225e-05

> <r_epik_Ionization_Penalty_Neutral>
2.51414

> <r_epik_State_Penalty>
2.67993

> <r_epik_Charging_Adjusted_Penalty>
2.67995

> <i_epik_Tot_Q>
0

> <i_epik_Tot_abs_Q>
0

> <r_epik_Metal_State_Penalty>
2.70812

> <b_epik_Metal_Only>
0

> <s_lp_Force_Field>
OPLS_2005

> <r_lp_Energy>
48.0947

> <b_lp_Chiralities_Consistent>
1

> <s_lp_Variant>
AV-unprocessed.smi:513-2

> <Gold.Version>
5.8.1

> <Gold.Id.Protein>
6NUR|6NUR_protein|mol2

> <Gold.PLP.Fitness>
45.2079

> <Gold.PLP.PLP>
-37.9011

> <Gold.PLP.part.hbond>
-3.0000

> <Gold.PLP.part.metal>
0.0000

> <Gold.PLP.part.buried>
-7.6583

> <Gold.PLP.part.nonpolar>
-27.9965

> <Gold.PLP.part.repulsive>
0.2793

> <Gold.PLP.ligand.clash>
0.0000

> <Gold.PLP.ligand.torsion>
1.0009

> <Gold.PLP.Chemscore.Hbond>
3.0000

> <Gold.PLP.Chemscore.CHOScore>
0.0000

> <Gold.PLP.Chemscore.Metal>
0.0000

> <Gold.Chemscore.Hbonds>
donor molecule, donor type, donor heavy atom, donor atom, acceptor molecule, acceptor atom, score
      L1  H    18    23       P1  8028  0.08
      P1  H  6896  6907       L1    10  0.61
      P1  H  7989  7998       L1    17  0.58

> <Gold.PLP.Chemscore.Internal.Correction>
0.3086

> <Gold.Rescore>
     Score         DG    S(hbond)    S(metal)    S(lipo)     H(rot)  DE(clash)    DE(int)     intcor
     12.35     -14.51       1.95        0.00      55.49       1.55       0.04       2.12       ----

> <Gold.Chemscore.Fitness>
12.3487

> <Gold.Chemscore.DG>
-14.5093

> <Gold.Chemscore.ZeroCoef>
-5.4800

> <Gold.Chemscore.Hbond>
1.9495

> <Gold.Chemscore.Metal>
0.0000

> <Gold.Chemscore.Lipo>
55.4906

> <Gold.Chemscore.Internal_Hbond>
0.0000

> <Gold.Chemscore.DEClash>
0.0414

> <Gold.Chemscore.DEInternal>
2.1193

> <Gold.Chemscore.Rot>
1.5526

> <Gold.Chemscore.Internal.Correction>
   9.000000E+99

> <Gold.Chemscore.Hbonds>
donor molecule, donor type, donor heavy atom, donor atom, acceptor molecule, acceptor atom, score
      L1  H    18    23       P1  8028  0.09
      P1  H  6896  6907       L1    10  0.03
      P1  H  7989  7998       L1     2  0.14

> <Gold.Chemscore.Hbond.Weighted>
-6.5115

> <Gold.Chemscore.Metal.Weighted>
-0.0000

> <Gold.Chemscore.Lipo.Weighted>
-6.4924

> <Gold.Chemscore.Internal_Hbond.Weighted>
0.0000

> <Gold.Chemscore.DEClash.Weighted>
0.0414

> <Gold.Chemscore.DEInternal.Weighted>
2.1193

> <Gold.Chemscore.Rot.Weighted>
3.9745

> <Gold.Chemscore.Internal.Correction.Weighted>
   9.000000E+99

> <Gold.Protein.RotatedTorsions>
[ 6907 6896 6895 6894 ] final   60.24 input  -60.11 | X-H torsion
[ 7974 7965 7964 7962 ] final  -58.56 input  175.53 | X-H torsion
[ 8008 7997 7996 7995 ] final   -8.87 input   59.86 | X-H torsion
[ 10167 10162 10161 10158 ] final  -51.88 input  -65.29 | X-H torsion
[ 10718 10713 10712 10709 ] final   29.33 input   66.30 | X-H torsion
[ 10763 10752 10751 10750 ] final  -13.27 input  -60.55 | X-H torsion
[ 11005 11000 10999 10996 ] final  115.53 input  -57.11 | X-H torsion

> <Gold.Protein.ActiveResidues>
 VAL166  LYS551  ARG553  GLY616  TRP617  ASP618  TYR619  PRO620  LYS621  CYS622 
 ASP623  PHE694  ASN695  SER759  ASP760  ASP761  ALA762  ILE779  LEU786  VAL792 
 PHE793  MET794  SER795  GLU796  ALA797  LYS798  CYS799  TRP800  GLU811  SER814 

> <Gold.Protein.RotatedAtoms>
  152.3986  134.6324  160.0078 H   0  0  0  0  0  0  0  0  0  0  0  0  # atno 6907 bound_to 6896
  151.6536  133.3314  159.3165 H   0  0  0  0  0  0  0  0  0  0  0  0  # atno 6908 bound_to 6896
  150.7889  134.6940  159.6557 H   0  0  0  0  0  0  0  0  0  0  0  0  # atno 6909 bound_to 6896
  145.8379  140.8437  143.0050 H   0  0  0  0  0  0  0  0  0  0  0  0  # atno 7974 bound_to 7965
  154.5700  140.2370  155.8205 H   0  0  0  0  0  0  0  0  0  0  0  0  # atno 8008 bound_to 7997
  156.2099  140.3029  155.9668 H   0  0  0  0  0  0  0  0  0  0  0  0  # atno 8009 bound_to 7997
  155.2729  140.0419  157.2999 H   0  0  0  0  0  0  0  0  0  0  0  0  # atno 8010 bound_to 7997
  140.6566  143.2603  151.4567 H   0  0  0  0  0  0  0  0  0  0  0  0  # atno 10167 bound_to 10162
  157.2451  130.7088  149.6378 H   0  0  0  0  0  0  0  0  0  0  0  0  # atno 10718 bound_to 10713
  153.5108  135.7016  153.5782 H   0  0  0  0  0  0  0  0  0  0  0  0  # atno 10763 bound_to 10752
  153.3873  135.3905  155.1899 H   0  0  0  0  0  0  0  0  0  0  0  0  # atno 10764 bound_to 10752
  154.8703  135.3850  154.4587 H   0  0  0  0  0  0  0  0  0  0  0  0  # atno 10765 bound_to 10752
  139.9013  134.9585  156.7059 H   0  0  0  0  0  0  0  0  0  0  0  0  # atno 11005 bound_to 11000
  144.6735  140.0768  143.7471 LP  0  0  0  0  0  0  0  0  0  0  0  0  # atno 17320 bound_to 7965
  145.9498  139.2726  143.1219 LP  0  0  0  0  0  0  0  0  0  0  0  0  # atno 17321 bound_to 7965
  139.5790  144.1753  152.1942 LP  0  0  0  0  0  0  0  0  0  0  0  0  # atno 17342 bound_to 10162
  140.1073  144.5488  150.6949 LP  0  0  0  0  0  0  0  0  0  0  0  0  # atno 17343 bound_to 10162
  155.9668  130.4445  150.5465 LP  0  0  0  0  0  0  0  0  0  0  0  0  # atno 17370 bound_to 10713
  157.3337  131.0704  151.1841 LP  0  0  0  0  0  0  0  0  0  0  0  0  # atno 17371 bound_to 10713
  140.7113  133.9220  155.8086 LP  0  0  0  0  0  0  0  0  0  0  0  0  # atno 17394 bound_to 11000
  141.0298  134.0773  157.4027 LP  0  0  0  0  0  0  0  0  0  0  0  0  # atno 17395 bound_to 11000

$$$$
