AV-unprocessed.smi:287|AV-procd|sdf|2177|dock10
  -GOLD-   2262021543D 1   1.00000     0.00000
 Structure written by MMmdl.
 55 58  0  0  0  0  0  0  0  0  1 V2000
  152.2706  141.2119  158.9626 C   0  0  0  0  0  0  0  0  0  0  0  0
  151.7174  140.6220  157.7109 C   0  0  0  0  0  0  0  0  0  0  0  0
  150.5034  140.6886  157.0920 C   0  0  0  0  0  0  0  0  0  0  0  0
  150.5810  139.8881  155.9130 C   0  0  0  0  0  0  0  0  0  0  0  0
  149.4641  139.6626  154.9027 C   0  0  1  0  0  0  0  0  0  0  0  0
  149.0360  141.0074  154.2932 C   0  0  0  0  0  0  0  0  0  0  0  0
  149.8713  138.8641  153.8081 O   0  0  0  0  0  0  0  0  0  0  0  0
  148.2402  138.9450  155.5173 C   0  0  0  0  0  0  0  0  0  0  0  0
  148.6097  137.8085  156.3550 N   0  0  0  0  0  0  0  0  0  0  0  0
  148.0087  136.6131  156.1823 C   0  0  0  0  0  0  0  0  0  0  0  0
  148.3698  135.5335  156.9244 N   0  0  0  0  0  0  0  0  0  0  0  0
  147.7595  134.3590  156.7364 C   0  0  0  0  0  0  0  0  0  0  0  0
  146.7829  134.0531  155.8787 N   0  0  0  0  0  0  0  0  0  0  0  0
  146.4185  135.1369  155.1337 C   0  0  0  0  0  0  0  0  0  0  0  0
  146.9779  136.4409  155.2232 C   0  0  0  0  0  0  0  0  0  0  0  0
  146.3553  137.2829  154.3108 N   0  0  0  0  0  0  0  0  0  0  0  0
  145.4755  136.5168  153.7225 C   0  0  0  0  0  0  0  0  0  0  0  0
  145.4442  135.2102  154.1633 N   0  0  0  0  0  0  0  0  0  0  0  0
  144.5695  134.0809  153.7239 C   0  0  2  0  0  0  0  0  0  0  0  0
  145.3890  133.0990  153.1568 O   0  0  0  0  0  0  0  0  0  0  0  0
  145.0672  132.8924  151.7812 C   0  0  2  0  0  0  0  0  0  0  0  0
  146.3427  132.5887  150.9800 C   0  0  0  0  0  0  0  0  0  0  0  0
  146.9858  131.4487  151.5073 O   0  0  0  0  0  0  0  0  0  0  0  0
  144.3863  134.1983  151.3713 C   0  0  1  0  0  0  0  0  0  0  0  0
  143.5516  134.0677  150.2368 O   0  0  0  0  0  0  0  0  0  0  0  0
  143.6167  134.5742  152.6278 C   0  0  1  0  0  0  0  0  0  0  0  0
  142.3575  133.9337  152.7274 O   0  0  0  0  0  0  0  0  0  0  0  0
  151.8688  139.4087  155.9002 C   0  0  0  0  0  0  0  0  0  0  0  0
  152.6428  138.5406  154.9637 C   0  0  0  0  0  0  0  0  0  0  0  0
  152.5617  139.8425  156.9900 O   0  0  0  0  0  0  0  0  0  0  0  0
  144.0821  133.7390  154.6379 H   0  0  0  0  0  0  0  0  0  0  0  0
  144.3505  132.0717  151.7091 H   0  0  0  0  0  0  0  0  0  0  0  0
  145.1416  134.9605  151.1718 H   0  0  0  0  0  0  0  0  0  0  0  0
  143.4532  135.6506  152.6981 H   0  0  0  0  0  0  0  0  0  0  0  0
  151.4901  141.7153  159.5333 H   0  0  0  0  0  0  0  0  0  0  0  0
  153.0474  141.9418  158.7350 H   0  0  0  0  0  0  0  0  0  0  0  0
  152.7054  140.4383  159.5959 H   0  0  0  0  0  0  0  0  0  0  0  0
  149.6490  141.2442  157.4492 H   0  0  0  0  0  0  0  0  0  0  0  0
  148.6716  141.6904  155.0615 H   0  0  0  0  0  0  0  0  0  0  0  0
  148.2354  140.8792  153.5635 H   0  0  0  0  0  0  0  0  0  0  0  0
  149.8694  141.4973  153.7874 H   0  0  0  0  0  0  0  0  0  0  0  0
  149.5398  139.2536  153.0136 H   0  0  0  0  0  0  0  0  0  0  0  0
  147.7029  139.6523  156.1509 H   0  0  0  0  0  0  0  0  0  0  0  0
  147.5422  138.6317  154.7393 H   0  0  0  0  0  0  0  0  0  0  0  0
  149.3186  137.9829  157.0534 H   0  0  0  0  0  0  0  0  0  0  0  0
  148.1013  133.5497  157.3646 H   0  0  0  0  0  0  0  0  0  0  0  0
  144.8218  136.8924  152.9494 H   0  0  0  0  0  0  0  0  0  0  0  0
  146.0897  132.3695  149.9423 H   0  0  0  0  0  0  0  0  0  0  0  0
  147.0231  133.4403  150.9734 H   0  0  0  0  0  0  0  0  0  0  0  0
  147.5842  131.1138  150.8571 H   0  0  0  0  0  0  0  0  0  0  0  0
  142.6644  134.2644  150.4978 H   0  0  0  0  0  0  0  0  0  0  0  0
  142.4374  133.2092  153.3292 H   0  0  0  0  0  0  0  0  0  0  0  0
  152.5321  138.8849  153.9357 H   0  0  0  0  0  0  0  0  0  0  0  0
  152.2941  137.5093  155.0160 H   0  0  0  0  0  0  0  0  0  0  0  0
  153.7059  138.5493  155.2049 H   0  0  0  0  0  0  0  0  0  0  0  0
  1  2  1  0  0  0  0
  1 35  1  0  0  0  0
  1 36  1  0  0  0  0
  1 37  1  0  0  0  0
  2 30  1  0  0  0  0
  2  3  2  0  0  0  0
  3  4  1  0  0  0  0
  3 38  1  0  0  0  0
  4  5  1  0  0  0  0
  4 28  2  0  0  0  0
  5  6  1  0  0  0  0
  5  7  1  0  0  0  0
  5  8  1  0  0  0  0
  6 39  1  0  0  0  0
  6 40  1  0  0  0  0
  6 41  1  0  0  0  0
  7 42  1  0  0  0  0
  8  9  1  0  0  0  0
  8 43  1  0  0  0  0
  8 44  1  0  0  0  0
  9 10  1  0  0  0  0
  9 45  1  0  0  0  0
 10 15  1  0  0  0  0
 10 11  2  0  0  0  0
 11 12  1  0  0  0  0
 12 13  2  0  0  0  0
 12 46  1  0  0  0  0
 13 14  1  0  0  0  0
 14 18  1  0  0  0  0
 14 15  2  0  0  0  0
 15 16  1  0  0  0  0
 16 17  2  0  0  0  0
 17 18  1  0  0  0  0
 17 47  1  0  0  0  0
 18 19  1  0  0  0  0
 19 31  1  0  0  0  0
 19 26  1  0  0  0  0
 19 20  1  0  0  0  0
 20 21  1  0  0  0  0
 21 32  1  0  0  0  0
 21 22  1  0  0  0  0
 21 24  1  0  0  0  0
 22 23  1  0  0  0  0
 22 48  1  0  0  0  0
 22 49  1  0  0  0  0
 23 50  1  0  0  0  0
 24 33  1  0  0  0  0
 24 25  1  0  0  0  0
 24 26  1  0  0  0  0
 25 51  1  0  0  0  0
 26 34  1  0  0  0  0
 26 27  1  0  0  0  0
 27 52  1  0  0  0  0
 28 29  1  0  0  0  0
 28 30  1  0  0  0  0
 29 53  1  0  0  0  0
 29 54  1  0  0  0  0
 29 55  1  0  0  0  0
M  END
> <s_m_source_file>
AV-unprocessed.smi

> <i_m_source_file_index>
287

> <i_lp_mmshare_version>
43012

> <i_f3d_flags>
0

> <s_epik_input>
W0NIM11jMVtjSF1jKGMobzEpW0NIM10pW0NAQF0oW0NIM10pKFtPSF0pW0NIMl1bTkhdYyhuW2NIXW4yKWMoYzIzKW5bY0hdbjNbQ0BASF00T1tDQEhdKFtDSDJdW09IXSlbQ0BASF0oW09IXSlbQ0BIXTRbT0hd

> <s_epik_cmdline>
J2VwaWtfcHl0aG9uJywgJy1waCcsICc3LjAnLCAnLXRuJywgJzgnLCAnLW1hJywgJzIwMCcsICctbWV0YWxfYmluZGluZycsICctaW1hZScsICc8aW5maWxlLm1hZT4nLCAnLW9tYWUnLCAnPG91dGZpbGUubWFlPic=

> <r_lp_tautomer_probability>
1

> <r_epik_Ionization_Penalty>
0.000992612

> <r_epik_Ionization_Penalty_Charging>
0

> <r_epik_Ionization_Penalty_Neutral>
0.000992612

> <r_epik_State_Penalty>
-0

> <r_epik_Charging_Adjusted_Penalty>
0

> <i_epik_Tot_Q>
0

> <i_epik_Tot_abs_Q>
0

> <r_epik_Metal_State_Penalty>
-0

> <b_epik_Metal_Only>
0

> <s_epik_Chemistry_Notes>
This compound contains an acetal/aminal-like group ( X-CH(R)-Y where X, Y are N, S, or O) that may be acid/base labile, releasing an aldehyde.

> <s_lp_Force_Field>
OPLS_2005

> <r_lp_Energy>
40.3349

> <b_lp_Chiralities_Consistent>
1

> <s_lp_Variant>
AV-unprocessed.smi:287-1

> <Gold.Version>
5.8.1

> <Gold.Id.Protein>
6NUR|6NUR_protein|mol2

> <Gold.PLP.Fitness>
48.6042

> <Gold.PLP.PLP>
-35.1260

> <Gold.PLP.part.hbond>
-4.7167

> <Gold.PLP.part.metal>
0.0000

> <Gold.PLP.part.buried>
-3.1428

> <Gold.PLP.part.nonpolar>
-26.6875

> <Gold.PLP.part.repulsive>
0.2085

> <Gold.PLP.ligand.clash>
0.0000

> <Gold.PLP.ligand.torsion>
0.2620

> <Gold.PLP.Chemscore.Hbond>
4.6153

> <Gold.PLP.Chemscore.CHOScore>
0.0000

> <Gold.PLP.Chemscore.Metal>
0.0000

> <Gold.Chemscore.Hbonds>
donor molecule, donor type, donor heavy atom, donor atom, acceptor molecule, acceptor atom, score
      L1  H     7    42       P1  7957  1.00
      L1  H    23    50       P1 10747  0.99
      L1  H    25    51       P1 10186  0.69
      L1  H    27    52       P1 10957  0.96
      P1  H  7997  8008       L1    30  1.00

> <Gold.PLP.Chemscore.Internal.Correction>
0.1565

> <Gold.Rescore>
     Score         DG    S(hbond)    S(metal)    S(lipo)     H(rot)  DE(clash)    DE(int)     intcor
     12.77     -15.50       4.21        0.00      80.58       5.27       0.03       2.70       ----

> <Gold.Chemscore.Fitness>
12.7714

> <Gold.Chemscore.DG>
-15.4996

> <Gold.Chemscore.ZeroCoef>
-5.4800

> <Gold.Chemscore.Hbond>
4.2144

> <Gold.Chemscore.Metal>
0.0000

> <Gold.Chemscore.Lipo>
80.5760

> <Gold.Chemscore.Internal_Hbond>
0.0000

> <Gold.Chemscore.DEClash>
0.0313

> <Gold.Chemscore.DEInternal>
2.6968

> <Gold.Chemscore.Rot>
5.2672

> <Gold.Chemscore.Internal.Correction>
   9.000000E+99

> <Gold.Chemscore.Hbonds>
donor molecule, donor type, donor heavy atom, donor atom, acceptor molecule, acceptor atom, score
      L1  H     7    42       P1  7957  0.94
      L1  H    23    50       P1 10747  0.90
      L1  H    25    51       P1 10186  0.44
      L1  H    27    52       P1 10957  0.83
      P1  H  7997  8008       L1    30  0.92

> <Gold.Chemscore.Hbond.Weighted>
-14.0761

> <Gold.Chemscore.Metal.Weighted>
-0.0000

> <Gold.Chemscore.Lipo.Weighted>
-9.4274

> <Gold.Chemscore.Internal_Hbond.Weighted>
0.0000

> <Gold.Chemscore.DEClash.Weighted>
0.0313

> <Gold.Chemscore.DEInternal.Weighted>
2.6968

> <Gold.Chemscore.Rot.Weighted>
13.4839

> <Gold.Chemscore.Internal.Correction.Weighted>
   9.000000E+99

> <Gold.Protein.RotatedTorsions>
[ 6907 6896 6895 6894 ] final  104.89 input  -60.11 | X-H torsion
[ 7974 7965 7964 7962 ] final   41.33 input  175.53 | X-H torsion
[ 8008 7997 7996 7995 ] final  -66.81 input   59.86 | X-H torsion
[ 10167 10162 10161 10158 ] final   21.14 input  -65.29 | X-H torsion
[ 10718 10713 10712 10709 ] final  -11.39 input   66.30 | X-H torsion
[ 10763 10752 10751 10750 ] final -178.90 input  -60.55 | X-H torsion
[ 11005 11000 10999 10996 ] final   -7.59 input  -57.11 | X-H torsion

> <Gold.Protein.ActiveResidues>
 VAL166  LYS551  ARG553  GLY616  TRP617  ASP618  TYR619  PRO620  LYS621  CYS622 
 ASP623  PHE694  ASN695  SER759  ASP760  ASP761  ALA762  ILE779  LEU786  VAL792 
 PHE793  MET794  SER795  GLU796  ALA797  LYS798  CYS799  TRP800  GLU811  SER814 

> <Gold.Protein.RotatedAtoms>
  152.5249  133.9610  159.7716 H   0  0  0  0  0  0  0  0  0  0  0  0  # atno 6907 bound_to 6896
  150.9900  133.6150  159.2716 H   0  0  0  0  0  0  0  0  0  0  0  0  # atno 6908 bound_to 6896
  151.3297  135.0845  159.9387 H   0  0  0  0  0  0  0  0  0  0  0  0  # atno 6909 bound_to 6896
  146.0832  139.5428  142.9523 H   0  0  0  0  0  0  0  0  0  0  0  0  # atno 7974 bound_to 7965
  154.4758  140.0905  156.7259 H   0  0  0  0  0  0  0  0  0  0  0  0  # atno 8008 bound_to 7997
  155.4600  140.3460  155.4293 H   0  0  0  0  0  0  0  0  0  0  0  0  # atno 8009 bound_to 7997
  156.1114  140.1449  156.9321 H   0  0  0  0  0  0  0  0  0  0  0  0  # atno 8010 bound_to 7997
  140.5449  143.9611  150.6542 H   0  0  0  0  0  0  0  0  0  0  0  0  # atno 10167 bound_to 10162
  156.6598  130.4978  149.6034 H   0  0  0  0  0  0  0  0  0  0  0  0  # atno 10718 bound_to 10713
  154.5419  135.2806  155.1088 H   0  0  0  0  0  0  0  0  0  0  0  0  # atno 10763 bound_to 10752
  154.2567  135.6329  153.5263 H   0  0  0  0  0  0  0  0  0  0  0  0  # atno 10764 bound_to 10752
  152.9981  135.5596  154.5960 H   0  0  0  0  0  0  0  0  0  0  0  0  # atno 10765 bound_to 10752
  140.7144  133.8881  155.8774 H   0  0  0  0  0  0  0  0  0  0  0  0  # atno 11005 bound_to 11000
  145.6179  141.0328  143.1931 LP  0  0  0  0  0  0  0  0  0  0  0  0  # atno 17320 bound_to 7965
  144.7308  139.7733  143.7348 LP  0  0  0  0  0  0  0  0  0  0  0  0  # atno 17321 bound_to 7965
  140.3022  143.3253  152.0961 LP  0  0  0  0  0  0  0  0  0  0  0  0  # atno 17342 bound_to 10162
  139.5003  144.6690  151.6289 LP  0  0  0  0  0  0  0  0  0  0  0  0  # atno 17343 bound_to 10162
  156.2020  130.6626  151.1177 LP  0  0  0  0  0  0  0  0  0  0  0  0  # atno 17370 bound_to 10713
  157.7113  131.0732  150.6488 LP  0  0  0  0  0  0  0  0  0  0  0  0  # atno 17371 bound_to 10713
  141.0057  134.1089  157.4272 LP  0  0  0  0  0  0  0  0  0  0  0  0  # atno 17394 bound_to 11000
  139.8863  135.0080  156.6493 LP  0  0  0  0  0  0  0  0  0  0  0  0  # atno 17395 bound_to 11000

$$$$
