AV-unprocessed.smi:1986|AV-procd|sdf|8052|dock8
  -GOLD-   2272010253D 1   1.00000     0.00000
 Structure written by MMmdl.
 48 49  0  0  0  0  0  0  0  0  2 V2000
  146.1900  141.9452  157.0953 C   0  0  0  0  0  0  0  0  0  0  0  0
  145.8668  140.9925  155.9306 C   0  0  0  0  0  0  0  0  0  0  0  0
  146.8942  140.9745  154.7579 C   0  0  1  0  0  0  0  0  0  0  0  0
  147.0620  142.4159  154.2100 C   0  0  0  0  0  0  0  0  0  0  0  0
  148.2859  140.5025  155.2927 C   0  0  0  0  0  0  0  0  0  0  0  0
  149.0875  141.5778  155.8743 N   0  0  0  0  0  0  0  0  0  0  0  0
  149.9708  141.4515  156.8747 C   0  0  0  0  0  0  0  0  0  0  0  0
  150.2851  140.3724  157.3758 O   0  0  0  0  0  0  0  0  0  0  0  0
  150.5819  142.7555  157.3994 C   0  0  0  0  0  0  0  0  0  0  0  0
  151.6014  142.5059  158.4277 N   0  0  0  0  0  0  0  0  0  0  0  0
  152.4203  141.4188  158.1646 N   0  0  0  0  0  0  0  0  0  0  0  0
  153.3492  141.0945  158.9993 C   0  0  0  0  0  0  0  0  0  0  0  0
  154.1365  140.0098  158.7008 O   0  0  0  0  0  0  0  0  0  0  0  0
  153.5593  141.8488  160.2155 C   0  0  0  0  0  0  0  0  0  0  0  0
  152.7596  142.9094  160.4616 C   0  0  0  0  0  0  0  0  0  0  0  0
  151.6976  143.3055  159.5356 C   0  0  0  0  0  0  0  0  0  0  0  0
  150.9532  144.2668  159.7340 O   0  0  0  0  0  0  0  0  0  0  0  0
  146.4273  140.0679  153.6433 N   0  3  0  0  0  0  0  0  0  0  0  0
  147.2476  140.0975  152.4000 C   0  0  0  0  0  0  0  0  0  0  0  0
  146.5399  139.3228  151.2776 C   0  0  0  0  0  0  0  0  0  0  0  0
  146.3375  137.9790  151.6912 O   0  0  0  0  0  0  0  0  0  0  0  0
  145.4995  137.9000  152.8360 C   0  0  0  0  0  0  0  0  0  0  0  0
  146.1427  138.6520  154.0149 C   0  0  0  0  0  0  0  0  0  0  0  0
  153.5344  139.3174  158.4754 H   0  0  0  0  0  0  0  0  0  0  0  0
  145.4171  141.8810  157.8614 H   0  0  0  0  0  0  0  0  0  0  0  0
  146.2339  142.9849  156.7722 H   0  0  0  0  0  0  0  0  0  0  0  0
  147.1373  141.6978  157.5735 H   0  0  0  0  0  0  0  0  0  0  0  0
  145.7651  139.9930  156.3526 H   0  0  0  0  0  0  0  0  0  0  0  0
  144.8784  141.2577  155.5565 H   0  0  0  0  0  0  0  0  0  0  0  0
  147.6359  143.0451  154.8906 H   0  0  0  0  0  0  0  0  0  0  0  0
  146.1029  142.9145  154.0669 H   0  0  0  0  0  0  0  0  0  0  0  0
  147.5837  142.4257  153.2525 H   0  0  0  0  0  0  0  0  0  0  0  0
  148.1777  139.6913  156.0145 H   0  0  0  0  0  0  0  0  0  0  0  0
  148.8746  140.0756  154.4806 H   0  0  0  0  0  0  0  0  0  0  0  0
  148.9208  142.5073  155.5166 H   0  0  0  0  0  0  0  0  0  0  0  0
  151.0105  143.2952  156.5530 H   0  0  0  0  0  0  0  0  0  0  0  0
  149.8043  143.4082  157.8016 H   0  0  0  0  0  0  0  0  0  0  0  0
  154.3410  141.5626  160.9040 H   0  0  0  0  0  0  0  0  0  0  0  0
  152.9062  143.4810  161.3663 H   0  0  0  0  0  0  0  0  0  0  0  0
  147.4220  141.1158  152.0570 H   0  0  0  0  0  0  0  0  0  0  0  0
  148.2249  139.6494  152.5804 H   0  0  0  0  0  0  0  0  0  0  0  0
  145.5881  139.7898  151.0180 H   0  0  0  0  0  0  0  0  0  0  0  0
  147.1524  139.3243  150.3759 H   0  0  0  0  0  0  0  0  0  0  0  0
  144.5123  138.3024  152.6059 H   0  0  0  0  0  0  0  0  0  0  0  0
  145.3585  136.8503  153.0949 H   0  0  0  0  0  0  0  0  0  0  0  0
  147.0631  138.1463  154.3073 H   0  0  0  0  0  0  0  0  0  0  0  0
  145.4566  138.5850  154.8571 H   0  0  0  0  0  0  0  0  0  0  0  0
  145.5296  140.4474  153.3759 H   0  0  0  0  0  0  0  0  0  0  0  0
  1  2  1  0  0  0  0
  1 25  1  0  0  0  0
  1 26  1  0  0  0  0
  1 27  1  0  0  0  0
  2  3  1  0  0  0  0
  2 28  1  0  0  0  0
  2 29  1  0  0  0  0
  3  4  1  0  0  0  0
  3  5  1  0  0  0  0
  3 18  1  0  0  0  0
  4 30  1  0  0  0  0
  4 31  1  0  0  0  0
  4 32  1  0  0  0  0
  5  6  1  0  0  0  0
  5 33  1  0  0  0  0
  5 34  1  0  0  0  0
  6  7  1  0  0  0  0
  6 35  1  0  0  0  0
  7  8  2  0  0  0  0
  7  9  1  0  0  0  0
  9 36  1  0  0  0  0
  9 37  1  0  0  0  0
  9 10  1  0  0  0  0
 10 11  1  0  0  0  0
 10 16  1  0  0  0  0
 11 12  2  0  0  0  0
 12 13  1  0  0  0  0
 12 14  1  0  0  0  0
 13 24  1  0  0  0  0
 14 38  1  0  0  0  0
 14 15  2  0  0  0  0
 15 39  1  0  0  0  0
 15 16  1  0  0  0  0
 16 17  2  0  0  0  0
 18 23  1  0  0  0  0
 18 19  1  0  0  0  0
 18 48  1  0  0  0  0
 19 20  1  0  0  0  0
 19 40  1  0  0  0  0
 19 41  1  0  0  0  0
 20 21  1  0  0  0  0
 20 42  1  0  0  0  0
 20 43  1  0  0  0  0
 21 22  1  0  0  0  0
 22 23  1  0  0  0  0
 22 44  1  0  0  0  0
 22 45  1  0  0  0  0
 23 46  1  0  0  0  0
 23 47  1  0  0  0  0
M  CHG  1  18   1
M  END
> <s_m_source_file>
AV-unprocessed.smi

> <i_m_source_file_index>
1986

> <i_lp_mmshare_version>
43012

> <i_f3d_flags>
0

> <s_epik_input>
W0NIMl0xW0NIMl1PW0NIMl1bQ0gyXU4xW0NAQF0oW0NIM10pKFtDSDJdW0NIM10pW0NIMl1bTkhdQyg9TylbQ0gyXW4yW25IXWMoPU8pW2NIXVtjSF1jMj1P

> <s_epik_cmdline>
J2VwaWtfcHl0aG9uJywgJy1waCcsICc3LjAnLCAnLXRuJywgJzgnLCAnLW1hJywgJzIwMCcsICctbWV0YWxfYmluZGluZycsICctaW1hZScsICc8aW5maWxlLm1hZT4nLCAnLW9tYWUnLCAnPG91dGZpbGUubWFlPic=

> <r_lp_tautomer_probability>
0.9996

> <r_epik_Ionization_Penalty>
2.73198

> <r_epik_Ionization_Penalty_Charging>
0.519658

> <r_epik_Ionization_Penalty_Neutral>
2.21233

> <r_epik_State_Penalty>
2.2852

> <r_epik_Charging_Adjusted_Penalty>
2.80486

> <i_epik_Tot_Q>
1

> <i_epik_Tot_abs_Q>
1

> <r_epik_Metal_State_Penalty>
2.2852

> <b_epik_Metal_Only>
0

> <s_lp_Force_Field>
OPLS_2005

> <r_lp_Energy>
43.5621

> <b_lp_Chiralities_Consistent>
1

> <s_lp_Variant>
AV-unprocessed.smi:1986-7

> <Gold.Version>
5.8.1

> <Gold.Id.Protein>
6NUR|6NUR_protein|mol2

> <Gold.PLP.Fitness>
42.6114

> <Gold.PLP.PLP>
-33.8295

> <Gold.PLP.part.hbond>
-2.6456

> <Gold.PLP.part.metal>
0.0000

> <Gold.PLP.part.buried>
0.9387

> <Gold.PLP.part.nonpolar>
-33.4727

> <Gold.PLP.part.repulsive>
0.5000

> <Gold.PLP.ligand.clash>
0.0000

> <Gold.PLP.ligand.torsion>
0.9882

> <Gold.PLP.Chemscore.Hbond>
3.4917

> <Gold.PLP.Chemscore.CHOScore>
0.0000

> <Gold.PLP.Chemscore.Metal>
0.0000

> <Gold.Chemscore.Hbonds>
donor molecule, donor type, donor heavy atom, donor atom, acceptor molecule, acceptor atom, score
      L1  H     6    35       P1  8028  0.55
      L1  H    18    48       P1 10175  1.89
      P1  H  7997  8010       L1    13  0.75

> <Gold.PLP.Chemscore.Internal.Correction>
0.2833

> <Gold.Rescore>
     Score         DG    S(hbond)    S(metal)    S(lipo)     H(rot)  DE(clash)    DE(int)     intcor
      8.33     -13.19       1.98        0.00      78.12       3.15       1.98       2.88       ----

> <Gold.Chemscore.Fitness>
8.3282

> <Gold.Chemscore.DG>
-13.1883

> <Gold.Chemscore.ZeroCoef>
-5.4800

> <Gold.Chemscore.Hbond>
1.9845

> <Gold.Chemscore.Metal>
0.0000

> <Gold.Chemscore.Lipo>
78.1217

> <Gold.Chemscore.Internal_Hbond>
0.0000

> <Gold.Chemscore.DEClash>
1.9771

> <Gold.Chemscore.DEInternal>
2.8830

> <Gold.Chemscore.Rot>
3.1485

> <Gold.Chemscore.Internal.Correction>
   9.000000E+99

> <Gold.Chemscore.Hbonds>
donor molecule, donor type, donor heavy atom, donor atom, acceptor molecule, acceptor atom, score
      L1  H     6    35       P1  8028  0.53
      L1  H    18    48       P1 10175  0.86
      P1  H  7997  8010       L1    13  0.08

> <Gold.Chemscore.Hbond.Weighted>
-6.6282

> <Gold.Chemscore.Metal.Weighted>
-0.0000

> <Gold.Chemscore.Lipo.Weighted>
-9.1402

> <Gold.Chemscore.Internal_Hbond.Weighted>
0.0000

> <Gold.Chemscore.DEClash.Weighted>
1.9771

> <Gold.Chemscore.DEInternal.Weighted>
2.8830

> <Gold.Chemscore.Rot.Weighted>
8.0601

> <Gold.Chemscore.Internal.Correction.Weighted>
   9.000000E+99

> <Gold.Protein.RotatedTorsions>
[ 6907 6896 6895 6894 ] final   36.68 input  -60.11 | X-H torsion
[ 7974 7965 7964 7962 ] final   86.51 input  175.53 | X-H torsion
[ 8008 7997 7996 7995 ] final   15.16 input   59.86 | X-H torsion
[ 10167 10162 10161 10158 ] final -101.10 input  -65.29 | X-H torsion
[ 10718 10713 10712 10709 ] final  -28.13 input   66.30 | X-H torsion
[ 10763 10752 10751 10750 ] final  -88.95 input  -60.55 | X-H torsion
[ 11005 11000 10999 10996 ] final  -79.41 input  -57.11 | X-H torsion

> <Gold.Protein.ActiveResidues>
 VAL166  LYS551  ARG553  GLY616  TRP617  ASP618  TYR619  PRO620  LYS621  CYS622 
 ASP623  PHE694  ASN695  SER759  ASP760  ASP761  ALA762  ILE779  LEU786  VAL792 
 PHE793  MET794  SER795  GLU796  ALA797  LYS798  CYS799  TRP800  GLU811  SER814 

> <Gold.Protein.RotatedAtoms>
  152.1330  134.9120  160.0557 H   0  0  0  0  0  0  0  0  0  0  0  0  # atno 6907 bound_to 6896
  152.0217  133.3896  159.4269 H   0  0  0  0  0  0  0  0  0  0  0  0  # atno 6908 bound_to 6896
  150.6858  134.3540  159.4965 H   0  0  0  0  0  0  0  0  0  0  0  0  # atno 6909 bound_to 6896
  145.5713  139.2314  143.2405 H   0  0  0  0  0  0  0  0  0  0  0  0  # atno 7974 bound_to 7965
  154.8587  140.2941  155.5553 H   0  0  0  0  0  0  0  0  0  0  0  0  # atno 8008 bound_to 7997
  156.3019  140.2482  156.3490 H   0  0  0  0  0  0  0  0  0  0  0  0  # atno 8009 bound_to 7997
  154.8942  140.0393  157.1845 H   0  0  0  0  0  0  0  0  0  0  0  0  # atno 8010 bound_to 7997
  140.2448  143.3513  152.0768 H   0  0  0  0  0  0  0  0  0  0  0  0  # atno 10167 bound_to 10162
  156.4292  130.4442  149.7129 H   0  0  0  0  0  0  0  0  0  0  0  0  # atno 10718 bound_to 10713
  154.6501  135.5358  153.7891 H   0  0  0  0  0  0  0  0  0  0  0  0  # atno 10763 bound_to 10752
  153.0381  135.6480  154.1030 H   0  0  0  0  0  0  0  0  0  0  0  0  # atno 10764 bound_to 10752
  154.0948  135.2937  155.3244 H   0  0  0  0  0  0  0  0  0  0  0  0  # atno 10765 bound_to 10752
  141.1667  133.7104  156.8118 H   0  0  0  0  0  0  0  0  0  0  0  0  # atno 11005 bound_to 11000
  146.1782  140.6539  142.9201 LP  0  0  0  0  0  0  0  0  0  0  0  0  # atno 17320 bound_to 7965
  144.7436  140.5010  143.6851 LP  0  0  0  0  0  0  0  0  0  0  0  0  # atno 17321 bound_to 7965
  139.5065  144.6815  151.5996 LP  0  0  0  0  0  0  0  0  0  0  0  0  # atno 17342 bound_to 10162
  140.6086  143.9479  150.6436 LP  0  0  0  0  0  0  0  0  0  0  0  0  # atno 17343 bound_to 10162
  156.4038  130.7688  151.2697 LP  0  0  0  0  0  0  0  0  0  0  0  0  # atno 17370 bound_to 10713
  157.7508  131.0232  150.3823 LP  0  0  0  0  0  0  0  0  0  0  0  0  # atno 17371 bound_to 10713
  140.2182  134.8777  157.3348 LP  0  0  0  0  0  0  0  0  0  0  0  0  # atno 17394 bound_to 11000
  140.2015  134.4248  155.7660 LP  0  0  0  0  0  0  0  0  0  0  0  0  # atno 17395 bound_to 11000

$$$$
