AV-unprocessed.smi:2931|AV-procd|sdf|11249|dock10
  -GOLD-   2272016143D 1   1.00000     0.00000
 Structure written by MMmdl.
 43 44  0  0  0  0  0  0  0  0  3 V2000
  146.0246  130.6466  152.0055 C   0  0  0  0  0  0  0  0  0  0  0  0
  145.5045  132.0174  151.8140 N   0  3  2  0  0  0  0  0  0  0  0  0
  145.1823  132.3072  150.3943 C   0  0  0  0  0  0  0  0  0  0  0  0
  144.5278  133.6913  150.2488 C   0  0  0  0  0  0  0  0  0  0  0  0
  145.4142  134.7888  150.8536 C   0  0  0  0  0  0  0  0  0  0  0  0
  145.7585  134.4470  152.3145 C   0  0  2  0  0  0  0  0  0  0  0  0
  146.6651  135.4446  152.8753 N   0  0  0  0  0  0  0  0  0  0  0  0
  146.4850  136.0744  154.0448 C   0  0  0  0  0  0  0  0  0  0  0  0
  145.5306  135.8713  154.7955 O   0  0  0  0  0  0  0  0  0  0  0  0
  147.4719  136.9454  154.3010 N   0  0  0  0  0  0  0  0  0  0  0  0
  147.5638  137.7937  155.4878 C   0  0  0  0  0  0  0  0  0  0  0  0
  148.8809  138.5919  155.5461 C   0  0  0  0  0  0  0  0  0  0  0  0
  148.7314  140.0543  155.1616 C   0  0  0  0  0  0  0  0  0  0  0  0
  148.0639  140.4141  153.9699 C   0  0  0  0  0  0  0  0  0  0  0  0
  147.9206  141.7787  153.6464 C   0  0  0  0  0  0  0  0  0  0  0  0
  148.4243  142.7223  154.4716 N   0  3  0  0  0  0  0  0  0  0  0  0
  149.0736  142.4213  155.6175 C   0  0  0  0  0  0  0  0  0  0  0  0
  149.2450  141.0737  155.9943 C   0  0  0  0  0  0  0  0  0  0  0  0
  146.3958  133.0476  152.4041 C   0  0  0  0  0  0  0  0  0  0  0  0
  146.9739  130.5121  151.4856 H   0  0  0  0  0  0  0  0  0  0  0  0
  145.3172  129.9091  151.6245 H   0  0  0  0  0  0  0  0  0  0  0  0
  146.1819  130.4392  153.0645 H   0  0  0  0  0  0  0  0  0  0  0  0
  146.0925  132.2561  149.7946 H   0  0  0  0  0  0  0  0  0  0  0  0
  144.5055  131.5433  150.0097 H   0  0  0  0  0  0  0  0  0  0  0  0
  144.3367  133.9052  149.1968 H   0  0  0  0  0  0  0  0  0  0  0  0
  143.5568  133.6910  150.7456 H   0  0  0  0  0  0  0  0  0  0  0  0
  146.3291  134.8844  150.2670 H   0  0  0  0  0  0  0  0  0  0  0  0
  144.9044  135.7515  150.7958 H   0  0  0  0  0  0  0  0  0  0  0  0
  144.8362  134.4326  152.8991 H   0  0  0  0  0  0  0  0  0  0  0  0
  147.4790  135.6831  152.3272 H   0  0  0  0  0  0  0  0  0  0  0  0
  148.2095  137.0426  153.6183 H   0  0  0  0  0  0  0  0  0  0  0  0
  146.7225  138.4870  155.4692 H   0  0  0  0  0  0  0  0  0  0  0  0
  147.4425  137.1994  156.3951 H   0  0  0  0  0  0  0  0  0  0  0  0
  149.3055  138.5249  156.5486 H   0  0  0  0  0  0  0  0  0  0  0  0
  149.6125  138.1341  154.8791 H   0  0  0  0  0  0  0  0  0  0  0  0
  147.6569  139.6554  153.3172 H   0  0  0  0  0  0  0  0  0  0  0  0
  147.4201  142.1404  152.7600 H   0  0  0  0  0  0  0  0  0  0  0  0
  149.4327  143.2612  156.1942 H   0  0  0  0  0  0  0  0  0  0  0  0
  149.7594  140.8287  156.9122 H   0  0  0  0  0  0  0  0  0  0  0  0
  146.5897  132.8007  153.4489 H   0  0  0  0  0  0  0  0  0  0  0  0
  147.3585  133.0326  151.8897 H   0  0  0  0  0  0  0  0  0  0  0  0
  144.6321  132.0657  152.3213 H   0  0  0  0  0  0  0  0  0  0  0  0
  148.3102  143.7041  154.2175 H   0  0  0  0  0  0  0  0  0  0  0  0
  1  2  1  0  0  0  0
  1 20  1  0  0  0  0
  1 21  1  0  0  0  0
  1 22  1  0  0  0  0
  2 19  1  0  0  0  0
  2  3  1  0  0  0  0
  2 42  1  0  0  0  0
  3  4  1  0  0  0  0
  3 23  1  0  0  0  0
  3 24  1  0  0  0  0
  4  5  1  0  0  0  0
  4 25  1  0  0  0  0
  4 26  1  0  0  0  0
  5  6  1  0  0  0  0
  5 27  1  0  0  0  0
  5 28  1  0  0  0  0
  6  7  1  0  0  0  0
  6 19  1  0  0  0  0
  6 29  1  0  0  0  0
  7  8  1  0  0  0  0
  7 30  1  0  0  0  0
  8  9  2  0  0  0  0
  8 10  1  0  0  0  0
 10 11  1  0  0  0  0
 10 31  1  0  0  0  0
 11 12  1  0  0  0  0
 11 32  1  0  0  0  0
 11 33  1  0  0  0  0
 12 13  1  0  0  0  0
 12 34  1  0  0  0  0
 12 35  1  0  0  0  0
 13 18  1  0  0  0  0
 13 14  2  0  0  0  0
 14 15  1  0  0  0  0
 14 36  1  0  0  0  0
 15 16  2  0  0  0  0
 15 37  1  0  0  0  0
 16 17  1  0  0  0  0
 16 43  1  0  0  0  0
 17 18  2  0  0  0  0
 17 38  1  0  0  0  0
 18 39  1  0  0  0  0
 19 40  1  0  0  0  0
 19 41  1  0  0  0  0
M  CHG  1   2   1
M  CHG  1  16   1
M  END
> <s_m_source_file>
AV-unprocessed.smi

> <i_m_source_file_index>
2931

> <i_lp_mmshare_version>
43012

> <i_f3d_flags>
0

> <s_epik_input>
W0NIM11OMVtDSDJdW0NIMl1bQ0gyXVtDQEhdKFtDSDJdMSlbTkhdQyg9TylbTkhdW0NIMl1bQ0gyXWMyW2NIXVtjSF1uW2NIXVtjSF0y

> <s_epik_cmdline>
J2VwaWtfcHl0aG9uJywgJy1waCcsICc3LjAnLCAnLXRuJywgJzgnLCAnLW1hJywgJzIwMCcsICctbWV0YWxfYmluZGluZycsICctaW1hZScsICc8aW5maWxlLm1hZT4nLCAnLW9tYWUnLCAnPG91dGZpbGUubWFlPic=

> <r_epik_Ionization_Penalty>
1.43754

> <r_epik_Ionization_Penalty_Charging>
1.4375

> <r_epik_Ionization_Penalty_Neutral>
3.7629e-05

> <r_epik_State_Penalty>
1.52008

> <r_epik_Charging_Adjusted_Penalty>
2.95758

> <i_epik_Tot_Q>
2

> <i_epik_Tot_abs_Q>
2

> <r_epik_Metal_State_Penalty>
1.57105

> <b_epik_Metal_Only>
0

> <s_lp_Force_Field>
OPLS_2005

> <r_lp_Energy>
22.8727

> <b_lp_Chiralities_Consistent>
1

> <s_lp_Variant>
AV-unprocessed.smi:2931-8

> <Gold.Version>
5.8.1

> <Gold.Id.Protein>
6NUR|6NUR_protein|mol2

> <Gold.PLP.Fitness>
40.9687

> <Gold.PLP.PLP>
-30.2120

> <Gold.PLP.part.hbond>
-2.9190

> <Gold.PLP.part.metal>
0.0000

> <Gold.PLP.part.buried>
-3.7355

> <Gold.PLP.part.nonpolar>
-24.3555

> <Gold.PLP.part.repulsive>
0.2806

> <Gold.PLP.ligand.clash>
0.0000

> <Gold.PLP.ligand.torsion>
0.5216

> <Gold.PLP.Chemscore.Hbond>
3.9280

> <Gold.PLP.Chemscore.CHOScore>
0.0000

> <Gold.PLP.Chemscore.Metal>
0.0000

> <Gold.Chemscore.Hbonds>
donor molecule, donor type, donor heavy atom, donor atom, acceptor molecule, acceptor atom, score
      L1  H     7    30       P1  7948  1.00
      L1  H    10    31       P1  7948  0.79
      L1  H    16    43       P1  8028  0.38

> <Gold.PLP.Chemscore.Internal.Correction>
0.0161

> <Gold.Rescore>
     Score         DG    S(hbond)    S(metal)    S(lipo)     H(rot)  DE(clash)    DE(int)     intcor
     19.26     -19.89       2.89        0.00      76.75       1.65       0.10       0.53       ----

> <Gold.Chemscore.Fitness>
19.2629

> <Gold.Chemscore.DG>
-19.8899

> <Gold.Chemscore.ZeroCoef>
-5.4800

> <Gold.Chemscore.Hbond>
2.8876

> <Gold.Chemscore.Metal>
0.0000

> <Gold.Chemscore.Lipo>
76.7536

> <Gold.Chemscore.Internal_Hbond>
0.0000

> <Gold.Chemscore.DEClash>
0.0982

> <Gold.Chemscore.DEInternal>
0.5287

> <Gold.Chemscore.Rot>
1.6464

> <Gold.Chemscore.Internal.Correction>
   9.000000E+99

> <Gold.Chemscore.Hbonds>
donor molecule, donor type, donor heavy atom, donor atom, acceptor molecule, acceptor atom, score
      L1  H     7    30       P1  7948  0.99
      L1  H    10    31       P1  7948  0.74
      L1  H    16    43       P1  8028  0.18

> <Gold.Chemscore.Hbond.Weighted>
-9.6444

> <Gold.Chemscore.Metal.Weighted>
-0.0000

> <Gold.Chemscore.Lipo.Weighted>
-8.9802

> <Gold.Chemscore.Internal_Hbond.Weighted>
0.0000

> <Gold.Chemscore.DEClash.Weighted>
0.0982

> <Gold.Chemscore.DEInternal.Weighted>
0.5287

> <Gold.Chemscore.Rot.Weighted>
4.2148

> <Gold.Chemscore.Internal.Correction.Weighted>
   9.000000E+99

> <Gold.Protein.RotatedTorsions>
[ 6907 6896 6895 6894 ] final -177.19 input  -60.11 | X-H torsion
[ 7974 7965 7964 7962 ] final   65.76 input  175.53 | X-H torsion
[ 8008 7997 7996 7995 ] final   82.67 input   59.86 | X-H torsion
[ 10167 10162 10161 10158 ] final   47.68 input  -65.29 | X-H torsion
[ 10718 10713 10712 10709 ] final  -44.60 input   66.30 | X-H torsion
[ 10763 10752 10751 10750 ] final   18.48 input  -60.55 | X-H torsion
[ 11005 11000 10999 10996 ] final   76.17 input  -57.11 | X-H torsion

> <Gold.Protein.ActiveResidues>
 VAL166  LYS551  ARG553  GLY616  TRP617  ASP618  TYR619  PRO620  LYS621  CYS622 
 ASP623  PHE694  ASN695  SER759  ASP760  ASP761  ALA762  ILE779  LEU786  VAL792 
 PHE793  MET794  SER795  GLU796  ALA797  LYS798  CYS799  TRP800  GLU811  SER814 

> <Gold.Protein.RotatedAtoms>
  151.6171  133.3342  159.3079 H   0  0  0  0  0  0  0  0  0  0  0  0  # atno 6907 bound_to 6896
  150.8126  134.7293  159.6713 H   0  0  0  0  0  0  0  0  0  0  0  0  # atno 6908 bound_to 6896
  152.4222  134.5939  160.0033 H   0  0  0  0  0  0  0  0  0  0  0  0  # atno 6909 bound_to 6896
  145.8347  139.3160  143.0967 H   0  0  0  0  0  0  0  0  0  0  0  0  # atno 7974 bound_to 7965
  155.9137  140.3426  155.6118 H   0  0  0  0  0  0  0  0  0  0  0  0  # atno 8008 bound_to 7997
  155.7357  140.0801  157.2287 H   0  0  0  0  0  0  0  0  0  0  0  0  # atno 8009 bound_to 7997
  154.4059  140.1580  156.2547 H   0  0  0  0  0  0  0  0  0  0  0  0  # atno 8010 bound_to 7997
  140.3011  144.2932  150.6219 H   0  0  0  0  0  0  0  0  0  0  0  0  # atno 10167 bound_to 10162
  156.2370  130.4177  149.8806 H   0  0  0  0  0  0  0  0  0  0  0  0  # atno 10718 bound_to 10713
  153.1245  135.6726  153.9279 H   0  0  0  0  0  0  0  0  0  0  0  0  # atno 10763 bound_to 10752
  153.8784  135.3061  155.3446 H   0  0  0  0  0  0  0  0  0  0  0  0  # atno 10764 bound_to 10752
  154.7652  135.4967  153.9621 H   0  0  0  0  0  0  0  0  0  0  0  0  # atno 10765 bound_to 10752
  139.9310  134.7579  156.1362 H   0  0  0  0  0  0  0  0  0  0  0  0  # atno 11005 bound_to 11000
  145.9532  140.8893  143.0248 LP  0  0  0  0  0  0  0  0  0  0  0  0  # atno 17320 bound_to 7965
  144.6737  140.1709  143.7414 LP  0  0  0  0  0  0  0  0  0  0  0  0  # atno 17321 bound_to 7965
  140.5650  143.2187  151.7699 LP  0  0  0  0  0  0  0  0  0  0  0  0  # atno 17342 bound_to 10162
  139.4915  144.4296  151.9887 LP  0  0  0  0  0  0  0  0  0  0  0  0  # atno 17343 bound_to 10162
  156.6401  130.8701  151.3512 LP  0  0  0  0  0  0  0  0  0  0  0  0  # atno 17370 bound_to 10713
  157.7158  130.9496  150.1252 LP  0  0  0  0  0  0  0  0  0  0  0  0  # atno 17371 bound_to 10713
  141.0899  133.6719  156.2517 LP  0  0  0  0  0  0  0  0  0  0  0  0  # atno 17394 bound_to 11000
  140.6202  134.5369  157.5546 LP  0  0  0  0  0  0  0  0  0  0  0  0  # atno 17395 bound_to 11000

$$$$
