AV-unprocessed.smi:160|AV-procd|sdf|1345|dock7
  -GOLD-   2262019 43D 1   1.00000     0.00000
 Structure written by MMmdl.
 29 30  0  0  0  0  0  0  0  0  1 V2000
  154.1053  140.4253  160.6973 N   0  0  0  0  0  0  0  0  0  0  0  0
  153.3142  140.8823  159.7211 C   0  0  0  0  0  0  0  0  0  0  0  0
  152.7451  141.9705  159.7899 O   0  0  0  0  0  0  0  0  0  0  0  0
  153.1529  139.9876  158.5233 C   0  0  0  0  0  0  0  0  0  0  0  0
  153.7163  138.7437  158.4906 N   0  0  0  0  0  0  0  0  0  0  0  0
  153.3184  138.3668  157.2823 C   0  0  0  0  0  0  0  0  0  0  0  0
  152.5746  139.2739  156.6410 N   0  0  0  0  0  0  0  0  0  0  0  0
  151.9817  139.2209  155.2661 C   0  0  2  0  0  0  0  0  0  0  0  0
  151.1125  140.3063  155.1363 O   0  0  0  0  0  0  0  0  0  0  0  0
  149.7674  139.8751  155.3213 C   0  0  1  0  0  0  0  0  0  0  0  0
  148.7689  140.8895  154.7363 C   0  0  0  0  0  0  0  0  0  0  0  0
  149.1067  141.1853  153.3977 O   0  0  0  0  0  0  0  0  0  0  0  0
  149.7796  138.4928  154.6557 C   0  0  1  0  0  0  0  0  0  0  0  0
  149.6353  138.6191  153.2496 O   0  0  0  0  0  0  0  0  0  0  0  0
  151.1480  137.9408  155.0588 C   0  0  1  0  0  0  0  0  0  0  0  0
  151.6894  137.0717  154.0808 O   0  0  0  0  0  0  0  0  0  0  0  0
  152.4611  140.3613  157.4454 N   0  0  0  0  0  0  0  0  0  0  0  0
  152.8299  139.3226  154.5877 H   0  0  0  0  0  0  0  0  0  0  0  0
  149.5721  139.7398  156.3864 H   0  0  0  0  0  0  0  0  0  0  0  0
  148.9702  137.8610  155.0226 H   0  0  0  0  0  0  0  0  0  0  0  0
  151.0600  137.3947  155.9986 H   0  0  0  0  0  0  0  0  0  0  0  0
  154.2489  140.9781  161.5295 H   0  0  0  0  0  0  0  0  0  0  0  0
  154.5505  139.5247  160.5963 H   0  0  0  0  0  0  0  0  0  0  0  0
  153.5758  137.4086  156.8550 H   0  0  0  0  0  0  0  0  0  0  0  0
  147.7444  140.5208  154.7943 H   0  0  0  0  0  0  0  0  0  0  0  0
  148.8122  141.8239  155.2964 H   0  0  0  0  0  0  0  0  0  0  0  0
  149.2774  140.3736  152.9448 H   0  0  0  0  0  0  0  0  0  0  0  0
  149.8203  137.7796  152.8560 H   0  0  0  0  0  0  0  0  0  0  0  0
  151.0574  136.9707  153.3854 H   0  0  0  0  0  0  0  0  0  0  0  0
  1  2  1  0  0  0  0
  1 22  1  0  0  0  0
  1 23  1  0  0  0  0
  2  3  2  0  0  0  0
  2  4  1  0  0  0  0
  4 17  2  0  0  0  0
  4  5  1  0  0  0  0
  5  6  2  0  0  0  0
  6  7  1  0  0  0  0
  6 24  1  0  0  0  0
  7  8  1  0  0  0  0
  7 17  1  0  0  0  0
  8 18  1  0  0  0  0
  8 15  1  0  0  0  0
  8  9  1  0  0  0  0
  9 10  1  0  0  0  0
 10 19  1  0  0  0  0
 10 11  1  0  0  0  0
 10 13  1  0  0  0  0
 11 12  1  0  0  0  0
 11 25  1  0  0  0  0
 11 26  1  0  0  0  0
 12 27  1  0  0  0  0
 13 20  1  0  0  0  0
 13 14  1  0  0  0  0
 13 15  1  0  0  0  0
 14 28  1  0  0  0  0
 15 21  1  0  0  0  0
 15 16  1  0  0  0  0
 16 29  1  0  0  0  0
M  END
> <s_m_source_file>
AV-unprocessed.smi

> <i_m_source_file_index>
160

> <i_lp_mmshare_version>
43012

> <i_f3d_flags>
0

> <s_epik_input>
W05IMl1DKD1PKWMxbltjSF1uKG4xKVtDQEBIXTJPW0NASF0oW0NIMl1bT0hdKVtDQEBIXShbT0hdKVtDQEhdMltPSF0=

> <s_epik_cmdline>
J2VwaWtfcHl0aG9uJywgJy1waCcsICc3LjAnLCAnLXRuJywgJzgnLCAnLW1hJywgJzIwMCcsICctbWV0YWxfYmluZGluZycsICctaW1hZScsICc8aW5maWxlLm1hZT4nLCAnLW9tYWUnLCAnPG91dGZpbGUubWFlPic=

> <r_lp_tautomer_probability>
1

> <r_epik_Ionization_Penalty>
1.06932e-05

> <r_epik_Ionization_Penalty_Charging>
0

> <r_epik_Ionization_Penalty_Neutral>
1.06932e-05

> <r_epik_State_Penalty>
-0

> <r_epik_Charging_Adjusted_Penalty>
0

> <i_epik_Tot_Q>
0

> <i_epik_Tot_abs_Q>
0

> <r_epik_Metal_State_Penalty>
0.0142097

> <b_epik_Metal_Only>
0

> <s_epik_Chemistry_Notes>
This compound contains an acetal/aminal-like group ( X-CH(R)-Y where X, Y are N, S, or O) that may be acid/base labile, releasing an aldehyde.

> <s_lp_Force_Field>
OPLS_2005

> <r_lp_Energy>
41.9483

> <b_lp_Chiralities_Consistent>
1

> <s_lp_Variant>
AV-unprocessed.smi:160-3

> <Gold.Version>
5.8.1

> <Gold.Id.Protein>
6NUR|6NUR_protein|mol2

> <Gold.PLP.Fitness>
44.3566

> <Gold.PLP.PLP>
-29.4129

> <Gold.PLP.part.hbond>
-8.5474

> <Gold.PLP.part.metal>
0.0000

> <Gold.PLP.part.buried>
-4.4756

> <Gold.PLP.part.nonpolar>
-16.0225

> <Gold.PLP.part.repulsive>
0.0706

> <Gold.PLP.ligand.clash>
0.0000

> <Gold.PLP.ligand.torsion>
0.2080

> <Gold.PLP.Chemscore.Hbond>
5.1130

> <Gold.PLP.Chemscore.CHOScore>
0.0000

> <Gold.PLP.Chemscore.Metal>
0.0000

> <Gold.Chemscore.Hbonds>
donor molecule, donor type, donor heavy atom, donor atom, acceptor molecule, acceptor atom, score
      L1  H    12    27       P1  7957  0.61
      L1  H    14    28       P1  7948  0.88
      L1  H    16    29       P1  7949  0.47
      P1  H  7989  7998       L1     9  0.95
      P1  H  8011  8017       L1    12  1.00
      P1  H 10752 10763       L1    16  1.00

> <Gold.PLP.Chemscore.Internal.Correction>
0.0207

> <Gold.Rescore>
     Score         DG    S(hbond)    S(metal)    S(lipo)     H(rot)  DE(clash)    DE(int)     intcor
     11.39     -11.53       4.08        0.00      23.96       4.06       0.01       0.13       ----

> <Gold.Chemscore.Fitness>
11.3872

> <Gold.Chemscore.DG>
-11.5285

> <Gold.Chemscore.ZeroCoef>
-5.4800

> <Gold.Chemscore.Hbond>
4.0836

> <Gold.Chemscore.Metal>
0.0000

> <Gold.Chemscore.Lipo>
23.9575

> <Gold.Chemscore.Internal_Hbond>
0.0000

> <Gold.Chemscore.DEClash>
0.0111

> <Gold.Chemscore.DEInternal>
0.1302

> <Gold.Chemscore.Rot>
4.0600

> <Gold.Chemscore.Internal.Correction>
   9.000000E+99

> <Gold.Chemscore.Hbonds>
donor molecule, donor type, donor heavy atom, donor atom, acceptor molecule, acceptor atom, score
      L1  H    12    27       P1  7957  0.60
      L1  H    14    28       P1  7948  0.33
      L1  H    16    29       P1  7949  0.16
      P1  H  7989  7998       L1     9  0.20
      P1  H  8011  8017       L1    12  0.43
      P1  H 10752 10763       L1    16  0.93

> <Gold.Chemscore.Hbond.Weighted>
-13.6391

> <Gold.Chemscore.Metal.Weighted>
-0.0000

> <Gold.Chemscore.Lipo.Weighted>
-2.8030

> <Gold.Chemscore.Internal_Hbond.Weighted>
0.0000

> <Gold.Chemscore.DEClash.Weighted>
0.0111

> <Gold.Chemscore.DEInternal.Weighted>
0.1302

> <Gold.Chemscore.Rot.Weighted>
10.3936

> <Gold.Chemscore.Internal.Correction.Weighted>
   9.000000E+99

> <Gold.Protein.RotatedTorsions>
[ 6907 6896 6895 6894 ] final   84.11 input  -60.11 | X-H torsion
[ 7974 7965 7964 7962 ] final -144.00 input  175.53 | X-H torsion
[ 8008 7997 7996 7995 ] final   47.35 input   59.86 | X-H torsion
[ 10167 10162 10161 10158 ] final   70.62 input  -65.29 | X-H torsion
[ 10718 10713 10712 10709 ] final -109.67 input   66.30 | X-H torsion
[ 10763 10752 10751 10750 ] final   44.84 input  -60.55 | X-H torsion
[ 11005 11000 10999 10996 ] final  157.77 input  -57.11 | X-H torsion

> <Gold.Protein.ActiveResidues>
 VAL166  LYS551  ARG553  GLY616  TRP617  ASP618  TYR619  PRO620  LYS621  CYS622 
 ASP623  PHE694  ASN695  SER759  ASP760  ASP761  ALA762  ILE779  LEU786  VAL792 
 PHE793  MET794  SER795  GLU796  ALA797  LYS798  CYS799  TRP800  GLU811  SER814 

> <Gold.Protein.RotatedAtoms>
  152.5344  134.2792  159.9000 H   0  0  0  0  0  0  0  0  0  0  0  0  # atno 6907 bound_to 6896
  151.2747  133.4232  159.2631 H   0  0  0  0  0  0  0  0  0  0  0  0  # atno 6908 bound_to 6896
  151.0336  134.9572  159.8181 H   0  0  0  0  0  0  0  0  0  0  0  0  # atno 6909 bound_to 6896
  144.8329  140.5764  143.5503 H   0  0  0  0  0  0  0  0  0  0  0  0  # atno 7974 bound_to 7965
  155.3676  140.3422  155.4242 H   0  0  0  0  0  0  0  0  0  0  0  0  # atno 8008 bound_to 7997
  156.1680  140.1622  156.8532 H   0  0  0  0  0  0  0  0  0  0  0  0  # atno 8009 bound_to 7997
  154.5204  140.0768  156.8143 H   0  0  0  0  0  0  0  0  0  0  0  0  # atno 8010 bound_to 7997
  140.0549  144.5281  150.7336 H   0  0  0  0  0  0  0  0  0  0  0  0  # atno 10167 bound_to 10162
  156.0549  130.5775  150.8131 H   0  0  0  0  0  0  0  0  0  0  0  0  # atno 10718 bound_to 10713
  152.9834  135.6058  154.3339 H   0  0  0  0  0  0  0  0  0  0  0  0  # atno 10763 bound_to 10752
  154.3041  135.2772  155.2599 H   0  0  0  0  0  0  0  0  0  0  0  0  # atno 10764 bound_to 10752
  154.4838  135.5910  153.6465 H   0  0  0  0  0  0  0  0  0  0  0  0  # atno 10765 bound_to 10752
  140.1801  134.8481  157.2793 H   0  0  0  0  0  0  0  0  0  0  0  0  # atno 11005 bound_to 11000
  145.4857  139.1492  143.3737 LP  0  0  0  0  0  0  0  0  0  0  0  0  # atno 17320 bound_to 7965
  146.2630  140.4994  142.8845 LP  0  0  0  0  0  0  0  0  0  0  0  0  # atno 17321 bound_to 7965
  140.7199  143.2579  151.4312 LP  0  0  0  0  0  0  0  0  0  0  0  0  # atno 17342 bound_to 10162
  139.5930  144.1459  152.2110 LP  0  0  0  0  0  0  0  0  0  0  0  0  # atno 17343 bound_to 10162
  157.5510  131.0944  150.9696 LP  0  0  0  0  0  0  0  0  0  0  0  0  # atno 17370 bound_to 10713
  156.9955  130.5580  149.5307 LP  0  0  0  0  0  0  0  0  0  0  0  0  # atno 17371 bound_to 10713
  140.2277  134.3947  155.7536 LP  0  0  0  0  0  0  0  0  0  0  0  0  # atno 17394 bound_to 11000
  141.2222  133.7198  156.8590 LP  0  0  0  0  0  0  0  0  0  0  0  0  # atno 17395 bound_to 11000

$$$$
