AV-unprocessed.smi:1964|AV-procd|sdf|7930|dock5
  -GOLD-   2272010103D 1   1.00000     0.00000
 Structure written by MMmdl.
 46 48  0  0  0  0  0  0  0  0  1 V2000
  152.7462  139.0294  158.7304 C   0  0  0  0  0  0  0  0  0  0  0  0
  152.1925  139.5810  157.4050 C   0  0  2  0  0  0  0  0  0  0  0  0
  150.7819  140.1785  157.5878 C   0  0  0  0  0  0  0  0  0  0  0  0
  150.2523  140.7891  156.2803 C   0  0  0  0  0  0  0  0  0  0  0  0
  150.2639  139.7617  155.1387 C   0  0  0  0  0  0  0  0  0  0  0  0
  151.6654  139.1561  154.9474 C   0  0  0  0  0  0  0  0  0  0  0  0
  152.2222  138.5463  156.2497 C   0  0  2  0  0  0  0  0  0  0  0  0
  151.4767  137.3323  156.5873 N   0  0  0  0  0  0  0  0  0  0  0  0
  151.1526  136.3407  155.7433 C   0  0  0  0  0  0  0  0  0  0  0  0
  151.4309  136.3523  154.5435 O   0  0  0  0  0  0  0  0  0  0  0  0
  150.3965  135.1568  156.3638 C   0  0  0  0  0  0  0  0  0  0  0  0
  149.9556  134.1620  155.3620 N   0  0  0  0  0  0  0  0  0  0  0  0
  148.9059  134.5183  154.4770 C   0  0  0  0  0  0  0  0  0  0  0  0
  148.3914  135.6375  154.5209 O   0  0  0  0  0  0  0  0  0  0  0  0
  148.4855  133.4736  153.5467 C   0  0  0  0  0  0  0  0  0  0  0  0
  147.4094  133.7823  152.6643 C   0  0  0  0  0  0  0  0  0  0  0  0
  146.5515  134.0354  151.9296 N   0  0  0  0  0  0  0  0  0  0  0  0
  149.0912  132.2684  153.5355 C   0  0  0  0  0  0  0  0  0  0  0  0
  150.1367  131.9562  154.3768 N   0  0  0  0  0  0  0  0  0  0  0  0
  150.6616  130.6221  154.4547 C   0  0  0  0  0  0  0  0  0  0  0  0
  152.1465  130.3714  154.2769 C   0  0  0  0  0  0  0  0  0  0  0  0
  151.1776  129.9625  153.1944 C   0  0  0  0  0  0  0  0  0  0  0  0
  150.5622  132.8826  155.3541 C   0  0  0  0  0  0  0  0  0  0  0  0
  151.4265  132.5845  156.1821 O   0  0  0  0  0  0  0  0  0  0  0  0
  152.1080  138.2470  159.1423 H   0  0  0  0  0  0  0  0  0  0  0  0
  152.8212  139.8176  159.4796 H   0  0  0  0  0  0  0  0  0  0  0  0
  153.7432  138.6095  158.5947 H   0  0  0  0  0  0  0  0  0  0  0  0
  152.8514  140.3999  157.1121 H   0  0  0  0  0  0  0  0  0  0  0  0
  150.0929  139.4084  157.9369 H   0  0  0  0  0  0  0  0  0  0  0  0
  150.8009  140.9453  158.3628 H   0  0  0  0  0  0  0  0  0  0  0  0
  149.2406  141.1672  156.4300 H   0  0  0  0  0  0  0  0  0  0  0  0
  150.8652  141.6481  156.0040 H   0  0  0  0  0  0  0  0  0  0  0  0
  149.5441  138.9703  155.3512 H   0  0  0  0  0  0  0  0  0  0  0  0
  149.9350  140.2339  154.2126 H   0  0  0  0  0  0  0  0  0  0  0  0
  151.6423  138.4037  154.1580 H   0  0  0  0  0  0  0  0  0  0  0  0
  152.3443  139.9360  154.6002 H   0  0  0  0  0  0  0  0  0  0  0  0
  153.2642  138.2835  156.0586 H   0  0  0  0  0  0  0  0  0  0  0  0
  151.2009  137.2316  157.5535 H   0  0  0  0  0  0  0  0  0  0  0  0
  151.0289  134.6800  157.1150 H   0  0  0  0  0  0  0  0  0  0  0  0
  149.5574  135.5526  156.9373 H   0  0  0  0  0  0  0  0  0  0  0  0
  148.7488  131.5182  152.8370 H   0  0  0  0  0  0  0  0  0  0  0  0
  150.1526  129.9651  155.1580 H   0  0  0  0  0  0  0  0  0  0  0  0
  152.7923  131.2224  154.0686 H   0  0  0  0  0  0  0  0  0  0  0  0
  152.5958  129.5822  154.8761 H   0  0  0  0  0  0  0  0  0  0  0  0
  150.9813  128.8997  153.0694 H   0  0  0  0  0  0  0  0  0  0  0  0
  151.1843  130.5456  152.2755 H   0  0  0  0  0  0  0  0  0  0  0  0
  1  2  1  0  0  0  0
  1 25  1  0  0  0  0
  1 26  1  0  0  0  0
  1 27  1  0  0  0  0
  2  7  1  0  0  0  0
  2  3  1  0  0  0  0
  2 28  1  0  0  0  0
  3  4  1  0  0  0  0
  3 29  1  0  0  0  0
  3 30  1  0  0  0  0
  4  5  1  0  0  0  0
  4 31  1  0  0  0  0
  4 32  1  0  0  0  0
  5  6  1  0  0  0  0
  5 33  1  0  0  0  0
  5 34  1  0  0  0  0
  6  7  1  0  0  0  0
  6 35  1  0  0  0  0
  6 36  1  0  0  0  0
  7  8  1  0  0  0  0
  7 37  1  0  0  0  0
  8  9  1  0  0  0  0
  8 38  1  0  0  0  0
  9 10  2  0  0  0  0
  9 11  1  0  0  0  0
 11 12  1  0  0  0  0
 11 39  1  0  0  0  0
 11 40  1  0  0  0  0
 12 23  1  0  0  0  0
 12 13  1  0  0  0  0
 13 14  2  0  0  0  0
 13 15  1  0  0  0  0
 15 16  1  0  0  0  0
 15 18  2  0  0  0  0
 16 17  3  0  0  0  0
 18 19  1  0  0  0  0
 18 41  1  0  0  0  0
 19 20  1  0  0  0  0
 19 23  1  0  0  0  0
 20 22  1  0  0  0  0
 20 21  1  0  0  0  0
 20 42  1  0  0  0  0
 21 22  1  0  0  0  0
 21 43  1  0  0  0  0
 21 44  1  0  0  0  0
 22 45  1  0  0  0  0
 22 46  1  0  0  0  0
 23 24  2  0  0  0  0
M  END
> <s_m_source_file>
AV-unprocessed.smi

> <i_m_source_file_index>
1964

> <i_lp_mmshare_version>
43012

> <i_f3d_flags>
0

> <s_epik_input>
W0NIM11bQ0BASF0xW0NIMl1bQ0gyXVtDSDJdW0NIMl1bQ0BIXTFbTkhdQyg9TylbQ0gyXW4yYyg9TyljKEMjTilbY0hdbihjMj1PKVtDSF0zW0NIMl1bQ0gyXTM=

> <s_epik_cmdline>
J2VwaWtfcHl0aG9uJywgJy1waCcsICc3LjAnLCAnLXRuJywgJzgnLCAnLW1hJywgJzIwMCcsICctbWV0YWxfYmluZGluZycsICctaW1hZScsICc8aW5maWxlLm1hZT4nLCAnLW9tYWUnLCAnPG91dGZpbGUubWFlPic=

> <r_lp_tautomer_probability>
1

> <r_epik_Ionization_Penalty>
1.91372e-08

> <r_epik_Ionization_Penalty_Charging>
9.0283e-11

> <r_epik_Ionization_Penalty_Neutral>
1.90469e-08

> <r_epik_State_Penalty>
-0

> <r_epik_Charging_Adjusted_Penalty>
9.0283e-11

> <i_epik_Tot_Q>
0

> <i_epik_Tot_abs_Q>
0

> <r_epik_Metal_State_Penalty>
-0

> <b_epik_Metal_Only>
0

> <s_lp_Force_Field>
OPLS_2005

> <r_lp_Energy>
35.1398

> <b_lp_Chiralities_Consistent>
1

> <s_lp_Variant>
AV-unprocessed.smi:1964-3

> <Gold.Version>
5.8.1

> <Gold.Id.Protein>
6NUR|6NUR_protein|mol2

> <Gold.PLP.Fitness>
44.8207

> <Gold.PLP.PLP>
-39.6470

> <Gold.PLP.part.hbond>
-1.9714

> <Gold.PLP.part.metal>
0.0000

> <Gold.PLP.part.buried>
-4.3651

> <Gold.PLP.part.nonpolar>
-35.6148

> <Gold.PLP.part.repulsive>
1.5762

> <Gold.PLP.ligand.clash>
0.0000

> <Gold.PLP.ligand.torsion>
0.3681

> <Gold.PLP.Chemscore.Hbond>
1.8960

> <Gold.PLP.Chemscore.CHOScore>
0.0000

> <Gold.PLP.Chemscore.Metal>
0.0000

> <Gold.Chemscore.Hbonds>
donor molecule, donor type, donor heavy atom, donor atom, acceptor molecule, acceptor atom, score
      P1  H 10752 10764       L1    10  1.00
      L1  C    18    41       P1 10747  0.75

> <Gold.PLP.Chemscore.Internal.Correction>
0.2219

> <Gold.Rescore>
     Score         DG    S(hbond)    S(metal)    S(lipo)     H(rot)  DE(clash)    DE(int)     intcor
     13.23     -15.62       1.83        0.00      71.87       1.70       0.00       2.40       ----

> <Gold.Chemscore.Fitness>
13.2255

> <Gold.Chemscore.DG>
-15.6241

> <Gold.Chemscore.ZeroCoef>
-5.4800

> <Gold.Chemscore.Hbond>
1.8254

> <Gold.Chemscore.Metal>
0.0000

> <Gold.Chemscore.Lipo>
71.8710

> <Gold.Chemscore.Internal_Hbond>
0.0000

> <Gold.Chemscore.DEClash>
0.0004

> <Gold.Chemscore.DEInternal>
2.3982

> <Gold.Chemscore.Rot>
1.7038

> <Gold.Chemscore.Internal.Correction>
   9.000000E+99

> <Gold.Chemscore.Hbonds>
donor molecule, donor type, donor heavy atom, donor atom, acceptor molecule, acceptor atom, score
      P1  H 10752 10764       L1    10  0.65

> <Gold.Chemscore.Hbond.Weighted>
-6.0969

> <Gold.Chemscore.Metal.Weighted>
-0.0000

> <Gold.Chemscore.Lipo.Weighted>
-8.4089

> <Gold.Chemscore.Internal_Hbond.Weighted>
0.0000

> <Gold.Chemscore.DEClash.Weighted>
0.0004

> <Gold.Chemscore.DEInternal.Weighted>
2.3982

> <Gold.Chemscore.Rot.Weighted>
4.3618

> <Gold.Chemscore.Internal.Correction.Weighted>
   9.000000E+99

> <Gold.Protein.RotatedTorsions>
[ 6907 6896 6895 6894 ] final -164.85 input  -60.11 | X-H torsion
[ 7974 7965 7964 7962 ] final   11.06 input  175.53 | X-H torsion
[ 8008 7997 7996 7995 ] final  -52.49 input   59.86 | X-H torsion
[ 10167 10162 10161 10158 ] final -127.18 input  -65.29 | X-H torsion
[ 10718 10713 10712 10709 ] final   63.51 input   66.30 | X-H torsion
[ 10763 10752 10751 10750 ] final  -73.55 input  -60.55 | X-H torsion
[ 11005 11000 10999 10996 ] final   24.15 input  -57.11 | X-H torsion

> <Gold.Protein.ActiveResidues>
 VAL166  LYS551  ARG553  GLY616  TRP617  ASP618  TYR619  PRO620  LYS621  CYS622 
 ASP623  PHE694  ASN695  SER759  ASP760  ASP761  ALA762  ILE779  LEU786  VAL792 
 PHE793  MET794  SER795  GLU796  ALA797  LYS798  CYS799  TRP800  GLU811  SER814 

> <Gold.Protein.RotatedAtoms>
  151.4183  133.3706  159.2752 H   0  0  0  0  0  0  0  0  0  0  0  0  # atno 6907 bound_to 6896
  150.9312  134.8728  159.7563 H   0  0  0  0  0  0  0  0  0  0  0  0  # atno 6908 bound_to 6896
  152.5029  134.4128  159.9506 H   0  0  0  0  0  0  0  0  0  0  0  0  # atno 6909 bound_to 6896
  146.2378  139.9541  142.8467 H   0  0  0  0  0  0  0  0  0  0  0  0  # atno 7974 bound_to 7965
  154.4108  140.1222  156.5000 H   0  0  0  0  0  0  0  0  0  0  0  0  # atno 8008 bound_to 7997
  155.6904  140.3495  155.4872 H   0  0  0  0  0  0  0  0  0  0  0  0  # atno 8009 bound_to 7997
  155.9473  140.1098  157.0996 H   0  0  0  0  0  0  0  0  0  0  0  0  # atno 8010 bound_to 7997
  139.9636  143.5923  152.2437 H   0  0  0  0  0  0  0  0  0  0  0  0  # atno 10167 bound_to 10162
  157.5976  130.9109  149.9726 H   0  0  0  0  0  0  0  0  0  0  0  0  # atno 10718 bound_to 10713
  154.4610  135.5893  153.6256 H   0  0  0  0  0  0  0  0  0  0  0  0  # atno 10763 bound_to 10752
  152.9823  135.6044  154.3486 H   0  0  0  0  0  0  0  0  0  0  0  0  # atno 10764 bound_to 10752
  154.3357  135.2842  155.2427 H   0  0  0  0  0  0  0  0  0  0  0  0  # atno 10765 bound_to 10752
  140.3618  134.2117  155.7672 H   0  0  0  0  0  0  0  0  0  0  0  0  # atno 11005 bound_to 11000
  145.1833  140.9777  143.4253 LP  0  0  0  0  0  0  0  0  0  0  0  0  # atno 17320 bound_to 7965
  144.9922  139.3678  143.6209 LP  0  0  0  0  0  0  0  0  0  0  0  0  # atno 17321 bound_to 7965
  139.6535  144.7661  151.2101 LP  0  0  0  0  0  0  0  0  0  0  0  0  # atno 17342 bound_to 10162
  140.7545  143.6123  150.8593 LP  0  0  0  0  0  0  0  0  0  0  0  0  # atno 17343 bound_to 10162
  156.1042  130.3654  150.0163 LP  0  0  0  0  0  0  0  0  0  0  0  0  # atno 17370 bound_to 10713
  156.8273  130.9380  151.3639 LP  0  0  0  0  0  0  0  0  0  0  0  0  # atno 17371 bound_to 10713
  141.1982  133.8042  157.0595 LP  0  0  0  0  0  0  0  0  0  0  0  0  # atno 17394 bound_to 11000
  140.0621  134.9749  157.1322 LP  0  0  0  0  0  0  0  0  0  0  0  0  # atno 17395 bound_to 11000

$$$$
