AV-unprocessed.smi:1175|AV-procd|sdf|4950|dock3
  -GOLD-   22720 3543D 1   1.00000     0.00000
 Structure written by MMmdl.
 36 37  0  0  0  0  0  0  0  0  1 V2000
  155.2948  138.9068  161.4632 O   0  0  0  0  0  0  0  0  0  0  0  0
  155.4023  140.1177  161.2632 C   0  0  0  0  0  0  0  0  0  0  0  0
  154.2752  141.0872  161.6481 C   0  0  0  0  0  0  0  0  0  0  0  0
  153.3874  141.4303  160.5243 N   0  0  0  0  0  0  0  0  0  0  0  0
  153.0719  142.7924  160.3514 C   0  0  0  0  0  0  0  0  0  0  0  0
  152.2659  143.2395  159.3692 C   0  0  0  0  0  0  0  0  0  0  0  0
  151.9944  144.7226  159.1695 C   0  0  0  0  0  0  0  0  0  0  0  0
  152.7509  145.2214  158.1914 F   0  0  0  0  0  0  0  0  0  0  0  0
  150.7163  144.9083  158.8415 F   0  0  0  0  0  0  0  0  0  0  0  0
  152.2412  145.4126  160.2839 F   0  0  0  0  0  0  0  0  0  0  0  0
  151.7481  142.2403  158.4553 C   0  0  0  0  0  0  0  0  0  0  0  0
  152.0520  140.9353  158.5973 C   0  0  0  0  0  0  0  0  0  0  0  0
  152.9178  140.4631  159.6805 C   0  0  0  0  0  0  0  0  0  0  0  0
  153.2042  139.2738  159.8199 O   0  0  0  0  0  0  0  0  0  0  0  0
  156.4827  140.6733  160.6947 N   0  0  0  0  0  0  0  0  0  0  0  0
  157.6660  139.9427  160.2539 C   0  0  0  0  0  0  0  0  0  0  0  0
  158.8842  140.8691  160.0808 C   0  0  2  0  0  0  0  0  0  0  0  0
  159.0658  141.4270  158.6828 C   0  0  0  0  0  0  0  0  0  0  0  0
  160.5294  141.8553  158.7065 C   0  0  0  0  0  0  0  0  0  0  0  0
  161.1876  140.9375  159.5748 O   0  0  0  0  0  0  0  0  0  0  0  0
  160.2277  140.1739  160.2999 C   0  0  0  0  0  0  0  0  0  0  0  0
  153.6978  140.6563  162.4682 H   0  0  0  0  0  0  0  0  0  0  0  0
  154.7275  141.9892  162.0628 H   0  0  0  0  0  0  0  0  0  0  0  0
  153.5394  143.4550  161.0655 H   0  0  0  0  0  0  0  0  0  0  0  0
  151.1022  142.5423  157.6440 H   0  0  0  0  0  0  0  0  0  0  0  0
  151.6472  140.2187  157.8979 H   0  0  0  0  0  0  0  0  0  0  0  0
  156.4897  141.6747  160.5637 H   0  0  0  0  0  0  0  0  0  0  0  0
  157.8964  139.1444  160.9616 H   0  0  0  0  0  0  0  0  0  0  0  0
  157.4278  139.4544  159.3085 H   0  0  0  0  0  0  0  0  0  0  0  0
  158.8123  141.7037  160.7807 H   0  0  0  0  0  0  0  0  0  0  0  0
  158.9164  140.6454  157.9365 H   0  0  0  0  0  0  0  0  0  0  0  0
  158.3878  142.2506  158.4563 H   0  0  0  0  0  0  0  0  0  0  0  0
  160.9793  141.8592  157.7134 H   0  0  0  0  0  0  0  0  0  0  0  0
  160.6249  142.8576  159.1260 H   0  0  0  0  0  0  0  0  0  0  0  0
  160.4915  140.1023  161.3554 H   0  0  0  0  0  0  0  0  0  0  0  0
  160.2140  139.1642  159.8872 H   0  0  0  0  0  0  0  0  0  0  0  0
  1  2  2  0  0  0  0
  2  3  1  0  0  0  0
  2 15  1  0  0  0  0
  3  4  1  0  0  0  0
  3 22  1  0  0  0  0
  3 23  1  0  0  0  0
  4 13  1  0  0  0  0
  4  5  1  0  0  0  0
  5  6  2  0  0  0  0
  5 24  1  0  0  0  0
  6  7  1  0  0  0  0
  6 11  1  0  0  0  0
  7  8  1  0  0  0  0
  7  9  1  0  0  0  0
  7 10  1  0  0  0  0
 11 12  2  0  0  0  0
 11 25  1  0  0  0  0
 12 13  1  0  0  0  0
 12 26  1  0  0  0  0
 13 14  2  0  0  0  0
 15 16  1  0  0  0  0
 15 27  1  0  0  0  0
 16 17  1  0  0  0  0
 16 28  1  0  0  0  0
 16 29  1  0  0  0  0
 17 21  1  0  0  0  0
 17 18  1  0  0  0  0
 17 30  1  0  0  0  0
 18 19  1  0  0  0  0
 18 31  1  0  0  0  0
 18 32  1  0  0  0  0
 19 20  1  0  0  0  0
 19 33  1  0  0  0  0
 19 34  1  0  0  0  0
 20 21  1  0  0  0  0
 21 35  1  0  0  0  0
 21 36  1  0  0  0  0
M  END
> <s_m_source_file>
AV-unprocessed.smi

> <i_m_source_file_index>
1175

> <i_lp_mmshare_version>
43012

> <i_f3d_flags>
0

> <s_epik_input>
W0NIMl0xT1tDSDJdW0NIMl1bQ0BIXTFbQ0gyXVtOSF1DKD1PKVtDSDJdbjJbY0hdYyhDKEYpKEYpRilbY0hdW2NIXWMyPU8=

> <s_epik_cmdline>
J2VwaWtfcHl0aG9uJywgJy1waCcsICc3LjAnLCAnLXRuJywgJzgnLCAnLW1hJywgJzIwMCcsICctbWV0YWxfYmluZGluZycsICctaW1hZScsICc8aW5maWxlLm1hZT4nLCAnLW9tYWUnLCAnPG91dGZpbGUubWFlPic=

> <r_lp_tautomer_probability>
1

> <r_epik_Ionization_Penalty>
3.67963e-08

> <r_epik_Ionization_Penalty_Charging>
1.809e-08

> <r_epik_Ionization_Penalty_Neutral>
1.87063e-08

> <r_epik_State_Penalty>
-0

> <r_epik_Charging_Adjusted_Penalty>
1.809e-08

> <i_epik_Tot_Q>
0

> <i_epik_Tot_abs_Q>
0

> <r_epik_Metal_State_Penalty>
-0

> <b_epik_Metal_Only>
0

> <s_lp_Force_Field>
OPLS_2005

> <r_lp_Energy>
30.0254

> <b_lp_Chiralities_Consistent>
1

> <s_lp_Variant>
AV-unprocessed.smi:1175-1

> <Gold.Version>
5.8.1

> <Gold.Id.Protein>
6NUR|6NUR_protein|mol2

> <Gold.PLP.Fitness>
45.1490

> <Gold.PLP.PLP>
-48.6462

> <Gold.PLP.part.hbond>
-1.0000

> <Gold.PLP.part.metal>
0.0000

> <Gold.PLP.part.buried>
-5.6636

> <Gold.PLP.part.nonpolar>
-42.2705

> <Gold.PLP.part.repulsive>
0.1874

> <Gold.PLP.ligand.clash>
0.0169

> <Gold.PLP.ligand.torsion>
1.7757

> <Gold.PLP.Chemscore.Hbond>
0.0000

> <Gold.PLP.Chemscore.CHOScore>
0.0000

> <Gold.PLP.Chemscore.Metal>
0.0000

> <Gold.PLP.Chemscore.Internal.Correction>
0.0711

> <Gold.Rescore>
     Score         DG    S(hbond)    S(metal)    S(lipo)     H(rot)  DE(clash)    DE(int)     intcor
      8.30     -11.92       0.00        0.00      95.90       1.87       0.10       3.52       ----

> <Gold.Chemscore.Fitness>
8.2962

> <Gold.Chemscore.DG>
-11.9177

> <Gold.Chemscore.ZeroCoef>
-5.4800

> <Gold.Chemscore.Hbond>
0.0000

> <Gold.Chemscore.Metal>
0.0000

> <Gold.Chemscore.Lipo>
95.8971

> <Gold.Chemscore.Internal_Hbond>
0.0000

> <Gold.Chemscore.DEClash>
0.1045

> <Gold.Chemscore.DEInternal>
3.5170

> <Gold.Chemscore.Rot>
1.8681

> <Gold.Chemscore.Internal.Correction>
   9.000000E+99

> <Gold.Chemscore.Hbond.Weighted>
-0.0000

> <Gold.Chemscore.Metal.Weighted>
-0.0000

> <Gold.Chemscore.Lipo.Weighted>
-11.2200

> <Gold.Chemscore.Internal_Hbond.Weighted>
0.0000

> <Gold.Chemscore.DEClash.Weighted>
0.1045

> <Gold.Chemscore.DEInternal.Weighted>
3.5170

> <Gold.Chemscore.Rot.Weighted>
4.7822

> <Gold.Chemscore.Internal.Correction.Weighted>
   9.000000E+99

> <Gold.Protein.RotatedTorsions>
[ 6907 6896 6895 6894 ] final  -47.42 input  -60.11 | X-H torsion
[ 7974 7965 7964 7962 ] final    6.83 input  175.53 | X-H torsion
[ 8008 7997 7996 7995 ] final -147.23 input   59.86 | X-H torsion
[ 10167 10162 10161 10158 ] final  -89.14 input  -65.29 | X-H torsion
[ 10718 10713 10712 10709 ] final   22.37 input   66.30 | X-H torsion
[ 10763 10752 10751 10750 ] final  -31.52 input  -60.55 | X-H torsion
[ 11005 11000 10999 10996 ] final -155.24 input  -57.11 | X-H torsion

> <Gold.Protein.ActiveResidues>
 VAL166  LYS551  ARG553  GLY616  TRP617  ASP618  TYR619  PRO620  LYS621  CYS622 
 ASP623  PHE694  ASN695  SER759  ASP760  ASP761  ALA762  ILE779  LEU786  VAL792 
 PHE793  MET794  SER795  GLU796  ALA797  LYS798  CYS799  TRP800  GLU811  SER814 

> <Gold.Protein.RotatedAtoms>
  150.9010  134.8422  159.7359 H   0  0  0  0  0  0  0  0  0  0  0  0  # atno 6907 bound_to 6896
  152.4892  134.4502  159.9582 H   0  0  0  0  0  0  0  0  0  0  0  0  # atno 6908 bound_to 6896
  151.4554  133.3567  159.2836 H   0  0  0  0  0  0  0  0  0  0  0  0  # atno 6909 bound_to 6896
  146.2432  140.0174  142.8401 H   0  0  0  0  0  0  0  0  0  0  0  0  # atno 7974 bound_to 7965
  155.5722  140.0635  157.2804 H   0  0  0  0  0  0  0  0  0  0  0  0  # atno 8008 bound_to 7997
  154.4357  140.1867  156.0937 H   0  0  0  0  0  0  0  0  0  0  0  0  # atno 8009 bound_to 7997
  156.0368  140.3300  155.7203 H   0  0  0  0  0  0  0  0  0  0  0  0  # atno 8010 bound_to 7997
  140.3678  143.2809  151.9537 H   0  0  0  0  0  0  0  0  0  0  0  0  # atno 10167 bound_to 10162
  157.1513  130.6676  149.6013 H   0  0  0  0  0  0  0  0  0  0  0  0  # atno 10718 bound_to 10713
  153.7987  135.6892  153.4859 H   0  0  0  0  0  0  0  0  0  0  0  0  # atno 10763 bound_to 10752
  153.1702  135.4545  154.9891 H   0  0  0  0  0  0  0  0  0  0  0  0  # atno 10764 bound_to 10752
  154.8015  135.3339  154.7477 H   0  0  0  0  0  0  0  0  0  0  0  0  # atno 10765 bound_to 10752
  140.6886  134.4066  157.5221 H   0  0  0  0  0  0  0  0  0  0  0  0  # atno 11005 bound_to 11000
  145.1272  140.9497  143.4566 LP  0  0  0  0  0  0  0  0  0  0  0  0  # atno 17320 bound_to 7965
  145.0423  139.3250  143.5970 LP  0  0  0  0  0  0  0  0  0  0  0  0  # atno 17321 bound_to 7965
  139.4807  144.5935  151.7731 LP  0  0  0  0  0  0  0  0  0  0  0  0  # atno 17342 bound_to 10162
  140.5064  144.1092  150.5983 LP  0  0  0  0  0  0  0  0  0  0  0  0  # atno 17343 bound_to 10162
  155.9770  130.4743  150.6565 LP  0  0  0  0  0  0  0  0  0  0  0  0  # atno 17370 bound_to 10713
  157.4218  131.0837  151.1124 LP  0  0  0  0  0  0  0  0  0  0  0  0  # atno 17371 bound_to 10713
  139.8930  134.8741  156.2244 LP  0  0  0  0  0  0  0  0  0  0  0  0  # atno 17394 bound_to 11000
  141.0259  133.7015  156.1348 LP  0  0  0  0  0  0  0  0  0  0  0  0  # atno 17395 bound_to 11000

$$$$
