AV-unprocessed.smi:3046|AV-procd|sdf|11619|dock7
  -GOLD-   2272017 03D 1   1.00000     0.00000
 Structure written by MMmdl.
 37 37  0  0  0  0  0  0  0  0  1 V2000
  147.1201  134.6164  161.9853 C   0  0  0  0  0  0  0  0  0  0  0  0
  147.3370  135.7673  161.3316 C   0  0  0  0  0  0  0  0  0  0  0  0
  147.5664  135.8759  159.8368 C   0  0  0  0  0  0  0  0  0  0  0  0
  148.6901  136.7533  159.5359 N   0  0  0  0  0  0  0  0  0  0  0  0
  149.6779  136.4769  158.6701 C   0  0  0  0  0  0  0  0  0  0  0  0
  149.7275  135.4377  158.0111 O   0  0  0  0  0  0  0  0  0  0  0  0
  150.8026  137.5189  158.5564 C   0  0  2  0  0  0  0  0  0  0  0  0
  151.6461  137.5516  159.8405 C   0  0  0  0  0  0  0  0  0  0  0  0
  150.3063  138.8731  158.2535 N   0  0  0  0  0  0  0  0  0  0  0  0
  151.3335  139.8613  157.9238 C   0  0  1  0  0  0  0  0  0  0  0  0
  152.1097  139.3749  156.6902 C   0  0  0  0  0  0  0  0  0  0  0  0
  150.6557  141.2209  157.6631 C   0  0  0  0  0  0  0  0  0  0  0  0
  151.3206  142.3086  158.3603 N   0  0  0  0  0  0  0  0  0  0  0  0
  151.1756  143.6655  158.1620 C   0  0  0  0  0  0  0  0  0  0  0  0
  152.0100  144.2961  159.0395 C   0  0  0  0  0  0  0  0  0  0  0  0
  152.6296  143.2265  159.7442 C   0  0  0  0  0  0  0  0  0  0  0  0
  152.2136  142.0384  159.3370 N   0  0  0  0  0  0  0  0  0  0  0  0
  147.0920  133.6705  161.4641 H   0  0  0  0  0  0  0  0  0  0  0  0
  146.9671  134.6069  163.0544 H   0  0  0  0  0  0  0  0  0  0  0  0
  147.3614  136.6924  161.8895 H   0  0  0  0  0  0  0  0  0  0  0  0
  147.7396  134.8803  159.4252 H   0  0  0  0  0  0  0  0  0  0  0  0
  146.6740  136.2690  159.3486 H   0  0  0  0  0  0  0  0  0  0  0  0
  148.7336  137.6279  160.0387 H   0  0  0  0  0  0  0  0  0  0  0  0
  151.4653  137.2196  157.7420 H   0  0  0  0  0  0  0  0  0  0  0  0
  152.0407  136.5635  160.0806 H   0  0  0  0  0  0  0  0  0  0  0  0
  151.0649  137.8955  160.6973 H   0  0  0  0  0  0  0  0  0  0  0  0
  152.4981  138.2233  159.7292 H   0  0  0  0  0  0  0  0  0  0  0  0
  149.5835  138.8653  157.5481 H   0  0  0  0  0  0  0  0  0  0  0  0
  152.0353  139.9921  158.7488 H   0  0  0  0  0  0  0  0  0  0  0  0
  152.8833  140.0905  156.4107 H   0  0  0  0  0  0  0  0  0  0  0  0
  151.4512  139.2470  155.8301 H   0  0  0  0  0  0  0  0  0  0  0  0
  152.6028  138.4207  156.8772 H   0  0  0  0  0  0  0  0  0  0  0  0
  150.6794  141.4499  156.5970 H   0  0  0  0  0  0  0  0  0  0  0  0
  149.6029  141.1945  157.9511 H   0  0  0  0  0  0  0  0  0  0  0  0
  150.5016  144.0637  157.4180 H   0  0  0  0  0  0  0  0  0  0  0  0
  152.1559  145.3592  159.1599 H   0  0  0  0  0  0  0  0  0  0  0  0
  153.3641  143.2776  160.5343 H   0  0  0  0  0  0  0  0  0  0  0  0
  1  2  2  0  0  0  0
  1 18  1  0  0  0  0
  1 19  1  0  0  0  0
  2  3  1  0  0  0  0
  2 20  1  0  0  0  0
  3  4  1  0  0  0  0
  3 21  1  0  0  0  0
  3 22  1  0  0  0  0
  4  5  1  0  0  0  0
  4 23  1  0  0  0  0
  5  6  2  0  0  0  0
  5  7  1  0  0  0  0
  7  8  1  0  0  0  0
  7  9  1  0  0  0  0
  7 24  1  0  0  0  0
  8 25  1  0  0  0  0
  8 26  1  0  0  0  0
  8 27  1  0  0  0  0
  9 10  1  0  0  0  0
  9 28  1  0  0  0  0
 10 11  1  0  0  0  0
 10 12  1  0  0  0  0
 10 29  1  0  0  0  0
 11 30  1  0  0  0  0
 11 31  1  0  0  0  0
 11 32  1  0  0  0  0
 12 13  1  0  0  0  0
 12 33  1  0  0  0  0
 12 34  1  0  0  0  0
 13 17  1  0  0  0  0
 13 14  1  0  0  0  0
 14 15  2  0  0  0  0
 14 35  1  0  0  0  0
 15 16  1  0  0  0  0
 15 36  1  0  0  0  0
 16 17  2  0  0  0  0
 16 37  1  0  0  0  0
M  END
> <s_m_source_file>
AV-unprocessed.smi

> <i_m_source_file_index>
3046

> <i_lp_mmshare_version>
43012

> <i_f3d_flags>
0

> <s_epik_input>
W0NIMl09W0NIXVtDSDJdW05IXUMoPU8pW0NASF0oW0NIM10pW05IXVtDQEhdKFtDSDNdKVtDSDJdbjFbY0hdW2NIXVtjSF1uMQ==

> <s_epik_cmdline>
J2VwaWtfcHl0aG9uJywgJy1waCcsICc3LjAnLCAnLXRuJywgJzgnLCAnLW1hJywgJzIwMCcsICctbWV0YWxfYmluZGluZycsICctaW1hZScsICc8aW5maWxlLm1hZT4nLCAnLW9tYWUnLCAnPG91dGZpbGUubWFlPic=

> <r_lp_tautomer_probability>
1

> <r_epik_Ionization_Penalty>
0.950627

> <r_epik_Ionization_Penalty_Charging>
0

> <r_epik_Ionization_Penalty_Neutral>
0.950627

> <r_epik_State_Penalty>
0.994814

> <r_epik_Charging_Adjusted_Penalty>
0.994814

> <i_epik_Tot_Q>
0

> <i_epik_Tot_abs_Q>
0

> <r_epik_Metal_State_Penalty>
0.994788

> <b_epik_Metal_Only>
0

> <s_lp_Force_Field>
OPLS_2005

> <r_lp_Energy>
6.36017

> <b_lp_Chiralities_Consistent>
1

> <s_lp_Variant>
AV-unprocessed.smi:3046-7

> <Gold.Version>
5.8.1

> <Gold.Id.Protein>
6NUR|6NUR_protein|mol2

> <Gold.PLP.Fitness>
39.5735

> <Gold.PLP.PLP>
-35.7868

> <Gold.PLP.part.hbond>
-1.0000

> <Gold.PLP.part.metal>
0.0000

> <Gold.PLP.part.buried>
-5.1889

> <Gold.PLP.part.nonpolar>
-32.2085

> <Gold.PLP.part.repulsive>
0.7493

> <Gold.PLP.ligand.clash>
0.0000

> <Gold.PLP.ligand.torsion>
1.1693

> <Gold.PLP.Chemscore.Hbond>
1.0000

> <Gold.PLP.Chemscore.CHOScore>
1.0000

> <Gold.PLP.Chemscore.Metal>
0.0000

> <Gold.Chemscore.Hbonds>
donor molecule, donor type, donor heavy atom, donor atom, acceptor molecule, acceptor atom, score
      P1  H  6896  6908       L1     6  0.69
      L1  C    14    35       P1  8028  1.00

> <Gold.PLP.Chemscore.Internal.Correction>
0.1253

> <Gold.Rescore>
     Score         DG    S(hbond)    S(metal)    S(lipo)     H(rot)  DE(clash)    DE(int)     intcor
     11.84     -13.56       0.97        0.00      89.02       2.17       0.06       1.66       ----

> <Gold.Chemscore.Fitness>
11.8407

> <Gold.Chemscore.DG>
-13.5591

> <Gold.Chemscore.ZeroCoef>
-5.4800

> <Gold.Chemscore.Hbond>
0.9668

> <Gold.Chemscore.Metal>
0.0000

> <Gold.Chemscore.Lipo>
89.0190

> <Gold.Chemscore.Internal_Hbond>
0.0000

> <Gold.Chemscore.DEClash>
0.0628

> <Gold.Chemscore.DEInternal>
1.6557

> <Gold.Chemscore.Rot>
2.1739

> <Gold.Chemscore.Internal.Correction>
   9.000000E+99

> <Gold.Chemscore.Hbonds>
donor molecule, donor type, donor heavy atom, donor atom, acceptor molecule, acceptor atom, score
      P1  H  6896  6908       L1     6  0.07

> <Gold.Chemscore.Hbond.Weighted>
-3.2291

> <Gold.Chemscore.Metal.Weighted>
-0.0000

> <Gold.Chemscore.Lipo.Weighted>
-10.4152

> <Gold.Chemscore.Internal_Hbond.Weighted>
0.0000

> <Gold.Chemscore.DEClash.Weighted>
0.0628

> <Gold.Chemscore.DEInternal.Weighted>
1.6557

> <Gold.Chemscore.Rot.Weighted>
5.5652

> <Gold.Chemscore.Internal.Correction.Weighted>
   9.000000E+99

> <Gold.Protein.RotatedTorsions>
[ 6907 6896 6895 6894 ] final  157.70 input  -60.11 | X-H torsion
[ 7974 7965 7964 7962 ] final  -69.20 input  175.53 | X-H torsion
[ 8008 7997 7996 7995 ] final   68.32 input   59.86 | X-H torsion
[ 10167 10162 10161 10158 ] final  144.04 input  -65.29 | X-H torsion
[ 10718 10713 10712 10709 ] final   27.09 input   66.30 | X-H torsion
[ 10763 10752 10751 10750 ] final  -47.08 input  -60.55 | X-H torsion
[ 11005 11000 10999 10996 ] final -119.42 input  -57.11 | X-H torsion

> <Gold.Protein.ActiveResidues>
 VAL166  LYS551  ARG553  GLY616  TRP617  ASP618  TYR619  PRO620  LYS621  CYS622 
 ASP623  PHE694  ASN695  SER759  ASP760  ASP761  ALA762  ILE779  LEU786  VAL792 
 PHE793  MET794  SER795  GLU796  ALA797  LYS798  CYS799  TRP800  GLU811  SER814 

> <Gold.Protein.RotatedAtoms>
  152.0112  133.3862  159.4220 H   0  0  0  0  0  0  0  0  0  0  0  0  # atno 6907 bound_to 6896
  150.6899  134.3728  159.5009 H   0  0  0  0  0  0  0  0  0  0  0  0  # atno 6908 bound_to 6896
  152.1489  134.9003  160.0600 H   0  0  0  0  0  0  0  0  0  0  0  0  # atno 6909 bound_to 6896
  145.7068  140.9094  143.0702 H   0  0  0  0  0  0  0  0  0  0  0  0  # atno 7974 bound_to 7965
  155.7065  140.3495  155.4955 H   0  0  0  0  0  0  0  0  0  0  0  0  # atno 8008 bound_to 7997
  155.9394  140.1099  157.1090 H   0  0  0  0  0  0  0  0  0  0  0  0  # atno 8009 bound_to 7997
  154.4100  140.1215  156.4894 H   0  0  0  0  0  0  0  0  0  0  0  0  # atno 8010 bound_to 7997
  139.4956  144.5999  151.6503 H   0  0  0  0  0  0  0  0  0  0  0  0  # atno 10167 bound_to 10162
  157.2156  130.6954  149.6247 H   0  0  0  0  0  0  0  0  0  0  0  0  # atno 10718 bound_to 10713
  154.0555  135.6625  153.4805 H   0  0  0  0  0  0  0  0  0  0  0  0  # atno 10763 bound_to 10752
  153.0447  135.5122  154.7709 H   0  0  0  0  0  0  0  0  0  0  0  0  # atno 10764 bound_to 10752
  154.6729  135.3032  154.9684 H   0  0  0  0  0  0  0  0  0  0  0  0  # atno 10765 bound_to 10752
  141.0217  134.0114  157.3273 H   0  0  0  0  0  0  0  0  0  0  0  0  # atno 11005 bound_to 11000
  144.6953  139.9021  143.7459 LP  0  0  0  0  0  0  0  0  0  0  0  0  # atno 17320 bound_to 7965
  146.0748  139.3736  143.0500 LP  0  0  0  0  0  0  0  0  0  0  0  0  # atno 17321 bound_to 7965
  140.5646  144.0211  150.6186 LP  0  0  0  0  0  0  0  0  0  0  0  0  # atno 17342 bound_to 10162
  140.3309  143.3078  152.0688 LP  0  0  0  0  0  0  0  0  0  0  0  0  # atno 17343 bound_to 10162
  155.9686  130.4537  150.5820 LP  0  0  0  0  0  0  0  0  0  0  0  0  # atno 17370 bound_to 10713
  157.3628  131.0752  151.1622 LP  0  0  0  0  0  0  0  0  0  0  0  0  # atno 17371 bound_to 10713
  139.9150  135.0195  156.7845 LP  0  0  0  0  0  0  0  0  0  0  0  0  # atno 17394 bound_to 11000
  140.6562  133.9687  155.7780 LP  0  0  0  0  0  0  0  0  0  0  0  0  # atno 17395 bound_to 11000

$$$$
