AV-unprocessed.smi:297|AV-procd|sdf|2259|dock1
  -GOLD-   2262022143D 1   1.00000     0.00000
 Structure written by MMmdl.
 29 30  0  0  0  0  0  0  0  0  1 V2000
  154.8798  140.1337  160.8223 N   0  0  0  0  0  0  0  0  0  0  0  0
  154.0699  140.5559  160.1115 C   0  0  0  0  0  0  0  0  0  0  0  0
  153.0518  141.0873  159.2183 C   0  0  0  0  0  0  0  0  0  0  0  0
  152.8324  140.3999  158.0754 N   0  0  0  0  0  0  0  0  0  0  0  0
  151.8922  140.8491  157.2106 C   0  0  0  0  0  0  0  0  0  0  0  0
  151.6704  140.1236  156.0317 N   0  0  0  0  0  0  0  0  0  0  0  0
  152.5129  138.9415  155.9079 C   0  0  0  0  0  0  0  0  0  0  0  0
  152.2905  138.2829  154.5371 C   0  0  0  0  0  0  0  0  0  0  0  0
  150.9085  137.9781  154.3751 O   0  0  0  0  0  0  0  0  0  0  0  0
  150.0815  139.1430  154.4204 C   0  0  1  0  0  0  0  0  0  0  0  0
  148.6237  138.7325  154.1642 C   0  0  0  0  0  0  0  0  0  0  0  0
  148.0595  139.1454  153.0256 N   0  0  0  0  0  0  0  0  0  0  0  0
  148.0020  138.0646  154.9888 O   0  0  0  0  0  0  0  0  0  0  0  0
  150.2617  139.8355  155.7904 C   0  0  0  0  0  0  0  0  0  0  0  0
  151.1309  142.0095  157.4546 C   0  0  0  0  0  0  0  0  0  0  0  0
  151.3593  142.7279  158.6428 C   0  0  0  0  0  0  0  0  0  0  0  0
  152.3356  142.2649  159.5464 C   0  0  0  0  0  0  0  0  0  0  0  0
  152.6203  143.1433  161.0104 Cl  0  0  0  0  0  0  0  0  0  0  0  0
  153.5608  139.2206  156.0244 H   0  0  0  0  0  0  0  0  0  0  0  0
  152.2761  138.2315  156.7018 H   0  0  0  0  0  0  0  0  0  0  0  0
  152.6278  138.9359  153.7306 H   0  0  0  0  0  0  0  0  0  0  0  0
  152.8683  137.3616  154.4648 H   0  0  0  0  0  0  0  0  0  0  0  0
  150.3774  139.8231  153.6198 H   0  0  0  0  0  0  0  0  0  0  0  0
  147.1009  138.9005  152.8239 H   0  0  0  0  0  0  0  0  0  0  0  0
  148.5918  139.7046  152.3750 H   0  0  0  0  0  0  0  0  0  0  0  0
  149.8761  139.1968  156.5870 H   0  0  0  0  0  0  0  0  0  0  0  0
  149.6949  140.7674  155.8212 H   0  0  0  0  0  0  0  0  0  0  0  0
  150.3861  142.3441  156.7472 H   0  0  0  0  0  0  0  0  0  0  0  0
  150.7921  143.6216  158.8574 H   0  0  0  0  0  0  0  0  0  0  0  0
  1  2  3  0  0  0  0
  2  3  1  0  0  0  0
  3 17  1  0  0  0  0
  3  4  2  0  0  0  0
  4  5  1  0  0  0  0
  5  6  1  0  0  0  0
  5 15  2  0  0  0  0
  6 14  1  0  0  0  0
  6  7  1  0  0  0  0
  7  8  1  0  0  0  0
  7 19  1  0  0  0  0
  7 20  1  0  0  0  0
  8  9  1  0  0  0  0
  8 21  1  0  0  0  0
  8 22  1  0  0  0  0
  9 10  1  0  0  0  0
 10 11  1  0  0  0  0
 10 14  1  0  0  0  0
 10 23  1  0  0  0  0
 11 12  1  0  0  0  0
 11 13  2  0  0  0  0
 12 24  1  0  0  0  0
 12 25  1  0  0  0  0
 14 26  1  0  0  0  0
 14 27  1  0  0  0  0
 15 16  1  0  0  0  0
 15 28  1  0  0  0  0
 16 17  2  0  0  0  0
 16 29  1  0  0  0  0
 17 18  1  0  0  0  0
M  END
> <s_m_source_file>
AV-unprocessed.smi

> <i_m_source_file_index>
297

> <i_lp_mmshare_version>
43012

> <i_f3d_flags>
0

> <s_epik_input>
TiNDYzFuYyhbY0hdW2NIXWMxQ2wpTjJbQ0gyXVtDSDJdT1tDQEhdKFtDSDJdMilDKD1PKVtOSDJd

> <s_epik_cmdline>
J2VwaWtfcHl0aG9uJywgJy1waCcsICc3LjAnLCAnLXRuJywgJzgnLCAnLW1hJywgJzIwMCcsICctbWV0YWxfYmluZGluZycsICctaW1hZScsICc8aW5maWxlLm1hZT4nLCAnLW9tYWUnLCAnPG91dGZpbGUubWFlPic=

> <r_lp_tautomer_probability>
1

> <r_epik_Ionization_Penalty>
8.82403e-08

> <r_epik_Ionization_Penalty_Charging>
0

> <r_epik_Ionization_Penalty_Neutral>
8.82403e-08

> <r_epik_State_Penalty>
-0

> <r_epik_Charging_Adjusted_Penalty>
0

> <i_epik_Tot_Q>
0

> <i_epik_Tot_abs_Q>
0

> <r_epik_Metal_State_Penalty>
-0

> <b_epik_Metal_Only>
0

> <s_lp_Force_Field>
OPLS_2005

> <r_lp_Energy>
18.8034

> <b_lp_Chiralities_Consistent>
1

> <s_lp_Variant>
AV-unprocessed.smi:297-1

> <Gold.Version>
5.8.1

> <Gold.Id.Protein>
6NUR|6NUR_protein|mol2

> <Gold.PLP.Fitness>
38.7248

> <Gold.PLP.PLP>
-33.4404

> <Gold.PLP.part.hbond>
-2.4975

> <Gold.PLP.part.metal>
0.0000

> <Gold.PLP.part.buried>
-4.9635

> <Gold.PLP.part.nonpolar>
-25.7618

> <Gold.PLP.part.repulsive>
0.3746

> <Gold.PLP.ligand.clash>
0.0000

> <Gold.PLP.ligand.torsion>
0.2179

> <Gold.PLP.Chemscore.Hbond>
1.8723

> <Gold.PLP.Chemscore.CHOScore>
0.0000

> <Gold.PLP.Chemscore.Metal>
0.0000

> <Gold.Chemscore.Hbonds>
donor molecule, donor type, donor heavy atom, donor atom, acceptor molecule, acceptor atom, score
      L1  H    12    25       P1  7957  1.00
      P1  H  7997  8009       L1     4  0.83

> <Gold.PLP.Chemscore.Internal.Correction>
0.1034

> <Gold.Rescore>
     Score         DG    S(hbond)    S(metal)    S(lipo)     H(rot)  DE(clash)    DE(int)     intcor
     15.35     -15.86       1.53        0.00      77.95       1.50       0.30       0.20       ----

> <Gold.Chemscore.Fitness>
15.3542

> <Gold.Chemscore.DG>
-15.8552

> <Gold.Chemscore.ZeroCoef>
-5.4800

> <Gold.Chemscore.Hbond>
1.5259

> <Gold.Chemscore.Metal>
0.0000

> <Gold.Chemscore.Lipo>
77.9520

> <Gold.Chemscore.Internal_Hbond>
0.0000

> <Gold.Chemscore.DEClash>
0.3024

> <Gold.Chemscore.DEInternal>
0.1986

> <Gold.Chemscore.Rot>
1.5006

> <Gold.Chemscore.Internal.Correction>
   9.000000E+99

> <Gold.Chemscore.Hbonds>
donor molecule, donor type, donor heavy atom, donor atom, acceptor molecule, acceptor atom, score
      L1  H    12    25       P1  7957  0.98
      P1  H  7997  8009       L1     4  0.32

> <Gold.Chemscore.Hbond.Weighted>
-5.0965

> <Gold.Chemscore.Metal.Weighted>
-0.0000

> <Gold.Chemscore.Lipo.Weighted>
-9.1204

> <Gold.Chemscore.Internal_Hbond.Weighted>
0.0000

> <Gold.Chemscore.DEClash.Weighted>
0.3024

> <Gold.Chemscore.DEInternal.Weighted>
0.1986

> <Gold.Chemscore.Rot.Weighted>
3.8416

> <Gold.Chemscore.Internal.Correction.Weighted>
   9.000000E+99

> <Gold.Protein.RotatedTorsions>
[ 6907 6896 6895 6894 ] final   89.38 input  -60.11 | X-H torsion
[ 7974 7965 7964 7962 ] final  153.65 input  175.53 | X-H torsion
[ 8008 7997 7996 7995 ] final  164.11 input   59.86 | X-H torsion
[ 10167 10162 10161 10158 ] final   17.95 input  -65.29 | X-H torsion
[ 10718 10713 10712 10709 ] final   48.53 input   66.30 | X-H torsion
[ 10763 10752 10751 10750 ] final  -39.39 input  -60.55 | X-H torsion
[ 11005 11000 10999 10996 ] final   97.08 input  -57.11 | X-H torsion

> <Gold.Protein.ActiveResidues>
 VAL166  LYS551  ARG553  GLY616  TRP617  ASP618  TYR619  PRO620  LYS621  CYS622 
 ASP623  PHE694  ASN695  SER759  ASP760  ASP761  ALA762  ILE779  LEU786  VAL792 
 PHE793  MET794  SER795  GLU796  ALA797  LYS798  CYS799  TRP800  GLU811  SER814 

> <Gold.Protein.RotatedAtoms>
  152.5435  134.1976  159.8698 H   0  0  0  0  0  0  0  0  0  0  0  0  # atno 6907 bound_to 6896
  151.1967  133.4628  159.2603 H   0  0  0  0  0  0  0  0  0  0  0  0  # atno 6908 bound_to 6896
  151.1030  134.9995  159.8513 H   0  0  0  0  0  0  0  0  0  0  0  0  # atno 6909 bound_to 6896
  144.8141  139.6828  143.6129 H   0  0  0  0  0  0  0  0  0  0  0  0  # atno 7974 bound_to 7965
  156.1905  140.1705  156.8101 H   0  0  0  0  0  0  0  0  0  0  0  0  # atno 8008 bound_to 7997
  154.5466  140.0726  156.8630 H   0  0  0  0  0  0  0  0  0  0  0  0  # atno 8009 bound_to 7997
  155.3110  140.3367  155.4246 H   0  0  0  0  0  0  0  0  0  0  0  0  # atno 8010 bound_to 7997
  140.5689  143.9199  150.6697 H   0  0  0  0  0  0  0  0  0  0  0  0  # atno 10167 bound_to 10162
  157.4696  130.8247  149.7974 H   0  0  0  0  0  0  0  0  0  0  0  0  # atno 10718 bound_to 10713
  153.9285  135.6774  153.4746 H   0  0  0  0  0  0  0  0  0  0  0  0  # atno 10763 bound_to 10752
  153.0991  135.4836  154.8832 H   0  0  0  0  0  0  0  0  0  0  0  0  # atno 10764 bound_to 10752
  154.7440  135.3168  154.8634 H   0  0  0  0  0  0  0  0  0  0  0  0  # atno 10765 bound_to 10752
  139.8778  134.8983  156.4254 H   0  0  0  0  0  0  0  0  0  0  0  0  # atno 11005 bound_to 11000
  146.2442  139.6064  142.9471 LP  0  0  0  0  0  0  0  0  0  0  0  0  # atno 17320 bound_to 7965
  145.5256  141.0430  143.2411 LP  0  0  0  0  0  0  0  0  0  0  0  0  # atno 17321 bound_to 7965
  140.2669  143.3483  152.1273 LP  0  0  0  0  0  0  0  0  0  0  0  0  # atno 17342 bound_to 10162
  139.5107  144.6888  151.5815 LP  0  0  0  0  0  0  0  0  0  0  0  0  # atno 17343 bound_to 10162
  156.0067  130.3852  150.2407 LP  0  0  0  0  0  0  0  0  0  0  0  0  # atno 17370 bound_to 10713
  157.0588  131.0084  151.3229 LP  0  0  0  0  0  0  0  0  0  0  0  0  # atno 17371 bound_to 10713
  140.9104  133.7716  155.9785 LP  0  0  0  0  0  0  0  0  0  0  0  0  # atno 17394 bound_to 11000
  140.8552  134.2906  157.5258 LP  0  0  0  0  0  0  0  0  0  0  0  0  # atno 17395 bound_to 11000

$$$$
