AV-unprocessed.smi:822|AV-procd|sdf|3842|dock2
  -GOLD-   22720 1283D 1   1.00000     0.00000
 Structure written by MMmdl.
 39 40  0  0  0  0  0  0  0  0  2 V2000
  152.4846  139.7936  156.7823 O   0  0  0  0  0  0  0  0  0  0  0  0
  151.5592  140.3346  157.3877 C   0  0  0  0  0  0  0  0  0  0  0  0
  151.7424  140.7775  158.8433 C   0  0  0  0  0  0  0  0  0  0  0  0
  151.4548  142.2774  159.0803 C   0  0  0  0  0  0  0  0  0  0  0  0
  151.7552  143.0946  157.8065 C   0  0  0  0  0  0  0  0  0  0  0  0
  151.4772  144.5930  158.0075 C   0  0  0  0  0  0  0  0  0  0  0  0
  152.2683  145.1502  159.2001 C   0  0  0  0  0  0  0  0  0  0  0  0
  151.9697  144.3529  160.4779 C   0  0  0  0  0  0  0  0  0  0  0  0
  152.2454  142.8535  160.2786 C   0  0  0  0  0  0  0  0  0  0  0  0
  150.3565  140.5648  156.8393 N   0  0  0  0  0  0  0  0  0  0  0  0
  149.9840  140.2232  155.4721 C   0  0  0  0  0  0  0  0  0  0  0  0
  149.5902  141.4732  154.6681 C   0  0  0  0  0  0  0  0  0  0  0  0
  148.1423  141.5577  154.4729 N   0  0  0  0  0  0  0  0  0  0  0  0
  147.2648  142.4020  155.1034 C   0  0  0  0  0  0  0  0  0  0  0  0
  146.0219  142.1223  154.5963 C   0  0  0  0  0  0  0  0  0  0  0  0
  146.1935  141.1197  153.6795 N   0  3  0  0  0  0  0  0  0  0  0  0
  147.4843  140.7784  153.6051 C   0  0  0  0  0  0  0  0  0  0  0  0
  151.1128  140.1729  159.4981 H   0  0  0  0  0  0  0  0  0  0  0  0
  152.7727  140.5538  159.1219 H   0  0  0  0  0  0  0  0  0  0  0  0
  150.3906  142.3911  159.2946 H   0  0  0  0  0  0  0  0  0  0  0  0
  152.7980  142.9561  157.5174 H   0  0  0  0  0  0  0  0  0  0  0  0
  151.1542  142.7240  156.9755 H   0  0  0  0  0  0  0  0  0  0  0  0
  151.7338  145.1434  157.1020 H   0  0  0  0  0  0  0  0  0  0  0  0
  150.4102  144.7479  158.1721 H   0  0  0  0  0  0  0  0  0  0  0  0
  153.3364  145.1082  158.9836 H   0  0  0  0  0  0  0  0  0  0  0  0
  152.0235  146.2019  159.3512 H   0  0  0  0  0  0  0  0  0  0  0  0
  152.5726  144.7344  161.3024 H   0  0  0  0  0  0  0  0  0  0  0  0
  150.9273  144.4980  160.7640 H   0  0  0  0  0  0  0  0  0  0  0  0
  151.9912  142.3234  161.1966 H   0  0  0  0  0  0  0  0  0  0  0  0
  153.3137  142.6997  160.1216 H   0  0  0  0  0  0  0  0  0  0  0  0
  149.6537  141.0158  157.4076 H   0  0  0  0  0  0  0  0  0  0  0  0
  150.8347  139.7296  155.0011 H   0  0  0  0  0  0  0  0  0  0  0  0
  149.1690  139.4971  155.4785 H   0  0  0  0  0  0  0  0  0  0  0  0
  149.9168  142.3843  155.1717 H   0  0  0  0  0  0  0  0  0  0  0  0
  150.0616  141.4635  153.6844 H   0  0  0  0  0  0  0  0  0  0  0  0
  147.5813  143.1203  155.8458 H   0  0  0  0  0  0  0  0  0  0  0  0
  145.0537  142.5499  154.8134 H   0  0  0  0  0  0  0  0  0  0  0  0
  147.9110  140.0233  152.9690 H   0  0  0  0  0  0  0  0  0  0  0  0
  145.4526  140.6959  153.1351 H   0  0  0  0  0  0  0  0  0  0  0  0
  1  2  2  0  0  0  0
  2  3  1  0  0  0  0
  2 10  1  0  0  0  0
  3  4  1  0  0  0  0
  3 18  1  0  0  0  0
  3 19  1  0  0  0  0
  4  9  1  0  0  0  0
  4  5  1  0  0  0  0
  4 20  1  0  0  0  0
  5  6  1  0  0  0  0
  5 21  1  0  0  0  0
  5 22  1  0  0  0  0
  6  7  1  0  0  0  0
  6 23  1  0  0  0  0
  6 24  1  0  0  0  0
  7  8  1  0  0  0  0
  7 25  1  0  0  0  0
  7 26  1  0  0  0  0
  8  9  1  0  0  0  0
  8 27  1  0  0  0  0
  8 28  1  0  0  0  0
  9 29  1  0  0  0  0
  9 30  1  0  0  0  0
 10 11  1  0  0  0  0
 10 31  1  0  0  0  0
 11 12  1  0  0  0  0
 11 32  1  0  0  0  0
 11 33  1  0  0  0  0
 12 13  1  0  0  0  0
 12 34  1  0  0  0  0
 12 35  1  0  0  0  0
 13 17  1  0  0  0  0
 13 14  1  0  0  0  0
 14 15  2  0  0  0  0
 14 36  1  0  0  0  0
 15 16  1  0  0  0  0
 15 37  1  0  0  0  0
 16 17  2  0  0  0  0
 16 39  1  0  0  0  0
 17 38  1  0  0  0  0
M  CHG  1  16   1
M  END
> <s_m_source_file>
AV-unprocessed.smi

> <i_m_source_file_index>
822

> <i_lp_mmshare_version>
43012

> <i_f3d_flags>
0

> <s_epik_input>
W0NIMl0xW0NIMl1bQ0gyXVtDSDJdW0NIMl1bQ0hdMVtDSDJdQyg9TylbTkhdW0NIMl1bQ0gyXW4yW2NIXVtjSF1uW2NIXTI=

> <s_epik_cmdline>
J2VwaWtfcHl0aG9uJywgJy1waCcsICc3LjAnLCAnLXRuJywgJzgnLCAnLW1hJywgJzIwMCcsICctbWV0YWxfYmluZGluZycsICctaW1hZScsICc8aW5maWxlLm1hZT4nLCAnLW9tYWUnLCAnPG91dGZpbGUubWFlPic=

> <r_lp_tautomer_probability>
1

> <r_epik_Ionization_Penalty>
0.267085

> <r_epik_Ionization_Penalty_Charging>
0

> <r_epik_Ionization_Penalty_Neutral>
0.267085

> <r_epik_State_Penalty>
0.259064

> <r_epik_Charging_Adjusted_Penalty>
0.259064

> <i_epik_Tot_Q>
1

> <i_epik_Tot_abs_Q>
1

> <r_epik_Metal_State_Penalty>
0.544959

> <b_epik_Metal_Only>
0

> <s_lp_Force_Field>
OPLS_2005

> <r_lp_Energy>
11.7187

> <b_lp_Chiralities_Consistent>
1

> <s_lp_Variant>
AV-unprocessed.smi:822-1

> <Gold.Version>
5.8.1

> <Gold.Id.Protein>
6NUR|6NUR_protein|mol2

> <Gold.PLP.Fitness>
52.2026

> <Gold.PLP.PLP>
-39.1455

> <Gold.PLP.part.hbond>
-2.0000

> <Gold.PLP.part.metal>
0.0000

> <Gold.PLP.part.buried>
-2.1401

> <Gold.PLP.part.nonpolar>
-34.8494

> <Gold.PLP.part.repulsive>
0.0375

> <Gold.PLP.ligand.clash>
0.0000

> <Gold.PLP.ligand.torsion>
0.8722

> <Gold.PLP.Chemscore.Hbond>
3.0000

> <Gold.PLP.Chemscore.CHOScore>
1.9250

> <Gold.PLP.Chemscore.Metal>
0.0000

> <Gold.Chemscore.Hbonds>
donor molecule, donor type, donor heavy atom, donor atom, acceptor molecule, acceptor atom, score
      L1  H    16    39       P1 10175  2.00
      P1  H  7997  8008       L1     1  1.00
      L1  C    14    36       P1  8028  0.87
      L1  C    17    38       P1  7957  1.00

> <Gold.PLP.Chemscore.Internal.Correction>
0.0264

> <Gold.Rescore>
     Score         DG    S(hbond)    S(metal)    S(lipo)     H(rot)  DE(clash)    DE(int)     intcor
     17.41     -18.40       1.97        0.00      99.15       2.05       0.10       0.89       ----

> <Gold.Chemscore.Fitness>
17.4081

> <Gold.Chemscore.DG>
-18.3971

> <Gold.Chemscore.ZeroCoef>
-5.4800

> <Gold.Chemscore.Hbond>
1.9689

> <Gold.Chemscore.Metal>
0.0000

> <Gold.Chemscore.Lipo>
99.1520

> <Gold.Chemscore.Internal_Hbond>
0.0000

> <Gold.Chemscore.DEClash>
0.0990

> <Gold.Chemscore.DEInternal>
0.8900

> <Gold.Chemscore.Rot>
2.0546

> <Gold.Chemscore.Internal.Correction>
   9.000000E+99

> <Gold.Chemscore.Hbonds>
donor molecule, donor type, donor heavy atom, donor atom, acceptor molecule, acceptor atom, score
      L1  H    16    39       P1 10175  0.77
      P1  H  7997  8008       L1     1  0.99

> <Gold.Chemscore.Hbond.Weighted>
-6.5761

> <Gold.Chemscore.Metal.Weighted>
-0.0000

> <Gold.Chemscore.Lipo.Weighted>
-11.6008

> <Gold.Chemscore.Internal_Hbond.Weighted>
0.0000

> <Gold.Chemscore.DEClash.Weighted>
0.0990

> <Gold.Chemscore.DEInternal.Weighted>
0.8900

> <Gold.Chemscore.Rot.Weighted>
5.2598

> <Gold.Chemscore.Internal.Correction.Weighted>
   9.000000E+99

> <Gold.Protein.RotatedTorsions>
[ 6907 6896 6895 6894 ] final -139.58 input  -60.11 | X-H torsion
[ 7974 7965 7964 7962 ] final   33.57 input  175.53 | X-H torsion
[ 8008 7997 7996 7995 ] final  -45.72 input   59.86 | X-H torsion
[ 10167 10162 10161 10158 ] final  -97.86 input  -65.29 | X-H torsion
[ 10718 10713 10712 10709 ] final -147.53 input   66.30 | X-H torsion
[ 10763 10752 10751 10750 ] final   78.90 input  -60.55 | X-H torsion
[ 11005 11000 10999 10996 ] final  152.49 input  -57.11 | X-H torsion

> <Gold.Protein.ActiveResidues>
 VAL166  LYS551  ARG553  GLY616  TRP617  ASP618  TYR619  PRO620  LYS621  CYS622 
 ASP623  PHE694  ASN695  SER759  ASP760  ASP761  ALA762  ILE779  LEU786  VAL792 
 PHE793  MET794  SER795  GLU796  ALA797  LYS798  CYS799  TRP800  GLU811  SER814 

> <Gold.Protein.RotatedAtoms>
  151.0496  133.5635  159.2643 H   0  0  0  0  0  0  0  0  0  0  0  0  # atno 6907 bound_to 6896
  151.2651  135.0666  159.9123 H   0  0  0  0  0  0  0  0  0  0  0  0  # atno 6908 bound_to 6896
  152.5379  134.0236  159.8046 H   0  0  0  0  0  0  0  0  0  0  0  0  # atno 6909 bound_to 6896
  146.1411  139.6379  142.9162 H   0  0  0  0  0  0  0  0  0  0  0  0  # atno 7974 bound_to 7965
  154.4002  140.1389  156.3894 H   0  0  0  0  0  0  0  0  0  0  0  0  # atno 8008 bound_to 7997
  155.7928  140.3478  155.5338 H   0  0  0  0  0  0  0  0  0  0  0  0  # atno 8009 bound_to 7997
  155.8562  140.0949  157.1633 H   0  0  0  0  0  0  0  0  0  0  0  0  # atno 8010 bound_to 7997
  140.2790  143.3294  152.0460 H   0  0  0  0  0  0  0  0  0  0  0  0  # atno 10167 bound_to 10162
  156.4086  130.7970  151.2186 H   0  0  0  0  0  0  0  0  0  0  0  0  # atno 10718 bound_to 10713
  153.0910  135.4860  154.8690 H   0  0  0  0  0  0  0  0  0  0  0  0  # atno 10763 bound_to 10752
  154.7269  135.3051  154.8958 H   0  0  0  0  0  0  0  0  0  0  0  0  # atno 10764 bound_to 10752
  153.9605  135.6813  153.4798 H   0  0  0  0  0  0  0  0  0  0  0  0  # atno 10765 bound_to 10752
  140.1312  134.8800  157.2206 H   0  0  0  0  0  0  0  0  0  0  0  0  # atno 11005 bound_to 11000
  145.5044  141.0437  143.2523 LP  0  0  0  0  0  0  0  0  0  0  0  0  # atno 17320 bound_to 7965
  144.7794  139.6559  143.7161 LP  0  0  0  0  0  0  0  0  0  0  0  0  # atno 17321 bound_to 7965
  139.4968  144.6605  151.6476 LP  0  0  0  0  0  0  0  0  0  0  0  0  # atno 17342 bound_to 10162
  140.5827  143.9917  150.6278 LP  0  0  0  0  0  0  0  0  0  0  0  0  # atno 17343 bound_to 10162
  157.7506  131.0264  150.3962 LP  0  0  0  0  0  0  0  0  0  0  0  0  # atno 17370 bound_to 10713
  156.4256  130.3961  149.6795 LP  0  0  0  0  0  0  0  0  0  0  0  0  # atno 17371 bound_to 10713
  140.2839  134.3318  155.7335 LP  0  0  0  0  0  0  0  0  0  0  0  0  # atno 17394 bound_to 11000
  141.2170  133.7495  156.9405 LP  0  0  0  0  0  0  0  0  0  0  0  0  # atno 17395 bound_to 11000

$$$$
