AV-unprocessed.smi:3274|AV-procd|sdf|12527|dock1
  -GOLD-   2272018443D 1   1.00000     0.00000
 Structure written by MMmdl.
 43 44  0  0  0  0  0  0  0  0  2 V2000
  151.4327  145.1946  158.7097 C   0  0  0  0  0  0  0  0  0  0  0  0
  151.8616  143.9959  159.5395 C   0  0  0  0  0  0  0  0  0  0  0  0
  152.2097  144.1641  160.8296 C   0  0  0  0  0  0  0  0  0  0  0  0
  152.7172  143.0582  161.7265 C   0  0  0  0  0  0  0  0  0  0  0  0
  153.2562  141.8857  160.9031 C   0  0  0  0  0  0  0  0  0  0  0  0
  152.2555  141.4540  159.8188 C   0  0  2  0  0  0  0  0  0  0  0  0
  152.8010  140.2154  159.0806 C   0  0  0  0  0  0  0  0  0  0  0  0
  151.8978  142.6194  158.8451 C   0  0  1  0  0  0  0  0  0  0  0  0
  150.5829  142.2961  158.0889 C   0  0  0  0  0  0  0  0  0  0  0  0
  150.6549  142.6212  156.6466 N   0  3  0  0  0  0  0  0  0  0  0  0
  150.4502  141.4818  155.7217 C   0  0  1  0  0  0  0  0  0  0  0  0
  151.5835  140.4668  155.9234 C   0  0  0  0  0  0  0  0  0  0  0  0
  149.0775  140.8057  155.9405 C   0  0  0  0  0  0  0  0  0  0  0  0
  147.9949  141.4366  155.2079 N   0  0  0  0  0  0  0  0  0  0  0  0
  147.7665  141.5176  153.8959 C   0  0  0  0  0  0  0  0  0  0  0  0
  146.6617  142.1804  153.5856 N   0  0  0  0  0  0  0  0  0  0  0  0
  146.2372  142.5187  154.8394 C   0  0  0  0  0  0  0  0  0  0  0  0
  147.0031  142.1003  155.8472 N   0  0  0  0  0  0  0  0  0  0  0  0
  151.9988  145.2372  157.7790 H   0  0  0  0  0  0  0  0  0  0  0  0
  151.6058  146.1294  159.2443 H   0  0  0  0  0  0  0  0  0  0  0  0
  150.3691  145.1466  158.4772 H   0  0  0  0  0  0  0  0  0  0  0  0
  152.1469  145.1432  161.2823 H   0  0  0  0  0  0  0  0  0  0  0  0
  153.5060  143.4511  162.3685 H   0  0  0  0  0  0  0  0  0  0  0  0
  151.9046  142.7347  162.3775 H   0  0  0  0  0  0  0  0  0  0  0  0
  154.1996  142.1726  160.4359 H   0  0  0  0  0  0  0  0  0  0  0  0
  153.4829  141.0518  161.5688 H   0  0  0  0  0  0  0  0  0  0  0  0
  151.3424  141.1542  160.3361 H   0  0  0  0  0  0  0  0  0  0  0  0
  153.7069  140.4548  158.5225 H   0  0  0  0  0  0  0  0  0  0  0  0
  152.0821  139.7960  158.3787 H   0  0  0  0  0  0  0  0  0  0  0  0
  153.0517  139.4217  159.7852 H   0  0  0  0  0  0  0  0  0  0  0  0
  152.7051  142.6852  158.1138 H   0  0  0  0  0  0  0  0  0  0  0  0
  150.3395  141.2420  158.1823 H   0  0  0  0  0  0  0  0  0  0  0  0
  149.7539  142.8379  158.5461 H   0  0  0  0  0  0  0  0  0  0  0  0
  149.9212  143.2914  156.4655 H   0  0  0  0  0  0  0  0  0  0  0  0
  150.5227  141.8384  154.6929 H   0  0  0  0  0  0  0  0  0  0  0  0
  151.4897  139.6297  155.2308 H   0  0  0  0  0  0  0  0  0  0  0  0
  151.5804  140.0619  156.9363 H   0  0  0  0  0  0  0  0  0  0  0  0
  152.5576  140.9255  155.7507 H   0  0  0  0  0  0  0  0  0  0  0  0
  149.1215  139.7624  155.6250 H   0  0  0  0  0  0  0  0  0  0  0  0
  148.8221  140.7965  157.0011 H   0  0  0  0  0  0  0  0  0  0  0  0
  148.4149  141.0763  153.1532 H   0  0  0  0  0  0  0  0  0  0  0  0
  145.3366  143.0888  155.0145 H   0  0  0  0  0  0  0  0  0  0  0  0
  151.5415  143.0591  156.4410 H   0  0  0  0  0  0  0  0  0  0  0  0
  1  2  1  0  0  0  0
  1 19  1  0  0  0  0
  1 20  1  0  0  0  0
  1 21  1  0  0  0  0
  2  8  1  0  0  0  0
  2  3  2  0  0  0  0
  3  4  1  0  0  0  0
  3 22  1  0  0  0  0
  4  5  1  0  0  0  0
  4 23  1  0  0  0  0
  4 24  1  0  0  0  0
  5  6  1  0  0  0  0
  5 25  1  0  0  0  0
  5 26  1  0  0  0  0
  6  7  1  0  0  0  0
  6  8  1  0  0  0  0
  6 27  1  0  0  0  0
  7 28  1  0  0  0  0
  7 29  1  0  0  0  0
  7 30  1  0  0  0  0
  8  9  1  0  0  0  0
  8 31  1  0  0  0  0
  9 10  1  0  0  0  0
  9 32  1  0  0  0  0
  9 33  1  0  0  0  0
 10 11  1  0  0  0  0
 10 34  1  0  0  0  0
 10 43  1  0  0  0  0
 11 12  1  0  0  0  0
 11 13  1  0  0  0  0
 11 35  1  0  0  0  0
 12 36  1  0  0  0  0
 12 37  1  0  0  0  0
 12 38  1  0  0  0  0
 13 14  1  0  0  0  0
 13 39  1  0  0  0  0
 13 40  1  0  0  0  0
 14 18  1  0  0  0  0
 14 15  1  0  0  0  0
 15 16  2  0  0  0  0
 15 41  1  0  0  0  0
 16 17  1  0  0  0  0
 17 18  2  0  0  0  0
 17 42  1  0  0  0  0
M  CHG  1  10   1
M  END
> <s_m_source_file>
AV-unprocessed.smi

> <i_m_source_file_index>
3274

> <i_lp_mmshare_version>
43012

> <i_f3d_flags>
0

> <s_epik_input>
W0NIM11DMT1bQ0hdW0NIMl1bQ0gyXVtDQEBIXShbQ0gzXSlbQ0BIXTFbQ0gyXVtOSF1bQ0BIXShbQ0gzXSlbQ0gyXW4yW2NIXW5bY0hdbjI=

> <s_epik_cmdline>
J2VwaWtfcHl0aG9uJywgJy1waCcsICc3LjAnLCAnLXRuJywgJzgnLCAnLW1hJywgJzIwMCcsICctbWV0YWxfYmluZGluZycsICctaW1hZScsICc8aW5maWxlLm1hZT4nLCAnLW9tYWUnLCAnPG91dGZpbGUubWFlPic=

> <r_lp_tautomer_probability>
1

> <r_epik_Ionization_Penalty>
0.0017527

> <r_epik_Ionization_Penalty_Charging>
0.00175191

> <r_epik_Ionization_Penalty_Neutral>
7.94565e-07

> <r_epik_State_Penalty>
0.00118605

> <r_epik_Charging_Adjusted_Penalty>
0.00293796

> <i_epik_Tot_Q>
1

> <i_epik_Tot_abs_Q>
1

> <r_epik_Metal_State_Penalty>
-0

> <b_epik_Metal_Only>
0

> <s_lp_Force_Field>
OPLS_2005

> <r_lp_Energy>
18.4066

> <b_lp_Chiralities_Consistent>
1

> <s_lp_Variant>
AV-unprocessed.smi:3274-6

> <Gold.Version>
5.8.1

> <Gold.Id.Protein>
6NUR|6NUR_protein|mol2

> <Gold.PLP.Fitness>
50.3018

> <Gold.PLP.PLP>
-43.6362

> <Gold.PLP.part.hbond>
-1.0000

> <Gold.PLP.part.metal>
0.0000

> <Gold.PLP.part.buried>
-5.2619

> <Gold.PLP.part.nonpolar>
-36.9377

> <Gold.PLP.part.repulsive>
0.3985

> <Gold.PLP.ligand.clash>
0.0000

> <Gold.PLP.ligand.torsion>
1.2935

> <Gold.PLP.Chemscore.Hbond>
2.0000

> <Gold.PLP.Chemscore.CHOScore>
1.0000

> <Gold.PLP.Chemscore.Metal>
0.0000

> <Gold.Chemscore.Hbonds>
donor molecule, donor type, donor heavy atom, donor atom, acceptor molecule, acceptor atom, score
      L1  H    10    34       P1  8028  2.00
      L1  C    15    41       P1  7957  0.99

> <Gold.PLP.Chemscore.Internal.Correction>
0.2526

> <Gold.Rescore>
     Score         DG    S(hbond)    S(metal)    S(lipo)     H(rot)  DE(clash)    DE(int)     intcor
     14.66     -15.94       1.00        0.00     112.55       2.36       0.04       1.25       ----

> <Gold.Chemscore.Fitness>
14.6560

> <Gold.Chemscore.DG>
-15.9369

> <Gold.Chemscore.ZeroCoef>
-5.4800

> <Gold.Chemscore.Hbond>
0.9981

> <Gold.Chemscore.Metal>
0.0000

> <Gold.Chemscore.Lipo>
112.5532

> <Gold.Chemscore.Internal_Hbond>
0.0000

> <Gold.Chemscore.DEClash>
0.0356

> <Gold.Chemscore.DEInternal>
1.2454

> <Gold.Chemscore.Rot>
2.3615

> <Gold.Chemscore.Internal.Correction>
   9.000000E+99

> <Gold.Chemscore.Hbonds>
donor molecule, donor type, donor heavy atom, donor atom, acceptor molecule, acceptor atom, score
      L1  H    10    34       P1  8028  0.99

> <Gold.Chemscore.Hbond.Weighted>
-3.3336

> <Gold.Chemscore.Metal.Weighted>
-0.0000

> <Gold.Chemscore.Lipo.Weighted>
-13.1687

> <Gold.Chemscore.Internal_Hbond.Weighted>
0.0000

> <Gold.Chemscore.DEClash.Weighted>
0.0356

> <Gold.Chemscore.DEInternal.Weighted>
1.2454

> <Gold.Chemscore.Rot.Weighted>
6.0454

> <Gold.Chemscore.Internal.Correction.Weighted>
   9.000000E+99

> <Gold.Protein.RotatedTorsions>
[ 6907 6896 6895 6894 ] final   93.81 input  -60.11 | X-H torsion
[ 7974 7965 7964 7962 ] final  -76.62 input  175.53 | X-H torsion
[ 8008 7997 7996 7995 ] final  120.89 input   59.86 | X-H torsion
[ 10167 10162 10161 10158 ] final -127.18 input  -65.29 | X-H torsion
[ 10718 10713 10712 10709 ] final  -69.13 input   66.30 | X-H torsion
[ 10763 10752 10751 10750 ] final   -6.58 input  -60.55 | X-H torsion
[ 11005 11000 10999 10996 ] final   19.59 input  -57.11 | X-H torsion

> <Gold.Protein.ActiveResidues>
 VAL166  LYS551  ARG553  GLY616  TRP617  ASP618  TYR619  PRO620  LYS621  CYS622 
 ASP623  PHE694  ASN695  SER759  ASP760  ASP761  ALA762  ILE779  LEU786  VAL792 
 PHE793  MET794  SER795  GLU796  ALA797  LYS798  CYS799  TRP800  GLU811  SER814 

> <Gold.Protein.RotatedAtoms>
  152.5451  134.1290  159.8430 H   0  0  0  0  0  0  0  0  0  0  0  0  # atno 6907 bound_to 6896
  151.1338  133.5011  159.2606 H   0  0  0  0  0  0  0  0  0  0  0  0  # atno 6908 bound_to 6896
  151.1647  135.0300  159.8780 H   0  0  0  0  0  0  0  0  0  0  0  0  # atno 6909 bound_to 6896
  145.6104  140.9388  143.1192 H   0  0  0  0  0  0  0  0  0  0  0  0  # atno 7974 bound_to 7965
  156.2663  140.2820  156.1222 H   0  0  0  0  0  0  0  0  0  0  0  0  # atno 8008 bound_to 7997
  155.1144  140.0391  157.2750 H   0  0  0  0  0  0  0  0  0  0  0  0  # atno 8009 bound_to 7997
  154.6718  140.2589  155.7005 H   0  0  0  0  0  0  0  0  0  0  0  0  # atno 8010 bound_to 7997
  139.9636  143.5922  152.2437 H   0  0  0  0  0  0  0  0  0  0  0  0  # atno 10167 bound_to 10162
  156.0470  130.4307  150.2103 H   0  0  0  0  0  0  0  0  0  0  0  0  # atno 10718 bound_to 10713
  153.4144  135.7008  153.6337 H   0  0  0  0  0  0  0  0  0  0  0  0  # atno 10763 bound_to 10752
  153.4818  135.3692  155.2446 H   0  0  0  0  0  0  0  0  0  0  0  0  # atno 10764 bound_to 10752
  154.8719  135.4068  154.3501 H   0  0  0  0  0  0  0  0  0  0  0  0  # atno 10765 bound_to 10752
  140.4120  134.1608  155.7668 H   0  0  0  0  0  0  0  0  0  0  0  0  # atno 11005 bound_to 11000
  144.7272  139.7838  143.7360 LP  0  0  0  0  0  0  0  0  0  0  0  0  # atno 17320 bound_to 7965
  146.1508  139.4591  143.0049 LP  0  0  0  0  0  0  0  0  0  0  0  0  # atno 17321 bound_to 7965
  139.6535  144.7661  151.2102 LP  0  0  0  0  0  0  0  0  0  0  0  0  # atno 17342 bound_to 10162
  140.7545  143.6123  150.8593 LP  0  0  0  0  0  0  0  0  0  0  0  0  # atno 17343 bound_to 10162
  157.0191  130.9974  151.3344 LP  0  0  0  0  0  0  0  0  0  0  0  0  # atno 17370 bound_to 10713
  157.5357  130.8087  149.7968 LP  0  0  0  0  0  0  0  0  0  0  0  0  # atno 17371 bound_to 10713
  141.1817  133.8399  157.1233 LP  0  0  0  0  0  0  0  0  0  0  0  0  # atno 17394 bound_to 11000
  140.0261  134.9923  157.0688 LP  0  0  0  0  0  0  0  0  0  0  0  0  # atno 17395 bound_to 11000

$$$$
