AV-unprocessed.smi:759|AV-procd|sdf|3619|dock7
  -GOLD-   22720 1 13D 1   1.00000     0.00000
 Structure written by MMmdl.
 24 25  0  0  0  0  0  0  0  0  2 V2000
  151.3691  138.8220  158.8566 C   0  0  0  0  0  0  0  0  0  0  0  0
  152.5658  138.6726  158.2917 N   0  0  0  0  0  0  0  0  0  0  0  0
  153.0632  139.8931  157.9979 N   0  0  0  0  0  0  0  0  0  0  0  0
  152.0926  140.7026  158.4257 C   0  0  0  0  0  0  0  0  0  0  0  0
  152.2136  142.1901  158.2980 C   0  0  2  0  0  0  0  0  0  0  0  0
  152.3206  142.8850  159.6687 C   0  0  0  0  0  0  0  0  0  0  0  0
  152.4286  144.4074  159.4909 C   0  0  0  0  0  0  0  0  0  0  0  0
  151.2714  144.9448  158.6321 C   0  0  0  0  0  0  0  0  0  0  0  0
  151.2280  144.2583  157.3224 N   0  3  0  0  0  0  0  0  0  0  0  0
  151.0796  142.7910  157.4428 C   0  0  0  0  0  0  0  0  0  0  0  0
  150.9984  140.0899  158.9755 N   0  0  0  0  0  0  0  0  0  0  0  0
  153.0560  137.8109  158.0969 H   0  0  0  0  0  0  0  0  0  0  0  0
  150.7601  137.9924  159.1847 H   0  0  0  0  0  0  0  0  0  0  0  0
  153.1475  142.3920  157.7694 H   0  0  0  0  0  0  0  0  0  0  0  0
  151.4428  142.6534  160.2738 H   0  0  0  0  0  0  0  0  0  0  0  0
  153.1857  142.5105  160.2172 H   0  0  0  0  0  0  0  0  0  0  0  0
  152.4294  144.8971  160.4652 H   0  0  0  0  0  0  0  0  0  0  0  0
  153.3807  144.6550  159.0197 H   0  0  0  0  0  0  0  0  0  0  0  0
  150.3192  144.8019  159.1450 H   0  0  0  0  0  0  0  0  0  0  0  0
  151.3876  146.0163  158.4682 H   0  0  0  0  0  0  0  0  0  0  0  0
  150.4533  144.6226  156.7863 H   0  0  0  0  0  0  0  0  0  0  0  0
  151.0823  142.3532  156.4442 H   0  0  0  0  0  0  0  0  0  0  0  0
  150.1069  142.5704  157.8851 H   0  0  0  0  0  0  0  0  0  0  0  0
  152.0868  144.4552  156.8282 H   0  0  0  0  0  0  0  0  0  0  0  0
  1 11  2  0  0  0  0
  1 13  1  0  0  0  0
  1  2  1  0  0  0  0
  2 12  1  0  0  0  0
  2  3  1  0  0  0  0
  3  4  2  0  0  0  0
  4 11  1  0  0  0  0
  4  5  1  0  0  0  0
  5 10  1  0  0  0  0
  5  6  1  0  0  0  0
  5 14  1  0  0  0  0
  6  7  1  0  0  0  0
  6 15  1  0  0  0  0
  6 16  1  0  0  0  0
  7  8  1  0  0  0  0
  7 17  1  0  0  0  0
  7 18  1  0  0  0  0
  8  9  1  0  0  0  0
  8 19  1  0  0  0  0
  8 20  1  0  0  0  0
  9 10  1  0  0  0  0
  9 21  1  0  0  0  0
  9 24  1  0  0  0  0
 10 22  1  0  0  0  0
 10 23  1  0  0  0  0
M  CHG  1   9   1
M  END
> <s_m_source_file>
AV-unprocessed.smi

> <i_m_source_file_index>
759

> <i_lp_mmshare_version>
43012

> <i_f3d_flags>
0

> <s_epik_input>
W25IXTFbY0hdbm5jMVtDQEBIXTJbQ0gyXVtDSDJdW0NIMl1bTkhdW0NIMl0y

> <s_epik_cmdline>
J2VwaWtfcHl0aG9uJywgJy1waCcsICc3LjAnLCAnLXRuJywgJzgnLCAnLW1hJywgJzIwMCcsICctbWV0YWxfYmluZGluZycsICctaW1hZScsICc8aW5maWxlLm1hZT4nLCAnLW9tYWUnLCAnPG91dGZpbGUubWFlPic=

> <r_lp_tautomer_probability>
0.948284

> <r_epik_Ionization_Penalty>
0.0050177

> <r_epik_Ionization_Penalty_Charging>
0.000345518

> <r_epik_Ionization_Penalty_Neutral>
0.00467218

> <r_epik_State_Penalty>
0.271452

> <r_epik_Charging_Adjusted_Penalty>
0.271797

> <i_epik_Tot_Q>
1

> <i_epik_Tot_abs_Q>
1

> <r_epik_Metal_State_Penalty>
0.537172

> <b_epik_Metal_Only>
0

> <s_lp_Force_Field>
OPLS_2005

> <r_lp_Energy>
9.69095

> <b_lp_Chiralities_Consistent>
1

> <s_lp_Variant>
AV-unprocessed.smi:759-1

> <Gold.Version>
5.8.1

> <Gold.Id.Protein>
6NUR|6NUR_protein|mol2

> <Gold.PLP.Fitness>
31.6962

> <Gold.PLP.PLP>
-22.7462

> <Gold.PLP.part.hbond>
-2.0000

> <Gold.PLP.part.metal>
0.0000

> <Gold.PLP.part.buried>
-3.6174

> <Gold.PLP.part.nonpolar>
-16.3808

> <Gold.PLP.part.repulsive>
0.1035

> <Gold.PLP.ligand.clash>
0.0000

> <Gold.PLP.ligand.torsion>
0.0464

> <Gold.PLP.Chemscore.Hbond>
3.0000

> <Gold.PLP.Chemscore.CHOScore>
0.0000

> <Gold.PLP.Chemscore.Metal>
0.0000

> <Gold.Chemscore.Hbonds>
donor molecule, donor type, donor heavy atom, donor atom, acceptor molecule, acceptor atom, score
      L1  H     9    21       P1  8028  2.00
      P1  H  7997  8008       L1     3  1.00

> <Gold.PLP.Chemscore.Internal.Correction>
0.0427

> <Gold.Rescore>
     Score         DG    S(hbond)    S(metal)    S(lipo)     H(rot)  DE(clash)    DE(int)     intcor
     16.05     -16.11       1.99        0.00      55.82       1.00       0.04       0.02       ----

> <Gold.Chemscore.Fitness>
16.0536

> <Gold.Chemscore.DG>
-16.1111

> <Gold.Chemscore.ZeroCoef>
-5.4800

> <Gold.Chemscore.Hbond>
1.9942

> <Gold.Chemscore.Metal>
0.0000

> <Gold.Chemscore.Lipo>
55.8166

> <Gold.Chemscore.Internal_Hbond>
0.0000

> <Gold.Chemscore.DEClash>
0.0354

> <Gold.Chemscore.DEInternal>
0.0221

> <Gold.Chemscore.Rot>
1.0000

> <Gold.Chemscore.Internal.Correction>
   9.000000E+99

> <Gold.Chemscore.Hbonds>
donor molecule, donor type, donor heavy atom, donor atom, acceptor molecule, acceptor atom, score
      L1  H     9    21       P1  8028  0.85
      P1  H  7997  8008       L1     3  0.97

> <Gold.Chemscore.Hbond.Weighted>
-6.6606

> <Gold.Chemscore.Metal.Weighted>
-0.0000

> <Gold.Chemscore.Lipo.Weighted>
-6.5305

> <Gold.Chemscore.Internal_Hbond.Weighted>
0.0000

> <Gold.Chemscore.DEClash.Weighted>
0.0354

> <Gold.Chemscore.DEInternal.Weighted>
0.0221

> <Gold.Chemscore.Rot.Weighted>
2.5600

> <Gold.Chemscore.Internal.Correction.Weighted>
   9.000000E+99

> <Gold.Protein.RotatedTorsions>
[ 6907 6896 6895 6894 ] final  149.46 input  -60.11 | X-H torsion
[ 7974 7965 7964 7962 ] final  114.10 input  175.53 | X-H torsion
[ 8008 7997 7996 7995 ] final  -71.71 input   59.86 | X-H torsion
[ 10167 10162 10161 10158 ] final  -47.36 input  -65.29 | X-H torsion
[ 10718 10713 10712 10709 ] final  149.11 input   66.30 | X-H torsion
[ 10763 10752 10751 10750 ] final   41.80 input  -60.55 | X-H torsion
[ 11005 11000 10999 10996 ] final -170.91 input  -57.11 | X-H torsion

> <Gold.Protein.ActiveResidues>
 VAL166  LYS551  ARG553  GLY616  TRP617  ASP618  TYR619  PRO620  LYS621  CYS622 
 ASP623  PHE694  ASN695  SER759  ASP760  ASP761  ALA762  ILE779  LEU786  VAL792 
 PHE793  MET794  SER795  GLU796  ALA797  LYS798  CYS799  TRP800  GLU811  SER814 

> <Gold.Protein.RotatedAtoms>
  152.1277  133.4389  159.4705 H   0  0  0  0  0  0  0  0  0  0  0  0  # atno 6907 bound_to 6896
  150.6876  134.2459  159.4500 H   0  0  0  0  0  0  0  0  0  0  0  0  # atno 6908 bound_to 6896
  152.0340  134.9750  160.0623 H   0  0  0  0  0  0  0  0  0  0  0  0  # atno 6909 bound_to 6896
  145.2087  139.2917  143.4280 H   0  0  0  0  0  0  0  0  0  0  0  0  # atno 7974 bound_to 7965
  154.5109  140.0810  156.7987 H   0  0  0  0  0  0  0  0  0  0  0  0  # atno 8008 bound_to 7997
  155.3788  140.3427  155.4228 H   0  0  0  0  0  0  0  0  0  0  0  0  # atno 8009 bound_to 7997
  156.1571  140.1577  156.8661 H   0  0  0  0  0  0  0  0  0  0  0  0  # atno 8010 bound_to 7997
  140.6778  143.2788  151.3915 H   0  0  0  0  0  0  0  0  0  0  0  0  # atno 10167 bound_to 10162
  157.3002  131.0869  151.1396 H   0  0  0  0  0  0  0  0  0  0  0  0  # atno 10718 bound_to 10713
  152.9899  135.6151  154.2845 H   0  0  0  0  0  0  0  0  0  0  0  0  # atno 10763 bound_to 10752
  154.2573  135.2783  155.2794 H   0  0  0  0  0  0  0  0  0  0  0  0  # atno 10764 bound_to 10752
  154.5236  135.5808  153.6758 H   0  0  0  0  0  0  0  0  0  0  0  0  # atno 10765 bound_to 10752
  140.5142  134.5773  157.5028 H   0  0  0  0  0  0  0  0  0  0  0  0  # atno 11005 bound_to 11000
  146.3402  140.2355  142.8594 LP  0  0  0  0  0  0  0  0  0  0  0  0  # atno 17320 bound_to 7965
  144.9877  140.8518  143.5358 LP  0  0  0  0  0  0  0  0  0  0  0  0  # atno 17321 bound_to 7965
  139.6081  144.1154  152.2271 LP  0  0  0  0  0  0  0  0  0  0  0  0  # atno 17342 bound_to 10162
  140.0560  144.5895  150.7299 LP  0  0  0  0  0  0  0  0  0  0  0  0  # atno 17343 bound_to 10162
  157.2758  130.6726  149.6041 LP  0  0  0  0  0  0  0  0  0  0  0  0  # atno 17370 bound_to 10713
  155.9671  130.4465  150.5543 LP  0  0  0  0  0  0  0  0  0  0  0  0  # atno 17371 bound_to 10713
  139.9642  134.7401  156.0173 LP  0  0  0  0  0  0  0  0  0  0  0  0  # atno 17394 bound_to 11000
  141.1369  133.6573  156.3620 LP  0  0  0  0  0  0  0  0  0  0  0  0  # atno 17395 bound_to 11000

$$$$
