AV-unprocessed.smi:1817|AV-procd|sdf|7371|dock8
  -GOLD-   22720 9 33D 1   1.00000     0.00000
 Structure written by MMmdl.
 43 44  0  0  0  0  0  0  0  0  2 V2000
  143.6151  132.5198  150.3622 C   0  0  0  0  0  0  0  0  0  0  0  0
  143.8441  133.4022  151.5977 C   0  0  0  0  0  0  0  0  0  0  0  0
  144.8007  134.4794  151.3325 N   0  0  0  0  0  0  0  0  0  0  0  0
  145.3343  135.1465  152.5213 C   0  0  0  0  0  0  0  0  0  0  0  0
  146.2727  134.2351  153.3399 C   0  0  0  0  0  0  0  0  0  0  0  0
  147.4092  133.7338  152.5156 N   0  3  0  0  0  0  0  0  0  0  0  0
  148.3913  132.8654  153.2492 C   0  0  1  0  0  0  0  0  0  0  0  0
  148.8710  133.5596  154.5466 C   0  0  0  0  0  0  0  0  0  0  0  0
  147.8349  131.4471  153.5626 C   0  0  0  0  0  0  0  0  0  0  0  0
  148.1522  130.4605  152.5319 N   0  0  0  0  0  0  0  0  0  0  0  0
  148.1364  129.1290  152.6940 C   0  0  0  0  0  0  0  0  0  0  0  0
  147.8784  128.5794  153.7644 O   0  0  0  0  0  0  0  0  0  0  0  0
  148.4405  128.4977  151.5487 N   0  0  0  0  0  0  0  0  0  0  0  0
  148.5393  127.1023  151.3210 C   0  0  0  0  0  0  0  0  0  0  0  0
  148.1037  126.2778  152.2804 N   0  0  0  0  0  0  0  0  0  0  0  0
  148.2568  124.9424  151.9284 N   0  0  0  0  0  0  0  0  0  0  0  0
  148.8013  124.8122  150.7148 C   0  0  0  0  0  0  0  0  0  0  0  0
  149.1817  126.3082  149.8803 S   0  0  0  0  0  0  0  0  0  0  0  0
  146.8712  133.0907  151.2836 C   0  0  0  0  0  0  0  0  0  0  0  0
  145.9291  134.0392  150.5137 C   0  0  0  0  0  0  0  0  0  0  0  0
  143.0096  131.6513  150.6223 H   0  0  0  0  0  0  0  0  0  0  0  0
  144.5582  132.1530  149.9564 H   0  0  0  0  0  0  0  0  0  0  0  0
  143.0884  133.0521  149.5706 H   0  0  0  0  0  0  0  0  0  0  0  0
  142.8935  133.7868  151.9653 H   0  0  0  0  0  0  0  0  0  0  0  0
  144.2491  132.7715  152.3902 H   0  0  0  0  0  0  0  0  0  0  0  0
  145.8839  136.0324  152.1996 H   0  0  0  0  0  0  0  0  0  0  0  0
  144.5227  135.5144  153.1482 H   0  0  0  0  0  0  0  0  0  0  0  0
  146.6417  134.8430  154.1646 H   0  0  0  0  0  0  0  0  0  0  0  0
  145.7276  133.3988  153.7793 H   0  0  0  0  0  0  0  0  0  0  0  0
  149.2570  132.7313  152.5982 H   0  0  0  0  0  0  0  0  0  0  0  0
  149.6047  132.9582  155.0818 H   0  0  0  0  0  0  0  0  0  0  0  0
  148.0379  133.7421  155.2261 H   0  0  0  0  0  0  0  0  0  0  0  0
  149.3669  134.5104  154.3630 H   0  0  0  0  0  0  0  0  0  0  0  0
  148.1770  131.1128  154.5438 H   0  0  0  0  0  0  0  0  0  0  0  0
  146.7465  131.4596  153.6019 H   0  0  0  0  0  0  0  0  0  0  0  0
  148.3780  130.8202  151.6158 H   0  0  0  0  0  0  0  0  0  0  0  0
  148.6232  129.0801  150.7447 H   0  0  0  0  0  0  0  0  0  0  0  0
  148.9799  123.8276  150.3087 H   0  0  0  0  0  0  0  0  0  0  0  0
  147.6758  132.8241  150.6023 H   0  0  0  0  0  0  0  0  0  0  0  0
  146.3645  132.1592  151.5386 H   0  0  0  0  0  0  0  0  0  0  0  0
  145.5575  133.5524  149.6113 H   0  0  0  0  0  0  0  0  0  0  0  0
  146.4849  134.9166  150.1802 H   0  0  0  0  0  0  0  0  0  0  0  0
  147.9179  134.5543  152.2185 H   0  0  0  0  0  0  0  0  0  0  0  0
  1  2  1  0  0  0  0
  1 21  1  0  0  0  0
  1 22  1  0  0  0  0
  1 23  1  0  0  0  0
  2  3  1  0  0  0  0
  2 24  1  0  0  0  0
  2 25  1  0  0  0  0
  3 20  1  0  0  0  0
  3  4  1  0  0  0  0
  4  5  1  0  0  0  0
  4 26  1  0  0  0  0
  4 27  1  0  0  0  0
  5  6  1  0  0  0  0
  5 28  1  0  0  0  0
  5 29  1  0  0  0  0
  6  7  1  0  0  0  0
  6 19  1  0  0  0  0
  6 43  1  0  0  0  0
  7  8  1  0  0  0  0
  7  9  1  0  0  0  0
  7 30  1  0  0  0  0
  8 31  1  0  0  0  0
  8 32  1  0  0  0  0
  8 33  1  0  0  0  0
  9 10  1  0  0  0  0
  9 34  1  0  0  0  0
  9 35  1  0  0  0  0
 10 11  1  0  0  0  0
 10 36  1  0  0  0  0
 11 12  2  0  0  0  0
 11 13  1  0  0  0  0
 13 14  1  0  0  0  0
 13 37  1  0  0  0  0
 14 18  1  0  0  0  0
 14 15  2  0  0  0  0
 15 16  1  0  0  0  0
 16 17  2  0  0  0  0
 17 18  1  0  0  0  0
 17 38  1  0  0  0  0
 19 20  1  0  0  0  0
 19 39  1  0  0  0  0
 19 40  1  0  0  0  0
 20 41  1  0  0  0  0
 20 42  1  0  0  0  0
M  CHG  1   6   1
M  END
> <s_m_source_file>
AV-unprocessed.smi

> <i_m_source_file_index>
1817

> <i_lp_mmshare_version>
43012

> <i_f3d_flags>
0

> <s_epik_input>
W0NIM11bQ0gyXU4xW0NIMl1bQ0gyXU4oW0NIMl1bQ0gyXTEpW0NASF0oW0NIM10pW0NIMl1bTkhdQyg9TylbTkhdYzJubltjSF1zMg==

> <s_epik_cmdline>
J2VwaWtfcHl0aG9uJywgJy1waCcsICc3LjAnLCAnLXRuJywgJzgnLCAnLW1hJywgJzIwMCcsICctbWV0YWxfYmluZGluZycsICctaW1hZScsICc8aW5maWxlLm1hZT4nLCAnLW9tYWUnLCAnPG91dGZpbGUubWFlPic=

> <r_epik_Ionization_Penalty>
0.153808

> <r_epik_Ionization_Penalty_Charging>
0.148467

> <r_epik_Ionization_Penalty_Neutral>
0.00534086

> <r_epik_State_Penalty>
0.974087

> <r_epik_Charging_Adjusted_Penalty>
1.12255

> <i_epik_Tot_Q>
1

> <i_epik_Tot_abs_Q>
1

> <r_epik_Metal_State_Penalty>
1.30894

> <b_epik_Metal_Only>
0

> <s_lp_Force_Field>
OPLS_2005

> <r_lp_Energy>
21.4774

> <b_lp_Chiralities_Consistent>
1

> <s_lp_Variant>
AV-unprocessed.smi:1817-4

> <Gold.Version>
5.8.1

> <Gold.Id.Protein>
6NUR|6NUR_protein|mol2

> <Gold.PLP.Fitness>
44.2173

> <Gold.PLP.PLP>
-35.5267

> <Gold.PLP.part.hbond>
-4.2942

> <Gold.PLP.part.metal>
0.0000

> <Gold.PLP.part.buried>
-3.6257

> <Gold.PLP.part.nonpolar>
-28.1474

> <Gold.PLP.part.repulsive>
0.3727

> <Gold.PLP.ligand.clash>
0.0000

> <Gold.PLP.ligand.torsion>
0.8458

> <Gold.PLP.Chemscore.Hbond>
3.4400

> <Gold.PLP.Chemscore.CHOScore>
0.0000

> <Gold.PLP.Chemscore.Metal>
0.0000

> <Gold.Chemscore.Hbonds>
donor molecule, donor type, donor heavy atom, donor atom, acceptor molecule, acceptor atom, score
      L1  H     6    43       P1  7948  2.00
      L1  H    10    36       P1 10747  0.81
      L1  H    13    37       P1 10747  0.21

> <Gold.PLP.Chemscore.Internal.Correction>
0.0622

> <Gold.Rescore>
     Score         DG    S(hbond)    S(metal)    S(lipo)     H(rot)  DE(clash)    DE(int)     intcor
     11.75     -14.15       1.84        0.00      63.65       1.92       0.27       2.13       ----

> <Gold.Chemscore.Fitness>
11.7453

> <Gold.Chemscore.DG>
-14.1480

> <Gold.Chemscore.ZeroCoef>
-5.4800

> <Gold.Chemscore.Hbond>
1.8368

> <Gold.Chemscore.Metal>
0.0000

> <Gold.Chemscore.Lipo>
63.6513

> <Gold.Chemscore.Internal_Hbond>
0.0000

> <Gold.Chemscore.DEClash>
0.2698

> <Gold.Chemscore.DEInternal>
2.1330

> <Gold.Chemscore.Rot>
1.9196

> <Gold.Chemscore.Internal.Correction>
   9.000000E+99

> <Gold.Chemscore.Hbonds>
donor molecule, donor type, donor heavy atom, donor atom, acceptor molecule, acceptor atom, score
      L1  H     6    43       P1  7948  0.39
      L1  H    10    36       P1 10747  0.79

> <Gold.Chemscore.Hbond.Weighted>
-6.1349

> <Gold.Chemscore.Metal.Weighted>
-0.0000

> <Gold.Chemscore.Lipo.Weighted>
-7.4472

> <Gold.Chemscore.Internal_Hbond.Weighted>
0.0000

> <Gold.Chemscore.DEClash.Weighted>
0.2698

> <Gold.Chemscore.DEInternal.Weighted>
2.1330

> <Gold.Chemscore.Rot.Weighted>
4.9141

> <Gold.Chemscore.Internal.Correction.Weighted>
   9.000000E+99

> <Gold.Protein.RotatedTorsions>
[ 6907 6896 6895 6894 ] final  -54.50 input  -60.11 | X-H torsion
[ 7974 7965 7964 7962 ] final   29.25 input  175.53 | X-H torsion
[ 8008 7997 7996 7995 ] final  -43.37 input   59.86 | X-H torsion
[ 10167 10162 10161 10158 ] final  -21.54 input  -65.29 | X-H torsion
[ 10718 10713 10712 10709 ] final  142.58 input   66.30 | X-H torsion
[ 10763 10752 10751 10750 ] final   -3.99 input  -60.55 | X-H torsion
[ 11005 11000 10999 10996 ] final  -78.38 input  -57.11 | X-H torsion

> <Gold.Protein.ActiveResidues>
 VAL166  LYS551  ARG553  GLY616  TRP617  ASP618  TYR619  PRO620  LYS621  CYS622 
 ASP623  PHE694  ASN695  SER759  ASP760  ASP761  ALA762  ILE779  LEU786  VAL792 
 PHE793  MET794  SER795  GLU796  ALA797  LYS798  CYS799  TRP800  GLU811  SER814 

> <Gold.Protein.RotatedAtoms>
  150.8333  134.7595  159.6871 H   0  0  0  0  0  0  0  0  0  0  0  0  # atno 6907 bound_to 6896
  152.4434  134.5541  159.9885 H   0  0  0  0  0  0  0  0  0  0  0  0  # atno 6908 bound_to 6896
  151.5697  133.3354  159.3023 H   0  0  0  0  0  0  0  0  0  0  0  0  # atno 6909 bound_to 6896
  146.1682  139.6947  142.8986 H   0  0  0  0  0  0  0  0  0  0  0  0  # atno 7974 bound_to 7965
  154.3997  140.1449  156.3508 H   0  0  0  0  0  0  0  0  0  0  0  0  # atno 8008 bound_to 7997
  155.8270  140.3467  155.5528 H   0  0  0  0  0  0  0  0  0  0  0  0  # atno 8009 bound_to 7997
  155.8228  140.0900  157.1829 H   0  0  0  0  0  0  0  0  0  0  0  0  # atno 8010 bound_to 7997
  140.7282  143.4619  151.0368 H   0  0  0  0  0  0  0  0  0  0  0  0  # atno 10167 bound_to 10162
  157.3789  131.0989  151.0758 H   0  0  0  0  0  0  0  0  0  0  0  0  # atno 10718 bound_to 10713
  153.3788  135.6997  153.6581 H   0  0  0  0  0  0  0  0  0  0  0  0  # atno 10763 bound_to 10752
  153.5201  135.3613  155.2628 H   0  0  0  0  0  0  0  0  0  0  0  0  # atno 10764 bound_to 10752
  154.8690  135.4156  154.3081 H   0  0  0  0  0  0  0  0  0  0  0  0  # atno 10765 bound_to 10752
  141.1664  133.7061  156.7962 H   0  0  0  0  0  0  0  0  0  0  0  0  # atno 11005 bound_to 11000
  145.4410  141.0422  143.2857 LP  0  0  0  0  0  0  0  0  0  0  0  0  # atno 17320 bound_to 7965
  144.8124  139.5938  143.7023 LP  0  0  0  0  0  0  0  0  0  0  0  0  # atno 17321 bound_to 7965
  139.8304  143.7699  152.3179 LP  0  0  0  0  0  0  0  0  0  0  0  0  # atno 17342 bound_to 10162
  139.7813  144.7443  151.0085 LP  0  0  0  0  0  0  0  0  0  0  0  0  # atno 17343 bound_to 10162
  157.1834  130.6320  149.5679 LP  0  0  0  0  0  0  0  0  0  0  0  0  # atno 17370 bound_to 10713
  155.9771  130.4746  150.6573 LP  0  0  0  0  0  0  0  0  0  0  0  0  # atno 17371 bound_to 10713
  140.2289  134.8701  157.3456 LP  0  0  0  0  0  0  0  0  0  0  0  0  # atno 17394 bound_to 11000
  140.1911  134.4370  155.7715 LP  0  0  0  0  0  0  0  0  0  0  0  0  # atno 17395 bound_to 11000

$$$$
