AV-unprocessed.smi:3228|AV-procd|sdf|12321|dock2
  -GOLD-   2272018173D 1   1.00000     0.00000
 Structure written by MMmdl.
 31 32  0  0  0  0  0  0  0  0  1 V2000
  144.4009  136.6249  152.2852 O   0  0  0  0  0  0  0  0  0  0  0  0
  145.6085  136.4223  152.1552 C   0  0  0  0  0  0  0  0  0  0  0  0
  146.5500  137.2822  152.5700 N   0  0  0  0  0  0  0  0  0  0  0  0
  146.2849  138.5625  153.2186 C   0  0  0  0  0  0  0  0  0  0  0  0
  147.5382  139.4625  153.2692 C   0  0  2  0  0  0  0  0  0  0  0  0
  148.6841  138.8985  154.1170 C   0  0  0  0  0  0  0  0  0  0  0  0
  149.5561  140.1055  154.4960 C   0  0  0  0  0  0  0  0  0  0  0  0
  148.7612  141.3617  154.1054 C   0  0  0  0  0  0  0  0  0  0  0  0
  147.3344  140.8855  153.8137 C   0  0  2  0  0  0  0  0  0  0  0  0
  146.5965  140.8776  155.0220 O   0  0  0  0  0  0  0  0  0  0  0  0
  146.1576  135.3313  151.5926 N   0  0  0  0  0  0  0  0  0  0  0  0
  145.4965  134.2121  151.0217 C   0  0  0  0  0  0  0  0  0  0  0  0
  144.1700  134.1123  150.8758 N   0  0  0  0  0  0  0  0  0  0  0  0
  143.7970  132.9048  150.2801 C   0  0  0  0  0  0  0  0  0  0  0  0
  144.8600  132.0910  149.9771 C   0  0  0  0  0  0  0  0  0  0  0  0
  146.3809  132.8129  150.4306 S   0  0  0  0  0  0  0  0  0  0  0  0
  147.5181  137.0379  152.4215 H   0  0  0  0  0  0  0  0  0  0  0  0
  145.4801  139.0583  152.6753 H   0  0  0  0  0  0  0  0  0  0  0  0
  145.9062  138.3924  154.2278 H   0  0  0  0  0  0  0  0  0  0  0  0
  147.9212  139.5628  152.2519 H   0  0  0  0  0  0  0  0  0  0  0  0
  148.2875  138.4396  155.0238 H   0  0  0  0  0  0  0  0  0  0  0  0
  149.2481  138.1324  153.5840 H   0  0  0  0  0  0  0  0  0  0  0  0
  149.7691  140.0960  155.5654 H   0  0  0  0  0  0  0  0  0  0  0  0
  150.5130  140.0816  153.9738 H   0  0  0  0  0  0  0  0  0  0  0  0
  148.8041  142.1413  154.8673 H   0  0  0  0  0  0  0  0  0  0  0  0
  149.1891  141.7809  153.1939 H   0  0  0  0  0  0  0  0  0  0  0  0
  146.8298  141.5323  153.0954 H   0  0  0  0  0  0  0  0  0  0  0  0
  145.9524  140.1880  154.9757 H   0  0  0  0  0  0  0  0  0  0  0  0
  147.1660  135.3001  151.5625 H   0  0  0  0  0  0  0  0  0  0  0  0
  142.7494  132.7058  150.1084 H   0  0  0  0  0  0  0  0  0  0  0  0
  144.8406  131.1147  149.5163 H   0  0  0  0  0  0  0  0  0  0  0  0
  1  2  2  0  0  0  0
  2  3  1  0  0  0  0
  2 11  1  0  0  0  0
  3  4  1  0  0  0  0
  3 17  1  0  0  0  0
  4  5  1  0  0  0  0
  4 18  1  0  0  0  0
  4 19  1  0  0  0  0
  5  9  1  0  0  0  0
  5  6  1  0  0  0  0
  5 20  1  0  0  0  0
  6  7  1  0  0  0  0
  6 21  1  0  0  0  0
  6 22  1  0  0  0  0
  7  8  1  0  0  0  0
  7 23  1  0  0  0  0
  7 24  1  0  0  0  0
  8  9  1  0  0  0  0
  8 25  1  0  0  0  0
  8 26  1  0  0  0  0
  9 10  1  0  0  0  0
  9 27  1  0  0  0  0
 10 28  1  0  0  0  0
 11 12  1  0  0  0  0
 11 29  1  0  0  0  0
 12 16  1  0  0  0  0
 12 13  2  0  0  0  0
 13 14  1  0  0  0  0
 14 15  2  0  0  0  0
 14 30  1  0  0  0  0
 15 16  1  0  0  0  0
 15 31  1  0  0  0  0
M  END
> <s_m_source_file>
AV-unprocessed.smi

> <i_m_source_file_index>
3228

> <i_lp_mmshare_version>
43012

> <i_f3d_flags>
0

> <s_epik_input>
czFbY0hdW2NIXW5jMVtOSF1DKD1PKVtOSF1bQ0gyXVtDQEBIXTJbQ0gyXVtDSDJdW0NIMl1bQ0BIXTJbT0hd

> <s_epik_cmdline>
J2VwaWtfcHl0aG9uJywgJy1waCcsICc3LjAnLCAnLXRuJywgJzgnLCAnLW1hJywgJzIwMCcsICctbWV0YWxfYmluZGluZycsICctaW1hZScsICc8aW5maWxlLm1hZT4nLCAnLW9tYWUnLCAnPG91dGZpbGUubWFlPic=

> <r_lp_tautomer_probability>
0.999

> <r_epik_Ionization_Penalty>
0.000399498

> <r_epik_Ionization_Penalty_Charging>
0

> <r_epik_Ionization_Penalty_Neutral>
0.000399498

> <r_epik_State_Penalty>
0.000177984

> <r_epik_Charging_Adjusted_Penalty>
0.000177984

> <i_epik_Tot_Q>
0

> <i_epik_Tot_abs_Q>
0

> <r_epik_Metal_State_Penalty>
0.0060793

> <b_epik_Metal_Only>
0

> <s_lp_Force_Field>
OPLS_2005

> <r_lp_Energy>
23.3722

> <b_lp_Chiralities_Consistent>
1

> <s_lp_Variant>
AV-unprocessed.smi:3228-3

> <Gold.Version>
5.8.1

> <Gold.Id.Protein>
6NUR|6NUR_protein|mol2

> <Gold.PLP.Fitness>
36.9179

> <Gold.PLP.PLP>
-28.3010

> <Gold.PLP.part.hbond>
-2.0000

> <Gold.PLP.part.metal>
0.0000

> <Gold.PLP.part.buried>
-2.0417

> <Gold.PLP.part.nonpolar>
-25.5077

> <Gold.PLP.part.repulsive>
0.4579

> <Gold.PLP.ligand.clash>
0.0000

> <Gold.PLP.ligand.torsion>
0.0986

> <Gold.PLP.Chemscore.Hbond>
2.0000

> <Gold.PLP.Chemscore.CHOScore>
0.9377

> <Gold.PLP.Chemscore.Metal>
0.0000

> <Gold.Chemscore.Hbonds>
donor molecule, donor type, donor heavy atom, donor atom, acceptor molecule, acceptor atom, score
      L1  H     3    17       P1  7948  1.00
      L1  H    11    29       P1  7948  1.00
      L1  C    14    30       P1 10186  0.92

> <Gold.PLP.Chemscore.Internal.Correction>
0.0011

> <Gold.Rescore>
     Score         DG    S(hbond)    S(metal)    S(lipo)     H(rot)  DE(clash)    DE(int)     intcor
     13.78     -15.13       1.93        0.00      68.41       1.88       0.03       1.33       ----

> <Gold.Chemscore.Fitness>
13.7760

> <Gold.Chemscore.DG>
-15.1298

> <Gold.Chemscore.ZeroCoef>
-5.4800

> <Gold.Chemscore.Hbond>
1.9327

> <Gold.Chemscore.Metal>
0.0000

> <Gold.Chemscore.Lipo>
68.4069

> <Gold.Chemscore.Internal_Hbond>
0.0000

> <Gold.Chemscore.DEClash>
0.0287

> <Gold.Chemscore.DEInternal>
1.3251

> <Gold.Chemscore.Rot>
1.8786

> <Gold.Chemscore.Internal.Correction>
   9.000000E+99

> <Gold.Chemscore.Hbonds>
donor molecule, donor type, donor heavy atom, donor atom, acceptor molecule, acceptor atom, score
      L1  H     3    17       P1  7948  1.00
      L1  H    11    29       P1  7948  0.87

> <Gold.Chemscore.Hbond.Weighted>
-6.4553

> <Gold.Chemscore.Metal.Weighted>
-0.0000

> <Gold.Chemscore.Lipo.Weighted>
-8.0036

> <Gold.Chemscore.Internal_Hbond.Weighted>
0.0000

> <Gold.Chemscore.DEClash.Weighted>
0.0287

> <Gold.Chemscore.DEInternal.Weighted>
1.3251

> <Gold.Chemscore.Rot.Weighted>
4.8091

> <Gold.Chemscore.Internal.Correction.Weighted>
   9.000000E+99

> <Gold.Protein.RotatedTorsions>
[ 6907 6896 6895 6894 ] final  -58.95 input  -60.11 | X-H torsion
[ 7974 7965 7964 7962 ] final  140.83 input  175.53 | X-H torsion
[ 8008 7997 7996 7995 ] final -123.67 input   59.86 | X-H torsion
[ 10167 10162 10161 10158 ] final   23.79 input  -65.29 | X-H torsion
[ 10718 10713 10712 10709 ] final -105.38 input   66.30 | X-H torsion
[ 10763 10752 10751 10750 ] final    8.93 input  -60.55 | X-H torsion
[ 11005 11000 10999 10996 ] final -170.42 input  -57.11 | X-H torsion

> <Gold.Protein.ActiveResidues>
 VAL166  LYS551  ARG553  GLY616  TRP617  ASP618  TYR619  PRO620  LYS621  CYS622 
 ASP623  PHE694  ASN695  SER759  ASP760  ASP761  ALA762  ILE779  LEU786  VAL792 
 PHE793  MET794  SER795  GLU796  ALA797  LYS798  CYS799  TRP800  GLU811  SER814 

> <Gold.Protein.RotatedAtoms>
  150.7967  134.7032  159.6561 H   0  0  0  0  0  0  0  0  0  0  0  0  # atno 6907 bound_to 6896
  152.4080  134.6170  160.0050 H   0  0  0  0  0  0  0  0  0  0  0  0  # atno 6908 bound_to 6896
  151.6421  133.3288  159.3169 H   0  0  0  0  0  0  0  0  0  0  0  0  # atno 6909 bound_to 6896
  144.9151  139.5241  143.5690 H   0  0  0  0  0  0  0  0  0  0  0  0  # atno 7974 bound_to 7965
  155.1844  140.0411  157.2888 H   0  0  0  0  0  0  0  0  0  0  0  0  # atno 8008 bound_to 7997
  154.6182  140.2494  155.7555 H   0  0  0  0  0  0  0  0  0  0  0  0  # atno 8009 bound_to 7997
  156.2418  140.2900  156.0477 H   0  0  0  0  0  0  0  0  0  0  0  0  # atno 8010 bound_to 7997
  140.5240  143.9954  150.6431 H   0  0  0  0  0  0  0  0  0  0  0  0  # atno 10167 bound_to 10162
  156.0344  130.5561  150.7531 H   0  0  0  0  0  0  0  0  0  0  0  0  # atno 10718 bound_to 10713
  153.2196  135.6879  153.8016 H   0  0  0  0  0  0  0  0  0  0  0  0  # atno 10763 bound_to 10752
  153.7220  135.3266  155.3269 H   0  0  0  0  0  0  0  0  0  0  0  0  # atno 10764 bound_to 10752
  154.8263  135.4615  154.1037 H   0  0  0  0  0  0  0  0  0  0  0  0  # atno 10765 bound_to 10752
  140.5197  134.5721  157.5044 H   0  0  0  0  0  0  0  0  0  0  0  0  # atno 11005 bound_to 11000
  146.3178  139.7988  142.8970 LP  0  0  0  0  0  0  0  0  0  0  0  0  # atno 17320 bound_to 7965
  145.3389  141.0283  143.3404 LP  0  0  0  0  0  0  0  0  0  0  0  0  # atno 17321 bound_to 7965
  140.3311  143.3077  152.0686 LP  0  0  0  0  0  0  0  0  0  0  0  0  # atno 17342 bound_to 10162
  139.4932  144.6509  151.6678 LP  0  0  0  0  0  0  0  0  0  0  0  0  # atno 17343 bound_to 10162
  157.5070  131.0923  151.0245 LP  0  0  0  0  0  0  0  0  0  0  0  0  # atno 17370 bound_to 10713
  157.0610  130.5825  149.5386 LP  0  0  0  0  0  0  0  0  0  0  0  0  # atno 17371 bound_to 10713
  139.9613  134.7448  156.0232 LP  0  0  0  0  0  0  0  0  0  0  0  0  # atno 17394 bound_to 11000
  141.1341  133.6579  156.3544 LP  0  0  0  0  0  0  0  0  0  0  0  0  # atno 17395 bound_to 11000

$$$$
