AV-unprocessed.smi:1389|AV-procd|sdf|5654|dock5
  -GOLD-   22720 5273D 1   1.00000     0.00000
 Structure written by MMmdl.
 52 54  0  0  0  0  0  0  0  0  4 V2000
  150.3268  134.2224  156.3958 C   0  0  0  0  0  0  0  0  0  0  0  0
  150.0780  135.2552  155.2719 C   0  0  2  0  0  0  0  0  0  0  0  0
  150.0730  136.7338  155.7852 C   0  0  0  0  0  0  0  0  0  0  0  0
  150.9506  136.8847  156.9473 N   0  5  0  0  0  0  0  0  0  0  0  0
  151.4905  138.0620  157.3617 C   0  0  0  0  0  0  0  0  0  0  0  0
  152.5925  138.2428  157.8929 O   0  0  0  0  0  0  0  0  0  0  0  0
  150.6759  139.1034  157.1220 N   0  0  0  0  0  0  0  0  0  0  0  0
  150.9316  140.4876  157.3261 C   0  0  0  0  0  0  0  0  0  0  0  0
  151.9612  140.9161  158.2015 C   0  0  0  0  0  0  0  0  0  0  0  0
  152.1492  142.2895  158.4449 C   0  0  0  0  0  0  0  0  0  0  0  0
  151.2914  143.2134  157.8235 C   0  0  0  0  0  0  0  0  0  0  0  0
  150.3109  142.7727  157.0081 N   0  3  0  0  0  0  0  0  0  0  0  0
  150.0894  141.4649  156.7221 C   0  0  0  0  0  0  0  0  0  0  0  0
  149.0295  141.1516  155.8407 N   0  0  0  0  0  0  0  0  0  0  0  0
  147.6440  141.3462  156.2505 C   0  0  0  0  0  0  0  0  0  0  0  0
  146.8325  141.2452  154.9617 C   0  0  0  0  0  0  0  0  0  0  0  0
  147.7710  141.8695  153.9333 C   0  0  0  0  0  0  0  0  0  0  0  0
  149.1660  141.4649  154.4212 C   0  0  0  0  0  0  0  0  0  0  0  0
  148.8880  134.8420  154.4522 N   0  3  0  0  0  0  0  0  0  0  0  0
  148.8660  133.4559  153.9062 C   0  0  0  0  0  0  0  0  0  0  0  0
  147.7209  133.3126  152.8905 C   0  0  0  0  0  0  0  0  0  0  0  0
  146.4853  133.6525  153.5091 O   0  0  0  0  0  0  0  0  0  0  0  0
  146.4646  135.0019  153.9603 C   0  0  0  0  0  0  0  0  0  0  0  0
  147.5625  135.2133  155.0154 C   0  0  0  0  0  0  0  0  0  0  0  0
  151.2920  134.3713  156.8836 H   0  0  0  0  0  0  0  0  0  0  0  0
  150.3368  133.2100  155.9910 H   0  0  0  0  0  0  0  0  0  0  0  0
  149.5615  134.2520  157.1730 H   0  0  0  0  0  0  0  0  0  0  0  0
  150.9269  135.1535  154.5939 H   0  0  0  0  0  0  0  0  0  0  0  0
  150.3732  137.3974  154.9736 H   0  0  0  0  0  0  0  0  0  0  0  0
  149.0489  137.0238  156.0203 H   0  0  0  0  0  0  0  0  0  0  0  0
  149.8371  138.8842  156.6046 H   0  0  0  0  0  0  0  0  0  0  0  0
  152.5970  140.2049  158.7071 H   0  0  0  0  0  0  0  0  0  0  0  0
  152.9317  142.6263  159.1090 H   0  0  0  0  0  0  0  0  0  0  0  0
  151.3551  144.2835  157.9562 H   0  0  0  0  0  0  0  0  0  0  0  0
  147.3361  140.5987  156.9826 H   0  0  0  0  0  0  0  0  0  0  0  0
  147.5121  142.3356  156.6906 H   0  0  0  0  0  0  0  0  0  0  0  0
  146.6534  140.1978  154.7139 H   0  0  0  0  0  0  0  0  0  0  0  0
  145.8683  141.7503  155.0245 H   0  0  0  0  0  0  0  0  0  0  0  0
  147.5671  141.5405  152.9139 H   0  0  0  0  0  0  0  0  0  0  0  0
  147.6733  142.9556  153.9614 H   0  0  0  0  0  0  0  0  0  0  0  0
  149.8944  142.2571  154.2412 H   0  0  0  0  0  0  0  0  0  0  0  0
  149.5006  140.5705  153.8943 H   0  0  0  0  0  0  0  0  0  0  0  0
  149.8116  133.2187  153.4201 H   0  0  0  0  0  0  0  0  0  0  0  0
  148.7245  132.7299  154.7081 H   0  0  0  0  0  0  0  0  0  0  0  0
  147.8916  133.9460  152.0185 H   0  0  0  0  0  0  0  0  0  0  0  0
  147.6645  132.2850  152.5311 H   0  0  0  0  0  0  0  0  0  0  0  0
  146.5983  135.6815  153.1171 H   0  0  0  0  0  0  0  0  0  0  0  0
  145.4858  135.2166  154.3895 H   0  0  0  0  0  0  0  0  0  0  0  0
  147.3411  134.6108  155.8971 H   0  0  0  0  0  0  0  0  0  0  0  0
  147.5676  136.2566  155.3325 H   0  0  0  0  0  0  0  0  0  0  0  0
  148.9678  135.4265  153.6327 H   0  0  0  0  0  0  0  0  0  0  0  0
  149.7032  143.4671  156.5738 H   0  0  0  0  0  0  0  0  0  0  0  0
  1  2  1  0  0  0  0
  1 25  1  0  0  0  0
  1 26  1  0  0  0  0
  1 27  1  0  0  0  0
  2  3  1  0  0  0  0
  2 19  1  0  0  0  0
  2 28  1  0  0  0  0
  3  4  1  0  0  0  0
  3 29  1  0  0  0  0
  3 30  1  0  0  0  0
  4  5  1  0  0  0  0
  5  6  2  0  0  0  0
  5  7  1  0  0  0  0
  7  8  1  0  0  0  0
  7 31  1  0  0  0  0
  8 13  1  0  0  0  0
  8  9  2  0  0  0  0
  9 10  1  0  0  0  0
  9 32  1  0  0  0  0
 10 11  2  0  0  0  0
 10 33  1  0  0  0  0
 11 12  1  0  0  0  0
 11 34  1  0  0  0  0
 12 13  2  0  0  0  0
 12 52  1  0  0  0  0
 13 14  1  0  0  0  0
 14 18  1  0  0  0  0
 14 15  1  0  0  0  0
 15 16  1  0  0  0  0
 15 35  1  0  0  0  0
 15 36  1  0  0  0  0
 16 17  1  0  0  0  0
 16 37  1  0  0  0  0
 16 38  1  0  0  0  0
 17 18  1  0  0  0  0
 17 39  1  0  0  0  0
 17 40  1  0  0  0  0
 18 41  1  0  0  0  0
 18 42  1  0  0  0  0
 19 24  1  0  0  0  0
 19 20  1  0  0  0  0
 19 51  1  0  0  0  0
 20 21  1  0  0  0  0
 20 43  1  0  0  0  0
 20 44  1  0  0  0  0
 21 22  1  0  0  0  0
 21 45  1  0  0  0  0
 21 46  1  0  0  0  0
 22 23  1  0  0  0  0
 23 24  1  0  0  0  0
 23 47  1  0  0  0  0
 23 48  1  0  0  0  0
 24 49  1  0  0  0  0
 24 50  1  0  0  0  0
M  CHG  1   4  -1
M  CHG  1  12   1
M  CHG  1  19   1
M  END
> <s_m_source_file>
AV-unprocessed.smi

> <i_m_source_file_index>
1389

> <i_lp_mmshare_version>
43012

> <i_f3d_flags>
0

> <s_epik_input>
W0NIMl0xW0NIMl1PW0NIMl1bQ0gyXU4xW0NASF0oW0NIM10pW0NIMl1bTkhdQyg9TylbTkhdYzJbY0hdW2NIXVtjSF1uYzJOM1tDSDJdW0NIMl1bQ0gyXVtDSDJdMw==

> <s_epik_cmdline>
J2VwaWtfcHl0aG9uJywgJy1waCcsICc3LjAnLCAnLXRuJywgJzgnLCAnLW1hJywgJzIwMCcsICctbWV0YWxfYmluZGluZycsICctaW1hZScsICc8aW5maWxlLm1hZT4nLCAnLW9tYWUnLCAnPG91dGZpbGUubWFlPic=

> <r_lp_tautomer_probability>
0.999994

> <r_epik_Ionization_Penalty>
8.58362

> <r_epik_Ionization_Penalty_Charging>
8.58361

> <r_epik_Ionization_Penalty_Neutral>
3.55275e-06

> <r_epik_State_Penalty>
8.57766

> <r_epik_Charging_Adjusted_Penalty>
17.1613

> <i_epik_Tot_Q>
1

> <i_epik_Tot_abs_Q>
3

> <r_epik_Metal_State_Penalty>
4.57399

> <b_epik_Metal_Only>
1

> <s_lp_Force_Field>
OPLS_2005

> <r_lp_Energy>
52.6414

> <b_lp_Chiralities_Consistent>
1

> <s_lp_Variant>
AV-unprocessed.smi:1389-9

> <Gold.Version>
5.8.1

> <Gold.Id.Protein>
6NUR|6NUR_protein|mol2

> <Gold.PLP.Fitness>
44.7136

> <Gold.PLP.PLP>
-34.1640

> <Gold.PLP.part.hbond>
-2.0000

> <Gold.PLP.part.metal>
0.0000

> <Gold.PLP.part.buried>
-4.2665

> <Gold.PLP.part.nonpolar>
-27.3070

> <Gold.PLP.part.repulsive>
0.2166

> <Gold.PLP.ligand.clash>
0.0000

> <Gold.PLP.ligand.torsion>
1.1181

> <Gold.PLP.Chemscore.Hbond>
4.0000

> <Gold.PLP.Chemscore.CHOScore>
0.0000

> <Gold.PLP.Chemscore.Metal>
0.0000

> <Gold.Chemscore.Hbonds>
donor molecule, donor type, donor heavy atom, donor atom, acceptor molecule, acceptor atom, score
      L1  H    12    52       P1  8028  2.00
      L1  H    19    51       P1  7948  2.00

> <Gold.PLP.Chemscore.Internal.Correction>
0.7858

> <Gold.Rescore>
     Score         DG    S(hbond)    S(metal)    S(lipo)     H(rot)  DE(clash)    DE(int)     intcor
     14.92     -17.46       1.90        0.00      83.93       1.63       0.07       2.47       ----

> <Gold.Chemscore.Fitness>
14.9199

> <Gold.Chemscore.DG>
-17.4615

> <Gold.Chemscore.ZeroCoef>
-5.4800

> <Gold.Chemscore.Hbond>
1.8970

> <Gold.Chemscore.Metal>
0.0000

> <Gold.Chemscore.Lipo>
83.9335

> <Gold.Chemscore.Internal_Hbond>
0.0000

> <Gold.Chemscore.DEClash>
0.0666

> <Gold.Chemscore.DEInternal>
2.4750

> <Gold.Chemscore.Rot>
1.6307

> <Gold.Chemscore.Internal.Correction>
   9.000000E+99

> <Gold.Chemscore.Hbonds>
donor molecule, donor type, donor heavy atom, donor atom, acceptor molecule, acceptor atom, score
      L1  H    12    52       P1  8028  1.00
      L1  H    19    51       P1  7948  0.74

> <Gold.Chemscore.Hbond.Weighted>
-6.3358

> <Gold.Chemscore.Metal.Weighted>
-0.0000

> <Gold.Chemscore.Lipo.Weighted>
-9.8202

> <Gold.Chemscore.Internal_Hbond.Weighted>
0.0000

> <Gold.Chemscore.DEClash.Weighted>
0.0666

> <Gold.Chemscore.DEInternal.Weighted>
2.4750

> <Gold.Chemscore.Rot.Weighted>
4.1746

> <Gold.Chemscore.Internal.Correction.Weighted>
   9.000000E+99

> <Gold.Protein.RotatedTorsions>
[ 6907 6896 6895 6894 ] final  -14.98 input  -60.11 | X-H torsion
[ 7974 7965 7964 7962 ] final -176.76 input  175.53 | X-H torsion
[ 8008 7997 7996 7995 ] final  148.41 input   59.86 | X-H torsion
[ 10167 10162 10161 10158 ] final  141.78 input  -65.29 | X-H torsion
[ 10718 10713 10712 10709 ] final  -11.63 input   66.30 | X-H torsion
[ 10763 10752 10751 10750 ] final -153.59 input  -60.55 | X-H torsion
[ 11005 11000 10999 10996 ] final  163.66 input  -57.11 | X-H torsion

> <Gold.Protein.ActiveResidues>
 VAL166  LYS551  ARG553  GLY616  TRP617  ASP618  TYR619  PRO620  LYS621  CYS622 
 ASP623  PHE694  ASN695  SER759  ASP760  ASP761  ALA762  ILE779  LEU786  VAL792 
 PHE793  MET794  SER795  GLU796  ALA797  LYS798  CYS799  TRP800  GLU811  SER814 

> <Gold.Protein.RotatedAtoms>
  151.3310  135.0841  159.9338 H   0  0  0  0  0  0  0  0  0  0  0  0  # atno 6907 bound_to 6896
  152.5234  133.9542  159.7697 H   0  0  0  0  0  0  0  0  0  0  0  0  # atno 6908 bound_to 6896
  150.9881  133.6124  159.2742 H   0  0  0  0  0  0  0  0  0  0  0  0  # atno 6909 bound_to 6896
  144.7127  140.1121  143.6410 H   0  0  0  0  0  0  0  0  0  0  0  0  # atno 7974 bound_to 7965
  156.2792  140.2129  156.5695 H   0  0  0  0  0  0  0  0  0  0  0  0  # atno 8008 bound_to 7997
  154.7147  140.0509  157.0607 H   0  0  0  0  0  0  0  0  0  0  0  0  # atno 8009 bound_to 7997
  155.0558  140.3161  155.4680 H   0  0  0  0  0  0  0  0  0  0  0  0  # atno 8010 bound_to 7997
  139.5011  144.6149  151.6186 H   0  0  0  0  0  0  0  0  0  0  0  0  # atno 10167 bound_to 10162
  156.6563  130.4969  149.6045 H   0  0  0  0  0  0  0  0  0  0  0  0  # atno 10718 bound_to 10713
  154.7917  135.3209  154.7761 H   0  0  0  0  0  0  0  0  0  0  0  0  # atno 10763 bound_to 10752
  153.8448  135.6867  153.4803 H   0  0  0  0  0  0  0  0  0  0  0  0  # atno 10764 bound_to 10752
  153.1591  135.4668  154.9687 H   0  0  0  0  0  0  0  0  0  0  0  0  # atno 10765 bound_to 10752
  140.2380  134.8073  157.3383 H   0  0  0  0  0  0  0  0  0  0  0  0  # atno 11005 bound_to 11000
  145.9445  139.2691  143.1249 LP  0  0  0  0  0  0  0  0  0  0  0  0  # atno 17320 bound_to 7965
  145.9388  140.8994  143.0318 LP  0  0  0  0  0  0  0  0  0  0  0  0  # atno 17321 bound_to 7965
  140.5834  143.9906  150.6281 LP  0  0  0  0  0  0  0  0  0  0  0  0  # atno 17342 bound_to 10162
  140.3062  143.3227  152.0923 LP  0  0  0  0  0  0  0  0  0  0  0  0  # atno 17343 bound_to 10162
  156.2045  130.6640  151.1203 LP  0  0  0  0  0  0  0  0  0  0  0  0  # atno 17370 bound_to 10713
  157.7124  131.0727  150.6451 LP  0  0  0  0  0  0  0  0  0  0  0  0  # atno 17371 bound_to 10713
  140.1682  134.4642  155.7849 LP  0  0  0  0  0  0  0  0  0  0  0  0  # atno 17394 bound_to 11000
  141.2213  133.6930  156.7662 LP  0  0  0  0  0  0  0  0  0  0  0  0  # atno 17395 bound_to 11000

$$$$
