AV-unprocessed.smi:2724|AV-procd|sdf|10508|dock1
  -GOLD-   2272014553D 1   1.00000     0.00000
 Structure written by MMmdl.
 25 26  0  0  0  0  0  0  0  0  1 V2000
  142.4937  132.6919  150.4274 O   0  0  0  0  0  0  0  0  0  0  0  0
  143.7904  132.1272  150.4403 C   0  0  1  0  0  0  0  0  0  0  0  0
  144.4285  132.0869  149.0518 C   0  0  0  0  0  0  0  0  0  0  0  0
  145.9149  131.9132  149.3543 C   0  0  0  0  0  0  0  0  0  0  0  0
  146.1575  132.7877  150.5885 C   0  0  0  0  0  0  0  0  0  0  0  0
  144.8176  132.8376  151.3548 C   0  0  1  0  0  0  0  0  0  0  0  0
  144.4391  134.2537  151.7855 C   0  0  0  0  0  0  0  0  0  0  0  0
  143.3577  134.4992  152.6611 C   0  0  0  0  0  0  0  0  0  0  0  0
  143.0608  135.8264  153.0250 C   0  0  0  0  0  0  0  0  0  0  0  0
  143.8578  136.8602  152.4957 C   0  0  0  0  0  0  0  0  0  0  0  0
  144.8922  136.6419  151.6560 N   0  0  0  0  0  0  0  0  0  0  0  0
  145.1705  135.3657  151.3134 C   0  0  0  0  0  0  0  0  0  0  0  0
  141.8692  132.0048  150.2521 H   0  0  0  0  0  0  0  0  0  0  0  0
  143.6909  131.0964  150.7836 H   0  0  0  0  0  0  0  0  0  0  0  0
  144.0285  131.2875  148.4272 H   0  0  0  0  0  0  0  0  0  0  0  0
  144.2675  133.0314  148.5299 H   0  0  0  0  0  0  0  0  0  0  0  0
  146.1191  130.8693  149.5962 H   0  0  0  0  0  0  0  0  0  0  0  0
  146.5505  132.1903  148.5129 H   0  0  0  0  0  0  0  0  0  0  0  0
  146.9724  132.4107  151.2075 H   0  0  0  0  0  0  0  0  0  0  0  0
  146.4518  133.7828  150.2536 H   0  0  0  0  0  0  0  0  0  0  0  0
  144.9174  132.2363  152.2599 H   0  0  0  0  0  0  0  0  0  0  0  0
  142.7652  133.6852  153.0517 H   0  0  0  0  0  0  0  0  0  0  0  0
  142.2426  136.0464  153.6945 H   0  0  0  0  0  0  0  0  0  0  0  0
  143.6591  137.8899  152.7536 H   0  0  0  0  0  0  0  0  0  0  0  0
  146.0045  135.2312  150.6406 H   0  0  0  0  0  0  0  0  0  0  0  0
  1  2  1  0  0  0  0
  1 13  1  0  0  0  0
  2  6  1  0  0  0  0
  2  3  1  0  0  0  0
  2 14  1  0  0  0  0
  3  4  1  0  0  0  0
  3 15  1  0  0  0  0
  3 16  1  0  0  0  0
  4  5  1  0  0  0  0
  4 17  1  0  0  0  0
  4 18  1  0  0  0  0
  5  6  1  0  0  0  0
  5 19  1  0  0  0  0
  5 20  1  0  0  0  0
  6  7  1  0  0  0  0
  6 21  1  0  0  0  0
  7 12  1  0  0  0  0
  7  8  2  0  0  0  0
  8  9  1  0  0  0  0
  8 22  1  0  0  0  0
  9 10  2  0  0  0  0
  9 23  1  0  0  0  0
 10 11  1  0  0  0  0
 10 24  1  0  0  0  0
 11 12  2  0  0  0  0
 12 25  1  0  0  0  0
M  END
> <s_m_source_file>
AV-unprocessed.smi

> <i_m_source_file_index>
2724

> <i_lp_mmshare_version>
43012

> <i_f3d_flags>
0

> <s_epik_input>
W09IXVtDQEBIXTFbQ0gyXVtDSDJdW0NIMl1bQ0BIXTFjMltjSF1bY0hdW2NIXW5bY0hdMg==

> <s_epik_cmdline>
J2VwaWtfcHl0aG9uJywgJy1waCcsICc3LjAnLCAnLXRuJywgJzgnLCAnLW1hJywgJzIwMCcsICctbWV0YWxfYmluZGluZycsICctaW1hZScsICc8aW5maWxlLm1hZT4nLCAnLW9tYWUnLCAnPG91dGZpbGUubWFlPic=

> <r_epik_Ionization_Penalty>
0.0175299

> <r_epik_Ionization_Penalty_Charging>
0

> <r_epik_Ionization_Penalty_Neutral>
0.0175299

> <r_epik_State_Penalty>
0.0138989

> <r_epik_Charging_Adjusted_Penalty>
0.0138989

> <i_epik_Tot_Q>
0

> <i_epik_Tot_abs_Q>
0

> <r_epik_Metal_State_Penalty>
1.40631e-05

> <b_epik_Metal_Only>
0

> <s_lp_Force_Field>
OPLS_2005

> <r_lp_Energy>
23.8775

> <b_lp_Chiralities_Consistent>
1

> <s_lp_Variant>
AV-unprocessed.smi:2724-2

> <Gold.Version>
5.8.1

> <Gold.Id.Protein>
6NUR|6NUR_protein|mol2

> <Gold.PLP.Fitness>
31.9171

> <Gold.PLP.PLP>
-26.6186

> <Gold.PLP.part.hbond>
-1.5251

> <Gold.PLP.part.metal>
0.0000

> <Gold.PLP.part.buried>
-3.8430

> <Gold.PLP.part.nonpolar>
-23.1499

> <Gold.PLP.part.repulsive>
1.6799

> <Gold.PLP.ligand.clash>
0.0000

> <Gold.PLP.ligand.torsion>
0.1436

> <Gold.PLP.Chemscore.Hbond>
0.9913

> <Gold.PLP.Chemscore.CHOScore>
0.8702

> <Gold.PLP.Chemscore.Metal>
0.0000

> <Gold.Chemscore.Hbonds>
donor molecule, donor type, donor heavy atom, donor atom, acceptor molecule, acceptor atom, score
      L1  H     1    13       P1 10952  0.93
      L1  C    10    24       P1 10175  0.93

> <Gold.PLP.Chemscore.Internal.Correction>
0.0015

> <Gold.Rescore>
     Score         DG    S(hbond)    S(metal)    S(lipo)     H(rot)  DE(clash)    DE(int)     intcor
     12.56     -13.94       0.93        0.00      74.62       1.32       0.20       1.19       ----

> <Gold.Chemscore.Fitness>
12.5578

> <Gold.Chemscore.DG>
-13.9437

> <Gold.Chemscore.ZeroCoef>
-5.4800

> <Gold.Chemscore.Hbond>
0.9314

> <Gold.Chemscore.Metal>
0.0000

> <Gold.Chemscore.Lipo>
74.6155

> <Gold.Chemscore.Internal_Hbond>
0.0000

> <Gold.Chemscore.DEClash>
0.2008

> <Gold.Chemscore.DEInternal>
1.1851

> <Gold.Chemscore.Rot>
1.3192

> <Gold.Chemscore.Internal.Correction>
   9.000000E+99

> <Gold.Chemscore.Hbonds>
donor molecule, donor type, donor heavy atom, donor atom, acceptor molecule, acceptor atom, score
      L1  H     1    13       P1 10952  0.58

> <Gold.Chemscore.Hbond.Weighted>
-3.1108

> <Gold.Chemscore.Metal.Weighted>
-0.0000

> <Gold.Chemscore.Lipo.Weighted>
-8.7300

> <Gold.Chemscore.Internal_Hbond.Weighted>
0.0000

> <Gold.Chemscore.DEClash.Weighted>
0.2008

> <Gold.Chemscore.DEInternal.Weighted>
1.1851

> <Gold.Chemscore.Rot.Weighted>
3.3772

> <Gold.Chemscore.Internal.Correction.Weighted>
   9.000000E+99

> <Gold.Protein.RotatedTorsions>
[ 6907 6896 6895 6894 ] final   -3.00 input  -60.11 | X-H torsion
[ 7974 7965 7964 7962 ] final  -40.97 input  175.53 | X-H torsion
[ 8008 7997 7996 7995 ] final   73.66 input   59.86 | X-H torsion
[ 10167 10162 10161 10158 ] final   39.37 input  -65.29 | X-H torsion
[ 10718 10713 10712 10709 ] final  114.32 input   66.30 | X-H torsion
[ 10763 10752 10751 10750 ] final   63.72 input  -60.55 | X-H torsion
[ 11005 11000 10999 10996 ] final  -42.77 input  -57.11 | X-H torsion

> <Gold.Protein.ActiveResidues>
 VAL166  LYS551  ARG553  GLY616  TRP617  ASP618  TYR619  PRO620  LYS621  CYS622 
 ASP623  PHE694  ASN695  SER759  ASP760  ASP761  ALA762  ILE779  LEU786  VAL792 
 PHE793  MET794  SER795  GLU796  ALA797  LYS798  CYS799  TRP800  GLU811  SER814 

> <Gold.Protein.RotatedAtoms>
  151.5208  135.1067  159.9877 H   0  0  0  0  0  0  0  0  0  0  0  0  # atno 6907 bound_to 6896
  152.4621  133.7840  159.6877 H   0  0  0  0  0  0  0  0  0  0  0  0  # atno 6908 bound_to 6896
  150.8588  133.7610  159.3025 H   0  0  0  0  0  0  0  0  0  0  0  0  # atno 6909 bound_to 6896
  146.0254  140.6798  142.9158 H   0  0  0  0  0  0  0  0  0  0  0  0  # atno 7974 bound_to 7965
  155.7869  140.3480  155.5328 H   0  0  0  0  0  0  0  0  0  0  0  0  # atno 8008 bound_to 7997
  155.8673  140.0981  157.1594 H   0  0  0  0  0  0  0  0  0  0  0  0  # atno 8009 bound_to 7997
  154.4015  140.1347  156.4022 H   0  0  0  0  0  0  0  0  0  0  0  0  # atno 8010 bound_to 7997
  140.3846  144.1934  150.6130 H   0  0  0  0  0  0  0  0  0  0  0  0  # atno 10167 bound_to 10162
  157.6288  131.0997  150.7169 H   0  0  0  0  0  0  0  0  0  0  0  0  # atno 10718 bound_to 10713
  153.0028  135.5419  154.6396 H   0  0  0  0  0  0  0  0  0  0  0  0  # atno 10763 bound_to 10752
  154.5654  135.2837  155.0881 H   0  0  0  0  0  0  0  0  0  0  0  0  # atno 10764 bound_to 10752
  154.2067  135.6474  153.5155 H   0  0  0  0  0  0  0  0  0  0  0  0  # atno 10765 bound_to 10752
  141.0338  133.6808  156.2640 H   0  0  0  0  0  0  0  0  0  0  0  0  # atno 11005 bound_to 11000
  144.7007  140.3641  143.7158 LP  0  0  0  0  0  0  0  0  0  0  0  0  # atno 17320 bound_to 7965
  145.7126  139.1688  143.2530 LP  0  0  0  0  0  0  0  0  0  0  0  0  # atno 17321 bound_to 7965
  140.4903  143.2350  151.8828 LP  0  0  0  0  0  0  0  0  0  0  0  0  # atno 17342 bound_to 10162
  139.4793  144.5173  151.8850 LP  0  0  0  0  0  0  0  0  0  0  0  0  # atno 17343 bound_to 10162
  156.7512  130.4769  149.5456 LP  0  0  0  0  0  0  0  0  0  0  0  0  # atno 17370 bound_to 10713
  156.1477  130.6288  151.0554 LP  0  0  0  0  0  0  0  0  0  0  0  0  # atno 17371 bound_to 10713
  140.6359  134.5216  157.5564 LP  0  0  0  0  0  0  0  0  0  0  0  0  # atno 17394 bound_to 11000
  139.9226  134.8118  156.1164 LP  0  0  0  0  0  0  0  0  0  0  0  0  # atno 17395 bound_to 11000

$$$$
