AV-unprocessed.smi:2524|AV-procd|sdf|9924|dock9
  -GOLD-   2272013563D 1   1.00000     0.00000
 Structure written by MMmdl.
 35 36  0  0  0  0  0  0  0  0  2 V2000
  151.7865  144.1614  160.3928 C   0  0  0  0  0  0  0  0  0  0  0  0
  152.5076  143.0418  160.5524 C   0  0  0  0  0  0  0  0  0  0  0  0
  152.1449  141.6968  159.9588 C   0  0  0  0  0  0  0  0  0  0  0  0
  153.3280  141.0614  159.2180 C   0  0  0  0  0  0  0  0  0  0  0  0
  152.8144  139.5091  158.3540 S   0  0  0  0  0  0  0  0  0  0  0  0
  153.8457  138.5037  158.6617 O   0  0  0  0  0  0  0  0  0  0  0  0
  151.4578  139.2271  158.8471 O   0  0  0  0  0  0  0  0  0  0  0  0
  152.7862  139.9734  156.7968 N   0  5  0  0  0  0  0  0  0  0  0  0
  151.6032  139.7690  155.9682 C   0  0  0  0  0  0  0  0  0  0  0  0
  150.5062  140.8243  156.2243 C   0  0  0  0  0  0  0  0  0  0  0  0
  149.3350  140.6134  155.2920 C   0  0  0  0  0  0  0  0  0  0  0  0
  149.2268  139.4455  154.5012 C   0  0  0  0  0  0  0  0  0  0  0  0
  148.1233  139.3033  153.6369 C   0  0  0  0  0  0  0  0  0  0  0  0
  147.1537  140.2336  153.5131 N   0  0  0  0  0  0  0  0  0  0  0  0
  147.2588  141.3528  154.2598 C   0  0  0  0  0  0  0  0  0  0  0  0
  148.3217  141.5905  155.1535 C   0  0  0  0  0  0  0  0  0  0  0  0
  150.2071  141.3486  157.6213 C   0  0  0  0  0  0  0  0  0  0  0  0
  150.8513  142.2577  156.6018 C   0  0  0  0  0  0  0  0  0  0  0  0
  150.8753  144.1638  159.8128 H   0  0  0  0  0  0  0  0  0  0  0  0
  152.1000  145.0918  160.8425 H   0  0  0  0  0  0  0  0  0  0  0  0
  153.4139  143.0772  161.1392 H   0  0  0  0  0  0  0  0  0  0  0  0
  151.7982  141.0287  160.7482 H   0  0  0  0  0  0  0  0  0  0  0  0
  151.3076  141.8372  159.2747 H   0  0  0  0  0  0  0  0  0  0  0  0
  153.7279  141.7461  158.4701 H   0  0  0  0  0  0  0  0  0  0  0  0
  154.1298  140.8231  159.9167 H   0  0  0  0  0  0  0  0  0  0  0  0
  151.8500  139.8053  154.9066 H   0  0  0  0  0  0  0  0  0  0  0  0
  151.1726  138.7817  156.1384 H   0  0  0  0  0  0  0  0  0  0  0  0
  149.9759  138.6697  154.5604 H   0  0  0  0  0  0  0  0  0  0  0  0
  148.0180  138.4182  153.0272 H   0  0  0  0  0  0  0  0  0  0  0  0
  146.4720  142.0831  154.1405 H   0  0  0  0  0  0  0  0  0  0  0  0
  148.3573  142.5054  155.7267 H   0  0  0  0  0  0  0  0  0  0  0  0
  149.1687  141.5512  157.8764 H   0  0  0  0  0  0  0  0  0  0  0  0
  150.8307  141.0482  158.4621 H   0  0  0  0  0  0  0  0  0  0  0  0
  151.8865  142.5381  156.7919 H   0  0  0  0  0  0  0  0  0  0  0  0
  150.2334  143.0540  156.1914 H   0  0  0  0  0  0  0  0  0  0  0  0
  1  2  2  0  0  0  0
  1 19  1  0  0  0  0
  1 20  1  0  0  0  0
  2  3  1  0  0  0  0
  2 21  1  0  0  0  0
  3  4  1  0  0  0  0
  3 22  1  0  0  0  0
  3 23  1  0  0  0  0
  4  5  1  0  0  0  0
  4 24  1  0  0  0  0
  4 25  1  0  0  0  0
  5  6  2  0  0  0  0
  5  7  2  0  0  0  0
  5  8  1  0  0  0  0
  8  9  1  0  0  0  0
  9 10  1  0  0  0  0
  9 26  1  0  0  0  0
  9 27  1  0  0  0  0
 10 18  1  0  0  0  0
 10 11  1  0  0  0  0
 10 17  1  0  0  0  0
 11 16  1  0  0  0  0
 11 12  2  0  0  0  0
 12 13  1  0  0  0  0
 12 28  1  0  0  0  0
 13 14  2  0  0  0  0
 13 29  1  0  0  0  0
 14 15  1  0  0  0  0
 15 16  2  0  0  0  0
 15 30  1  0  0  0  0
 16 31  1  0  0  0  0
 17 18  1  0  0  0  0
 17 32  1  0  0  0  0
 17 33  1  0  0  0  0
 18 34  1  0  0  0  0
 18 35  1  0  0  0  0
M  CHG  1   8  -1
M  END
> <s_m_source_file>
AV-unprocessed.smi

> <i_m_source_file_index>
2524

> <i_lp_mmshare_version>
43012

> <i_f3d_flags>
0

> <s_epik_input>
W0NIMl09W0NIXVtDSDJdW0NIMl1TKD1PKSg9TylbTkhdW0NIMl1DMShbQ0gyXVtDSDJdMSljMltjSF1bY0hdbltjSF1bY0hdMg==

> <s_epik_cmdline>
J2VwaWtfcHl0aG9uJywgJy1waCcsICc3LjAnLCAnLXRuJywgJzgnLCAnLW1hJywgJzIwMCcsICctbWV0YWxfYmluZGluZycsICctaW1hZScsICc8aW5maWxlLm1hZT4nLCAnLW9tYWUnLCAnPG91dGZpbGUubWFlPic=

> <r_epik_Ionization_Penalty>
6.82782

> <r_epik_Ionization_Penalty_Charging>
6.77146

> <r_epik_Ionization_Penalty_Neutral>
0.0563627

> <r_epik_State_Penalty>
6.80009

> <r_epik_Charging_Adjusted_Penalty>
13.5715

> <i_epik_Tot_Q>
-1

> <i_epik_Tot_abs_Q>
1

> <r_epik_Metal_State_Penalty>
2.75227

> <b_epik_Metal_Only>
1

> <s_lp_Force_Field>
OPLS_2005

> <r_lp_Energy>
12.2049

> <b_lp_Chiralities_Consistent>
1

> <s_lp_Variant>
AV-unprocessed.smi:2524-3

> <Gold.Version>
5.8.1

> <Gold.Id.Protein>
6NUR|6NUR_protein|mol2

> <Gold.PLP.Fitness>
43.1789

> <Gold.PLP.PLP>
-35.4579

> <Gold.PLP.part.hbond>
-1.0000

> <Gold.PLP.part.metal>
0.0000

> <Gold.PLP.part.buried>
-3.5138

> <Gold.PLP.part.nonpolar>
-31.3631

> <Gold.PLP.part.repulsive>
0.5167

> <Gold.PLP.ligand.clash>
0.0000

> <Gold.PLP.ligand.torsion>
1.8486

> <Gold.PLP.Chemscore.Hbond>
2.0000

> <Gold.PLP.Chemscore.CHOScore>
1.0000

> <Gold.PLP.Chemscore.Metal>
0.0000

> <Gold.Chemscore.Hbonds>
donor molecule, donor type, donor heavy atom, donor atom, acceptor molecule, acceptor atom, score
      P1  H  7997  8010       L1     8  2.00
      L1  C    13    29       P1  7948  0.75

> <Gold.PLP.Chemscore.Internal.Correction>
2.4183

> <Gold.Rescore>
     Score         DG    S(hbond)    S(metal)    S(lipo)     H(rot)  DE(clash)    DE(int)     intcor
     12.72     -16.44       0.91        0.00     102.47       1.59       0.05       3.66       ----

> <Gold.Chemscore.Fitness>
12.7244

> <Gold.Chemscore.DG>
-16.4378

> <Gold.Chemscore.ZeroCoef>
-5.4800

> <Gold.Chemscore.Hbond>
0.9106

> <Gold.Chemscore.Metal>
0.0000

> <Gold.Chemscore.Lipo>
102.4690

> <Gold.Chemscore.Internal_Hbond>
0.0000

> <Gold.Chemscore.DEClash>
0.0505

> <Gold.Chemscore.DEInternal>
3.6629

> <Gold.Chemscore.Rot>
1.5908

> <Gold.Chemscore.Internal.Correction>
   9.000000E+99

> <Gold.Chemscore.Hbonds>
donor molecule, donor type, donor heavy atom, donor atom, acceptor molecule, acceptor atom, score
      P1  H  7997  8010       L1     8  0.58

> <Gold.Chemscore.Hbond.Weighted>
-3.0414

> <Gold.Chemscore.Metal.Weighted>
-0.0000

> <Gold.Chemscore.Lipo.Weighted>
-11.9889

> <Gold.Chemscore.Internal_Hbond.Weighted>
0.0000

> <Gold.Chemscore.DEClash.Weighted>
0.0505

> <Gold.Chemscore.DEInternal.Weighted>
3.6629

> <Gold.Chemscore.Rot.Weighted>
4.0724

> <Gold.Chemscore.Internal.Correction.Weighted>
   9.000000E+99

> <Gold.Protein.RotatedTorsions>
[ 6907 6896 6895 6894 ] final   -6.67 input  -60.11 | X-H torsion
[ 7974 7965 7964 7962 ] final  174.71 input  175.53 | X-H torsion
[ 8008 7997 7996 7995 ] final   79.95 input   59.86 | X-H torsion
[ 10167 10162 10161 10158 ] final  -22.21 input  -65.29 | X-H torsion
[ 10718 10713 10712 10709 ] final   44.45 input   66.30 | X-H torsion
[ 10763 10752 10751 10750 ] final -123.42 input  -60.55 | X-H torsion
[ 11005 11000 10999 10996 ] final  176.42 input  -57.11 | X-H torsion

> <Gold.Protein.ActiveResidues>
 VAL166  LYS551  ARG553  GLY616  TRP617  ASP618  TYR619  PRO620  LYS621  CYS622 
 ASP623  PHE694  ASN695  SER759  ASP760  ASP761  ALA762  ILE779  LEU786  VAL792 
 PHE793  MET794  SER795  GLU796  ALA797  LYS798  CYS799  TRP800  GLU811  SER814 

> <Gold.Protein.RotatedAtoms>
  151.4619  135.1039  159.9726 H   0  0  0  0  0  0  0  0  0  0  0  0  # atno 6907 bound_to 6896
  152.4850  133.8345  159.7131 H   0  0  0  0  0  0  0  0  0  0  0  0  # atno 6908 bound_to 6896
  150.8951  133.7131  159.2921 H   0  0  0  0  0  0  0  0  0  0  0  0  # atno 6909 bound_to 6896
  144.7216  139.9837  143.6439 H   0  0  0  0  0  0  0  0  0  0  0  0  # atno 7974 bound_to 7965
  155.8767  140.3446  155.5859 H   0  0  0  0  0  0  0  0  0  0  0  0  # atno 8008 bound_to 7997
  155.7766  140.0852  157.2100 H   0  0  0  0  0  0  0  0  0  0  0  0  # atno 8009 bound_to 7997
  154.4021  140.1508  156.2991 H   0  0  0  0  0  0  0  0  0  0  0  0  # atno 8010 bound_to 7997
  140.7285  143.4555  151.0454 H   0  0  0  0  0  0  0  0  0  0  0  0  # atno 10167 bound_to 10162
  157.4270  130.8002  149.7567 H   0  0  0  0  0  0  0  0  0  0  0  0  # atno 10718 bound_to 10713
  154.8707  135.4099  154.2941 H   0  0  0  0  0  0  0  0  0  0  0  0  # atno 10763 bound_to 10752
  153.3812  135.7011  153.6569 H   0  0  0  0  0  0  0  0  0  0  0  0  # atno 10764 bound_to 10752
  153.5391  135.3652  155.2682 H   0  0  0  0  0  0  0  0  0  0  0  0  # atno 10765 bound_to 10752
  140.3729  134.7014  157.4403 H   0  0  0  0  0  0  0  0  0  0  0  0  # atno 11005 bound_to 11000
  146.0467  139.3472  143.0664 LP  0  0  0  0  0  0  0  0  0  0  0  0  # atno 17320 bound_to 7965
  145.8267  140.9652  143.0870 LP  0  0  0  0  0  0  0  0  0  0  0  0  # atno 17321 bound_to 7965
  139.8235  143.7787  152.3178 LP  0  0  0  0  0  0  0  0  0  0  0  0  # atno 17342 bound_to 10162
  139.7878  144.7421  150.9997 LP  0  0  0  0  0  0  0  0  0  0  0  0  # atno 17343 bound_to 10162
  155.9900  130.3948  150.3049 LP  0  0  0  0  0  0  0  0  0  0  0  0  # atno 17370 bound_to 10713
  157.1202  131.0245  151.3012 LP  0  0  0  0  0  0  0  0  0  0  0  0  # atno 17371 bound_to 10713
  140.0538  134.6093  155.8830 LP  0  0  0  0  0  0  0  0  0  0  0  0  # atno 17394 bound_to 11000
  141.1949  133.6584  156.5615 LP  0  0  0  0  0  0  0  0  0  0  0  0  # atno 17395 bound_to 11000

$$$$
