AV-unprocessed.smi:2699|AV-procd|sdf|10424|dock8
  -GOLD-   2272014463D 1   1.00000     0.00000
 Structure written by MMmdl.
 43 45  0  0  0  0  0  0  0  0  1 V2000
  148.7382  134.7171  157.9413 C   0  0  0  0  0  0  0  0  0  0  0  0
  148.2087  134.7922  159.3681 C   0  0  0  0  0  0  0  0  0  0  0  0
  147.8540  133.6793  160.0361 C   0  0  0  0  0  0  0  0  0  0  0  0
  147.3888  133.7782  161.3976 C   0  0  0  0  0  0  0  0  0  0  0  0
  147.0255  132.6762  162.0651 O   0  0  0  0  0  0  0  0  0  0  0  0
  147.3297  134.9825  161.9947 C   0  0  0  0  0  0  0  0  0  0  0  0
  147.7159  136.2120  161.2989 C   0  0  0  0  0  0  0  0  0  0  0  0
  147.6703  137.3071  161.8615 O   0  0  0  0  0  0  0  0  0  0  0  0
  148.1228  136.0703  159.9957 N   0  0  0  0  0  0  0  0  0  0  0  0
  148.4795  137.2908  159.2345 C   0  0  0  0  0  0  0  0  0  0  0  0
  149.9776  137.3818  158.8799 C   0  0  0  0  0  0  0  0  0  0  0  0
  150.8362  137.1228  159.7219 O   0  0  0  0  0  0  0  0  0  0  0  0
  150.3250  137.7411  157.6346 N   0  0  0  0  0  0  0  0  0  0  0  0
  151.6834  137.8802  157.1183 C   0  0  0  0  0  0  0  0  0  0  0  0
  151.7664  138.9123  155.9773 C   0  0  0  0  0  0  0  0  0  0  0  0
  151.8243  140.3031  156.6177 C   0  0  0  0  0  0  0  0  0  0  0  0
  150.6787  140.8450  157.4350 C   0  0  0  0  0  0  0  0  0  0  0  0
  151.0560  141.5065  156.1227 C   0  0  0  0  0  0  0  0  0  0  0  0
  152.8364  138.6349  154.8982 C   0  0  0  0  0  0  0  0  0  0  0  0
  151.7925  137.8764  154.0809 C   0  0  0  0  0  0  0  0  0  0  0  0
  150.7356  138.6713  154.8462 C   0  0  0  0  0  0  0  0  0  0  0  0
  148.9997  133.6909  157.6820 H   0  0  0  0  0  0  0  0  0  0  0  0
  149.6404  135.3135  157.8079 H   0  0  0  0  0  0  0  0  0  0  0  0
  147.9801  135.0525  157.2333 H   0  0  0  0  0  0  0  0  0  0  0  0
  147.9289  132.7110  159.5623 H   0  0  0  0  0  0  0  0  0  0  0  0
  147.4123  131.9356  161.6233 H   0  0  0  0  0  0  0  0  0  0  0  0
  146.9851  135.0522  163.0167 H   0  0  0  0  0  0  0  0  0  0  0  0
  147.8861  137.3823  158.3264 H   0  0  0  0  0  0  0  0  0  0  0  0
  148.2056  138.1804  159.8037 H   0  0  0  0  0  0  0  0  0  0  0  0
  149.5775  137.9374  156.9846 H   0  0  0  0  0  0  0  0  0  0  0  0
  152.3390  138.1655  157.9422 H   0  0  0  0  0  0  0  0  0  0  0  0
  152.0365  136.9090  156.7687 H   0  0  0  0  0  0  0  0  0  0  0  0
  152.8180  140.5568  156.9823 H   0  0  0  0  0  0  0  0  0  0  0  0
  149.7548  140.2709  157.4600 H   0  0  0  0  0  0  0  0  0  0  0  0
  150.9257  141.3703  158.3553 H   0  0  0  0  0  0  0  0  0  0  0  0
  151.5558  142.4714  156.1774 H   0  0  0  0  0  0  0  0  0  0  0  0
  150.3735  141.3944  155.2848 H   0  0  0  0  0  0  0  0  0  0  0  0
  153.1771  139.5417  154.3954 H   0  0  0  0  0  0  0  0  0  0  0  0
  153.6807  138.0275  155.2256 H   0  0  0  0  0  0  0  0  0  0  0  0
  151.8229  138.0701  153.0085 H   0  0  0  0  0  0  0  0  0  0  0  0
  151.7704  136.8081  154.3013 H   0  0  0  0  0  0  0  0  0  0  0  0
  149.8632  138.0873  155.1409 H   0  0  0  0  0  0  0  0  0  0  0  0
  150.4334  139.5640  154.3006 H   0  0  0  0  0  0  0  0  0  0  0  0
  1  2  1  0  0  0  0
  1 22  1  0  0  0  0
  1 23  1  0  0  0  0
  1 24  1  0  0  0  0
  2  9  1  0  0  0  0
  2  3  2  0  0  0  0
  3  4  1  0  0  0  0
  3 25  1  0  0  0  0
  4  5  1  0  0  0  0
  4  6  2  0  0  0  0
  5 26  1  0  0  0  0
  6  7  1  0  0  0  0
  6 27  1  0  0  0  0
  7  8  2  0  0  0  0
  7  9  1  0  0  0  0
  9 10  1  0  0  0  0
 10 11  1  0  0  0  0
 10 28  1  0  0  0  0
 10 29  1  0  0  0  0
 11 12  2  0  0  0  0
 11 13  1  0  0  0  0
 13 14  1  0  0  0  0
 13 30  1  0  0  0  0
 14 15  1  0  0  0  0
 14 31  1  0  0  0  0
 14 32  1  0  0  0  0
 15 21  1  0  0  0  0
 15 16  1  0  0  0  0
 15 19  1  0  0  0  0
 16 18  1  0  0  0  0
 16 17  1  0  0  0  0
 16 33  1  0  0  0  0
 17 18  1  0  0  0  0
 17 34  1  0  0  0  0
 17 35  1  0  0  0  0
 18 36  1  0  0  0  0
 18 37  1  0  0  0  0
 19 20  1  0  0  0  0
 19 38  1  0  0  0  0
 19 39  1  0  0  0  0
 20 21  1  0  0  0  0
 20 40  1  0  0  0  0
 20 41  1  0  0  0  0
 21 42  1  0  0  0  0
 21 43  1  0  0  0  0
M  END
> <s_m_source_file>
AV-unprocessed.smi

> <i_m_source_file_index>
2699

> <i_lp_mmshare_version>
43012

> <i_f3d_flags>
0

> <s_epik_input>
W0NIM11jMVtjSF1jKFtPSF0pW2NIXWMoPU8pbjFbQ0gyXUMoPU8pW05IXVtDSDJdQzIoW0NIXTNbQ0gyXVtDSDJdMylbQ0gyXVtDSDJdW0NIMl0y

> <s_epik_cmdline>
J2VwaWtfcHl0aG9uJywgJy1waCcsICc3LjAnLCAnLXRuJywgJzgnLCAnLW1hJywgJzIwMCcsICctbWV0YWxfYmluZGluZycsICctaW1hZScsICc8aW5maWxlLm1hZT4nLCAnLW9tYWUnLCAnPG91dGZpbGUubWFlPic=

> <r_lp_tautomer_probability>
0.999984

> <r_epik_Ionization_Penalty>
0.783068

> <r_epik_Ionization_Penalty_Charging>
1.5268e-07

> <r_epik_Ionization_Penalty_Neutral>
0.783068

> <r_epik_State_Penalty>
0.823318

> <r_epik_Charging_Adjusted_Penalty>
0.823318

> <i_epik_Tot_Q>
0

> <i_epik_Tot_abs_Q>
0

> <r_epik_Metal_State_Penalty>
0.823318

> <b_epik_Metal_Only>
0

> <s_lp_Force_Field>
OPLS_2005

> <r_lp_Energy>
38.185

> <b_lp_Chiralities_Consistent>
1

> <s_lp_Variant>
AV-unprocessed.smi:2699-2

> <Gold.Version>
5.8.1

> <Gold.Id.Protein>
6NUR|6NUR_protein|mol2

> <Gold.PLP.Fitness>
43.7289

> <Gold.PLP.PLP>
-37.4212

> <Gold.PLP.part.hbond>
-2.9530

> <Gold.PLP.part.metal>
0.0000

> <Gold.PLP.part.buried>
-5.6181

> <Gold.PLP.part.nonpolar>
-29.1289

> <Gold.PLP.part.repulsive>
0.0442

> <Gold.PLP.ligand.clash>
0.0000

> <Gold.PLP.ligand.torsion>
1.6834

> <Gold.PLP.Chemscore.Hbond>
2.6576

> <Gold.PLP.Chemscore.CHOScore>
0.0000

> <Gold.PLP.Chemscore.Metal>
0.0000

> <Gold.Chemscore.Hbonds>
donor molecule, donor type, donor heavy atom, donor atom, acceptor molecule, acceptor atom, score
      P1  H  6896  6909       L1    12  0.98
      P1  H  6931  6943       L1     8  0.94
      P1  H  6934  6947       L1     8  0.64

> <Gold.PLP.Chemscore.Internal.Correction>
1.7018

> <Gold.Rescore>
     Score         DG    S(hbond)    S(metal)    S(lipo)     H(rot)  DE(clash)    DE(int)     intcor
     16.26     -17.97       2.68        0.00      80.42       2.30       0.02       1.69       ----

> <Gold.Chemscore.Fitness>
16.2617

> <Gold.Chemscore.DG>
-17.9718

> <Gold.Chemscore.ZeroCoef>
-5.4800

> <Gold.Chemscore.Hbond>
2.6829

> <Gold.Chemscore.Metal>
0.0000

> <Gold.Chemscore.Lipo>
80.4213

> <Gold.Chemscore.Internal_Hbond>
0.0000

> <Gold.Chemscore.DEClash>
0.0197

> <Gold.Chemscore.DEInternal>
1.6904

> <Gold.Chemscore.Rot>
2.2962

> <Gold.Chemscore.Internal.Correction>
   9.000000E+99

> <Gold.Chemscore.Hbonds>
donor molecule, donor type, donor heavy atom, donor atom, acceptor molecule, acceptor atom, score
      P1  H  6896  6909       L1    12  0.84
      P1  H  6931  6943       L1     8  0.89
      P1  H  6934  6947       L1     8  0.61

> <Gold.Chemscore.Hbond.Weighted>
-8.9608

> <Gold.Chemscore.Metal.Weighted>
-0.0000

> <Gold.Chemscore.Lipo.Weighted>
-9.4093

> <Gold.Chemscore.Internal_Hbond.Weighted>
0.0000

> <Gold.Chemscore.DEClash.Weighted>
0.0197

> <Gold.Chemscore.DEInternal.Weighted>
1.6904

> <Gold.Chemscore.Rot.Weighted>
5.8783

> <Gold.Chemscore.Internal.Correction.Weighted>
   9.000000E+99

> <Gold.Protein.RotatedTorsions>
[ 6907 6896 6895 6894 ] final  102.17 input  -60.11 | X-H torsion
[ 7974 7965 7964 7962 ] final   95.48 input  175.53 | X-H torsion
[ 8008 7997 7996 7995 ] final -145.16 input   59.86 | X-H torsion
[ 10167 10162 10161 10158 ] final  -52.51 input  -65.29 | X-H torsion
[ 10718 10713 10712 10709 ] final  167.29 input   66.30 | X-H torsion
[ 10763 10752 10751 10750 ] final -136.41 input  -60.55 | X-H torsion
[ 11005 11000 10999 10996 ] final  -10.67 input  -57.11 | X-H torsion

> <Gold.Protein.ActiveResidues>
 VAL166  LYS551  ARG553  GLY616  TRP617  ASP618  TYR619  PRO620  LYS621  CYS622 
 ASP623  PHE694  ASN695  SER759  ASP760  ASP761  ALA762  ILE779  LEU786  VAL792 
 PHE793  MET794  SER795  GLU796  ALA797  LYS798  CYS799  TRP800  GLU811  SER814 

> <Gold.Protein.RotatedAtoms>
  152.5331  134.0016  159.7897 H   0  0  0  0  0  0  0  0  0  0  0  0  # atno 6907 bound_to 6896
  151.0234  133.5848  159.2676 H   0  0  0  0  0  0  0  0  0  0  0  0  # atno 6908 bound_to 6896
  151.2879  135.0740  159.9247 H   0  0  0  0  0  0  0  0  0  0  0  0  # atno 6909 bound_to 6896
  145.4516  139.2293  143.3037 H   0  0  0  0  0  0  0  0  0  0  0  0  # atno 7974 bound_to 7965
  155.5387  140.0606  157.2874 H   0  0  0  0  0  0  0  0  0  0  0  0  # atno 8008 bound_to 7997
  154.4459  140.1923  156.0612 H   0  0  0  0  0  0  0  0  0  0  0  0  # atno 8009 bound_to 7997
  156.0600  140.3273  155.7455 H   0  0  0  0  0  0  0  0  0  0  0  0  # atno 8010 bound_to 7997
  140.6534  143.2581  151.4658 H   0  0  0  0  0  0  0  0  0  0  0  0  # atno 10167 bound_to 10162
  157.0536  131.0320  151.2672 H   0  0  0  0  0  0  0  0  0  0  0  0  # atno 10718 bound_to 10713
  154.8684  135.3673  154.5057 H   0  0  0  0  0  0  0  0  0  0  0  0  # atno 10763 bound_to 10752
  153.5695  135.7021  153.5516 H   0  0  0  0  0  0  0  0  0  0  0  0  # atno 10764 bound_to 10752
  153.3555  135.4060  155.1642 H   0  0  0  0  0  0  0  0  0  0  0  0  # atno 10765 bound_to 10752
  140.7472  133.8621  155.9015 H   0  0  0  0  0  0  0  0  0  0  0  0  # atno 11005 bound_to 11000
  146.2501  140.5275  142.8897 LP  0  0  0  0  0  0  0  0  0  0  0  0  # atno 17320 bound_to 7965
  144.8058  140.6297  143.6448 LP  0  0  0  0  0  0  0  0  0  0  0  0  # atno 17321 bound_to 7965
  139.5752  144.1836  152.1893 LP  0  0  0  0  0  0  0  0  0  0  0  0  # atno 17342 bound_to 10162
  140.1144  144.5428  150.6903 LP  0  0  0  0  0  0  0  0  0  0  0  0  # atno 17343 bound_to 10162
  157.5011  130.7880  149.7605 LP  0  0  0  0  0  0  0  0  0  0  0  0  # atno 17370 bound_to 10713
  156.0000  130.3885  150.2643 LP  0  0  0  0  0  0  0  0  0  0  0  0  # atno 17371 bound_to 10713
  140.9783  134.1439  157.4517 LP  0  0  0  0  0  0  0  0  0  0  0  0  # atno 17394 bound_to 11000
  139.8794  135.0002  156.5997 LP  0  0  0  0  0  0  0  0  0  0  0  0  # atno 17395 bound_to 11000

$$$$
