AV-unprocessed.smi:2694|AV-procd|sdf|10405|dock1
  -GOLD-   2272014433D 1   1.00000     0.00000
 Structure written by MMmdl.
 42 44  0  0  0  0  0  0  0  0  1 V2000
  151.5256  136.8467  159.3177 O   0  0  0  0  0  0  0  0  0  0  0  0
  150.3174  137.0816  159.3044 C   0  0  0  0  0  0  0  0  0  0  0  0
  149.3854  136.4709  160.2525 C   0  0  0  0  0  0  0  0  0  0  0  0
  148.0610  136.7520  160.2027 C   0  0  0  0  0  0  0  0  0  0  0  0
  147.0513  136.1107  161.1450 C   0  0  0  0  0  0  0  0  0  0  0  0
  147.3042  136.2863  162.6523 C   0  0  0  0  0  0  0  0  0  0  0  0
  146.8494  134.8342  162.8351 C   0  0  0  0  0  0  0  0  0  0  0  0
  147.2233  134.5989  161.3677 C   0  0  0  0  0  0  0  0  0  0  0  0
  147.5567  137.6347  159.2414 N   0  0  0  0  0  0  0  0  0  0  0  0
  148.3612  138.1919  158.3939 C   0  0  0  0  0  0  0  0  0  0  0  0
  149.7452  137.9272  158.3990 N   0  0  0  0  0  0  0  0  0  0  0  0
  150.5538  138.6038  157.3694 C   0  0  0  0  0  0  0  0  0  0  0  0
  150.2345  140.1120  157.2335 C   0  0  2  0  0  0  0  0  0  0  0  0
  149.2297  140.2598  156.2516 O   0  0  0  0  0  0  0  0  0  0  0  0
  151.4407  140.9801  156.8308 C   0  0  0  0  0  0  0  0  0  0  0  0
  152.2018  141.2713  157.9955 O   0  0  0  0  0  0  0  0  0  0  0  0
  152.0987  142.5241  158.5615 C   0  0  0  0  0  0  0  0  0  0  0  0
  151.5254  143.6439  157.9071 C   0  0  0  0  0  0  0  0  0  0  0  0
  151.4726  144.8965  158.5489 C   0  0  0  0  0  0  0  0  0  0  0  0
  151.9867  145.0462  159.8496 C   0  0  0  0  0  0  0  0  0  0  0  0
  152.5484  143.9394  160.5114 C   0  0  0  0  0  0  0  0  0  0  0  0
  152.6001  142.6853  159.8724 C   0  0  0  0  0  0  0  0  0  0  0  0
  153.2816  141.3399  160.7128 Cl  0  0  0  0  0  0  0  0  0  0  0  0
  149.7692  135.7834  160.9919 H   0  0  0  0  0  0  0  0  0  0  0  0
  146.0255  136.3663  160.8731 H   0  0  0  0  0  0  0  0  0  0  0  0
  148.3549  136.4250  162.9111 H   0  0  0  0  0  0  0  0  0  0  0  0
  146.6691  137.0275  163.1379 H   0  0  0  0  0  0  0  0  0  0  0  0
  147.4342  134.2591  163.5534 H   0  0  0  0  0  0  0  0  0  0  0  0
  145.7775  134.7457  163.0189 H   0  0  0  0  0  0  0  0  0  0  0  0
  146.5247  133.9728  160.8123 H   0  0  0  0  0  0  0  0  0  0  0  0
  148.2531  134.2559  161.2501 H   0  0  0  0  0  0  0  0  0  0  0  0
  148.0174  138.8856  157.6250 H   0  0  0  0  0  0  0  0  0  0  0  0
  151.6207  138.4750  157.5635 H   0  0  0  0  0  0  0  0  0  0  0  0
  150.3910  138.1106  156.4090 H   0  0  0  0  0  0  0  0  0  0  0  0
  149.8164  140.4914  158.1668 H   0  0  0  0  0  0  0  0  0  0  0  0
  148.4437  139.8334  156.5572 H   0  0  0  0  0  0  0  0  0  0  0  0
  152.0297  140.4560  156.0766 H   0  0  0  0  0  0  0  0  0  0  0  0
  151.1040  141.9242  156.3990 H   0  0  0  0  0  0  0  0  0  0  0  0
  151.1156  143.5684  156.9116 H   0  0  0  0  0  0  0  0  0  0  0  0
  151.0360  145.7439  158.0414 H   0  0  0  0  0  0  0  0  0  0  0  0
  151.9466  146.0073  160.3407 H   0  0  0  0  0  0  0  0  0  0  0  0
  152.9392  144.0525  161.5120 H   0  0  0  0  0  0  0  0  0  0  0  0
  1  2  2  0  0  0  0
  2 11  1  0  0  0  0
  2  3  1  0  0  0  0
  3  4  2  0  0  0  0
  3 24  1  0  0  0  0
  4  5  1  0  0  0  0
  4  9  1  0  0  0  0
  5  8  1  0  0  0  0
  5  6  1  0  0  0  0
  5 25  1  0  0  0  0
  6  7  1  0  0  0  0
  6 26  1  0  0  0  0
  6 27  1  0  0  0  0
  7  8  1  0  0  0  0
  7 28  1  0  0  0  0
  7 29  1  0  0  0  0
  8 30  1  0  0  0  0
  8 31  1  0  0  0  0
  9 10  2  0  0  0  0
 10 11  1  0  0  0  0
 10 32  1  0  0  0  0
 11 12  1  0  0  0  0
 12 13  1  0  0  0  0
 12 33  1  0  0  0  0
 12 34  1  0  0  0  0
 13 14  1  0  0  0  0
 13 15  1  0  0  0  0
 13 35  1  0  0  0  0
 14 36  1  0  0  0  0
 15 16  1  0  0  0  0
 15 37  1  0  0  0  0
 15 38  1  0  0  0  0
 16 17  1  0  0  0  0
 17 22  1  0  0  0  0
 17 18  2  0  0  0  0
 18 19  1  0  0  0  0
 18 39  1  0  0  0  0
 19 20  2  0  0  0  0
 19 40  1  0  0  0  0
 20 21  1  0  0  0  0
 20 41  1  0  0  0  0
 21 22  2  0  0  0  0
 21 42  1  0  0  0  0
 22 23  1  0  0  0  0
M  END
> <s_m_source_file>
AV-unprocessed.smi

> <i_m_source_file_index>
2694

> <i_lp_mmshare_version>
43012

> <i_f3d_flags>
0

> <s_epik_input>
W0NIMl0xW0NIMl1bQ0gyXVtDSF0xYyhbY0hdYzI9TyluW2NIXW4yW0NIMl1bQ0BIXShbT0hdKVtDSDJdT2MzW2NIXVtjSF1bY0hdW2NIXWMzQ2w=

> <s_epik_cmdline>
J2VwaWtfcHl0aG9uJywgJy1waCcsICc3LjAnLCAnLXRuJywgJzgnLCAnLW1hJywgJzIwMCcsICctbWV0YWxfYmluZGluZycsICctaW1hZScsICc8aW5maWxlLm1hZT4nLCAnLW9tYWUnLCAnPG91dGZpbGUubWFlPic=

> <r_lp_tautomer_probability>
1

> <r_epik_Ionization_Penalty>
1.78212e-05

> <r_epik_Ionization_Penalty_Charging>
5.61663e-08

> <r_epik_Ionization_Penalty_Neutral>
1.7765e-05

> <r_epik_State_Penalty>
-0

> <r_epik_Charging_Adjusted_Penalty>
5.61663e-08

> <i_epik_Tot_Q>
0

> <i_epik_Tot_abs_Q>
0

> <r_epik_Metal_State_Penalty>
-0

> <b_epik_Metal_Only>
0

> <s_lp_Force_Field>
OPLS_2005

> <r_lp_Energy>
26.4785

> <b_lp_Chiralities_Consistent>
1

> <s_lp_Variant>
AV-unprocessed.smi:2694-1

> <Gold.Version>
5.8.1

> <Gold.Id.Protein>
6NUR|6NUR_protein|mol2

> <Gold.PLP.Fitness>
49.6954

> <Gold.PLP.PLP>
-48.3825

> <Gold.PLP.part.hbond>
-2.0000

> <Gold.PLP.part.metal>
0.0000

> <Gold.PLP.part.buried>
-4.2462

> <Gold.PLP.part.nonpolar>
-42.9171

> <Gold.PLP.part.repulsive>
0.0000

> <Gold.PLP.ligand.clash>
0.0000

> <Gold.PLP.ligand.torsion>
1.5112

> <Gold.PLP.Chemscore.Hbond>
1.2352

> <Gold.PLP.Chemscore.CHOScore>
0.0000

> <Gold.PLP.Chemscore.Metal>
0.0000

> <Gold.Chemscore.Hbonds>
donor molecule, donor type, donor heavy atom, donor atom, acceptor molecule, acceptor atom, score
      P1  H  6896  6908       L1     1  0.80
      P1  H  6934  6947       L1     9  0.12

> <Gold.PLP.Chemscore.Internal.Correction>
0.6295

> <Gold.Rescore>
     Score         DG    S(hbond)    S(metal)    S(lipo)     H(rot)  DE(clash)    DE(int)     intcor
     16.30     -17.76       0.91        0.00     131.94       2.42       0.05       1.41       ----

> <Gold.Chemscore.Fitness>
16.2964

> <Gold.Chemscore.DG>
-17.7594

> <Gold.Chemscore.ZeroCoef>
-5.4800

> <Gold.Chemscore.Hbond>
0.9129

> <Gold.Chemscore.Metal>
0.0000

> <Gold.Chemscore.Lipo>
131.9382

> <Gold.Chemscore.Internal_Hbond>
0.0000

> <Gold.Chemscore.DEClash>
0.0547

> <Gold.Chemscore.DEInternal>
1.4083

> <Gold.Chemscore.Rot>
2.4245

> <Gold.Chemscore.Internal.Correction>
   9.000000E+99

> <Gold.Chemscore.Hbonds>
donor molecule, donor type, donor heavy atom, donor atom, acceptor molecule, acceptor atom, score
      P1  H  6896  6908       L1     1  0.12

> <Gold.Chemscore.Hbond.Weighted>
-3.0492

> <Gold.Chemscore.Metal.Weighted>
-0.0000

> <Gold.Chemscore.Lipo.Weighted>
-15.4368

> <Gold.Chemscore.Internal_Hbond.Weighted>
0.0000

> <Gold.Chemscore.DEClash.Weighted>
0.0547

> <Gold.Chemscore.DEInternal.Weighted>
1.4083

> <Gold.Chemscore.Rot.Weighted>
6.2066

> <Gold.Chemscore.Internal.Correction.Weighted>
   9.000000E+99

> <Gold.Protein.RotatedTorsions>
[ 6907 6896 6895 6894 ] final -131.56 input  -60.11 | X-H torsion
[ 7974 7965 7964 7962 ] final  115.79 input  175.53 | X-H torsion
[ 8008 7997 7996 7995 ] final  -92.52 input   59.86 | X-H torsion
[ 10167 10162 10161 10158 ] final   26.86 input  -65.29 | X-H torsion
[ 10718 10713 10712 10709 ] final  -63.89 input   66.30 | X-H torsion
[ 10763 10752 10751 10750 ] final -119.35 input  -60.55 | X-H torsion
[ 11005 11000 10999 10996 ] final   69.61 input  -57.11 | X-H torsion

> <Gold.Protein.ActiveResidues>
 VAL166  LYS551  ARG553  GLY616  TRP617  ASP618  TYR619  PRO620  LYS621  CYS622 
 ASP623  PHE694  ASN695  SER759  ASP760  ASP761  ALA762  ILE779  LEU786  VAL792 
 PHE793  MET794  SER795  GLU796  ALA797  LYS798  CYS799  TRP800  GLU811  SER814 

> <Gold.Protein.RotatedAtoms>
  150.9524  133.6535  159.2769 H   0  0  0  0  0  0  0  0  0  0  0  0  # atno 6907 bound_to 6896
  151.3886  135.0951  159.9528 H   0  0  0  0  0  0  0  0  0  0  0  0  # atno 6908 bound_to 6896
  152.5115  133.9043  159.7511 H   0  0  0  0  0  0  0  0  0  0  0  0  # atno 6909 bound_to 6896
  145.1876  139.3017  143.4385 H   0  0  0  0  0  0  0  0  0  0  0  0  # atno 7974 bound_to 7965
  154.7241  140.0508  157.0667 H   0  0  0  0  0  0  0  0  0  0  0  0  # atno 8008 bound_to 7997
  155.0388  140.3166  155.4713 H   0  0  0  0  0  0  0  0  0  0  0  0  # atno 8009 bound_to 7997
  156.2824  140.2136  156.5511 H   0  0  0  0  0  0  0  0  0  0  0  0  # atno 8010 bound_to 7997
  140.4987  144.0350  150.6324 H   0  0  0  0  0  0  0  0  0  0  0  0  # atno 10167 bound_to 10162
  156.0762  130.4226  150.1342 H   0  0  0  0  0  0  0  0  0  0  0  0  # atno 10718 bound_to 10713
  154.8614  135.4241  154.2284 H   0  0  0  0  0  0  0  0  0  0  0  0  # atno 10763 bound_to 10752
  153.3274  135.6986  153.6983 H   0  0  0  0  0  0  0  0  0  0  0  0  # atno 10764 bound_to 10752
  153.6013  135.3536  155.2920 H   0  0  0  0  0  0  0  0  0  0  0  0  # atno 10765 bound_to 10752
  139.9644  134.7006  156.0577 H   0  0  0  0  0  0  0  0  0  0  0  0  # atno 11005 bound_to 11000
  146.3442  140.2077  142.8590 LP  0  0  0  0  0  0  0  0  0  0  0  0  # atno 17320 bound_to 7965
  145.0073  140.8684  143.5245 LP  0  0  0  0  0  0  0  0  0  0  0  0  # atno 17321 bound_to 7965
  140.3640  143.2892  152.0352 LP  0  0  0  0  0  0  0  0  0  0  0  0  # atno 17342 bound_to 10162
  139.4867  144.6281  151.7124 LP  0  0  0  0  0  0  0  0  0  0  0  0  # atno 17343 bound_to 10162
  156.9383  130.9736  151.3521 LP  0  0  0  0  0  0  0  0  0  0  0  0  # atno 17370 bound_to 10713
  157.5859  130.8409  149.8588 LP  0  0  0  0  0  0  0  0  0  0  0  0  # atno 17371 bound_to 10713
  141.1323  133.6583  156.3497 LP  0  0  0  0  0  0  0  0  0  0  0  0  # atno 17394 bound_to 11000
  140.5429  134.6102  157.5385 LP  0  0  0  0  0  0  0  0  0  0  0  0  # atno 17395 bound_to 11000

$$$$
