AV-unprocessed.smi:2009|AV-procd|sdf|8147|dock9
  -GOLD-   2272010383D 1   1.00000     0.00000
 Structure written by MMmdl.
 37 38  0  0  0  0  0  0  0  0  2 V2000
  152.4806  140.3641  158.9565 C   0  0  0  0  0  0  0  0  0  0  0  0
  151.9545  140.7261  157.5610 C   0  0  2  0  0  0  0  0  0  0  0  0
  150.9585  141.9122  157.6074 C   0  0  0  0  0  0  0  0  0  0  0  0
  151.4913  143.1213  158.2290 N   0  0  0  0  0  0  0  0  0  0  0  0
  151.5740  144.3931  157.6962 C   0  0  0  0  0  0  0  0  0  0  0  0
  152.1336  145.2010  158.6437 C   0  0  0  0  0  0  0  0  0  0  0  0
  152.3519  144.3271  159.7446 C   0  0  0  0  0  0  0  0  0  0  0  0
  151.9564  143.0883  159.5008 N   0  0  0  0  0  0  0  0  0  0  0  0
  151.3106  139.5538  156.9836 N   0  5  0  0  0  0  0  0  0  0  0  0
  151.7083  139.0905  155.4811 S   0  0  0  0  0  0  0  0  0  0  0  0
  150.9260  139.7532  154.4246 O   0  0  0  0  0  0  0  0  0  0  0  0
  153.1643  138.9838  155.2913 O   0  0  0  0  0  0  0  0  0  0  0  0
  151.0976  137.4648  155.5743 N   0  0  0  0  0  0  0  0  0  0  0  0
  149.6466  137.2870  155.3549 C   0  0  0  0  0  0  0  0  0  0  0  0
  149.2806  135.8128  155.1143 C   0  0  0  0  0  0  0  0  0  0  0  0
  149.7856  134.9218  156.2511 C   0  0  0  0  0  0  0  0  0  0  0  0
  151.2964  135.1126  156.3994 C   0  0  0  0  0  0  0  0  0  0  0  0
  151.6499  136.5898  156.6350 C   0  0  0  0  0  0  0  0  0  0  0  0
  152.9856  141.2142  159.4154 H   0  0  0  0  0  0  0  0  0  0  0  0
  153.1990  139.5449  158.9062 H   0  0  0  0  0  0  0  0  0  0  0  0
  151.6719  140.0596  159.6218 H   0  0  0  0  0  0  0  0  0  0  0  0
  152.8156  141.0415  156.9701 H   0  0  0  0  0  0  0  0  0  0  0  0
  150.6232  142.1641  156.6002 H   0  0  0  0  0  0  0  0  0  0  0  0
  150.0637  141.6181  158.1579 H   0  0  0  0  0  0  0  0  0  0  0  0
  151.2377  144.6096  156.6933 H   0  0  0  0  0  0  0  0  0  0  0  0
  152.3536  146.2548  158.5618 H   0  0  0  0  0  0  0  0  0  0  0  0
  152.7789  144.5555  160.7098 H   0  0  0  0  0  0  0  0  0  0  0  0
  149.1091  137.6774  156.2198 H   0  0  0  0  0  0  0  0  0  0  0  0
  149.3280  137.8731  154.4933 H   0  0  0  0  0  0  0  0  0  0  0  0
  148.1998  135.7115  155.0134 H   0  0  0  0  0  0  0  0  0  0  0  0
  149.7114  135.4799  154.1690 H   0  0  0  0  0  0  0  0  0  0  0  0
  149.2818  135.1818  157.1827 H   0  0  0  0  0  0  0  0  0  0  0  0
  149.5543  133.8766  156.0449 H   0  0  0  0  0  0  0  0  0  0  0  0
  151.6690  134.5067  157.2257 H   0  0  0  0  0  0  0  0  0  0  0  0
  151.8025  134.7560  155.5013 H   0  0  0  0  0  0  0  0  0  0  0  0
  152.7331  136.6893  156.6818 H   0  0  0  0  0  0  0  0  0  0  0  0
  151.2653  136.9213  157.6002 H   0  0  0  0  0  0  0  0  0  0  0  0
  1  2  1  0  0  0  0
  1 19  1  0  0  0  0
  1 20  1  0  0  0  0
  1 21  1  0  0  0  0
  2  3  1  0  0  0  0
  2  9  1  0  0  0  0
  2 22  1  0  0  0  0
  3  4  1  0  0  0  0
  3 23  1  0  0  0  0
  3 24  1  0  0  0  0
  4  8  1  0  0  0  0
  4  5  1  0  0  0  0
  5  6  2  0  0  0  0
  5 25  1  0  0  0  0
  6  7  1  0  0  0  0
  6 26  1  0  0  0  0
  7  8  2  0  0  0  0
  7 27  1  0  0  0  0
  9 10  1  0  0  0  0
 10 11  2  0  0  0  0
 10 12  2  0  0  0  0
 10 13  1  0  0  0  0
 13 18  1  0  0  0  0
 13 14  1  0  0  0  0
 14 15  1  0  0  0  0
 14 28  1  0  0  0  0
 14 29  1  0  0  0  0
 15 16  1  0  0  0  0
 15 30  1  0  0  0  0
 15 31  1  0  0  0  0
 16 17  1  0  0  0  0
 16 32  1  0  0  0  0
 16 33  1  0  0  0  0
 17 18  1  0  0  0  0
 17 34  1  0  0  0  0
 17 35  1  0  0  0  0
 18 36  1  0  0  0  0
 18 37  1  0  0  0  0
M  CHG  1   9  -1
M  END
> <s_m_source_file>
AV-unprocessed.smi

> <i_m_source_file_index>
2009

> <i_lp_mmshare_version>
43012

> <i_f3d_flags>
0

> <s_epik_input>
bjFbY0hdW2NIXVtjSF1uMVtDSDJdW0NAQEhdKFtDSDNdKVtOSF1TKD1PKSg9TylOMltDSDJdW0NIMl1bQ0gyXVtDSDJdW0NIMl0y

> <s_epik_cmdline>
J2VwaWtfcHl0aG9uJywgJy1waCcsICc3LjAnLCAnLXRuJywgJzgnLCAnLW1hJywgJzIwMCcsICctbWV0YWxfYmluZGluZycsICctaW1hZScsICc8aW5maWxlLm1hZT4nLCAnLW9tYWUnLCAnPG91dGZpbGUubWFlPic=

> <r_lp_tautomer_probability>
1

> <r_epik_Ionization_Penalty>
1.75622

> <r_epik_Ionization_Penalty_Charging>
1.7562

> <r_epik_Ionization_Penalty_Neutral>
2.38826e-05

> <r_epik_State_Penalty>
1.86645

> <r_epik_Charging_Adjusted_Penalty>
3.62264

> <i_epik_Tot_Q>
-1

> <i_epik_Tot_abs_Q>
1

> <r_epik_Metal_State_Penalty>
0.460135

> <b_epik_Metal_Only>
0

> <s_lp_Force_Field>
OPLS_2005

> <r_lp_Energy>
5.98775

> <b_lp_Chiralities_Consistent>
1

> <s_lp_Variant>
AV-unprocessed.smi:2009-3

> <Gold.Version>
5.8.1

> <Gold.Id.Protein>
6NUR|6NUR_protein|mol2

> <Gold.PLP.Fitness>
41.1272

> <Gold.PLP.PLP>
-33.0376

> <Gold.PLP.part.hbond>
-2.0000

> <Gold.PLP.part.metal>
0.0000

> <Gold.PLP.part.buried>
-5.6132

> <Gold.PLP.part.nonpolar>
-25.4709

> <Gold.PLP.part.repulsive>
0.1771

> <Gold.PLP.ligand.clash>
0.0000

> <Gold.PLP.ligand.torsion>
1.2311

> <Gold.PLP.Chemscore.Hbond>
2.0000

> <Gold.PLP.Chemscore.CHOScore>
1.0000

> <Gold.PLP.Chemscore.Metal>
0.0000

> <Gold.Chemscore.Hbonds>
donor molecule, donor type, donor heavy atom, donor atom, acceptor molecule, acceptor atom, score
      P1  H  7989  7998       L1    11  1.00
      P1  H  7997  8009       L1    12  1.00
      L1  C     5    25       P1  8028  0.99

> <Gold.PLP.Chemscore.Internal.Correction>
1.5517

> <Gold.Rescore>
     Score         DG    S(hbond)    S(metal)    S(lipo)     H(rot)  DE(clash)    DE(int)     intcor
     14.82     -17.32       1.98        0.00      79.02       1.57       0.05       2.44       ----

> <Gold.Chemscore.Fitness>
14.8202

> <Gold.Chemscore.DG>
-17.3170

> <Gold.Chemscore.ZeroCoef>
-5.4800

> <Gold.Chemscore.Hbond>
1.9772

> <Gold.Chemscore.Metal>
0.0000

> <Gold.Chemscore.Lipo>
79.0168

> <Gold.Chemscore.Internal_Hbond>
0.0000

> <Gold.Chemscore.DEClash>
0.0546

> <Gold.Chemscore.DEInternal>
2.4421

> <Gold.Chemscore.Rot>
1.5672

> <Gold.Chemscore.Internal.Correction>
   9.000000E+99

> <Gold.Chemscore.Hbonds>
donor molecule, donor type, donor heavy atom, donor atom, acceptor molecule, acceptor atom, score
      P1  H  7989  7998       L1    11  0.96
      P1  H  7997  8009       L1    12  0.98

> <Gold.Chemscore.Hbond.Weighted>
-6.6039

> <Gold.Chemscore.Metal.Weighted>
-0.0000

> <Gold.Chemscore.Lipo.Weighted>
-9.2450

> <Gold.Chemscore.Internal_Hbond.Weighted>
0.0000

> <Gold.Chemscore.DEClash.Weighted>
0.0546

> <Gold.Chemscore.DEInternal.Weighted>
2.4421

> <Gold.Chemscore.Rot.Weighted>
4.0119

> <Gold.Chemscore.Internal.Correction.Weighted>
   9.000000E+99

> <Gold.Protein.RotatedTorsions>
[ 6907 6896 6895 6894 ] final   47.18 input  -60.11 | X-H torsion
[ 7974 7965 7964 7962 ] final -162.88 input  175.53 | X-H torsion
[ 8008 7997 7996 7995 ] final -148.42 input   59.86 | X-H torsion
[ 10167 10162 10161 10158 ] final -162.78 input  -65.29 | X-H torsion
[ 10718 10713 10712 10709 ] final  126.19 input   66.30 | X-H torsion
[ 10763 10752 10751 10750 ] final -164.12 input  -60.55 | X-H torsion
[ 11005 11000 10999 10996 ] final  100.54 input  -57.11 | X-H torsion

> <Gold.Protein.ActiveResidues>
 VAL166  LYS551  ARG553  GLY616  TRP617  ASP618  TYR619  PRO620  LYS621  CYS622 
 ASP623  PHE694  ASN695  SER759  ASP760  ASP761  ALA762  ILE779  LEU786  VAL792 
 PHE793  MET794  SER795  GLU796  ALA797  LYS798  CYS799  TRP800  GLU811  SER814 

> <Gold.Protein.RotatedAtoms>
  152.2650  134.7994  160.0423 H   0  0  0  0  0  0  0  0  0  0  0  0  # atno 6907 bound_to 6896
  151.8626  133.3455  159.3717 H   0  0  0  0  0  0  0  0  0  0  0  0  # atno 6908 bound_to 6896
  150.7130  134.5118  159.5655 H   0  0  0  0  0  0  0  0  0  0  0  0  # atno 6909 bound_to 6896
  144.7343  140.3188  143.6174 H   0  0  0  0  0  0  0  0  0  0  0  0  # atno 7974 bound_to 7965
  155.5913  140.0653  157.2758 H   0  0  0  0  0  0  0  0  0  0  0  0  # atno 8008 bound_to 7997
  154.4304  140.1834  156.1125 H   0  0  0  0  0  0  0  0  0  0  0  0  # atno 8009 bound_to 7997
  156.0230  140.3315  155.7062 H   0  0  0  0  0  0  0  0  0  0  0  0  # atno 8010 bound_to 7997
  139.6367  144.0336  152.2060 H   0  0  0  0  0  0  0  0  0  0  0  0  # atno 10167 bound_to 10162
  157.5440  131.1096  150.8812 H   0  0  0  0  0  0  0  0  0  0  0  0  # atno 10718 bound_to 10713
  154.7058  135.2996  154.9272 H   0  0  0  0  0  0  0  0  0  0  0  0  # atno 10763 bound_to 10752
  154.0189  135.6685  153.4775 H   0  0  0  0  0  0  0  0  0  0  0  0  # atno 10764 bound_to 10752
  153.0716  135.5057  154.8229 H   0  0  0  0  0  0  0  0  0  0  0  0  # atno 10765 bound_to 10752
  139.8771  134.9145  156.4772 H   0  0  0  0  0  0  0  0  0  0  0  0  # atno 11005 bound_to 11000
  145.7589  139.1818  143.2278 LP  0  0  0  0  0  0  0  0  0  0  0  0  # atno 17320 bound_to 7965
  146.1002  140.7553  142.9553 LP  0  0  0  0  0  0  0  0  0  0  0  0  # atno 17321 bound_to 7965
  140.0015  144.6290  150.7726 LP  0  0  0  0  0  0  0  0  0  0  0  0  # atno 17342 bound_to 10162
  140.7469  143.2898  151.3361 LP  0  0  0  0  0  0  0  0  0  0  0  0  # atno 17343 bound_to 10162
  156.9357  130.5366  149.5279 LP  0  0  0  0  0  0  0  0  0  0  0  0  # atno 17370 bound_to 10713
  156.0520  130.5588  150.9010 LP  0  0  0  0  0  0  0  0  0  0  0  0  # atno 17371 bound_to 10713
  140.8753  133.7957  155.9408 LP  0  0  0  0  0  0  0  0  0  0  0  0  # atno 17394 bound_to 11000
  140.8910  134.2495  157.5094 LP  0  0  0  0  0  0  0  0  0  0  0  0  # atno 17395 bound_to 11000

$$$$
