AV-unprocessed.smi:2229|AV-procd|sdf|9033|dock6
  -GOLD-   2272012243D 1   1.00000     0.00000
 Structure written by MMmdl.
 43 44  0  0  0  0  0  0  0  0  2 V2000
  152.5689  142.5939  159.8231 C   0  0  0  0  0  0  0  0  0  0  0  0
  152.3251  143.5231  158.6218 C   0  0  0  0  0  0  0  0  0  0  0  0
  152.3663  144.9931  159.0670 C   0  0  0  0  0  0  0  0  0  0  0  0
  151.0023  143.2120  157.8913 C   0  0  0  0  0  0  0  0  0  0  0  0
  150.9404  141.8014  157.2777 C   0  0  0  0  0  0  0  0  0  0  0  0
  150.0112  141.7104  156.0477 C   0  0  2  0  0  0  0  0  0  0  0  0
  148.5301  141.5150  156.3825 C   0  0  0  0  0  0  0  0  0  0  0  0
  147.9065  141.0781  155.0591 C   0  0  0  0  0  0  0  0  0  0  0  0
  148.9822  140.2384  154.3605 C   0  0  0  0  0  0  0  0  0  0  0  0
  150.3250  140.5798  155.0420 C   0  0  2  0  0  0  0  0  0  0  0  0
  150.8887  139.4013  155.6993 N   0  0  0  0  0  0  0  0  0  0  0  0
  152.1202  138.9112  155.4957 C   0  0  0  0  0  0  0  0  0  0  0  0
  152.9322  139.4249  154.7254 O   0  0  0  0  0  0  0  0  0  0  0  0
  152.4859  137.6655  156.3132 C   0  0  0  0  0  0  0  0  0  0  0  0
  151.5864  137.4299  157.4450 N   0  0  0  0  0  0  0  0  0  0  0  0
  151.4088  138.3356  158.4604 C   0  0  0  0  0  0  0  0  0  0  0  0
  150.5566  137.8984  159.3167 N   0  0  0  0  0  0  0  0  0  0  0  0
  150.1322  136.6145  158.8467 N   0  5  0  0  0  0  0  0  0  0  0  0
  150.7989  136.3824  157.6941 C   0  0  0  0  0  0  0  0  0  0  0  0
  150.7307  135.4001  156.9560 O   0  0  0  0  0  0  0  0  0  0  0  0
  151.7614  142.6691  160.5521 H   0  0  0  0  0  0  0  0  0  0  0  0
  153.4987  142.8493  160.3321 H   0  0  0  0  0  0  0  0  0  0  0  0
  152.6490  141.5509  159.5181 H   0  0  0  0  0  0  0  0  0  0  0  0
  153.1433  143.3776  157.9153 H   0  0  0  0  0  0  0  0  0  0  0  0
  151.5724  145.2134  159.7815 H   0  0  0  0  0  0  0  0  0  0  0  0
  152.2458  145.6664  158.2179 H   0  0  0  0  0  0  0  0  0  0  0  0
  153.3175  145.2343  159.5425 H   0  0  0  0  0  0  0  0  0  0  0  0
  150.1655  143.3562  158.5759 H   0  0  0  0  0  0  0  0  0  0  0  0
  150.8654  143.9398  157.0906 H   0  0  0  0  0  0  0  0  0  0  0  0
  151.9464  141.5032  156.9798 H   0  0  0  0  0  0  0  0  0  0  0  0
  150.6176  141.0868  158.0345 H   0  0  0  0  0  0  0  0  0  0  0  0
  150.0949  142.6487  155.4966 H   0  0  0  0  0  0  0  0  0  0  0  0
  148.4136  140.7238  157.1244 H   0  0  0  0  0  0  0  0  0  0  0  0
  148.0640  142.4175  156.7787 H   0  0  0  0  0  0  0  0  0  0  0  0
  146.9746  140.5296  155.1993 H   0  0  0  0  0  0  0  0  0  0  0  0
  147.6823  141.9585  154.4553 H   0  0  0  0  0  0  0  0  0  0  0  0
  148.7467  139.1770  154.4551 H   0  0  0  0  0  0  0  0  0  0  0  0
  149.0124  140.4599  153.2932 H   0  0  0  0  0  0  0  0  0  0  0  0
  151.0417  140.9503  154.3066 H   0  0  0  0  0  0  0  0  0  0  0  0
  150.2909  138.9167  156.3526 H   0  0  0  0  0  0  0  0  0  0  0  0
  152.4968  136.8036  155.6442 H   0  0  0  0  0  0  0  0  0  0  0  0
  153.5031  137.7678  156.6951 H   0  0  0  0  0  0  0  0  0  0  0  0
  151.9593  139.2778  158.4604 H   0  0  0  0  0  0  0  0  0  0  0  0
  1  2  1  0  0  0  0
  1 21  1  0  0  0  0
  1 22  1  0  0  0  0
  1 23  1  0  0  0  0
  2  3  1  0  0  0  0
  2  4  1  0  0  0  0
  2 24  1  0  0  0  0
  3 25  1  0  0  0  0
  3 26  1  0  0  0  0
  3 27  1  0  0  0  0
  4  5  1  0  0  0  0
  4 28  1  0  0  0  0
  4 29  1  0  0  0  0
  5  6  1  0  0  0  0
  5 30  1  0  0  0  0
  5 31  1  0  0  0  0
  6 10  1  0  0  0  0
  6  7  1  0  0  0  0
  6 32  1  0  0  0  0
  7  8  1  0  0  0  0
  7 33  1  0  0  0  0
  7 34  1  0  0  0  0
  8  9  1  0  0  0  0
  8 35  1  0  0  0  0
  8 36  1  0  0  0  0
  9 10  1  0  0  0  0
  9 37  1  0  0  0  0
  9 38  1  0  0  0  0
 10 11  1  0  0  0  0
 10 39  1  0  0  0  0
 11 12  1  0  0  0  0
 11 40  1  0  0  0  0
 12 13  2  0  0  0  0
 12 14  1  0  0  0  0
 14 15  1  0  0  0  0
 14 41  1  0  0  0  0
 14 42  1  0  0  0  0
 15 19  1  0  0  0  0
 15 16  1  0  0  0  0
 16 17  2  0  0  0  0
 16 43  1  0  0  0  0
 17 18  1  0  0  0  0
 18 19  1  0  0  0  0
 19 20  2  0  0  0  0
M  CHG  1  18  -1
M  END
> <s_m_source_file>
AV-unprocessed.smi

> <i_m_source_file_index>
2229

> <i_lp_mmshare_version>
43012

> <i_f3d_flags>
0

> <s_epik_input>
W0NIM11bQ0hdKFtDSDNdKVtDSDJdW0NIMl1bQ0BASF0xW0NIMl1bQ0gyXVtDSDJdW0NASF0xW05IXUMoPU8pW0NIMl1uMltjSF1uW25IXWMyPU8=

> <s_epik_cmdline>
J2VwaWtfcHl0aG9uJywgJy1waCcsICc3LjAnLCAnLXRuJywgJzgnLCAnLW1hJywgJzIwMCcsICctbWV0YWxfYmluZGluZycsICctaW1hZScsICc8aW5maWxlLm1hZT4nLCAnLW9tYWUnLCAnPG91dGZpbGUubWFlPic=

> <r_lp_tautomer_probability>
1

> <r_epik_Ionization_Penalty>
13.6733

> <r_epik_Ionization_Penalty_Charging>
13.6725

> <r_epik_Ionization_Penalty_Neutral>
0.000837689

> <r_epik_State_Penalty>
5.67062

> <r_epik_Charging_Adjusted_Penalty>
19.3431

> <i_epik_Tot_Q>
-1

> <i_epik_Tot_abs_Q>
1

> <r_epik_Metal_State_Penalty>
1.61781

> <b_epik_Metal_Only>
1

> <s_lp_Force_Field>
OPLS_2005

> <r_lp_Energy>
26.4382

> <b_lp_Chiralities_Consistent>
1

> <s_lp_Variant>
AV-unprocessed.smi:2229-7

> <Gold.Version>
5.8.1

> <Gold.Id.Protein>
6NUR|6NUR_protein|mol2

> <Gold.PLP.Fitness>
45.0823

> <Gold.PLP.PLP>
-36.7007

> <Gold.PLP.part.hbond>
-3.4553

> <Gold.PLP.part.metal>
0.0000

> <Gold.PLP.part.buried>
-2.8520

> <Gold.PLP.part.nonpolar>
-31.2782

> <Gold.PLP.part.repulsive>
0.1239

> <Gold.PLP.ligand.clash>
0.0000

> <Gold.PLP.ligand.torsion>
0.6811

> <Gold.PLP.Chemscore.Hbond>
3.2309

> <Gold.PLP.Chemscore.CHOScore>
0.0000

> <Gold.PLP.Chemscore.Metal>
0.0000

> <Gold.Chemscore.Hbonds>
donor molecule, donor type, donor heavy atom, donor atom, acceptor molecule, acceptor atom, score
      P1  H  6896  6909       L1    18  1.18
      P1  H  7989  7998       L1    13  0.20
      P1  H  7997  8010       L1    13  0.78

> <Gold.PLP.Chemscore.Internal.Correction>
0.0511

> <Gold.Rescore>
     Score         DG    S(hbond)    S(metal)    S(lipo)     H(rot)  DE(clash)    DE(int)     intcor
     13.64     -14.78       1.83        0.00      84.17       2.59       0.11       1.03       ----

> <Gold.Chemscore.Fitness>
13.6414

> <Gold.Chemscore.DG>
-14.7846

> <Gold.Chemscore.ZeroCoef>
-5.4800

> <Gold.Chemscore.Hbond>
1.8256

> <Gold.Chemscore.Metal>
0.0000

> <Gold.Chemscore.Lipo>
84.1656

> <Gold.Chemscore.Internal_Hbond>
0.0000

> <Gold.Chemscore.DEClash>
0.1113

> <Gold.Chemscore.DEInternal>
1.0319

> <Gold.Chemscore.Rot>
2.5939

> <Gold.Chemscore.Internal.Correction>
   9.000000E+99

> <Gold.Chemscore.Hbonds>
donor molecule, donor type, donor heavy atom, donor atom, acceptor molecule, acceptor atom, score
      P1  H  6896  6909       L1    18  0.04
      P1  H  7989  7998       L1    13  0.09
      P1  H  7997  8010       L1    13  0.70

> <Gold.Chemscore.Hbond.Weighted>
-6.0977

> <Gold.Chemscore.Metal.Weighted>
-0.0000

> <Gold.Chemscore.Lipo.Weighted>
-9.8474

> <Gold.Chemscore.Internal_Hbond.Weighted>
0.0000

> <Gold.Chemscore.DEClash.Weighted>
0.1113

> <Gold.Chemscore.DEInternal.Weighted>
1.0319

> <Gold.Chemscore.Rot.Weighted>
6.6405

> <Gold.Chemscore.Internal.Correction.Weighted>
   9.000000E+99

> <Gold.Protein.RotatedTorsions>
[ 6907 6896 6895 6894 ] final   90.11 input  -60.11 | X-H torsion
[ 7974 7965 7964 7962 ] final   70.37 input  175.53 | X-H torsion
[ 8008 7997 7996 7995 ] final  125.71 input   59.86 | X-H torsion
[ 10167 10162 10161 10158 ] final    2.01 input  -65.29 | X-H torsion
[ 10718 10713 10712 10709 ] final  149.51 input   66.30 | X-H torsion
[ 10763 10752 10751 10750 ] final  -73.86 input  -60.55 | X-H torsion
[ 11005 11000 10999 10996 ] final -166.69 input  -57.11 | X-H torsion

> <Gold.Protein.ActiveResidues>
 VAL166  LYS551  ARG553  GLY616  TRP617  ASP618  TYR619  PRO620  LYS621  CYS622 
 ASP623  PHE694  ASN695  SER759  ASP760  ASP761  ALA762  ILE779  LEU786  VAL792 
 PHE793  MET794  SER795  GLU796  ALA797  LYS798  CYS799  TRP800  GLU811  SER814 

> <Gold.Protein.RotatedAtoms>
  152.5442  134.1863  159.8655 H   0  0  0  0  0  0  0  0  0  0  0  0  # atno 6907 bound_to 6896
  151.1861  133.4688  159.2602 H   0  0  0  0  0  0  0  0  0  0  0  0  # atno 6908 bound_to 6896
  151.1129  135.0049  159.8558 H   0  0  0  0  0  0  0  0  0  0  0  0  # atno 6909 bound_to 6896
  145.7790  139.2878  143.1277 H   0  0  0  0  0  0  0  0  0  0  0  0  # atno 7974 bound_to 7965
  156.2842  140.2710  156.1993 H   0  0  0  0  0  0  0  0  0  0  0  0  # atno 8008 bound_to 7997
  155.0377  140.0386  157.2516 H   0  0  0  0  0  0  0  0  0  0  0  0  # atno 8009 bound_to 7997
  154.7300  140.2705  155.6469 H   0  0  0  0  0  0  0  0  0  0  0  0  # atno 8010 bound_to 7997
  140.6656  143.7189  150.7820 H   0  0  0  0  0  0  0  0  0  0  0  0  # atno 10167 bound_to 10162
  157.2951  131.0860  151.1432 H   0  0  0  0  0  0  0  0  0  0  0  0  # atno 10718 bound_to 10713
  154.4652  135.5883  153.6283 H   0  0  0  0  0  0  0  0  0  0  0  0  # atno 10763 bound_to 10752
  152.9828  135.6053  154.3436 H   0  0  0  0  0  0  0  0  0  0  0  0  # atno 10764 bound_to 10752
  154.3312  135.2842  155.2450 H   0  0  0  0  0  0  0  0  0  0  0  0  # atno 10765 bound_to 10752
  140.5616  134.5327  157.5144 H   0  0  0  0  0  0  0  0  0  0  0  0  # atno 11005 bound_to 11000
  146.0094  140.8449  142.9978 LP  0  0  0  0  0  0  0  0  0  0  0  0  # atno 17320 bound_to 7965
  144.6799  140.2467  143.7337 LP  0  0  0  0  0  0  0  0  0  0  0  0  # atno 17321 bound_to 7965
  140.0866  143.4918  152.2501 LP  0  0  0  0  0  0  0  0  0  0  0  0  # atno 17342 bound_to 10162
  139.5903  144.7547  151.3417 LP  0  0  0  0  0  0  0  0  0  0  0  0  # atno 17343 bound_to 10162
  157.2813  130.6751  149.6067 LP  0  0  0  0  0  0  0  0  0  0  0  0  # atno 17370 bound_to 10713
  155.9669  130.4449  150.5479 LP  0  0  0  0  0  0  0  0  0  0  0  0  # atno 17371 bound_to 10713
  139.9405  134.7796  156.0691 LP  0  0  0  0  0  0  0  0  0  0  0  0  # atno 17394 bound_to 11000
  141.1111  133.6643  156.2981 LP  0  0  0  0  0  0  0  0  0  0  0  0  # atno 17395 bound_to 11000

$$$$
