AV-unprocessed.smi:726|AV-procd|sdf|3510|dock9
  -GOLD-   22720 0513D 1   1.00000     0.00000
 Structure written by MMmdl.
 24 24  0  0  0  0  0  0  0  0  2 V2000
  151.6602  139.2760  159.1056 C   0  0  0  0  0  0  0  0  0  0  0  0
  151.3656  140.2417  157.9633 C   0  0  0  0  0  0  0  0  0  0  0  0
  151.3267  141.5659  158.2002 C   0  0  0  0  0  0  0  0  0  0  0  0
  151.0063  142.4791  157.1348 C   0  0  0  0  0  0  0  0  0  0  0  0
  150.9914  143.7987  157.3605 O   0  0  0  0  0  0  0  0  0  0  0  0
  150.7115  141.9954  155.9167 C   0  0  0  0  0  0  0  0  0  0  0  0
  150.7163  140.5599  155.6279 C   0  0  0  0  0  0  0  0  0  0  0  0
  150.3921  140.1516  154.5130 O   0  0  0  0  0  0  0  0  0  0  0  0
  151.0913  139.7220  156.6559 N   0  0  0  0  0  0  0  0  0  0  0  0
  151.2619  138.2606  156.3887 C   0  0  2  0  0  0  0  0  0  0  0  0
  150.1572  137.3814  157.0274 C   0  0  0  0  0  0  0  0  0  0  0  0
  152.7010  137.7805  156.6517 C   0  0  0  0  0  0  0  0  0  0  0  0
  152.9528  136.5657  156.4916 O   0  0  0  0  0  0  0  0  0  0  0  0
  153.5301  138.6444  157.0131 O   0  5  0  0  0  0  0  0  0  0  0  0
  151.6452  139.7936  160.0654 H   0  0  0  0  0  0  0  0  0  0  0  0
  152.6496  138.8318  158.9924 H   0  0  0  0  0  0  0  0  0  0  0  0
  150.9124  138.4855  159.1666 H   0  0  0  0  0  0  0  0  0  0  0  0
  151.5195  141.9483  159.1921 H   0  0  0  0  0  0  0  0  0  0  0  0
  150.3599  144.1800  156.7701 H   0  0  0  0  0  0  0  0  0  0  0  0
  150.4647  142.6819  155.1194 H   0  0  0  0  0  0  0  0  0  0  0  0
  151.1147  138.0410  155.3362 H   0  0  0  0  0  0  0  0  0  0  0  0
  150.2187  136.3596  156.6513 H   0  0  0  0  0  0  0  0  0  0  0  0
  149.1661  137.7581  156.7738 H   0  0  0  0  0  0  0  0  0  0  0  0
  150.2219  137.3151  158.1125 H   0  0  0  0  0  0  0  0  0  0  0  0
  1  2  1  0  0  0  0
  1 15  1  0  0  0  0
  1 16  1  0  0  0  0
  1 17  1  0  0  0  0
  2  9  1  0  0  0  0
  2  3  2  0  0  0  0
  3  4  1  0  0  0  0
  3 18  1  0  0  0  0
  4  5  1  0  0  0  0
  4  6  2  0  0  0  0
  5 19  1  0  0  0  0
  6  7  1  0  0  0  0
  6 20  1  0  0  0  0
  7  8  2  0  0  0  0
  7  9  1  0  0  0  0
  9 10  1  0  0  0  0
 10 11  1  0  0  0  0
 10 12  1  0  0  0  0
 10 21  1  0  0  0  0
 11 22  1  0  0  0  0
 11 23  1  0  0  0  0
 11 24  1  0  0  0  0
 12 13  2  0  0  0  0
 12 14  1  0  0  0  0
M  CHG  1  14  -1
M  END
> <s_m_source_file>
AV-unprocessed.smi

> <i_m_source_file_index>
726

> <i_lp_mmshare_version>
43012

> <i_f3d_flags>
0

> <s_epik_input>
W0NIM11jMVtjSF1jKFtPSF0pW2NIXWMoPU8pbjFbQ0BIXShbQ0gzXSlDKD1PKVtPSF0=

> <s_epik_cmdline>
J2VwaWtfcHl0aG9uJywgJy1waCcsICc3LjAnLCAnLXRuJywgJzgnLCAnLW1hJywgJzIwMCcsICctbWV0YWxfYmluZGluZycsICctaW1hZScsICc8aW5maWxlLm1hZT4nLCAnLW9tYWUnLCAnPG91dGZpbGUubWFlPic=

> <r_lp_tautomer_probability>
0.999984

> <r_epik_Ionization_Penalty>
0.316948

> <r_epik_Ionization_Penalty_Charging>
0.000813874

> <r_epik_Ionization_Penalty_Neutral>
0.316134

> <r_epik_State_Penalty>
0.363429

> <r_epik_Charging_Adjusted_Penalty>
0.364242

> <i_epik_Tot_Q>
-1

> <i_epik_Tot_abs_Q>
1

> <r_epik_Metal_State_Penalty>
0.363429

> <b_epik_Metal_Only>
0

> <s_lp_Force_Field>
OPLS_2005

> <r_lp_Energy>
20.5014

> <b_lp_Chiralities_Consistent>
1

> <s_lp_Variant>
AV-unprocessed.smi:726-1

> <Gold.Version>
5.8.1

> <Gold.Id.Protein>
6NUR|6NUR_protein|mol2

> <Gold.PLP.Fitness>
38.9120

> <Gold.PLP.PLP>
-21.2441

> <Gold.PLP.part.hbond>
-4.0000

> <Gold.PLP.part.metal>
0.0000

> <Gold.PLP.part.buried>
-4.2312

> <Gold.PLP.part.nonpolar>
-12.8675

> <Gold.PLP.part.repulsive>
0.0912

> <Gold.PLP.ligand.clash>
0.0000

> <Gold.PLP.ligand.torsion>
0.2887

> <Gold.PLP.Chemscore.Hbond>
5.9840

> <Gold.PLP.Chemscore.CHOScore>
0.0000

> <Gold.PLP.Chemscore.Metal>
0.0000

> <Gold.Chemscore.Hbonds>
donor molecule, donor type, donor heavy atom, donor atom, acceptor molecule, acceptor atom, score
      L1  H     5    19       P1  8028  1.00
      P1  H  7989  7998       L1     8  1.00
      P1  H  7997  8009       L1    14  1.98
      P1  H 10752 10764       L1    13  2.00

> <Gold.PLP.Chemscore.Internal.Correction>
0.2932

> <Gold.Rescore>
     Score         DG    S(hbond)    S(metal)    S(lipo)     H(rot)  DE(clash)    DE(int)     intcor
     14.91     -17.33       3.85        0.00      36.41       2.06       0.01       2.40       ----

> <Gold.Chemscore.Fitness>
14.9061

> <Gold.Chemscore.DG>
-17.3255

> <Gold.Chemscore.ZeroCoef>
-5.4800

> <Gold.Chemscore.Hbond>
3.8495

> <Gold.Chemscore.Metal>
0.0000

> <Gold.Chemscore.Lipo>
36.4055

> <Gold.Chemscore.Internal_Hbond>
0.0000

> <Gold.Chemscore.DEClash>
0.0149

> <Gold.Chemscore.DEInternal>
2.4045

> <Gold.Chemscore.Rot>
2.0592

> <Gold.Chemscore.Internal.Correction>
   9.000000E+99

> <Gold.Chemscore.Hbonds>
donor molecule, donor type, donor heavy atom, donor atom, acceptor molecule, acceptor atom, score
      L1  H     5    19       P1  8028  0.99
      P1  H  7989  7998       L1     8  0.34
      P1  H  7997  8009       L1    14  0.93
      P1  H 10752 10764       L1    13  0.94

> <Gold.Chemscore.Hbond.Weighted>
-12.8575

> <Gold.Chemscore.Metal.Weighted>
-0.0000

> <Gold.Chemscore.Lipo.Weighted>
-4.2594

> <Gold.Chemscore.Internal_Hbond.Weighted>
0.0000

> <Gold.Chemscore.DEClash.Weighted>
0.0149

> <Gold.Chemscore.DEInternal.Weighted>
2.4045

> <Gold.Chemscore.Rot.Weighted>
5.2715

> <Gold.Chemscore.Internal.Correction.Weighted>
   9.000000E+99

> <Gold.Protein.RotatedTorsions>
[ 6907 6896 6895 6894 ] final -102.46 input  -60.11 | X-H torsion
[ 7974 7965 7964 7962 ] final   57.57 input  175.53 | X-H torsion
[ 8008 7997 7996 7995 ] final  175.25 input   59.86 | X-H torsion
[ 10167 10162 10161 10158 ] final  -50.33 input  -65.29 | X-H torsion
[ 10718 10713 10712 10709 ] final   70.11 input   66.30 | X-H torsion
[ 10763 10752 10751 10750 ] final  -12.27 input  -60.55 | X-H torsion
[ 11005 11000 10999 10996 ] final  -71.63 input  -57.11 | X-H torsion

> <Gold.Protein.ActiveResidues>
 VAL166  LYS551  ARG553  GLY616  TRP617  ASP618  TYR619  PRO620  LYS621  CYS622 
 ASP623  PHE694  ASN695  SER759  ASP760  ASP761  ALA762  ILE779  LEU786  VAL792 
 PHE793  MET794  SER795  GLU796  ALA797  LYS798  CYS799  TRP800  GLU811  SER814 

> <Gold.Protein.RotatedAtoms>
  150.7197  134.0578  159.3820 H   0  0  0  0  0  0  0  0  0  0  0  0  # atno 6907 bound_to 6896
  151.8557  135.0540  160.0473 H   0  0  0  0  0  0  0  0  0  0  0  0  # atno 6908 bound_to 6896
  152.2756  133.5387  159.5502 H   0  0  0  0  0  0  0  0  0  0  0  0  # atno 6909 bound_to 6896
  145.9276  139.3781  143.0440 H   0  0  0  0  0  0  0  0  0  0  0  0  # atno 7974 bound_to 7965
  156.0890  140.1414  156.9616 H   0  0  0  0  0  0  0  0  0  0  0  0  # atno 8008 bound_to 7997
  154.4630  140.0936  156.6992 H   0  0  0  0  0  0  0  0  0  0  0  0  # atno 8009 bound_to 7997
  155.4951  140.3449  155.4363 H   0  0  0  0  0  0  0  0  0  0  0  0  # atno 8010 bound_to 7997
  140.6642  143.2662  151.4344 H   0  0  0  0  0  0  0  0  0  0  0  0  # atno 10167 bound_to 10162
  157.6382  130.9460  150.0606 H   0  0  0  0  0  0  0  0  0  0  0  0  # atno 10718 bound_to 10713
  153.4960  135.7017  153.5858 H   0  0  0  0  0  0  0  0  0  0  0  0  # atno 10763 bound_to 10752
  153.4010  135.3872  155.1987 H   0  0  0  0  0  0  0  0  0  0  0  0  # atno 10764 bound_to 10752
  154.8714  135.3881  154.4426 H   0  0  0  0  0  0  0  0  0  0  0  0  # atno 10765 bound_to 10752
  141.1595  133.6823  156.6935 H   0  0  0  0  0  0  0  0  0  0  0  0  # atno 11005 bound_to 11000
  145.8468  140.9550  143.0770 LP  0  0  0  0  0  0  0  0  0  0  0  0  # atno 17320 bound_to 7965
  144.6760  140.0356  143.7482 LP  0  0  0  0  0  0  0  0  0  0  0  0  # atno 17321 bound_to 7965
  139.5886  144.1550  152.2060 LP  0  0  0  0  0  0  0  0  0  0  0  0  # atno 17342 bound_to 10162
  140.0897  144.5631  150.7063 LP  0  0  0  0  0  0  0  0  0  0  0  0  # atno 17343 bound_to 10162
  156.1640  130.3644  149.9259 LP  0  0  0  0  0  0  0  0  0  0  0  0  # atno 17370 bound_to 10713
  156.7250  130.9021  151.3621 LP  0  0  0  0  0  0  0  0  0  0  0  0  # atno 17371 bound_to 10713
  140.3012  134.8162  157.4099 LP  0  0  0  0  0  0  0  0  0  0  0  0  # atno 17394 bound_to 11000
  140.1260  134.5157  155.8144 LP  0  0  0  0  0  0  0  0  0  0  0  0  # atno 17395 bound_to 11000

$$$$
