AV-unprocessed.smi:1809|AV-procd|sdf|7323|dock5
  -GOLD-   22720 8583D 1   1.00000     0.00000
 Structure written by MMmdl.
 39 41  0  0  0  0  0  0  0  0  3 V2000
  149.3218  141.0259  154.5429 C   0  0  0  0  0  0  0  0  0  0  0  0
  150.0492  139.7258  154.5097 C   0  0  0  0  0  0  0  0  0  0  0  0
  151.3574  139.6364  154.2577 N   0  0  0  0  0  0  0  0  0  0  0  0
  151.8054  138.3233  154.2798 N   0  0  0  0  0  0  0  0  0  0  0  0
  150.8308  137.4396  154.5374 C   0  0  0  0  0  0  0  0  0  0  0  0
  151.0558  136.1171  154.6063 N   0  5  0  0  0  0  0  0  0  0  0  0
  150.1584  135.3104  155.2160 C   0  0  0  0  0  0  0  0  0  0  0  0
  150.2988  134.7474  156.3041 O   0  0  0  0  0  0  0  0  0  0  0  0
  149.0271  135.1429  154.5202 N   0  0  0  0  0  0  0  0  0  0  0  0
  147.8999  134.3206  154.9384 C   0  0  0  0  0  0  0  0  0  0  0  0
  146.9615  134.0468  153.7553 C   0  0  2  0  0  0  0  0  0  0  0  0
  145.5596  133.6141  154.2269 C   0  0  0  0  0  0  0  0  0  0  0  0
  144.6951  133.2027  153.0961 N   0  3  1  0  0  0  0  0  0  0  0  0
  144.0510  134.2906  152.3282 C   0  0  0  0  0  0  0  0  0  0  0  0
  143.8721  133.7596  150.8969 C   0  0  0  0  0  0  0  0  0  0  0  0
  144.4133  132.3257  150.9193 C   0  0  0  0  0  0  0  0  0  0  0  0
  145.3448  132.2914  152.1321 C   0  0  1  0  0  0  0  0  0  0  0  0
  146.7744  132.7648  151.7872 C   0  0  0  0  0  0  0  0  0  0  0  0
  147.5151  132.9910  152.9773 O   0  0  0  0  0  0  0  0  0  0  0  0
  149.2548  138.1869  154.7969 S   0  0  0  0  0  0  0  0  0  0  0  0
  149.1736  141.3956  153.5282 H   0  0  0  0  0  0  0  0  0  0  0  0
  149.8938  141.7633  155.1068 H   0  0  0  0  0  0  0  0  0  0  0  0
  148.3478  140.9037  155.0171 H   0  0  0  0  0  0  0  0  0  0  0  0
  148.9504  135.6176  153.6328 H   0  0  0  0  0  0  0  0  0  0  0  0
  148.2593  133.3802  155.3597 H   0  0  0  0  0  0  0  0  0  0  0  0
  147.3620  134.8445  155.7300 H   0  0  0  0  0  0  0  0  0  0  0  0
  146.8881  134.9523  153.1501 H   0  0  0  0  0  0  0  0  0  0  0  0
  145.6538  132.7598  154.8984 H   0  0  0  0  0  0  0  0  0  0  0  0
  145.0742  134.4073  154.7970 H   0  0  0  0  0  0  0  0  0  0  0  0
  143.0983  134.5560  152.7871 H   0  0  0  0  0  0  0  0  0  0  0  0
  144.6745  135.1854  152.3176 H   0  0  0  0  0  0  0  0  0  0  0  0
  142.8309  133.7908  150.5739 H   0  0  0  0  0  0  0  0  0  0  0  0
  144.4494  134.3695  150.2008 H   0  0  0  0  0  0  0  0  0  0  0  0
  143.5877  131.6303  151.0762 H   0  0  0  0  0  0  0  0  0  0  0  0
  144.9080  132.0431  149.9892 H   0  0  0  0  0  0  0  0  0  0  0  0
  145.3941  131.2893  152.5599 H   0  0  0  0  0  0  0  0  0  0  0  0
  147.2849  132.0061  151.1937 H   0  0  0  0  0  0  0  0  0  0  0  0
  146.7620  133.6748  151.1851 H   0  0  0  0  0  0  0  0  0  0  0  0
  143.9293  132.6786  153.4948 H   0  0  0  0  0  0  0  0  0  0  0  0
  1  2  1  0  0  0  0
  1 21  1  0  0  0  0
  1 22  1  0  0  0  0
  1 23  1  0  0  0  0
  2 20  1  0  0  0  0
  2  3  2  0  0  0  0
  3  4  1  0  0  0  0
  4  5  2  0  0  0  0
  5  6  1  0  0  0  0
  5 20  1  0  0  0  0
  6  7  1  0  0  0  0
  7  8  2  0  0  0  0
  7  9  1  0  0  0  0
  9 10  1  0  0  0  0
  9 24  1  0  0  0  0
 10 11  1  0  0  0  0
 10 25  1  0  0  0  0
 10 26  1  0  0  0  0
 11 19  1  0  0  0  0
 11 12  1  0  0  0  0
 11 27  1  0  0  0  0
 12 13  1  0  0  0  0
 12 28  1  0  0  0  0
 12 29  1  0  0  0  0
 13 17  1  0  0  0  0
 13 14  1  0  0  0  0
 13 39  1  0  0  0  0
 14 15  1  0  0  0  0
 14 30  1  0  0  0  0
 14 31  1  0  0  0  0
 15 16  1  0  0  0  0
 15 32  1  0  0  0  0
 15 33  1  0  0  0  0
 16 17  1  0  0  0  0
 16 34  1  0  0  0  0
 16 35  1  0  0  0  0
 17 18  1  0  0  0  0
 17 36  1  0  0  0  0
 18 19  1  0  0  0  0
 18 37  1  0  0  0  0
 18 38  1  0  0  0  0
M  CHG  1   6  -1
M  CHG  1  13   1
M  END
> <s_m_source_file>
AV-unprocessed.smi

> <i_m_source_file_index>
1809

> <i_lp_mmshare_version>
43012

> <i_f3d_flags>
0

> <s_epik_input>
W0NIM11jMW5uYyhzMSlbTkhdQyg9TylbTkhdW0NIMl1bQ0BIXShbQ0gyXTIpT1tDSDJdW0NAQEhdKE4yMylbQ0gyXVtDSDJdW0NIMl0z

> <s_epik_cmdline>
J2VwaWtfcHl0aG9uJywgJy1waCcsICc3LjAnLCAnLXRuJywgJzgnLCAnLW1hJywgJzIwMCcsICctbWV0YWxfYmluZGluZycsICctaW1hZScsICc8aW5maWxlLm1hZT4nLCAnLW9tYWUnLCAnPG91dGZpbGUubWFlPic=

> <r_lp_tautomer_probability>
1

> <r_epik_Ionization_Penalty>
3.2601

> <r_epik_Ionization_Penalty_Charging>
3.1406

> <r_epik_Ionization_Penalty_Neutral>
0.119497

> <r_epik_State_Penalty>
3.08894

> <r_epik_Charging_Adjusted_Penalty>
6.22954

> <i_epik_Tot_Q>
0

> <i_epik_Tot_abs_Q>
2

> <r_epik_Metal_State_Penalty>
0.510807

> <b_epik_Metal_Only>
1

> <s_lp_Force_Field>
OPLS_2005

> <r_lp_Energy>
30.6493

> <b_lp_Chiralities_Consistent>
1

> <s_lp_Variant>
AV-unprocessed.smi:1809-15

> <Gold.Version>
5.8.1

> <Gold.Id.Protein>
6NUR|6NUR_protein|mol2

> <Gold.PLP.Fitness>
44.6415

> <Gold.PLP.PLP>
-28.6879

> <Gold.PLP.part.hbond>
-4.0000

> <Gold.PLP.part.metal>
0.0000

> <Gold.PLP.part.buried>
-4.4346

> <Gold.PLP.part.nonpolar>
-21.3896

> <Gold.PLP.part.repulsive>
0.5581

> <Gold.PLP.ligand.clash>
0.0000

> <Gold.PLP.ligand.torsion>
1.0329

> <Gold.PLP.Chemscore.Hbond>
6.0000

> <Gold.PLP.Chemscore.CHOScore>
0.0000

> <Gold.PLP.Chemscore.Metal>
0.0000

> <Gold.Chemscore.Hbonds>
donor molecule, donor type, donor heavy atom, donor atom, acceptor molecule, acceptor atom, score
      L1  H     9    24       P1  7948  1.00
      L1  H    13    39       P1 10957  2.00
      P1  H  7989  7998       L1     3  0.84
      P1  H 10752 10765       L1     6  2.00

> <Gold.PLP.Chemscore.Internal.Correction>
0.0195

> <Gold.Rescore>
     Score         DG    S(hbond)    S(metal)    S(lipo)     H(rot)  DE(clash)    DE(int)     intcor
     17.81     -18.86       3.11        0.00      54.67       1.32       0.03       1.03       ----

> <Gold.Chemscore.Fitness>
17.8106

> <Gold.Chemscore.DG>
-18.8633

> <Gold.Chemscore.ZeroCoef>
-5.4800

> <Gold.Chemscore.Hbond>
3.1071

> <Gold.Chemscore.Metal>
0.0000

> <Gold.Chemscore.Lipo>
54.6702

> <Gold.Chemscore.Internal_Hbond>
0.0000

> <Gold.Chemscore.DEClash>
0.0270

> <Gold.Chemscore.DEInternal>
1.0256

> <Gold.Chemscore.Rot>
1.3246

> <Gold.Chemscore.Internal.Correction>
   9.000000E+99

> <Gold.Chemscore.Hbonds>
donor molecule, donor type, donor heavy atom, donor atom, acceptor molecule, acceptor atom, score
      L1  H     9    24       P1  7948  0.85
      L1  H    13    39       P1 10957  0.48
      P1  H  7989  7998       L1     3  0.37
      P1  H 10752 10765       L1     6  0.88

> <Gold.Chemscore.Hbond.Weighted>
-10.3778

> <Gold.Chemscore.Metal.Weighted>
-0.0000

> <Gold.Chemscore.Lipo.Weighted>
-6.3964

> <Gold.Chemscore.Internal_Hbond.Weighted>
0.0000

> <Gold.Chemscore.DEClash.Weighted>
0.0270

> <Gold.Chemscore.DEInternal.Weighted>
1.0256

> <Gold.Chemscore.Rot.Weighted>
3.3910

> <Gold.Chemscore.Internal.Correction.Weighted>
   9.000000E+99

> <Gold.Protein.RotatedTorsions>
[ 6907 6896 6895 6894 ] final -160.67 input  -60.11 | X-H torsion
[ 7974 7965 7964 7962 ] final  -65.91 input  175.53 | X-H torsion
[ 8008 7997 7996 7995 ] final  -23.16 input   59.86 | X-H torsion
[ 10167 10162 10161 10158 ] final  119.23 input  -65.29 | X-H torsion
[ 10718 10713 10712 10709 ] final   38.98 input   66.30 | X-H torsion
[ 10763 10752 10751 10750 ] final  174.27 input  -60.55 | X-H torsion
[ 11005 11000 10999 10996 ] final -163.23 input  -57.11 | X-H torsion

> <Gold.Protein.ActiveResidues>
 VAL166  LYS551  ARG553  GLY616  TRP617  ASP618  TYR619  PRO620  LYS621  CYS622 
 ASP623  PHE694  ASN695  SER759  ASP760  ASP761  ALA762  ILE779  LEU786  VAL792 
 PHE793  MET794  SER795  GLU796  ALA797  LYS798  CYS799  TRP800  GLU811  SER814 

> <Gold.Protein.RotatedAtoms>
  151.3527  133.3919  159.2681 H   0  0  0  0  0  0  0  0  0  0  0  0  # atno 6907 bound_to 6896
  150.9788  134.9148  159.7842 H   0  0  0  0  0  0  0  0  0  0  0  0  # atno 6908 bound_to 6896
  152.5210  134.3490  159.9297 H   0  0  0  0  0  0  0  0  0  0  0  0  # atno 6909 bound_to 6896
  145.7483  140.8920  143.0493 H   0  0  0  0  0  0  0  0  0  0  0  0  # atno 7974 bound_to 7965
  154.4602  140.1988  156.0267 H   0  0  0  0  0  0  0  0  0  0  0  0  # atno 8008 bound_to 7997
  156.0824  140.3269  155.7682 H   0  0  0  0  0  0  0  0  0  0  0  0  # atno 8009 bound_to 7997
  155.5089  140.0560  157.2917 H   0  0  0  0  0  0  0  0  0  0  0  0  # atno 8010 bound_to 7997
  139.6059  144.7070  151.2954 H   0  0  0  0  0  0  0  0  0  0  0  0  # atno 10167 bound_to 10162
  157.3653  130.7671  149.7078 H   0  0  0  0  0  0  0  0  0  0  0  0  # atno 10718 bound_to 10713
  154.4516  135.2765  155.1777 H   0  0  0  0  0  0  0  0  0  0  0  0  # atno 10763 bound_to 10752
  154.3601  135.6131  153.5690 H   0  0  0  0  0  0  0  0  0  0  0  0  # atno 10764 bound_to 10752
  152.9847  135.5832  154.4862 H   0  0  0  0  0  0  0  0  0  0  0  0  # atno 10765 bound_to 10752
  140.6005  134.4952  157.5204 H   0  0  0  0  0  0  0  0  0  0  0  0  # atno 11005 bound_to 11000
  144.6855  139.9556  143.7479 LP  0  0  0  0  0  0  0  0  0  0  0  0  # atno 17320 bound_to 7965
  146.0381  139.3396  143.0714 LP  0  0  0  0  0  0  0  0  0  0  0  0  # atno 17321 bound_to 7965
  140.7284  143.6935  150.7902 LP  0  0  0  0  0  0  0  0  0  0  0  0  # atno 17342 bound_to 10162
  140.0521  143.5240  152.2669 LP  0  0  0  0  0  0  0  0  0  0  0  0  # atno 17343 bound_to 10162
  155.9745  130.4102  150.3920 LP  0  0  0  0  0  0  0  0  0  0  0  0  # atno 17370 bound_to 10713
  157.2003  131.0436  151.2654 LP  0  0  0  0  0  0  0  0  0  0  0  0  # atno 17371 bound_to 10713
  139.9235  134.8103  156.1140 LP  0  0  0  0  0  0  0  0  0  0  0  0  # atno 17394 bound_to 11000
  141.0875  133.6728  156.2469 LP  0  0  0  0  0  0  0  0  0  0  0  0  # atno 17395 bound_to 11000

$$$$
