AV-unprocessed.smi:497|AV-procd|sdf|2725|dock6
  -GOLD-   2262023173D 1   1.00000     0.00000
 Structure written by MMmdl.
 40 42  0  0  0  0  0  0  0  0  2 V2000
  148.0231  127.7626  151.3146 C   0  0  0  0  0  0  0  0  0  0  0  0
  148.0438  128.7848  152.2950 O   0  0  0  0  0  0  0  0  0  0  0  0
  146.7756  129.3960  152.4706 C   0  0  0  0  0  0  0  0  0  0  0  0
  146.8919  130.5385  153.4892 C   0  0  0  0  0  0  0  0  0  0  0  0
  146.9117  131.8597  152.8432 N   0  0  0  0  0  0  0  0  0  0  0  0
  147.7565  132.9193  153.0101 C   0  0  0  0  0  0  0  0  0  0  0  0
  148.9323  133.0085  153.9329 C   0  0  0  0  0  0  0  0  0  0  0  0
  149.4421  134.3671  154.0709 N   0  0  0  0  0  0  0  0  0  0  0  0
  150.3488  134.7633  154.9779 C   0  0  0  0  0  0  0  0  0  0  0  0
  150.8601  134.0047  155.8011 O   0  0  0  0  0  0  0  0  0  0  0  0
  150.7057  136.1943  154.9468 C   0  0  0  0  0  0  0  0  0  0  0  0
  150.0475  137.2825  154.4358 C   0  0  0  0  0  0  0  0  0  0  0  0
  150.8734  138.4130  154.6870 C   0  0  0  0  0  0  0  0  0  0  0  0
  151.9782  137.9353  155.3315 C   0  0  0  0  0  0  0  0  0  0  0  0
  151.8930  136.5870  155.4943 O   0  0  0  0  0  0  0  0  0  0  0  0
  147.3329  133.9071  152.1714 N   0  3  0  0  0  0  0  0  0  0  0  0
  146.2057  133.4808  151.4688 C   0  0  0  0  0  0  0  0  0  0  0  0
  145.4264  134.1295  150.5158 C   0  0  0  0  0  0  0  0  0  0  0  0
  144.3320  133.4077  149.9956 C   0  0  0  0  0  0  0  0  0  0  0  0
  144.0478  132.0948  150.4244 C   0  0  0  0  0  0  0  0  0  0  0  0
  144.8464  131.4472  151.3903 C   0  0  0  0  0  0  0  0  0  0  0  0
  145.9273  132.1673  151.8980 C   0  0  0  0  0  0  0  0  0  0  0  0
  149.0167  127.3238  151.2224 H   0  0  0  0  0  0  0  0  0  0  0  0
  147.7378  128.1581  150.3389 H   0  0  0  0  0  0  0  0  0  0  0  0
  147.3280  126.9676  151.5878 H   0  0  0  0  0  0  0  0  0  0  0  0
  146.4116  129.7863  151.5189 H   0  0  0  0  0  0  0  0  0  0  0  0
  146.0518  128.6570  152.8178 H   0  0  0  0  0  0  0  0  0  0  0  0
  146.0487  130.5121  154.1785 H   0  0  0  0  0  0  0  0  0  0  0  0
  147.7865  130.4283  154.1026 H   0  0  0  0  0  0  0  0  0  0  0  0
  148.6286  132.6545  154.9181 H   0  0  0  0  0  0  0  0  0  0  0  0
  149.7289  132.3417  153.6018 H   0  0  0  0  0  0  0  0  0  0  0  0
  149.0702  135.0620  153.4398 H   0  0  0  0  0  0  0  0  0  0  0  0
  149.0877  137.2704  153.9405 H   0  0  0  0  0  0  0  0  0  0  0  0
  150.6835  139.4444  154.4288 H   0  0  0  0  0  0  0  0  0  0  0  0
  152.8752  138.3921  155.7233 H   0  0  0  0  0  0  0  0  0  0  0  0
  145.6413  135.1357  150.1869 H   0  0  0  0  0  0  0  0  0  0  0  0
  143.6972  133.8706  149.2538 H   0  0  0  0  0  0  0  0  0  0  0  0
  143.1998  131.5735  150.0044 H   0  0  0  0  0  0  0  0  0  0  0  0
  144.6191  130.4421  151.7132 H   0  0  0  0  0  0  0  0  0  0  0  0
  147.7842  134.8089  152.0897 H   0  0  0  0  0  0  0  0  0  0  0  0
  1  2  1  0  0  0  0
  1 23  1  0  0  0  0
  1 24  1  0  0  0  0
  1 25  1  0  0  0  0
  2  3  1  0  0  0  0
  3  4  1  0  0  0  0
  3 26  1  0  0  0  0
  3 27  1  0  0  0  0
  4  5  1  0  0  0  0
  4 28  1  0  0  0  0
  4 29  1  0  0  0  0
  5 22  1  0  0  0  0
  5  6  1  0  0  0  0
  6  7  1  0  0  0  0
  6 16  2  0  0  0  0
  7  8  1  0  0  0  0
  7 30  1  0  0  0  0
  7 31  1  0  0  0  0
  8  9  1  0  0  0  0
  8 32  1  0  0  0  0
  9 10  2  0  0  0  0
  9 11  1  0  0  0  0
 11 15  1  0  0  0  0
 11 12  2  0  0  0  0
 12 13  1  0  0  0  0
 12 33  1  0  0  0  0
 13 14  2  0  0  0  0
 13 34  1  0  0  0  0
 14 15  1  0  0  0  0
 14 35  1  0  0  0  0
 16 17  1  0  0  0  0
 16 40  1  0  0  0  0
 17 22  2  0  0  0  0
 17 18  1  0  0  0  0
 18 19  2  0  0  0  0
 18 36  1  0  0  0  0
 19 20  1  0  0  0  0
 19 37  1  0  0  0  0
 20 21  2  0  0  0  0
 20 38  1  0  0  0  0
 21 22  1  0  0  0  0
 21 39  1  0  0  0  0
M  CHG  1  16   1
M  END
> <s_m_source_file>
AV-unprocessed.smi

> <i_m_source_file_index>
497

> <i_lp_mmshare_version>
43012

> <i_f3d_flags>
0

> <s_epik_input>
W2NIXTFbY0hdW2NIXVtjSF1jKGMxMiluKFtDSDJdW0NIMl1PW0NIM10pYyhuMilbQ0gyXVtOSF1DKD1PKWMzW2NIXVtjSF1bY0hdbzM=

> <s_epik_cmdline>
J2VwaWtfcHl0aG9uJywgJy1waCcsICc3LjAnLCAnLXRuJywgJzgnLCAnLW1hJywgJzIwMCcsICctbWV0YWxfYmluZGluZycsICctaW1hZScsICc8aW5maWxlLm1hZT4nLCAnLW9tYWUnLCAnPG91dGZpbGUubWFlPic=

> <r_epik_Ionization_Penalty>
1.26486

> <r_epik_Ionization_Penalty_Charging>
1.26483

> <r_epik_Ionization_Penalty_Neutral>
2.77772e-05

> <r_epik_State_Penalty>
1.33577

> <r_epik_Charging_Adjusted_Penalty>
2.6006

> <i_epik_Tot_Q>
1

> <i_epik_Tot_abs_Q>
1

> <r_epik_Metal_State_Penalty>
1.44158

> <b_epik_Metal_Only>
0

> <s_lp_Force_Field>
OPLS_2005

> <r_lp_Energy>
9.51778

> <b_lp_Chiralities_Consistent>
1

> <s_lp_Variant>
AV-unprocessed.smi:497-2

> <Gold.Version>
5.8.1

> <Gold.Id.Protein>
6NUR|6NUR_protein|mol2

> <Gold.PLP.Fitness>
53.0409

> <Gold.PLP.PLP>
-42.5870

> <Gold.PLP.part.hbond>
-3.0000

> <Gold.PLP.part.metal>
0.0000

> <Gold.PLP.part.buried>
-3.7215

> <Gold.PLP.part.nonpolar>
-36.2512

> <Gold.PLP.part.repulsive>
0.8700

> <Gold.PLP.ligand.clash>
0.0000

> <Gold.PLP.ligand.torsion>
0.7941

> <Gold.PLP.Chemscore.Hbond>
4.0000

> <Gold.PLP.Chemscore.CHOScore>
0.0000

> <Gold.PLP.Chemscore.Metal>
0.0000

> <Gold.Chemscore.Hbonds>
donor molecule, donor type, donor heavy atom, donor atom, acceptor molecule, acceptor atom, score
      L1  H     8    32       P1  7948  1.00
      L1  H    16    40       P1  7948  2.00
      P1  H 10752 10764       L1    15  1.00

> <Gold.PLP.Chemscore.Internal.Correction>
0.0420

> <Gold.Rescore>
     Score         DG    S(hbond)    S(metal)    S(lipo)     H(rot)  DE(clash)    DE(int)     intcor
     16.92     -19.09       2.14        0.00      98.14       1.96       0.37       1.80       ----

> <Gold.Chemscore.Fitness>
16.9226

> <Gold.Chemscore.DG>
-19.0877

> <Gold.Chemscore.ZeroCoef>
-5.4800

> <Gold.Chemscore.Hbond>
2.1366

> <Gold.Chemscore.Metal>
0.0000

> <Gold.Chemscore.Lipo>
98.1384

> <Gold.Chemscore.Internal_Hbond>
0.0000

> <Gold.Chemscore.DEClash>
0.3693

> <Gold.Chemscore.DEInternal>
1.7958

> <Gold.Chemscore.Rot>
1.9573

> <Gold.Chemscore.Internal.Correction>
   9.000000E+99

> <Gold.Chemscore.Hbonds>
donor molecule, donor type, donor heavy atom, donor atom, acceptor molecule, acceptor atom, score
      L1  H     8    32       P1  7948  0.29
      L1  H    16    40       P1  7948  0.65
      P1  H 10752 10764       L1    15  0.24

> <Gold.Chemscore.Hbond.Weighted>
-7.1361

> <Gold.Chemscore.Metal.Weighted>
-0.0000

> <Gold.Chemscore.Lipo.Weighted>
-11.4822

> <Gold.Chemscore.Internal_Hbond.Weighted>
0.0000

> <Gold.Chemscore.DEClash.Weighted>
0.3693

> <Gold.Chemscore.DEInternal.Weighted>
1.7958

> <Gold.Chemscore.Rot.Weighted>
5.0107

> <Gold.Chemscore.Internal.Correction.Weighted>
   9.000000E+99

> <Gold.Protein.RotatedTorsions>
[ 6907 6896 6895 6894 ] final  -85.08 input  -60.11 | X-H torsion
[ 7974 7965 7964 7962 ] final   38.04 input  175.53 | X-H torsion
[ 8008 7997 7996 7995 ] final  147.49 input   59.86 | X-H torsion
[ 10167 10162 10161 10158 ] final  -50.41 input  -65.29 | X-H torsion
[ 10718 10713 10712 10709 ] final   72.55 input   66.30 | X-H torsion
[ 10763 10752 10751 10750 ] final  -57.94 input  -60.55 | X-H torsion
[ 11005 11000 10999 10996 ] final -132.91 input  -57.11 | X-H torsion

> <Gold.Protein.ActiveResidues>
 VAL166  LYS551  ARG553  GLY616  TRP617  ASP618  TYR619  PRO620  LYS621  CYS622 
 ASP623  PHE694  ASN695  SER759  ASP760  ASP761  ALA762  ILE779  LEU786  VAL792 
 PHE793  MET794  SER795  GLU796  ALA797  LYS798  CYS799  TRP800  GLU811  SER814 

> <Gold.Protein.RotatedAtoms>
  150.6872  134.3260  159.4806 H   0  0  0  0  0  0  0  0  0  0  0  0  # atno 6907 bound_to 6896
  152.1130  134.9258  160.0575 H   0  0  0  0  0  0  0  0  0  0  0  0  # atno 6908 bound_to 6896
  152.0493  133.3977  159.4407 H   0  0  0  0  0  0  0  0  0  0  0  0  # atno 6909 bound_to 6896
  146.1092  139.5820  142.9363 H   0  0  0  0  0  0  0  0  0  0  0  0  # atno 7974 bound_to 7965
  156.2823  140.2154  156.5547 H   0  0  0  0  0  0  0  0  0  0  0  0  # atno 8008 bound_to 7997
  154.7262  140.0499  157.0708 H   0  0  0  0  0  0  0  0  0  0  0  0  # atno 8009 bound_to 7997
  155.0413  140.3146  155.4727 H   0  0  0  0  0  0  0  0  0  0  0  0  # atno 8010 bound_to 7997
  140.6639  143.2659  151.4355 H   0  0  0  0  0  0  0  0  0  0  0  0  # atno 10167 bound_to 10162
  157.6506  130.9584  150.0945 H   0  0  0  0  0  0  0  0  0  0  0  0  # atno 10718 bound_to 10713
  154.2303  135.6362  153.5173 H   0  0  0  0  0  0  0  0  0  0  0  0  # atno 10763 bound_to 10752
  152.9950  135.5518  154.6019 H   0  0  0  0  0  0  0  0  0  0  0  0  # atno 10764 bound_to 10752
  154.5501  135.2901  155.0991 H   0  0  0  0  0  0  0  0  0  0  0  0  # atno 10765 bound_to 10752
  140.9128  134.1546  157.4376 H   0  0  0  0  0  0  0  0  0  0  0  0  # atno 11005 bound_to 11000
  145.5699  141.0395  143.2180 LP  0  0  0  0  0  0  0  0  0  0  0  0  # atno 17320 bound_to 7965
  144.7497  139.7227  143.7278 LP  0  0  0  0  0  0  0  0  0  0  0  0  # atno 17321 bound_to 7965
  139.5881  144.1560  152.2054 LP  0  0  0  0  0  0  0  0  0  0  0  0  # atno 17342 bound_to 10162
  140.0905  144.5624  150.7058 LP  0  0  0  0  0  0  0  0  0  0  0  0  # atno 17343 bound_to 10162
  156.1885  130.3653  149.8941 LP  0  0  0  0  0  0  0  0  0  0  0  0  # atno 17370 bound_to 10713
  156.6875  130.8883  151.3584 LP  0  0  0  0  0  0  0  0  0  0  0  0  # atno 17371 bound_to 10713
  139.8760  134.9942  156.5682 LP  0  0  0  0  0  0  0  0  0  0  0  0  # atno 17394 bound_to 11000
  140.8089  133.8445  155.8792 LP  0  0  0  0  0  0  0  0  0  0  0  0  # atno 17395 bound_to 11000

$$$$
