AV-unprocessed.smi:910|AV-procd|sdf|4133|dock5
  -GOLD-   22720 2 33D 1   1.00000     0.00000
 Structure written by MMmdl.
 45 46  0  0  0  0  0  0  0  0  2 V2000
  144.5058  137.1138  156.0599 C   0  0  0  0  0  0  0  0  0  0  0  0
  145.4041  138.1093  155.3968 C   0  0  0  0  0  0  0  0  0  0  0  0
  145.8829  139.2275  156.0609 N   0  0  0  0  0  0  0  0  0  0  0  0
  146.6484  139.8742  155.1794 C   0  0  0  0  0  0  0  0  0  0  0  0
  147.3288  141.0097  155.4037 N   0  5  0  0  0  0  0  0  0  0  0  0
  148.6699  141.0240  155.2323 C   0  0  0  0  0  0  0  0  0  0  0  0
  149.2726  140.7707  154.1863 O   0  0  0  0  0  0  0  0  0  0  0  0
  149.3556  141.3242  156.3451 N   0  0  0  0  0  0  0  0  0  0  0  0
  150.8079  141.2793  156.4911 C   0  0  0  0  0  0  0  0  0  0  0  0
  151.2072  140.9857  157.9458 C   0  0  0  0  0  0  0  0  0  0  0  0
  151.1939  142.2029  158.6761 O   0  0  0  0  0  0  0  0  0  0  0  0
  152.4016  142.9529  158.6568 C   0  0  1  0  0  0  0  0  0  0  0  0
  152.1091  144.4667  158.5540 C   0  0  0  0  0  0  0  0  0  0  0  0
  151.3398  144.9839  159.7811 C   0  0  0  0  0  0  0  0  0  0  0  0
  152.0828  144.6576  161.0848 C   0  0  0  0  0  0  0  0  0  0  0  0
  152.3927  143.1562  161.1939 C   0  0  0  0  0  0  0  0  0  0  0  0
  153.1686  142.6432  159.9623 C   0  0  1  0  0  0  0  0  0  0  0  0
  153.5165  141.1516  160.0880 C   0  0  0  0  0  0  0  0  0  0  0  0
  146.6797  139.2471  153.9694 O   0  0  0  0  0  0  0  0  0  0  0  0
  145.8958  138.1357  154.1193 C   0  0  0  0  0  0  0  0  0  0  0  0
  145.7393  137.2276  152.9474 C   0  0  0  0  0  0  0  0  0  0  0  0
  143.4603  137.4070  155.9651 H   0  0  0  0  0  0  0  0  0  0  0  0
  144.7306  137.0241  157.1230 H   0  0  0  0  0  0  0  0  0  0  0  0
  144.6146  136.1243  155.6158 H   0  0  0  0  0  0  0  0  0  0  0  0
  148.8203  141.5324  157.1750 H   0  0  0  0  0  0  0  0  0  0  0  0
  151.2495  140.5481  155.8121 H   0  0  0  0  0  0  0  0  0  0  0  0
  151.2005  142.2519  156.1950 H   0  0  0  0  0  0  0  0  0  0  0  0
  150.5001  140.2889  158.3973 H   0  0  0  0  0  0  0  0  0  0  0  0
  152.1879  140.5114  157.9667 H   0  0  0  0  0  0  0  0  0  0  0  0
  153.0100  142.6383  157.8071 H   0  0  0  0  0  0  0  0  0  0  0  0
  153.0530  145.0070  158.4733 H   0  0  0  0  0  0  0  0  0  0  0  0
  151.5565  144.7014  157.6453 H   0  0  0  0  0  0  0  0  0  0  0  0
  151.1894  146.0604  159.6999 H   0  0  0  0  0  0  0  0  0  0  0  0
  150.3459  144.5376  159.8062 H   0  0  0  0  0  0  0  0  0  0  0  0
  153.0128  145.2258  161.1262 H   0  0  0  0  0  0  0  0  0  0  0  0
  151.4858  144.9765  161.9398 H   0  0  0  0  0  0  0  0  0  0  0  0
  152.9676  142.9695  162.1013 H   0  0  0  0  0  0  0  0  0  0  0  0
  151.4600  142.6011  161.3035 H   0  0  0  0  0  0  0  0  0  0  0  0
  154.1146  143.1853  159.9223 H   0  0  0  0  0  0  0  0  0  0  0  0
  152.6188  140.5370  160.1628 H   0  0  0  0  0  0  0  0  0  0  0  0
  154.1200  140.9642  160.9763 H   0  0  0  0  0  0  0  0  0  0  0  0
  154.0854  140.8075  159.2241 H   0  0  0  0  0  0  0  0  0  0  0  0
  146.2269  136.2709  153.1342 H   0  0  0  0  0  0  0  0  0  0  0  0
  146.1816  137.6640  152.0516 H   0  0  0  0  0  0  0  0  0  0  0  0
  144.6851  137.0373  152.7456 H   0  0  0  0  0  0  0  0  0  0  0  0
  1 22  1  0  0  0  0
  1 23  1  0  0  0  0
  1 24  1  0  0  0  0
  1  2  1  0  0  0  0
  2  3  1  0  0  0  0
  2 20  2  0  0  0  0
  3  4  2  0  0  0  0
  4 19  1  0  0  0  0
  4  5  1  0  0  0  0
  5  6  1  0  0  0  0
  6  8  1  0  0  0  0
  6  7  2  0  0  0  0
  8  9  1  0  0  0  0
  8 25  1  0  0  0  0
  9 10  1  0  0  0  0
  9 26  1  0  0  0  0
  9 27  1  0  0  0  0
 10 11  1  0  0  0  0
 10 28  1  0  0  0  0
 10 29  1  0  0  0  0
 11 12  1  0  0  0  0
 12 17  1  0  0  0  0
 12 13  1  0  0  0  0
 12 30  1  0  0  0  0
 13 14  1  0  0  0  0
 13 31  1  0  0  0  0
 13 32  1  0  0  0  0
 14 15  1  0  0  0  0
 14 33  1  0  0  0  0
 14 34  1  0  0  0  0
 15 16  1  0  0  0  0
 15 35  1  0  0  0  0
 15 36  1  0  0  0  0
 16 17  1  0  0  0  0
 16 37  1  0  0  0  0
 16 38  1  0  0  0  0
 17 18  1  0  0  0  0
 17 39  1  0  0  0  0
 18 40  1  0  0  0  0
 18 41  1  0  0  0  0
 18 42  1  0  0  0  0
 19 20  1  0  0  0  0
 20 21  1  0  0  0  0
 21 43  1  0  0  0  0
 21 44  1  0  0  0  0
 21 45  1  0  0  0  0
M  CHG  1   5  -1
M  END
> <s_m_source_file>
AV-unprocessed.smi

> <i_m_source_file_index>
910

> <i_lp_mmshare_version>
43012

> <i_f3d_flags>
0

> <s_epik_input>
W0NIM11jMW5jKG9jMVtDSDNdKVtOSF1DKD1PKVtOSF1bQ0gyXVtDSDJdT1tDQEBIXTJbQ0gyXVtDSDJdW0NIMl1bQ0gyXVtDQEhdMltDSDNd

> <s_epik_cmdline>
J2VwaWtfcHl0aG9uJywgJy1waCcsICc3LjAnLCAnLXRuJywgJzgnLCAnLW1hJywgJzIwMCcsICctbWV0YWxfYmluZGluZycsICctaW1hZScsICc8aW5maWxlLm1hZT4nLCAnLW9tYWUnLCAnPG91dGZpbGUubWFlPic=

> <r_lp_tautomer_probability>
0.107061

> <r_epik_Ionization_Penalty>
10.1763

> <r_epik_Ionization_Penalty_Charging>
7.13067

> <r_epik_Ionization_Penalty_Neutral>
3.04564

> <r_epik_State_Penalty>
5.57927

> <r_epik_Charging_Adjusted_Penalty>
12.7099

> <i_epik_Tot_Q>
-1

> <i_epik_Tot_abs_Q>
1

> <r_epik_Metal_State_Penalty>
1.52303

> <b_epik_Metal_Only>
1

> <s_lp_Force_Field>
OPLS_2005

> <r_lp_Energy>
4.58121

> <b_lp_Chiralities_Consistent>
1

> <s_lp_Variant>
AV-unprocessed.smi:910-18

> <Gold.Version>
5.8.1

> <Gold.Id.Protein>
6NUR|6NUR_protein|mol2

> <Gold.PLP.Fitness>
40.5107

> <Gold.PLP.PLP>
-40.7937

> <Gold.PLP.part.hbond>
-2.7665

> <Gold.PLP.part.metal>
0.0000

> <Gold.PLP.part.buried>
-4.3764

> <Gold.PLP.part.nonpolar>
-36.8533

> <Gold.PLP.part.repulsive>
2.5293

> <Gold.PLP.ligand.clash>
0.0000

> <Gold.PLP.ligand.torsion>
2.1296

> <Gold.PLP.Chemscore.Hbond>
1.2800

> <Gold.PLP.Chemscore.CHOScore>
0.0000

> <Gold.PLP.Chemscore.Metal>
0.0000

> <Gold.PLP.Chemscore.Internal.Correction>
0.1362

> <Gold.Rescore>
     Score         DG    S(hbond)    S(metal)    S(lipo)     H(rot)  DE(clash)    DE(int)     intcor
     14.39     -17.90       1.13        0.00     109.21       1.62       1.34       2.16       ----

> <Gold.Chemscore.Fitness>
14.3934

> <Gold.Chemscore.DG>
-17.8956

> <Gold.Chemscore.ZeroCoef>
-5.4800

> <Gold.Chemscore.Hbond>
1.1310

> <Gold.Chemscore.Metal>
0.0000

> <Gold.Chemscore.Lipo>
109.2091

> <Gold.Chemscore.Internal_Hbond>
0.0000

> <Gold.Chemscore.DEClash>
1.3376

> <Gold.Chemscore.DEInternal>
2.1646

> <Gold.Chemscore.Rot>
1.6169

> <Gold.Chemscore.Internal.Correction>
   9.000000E+99

> <Gold.Chemscore.Hbonds>
donor molecule, donor type, donor heavy atom, donor atom, acceptor molecule, acceptor atom, score
      P1  H  7989  7998       L1     7  0.04
      P1  H  8011  8017       L1     7  0.01

> <Gold.Chemscore.Hbond.Weighted>
-3.7774

> <Gold.Chemscore.Metal.Weighted>
-0.0000

> <Gold.Chemscore.Lipo.Weighted>
-12.7775

> <Gold.Chemscore.Internal_Hbond.Weighted>
0.0000

> <Gold.Chemscore.DEClash.Weighted>
1.3376

> <Gold.Chemscore.DEInternal.Weighted>
2.1646

> <Gold.Chemscore.Rot.Weighted>
4.1393

> <Gold.Chemscore.Internal.Correction.Weighted>
   9.000000E+99

> <Gold.Protein.RotatedTorsions>
[ 6907 6896 6895 6894 ] final -147.54 input  -60.11 | X-H torsion
[ 7974 7965 7964 7962 ] final   30.65 input  175.53 | X-H torsion
[ 8008 7997 7996 7995 ] final   38.95 input   59.86 | X-H torsion
[ 10167 10162 10161 10158 ] final -124.35 input  -65.29 | X-H torsion
[ 10718 10713 10712 10709 ] final   77.20 input   66.30 | X-H torsion
[ 10763 10752 10751 10750 ] final  119.19 input  -60.55 | X-H torsion
[ 11005 11000 10999 10996 ] final   98.39 input  -57.11 | X-H torsion

> <Gold.Protein.ActiveResidues>
 VAL166  LYS551  ARG553  GLY616  TRP617  ASP618  TYR619  PRO620  LYS621  CYS622 
 ASP623  PHE694  ASN695  SER759  ASP760  ASP761  ALA762  ILE779  LEU786  VAL792 
 PHE793  MET794  SER795  GLU796  ALA797  LYS798  CYS799  TRP800  GLU811  SER814 

> <Gold.Protein.RotatedAtoms>
  151.1571  133.4869  159.2594 H   0  0  0  0  0  0  0  0  0  0  0  0  # atno 6907 bound_to 6896
  151.1493  135.0219  159.8671 H   0  0  0  0  0  0  0  0  0  0  0  0  # atno 6908 bound_to 6896
  152.5463  134.1456  159.8550 H   0  0  0  0  0  0  0  0  0  0  0  0  # atno 6909 bound_to 6896
  146.1599  139.6761  142.9041 H   0  0  0  0  0  0  0  0  0  0  0  0  # atno 7974 bound_to 7965
  155.2287  140.3336  155.4306 H   0  0  0  0  0  0  0  0  0  0  0  0  # atno 8008 bound_to 7997
  156.2304  140.1848  156.7304 H   0  0  0  0  0  0  0  0  0  0  0  0  # atno 8009 bound_to 7997
  154.5968  140.0629  156.9300 H   0  0  0  0  0  0  0  0  0  0  0  0  # atno 8010 bound_to 7997
  139.9937  143.5614  152.2332 H   0  0  0  0  0  0  0  0  0  0  0  0  # atno 10167 bound_to 10162
  157.6702  130.9810  150.1607 H   0  0  0  0  0  0  0  0  0  0  0  0  # atno 10718 bound_to 10713
  153.5791  135.3487  155.2868 H   0  0  0  0  0  0  0  0  0  0  0  0  # atno 10763 bound_to 10752
  154.8670  135.4178  154.2640 H   0  0  0  0  0  0  0  0  0  0  0  0  # atno 10764 bound_to 10752
  153.3422  135.7050  153.6928 H   0  0  0  0  0  0  0  0  0  0  0  0  # atno 10765 bound_to 10752
  139.8772  134.9046  156.4449 H   0  0  0  0  0  0  0  0  0  0  0  0  # atno 11005 bound_to 11000
  145.4615  141.0433  143.2749 LP  0  0  0  0  0  0  0  0  0  0  0  0  # atno 17320 bound_to 7965
  144.8013  139.6136  143.7070 LP  0  0  0  0  0  0  0  0  0  0  0  0  # atno 17321 bound_to 7965
  139.6321  144.7645  151.2513 LP  0  0  0  0  0  0  0  0  0  0  0  0  # atno 17342 bound_to 10162
  140.7445  143.6461  150.8291 LP  0  0  0  0  0  0  0  0  0  0  0  0  # atno 17343 bound_to 10162
  156.2384  130.3688  149.8365 LP  0  0  0  0  0  0  0  0  0  0  0  0  # atno 17370 bound_to 10713
  156.6172  130.8611  151.3467 LP  0  0  0  0  0  0  0  0  0  0  0  0  # atno 17371 bound_to 10713
  140.8973  133.7805  155.9640 LP  0  0  0  0  0  0  0  0  0  0  0  0  # atno 17394 bound_to 11000
  140.8689  134.2751  157.5200 LP  0  0  0  0  0  0  0  0  0  0  0  0  # atno 17395 bound_to 11000

$$$$
