AV-unprocessed.smi:1437|AV-procd|sdf|5864|dock6
  -GOLD-   22720 5533D 1   1.00000     0.00000
 Structure written by MMmdl.
 36 37  0  0  0  0  0  0  0  0  2 V2000
  153.4193  141.5379  159.8158 C   0  0  0  0  0  0  0  0  0  0  0  0
  152.5117  141.4435  158.6376 C   0  0  0  0  0  0  0  0  0  0  0  0
  151.4941  142.2341  158.1823 C   0  0  0  0  0  0  0  0  0  0  0  0
  151.0596  141.5542  157.0137 C   0  0  0  0  0  0  0  0  0  0  0  0
  149.9914  142.0620  156.2309 N   0  0  0  0  0  0  0  0  0  0  0  0
  149.2892  141.4130  155.2864 C   0  0  0  0  0  0  0  0  0  0  0  0
  149.4733  140.2457  154.9410 O   0  0  0  0  0  0  0  0  0  0  0  0
  148.3458  142.2018  154.7512 N   0  0  0  0  0  0  0  0  0  0  0  0
  147.3965  141.7972  153.7143 C   0  0  2  0  0  0  0  0  0  0  0  0
  146.2284  142.7956  153.5806 C   0  0  0  0  0  0  0  0  0  0  0  0
  145.2756  142.7335  154.7875 C   0  0  0  0  0  0  0  0  0  0  0  0
  144.7709  141.3536  154.9965 N   0  3  2  0  0  0  0  0  0  0  0  0
  143.7553  141.2814  156.0688 C   0  0  0  0  0  0  0  0  0  0  0  0
  145.8740  140.3816  155.1986 C   0  0  0  0  0  0  0  0  0  0  0  0
  146.8477  140.3888  154.0056 C   0  0  0  0  0  0  0  0  0  0  0  0
  151.7497  140.4493  156.7761 N   0  0  0  0  0  0  0  0  0  0  0  0
  152.6836  140.3723  157.8160 O   0  0  0  0  0  0  0  0  0  0  0  0
  153.4722  142.5623  160.1845 H   0  0  0  0  0  0  0  0  0  0  0  0
  154.4294  141.2207  159.5554 H   0  0  0  0  0  0  0  0  0  0  0  0
  153.0629  140.9037  160.6276 H   0  0  0  0  0  0  0  0  0  0  0  0
  151.1229  143.1493  158.6191 H   0  0  0  0  0  0  0  0  0  0  0  0
  149.7318  143.0195  156.4152 H   0  0  0  0  0  0  0  0  0  0  0  0
  148.2651  143.1453  155.1010 H   0  0  0  0  0  0  0  0  0  0  0  0
  147.9354  141.7585  152.7656 H   0  0  0  0  0  0  0  0  0  0  0  0
  146.6016  143.8119  153.4498 H   0  0  0  0  0  0  0  0  0  0  0  0
  145.6663  142.5653  152.6745 H   0  0  0  0  0  0  0  0  0  0  0  0
  145.7827  143.0800  155.6896 H   0  0  0  0  0  0  0  0  0  0  0  0
  144.4349  143.4078  154.6193 H   0  0  0  0  0  0  0  0  0  0  0  0
  144.1835  141.5589  157.0329 H   0  0  0  0  0  0  0  0  0  0  0  0
  143.3541  140.2706  156.1511 H   0  0  0  0  0  0  0  0  0  0  0  0
  142.9223  141.9526  155.8575 H   0  0  0  0  0  0  0  0  0  0  0  0
  146.4042  140.6167  156.1228 H   0  0  0  0  0  0  0  0  0  0  0  0
  145.4589  139.3803  155.3196 H   0  0  0  0  0  0  0  0  0  0  0  0
  146.3269  140.0196  153.1210 H   0  0  0  0  0  0  0  0  0  0  0  0
  147.6673  139.6919  154.1857 H   0  0  0  0  0  0  0  0  0  0  0  0
  144.3035  141.0863  154.1416 H   0  0  0  0  0  0  0  0  0  0  0  0
  1  2  1  0  0  0  0
  1 18  1  0  0  0  0
  1 19  1  0  0  0  0
  1 20  1  0  0  0  0
  2 17  1  0  0  0  0
  2  3  2  0  0  0  0
  3  4  1  0  0  0  0
  3 21  1  0  0  0  0
  4  5  1  0  0  0  0
  4 16  2  0  0  0  0
  5  6  1  0  0  0  0
  5 22  1  0  0  0  0
  6  7  2  0  0  0  0
  6  8  1  0  0  0  0
  8  9  1  0  0  0  0
  8 23  1  0  0  0  0
  9 15  1  0  0  0  0
  9 10  1  0  0  0  0
  9 24  1  0  0  0  0
 10 11  1  0  0  0  0
 10 25  1  0  0  0  0
 10 26  1  0  0  0  0
 11 12  1  0  0  0  0
 11 27  1  0  0  0  0
 11 28  1  0  0  0  0
 12 13  1  0  0  0  0
 12 14  1  0  0  0  0
 12 36  1  0  0  0  0
 13 29  1  0  0  0  0
 13 30  1  0  0  0  0
 13 31  1  0  0  0  0
 14 15  1  0  0  0  0
 14 32  1  0  0  0  0
 14 33  1  0  0  0  0
 15 34  1  0  0  0  0
 15 35  1  0  0  0  0
 16 17  1  0  0  0  0
M  CHG  1  12   1
M  END
> <s_m_source_file>
AV-unprocessed.smi

> <i_m_source_file_index>
1437

> <i_lp_mmshare_version>
43012

> <i_f3d_flags>
0

> <s_epik_input>
W0NIM11jMVtjSF1jKG5vMSlbTkhdQyg9TylbTkhdW0NIXTJbQ0gyXVtDSDJdTihbQ0gzXSlbQ0gyXVtDSDJdMg==

> <s_epik_cmdline>
J2VwaWtfcHl0aG9uJywgJy1waCcsICc3LjAnLCAnLXRuJywgJzgnLCAnLW1hJywgJzIwMCcsICctbWV0YWxfYmluZGluZycsICctaW1hZScsICc8aW5maWxlLm1hZT4nLCAnLW9tYWUnLCAnPG91dGZpbGUubWFlPic=

> <r_epik_Ionization_Penalty>
0.00408962

> <r_epik_Ionization_Penalty_Charging>
0.00405645

> <r_epik_Ionization_Penalty_Neutral>
3.31706e-05

> <r_epik_State_Penalty>
0.00290716

> <r_epik_Charging_Adjusted_Penalty>
0.00696361

> <i_epik_Tot_Q>
1

> <i_epik_Tot_abs_Q>
1

> <r_epik_Metal_State_Penalty>
0.0142111

> <b_epik_Metal_Only>
0

> <s_lp_Force_Field>
OPLS_2005

> <r_lp_Energy>
12.346

> <b_lp_Chiralities_Consistent>
1

> <s_lp_Variant>
AV-unprocessed.smi:1437-2

> <Gold.Version>
5.8.1

> <Gold.Id.Protein>
6NUR|6NUR_protein|mol2

> <Gold.PLP.Fitness>
42.1912

> <Gold.PLP.PLP>
-28.2929

> <Gold.PLP.part.hbond>
-4.0000

> <Gold.PLP.part.metal>
0.0000

> <Gold.PLP.part.buried>
-5.6316

> <Gold.PLP.part.nonpolar>
-18.3944

> <Gold.PLP.part.repulsive>
0.3680

> <Gold.PLP.ligand.clash>
0.0000

> <Gold.PLP.ligand.torsion>
0.2648

> <Gold.PLP.Chemscore.Hbond>
4.8080

> <Gold.PLP.Chemscore.CHOScore>
0.0000

> <Gold.PLP.Chemscore.Metal>
0.0000

> <Gold.Chemscore.Hbonds>
donor molecule, donor type, donor heavy atom, donor atom, acceptor molecule, acceptor atom, score
      L1  H     5    22       P1  8028  0.90
      L1  H     8    23       P1  8028  1.00
      L1  H    12    36       P1 10175  2.00
      P1  H  7997  8010       L1    17  0.83

> <Gold.PLP.Chemscore.Internal.Correction>
0.0038

> <Gold.Rescore>
     Score         DG    S(hbond)    S(metal)    S(lipo)     H(rot)  DE(clash)    DE(int)     intcor
     17.45     -20.53       3.33        0.00      55.51       1.00       0.33       2.75       ----

> <Gold.Chemscore.Fitness>
17.4452

> <Gold.Chemscore.DG>
-20.5260

> <Gold.Chemscore.ZeroCoef>
-5.4800

> <Gold.Chemscore.Hbond>
3.3268

> <Gold.Chemscore.Metal>
0.0000

> <Gold.Chemscore.Lipo>
55.5098

> <Gold.Chemscore.Internal_Hbond>
0.0000

> <Gold.Chemscore.DEClash>
0.3268

> <Gold.Chemscore.DEInternal>
2.7540

> <Gold.Chemscore.Rot>
1.0000

> <Gold.Chemscore.Internal.Correction>
   9.000000E+99

> <Gold.Chemscore.Hbonds>
donor molecule, donor type, donor heavy atom, donor atom, acceptor molecule, acceptor atom, score
      L1  H     5    22       P1  8028  0.82
      L1  H     8    23       P1  8028  0.97
      L1  H    12    36       P1 10175  0.78
      P1  H  7997  8010       L1    17  0.42

> <Gold.Chemscore.Hbond.Weighted>
-11.1114

> <Gold.Chemscore.Metal.Weighted>
-0.0000

> <Gold.Chemscore.Lipo.Weighted>
-6.4946

> <Gold.Chemscore.Internal_Hbond.Weighted>
0.0000

> <Gold.Chemscore.DEClash.Weighted>
0.3268

> <Gold.Chemscore.DEInternal.Weighted>
2.7540

> <Gold.Chemscore.Rot.Weighted>
2.5600

> <Gold.Chemscore.Internal.Correction.Weighted>
   9.000000E+99

> <Gold.Protein.RotatedTorsions>
[ 6907 6896 6895 6894 ] final -163.93 input  -60.11 | X-H torsion
[ 7974 7965 7964 7962 ] final  131.08 input  175.53 | X-H torsion
[ 8008 7997 7996 7995 ] final   41.92 input   59.86 | X-H torsion
[ 10167 10162 10161 10158 ] final  128.08 input  -65.29 | X-H torsion
[ 10718 10713 10712 10709 ] final  132.01 input   66.30 | X-H torsion
[ 10763 10752 10751 10750 ] final   78.35 input  -60.55 | X-H torsion
[ 11005 11000 10999 10996 ] final -160.13 input  -57.11 | X-H torsion

> <Gold.Protein.ActiveResidues>
 VAL166  LYS551  ARG553  GLY616  TRP617  ASP618  TYR619  PRO620  LYS621  CYS622 
 ASP623  PHE694  ASN695  SER759  ASP760  ASP761  ALA762  ILE779  LEU786  VAL792 
 PHE793  MET794  SER795  GLU796  ALA797  LYS798  CYS799  TRP800  GLU811  SER814 

> <Gold.Protein.RotatedAtoms>
  151.4038  133.3749  159.2735 H   0  0  0  0  0  0  0  0  0  0  0  0  # atno 6907 bound_to 6896
  150.9414  134.8824  159.7625 H   0  0  0  0  0  0  0  0  0  0  0  0  # atno 6908 bound_to 6896
  152.5073  134.3989  159.9461 H   0  0  0  0  0  0  0  0  0  0  0  0  # atno 6909 bound_to 6896
  145.0111  139.4220  143.5244 H   0  0  0  0  0  0  0  0  0  0  0  0  # atno 7974 bound_to 7965
  155.2775  140.3370  155.4260 H   0  0  0  0  0  0  0  0  0  0  0  0  # atno 8008 bound_to 7997
  156.2105  140.1768  156.7747 H   0  0  0  0  0  0  0  0  0  0  0  0  # atno 8009 bound_to 7997
  154.5679  140.0675  156.8904 H   0  0  0  0  0  0  0  0  0  0  0  0  # atno 8010 bound_to 7997
  139.5545  144.6838  151.4223 H   0  0  0  0  0  0  0  0  0  0  0  0  # atno 10167 bound_to 10162
  157.4912  131.1090  150.9554 H   0  0  0  0  0  0  0  0  0  0  0  0  # atno 10718 bound_to 10713
  153.0868  135.4880  154.8612 H   0  0  0  0  0  0  0  0  0  0  0  0  # atno 10763 bound_to 10752
  154.7220  135.3041  154.9034 H   0  0  0  0  0  0  0  0  0  0  0  0  # atno 10764 bound_to 10752
  153.9696  135.6803  153.4800 H   0  0  0  0  0  0  0  0  0  0  0  0  # atno 10765 bound_to 10752
  140.6349  134.4612  157.5231 H   0  0  0  0  0  0  0  0  0  0  0  0  # atno 11005 bound_to 11000
  146.3470  139.9555  142.8723 LP  0  0  0  0  0  0  0  0  0  0  0  0  # atno 17320 bound_to 7965
  145.2022  140.9859  143.4149 LP  0  0  0  0  0  0  0  0  0  0  0  0  # atno 17321 bound_to 7965
  140.6815  143.8070  150.7128 LP  0  0  0  0  0  0  0  0  0  0  0  0  # atno 17342 bound_to 10162
  140.1525  143.4345  152.2121 LP  0  0  0  0  0  0  0  0  0  0  0  0  # atno 17343 bound_to 10162
  157.0255  130.5690  149.5336 LP  0  0  0  0  0  0  0  0  0  0  0  0  # atno 17370 bound_to 10713
  156.0174  130.5269  150.8176 LP  0  0  0  0  0  0  0  0  0  0  0  0  # atno 17371 bound_to 10713
  139.9102  134.8362  156.1557 LP  0  0  0  0  0  0  0  0  0  0  0  0  # atno 17394 bound_to 11000
  141.0649  133.6824  156.2024 LP  0  0  0  0  0  0  0  0  0  0  0  0  # atno 17395 bound_to 11000

$$$$
