AV-unprocessed.smi:3250|AV-procd|sdf|12426|dock2
  -GOLD-   2272018313D 1   1.00000     0.00000
 Structure written by MMmdl.
 39 40  0  0  0  0  0  0  0  0  2 V2000
  145.2511  135.9974  151.7211 C   0  0  0  0  0  0  0  0  0  0  0  0
  145.5328  137.3385  152.4134 C   0  0  0  0  0  0  0  0  0  0  0  0
  146.8497  137.3558  153.1043 N   0  3  2  0  0  0  0  0  0  0  0  0
  146.8087  136.7815  154.4712 C   0  0  0  0  0  0  0  0  0  0  0  0
  146.2135  137.7827  155.4770 C   0  0  0  0  0  0  0  0  0  0  0  0
  146.9664  138.9884  155.4431 O   0  0  0  0  0  0  0  0  0  0  0  0
  146.9199  139.6273  154.1708 C   0  0  1  0  0  0  0  0  0  0  0  0
  147.7079  140.9406  154.2675 C   0  0  0  0  0  0  0  0  0  0  0  0
  149.1426  140.7156  154.1757 N   0  0  0  0  0  0  0  0  0  0  0  0
  149.9833  140.6288  155.2689 C   0  0  0  0  0  0  0  0  0  0  0  0
  149.6434  141.3826  156.3164 N   0  0  0  0  0  0  0  0  0  0  0  0
  150.4443  141.3197  157.4024 C   0  0  0  0  0  0  0  0  0  0  0  0
  151.5888  140.4982  157.4343 C   0  0  0  0  0  0  0  0  0  0  0  0
  151.8546  139.7444  156.2734 C   0  0  0  0  0  0  0  0  0  0  0  0
  152.9594  138.9192  156.2389 O   0  0  0  0  0  0  0  0  0  0  0  0
  153.1540  138.1070  155.0867 C   0  0  0  0  0  0  0  0  0  0  0  0
  151.0428  139.8159  155.1886 N   0  0  0  0  0  0  0  0  0  0  0  0
  147.5315  138.6762  153.1180 C   0  0  0  0  0  0  0  0  0  0  0  0
  144.2409  135.9840  151.3115 H   0  0  0  0  0  0  0  0  0  0  0  0
  145.3330  135.1664  152.4222 H   0  0  0  0  0  0  0  0  0  0  0  0
  145.9357  135.8104  150.8942 H   0  0  0  0  0  0  0  0  0  0  0  0
  145.4533  138.1589  151.7004 H   0  0  0  0  0  0  0  0  0  0  0  0
  144.7448  137.4988  153.1502 H   0  0  0  0  0  0  0  0  0  0  0  0
  146.2533  135.8430  154.4810 H   0  0  0  0  0  0  0  0  0  0  0  0
  147.8285  136.5358  154.7702 H   0  0  0  0  0  0  0  0  0  0  0  0
  145.1628  137.9849  155.2640 H   0  0  0  0  0  0  0  0  0  0  0  0
  146.2578  137.3699  156.4851 H   0  0  0  0  0  0  0  0  0  0  0  0
  145.8855  139.8565  153.9106 H   0  0  0  0  0  0  0  0  0  0  0  0
  147.3938  141.6307  153.4834 H   0  0  0  0  0  0  0  0  0  0  0  0
  147.4994  141.4237  155.2228 H   0  0  0  0  0  0  0  0  0  0  0  0
  149.5690  140.6831  153.2610 H   0  0  0  0  0  0  0  0  0  0  0  0
  150.1706  141.9284  158.2514 H   0  0  0  0  0  0  0  0  0  0  0  0
  152.2281  140.4490  158.3033 H   0  0  0  0  0  0  0  0  0  0  0  0
  154.0607  137.5155  155.2113 H   0  0  0  0  0  0  0  0  0  0  0  0
  153.2750  138.7128  154.1876 H   0  0  0  0  0  0  0  0  0  0  0  0
  152.3240  137.4139  154.9422 H   0  0  0  0  0  0  0  0  0  0  0  0
  148.5830  138.5070  153.3544 H   0  0  0  0  0  0  0  0  0  0  0  0
  147.5167  139.1343  152.1299 H   0  0  0  0  0  0  0  0  0  0  0  0
  147.4358  136.7353  152.5639 H   0  0  0  0  0  0  0  0  0  0  0  0
  1  2  1  0  0  0  0
  1 19  1  0  0  0  0
  1 20  1  0  0  0  0
  1 21  1  0  0  0  0
  2  3  1  0  0  0  0
  2 22  1  0  0  0  0
  2 23  1  0  0  0  0
  3 18  1  0  0  0  0
  3  4  1  0  0  0  0
  3 39  1  0  0  0  0
  4  5  1  0  0  0  0
  4 24  1  0  0  0  0
  4 25  1  0  0  0  0
  5  6  1  0  0  0  0
  5 26  1  0  0  0  0
  5 27  1  0  0  0  0
  6  7  1  0  0  0  0
  7  8  1  0  0  0  0
  7 18  1  0  0  0  0
  7 28  1  0  0  0  0
  8  9  1  0  0  0  0
  8 29  1  0  0  0  0
  8 30  1  0  0  0  0
  9 10  1  0  0  0  0
  9 31  1  0  0  0  0
 10 17  1  0  0  0  0
 10 11  2  0  0  0  0
 11 12  1  0  0  0  0
 12 13  2  0  0  0  0
 12 32  1  0  0  0  0
 13 14  1  0  0  0  0
 13 33  1  0  0  0  0
 14 15  1  0  0  0  0
 14 17  2  0  0  0  0
 15 16  1  0  0  0  0
 16 34  1  0  0  0  0
 16 35  1  0  0  0  0
 16 36  1  0  0  0  0
 18 37  1  0  0  0  0
 18 38  1  0  0  0  0
M  CHG  1   3   1
M  END
> <s_m_source_file>
AV-unprocessed.smi

> <i_m_source_file_index>
3250

> <i_lp_mmshare_version>
43012

> <i_f3d_flags>
0

> <s_epik_input>
W0NIM11bQ0gyXU4xW0NIMl1bQ0gyXU9bQ0BIXShbQ0gyXTEpW0NIMl1bTkhdYzJuW2NIXVtjSF1jKG4yKU9bQ0gzXQ==

> <s_epik_cmdline>
J2VwaWtfcHl0aG9uJywgJy1waCcsICc3LjAnLCAnLXRuJywgJzgnLCAnLW1hJywgJzIwMCcsICctbWV0YWxfYmluZGluZycsICctaW1hZScsICc8aW5maWxlLm1hZT4nLCAnLW9tYWUnLCAnPG91dGZpbGUubWFlPic=

> <r_lp_tautomer_probability>
1

> <r_epik_Ionization_Penalty>
0.19684

> <r_epik_Ionization_Penalty_Charging>
0.178504

> <r_epik_Ionization_Penalty_Neutral>
0.0183356

> <r_epik_State_Penalty>
0.162939

> <r_epik_Charging_Adjusted_Penalty>
0.341443

> <i_epik_Tot_Q>
1

> <i_epik_Tot_abs_Q>
1

> <r_epik_Metal_State_Penalty>
0.1608

> <b_epik_Metal_Only>
0

> <s_lp_Force_Field>
OPLS_2005

> <r_lp_Energy>
11.5983

> <b_lp_Chiralities_Consistent>
1

> <s_lp_Variant>
AV-unprocessed.smi:3250-2

> <Gold.Version>
5.8.1

> <Gold.Id.Protein>
6NUR|6NUR_protein|mol2

> <Gold.PLP.Fitness>
41.7875

> <Gold.PLP.PLP>
-28.6197

> <Gold.PLP.part.hbond>
-4.0000

> <Gold.PLP.part.metal>
0.0000

> <Gold.PLP.part.buried>
-3.2364

> <Gold.PLP.part.nonpolar>
-22.9420

> <Gold.PLP.part.repulsive>
1.0285

> <Gold.PLP.ligand.clash>
0.0000

> <Gold.PLP.ligand.torsion>
0.9297

> <Gold.PLP.Chemscore.Hbond>
5.0000

> <Gold.PLP.Chemscore.CHOScore>
0.0000

> <Gold.PLP.Chemscore.Metal>
0.0000

> <Gold.Chemscore.Hbonds>
donor molecule, donor type, donor heavy atom, donor atom, acceptor molecule, acceptor atom, score
      L1  H     3    39       P1  7948  2.00
      L1  H     9    31       P1  7957  0.60
      P1  H  7989  7998       L1    17  0.36
      P1  H  7997  8009       L1    15  1.00

> <Gold.PLP.Chemscore.Internal.Correction>
0.0272

> <Gold.Rescore>
     Score         DG    S(hbond)    S(metal)    S(lipo)     H(rot)  DE(clash)    DE(int)     intcor
     16.57     -17.39       3.07        0.00      51.71       1.71       0.10       0.72       ----

> <Gold.Chemscore.Fitness>
16.5683

> <Gold.Chemscore.DG>
-17.3941

> <Gold.Chemscore.ZeroCoef>
-5.4800

> <Gold.Chemscore.Hbond>
3.0685

> <Gold.Chemscore.Metal>
0.0000

> <Gold.Chemscore.Lipo>
51.7083

> <Gold.Chemscore.Internal_Hbond>
0.0000

> <Gold.Chemscore.DEClash>
0.1033

> <Gold.Chemscore.DEInternal>
0.7225

> <Gold.Chemscore.Rot>
1.7127

> <Gold.Chemscore.Internal.Correction>
   9.000000E+99

> <Gold.Chemscore.Hbonds>
donor molecule, donor type, donor heavy atom, donor atom, acceptor molecule, acceptor atom, score
      L1  H     3    39       P1  7948  0.98
      L1  H     9    31       P1  7957  0.57
      P1  H  7989  7998       L1    17  0.01
      P1  H  7997  8009       L1    15  0.15

> <Gold.Chemscore.Hbond.Weighted>
-10.2489

> <Gold.Chemscore.Metal.Weighted>
-0.0000

> <Gold.Chemscore.Lipo.Weighted>
-6.0499

> <Gold.Chemscore.Internal_Hbond.Weighted>
0.0000

> <Gold.Chemscore.DEClash.Weighted>
0.1033

> <Gold.Chemscore.DEInternal.Weighted>
0.7225

> <Gold.Chemscore.Rot.Weighted>
4.3846

> <Gold.Chemscore.Internal.Correction.Weighted>
   9.000000E+99

> <Gold.Protein.RotatedTorsions>
[ 6907 6896 6895 6894 ] final   95.95 input  -60.11 | X-H torsion
[ 7974 7965 7964 7962 ] final   91.02 input  175.53 | X-H torsion
[ 8008 7997 7996 7995 ] final -149.51 input   59.86 | X-H torsion
[ 10167 10162 10161 10158 ] final -138.97 input  -65.29 | X-H torsion
[ 10718 10713 10712 10709 ] final  109.84 input   66.30 | X-H torsion
[ 10763 10752 10751 10750 ] final  -71.32 input  -60.55 | X-H torsion
[ 11005 11000 10999 10996 ] final   14.02 input  -57.11 | X-H torsion

> <Gold.Protein.ActiveResidues>
 VAL166  LYS551  ARG553  GLY616  TRP617  ASP618  TYR619  PRO620  LYS621  CYS622 
 ASP623  PHE694  ASN695  SER759  ASP760  ASP761  ALA762  ILE779  LEU786  VAL792 
 PHE793  MET794  SER795  GLU796  ALA797  LYS798  CYS799  TRP800  GLU811  SER814 

> <Gold.Protein.RotatedAtoms>
  152.5439  134.0961  159.8297 H   0  0  0  0  0  0  0  0  0  0  0  0  # atno 6907 bound_to 6896
  151.1044  133.5212  159.2616 H   0  0  0  0  0  0  0  0  0  0  0  0  # atno 6908 bound_to 6896
  151.1955  135.0429  159.8904 H   0  0  0  0  0  0  0  0  0  0  0  0  # atno 6909 bound_to 6896
  145.5112  139.2277  143.2723 H   0  0  0  0  0  0  0  0  0  0  0  0  # atno 7974 bound_to 7965
  155.6087  140.0669  157.2712 H   0  0  0  0  0  0  0  0  0  0  0  0  # atno 8008 bound_to 7997
  154.4259  140.1805  156.1297 H   0  0  0  0  0  0  0  0  0  0  0  0  # atno 8009 bound_to 7997
  156.0102  140.3327  155.6936 H   0  0  0  0  0  0  0  0  0  0  0  0  # atno 8010 bound_to 7997
  139.8426  143.7302  152.2662 H   0  0  0  0  0  0  0  0  0  0  0  0  # atno 10167 bound_to 10162
  157.6523  131.0921  150.6513 H   0  0  0  0  0  0  0  0  0  0  0  0  # atno 10718 bound_to 10713
  154.4301  135.5966  153.6063 H   0  0  0  0  0  0  0  0  0  0  0  0  # atno 10763 bound_to 10752
  152.9798  135.5973  154.3849 H   0  0  0  0  0  0  0  0  0  0  0  0  # atno 10764 bound_to 10752
  154.3686  135.2841  155.2258 H   0  0  0  0  0  0  0  0  0  0  0  0  # atno 10765 bound_to 10752
  140.4742  134.1001  155.7738 H   0  0  0  0  0  0  0  0  0  0  0  0  # atno 11005 bound_to 11000
  146.2165  140.5919  142.9036 LP  0  0  0  0  0  0  0  0  0  0  0  0  # atno 17320 bound_to 7965
  144.7726  140.5671  143.6659 LP  0  0  0  0  0  0  0  0  0  0  0  0  # atno 17321 bound_to 7965
  139.7544  144.7525  151.0458 LP  0  0  0  0  0  0  0  0  0  0  0  0  # atno 17342 bound_to 10162
  140.7796  143.4822  151.0002 LP  0  0  0  0  0  0  0  0  0  0  0  0  # atno 17343 bound_to 10162
  156.6823  130.4571  149.5624 LP  0  0  0  0  0  0  0  0  0  0  0  0  # atno 17370 bound_to 10713
  156.1920  130.6566  151.1072 LP  0  0  0  0  0  0  0  0  0  0  0  0  # atno 17371 bound_to 10713
  141.1562  133.8877  157.1969 LP  0  0  0  0  0  0  0  0  0  0  0  0  # atno 17394 bound_to 11000
  139.9866  135.0079  156.9878 LP  0  0  0  0  0  0  0  0  0  0  0  0  # atno 17395 bound_to 11000

$$$$
