AV-unprocessed.smi:705|AV-procd|sdf|3451|dock8
  -GOLD-   22720 0433D 1   1.00000     0.00000
 Structure written by MMmdl.
 28 29  0  0  0  0  0  0  0  0  3 V2000
  150.1345  138.2641  153.8171 N   0  0  0  0  0  0  0  0  0  0  0  0
  151.1375  137.8024  154.5680 C   0  0  0  0  0  0  0  0  0  0  0  0
  151.6296  136.6856  154.4163 O   0  0  0  0  0  0  0  0  0  0  0  0
  151.6371  138.7440  155.6226 C   0  0  0  0  0  0  0  0  0  0  0  0
  150.8641  139.8013  156.1661 C   0  0  0  0  0  0  0  0  0  0  0  0
  151.8439  140.3303  157.0843 C   0  0  0  0  0  0  0  0  0  0  0  0
  151.4535  141.5363  157.9168 C   0  0  1  0  0  0  0  0  0  0  0  0
  152.6552  142.1029  158.6950 C   0  0  0  0  0  0  0  0  0  0  0  0
  152.2396  143.3487  159.4923 C   0  0  0  0  0  0  0  0  0  0  0  0
  151.5773  144.3915  158.5761 C   0  0  0  0  0  0  0  0  0  0  0  0
  150.4271  143.8017  157.8570 N   0  3  0  0  0  0  0  0  0  0  0  0
  150.7983  142.6236  157.0437 C   0  0  0  0  0  0  0  0  0  0  0  0
  153.0069  139.6527  157.0571 N   0  0  0  0  0  0  0  0  0  0  0  0
  152.8697  138.6909  156.1613 N   0  5  0  0  0  0  0  0  0  0  0  0
  149.7394  137.6935  153.0854 H   0  0  0  0  0  0  0  0  0  0  0  0
  149.7819  139.1935  153.9989 H   0  0  0  0  0  0  0  0  0  0  0  0
  149.8497  140.1145  155.9520 H   0  0  0  0  0  0  0  0  0  0  0  0
  150.7124  141.2078  158.6477 H   0  0  0  0  0  0  0  0  0  0  0  0
  153.0622  141.3466  159.3672 H   0  0  0  0  0  0  0  0  0  0  0  0
  153.4551  142.3663  158.0013 H   0  0  0  0  0  0  0  0  0  0  0  0
  151.5461  143.0617  160.2840 H   0  0  0  0  0  0  0  0  0  0  0  0
  153.1096  143.7833  159.9855 H   0  0  0  0  0  0  0  0  0  0  0  0
  151.2328  145.2447  159.1609 H   0  0  0  0  0  0  0  0  0  0  0  0
  152.2978  144.7715  157.8504 H   0  0  0  0  0  0  0  0  0  0  0  0
  149.7351  143.5163  158.5349 H   0  0  0  0  0  0  0  0  0  0  0  0
  151.4785  142.9396  156.2512 H   0  0  0  0  0  0  0  0  0  0  0  0
  149.9035  142.2331  156.5581 H   0  0  0  0  0  0  0  0  0  0  0  0
  150.0229  144.5017  157.2515 H   0  0  0  0  0  0  0  0  0  0  0  0
  1  2  1  0  0  0  0
  1 15  1  0  0  0  0
  1 16  1  0  0  0  0
  2  3  2  0  0  0  0
  2  4  1  0  0  0  0
  4 14  1  0  0  0  0
  4  5  2  0  0  0  0
  5  6  1  0  0  0  0
  5 17  1  0  0  0  0
  6  7  1  0  0  0  0
  6 13  2  0  0  0  0
  7 12  1  0  0  0  0
  7  8  1  0  0  0  0
  7 18  1  0  0  0  0
  8  9  1  0  0  0  0
  8 19  1  0  0  0  0
  8 20  1  0  0  0  0
  9 10  1  0  0  0  0
  9 21  1  0  0  0  0
  9 22  1  0  0  0  0
 10 11  1  0  0  0  0
 10 23  1  0  0  0  0
 10 24  1  0  0  0  0
 11 12  1  0  0  0  0
 11 25  1  0  0  0  0
 11 28  1  0  0  0  0
 12 26  1  0  0  0  0
 12 27  1  0  0  0  0
 13 14  1  0  0  0  0
M  CHG  1  11   1
M  CHG  1  14  -1
M  END
> <s_m_source_file>
AV-unprocessed.smi

> <i_m_source_file_index>
705

> <i_lp_mmshare_version>
43012

> <i_f3d_flags>
0

> <s_epik_input>
W05IMl1DKD1PKWMxW2NIXWMoW25IXW4xKVtDQEBIXTJbQ0gyXVtDSDJdW0NIMl1bTkhdW0NIMl0y

> <s_epik_cmdline>
J2VwaWtfcHl0aG9uJywgJy1waCcsICc3LjAnLCAnLXRuJywgJzgnLCAnLW1hJywgJzIwMCcsICctbWV0YWxfYmluZGluZycsICctaW1hZScsICc8aW5maWxlLm1hZT4nLCAnLW9tYWUnLCAnPG91dGZpbGUubWFlPic=

> <r_lp_tautomer_probability>
0.5

> <r_epik_Ionization_Penalty>
8.1602

> <r_epik_Ionization_Penalty_Charging>
5.25561

> <r_epik_Ionization_Penalty_Neutral>
2.90459

> <r_epik_State_Penalty>
5.66605

> <r_epik_Charging_Adjusted_Penalty>
10.9217

> <i_epik_Tot_Q>
0

> <i_epik_Tot_abs_Q>
2

> <r_epik_Metal_State_Penalty>
1.68656

> <b_epik_Metal_Only>
1

> <s_lp_Force_Field>
OPLS_2005

> <r_lp_Energy>
5.1844

> <b_lp_Chiralities_Consistent>
1

> <s_lp_Variant>
AV-unprocessed.smi:705-6

> <Gold.Version>
5.8.1

> <Gold.Id.Protein>
6NUR|6NUR_protein|mol2

> <Gold.PLP.Fitness>
41.9157

> <Gold.PLP.PLP>
-28.5954

> <Gold.PLP.part.hbond>
-5.4145

> <Gold.PLP.part.metal>
0.0000

> <Gold.PLP.part.buried>
-3.5785

> <Gold.PLP.part.nonpolar>
-21.4743

> <Gold.PLP.part.repulsive>
0.8933

> <Gold.PLP.ligand.clash>
0.0000

> <Gold.PLP.ligand.torsion>
0.4293

> <Gold.PLP.Chemscore.Hbond>
4.7193

> <Gold.PLP.Chemscore.CHOScore>
0.0000

> <Gold.PLP.Chemscore.Metal>
0.0000

> <Gold.Chemscore.Hbonds>
donor molecule, donor type, donor heavy atom, donor atom, acceptor molecule, acceptor atom, score
      L1  H     1    15       P1  7948  1.00
      L1  H    11    28       P1  8028  1.76
      P1  H  7997  8010       L1    13  0.98
      P1  H 10752 10765       L1     3  1.00

> <Gold.PLP.Chemscore.Internal.Correction>
0.0211

> <Gold.Rescore>
     Score         DG    S(hbond)    S(metal)    S(lipo)     H(rot)  DE(clash)    DE(int)     intcor
     22.50     -23.06       3.67        0.00      67.33       1.00       0.36       0.20       ----

> <Gold.Chemscore.Fitness>
22.5018

> <Gold.Chemscore.DG>
-23.0610

> <Gold.Chemscore.ZeroCoef>
-5.4800

> <Gold.Chemscore.Hbond>
3.6717

> <Gold.Chemscore.Metal>
0.0000

> <Gold.Chemscore.Lipo>
67.3284

> <Gold.Chemscore.Internal_Hbond>
0.0000

> <Gold.Chemscore.DEClash>
0.3585

> <Gold.Chemscore.DEInternal>
0.2006

> <Gold.Chemscore.Rot>
1.0000

> <Gold.Chemscore.Internal.Correction>
   9.000000E+99

> <Gold.Chemscore.Hbonds>
donor molecule, donor type, donor heavy atom, donor atom, acceptor molecule, acceptor atom, score
      L1  H     1    15       P1  7948  0.57
      L1  H    11    28       P1  8028  0.34
      P1  H  7997  8010       L1    13  0.27
      P1  H 10752 10765       L1     3  1.00

> <Gold.Chemscore.Hbond.Weighted>
-12.2636

> <Gold.Chemscore.Metal.Weighted>
-0.0000

> <Gold.Chemscore.Lipo.Weighted>
-7.8774

> <Gold.Chemscore.Internal_Hbond.Weighted>
0.0000

> <Gold.Chemscore.DEClash.Weighted>
0.3585

> <Gold.Chemscore.DEInternal.Weighted>
0.2006

> <Gold.Chemscore.Rot.Weighted>
2.5600

> <Gold.Chemscore.Internal.Correction.Weighted>
   9.000000E+99

> <Gold.Protein.RotatedTorsions>
[ 6907 6896 6895 6894 ] final   39.12 input  -60.11 | X-H torsion
[ 7974 7965 7964 7962 ] final   95.54 input  175.53 | X-H torsion
[ 8008 7997 7996 7995 ] final   47.31 input   59.86 | X-H torsion
[ 10167 10162 10161 10158 ] final   17.01 input  -65.29 | X-H torsion
[ 10718 10713 10712 10709 ] final  170.34 input   66.30 | X-H torsion
[ 10763 10752 10751 10750 ] final  164.43 input  -60.55 | X-H torsion
[ 11005 11000 10999 10996 ] final    4.77 input  -57.11 | X-H torsion

> <Gold.Protein.ActiveResidues>
 VAL166  LYS551  ARG553  GLY616  TRP617  ASP618  TYR619  PRO620  LYS621  CYS622 
 ASP623  PHE694  ASN695  SER759  ASP760  ASP761  ALA762  ILE779  LEU786  VAL792 
 PHE793  MET794  SER795  GLU796  ALA797  LYS798  CYS799  TRP800  GLU811  SER814 

> <Gold.Protein.RotatedAtoms>
  152.1654  134.8878  160.0538 H   0  0  0  0  0  0  0  0  0  0  0  0  # atno 6907 bound_to 6896
  151.9857  133.3768  159.4133 H   0  0  0  0  0  0  0  0  0  0  0  0  # atno 6908 bound_to 6896
  150.6894  134.3913  159.5121 H   0  0  0  0  0  0  0  0  0  0  0  0  # atno 6909 bound_to 6896
  145.4508  139.2293  143.3040 H   0  0  0  0  0  0  0  0  0  0  0  0  # atno 7974 bound_to 7965
  155.3669  140.3421  155.4242 H   0  0  0  0  0  0  0  0  0  0  0  0  # atno 8008 bound_to 7997
  156.1683  140.1623  156.8526 H   0  0  0  0  0  0  0  0  0  0  0  0  # atno 8009 bound_to 7997
  154.5208  140.0767  156.8149 H   0  0  0  0  0  0  0  0  0  0  0  0  # atno 8010 bound_to 7997
  140.5756  143.9078  150.6748 H   0  0  0  0  0  0  0  0  0  0  0  0  # atno 10167 bound_to 10162
  157.0095  131.0200  151.2807 H   0  0  0  0  0  0  0  0  0  0  0  0  # atno 10718 bound_to 10713
  154.3088  135.2757  155.2576 H   0  0  0  0  0  0  0  0  0  0  0  0  # atno 10763 bound_to 10752
  154.4980  135.5816  153.6513 H   0  0  0  0  0  0  0  0  0  0  0  0  # atno 10764 bound_to 10752
  152.9890  135.6151  154.3264 H   0  0  0  0  0  0  0  0  0  0  0  0  # atno 10765 bound_to 10752
  140.5782  134.0038  155.8036 H   0  0  0  0  0  0  0  0  0  0  0  0  # atno 11005 bound_to 11000
  146.2505  140.5267  142.8895 LP  0  0  0  0  0  0  0  0  0  0  0  0  # atno 17320 bound_to 7965
  144.8062  140.6304  143.6445 LP  0  0  0  0  0  0  0  0  0  0  0  0  # atno 17321 bound_to 7965
  140.2564  143.3555  152.1361 LP  0  0  0  0  0  0  0  0  0  0  0  0  # atno 17342 bound_to 10162
  139.5141  144.6943  151.5674 LP  0  0  0  0  0  0  0  0  0  0  0  0  # atno 17343 bound_to 10162
  157.5331  130.8071  149.7940 LP  0  0  0  0  0  0  0  0  0  0  0  0  # atno 17370 bound_to 10713
  156.0141  130.3821  150.2167 LP  0  0  0  0  0  0  0  0  0  0  0  0  # atno 17371 bound_to 10713
  141.1013  133.9763  157.3074 LP  0  0  0  0  0  0  0  0  0  0  0  0  # atno 17394 bound_to 11000
  139.9330  135.0198  156.8462 LP  0  0  0  0  0  0  0  0  0  0  0  0  # atno 17395 bound_to 11000

$$$$
