AV-unprocessed.smi:1686|AV-procd|sdf|6758|dock4
  -GOLD-   22720 7513D 1   1.00000     0.00000
 Structure written by MMmdl.
 41 43  0  0  0  0  0  0  0  0  1 V2000
  148.0774  138.5543  155.4081 C   0  0  0  0  0  0  0  0  0  0  0  0
  147.5243  139.7166  154.6349 C   0  0  0  0  0  0  0  0  0  0  0  0
  147.2959  139.5775  153.3354 N   0  0  0  0  0  0  0  0  0  0  0  0
  146.7801  140.8008  152.8924 O   0  0  0  0  0  0  0  0  0  0  0  0
  146.7281  141.6212  153.9666 C   0  0  0  0  0  0  0  0  0  0  0  0
  146.1423  143.2343  153.8653 Cl  0  0  0  0  0  0  0  0  0  0  0  0
  147.1832  141.0194  155.1043 C   0  0  0  0  0  0  0  0  0  0  0  0
  147.2935  141.5765  156.5034 C   0  0  0  0  0  0  0  0  0  0  0  0
  148.6858  141.3436  157.1025 C   0  0  0  0  0  0  0  0  0  0  0  0
  148.9453  140.3199  157.7371 O   0  0  0  0  0  0  0  0  0  0  0  0
  149.5805  142.3182  156.8760 N   0  0  0  0  0  0  0  0  0  0  0  0
  150.9741  142.3336  157.3197 C   0  0  2  0  0  0  0  0  0  0  0  0
  151.5937  140.9565  157.0371 C   0  0  0  0  0  0  0  0  0  0  0  0
  151.0395  142.7172  158.8183 C   0  0  2  0  0  0  0  0  0  0  0  0
  150.1931  143.9493  159.2164 C   0  0  0  0  0  0  0  0  0  0  0  0
  151.1838  144.8043  160.0278 C   0  0  2  0  0  0  0  0  0  0  0  0
  152.1892  145.4573  159.0619 C   0  0  0  0  0  0  0  0  0  0  0  0
  153.0720  144.2687  158.6400 C   0  0  0  0  0  0  0  0  0  0  0  0
  152.4320  143.0827  159.3908 C   0  0  1  0  0  0  0  0  0  0  0  0
  152.0430  143.7453  160.7088 C   0  0  0  0  0  0  0  0  0  0  0  0
  148.0675  138.7472  156.4809 H   0  0  0  0  0  0  0  0  0  0  0  0
  149.1070  138.3458  155.1172 H   0  0  0  0  0  0  0  0  0  0  0  0
  147.4916  137.6515  155.2335 H   0  0  0  0  0  0  0  0  0  0  0  0
  147.0892  142.6475  156.5129 H   0  0  0  0  0  0  0  0  0  0  0  0
  146.5539  141.1241  157.1649 H   0  0  0  0  0  0  0  0  0  0  0  0
  149.2718  143.1187  156.3438 H   0  0  0  0  0  0  0  0  0  0  0  0
  151.5296  143.0688  156.7375 H   0  0  0  0  0  0  0  0  0  0  0  0
  152.6540  140.9391  157.2894 H   0  0  0  0  0  0  0  0  0  0  0  0
  151.5093  140.6988  155.9808 H   0  0  0  0  0  0  0  0  0  0  0  0
  151.1007  140.1722  157.6124 H   0  0  0  0  0  0  0  0  0  0  0  0
  150.6721  141.8626  159.3902 H   0  0  0  0  0  0  0  0  0  0  0  0
  149.8039  144.4989  158.3586 H   0  0  0  0  0  0  0  0  0  0  0  0
  149.3418  143.6467  159.8271 H   0  0  0  0  0  0  0  0  0  0  0  0
  150.7011  145.5133  160.7012 H   0  0  0  0  0  0  0  0  0  0  0  0
  151.6984  145.9331  158.2122 H   0  0  0  0  0  0  0  0  0  0  0  0
  152.7846  146.2157  159.5717 H   0  0  0  0  0  0  0  0  0  0  0  0
  153.1103  144.1308  157.5604 H   0  0  0  0  0  0  0  0  0  0  0  0
  154.0968  144.4231  158.9803 H   0  0  0  0  0  0  0  0  0  0  0  0
  153.0976  142.2261  159.5007 H   0  0  0  0  0  0  0  0  0  0  0  0
  152.8922  144.1620  161.2534 H   0  0  0  0  0  0  0  0  0  0  0  0
  151.4772  143.0917  161.3753 H   0  0  0  0  0  0  0  0  0  0  0  0
  1  2  1  0  0  0  0
  1 21  1  0  0  0  0
  1 22  1  0  0  0  0
  1 23  1  0  0  0  0
  2  7  1  0  0  0  0
  2  3  2  0  0  0  0
  3  4  1  0  0  0  0
  4  5  1  0  0  0  0
  5  6  1  0  0  0  0
  5  7  2  0  0  0  0
  7  8  1  0  0  0  0
  8  9  1  0  0  0  0
  8 24  1  0  0  0  0
  8 25  1  0  0  0  0
  9 10  2  0  0  0  0
  9 11  1  0  0  0  0
 11 12  1  0  0  0  0
 11 26  1  0  0  0  0
 12 13  1  0  0  0  0
 12 14  1  0  0  0  0
 12 27  1  0  0  0  0
 13 28  1  0  0  0  0
 13 29  1  0  0  0  0
 13 30  1  0  0  0  0
 14 19  1  0  0  0  0
 14 15  1  0  0  0  0
 14 31  1  0  0  0  0
 15 16  1  0  0  0  0
 15 32  1  0  0  0  0
 15 33  1  0  0  0  0
 16 20  1  0  0  0  0
 16 17  1  0  0  0  0
 16 34  1  0  0  0  0
 17 18  1  0  0  0  0
 17 35  1  0  0  0  0
 17 36  1  0  0  0  0
 18 19  1  0  0  0  0
 18 37  1  0  0  0  0
 18 38  1  0  0  0  0
 19 20  1  0  0  0  0
 19 39  1  0  0  0  0
 20 40  1  0  0  0  0
 20 41  1  0  0  0  0
M  END
> <s_m_source_file>
AV-unprocessed.smi

> <i_m_source_file_index>
1686

> <i_lp_mmshare_version>
43012

> <i_f3d_flags>
0

> <s_epik_input>
W0NIM11jMW5vYyhDbCljMVtDSDJdQyg9TylbTkhdW0NASF0oW0NIM10pW0NASF0oW0NIMl1bQ0BIXTIzKVtDQEhdKFtDSDJdMylbQ0gyXVtDSDJdMg==

> <s_epik_cmdline>
J2VwaWtfcHl0aG9uJywgJy1waCcsICc3LjAnLCAnLXRuJywgJzgnLCAnLW1hJywgJzIwMCcsICctbWV0YWxfYmluZGluZycsICctaW1hZScsICc8aW5maWxlLm1hZT4nLCAnLW9tYWUnLCAnPG91dGZpbGUubWFlPic=

> <r_lp_tautomer_probability>
1

> <r_epik_Ionization_Penalty>
2.01576e-08

> <r_epik_Ionization_Penalty_Charging>
0

> <r_epik_Ionization_Penalty_Neutral>
2.01576e-08

> <r_epik_State_Penalty>
-0

> <r_epik_Charging_Adjusted_Penalty>
0

> <i_epik_Tot_Q>
0

> <i_epik_Tot_abs_Q>
0

> <r_epik_Metal_State_Penalty>
-0

> <b_epik_Metal_Only>
0

> <s_lp_Force_Field>
OPLS_2005

> <r_lp_Energy>
47.064

> <b_lp_Chiralities_Consistent>
1

> <s_lp_Variant>
AV-unprocessed.smi:1686-1

> <Gold.Version>
5.8.1

> <Gold.Id.Protein>
6NUR|6NUR_protein|mol2

> <Gold.PLP.Fitness>
40.1509

> <Gold.PLP.PLP>
-38.7836

> <Gold.PLP.part.hbond>
-1.0000

> <Gold.PLP.part.metal>
0.0000

> <Gold.PLP.part.buried>
-7.0049

> <Gold.PLP.part.nonpolar>
-30.1387

> <Gold.PLP.part.repulsive>
0.4488

> <Gold.PLP.ligand.clash>
0.0000

> <Gold.PLP.ligand.torsion>
0.8248

> <Gold.PLP.Chemscore.Hbond>
1.0000

> <Gold.PLP.Chemscore.CHOScore>
0.0000

> <Gold.PLP.Chemscore.Metal>
0.0000

> <Gold.Chemscore.Hbonds>
donor molecule, donor type, donor heavy atom, donor atom, acceptor molecule, acceptor atom, score
      L1  H    11    26       P1  8028  1.00

> <Gold.PLP.Chemscore.Internal.Correction>
0.0169

> <Gold.Rescore>
     Score         DG    S(hbond)    S(metal)    S(lipo)     H(rot)  DE(clash)    DE(int)     intcor
     16.75     -18.86       0.99        0.00     117.98       1.46       0.06       2.04       ----

> <Gold.Chemscore.Fitness>
16.7517

> <Gold.Chemscore.DG>
-18.8564

> <Gold.Chemscore.ZeroCoef>
-5.4800

> <Gold.Chemscore.Hbond>
0.9948

> <Gold.Chemscore.Metal>
0.0000

> <Gold.Chemscore.Lipo>
117.9813

> <Gold.Chemscore.Internal_Hbond>
0.0000

> <Gold.Chemscore.DEClash>
0.0617

> <Gold.Chemscore.DEInternal>
2.0430

> <Gold.Chemscore.Rot>
1.4648

> <Gold.Chemscore.Internal.Correction>
   9.000000E+99

> <Gold.Chemscore.Hbonds>
donor molecule, donor type, donor heavy atom, donor atom, acceptor molecule, acceptor atom, score
      L1  H    11    26       P1  8028  1.00

> <Gold.Chemscore.Hbond.Weighted>
-3.3226

> <Gold.Chemscore.Metal.Weighted>
-0.0000

> <Gold.Chemscore.Lipo.Weighted>
-13.8038

> <Gold.Chemscore.Internal_Hbond.Weighted>
0.0000

> <Gold.Chemscore.DEClash.Weighted>
0.0617

> <Gold.Chemscore.DEInternal.Weighted>
2.0430

> <Gold.Chemscore.Rot.Weighted>
3.7500

> <Gold.Chemscore.Internal.Correction.Weighted>
   9.000000E+99

> <Gold.Protein.RotatedTorsions>
[ 6907 6896 6895 6894 ] final -145.44 input  -60.11 | X-H torsion
[ 7974 7965 7964 7962 ] final -131.02 input  175.53 | X-H torsion
[ 8008 7997 7996 7995 ] final  165.18 input   59.86 | X-H torsion
[ 10167 10162 10161 10158 ] final  129.69 input  -65.29 | X-H torsion
[ 10718 10713 10712 10709 ] final  170.12 input   66.30 | X-H torsion
[ 10763 10752 10751 10750 ] final  105.87 input  -60.55 | X-H torsion
[ 11005 11000 10999 10996 ] final  -81.19 input  -57.11 | X-H torsion

> <Gold.Protein.ActiveResidues>
 VAL166  LYS551  ARG553  GLY616  TRP617  ASP618  TYR619  PRO620  LYS621  CYS622 
 ASP623  PHE694  ASN695  SER759  ASP760  ASP761  ALA762  ILE779  LEU786  VAL792 
 PHE793  MET794  SER795  GLU796  ALA797  LYS798  CYS799  TRP800  GLU811  SER814 

> <Gold.Protein.RotatedAtoms>
  151.1278  133.5058  159.2599 H   0  0  0  0  0  0  0  0  0  0  0  0  # atno 6907 bound_to 6896
  151.1790  135.0352  159.8794 H   0  0  0  0  0  0  0  0  0  0  0  0  # atno 6908 bound_to 6896
  152.5458  134.1132  159.8421 H   0  0  0  0  0  0  0  0  0  0  0  0  # atno 6909 bound_to 6896
  144.9419  140.7248  143.4841 H   0  0  0  0  0  0  0  0  0  0  0  0  # atno 7974 bound_to 7965
  156.1821  140.1677  156.8254 H   0  0  0  0  0  0  0  0  0  0  0  0  # atno 8008 bound_to 7997
  154.5372  140.0744  156.8481 H   0  0  0  0  0  0  0  0  0  0  0  0  # atno 8009 bound_to 7997
  155.3287  140.3378  155.4242 H   0  0  0  0  0  0  0  0  0  0  0  0  # atno 8010 bound_to 7997
  139.5465  144.6778  151.4456 H   0  0  0  0  0  0  0  0  0  0  0  0  # atno 10167 bound_to 10162
  157.0127  131.0209  151.2798 H   0  0  0  0  0  0  0  0  0  0  0  0  # atno 10718 bound_to 10713
  153.3853  135.3895  155.1885 H   0  0  0  0  0  0  0  0  0  0  0  0  # atno 10763 bound_to 10752
  154.8713  135.3735  154.4806 H   0  0  0  0  0  0  0  0  0  0  0  0  # atno 10764 bound_to 10752
  153.5287  135.7086  153.5756 H   0  0  0  0  0  0  0  0  0  0  0  0  # atno 10765 bound_to 10752
  141.1667  133.7185  156.8385 H   0  0  0  0  0  0  0  0  0  0  0  0  # atno 11005 bound_to 11000
  145.2978  139.1861  143.4706 LP  0  0  0  0  0  0  0  0  0  0  0  0  # atno 17320 bound_to 7965
  146.3289  140.2964  142.8618 LP  0  0  0  0  0  0  0  0  0  0  0  0  # atno 17321 bound_to 7965
  140.6715  143.8283  150.7005 LP  0  0  0  0  0  0  0  0  0  0  0  0  # atno 17342 bound_to 10162
  140.1708  143.4196  152.2002 LP  0  0  0  0  0  0  0  0  0  0  0  0  # atno 17343 bound_to 10162
  157.5309  130.8057  149.7915 LP  0  0  0  0  0  0  0  0  0  0  0  0  # atno 17370 bound_to 10713
  156.0130  130.3825  150.2201 LP  0  0  0  0  0  0  0  0  0  0  0  0  # atno 17371 bound_to 10713
  140.2000  134.8904  157.3158 LP  0  0  0  0  0  0  0  0  0  0  0  0  # atno 17394 bound_to 11000
  140.2198  134.4038  155.7571 LP  0  0  0  0  0  0  0  0  0  0  0  0  # atno 17395 bound_to 11000

$$$$
