AV-unprocessed.smi:2847|AV-procd|sdf|10953|dock4
  -GOLD-   2272015403D 1   1.00000     0.00000
 Structure written by MMmdl.
 45 46  0  0  0  0  0  0  0  0  1 V2000
  146.1774  132.1371  149.6505 C   0  0  0  0  0  0  0  0  0  0  0  0
  144.9283  132.5813  150.4474 C   0  0  0  0  0  0  0  0  0  0  0  0
  143.7263  132.4090  149.4887 C   0  0  0  0  0  0  0  0  0  0  0  0
  144.7462  131.6662  151.6721 C   0  0  0  0  0  0  0  0  0  0  0  0
  145.0601  134.0417  150.9134 C   0  0  0  0  0  0  0  0  0  0  0  0
  146.0160  134.3106  151.8125 N   0  0  0  0  0  0  0  0  0  0  0  0
  146.0601  135.5576  152.3262 C   0  0  0  0  0  0  0  0  0  0  0  0
  145.1167  136.5433  151.9751 C   0  0  0  0  0  0  0  0  0  0  0  0
  145.2329  137.8398  152.5432 N   0  0  0  0  0  0  0  0  0  0  0  0
  146.1228  138.2781  153.4492 C   0  0  0  0  0  0  0  0  0  0  0  0
  147.0364  137.6053  153.9251 O   0  0  0  0  0  0  0  0  0  0  0  0
  145.8935  139.5649  153.7592 N   0  0  0  0  0  0  0  0  0  0  0  0
  146.6280  140.4279  154.6948 C   0  0  1  0  0  0  0  0  0  0  0  0
  146.3298  139.8728  156.1096 C   0  0  0  0  0  0  0  0  0  0  0  0
  148.1543  140.3256  154.4262 C   0  0  0  0  0  0  0  0  0  0  0  0
  148.5437  140.9781  153.2327 O   0  0  0  0  0  0  0  0  0  0  0  0
  146.2192  141.9050  154.5571 C   0  0  0  0  0  0  0  0  0  0  0  0
  146.1472  142.8735  155.7158 C   0  0  0  0  0  0  0  0  0  0  0  0
  144.8821  142.4629  154.9860 C   0  0  0  0  0  0  0  0  0  0  0  0
  144.1302  136.1454  151.0415 C   0  0  0  0  0  0  0  0  0  0  0  0
  144.0993  134.8947  150.5342 N   0  0  0  0  0  0  0  0  0  0  0  0
  146.0695  131.1178  149.2781 H   0  0  0  0  0  0  0  0  0  0  0  0
  147.0798  132.1532  150.2627 H   0  0  0  0  0  0  0  0  0  0  0  0
  146.3502  132.7838  148.7894 H   0  0  0  0  0  0  0  0  0  0  0  0
  143.8114  133.0670  148.6229 H   0  0  0  0  0  0  0  0  0  0  0  0
  142.7770  132.6285  149.9787 H   0  0  0  0  0  0  0  0  0  0  0  0
  143.6581  131.3862  149.1167 H   0  0  0  0  0  0  0  0  0  0  0  0
  144.6480  130.6211  151.3773 H   0  0  0  0  0  0  0  0  0  0  0  0
  143.8531  131.9344  152.2376 H   0  0  0  0  0  0  0  0  0  0  0  0
  145.5976  131.7383  152.3499 H   0  0  0  0  0  0  0  0  0  0  0  0
  146.8512  135.7650  153.0319 H   0  0  0  0  0  0  0  0  0  0  0  0
  144.5850  138.5279  152.1880 H   0  0  0  0  0  0  0  0  0  0  0  0
  145.1087  140.0034  153.3003 H   0  0  0  0  0  0  0  0  0  0  0  0
  146.9013  140.3866  156.8820 H   0  0  0  0  0  0  0  0  0  0  0  0
  146.5883  138.8159  156.1846 H   0  0  0  0  0  0  0  0  0  0  0  0
  145.2740  139.9453  156.3679 H   0  0  0  0  0  0  0  0  0  0  0  0
  148.7330  140.7420  155.2507 H   0  0  0  0  0  0  0  0  0  0  0  0
  148.4498  139.2789  154.3482 H   0  0  0  0  0  0  0  0  0  0  0  0
  148.6296  140.3295  152.5509 H   0  0  0  0  0  0  0  0  0  0  0  0
  146.6158  142.3553  153.6493 H   0  0  0  0  0  0  0  0  0  0  0  0
  146.2774  142.5038  156.7296 H   0  0  0  0  0  0  0  0  0  0  0  0
  146.5179  143.8821  155.5451 H   0  0  0  0  0  0  0  0  0  0  0  0
  144.4194  143.2003  154.3332 H   0  0  0  0  0  0  0  0  0  0  0  0
  144.1845  141.8203  155.5167 H   0  0  0  0  0  0  0  0  0  0  0  0
  143.3656  136.8131  150.6769 H   0  0  0  0  0  0  0  0  0  0  0  0
  1  2  1  0  0  0  0
  1 22  1  0  0  0  0
  1 23  1  0  0  0  0
  1 24  1  0  0  0  0
  2  3  1  0  0  0  0
  2  4  1  0  0  0  0
  2  5  1  0  0  0  0
  3 25  1  0  0  0  0
  3 26  1  0  0  0  0
  3 27  1  0  0  0  0
  4 28  1  0  0  0  0
  4 29  1  0  0  0  0
  4 30  1  0  0  0  0
  5 21  1  0  0  0  0
  5  6  2  0  0  0  0
  6  7  1  0  0  0  0
  7  8  2  0  0  0  0
  7 31  1  0  0  0  0
  8  9  1  0  0  0  0
  8 20  1  0  0  0  0
  9 10  1  0  0  0  0
  9 32  1  0  0  0  0
 10 11  2  0  0  0  0
 10 12  1  0  0  0  0
 12 13  1  0  0  0  0
 12 33  1  0  0  0  0
 13 14  1  0  0  0  0
 13 15  1  0  0  0  0
 13 17  1  0  0  0  0
 14 34  1  0  0  0  0
 14 35  1  0  0  0  0
 14 36  1  0  0  0  0
 15 16  1  0  0  0  0
 15 37  1  0  0  0  0
 15 38  1  0  0  0  0
 16 39  1  0  0  0  0
 17 19  1  0  0  0  0
 17 18  1  0  0  0  0
 17 40  1  0  0  0  0
 18 19  1  0  0  0  0
 18 41  1  0  0  0  0
 18 42  1  0  0  0  0
 19 43  1  0  0  0  0
 19 44  1  0  0  0  0
 20 21  2  0  0  0  0
 20 45  1  0  0  0  0
M  END
> <s_m_source_file>
AV-unprocessed.smi

> <i_m_source_file_index>
2847

> <i_lp_mmshare_version>
43012

> <i_f3d_flags>
0

> <s_epik_input>
W0NIM11DKFtDSDNdKShbQ0gzXSljMW5bY0hdYyhbY0hdbjEpW05IXUMoPU8pW05IXVtDQEBdKFtDSDNdKShbQ0gyXVtPSF0pW0NIXTJbQ0gyXVtDSDJdMg==

> <s_epik_cmdline>
J2VwaWtfcHl0aG9uJywgJy1waCcsICc3LjAnLCAnLXRuJywgJzgnLCAnLW1hJywgJzIwMCcsICctbWV0YWxfYmluZGluZycsICctaW1hZScsICc8aW5maWxlLm1hZT4nLCAnLW9tYWUnLCAnPG91dGZpbGUubWFlPic=

> <r_lp_tautomer_probability>
1

> <r_epik_Ionization_Penalty>
2.57177e-05

> <r_epik_Ionization_Penalty_Charging>
0

> <r_epik_Ionization_Penalty_Neutral>
2.57177e-05

> <r_epik_State_Penalty>
-0

> <r_epik_Charging_Adjusted_Penalty>
0

> <i_epik_Tot_Q>
0

> <i_epik_Tot_abs_Q>
0

> <r_epik_Metal_State_Penalty>
-0

> <b_epik_Metal_Only>
0

> <s_lp_Force_Field>
OPLS_2005

> <r_lp_Energy>
20.4005

> <b_lp_Chiralities_Consistent>
1

> <s_lp_Variant>
AV-unprocessed.smi:2847-1

> <Gold.Version>
5.8.1

> <Gold.Id.Protein>
6NUR|6NUR_protein|mol2

> <Gold.PLP.Fitness>
43.1586

> <Gold.PLP.PLP>
-29.1119

> <Gold.PLP.part.hbond>
-4.2270

> <Gold.PLP.part.metal>
0.0000

> <Gold.PLP.part.buried>
0.9783

> <Gold.PLP.part.nonpolar>
-26.3607

> <Gold.PLP.part.repulsive>
1.0154

> <Gold.PLP.ligand.clash>
0.0000

> <Gold.PLP.ligand.torsion>
1.0763

> <Gold.PLP.Chemscore.Hbond>
3.4200

> <Gold.PLP.Chemscore.CHOScore>
1.4523

> <Gold.PLP.Chemscore.Metal>
0.0000

> <Gold.Chemscore.Hbonds>
donor molecule, donor type, donor heavy atom, donor atom, acceptor molecule, acceptor atom, score
      L1  H     9    32       P1 10175  0.70
      L1  H    12    33       P1 10175  1.00
      L1  H    16    39       P1  7957  0.77
      P1  H  8011  8017       L1    16  0.66
      L1  C     7    31       P1  7948  0.60
      L1  C    20    45       P1 10171  0.80

> <Gold.PLP.Chemscore.Internal.Correction>
1.5826

> <Gold.Rescore>
     Score         DG    S(hbond)    S(metal)    S(lipo)     H(rot)  DE(clash)    DE(int)     intcor
     13.59     -19.47       2.98        0.00      81.86       2.17       2.33       3.55       ----

> <Gold.Chemscore.Fitness>
13.5912

> <Gold.Chemscore.DG>
-19.4713

> <Gold.Chemscore.ZeroCoef>
-5.4800

> <Gold.Chemscore.Hbond>
2.9830

> <Gold.Chemscore.Metal>
0.0000

> <Gold.Chemscore.Lipo>
81.8632

> <Gold.Chemscore.Internal_Hbond>
0.0000

> <Gold.Chemscore.DEClash>
2.3324

> <Gold.Chemscore.DEInternal>
3.5477

> <Gold.Chemscore.Rot>
2.1679

> <Gold.Chemscore.Internal.Correction>
   9.000000E+99

> <Gold.Chemscore.Hbonds>
donor molecule, donor type, donor heavy atom, donor atom, acceptor molecule, acceptor atom, score
      L1  H     9    32       P1 10175  0.67
      L1  H    12    33       P1 10175  1.00
      L1  H    16    39       P1  7957  0.78
      P1  H  8011  8017       L1    16  0.09

> <Gold.Chemscore.Hbond.Weighted>
-9.9632

> <Gold.Chemscore.Metal.Weighted>
-0.0000

> <Gold.Chemscore.Lipo.Weighted>
-9.5780

> <Gold.Chemscore.Internal_Hbond.Weighted>
0.0000

> <Gold.Chemscore.DEClash.Weighted>
2.3324

> <Gold.Chemscore.DEInternal.Weighted>
3.5477

> <Gold.Chemscore.Rot.Weighted>
5.5499

> <Gold.Chemscore.Internal.Correction.Weighted>
   9.000000E+99

> <Gold.Protein.RotatedTorsions>
[ 6907 6896 6895 6894 ] final   76.83 input  -60.11 | X-H torsion
[ 7974 7965 7964 7962 ] final  -64.17 input  175.53 | X-H torsion
[ 8008 7997 7996 7995 ] final  164.17 input   59.86 | X-H torsion
[ 10167 10162 10161 10158 ] final   56.80 input  -65.29 | X-H torsion
[ 10718 10713 10712 10709 ] final  -82.32 input   66.30 | X-H torsion
[ 10763 10752 10751 10750 ] final  143.64 input  -60.55 | X-H torsion
[ 11005 11000 10999 10996 ] final  -24.57 input  -57.11 | X-H torsion

> <Gold.Protein.ActiveResidues>
 VAL166  LYS551  ARG553  GLY616  TRP617  ASP618  TYR619  PRO620  LYS621  CYS622 
 ASP623  PHE694  ASN695  SER759  ASP760  ASP761  ALA762  ILE779  LEU786  VAL792 
 PHE793  MET794  SER795  GLU796  ALA797  LYS798  CYS799  TRP800  GLU811  SER814 

> <Gold.Protein.RotatedAtoms>
  152.5091  134.3909  159.9383 H   0  0  0  0  0  0  0  0  0  0  0  0  # atno 6907 bound_to 6896
  151.3869  133.3796  159.2724 H   0  0  0  0  0  0  0  0  0  0  0  0  # atno 6908 bound_to 6896
  150.9462  134.8887  159.7702 H   0  0  0  0  0  0  0  0  0  0  0  0  # atno 6909 bound_to 6896
  145.7700  140.8817  143.0385 H   0  0  0  0  0  0  0  0  0  0  0  0  # atno 7974 bound_to 7965
  156.1901  140.1704  156.8109 H   0  0  0  0  0  0  0  0  0  0  0  0  # atno 8008 bound_to 7997
  154.5460  140.0727  156.8622 H   0  0  0  0  0  0  0  0  0  0  0  0  # atno 8009 bound_to 7997
  155.3120  140.3368  155.4246 H   0  0  0  0  0  0  0  0  0  0  0  0  # atno 8010 bound_to 7997
  140.2048  144.3950  150.6513 H   0  0  0  0  0  0  0  0  0  0  0  0  # atno 10167 bound_to 10162
  156.0035  130.4630  150.4086 H   0  0  0  0  0  0  0  0  0  0  0  0  # atno 10718 bound_to 10713
  153.9757  135.2946  155.3424 H   0  0  0  0  0  0  0  0  0  0  0  0  # atno 10763 bound_to 10752
  154.7297  135.5073  153.8947 H   0  0  0  0  0  0  0  0  0  0  0  0  # atno 10764 bound_to 10752
  153.0879  135.6699  154.0026 H   0  0  0  0  0  0  0  0  0  0  0  0  # atno 10765 bound_to 10752
  140.8857  133.7623  156.0358 H   0  0  0  0  0  0  0  0  0  0  0  0  # atno 11005 bound_to 11000
  144.6814  139.9842  143.7484 LP  0  0  0  0  0  0  0  0  0  0  0  0  # atno 17320 bound_to 7965
  146.0179  139.3226  143.0830 LP  0  0  0  0  0  0  0  0  0  0  0  0  # atno 17321 bound_to 7965
  140.6365  143.2196  151.6384 LP  0  0  0  0  0  0  0  0  0  0  0  0  # atno 17342 bound_to 10162
  139.5203  144.3228  152.0895 LP  0  0  0  0  0  0  0  0  0  0  0  0  # atno 17343 bound_to 10162
  157.2151  131.0469  151.2578 LP  0  0  0  0  0  0  0  0  0  0  0  0  # atno 17370 bound_to 10713
  157.3853  130.7253  149.6659 LP  0  0  0  0  0  0  0  0  0  0  0  0  # atno 17371 bound_to 10713
  140.8407  134.3069  157.5314 LP  0  0  0  0  0  0  0  0  0  0  0  0  # atno 17394 bound_to 11000
  139.8724  134.9415  156.3798 LP  0  0  0  0  0  0  0  0  0  0  0  0  # atno 17395 bound_to 11000

$$$$
