AV-unprocessed.smi:455|AV-procd|sdf|2614|dock2
  -GOLD-   2262023 13D 1   1.00000     0.00000
 Structure written by MMmdl.
 46 47  0  0  0  0  0  0  0  0  1 V2000
  150.2028  135.2787  156.6843 C   0  0  0  0  0  0  0  0  0  0  0  0
  149.8920  135.2464  155.1726 C   0  0  0  0  0  0  0  0  0  0  0  0
  151.0469  135.9476  154.4309 C   0  0  0  0  0  0  0  0  0  0  0  0
  149.8276  133.7800  154.6967 C   0  0  0  0  0  0  0  0  0  0  0  0
  148.5760  136.0046  154.8330 C   0  0  0  0  0  0  0  0  0  0  0  0
  148.6301  137.5381  154.9120 C   0  0  0  0  0  0  0  0  0  0  0  0
  148.4457  138.1149  155.9833 O   0  0  0  0  0  0  0  0  0  0  0  0
  148.9172  138.1827  153.7697 N   0  0  0  0  0  0  0  0  0  0  0  0
  149.0790  139.6266  153.6216 C   0  0  0  0  0  0  0  0  0  0  0  0
  149.8439  140.2848  154.7597 C   0  0  0  0  0  0  0  0  0  0  0  0
  151.1015  139.7854  155.1509 C   0  0  0  0  0  0  0  0  0  0  0  0
  151.7858  140.4054  156.2133 C   0  0  0  0  0  0  0  0  0  0  0  0
  151.1903  141.5100  156.8672 C   0  0  0  0  0  0  0  0  0  0  0  0
  151.8585  142.1462  157.9358 N   0  0  0  0  0  0  0  0  0  0  0  0
  152.1978  141.2904  159.0701 C   0  0  0  0  0  0  0  0  0  0  0  0
  153.1813  142.0098  160.0089 C   0  0  0  0  0  0  0  0  0  0  0  0
  152.6378  143.2638  160.4070 O   0  0  0  0  0  0  0  0  0  0  0  0
  152.4200  144.1237  159.2933 C   0  0  0  0  0  0  0  0  0  0  0  0
  151.4080  143.4796  158.3305 C   0  0  0  0  0  0  0  0  0  0  0  0
  149.9781  141.9870  156.4899 N   0  0  0  0  0  0  0  0  0  0  0  0
  149.3255  141.3870  155.4719 C   0  0  0  0  0  0  0  0  0  0  0  0
  151.1879  134.8601  156.8930 H   0  0  0  0  0  0  0  0  0  0  0  0
  149.4860  134.6977  157.2642 H   0  0  0  0  0  0  0  0  0  0  0  0
  150.1933  136.2987  157.0702 H   0  0  0  0  0  0  0  0  0  0  0  0
  151.1409  136.9902  154.7368 H   0  0  0  0  0  0  0  0  0  0  0  0
  150.8932  135.9350  153.3513 H   0  0  0  0  0  0  0  0  0  0  0  0
  152.0033  135.4619  154.6288 H   0  0  0  0  0  0  0  0  0  0  0  0
  150.7814  133.2733  154.8479 H   0  0  0  0  0  0  0  0  0  0  0  0
  149.5869  133.7170  153.6351 H   0  0  0  0  0  0  0  0  0  0  0  0
  149.0746  133.2096  155.2398 H   0  0  0  0  0  0  0  0  0  0  0  0
  148.2562  135.7431  153.8235 H   0  0  0  0  0  0  0  0  0  0  0  0
  147.7784  135.6519  155.4896 H   0  0  0  0  0  0  0  0  0  0  0  0
  149.0571  137.6259  152.9391 H   0  0  0  0  0  0  0  0  0  0  0  0
  149.5717  139.8754  152.6803 H   0  0  0  0  0  0  0  0  0  0  0  0
  148.0806  140.0611  153.5635 H   0  0  0  0  0  0  0  0  0  0  0  0
  151.5430  138.9410  154.6424 H   0  0  0  0  0  0  0  0  0  0  0  0
  152.7588  140.0373  156.5025 H   0  0  0  0  0  0  0  0  0  0  0  0
  151.2823  141.0430  159.6089 H   0  0  0  0  0  0  0  0  0  0  0  0
  152.6400  140.3483  158.7492 H   0  0  0  0  0  0  0  0  0  0  0  0
  153.3629  141.4039  160.8966 H   0  0  0  0  0  0  0  0  0  0  0  0
  154.1467  142.1573  159.5216 H   0  0  0  0  0  0  0  0  0  0  0  0
  152.0405  145.0805  159.6517 H   0  0  0  0  0  0  0  0  0  0  0  0
  153.3646  144.3258  158.7861 H   0  0  0  0  0  0  0  0  0  0  0  0
  151.2915  144.1143  157.4512 H   0  0  0  0  0  0  0  0  0  0  0  0
  150.4319  143.4037  158.8115 H   0  0  0  0  0  0  0  0  0  0  0  0
  148.3583  141.7995  155.2293 H   0  0  0  0  0  0  0  0  0  0  0  0
  1  2  1  0  0  0  0
  1 22  1  0  0  0  0
  1 23  1  0  0  0  0
  1 24  1  0  0  0  0
  2  3  1  0  0  0  0
  2  4  1  0  0  0  0
  2  5  1  0  0  0  0
  3 25  1  0  0  0  0
  3 26  1  0  0  0  0
  3 27  1  0  0  0  0
  4 28  1  0  0  0  0
  4 29  1  0  0  0  0
  4 30  1  0  0  0  0
  5  6  1  0  0  0  0
  5 31  1  0  0  0  0
  5 32  1  0  0  0  0
  6  7  2  0  0  0  0
  6  8  1  0  0  0  0
  8  9  1  0  0  0  0
  8 33  1  0  0  0  0
  9 10  1  0  0  0  0
  9 34  1  0  0  0  0
  9 35  1  0  0  0  0
 10 21  1  0  0  0  0
 10 11  2  0  0  0  0
 11 12  1  0  0  0  0
 11 36  1  0  0  0  0
 12 13  2  0  0  0  0
 12 37  1  0  0  0  0
 13 14  1  0  0  0  0
 13 20  1  0  0  0  0
 14 19  1  0  0  0  0
 14 15  1  0  0  0  0
 15 16  1  0  0  0  0
 15 38  1  0  0  0  0
 15 39  1  0  0  0  0
 16 17  1  0  0  0  0
 16 40  1  0  0  0  0
 16 41  1  0  0  0  0
 17 18  1  0  0  0  0
 18 19  1  0  0  0  0
 18 42  1  0  0  0  0
 18 43  1  0  0  0  0
 19 44  1  0  0  0  0
 19 45  1  0  0  0  0
 20 21  2  0  0  0  0
 21 46  1  0  0  0  0
M  END
> <s_m_source_file>
AV-unprocessed.smi

> <i_m_source_file_index>
455

> <i_lp_mmshare_version>
43012

> <i_f3d_flags>
0

> <s_epik_input>
W0NIM11DKFtDSDNdKShbQ0gzXSlbQ0gyXUMoPU8pW05IXVtDSDJdYzFbY0hdW2NIXWMobltjSF0xKU4yW0NIMl1bQ0gyXU9bQ0gyXVtDSDJdMg==

> <s_epik_cmdline>
J2VwaWtfcHl0aG9uJywgJy1waCcsICc3LjAnLCAnLXRuJywgJzgnLCAnLW1hJywgJzIwMCcsICctbWV0YWxfYmluZGluZycsICctaW1hZScsICc8aW5maWxlLm1hZT4nLCAnLW9tYWUnLCAnPG91dGZpbGUubWFlPic=

> <r_lp_tautomer_probability>
1

> <r_epik_Ionization_Penalty>
0.00557649

> <r_epik_Ionization_Penalty_Charging>
0

> <r_epik_Ionization_Penalty_Neutral>
0.00557649

> <r_epik_State_Penalty>
0.00408419

> <r_epik_Charging_Adjusted_Penalty>
0.00408419

> <i_epik_Tot_Q>
0

> <i_epik_Tot_abs_Q>
0

> <r_epik_Metal_State_Penalty>
-0

> <b_epik_Metal_Only>
0

> <s_lp_Force_Field>
OPLS_2005

> <r_lp_Energy>
18.1118

> <b_lp_Chiralities_Consistent>
1

> <s_lp_Variant>
AV-unprocessed.smi:455-1

> <Gold.Version>
5.8.1

> <Gold.Id.Protein>
6NUR|6NUR_protein|mol2

> <Gold.PLP.Fitness>
35.8151

> <Gold.PLP.PLP>
-34.2893

> <Gold.PLP.part.hbond>
-1.0000

> <Gold.PLP.part.metal>
0.0000

> <Gold.PLP.part.buried>
-0.4354

> <Gold.PLP.part.nonpolar>
-33.1479

> <Gold.PLP.part.repulsive>
0.7035

> <Gold.PLP.ligand.clash>
0.0000

> <Gold.PLP.ligand.torsion>
0.9194

> <Gold.PLP.Chemscore.Hbond>
1.0000

> <Gold.PLP.Chemscore.CHOScore>
0.0000

> <Gold.PLP.Chemscore.Metal>
0.0000

> <Gold.Chemscore.Hbonds>
donor molecule, donor type, donor heavy atom, donor atom, acceptor molecule, acceptor atom, score
      L1  H     8    33       P1  7948  1.00

> <Gold.PLP.Chemscore.Internal.Correction>
0.3647

> <Gold.Rescore>
     Score         DG    S(hbond)    S(metal)    S(lipo)     H(rot)  DE(clash)    DE(int)     intcor
     13.31     -15.68       1.00        0.00      93.96       1.62       0.30       2.07       ----

> <Gold.Chemscore.Fitness>
13.3077

> <Gold.Chemscore.DG>
-15.6757

> <Gold.Chemscore.ZeroCoef>
-5.4800

> <Gold.Chemscore.Hbond>
1.0000

> <Gold.Chemscore.Metal>
0.0000

> <Gold.Chemscore.Lipo>
93.9642

> <Gold.Chemscore.Internal_Hbond>
0.0000

> <Gold.Chemscore.DEClash>
0.3006

> <Gold.Chemscore.DEInternal>
2.0674

> <Gold.Chemscore.Rot>
1.6164

> <Gold.Chemscore.Internal.Correction>
   9.000000E+99

> <Gold.Chemscore.Hbonds>
donor molecule, donor type, donor heavy atom, donor atom, acceptor molecule, acceptor atom, score
      L1  H     8    33       P1  7948  0.99

> <Gold.Chemscore.Hbond.Weighted>
-3.3400

> <Gold.Chemscore.Metal.Weighted>
-0.0000

> <Gold.Chemscore.Lipo.Weighted>
-10.9938

> <Gold.Chemscore.Internal_Hbond.Weighted>
0.0000

> <Gold.Chemscore.DEClash.Weighted>
0.3006

> <Gold.Chemscore.DEInternal.Weighted>
2.0674

> <Gold.Chemscore.Rot.Weighted>
4.1381

> <Gold.Chemscore.Internal.Correction.Weighted>
   9.000000E+99

> <Gold.Protein.RotatedTorsions>
[ 6907 6896 6895 6894 ] final  -50.19 input  -60.11 | X-H torsion
[ 7974 7965 7964 7962 ] final -120.72 input  175.53 | X-H torsion
[ 8008 7997 7996 7995 ] final -163.66 input   59.86 | X-H torsion
[ 10167 10162 10161 10158 ] final   19.70 input  -65.29 | X-H torsion
[ 10718 10713 10712 10709 ] final   15.63 input   66.30 | X-H torsion
[ 10763 10752 10751 10750 ] final   25.77 input  -60.55 | X-H torsion
[ 11005 11000 10999 10996 ] final -142.29 input  -57.11 | X-H torsion

> <Gold.Protein.ActiveResidues>
 VAL166  LYS551  ARG553  GLY616  TRP617  ASP618  TYR619  PRO620  LYS621  CYS622 
 ASP623  PHE694  ASN695  SER759  ASP760  ASP761  ALA762  ILE779  LEU786  VAL792 
 PHE793  MET794  SER795  GLU796  ALA797  LYS798  CYS799  TRP800  GLU811  SER814 

> <Gold.Protein.RotatedAtoms>
  150.8732  134.8109  159.7169 H   0  0  0  0  0  0  0  0  0  0  0  0  # atno 6907 bound_to 6896
  152.4728  134.4914  159.9706 H   0  0  0  0  0  0  0  0  0  0  0  0  # atno 6908 bound_to 6896
  151.5000  133.3468  159.2903 H   0  0  0  0  0  0  0  0  0  0  0  0  # atno 6909 bound_to 6896
  145.0482  140.8198  143.4225 H   0  0  0  0  0  0  0  0  0  0  0  0  # atno 7974 bound_to 7965
  155.8245  140.0924  157.1829 H   0  0  0  0  0  0  0  0  0  0  0  0  # atno 8008 bound_to 7997
  154.3979  140.1430  156.3600 H   0  0  0  0  0  0  0  0  0  0  0  0  # atno 8009 bound_to 7997
  155.8231  140.3445  155.5529 H   0  0  0  0  0  0  0  0  0  0  0  0  # atno 8010 bound_to 7997
  140.5559  143.9425  150.6609 H   0  0  0  0  0  0  0  0  0  0  0  0  # atno 10167 bound_to 10162
  157.0563  130.6290  149.5777 H   0  0  0  0  0  0  0  0  0  0  0  0  # atno 10718 bound_to 10713
  153.0669  135.6575  154.0335 H   0  0  0  0  0  0  0  0  0  0  0  0  # atno 10763 bound_to 10752
  153.9990  135.2939  155.3406 H   0  0  0  0  0  0  0  0  0  0  0  0  # atno 10764 bound_to 10752
  154.7029  135.5237  153.8622 H   0  0  0  0  0  0  0  0  0  0  0  0  # atno 10765 bound_to 10752
  140.8240  134.2597  157.4887 H   0  0  0  0  0  0  0  0  0  0  0  0  # atno 11005 bound_to 11000
  145.1560  139.2486  143.5416 LP  0  0  0  0  0  0  0  0  0  0  0  0  # atno 17320 bound_to 7965
  146.3516  140.1275  142.8598 LP  0  0  0  0  0  0  0  0  0  0  0  0  # atno 17321 bound_to 7965
  140.2863  143.3355  152.1104 LP  0  0  0  0  0  0  0  0  0  0  0  0  # atno 17342 bound_to 10162
  139.5048  144.6782  151.6075 LP  0  0  0  0  0  0  0  0  0  0  0  0  # atno 17343 bound_to 10162
  155.9992  130.5067  150.7599 LP  0  0  0  0  0  0  0  0  0  0  0  0  # atno 17370 bound_to 10713
  157.4990  131.0917  151.0336 LP  0  0  0  0  0  0  0  0  0  0  0  0  # atno 17371 bound_to 10713
  139.8707  134.9550  156.4194 LP  0  0  0  0  0  0  0  0  0  0  0  0  # atno 17394 bound_to 11000
  140.9069  133.7739  155.9746 LP  0  0  0  0  0  0  0  0  0  0  0  0  # atno 17395 bound_to 11000

$$$$
