AV-unprocessed.smi:3292|AV-procd|sdf|12627|dock3
  -GOLD-   2272018563D 1   1.00000     0.00000
 Structure written by MMmdl.
 38 39  0  0  0  0  0  0  0  0  1 V2000
  148.0545  131.5618  153.5054 C   0  0  0  0  0  0  0  0  0  0  0  0
  147.3191  132.8829  153.2435 C   0  0  2  0  0  0  0  0  0  0  0  0
  146.6934  132.9058  151.8315 C   0  0  0  0  0  0  0  0  0  0  0  0
  145.5525  133.7991  151.7363 N   0  0  0  0  0  0  0  0  0  0  0  0
  145.3903  134.8618  150.8573 C   0  0  0  0  0  0  0  0  0  0  0  0
  144.1515  135.4022  151.1189 C   0  0  0  0  0  0  0  0  0  0  0  0
  143.5411  134.6982  152.1547 N   0  0  0  0  0  0  0  0  0  0  0  0
  144.4324  133.7685  152.4721 C   0  0  0  0  0  0  0  0  0  0  0  0
  148.2569  133.9921  153.4139 N   0  0  0  0  0  0  0  0  0  0  0  0
  149.0308  134.1969  154.4899 C   0  0  0  0  0  0  0  0  0  0  0  0
  149.1078  133.4242  155.4453 O   0  0  0  0  0  0  0  0  0  0  0  0
  149.6723  135.3706  154.4230 N   0  0  0  0  0  0  0  0  0  0  0  0
  150.4636  135.9475  155.5042 C   0  0  0  0  0  0  0  0  0  0  0  0
  150.4449  137.4895  155.4710 C   0  0  1  0  0  0  0  0  0  0  0  0
  151.3993  138.1443  156.4641 C   0  0  0  0  0  0  0  0  0  0  0  0
  152.0293  139.3020  155.6825 C   0  0  0  0  0  0  0  0  0  0  0  0
  151.2571  139.4144  154.4965 O   0  0  0  0  0  0  0  0  0  0  0  0
  150.8631  138.1028  154.1343 C   0  0  0  0  0  0  0  0  0  0  0  0
  147.3774  130.7121  153.4145 H   0  0  0  0  0  0  0  0  0  0  0  0
  148.4760  131.5393  154.5109 H   0  0  0  0  0  0  0  0  0  0  0  0
  148.8708  131.4133  152.7974 H   0  0  0  0  0  0  0  0  0  0  0  0
  146.5193  132.9589  153.9826 H   0  0  0  0  0  0  0  0  0  0  0  0
  147.4355  133.2016  151.0882 H   0  0  0  0  0  0  0  0  0  0  0  0
  146.3569  131.9060  151.5545 H   0  0  0  0  0  0  0  0  0  0  0  0
  146.1442  135.1305  150.1321 H   0  0  0  0  0  0  0  0  0  0  0  0
  143.6563  136.2366  150.6448 H   0  0  0  0  0  0  0  0  0  0  0  0
  144.2607  133.0392  153.2502 H   0  0  0  0  0  0  0  0  0  0  0  0
  148.2709  134.6883  152.6829 H   0  0  0  0  0  0  0  0  0  0  0  0
  149.5516  135.9348  153.5945 H   0  0  0  0  0  0  0  0  0  0  0  0
  150.0989  135.5837  156.4663 H   0  0  0  0  0  0  0  0  0  0  0  0
  151.4864  135.5834  155.4036 H   0  0  0  0  0  0  0  0  0  0  0  0
  149.4382  137.8448  155.6977 H   0  0  0  0  0  0  0  0  0  0  0  0
  150.8554  138.5025  157.3388 H   0  0  0  0  0  0  0  0  0  0  0  0
  152.1715  137.4574  156.8125 H   0  0  0  0  0  0  0  0  0  0  0  0
  152.0295  140.2366  156.2437 H   0  0  0  0  0  0  0  0  0  0  0  0
  153.0605  139.0662  155.4152 H   0  0  0  0  0  0  0  0  0  0  0  0
  151.7120  137.5720  153.6993 H   0  0  0  0  0  0  0  0  0  0  0  0
  150.0533  138.1156  153.4046 H   0  0  0  0  0  0  0  0  0  0  0  0
  1  2  1  0  0  0  0
  1 19  1  0  0  0  0
  1 20  1  0  0  0  0
  1 21  1  0  0  0  0
  2  3  1  0  0  0  0
  2  9  1  0  0  0  0
  2 22  1  0  0  0  0
  3  4  1  0  0  0  0
  3 23  1  0  0  0  0
  3 24  1  0  0  0  0
  4  8  1  0  0  0  0
  4  5  1  0  0  0  0
  5  6  2  0  0  0  0
  5 25  1  0  0  0  0
  6  7  1  0  0  0  0
  6 26  1  0  0  0  0
  7  8  2  0  0  0  0
  8 27  1  0  0  0  0
  9 10  1  0  0  0  0
  9 28  1  0  0  0  0
 10 11  2  0  0  0  0
 10 12  1  0  0  0  0
 12 13  1  0  0  0  0
 12 29  1  0  0  0  0
 13 14  1  0  0  0  0
 13 30  1  0  0  0  0
 13 31  1  0  0  0  0
 14 18  1  0  0  0  0
 14 15  1  0  0  0  0
 14 32  1  0  0  0  0
 15 16  1  0  0  0  0
 15 33  1  0  0  0  0
 15 34  1  0  0  0  0
 16 17  1  0  0  0  0
 16 35  1  0  0  0  0
 16 36  1  0  0  0  0
 17 18  1  0  0  0  0
 18 37  1  0  0  0  0
 18 38  1  0  0  0  0
M  END
> <s_m_source_file>
AV-unprocessed.smi

> <i_m_source_file_index>
3292

> <i_lp_mmshare_version>
43012

> <i_f3d_flags>
0

> <s_epik_input>
W2NIXTFuW2NIXVtjSF1uMVtDSDJdW0NAQEhdKFtDSDNdKVtOSF1DKD1PKVtOSF1bQ0gyXVtDQEBIXTJbQ0gyXVtDSDJdT1tDSDJdMg==

> <s_epik_cmdline>
J2VwaWtfcHl0aG9uJywgJy1waCcsICc3LjAnLCAnLXRuJywgJzgnLCAnLW1hJywgJzIwMCcsICctbWV0YWxfYmluZGluZycsICctaW1hZScsICc8aW5maWxlLm1hZT4nLCAnLW9tYWUnLCAnPG91dGZpbGUubWFlPic=

> <r_lp_tautomer_probability>
1

> <r_epik_Ionization_Penalty>
0.621291

> <r_epik_Ionization_Penalty_Charging>
0.621234

> <r_epik_Ionization_Penalty_Neutral>
5.72199e-05

> <r_epik_State_Penalty>
0.637278

> <r_epik_Charging_Adjusted_Penalty>
1.25851

> <i_epik_Tot_Q>
0

> <i_epik_Tot_abs_Q>
0

> <r_epik_Metal_State_Penalty>
0.306757

> <b_epik_Metal_Only>
0

> <s_lp_Force_Field>
OPLS_2005

> <r_lp_Energy>
18.0695

> <b_lp_Chiralities_Consistent>
1

> <s_lp_Variant>
AV-unprocessed.smi:3292-7

> <Gold.Version>
5.8.1

> <Gold.Id.Protein>
6NUR|6NUR_protein|mol2

> <Gold.PLP.Fitness>
46.6456

> <Gold.PLP.PLP>
-29.6719

> <Gold.PLP.part.hbond>
-3.0804

> <Gold.PLP.part.metal>
0.0000

> <Gold.PLP.part.buried>
-4.2650

> <Gold.PLP.part.nonpolar>
-22.8196

> <Gold.PLP.part.repulsive>
0.3517

> <Gold.PLP.ligand.clash>
0.0000

> <Gold.PLP.ligand.torsion>
0.5334

> <Gold.PLP.Chemscore.Hbond>
3.0000

> <Gold.PLP.Chemscore.CHOScore>
2.9980

> <Gold.PLP.Chemscore.Metal>
0.0000

> <Gold.Chemscore.Hbonds>
donor molecule, donor type, donor heavy atom, donor atom, acceptor molecule, acceptor atom, score
      L1  H     9    28       P1  7948  1.00
      L1  H    12    29       P1  7948  1.00
      P1  H  7989  7998       L1    17  1.00
      L1  C     5    25       P1  7921  1.00
      L1  C     6    26       P1 10171  1.00
      L1  C     8    27       P1 10957  0.96

> <Gold.PLP.Chemscore.Internal.Correction>
0.0466

> <Gold.Rescore>
     Score         DG    S(hbond)    S(metal)    S(lipo)     H(rot)  DE(clash)    DE(int)     intcor
     13.81     -14.15       2.44        0.00      51.57       2.16       0.00       0.34       ----

> <Gold.Chemscore.Fitness>
13.8064

> <Gold.Chemscore.DG>
-14.1481

> <Gold.Chemscore.ZeroCoef>
-5.4800

> <Gold.Chemscore.Hbond>
2.4424

> <Gold.Chemscore.Metal>
0.0000

> <Gold.Chemscore.Lipo>
51.5748

> <Gold.Chemscore.Internal_Hbond>
0.0000

> <Gold.Chemscore.DEClash>
0.0038

> <Gold.Chemscore.DEInternal>
0.3379

> <Gold.Chemscore.Rot>
2.1577

> <Gold.Chemscore.Internal.Correction>
   9.000000E+99

> <Gold.Chemscore.Hbonds>
donor molecule, donor type, donor heavy atom, donor atom, acceptor molecule, acceptor atom, score
      L1  H     9    28       P1  7948  0.43
      L1  H    12    29       P1  7948  0.34
      P1  H  7989  7998       L1    17  0.88

> <Gold.Chemscore.Hbond.Weighted>
-8.1576

> <Gold.Chemscore.Metal.Weighted>
-0.0000

> <Gold.Chemscore.Lipo.Weighted>
-6.0342

> <Gold.Chemscore.Internal_Hbond.Weighted>
0.0000

> <Gold.Chemscore.DEClash.Weighted>
0.0038

> <Gold.Chemscore.DEInternal.Weighted>
0.3379

> <Gold.Chemscore.Rot.Weighted>
5.5237

> <Gold.Chemscore.Internal.Correction.Weighted>
   9.000000E+99

> <Gold.Protein.RotatedTorsions>
[ 6907 6896 6895 6894 ] final   20.91 input  -60.11 | X-H torsion
[ 7974 7965 7964 7962 ] final  -56.98 input  175.53 | X-H torsion
[ 8008 7997 7996 7995 ] final  152.25 input   59.86 | X-H torsion
[ 10167 10162 10161 10158 ] final -100.26 input  -65.29 | X-H torsion
[ 10718 10713 10712 10709 ] final   26.18 input   66.30 | X-H torsion
[ 10763 10752 10751 10750 ] final  136.67 input  -60.55 | X-H torsion
[ 11005 11000 10999 10996 ] final  115.90 input  -57.11 | X-H torsion

> <Gold.Protein.ActiveResidues>
 VAL166  LYS551  ARG553  GLY616  TRP617  ASP618  TYR619  PRO620  LYS621  CYS622 
 ASP623  PHE694  ASN695  SER759  ASP760  ASP761  ALA762  ILE779  LEU786  VAL792 
 PHE793  MET794  SER795  GLU796  ALA797  LYS798  CYS799  TRP800  GLU811  SER814 

> <Gold.Protein.RotatedAtoms>
  151.9036  135.0368  160.0508 H   0  0  0  0  0  0  0  0  0  0  0  0  # atno 6907 bound_to 6896
  152.2337  133.5075  159.5239 H   0  0  0  0  0  0  0  0  0  0  0  0  # atno 6908 bound_to 6896
  150.7033  134.1098  159.4038 H   0  0  0  0  0  0  0  0  0  0  0  0  # atno 6909 bound_to 6896
  145.8564  140.8316  142.9959 H   0  0  0  0  0  0  0  0  0  0  0  0  # atno 7974 bound_to 7965
  156.2637  140.2026  156.6304 H   0  0  0  0  0  0  0  0  0  0  0  0  # atno 8008 bound_to 7997
  154.6687  140.0552  157.0167 H   0  0  0  0  0  0  0  0  0  0  0  0  # atno 8009 bound_to 7997
  155.1168  140.3221  155.4510 H   0  0  0  0  0  0  0  0  0  0  0  0  # atno 8010 bound_to 7997
  140.2538  143.3454  152.0690 H   0  0  0  0  0  0  0  0  0  0  0  0  # atno 10167 bound_to 10162
  157.2034  130.6900  149.6198 H   0  0  0  0  0  0  0  0  0  0  0  0  # atno 10718 bound_to 10713
  153.8604  135.3068  155.3437 H   0  0  0  0  0  0  0  0  0  0  0  0  # atno 10763 bound_to 10752
  154.7851  135.4814  153.9932 H   0  0  0  0  0  0  0  0  0  0  0  0  # atno 10764 bound_to 10752
  153.1465  135.6834  153.9041 H   0  0  0  0  0  0  0  0  0  0  0  0  # atno 10765 bound_to 10752
  139.9024  134.9590  156.7115 H   0  0  0  0  0  0  0  0  0  0  0  0  # atno 11005 bound_to 11000
  144.6727  140.1030  143.7459 LP  0  0  0  0  0  0  0  0  0  0  0  0  # atno 17320 bound_to 7965
  145.9299  139.2599  143.1331 LP  0  0  0  0  0  0  0  0  0  0  0  0  # atno 17321 bound_to 7965
  139.5038  144.6762  151.6122 LP  0  0  0  0  0  0  0  0  0  0  0  0  # atno 17342 bound_to 10162
  140.6020  143.9593  150.6392 LP  0  0  0  0  0  0  0  0  0  0  0  0  # atno 17343 bound_to 10162
  155.9698  130.4575  150.5965 LP  0  0  0  0  0  0  0  0  0  0  0  0  # atno 17370 bound_to 10713
  157.3745  131.0771  151.1530 LP  0  0  0  0  0  0  0  0  0  0  0  0  # atno 17371 bound_to 10713
  140.7072  133.9255  155.8061 LP  0  0  0  0  0  0  0  0  0  0  0  0  # atno 17394 bound_to 11000
  141.0328  134.0732  157.3995 LP  0  0  0  0  0  0  0  0  0  0  0  0  # atno 17395 bound_to 11000

$$$$
