AV-unprocessed.smi:1278|AV-procd|sdf|5352|dock9
  -GOLD-   22720 4483D 1   1.00000     0.00000
 Structure written by MMmdl.
 38 39  0  0  0  0  0  0  0  0  3 V2000
  143.7807  132.6914  148.7110 C   0  0  0  0  0  0  0  0  0  0  0  0
  144.0763  132.2079  150.1416 C   0  0  1  0  0  0  0  0  0  0  0  0
  145.5646  131.8819  150.3663 C   0  0  0  0  0  0  0  0  0  0  0  0
  146.4059  133.1618  150.4715 C   0  0  0  0  0  0  0  0  0  0  0  0
  145.8335  134.1141  151.5334 C   0  0  0  0  0  0  0  0  0  0  0  0
  144.4089  134.4324  151.2565 N   0  3  2  0  0  0  0  0  0  0  0  0
  143.8759  135.4674  152.1766 C   0  0  0  0  0  0  0  0  0  0  0  0
  143.7262  134.9463  153.6187 C   0  0  0  0  0  0  0  0  0  0  0  0
  142.3866  135.1975  154.1366 N   0  0  0  0  0  0  0  0  0  0  0  0
  141.8717  136.4027  154.4197 C   0  0  0  0  0  0  0  0  0  0  0  0
  142.5483  137.4177  154.2370 O   0  0  0  0  0  0  0  0  0  0  0  0
  140.6098  136.3550  154.9016 N   0  5  0  0  0  0  0  0  0  0  0  0
  139.6888  137.2259  154.4580 C   0  0  0  0  0  0  0  0  0  0  0  0
  139.9591  138.1778  153.5576 N   0  0  0  0  0  0  0  0  0  0  0  0
  138.8544  138.9692  153.2374 C   0  0  0  0  0  0  0  0  0  0  0  0
  137.7140  138.6056  153.9031 C   0  0  0  0  0  0  0  0  0  0  0  0
  137.9947  137.2490  154.9569 S   0  0  0  0  0  0  0  0  0  0  0  0
  143.5727  133.2021  151.2085 C   0  0  0  0  0  0  0  0  0  0  0  0
  144.2753  133.6371  148.4898 H   0  0  0  0  0  0  0  0  0  0  0  0
  142.7105  132.8381  148.5618 H   0  0  0  0  0  0  0  0  0  0  0  0
  144.1156  131.9612  147.9739 H   0  0  0  0  0  0  0  0  0  0  0  0
  143.5183  131.2797  150.2719 H   0  0  0  0  0  0  0  0  0  0  0  0
  145.6715  131.3102  151.2891 H   0  0  0  0  0  0  0  0  0  0  0  0
  145.9430  131.2437  149.5667 H   0  0  0  0  0  0  0  0  0  0  0  0
  147.4368  132.9076  150.7198 H   0  0  0  0  0  0  0  0  0  0  0  0
  146.4407  133.6661  149.5054 H   0  0  0  0  0  0  0  0  0  0  0  0
  145.9227  133.6717  152.5268 H   0  0  0  0  0  0  0  0  0  0  0  0
  146.4236  135.0313  151.5406 H   0  0  0  0  0  0  0  0  0  0  0  0
  144.5101  136.3550  152.1471 H   0  0  0  0  0  0  0  0  0  0  0  0
  142.8932  135.7820  151.8227 H   0  0  0  0  0  0  0  0  0  0  0  0
  143.9512  133.8796  153.6676 H   0  0  0  0  0  0  0  0  0  0  0  0
  144.4277  135.4421  154.2883 H   0  0  0  0  0  0  0  0  0  0  0  0
  141.7959  134.3937  154.2944 H   0  0  0  0  0  0  0  0  0  0  0  0
  138.9705  139.7710  152.5235 H   0  0  0  0  0  0  0  0  0  0  0  0
  136.7318  139.0483  153.8373 H   0  0  0  0  0  0  0  0  0  0  0  0
  142.5322  133.4512  151.0025 H   0  0  0  0  0  0  0  0  0  0  0  0
  143.5866  132.7259  152.1903 H   0  0  0  0  0  0  0  0  0  0  0  0
  144.3882  134.8405  150.3328 H   0  0  0  0  0  0  0  0  0  0  0  0
  1  2  1  0  0  0  0
  1 19  1  0  0  0  0
  1 20  1  0  0  0  0
  1 21  1  0  0  0  0
  2 18  1  0  0  0  0
  2  3  1  0  0  0  0
  2 22  1  0  0  0  0
  3  4  1  0  0  0  0
  3 23  1  0  0  0  0
  3 24  1  0  0  0  0
  4  5  1  0  0  0  0
  4 25  1  0  0  0  0
  4 26  1  0  0  0  0
  5  6  1  0  0  0  0
  5 27  1  0  0  0  0
  5 28  1  0  0  0  0
  6  7  1  0  0  0  0
  6 18  1  0  0  0  0
  6 38  1  0  0  0  0
  7  8  1  0  0  0  0
  7 29  1  0  0  0  0
  7 30  1  0  0  0  0
  8  9  1  0  0  0  0
  8 31  1  0  0  0  0
  8 32  1  0  0  0  0
  9 10  1  0  0  0  0
  9 33  1  0  0  0  0
 10 11  2  0  0  0  0
 10 12  1  0  0  0  0
 12 13  1  0  0  0  0
 13 17  1  0  0  0  0
 13 14  2  0  0  0  0
 14 15  1  0  0  0  0
 15 16  2  0  0  0  0
 15 34  1  0  0  0  0
 16 17  1  0  0  0  0
 16 35  1  0  0  0  0
 18 36  1  0  0  0  0
 18 37  1  0  0  0  0
M  CHG  1   6   1
M  CHG  1  12  -1
M  END
> <s_m_source_file>
AV-unprocessed.smi

> <i_m_source_file_index>
1278

> <i_lp_mmshare_version>
43012

> <i_f3d_flags>
0

> <s_epik_input>
W0NIM11bQ0BASF0xW0NIMl1bQ0gyXVtDSDJdTihbQ0gyXTEpW0NIMl1bQ0gyXVtOSF1DKD1PKVtOSF1jMm5bY0hdW2NIXXMy

> <s_epik_cmdline>
J2VwaWtfcHl0aG9uJywgJy1waCcsICc3LjAnLCAnLXRuJywgJzgnLCAnLW1hJywgJzIwMCcsICctbWV0YWxfYmluZGluZycsICctaW1hZScsICc8aW5maWxlLm1hZT4nLCAnLW9tYWUnLCAnPG91dGZpbGUubWFlPic=

> <r_lp_tautomer_probability>
0.999

> <r_epik_Ionization_Penalty>
6.22019

> <r_epik_Ionization_Penalty_Charging>
5.38911

> <r_epik_Ionization_Penalty_Neutral>
0.831074

> <r_epik_State_Penalty>
5.38904

> <r_epik_Charging_Adjusted_Penalty>
10.7782

> <i_epik_Tot_Q>
0

> <i_epik_Tot_abs_Q>
2

> <r_epik_Metal_State_Penalty>
1.41502

> <b_epik_Metal_Only>
1

> <s_lp_Force_Field>
OPLS_2005

> <r_lp_Energy>
8.87374

> <b_lp_Chiralities_Consistent>
1

> <s_lp_Variant>
AV-unprocessed.smi:1278-6

> <Gold.Version>
5.8.1

> <Gold.Id.Protein>
6NUR|6NUR_protein|mol2

> <Gold.PLP.Fitness>
39.4991

> <Gold.PLP.PLP>
-35.4697

> <Gold.PLP.part.hbond>
-1.0000

> <Gold.PLP.part.metal>
0.0000

> <Gold.PLP.part.buried>
-6.4277

> <Gold.PLP.part.nonpolar>
-28.1137

> <Gold.PLP.part.repulsive>
0.2852

> <Gold.PLP.ligand.clash>
0.0000

> <Gold.PLP.ligand.torsion>
0.7719

> <Gold.PLP.Chemscore.Hbond>
0.8320

> <Gold.PLP.Chemscore.CHOScore>
1.0000

> <Gold.PLP.Chemscore.Metal>
0.0000

> <Gold.Chemscore.Hbonds>
donor molecule, donor type, donor heavy atom, donor atom, acceptor molecule, acceptor atom, score
      P1  H 11000 11005       L1    12  0.75
      L1  C    15    34       P1 10160  1.00

> <Gold.PLP.Chemscore.Internal.Correction>
0.0773

> <Gold.Rescore>
     Score         DG    S(hbond)    S(metal)    S(lipo)     H(rot)  DE(clash)    DE(int)     intcor
     12.56     -14.96       0.84        0.00      91.41       1.57       0.21       2.20       ----

> <Gold.Chemscore.Fitness>
12.5587

> <Gold.Chemscore.DG>
-14.9641

> <Gold.Chemscore.ZeroCoef>
-5.4800

> <Gold.Chemscore.Hbond>
0.8390

> <Gold.Chemscore.Metal>
0.0000

> <Gold.Chemscore.Lipo>
91.4096

> <Gold.Chemscore.Internal_Hbond>
0.0000

> <Gold.Chemscore.DEClash>
0.2051

> <Gold.Chemscore.DEInternal>
2.2003

> <Gold.Chemscore.Rot>
1.5676

> <Gold.Chemscore.Internal.Correction>
   9.000000E+99

> <Gold.Chemscore.Hbonds>
donor molecule, donor type, donor heavy atom, donor atom, acceptor molecule, acceptor atom, score
      P1  H 11000 11005       L1    12  0.67

> <Gold.Chemscore.Hbond.Weighted>
-2.8022

> <Gold.Chemscore.Metal.Weighted>
-0.0000

> <Gold.Chemscore.Lipo.Weighted>
-10.6949

> <Gold.Chemscore.Internal_Hbond.Weighted>
0.0000

> <Gold.Chemscore.DEClash.Weighted>
0.2051

> <Gold.Chemscore.DEInternal.Weighted>
2.2003

> <Gold.Chemscore.Rot.Weighted>
4.0130

> <Gold.Chemscore.Internal.Correction.Weighted>
   9.000000E+99

> <Gold.Protein.RotatedTorsions>
[ 6907 6896 6895 6894 ] final  163.04 input  -60.11 | X-H torsion
[ 7974 7965 7964 7962 ] final   79.86 input  175.53 | X-H torsion
[ 8008 7997 7996 7995 ] final  -71.98 input   59.86 | X-H torsion
[ 10167 10162 10161 10158 ] final  143.45 input  -65.29 | X-H torsion
[ 10718 10713 10712 10709 ] final   31.75 input   66.30 | X-H torsion
[ 10763 10752 10751 10750 ] final   55.54 input  -60.55 | X-H torsion
[ 11005 11000 10999 10996 ] final   66.91 input  -57.11 | X-H torsion

> <Gold.Protein.ActiveResidues>
 VAL166  LYS551  ARG553  GLY616  TRP617  ASP618  TYR619  PRO620  LYS621  CYS622 
 ASP623  PHE694  ASN695  SER759  ASP760  ASP761  ALA762  ILE779  LEU786  VAL792 
 PHE793  MET794  SER795  GLU796  ALA797  LYS798  CYS799  TRP800  GLU811  SER814 

> <Gold.Protein.RotatedAtoms>
  151.9313  133.3612  159.3931 H   0  0  0  0  0  0  0  0  0  0  0  0  # atno 6907 bound_to 6896
  150.7016  134.4535  159.5356 H   0  0  0  0  0  0  0  0  0  0  0  0  # atno 6908 bound_to 6896
  152.2176  134.8444  160.0541 H   0  0  0  0  0  0  0  0  0  0  0  0  # atno 6909 bound_to 6896
  145.6587  139.2466  143.1935 H   0  0  0  0  0  0  0  0  0  0  0  0  # atno 7974 bound_to 7965
  154.5130  140.0805  156.8027 H   0  0  0  0  0  0  0  0  0  0  0  0  # atno 8008 bound_to 7997
  155.3743  140.3424  155.4226 H   0  0  0  0  0  0  0  0  0  0  0  0  # atno 8009 bound_to 7997
  156.1595  140.1584  156.8623 H   0  0  0  0  0  0  0  0  0  0  0  0  # atno 8010 bound_to 7997
  139.4969  144.6039  151.6420 H   0  0  0  0  0  0  0  0  0  0  0  0  # atno 10167 bound_to 10162
  157.2764  130.7233  149.6532 H   0  0  0  0  0  0  0  0  0  0  0  0  # atno 10718 bound_to 10713
  152.9818  135.5707  154.5084 H   0  0  0  0  0  0  0  0  0  0  0  0  # atno 10763 bound_to 10752
  154.4592  135.2781  155.1727 H   0  0  0  0  0  0  0  0  0  0  0  0  # atno 10764 bound_to 10752
  154.3322  135.6247  153.5610 H   0  0  0  0  0  0  0  0  0  0  0  0  # atno 10765 bound_to 10752
  139.9803  134.6755  156.0275 H   0  0  0  0  0  0  0  0  0  0  0  0  # atno 11005 bound_to 11000
  146.1144  140.7388  142.9488 LP  0  0  0  0  0  0  0  0  0  0  0  0  # atno 17320 bound_to 7965
  144.7097  140.3990  143.7090 LP  0  0  0  0  0  0  0  0  0  0  0  0  # atno 17321 bound_to 7965
  140.5696  144.0131  150.6210 LP  0  0  0  0  0  0  0  0  0  0  0  0  # atno 17342 bound_to 10162
  140.3244  143.3116  152.0751 LP  0  0  0  0  0  0  0  0  0  0  0  0  # atno 17343 bound_to 10162
  155.9664  130.4351  150.5079 LP  0  0  0  0  0  0  0  0  0  0  0  0  # atno 17370 bound_to 10713
  157.3014  131.0646  151.2065 LP  0  0  0  0  0  0  0  0  0  0  0  0  # atno 17371 bound_to 10713
  141.1476  133.6553  156.3914 LP  0  0  0  0  0  0  0  0  0  0  0  0  # atno 17394 bound_to 11000
  140.5110  134.6395  157.5284 LP  0  0  0  0  0  0  0  0  0  0  0  0  # atno 17395 bound_to 11000

$$$$
