AV-unprocessed.smi:84|AV-procd|sdf|809|dock10
  -GOLD-   2262017203D 1   1.00000     0.00000
 Structure written by MMmdl.
 51 55  0  0  0  0  0  0  0  0  1 V2000
  138.0238  140.4808  152.9710 O   0  0  0  0  0  0  0  0  0  0  0  0
  138.6216  140.2788  154.0253 C   0  0  0  0  0  0  0  0  0  0  0  0
  140.1018  140.5621  154.2246 C   0  0  0  0  0  0  0  0  0  0  0  0
  140.4258  139.7820  155.5171 C   0  0  2  0  0  0  0  0  0  0  0  0
  141.5391  140.4215  156.3572 C   0  0  0  0  0  0  0  0  0  0  0  0
  142.8168  139.8719  155.7258 C   0  0  0  0  0  0  0  0  0  0  0  0
  142.4592  138.5368  155.2694 N   0  0  0  0  0  0  0  0  0  0  0  0
  143.2977  137.7868  154.5084 C   0  0  0  0  0  0  0  0  0  0  0  0
  144.5772  138.2129  154.3352 N   0  0  0  0  0  0  0  0  0  0  0  0
  145.4348  137.5049  153.5952 C   0  0  0  0  0  0  0  0  0  0  0  0
  145.2282  136.3569  152.9491 N   0  0  0  0  0  0  0  0  0  0  0  0
  143.9500  135.9155  153.1238 C   0  0  0  0  0  0  0  0  0  0  0  0
  142.9309  136.5567  153.8858 C   0  0  0  0  0  0  0  0  0  0  0  0
  141.7725  135.7872  153.8530 N   0  0  0  0  0  0  0  0  0  0  0  0
  142.0866  134.7594  153.1134 C   0  0  0  0  0  0  0  0  0  0  0  0
  143.3677  134.7694  152.6116 N   0  0  0  0  0  0  0  0  0  0  0  0
  143.9887  133.7578  151.8080 C   0  0  0  0  0  0  0  0  0  0  0  0
  144.6814  134.1180  150.4907 C   0  0  0  0  0  0  0  0  0  0  0  0
  144.2722  132.7423  149.9143 C   0  0  0  0  0  0  0  0  0  0  0  0
  143.8099  132.6989  148.4443 C   0  0  0  0  0  0  0  0  0  0  0  0
  143.4546  133.9740  147.9480 O   0  0  0  0  0  0  0  0  0  0  0  0
  145.3058  131.6151  150.0991 C   0  0  0  0  0  0  0  0  0  0  0  0
  146.4857  131.8675  149.3635 O   0  0  0  0  0  0  0  0  0  0  0  0
  143.1597  132.7629  150.9880 C   0  0  0  0  0  0  0  0  0  0  0  0
  141.0120  138.3926  155.1855 C   0  0  0  0  0  0  0  0  0  0  0  0
  139.0568  139.6853  156.2226 C   0  0  0  0  0  0  0  0  0  0  0  0
  138.0906  139.7918  155.1459 N   0  0  0  0  0  0  0  0  0  0  0  0
  140.6980  140.2452  153.3680 H   0  0  0  0  0  0  0  0  0  0  0  0
  140.2345  141.6368  154.3552 H   0  0  0  0  0  0  0  0  0  0  0  0
  141.5072  141.5113  156.3699 H   0  0  0  0  0  0  0  0  0  0  0  0
  141.4681  140.0760  157.3896 H   0  0  0  0  0  0  0  0  0  0  0  0
  143.1158  140.4859  154.8748 H   0  0  0  0  0  0  0  0  0  0  0  0
  143.6405  139.8454  156.4401 H   0  0  0  0  0  0  0  0  0  0  0  0
  146.4287  137.9185  153.5078 H   0  0  0  0  0  0  0  0  0  0  0  0
  141.3842  133.9639  152.9115 H   0  0  0  0  0  0  0  0  0  0  0  0
  144.6771  133.2316  152.4711 H   0  0  0  0  0  0  0  0  0  0  0  0
  144.2030  134.9621  149.9915 H   0  0  0  0  0  0  0  0  0  0  0  0
  145.7553  134.2825  150.5813 H   0  0  0  0  0  0  0  0  0  0  0  0
  144.5932  132.3031  147.7974 H   0  0  0  0  0  0  0  0  0  0  0  0
  142.9462  132.0432  148.3294 H   0  0  0  0  0  0  0  0  0  0  0  0
  144.2460  134.4641  147.7849 H   0  0  0  0  0  0  0  0  0  0  0  0
  145.5854  131.4990  151.1464 H   0  0  0  0  0  0  0  0  0  0  0  0
  144.8976  130.6535  149.7857 H   0  0  0  0  0  0  0  0  0  0  0  0
  147.2159  131.4889  149.8290 H   0  0  0  0  0  0  0  0  0  0  0  0
  142.9842  131.8080  151.4845 H   0  0  0  0  0  0  0  0  0  0  0  0
  142.2206  133.1941  150.6383 H   0  0  0  0  0  0  0  0  0  0  0  0
  140.7072  137.6477  155.9210 H   0  0  0  0  0  0  0  0  0  0  0  0
  140.6864  138.0453  154.2043 H   0  0  0  0  0  0  0  0  0  0  0  0
  138.9280  138.7611  156.7866 H   0  0  0  0  0  0  0  0  0  0  0  0
  138.9064  140.5212  156.9074 H   0  0  0  0  0  0  0  0  0  0  0  0
  137.1208  139.5303  155.2510 H   0  0  0  0  0  0  0  0  0  0  0  0
  1  2  2  0  0  0  0
  2 27  1  0  0  0  0
  2  3  1  0  0  0  0
  3  4  1  0  0  0  0
  3 28  1  0  0  0  0
  3 29  1  0  0  0  0
  4 25  1  0  0  0  0
  4  5  1  0  0  0  0
  4 26  1  0  0  0  0
  5  6  1  0  0  0  0
  5 30  1  0  0  0  0
  5 31  1  0  0  0  0
  6  7  1  0  0  0  0
  6 32  1  0  0  0  0
  6 33  1  0  0  0  0
  7  8  1  0  0  0  0
  7 25  1  0  0  0  0
  8 13  1  0  0  0  0
  8  9  2  0  0  0  0
  9 10  1  0  0  0  0
 10 11  2  0  0  0  0
 10 34  1  0  0  0  0
 11 12  1  0  0  0  0
 12 16  1  0  0  0  0
 12 13  2  0  0  0  0
 13 14  1  0  0  0  0
 14 15  2  0  0  0  0
 15 16  1  0  0  0  0
 15 35  1  0  0  0  0
 16 17  1  0  0  0  0
 17 24  1  0  0  0  0
 17 18  1  0  0  0  0
 17 36  1  0  0  0  0
 18 19  1  0  0  0  0
 18 37  1  0  0  0  0
 18 38  1  0  0  0  0
 19 20  1  0  0  0  0
 19 22  1  0  0  0  0
 19 24  1  0  0  0  0
 20 21  1  0  0  0  0
 20 39  1  0  0  0  0
 20 40  1  0  0  0  0
 21 41  1  0  0  0  0
 22 23  1  0  0  0  0
 22 42  1  0  0  0  0
 22 43  1  0  0  0  0
 23 44  1  0  0  0  0
 24 45  1  0  0  0  0
 24 46  1  0  0  0  0
 25 47  1  0  0  0  0
 25 48  1  0  0  0  0
 26 27  1  0  0  0  0
 26 49  1  0  0  0  0
 26 50  1  0  0  0  0
 27 51  1  0  0  0  0
M  END
> <s_m_source_file>
AV-unprocessed.smi

> <i_m_source_file_index>
84

> <i_lp_mmshare_version>
43012

> <i_f3d_flags>
0

> <s_epik_input>
W0NIMl0xW05IXUMoPU8pW0NIMl1bQ0BdMTJbQ0gyXVtDSDJdTihbQ0gyXTIpYyhuW2NIXW4zKWMoYzM0KW5bY0hdbjRbQ0hdKFtDSDJdNSlbQ0gyXUM1KFtDSDJdW09IXSlbQ0gyXVtPSF0=

> <s_epik_cmdline>
J2VwaWtfcHl0aG9uJywgJy1waCcsICc3LjAnLCAnLXRuJywgJzgnLCAnLW1hJywgJzIwMCcsICctbWV0YWxfYmluZGluZycsICctaW1hZScsICc8aW5maWxlLm1hZT4nLCAnLW9tYWUnLCAnPG91dGZpbGUubWFlPic=

> <r_lp_tautomer_probability>
1

> <r_epik_Ionization_Penalty>
0.00201507

> <r_epik_Ionization_Penalty_Charging>
0

> <r_epik_Ionization_Penalty_Neutral>
0.00201507

> <r_epik_State_Penalty>
0.00133787

> <r_epik_Charging_Adjusted_Penalty>
0.00133787

> <i_epik_Tot_Q>
0

> <i_epik_Tot_abs_Q>
0

> <r_epik_Metal_State_Penalty>
-0

> <b_epik_Metal_Only>
0

> <s_lp_Force_Field>
OPLS_2005

> <r_lp_Energy>
68.8544

> <b_lp_Chiralities_Consistent>
1

> <s_lp_Variant>
AV-unprocessed.smi:84-2

> <Gold.Version>
5.8.1

> <Gold.Id.Protein>
6NUR|6NUR_protein|mol2

> <Gold.PLP.Fitness>
45.7958

> <Gold.PLP.PLP>
-38.3918

> <Gold.PLP.part.hbond>
-4.9677

> <Gold.PLP.part.metal>
0.0000

> <Gold.PLP.part.buried>
-6.0160

> <Gold.PLP.part.nonpolar>
-27.9507

> <Gold.PLP.part.repulsive>
1.4974

> <Gold.PLP.ligand.clash>
0.0000

> <Gold.PLP.ligand.torsion>
1.1193

> <Gold.PLP.Chemscore.Hbond>
3.0000

> <Gold.PLP.Chemscore.CHOScore>
0.0000

> <Gold.PLP.Chemscore.Metal>
0.0000

> <Gold.Chemscore.Hbonds>
donor molecule, donor type, donor heavy atom, donor atom, acceptor molecule, acceptor atom, score
      L1  H    21    41       P1  7921  1.00
      L1  H    23    44       P1 10747  1.00
      P1  H 10192 10197       L1    21  1.00

> <Gold.PLP.Chemscore.Internal.Correction>
0.6425

> <Gold.Rescore>
     Score         DG    S(hbond)    S(metal)    S(lipo)     H(rot)  DE(clash)    DE(int)     intcor
     12.29     -14.97       2.73        0.00      67.90       2.96       0.38       2.29       ----

> <Gold.Chemscore.Fitness>
12.2889

> <Gold.Chemscore.DG>
-14.9659

> <Gold.Chemscore.ZeroCoef>
-5.4800

> <Gold.Chemscore.Hbond>
2.7340

> <Gold.Chemscore.Metal>
0.0000

> <Gold.Chemscore.Lipo>
67.9010

> <Gold.Chemscore.Internal_Hbond>
0.0000

> <Gold.Chemscore.DEClash>
0.3846

> <Gold.Chemscore.DEInternal>
2.2924

> <Gold.Chemscore.Rot>
2.9649

> <Gold.Chemscore.Internal.Correction>
   9.000000E+99

> <Gold.Chemscore.Hbonds>
donor molecule, donor type, donor heavy atom, donor atom, acceptor molecule, acceptor atom, score
      L1  H    21    41       P1  7921  0.99
      L1  H    23    44       P1 10747  0.99
      P1  H 10192 10197       L1    21  0.37

> <Gold.Chemscore.Hbond.Weighted>
-9.1317

> <Gold.Chemscore.Metal.Weighted>
-0.0000

> <Gold.Chemscore.Lipo.Weighted>
-7.9444

> <Gold.Chemscore.Internal_Hbond.Weighted>
0.0000

> <Gold.Chemscore.DEClash.Weighted>
0.3846

> <Gold.Chemscore.DEInternal.Weighted>
2.2924

> <Gold.Chemscore.Rot.Weighted>
7.5902

> <Gold.Chemscore.Internal.Correction.Weighted>
   9.000000E+99

> <Gold.Protein.RotatedTorsions>
[ 6907 6896 6895 6894 ] final  113.28 input  -60.11 | X-H torsion
[ 7974 7965 7964 7962 ] final   80.11 input  175.53 | X-H torsion
[ 8008 7997 7996 7995 ] final -152.11 input   59.86 | X-H torsion
[ 10167 10162 10161 10158 ] final -144.70 input  -65.29 | X-H torsion
[ 10718 10713 10712 10709 ] final  152.27 input   66.30 | X-H torsion
[ 10763 10752 10751 10750 ] final  -85.45 input  -60.55 | X-H torsion
[ 11005 11000 10999 10996 ] final  -75.42 input  -57.11 | X-H torsion

> <Gold.Protein.ActiveResidues>
 VAL166  LYS551  ARG553  GLY616  TRP617  ASP618  TYR619  PRO620  LYS621  CYS622 
 ASP623  PHE694  ASN695  SER759  ASP760  ASP761  ALA762  ILE779  LEU786  VAL792 
 PHE793  MET794  SER795  GLU796  ALA797  LYS798  CYS799  TRP800  GLU811  SER814 

> <Gold.Protein.RotatedAtoms>
  152.4870  133.8398  159.7146 H   0  0  0  0  0  0  0  0  0  0  0  0  # atno 6907 bound_to 6896
  150.8965  133.7165  159.2897 H   0  0  0  0  0  0  0  0  0  0  0  0  # atno 6908 bound_to 6896
  151.4621  135.1043  159.9780 H   0  0  0  0  0  0  0  0  0  0  0  0  # atno 6909 bound_to 6896
  145.6555  139.2458  143.1952 H   0  0  0  0  0  0  0  0  0  0  0  0  # atno 7974 bound_to 7965
  155.6500  140.0711  157.2590 H   0  0  0  0  0  0  0  0  0  0  0  0  # atno 8008 bound_to 7997
  154.4164  140.1735  156.1714 H   0  0  0  0  0  0  0  0  0  0  0  0  # atno 8009 bound_to 7997
  155.9785  140.3356  155.6644 H   0  0  0  0  0  0  0  0  0  0  0  0  # atno 8010 bound_to 7997
  139.7874  143.8014  152.2646 H   0  0  0  0  0  0  0  0  0  0  0  0  # atno 10167 bound_to 10162
  157.2599  131.0796  151.1672 H   0  0  0  0  0  0  0  0  0  0  0  0  # atno 10718 bound_to 10713
  154.6112  135.5484  153.7475 H   0  0  0  0  0  0  0  0  0  0  0  0  # atno 10763 bound_to 10752
  153.0196  135.6390  154.1576 H   0  0  0  0  0  0  0  0  0  0  0  0  # atno 10764 bound_to 10752
  154.1513  135.2902  155.3114 H   0  0  0  0  0  0  0  0  0  0  0  0  # atno 10765 bound_to 10752
  141.1645  133.6946  156.7514 H   0  0  0  0  0  0  0  0  0  0  0  0  # atno 11005 bound_to 11000
  146.1169  140.7358  142.9476 LP  0  0  0  0  0  0  0  0  0  0  0  0  # atno 17320 bound_to 7965
  144.7107  140.4029  143.7082 LP  0  0  0  0  0  0  0  0  0  0  0  0  # atno 17321 bound_to 7965
  139.8095  144.7341  150.9716 LP  0  0  0  0  0  0  0  0  0  0  0  0  # atno 17342 bound_to 10162
  140.7820  143.4264  151.0761 LP  0  0  0  0  0  0  0  0  0  0  0  0  # atno 17343 bound_to 10162
  157.3186  130.6926  149.6256 LP  0  0  0  0  0  0  0  0  0  0  0  0  # atno 17370 bound_to 10713
  155.9664  130.4342  150.5039 LP  0  0  0  0  0  0  0  0  0  0  0  0  # atno 17371 bound_to 10713
  140.2601  134.8473  157.3751 LP  0  0  0  0  0  0  0  0  0  0  0  0  # atno 17394 bound_to 11000
  140.1619  134.4718  155.7889 LP  0  0  0  0  0  0  0  0  0  0  0  0  # atno 17395 bound_to 11000

$$$$
