AV-unprocessed.smi:3134|AV-procd|sdf|11943|dock3
  -GOLD-   2272017333D 1   1.00000     0.00000
 Structure written by MMmdl.
 36 36  0  0  0  0  0  0  0  0  1 V2000
  150.0614  139.7826  154.9341 C   0  0  0  0  0  0  0  0  0  0  0  0
  151.3338  138.9338  155.0539 C   0  0  0  0  0  0  0  0  0  0  0  0
  151.0928  137.4825  154.6093 C   0  0  0  0  0  0  0  0  0  0  0  0
  151.8109  138.9678  156.4327 N   0  0  0  0  0  0  0  0  0  0  0  0
  152.7151  138.1308  156.9660 C   0  0  0  0  0  0  0  0  0  0  0  0
  153.2586  137.2270  156.3303 O   0  0  0  0  0  0  0  0  0  0  0  0
  153.0257  138.3215  158.4604 C   0  0  2  0  0  0  0  0  0  0  0  0
  151.7664  138.0974  159.3135 C   0  0  0  0  0  0  0  0  0  0  0  0
  153.6099  139.6388  158.7726 N   0  0  0  0  0  0  0  0  0  0  0  0
  152.6311  140.6976  158.9943 C   0  0  0  0  0  0  0  0  0  0  0  0
  153.3592  141.9863  159.4012 C   0  0  0  0  0  0  0  0  0  0  0  0
  152.5100  143.1514  159.2457 N   0  0  0  0  0  0  0  0  0  0  0  0
  152.1938  144.1129  160.1823 C   0  0  0  0  0  0  0  0  0  0  0  0
  151.3643  145.0124  159.5763 C   0  0  0  0  0  0  0  0  0  0  0  0
  151.2290  144.5089  158.2524 C   0  0  0  0  0  0  0  0  0  0  0  0
  151.9155  143.3944  158.0576 N   0  0  0  0  0  0  0  0  0  0  0  0
  149.6947  139.7951  153.9074 H   0  0  0  0  0  0  0  0  0  0  0  0
  150.2490  140.8156  155.2286 H   0  0  0  0  0  0  0  0  0  0  0  0
  149.2631  139.3945  155.5676 H   0  0  0  0  0  0  0  0  0  0  0  0
  152.0905  139.3763  154.4035 H   0  0  0  0  0  0  0  0  0  0  0  0
  150.7410  137.4427  153.5782 H   0  0  0  0  0  0  0  0  0  0  0  0
  150.3447  136.9946  155.2352 H   0  0  0  0  0  0  0  0  0  0  0  0
  152.0088  136.8935  154.6657 H   0  0  0  0  0  0  0  0  0  0  0  0
  151.4102  139.6724  157.0347 H   0  0  0  0  0  0  0  0  0  0  0  0
  153.7516  137.5599  158.7518 H   0  0  0  0  0  0  0  0  0  0  0  0
  151.3198  137.1227  159.1131 H   0  0  0  0  0  0  0  0  0  0  0  0
  151.0078  138.8573  159.1208 H   0  0  0  0  0  0  0  0  0  0  0  0
  152.0048  138.1330  160.3770 H   0  0  0  0  0  0  0  0  0  0  0  0
  154.2409  139.5876  159.5598 H   0  0  0  0  0  0  0  0  0  0  0  0
  152.0568  140.8665  158.0820 H   0  0  0  0  0  0  0  0  0  0  0  0
  151.9289  140.4128  159.7789 H   0  0  0  0  0  0  0  0  0  0  0  0
  153.6875  141.9320  160.4404 H   0  0  0  0  0  0  0  0  0  0  0  0
  154.2537  142.1270  158.7929 H   0  0  0  0  0  0  0  0  0  0  0  0
  152.5817  144.0775  161.1898 H   0  0  0  0  0  0  0  0  0  0  0  0
  150.9213  145.8954  160.0123 H   0  0  0  0  0  0  0  0  0  0  0  0
  150.6560  144.9168  157.4327 H   0  0  0  0  0  0  0  0  0  0  0  0
  1  2  1  0  0  0  0
  1 17  1  0  0  0  0
  1 18  1  0  0  0  0
  1 19  1  0  0  0  0
  2  3  1  0  0  0  0
  2  4  1  0  0  0  0
  2 20  1  0  0  0  0
  3 21  1  0  0  0  0
  3 22  1  0  0  0  0
  3 23  1  0  0  0  0
  4  5  1  0  0  0  0
  4 24  1  0  0  0  0
  5  6  2  0  0  0  0
  5  7  1  0  0  0  0
  7  8  1  0  0  0  0
  7  9  1  0  0  0  0
  7 25  1  0  0  0  0
  8 26  1  0  0  0  0
  8 27  1  0  0  0  0
  8 28  1  0  0  0  0
  9 10  1  0  0  0  0
  9 29  1  0  0  0  0
 10 11  1  0  0  0  0
 10 30  1  0  0  0  0
 10 31  1  0  0  0  0
 11 12  1  0  0  0  0
 11 32  1  0  0  0  0
 11 33  1  0  0  0  0
 12 16  1  0  0  0  0
 12 13  1  0  0  0  0
 13 14  2  0  0  0  0
 13 34  1  0  0  0  0
 14 15  1  0  0  0  0
 14 35  1  0  0  0  0
 15 16  2  0  0  0  0
 15 36  1  0  0  0  0
M  END
> <s_m_source_file>
AV-unprocessed.smi

> <i_m_source_file_index>
3134

> <i_lp_mmshare_version>
43012

> <i_f3d_flags>
0

> <s_epik_input>
W0NIM11bQ0hdKFtDSDNdKVtOSF1DKD1PKVtDQEhdKFtDSDNdKVtOSF1bQ0gyXVtDSDJdbjFbY0hdW2NIXVtjSF1uMQ==

> <s_epik_cmdline>
J2VwaWtfcHl0aG9uJywgJy1waCcsICc3LjAnLCAnLXRuJywgJzgnLCAnLW1hJywgJzIwMCcsICctbWV0YWxfYmluZGluZycsICctaW1hZScsICc8aW5maWxlLm1hZT4nLCAnLW9tYWUnLCAnPG91dGZpbGUubWFlPic=

> <r_lp_tautomer_probability>
1

> <r_epik_Ionization_Penalty>
0.731872

> <r_epik_Ionization_Penalty_Charging>
0

> <r_epik_Ionization_Penalty_Neutral>
0.731872

> <r_epik_State_Penalty>
0.75611

> <r_epik_Charging_Adjusted_Penalty>
0.75611

> <i_epik_Tot_Q>
0

> <i_epik_Tot_abs_Q>
0

> <r_epik_Metal_State_Penalty>
0.755373

> <b_epik_Metal_Only>
0

> <s_lp_Force_Field>
OPLS_2005

> <r_lp_Energy>
3.66061

> <b_lp_Chiralities_Consistent>
1

> <s_lp_Variant>
AV-unprocessed.smi:3134-3

> <Gold.Version>
5.8.1

> <Gold.Id.Protein>
6NUR|6NUR_protein|mol2

> <Gold.PLP.Fitness>
42.2652

> <Gold.PLP.PLP>
-35.7342

> <Gold.PLP.part.hbond>
-2.0000

> <Gold.PLP.part.metal>
0.0000

> <Gold.PLP.part.buried>
-4.0873

> <Gold.PLP.part.nonpolar>
-29.9522

> <Gold.PLP.part.repulsive>
0.1663

> <Gold.PLP.ligand.clash>
0.0000

> <Gold.PLP.ligand.torsion>
0.5864

> <Gold.PLP.Chemscore.Hbond>
1.5291

> <Gold.PLP.Chemscore.CHOScore>
1.0000

> <Gold.PLP.Chemscore.Metal>
0.0000

> <Gold.Chemscore.Hbonds>
donor molecule, donor type, donor heavy atom, donor atom, acceptor molecule, acceptor atom, score
      P1  H  7997  8008       L1     9  0.99
      P1  H 10752 10765       L1     6  0.55
      L1  C    15    36       P1  8028  1.00

> <Gold.PLP.Chemscore.Internal.Correction>
0.1164

> <Gold.Rescore>
     Score         DG    S(hbond)    S(metal)    S(lipo)     H(rot)  DE(clash)    DE(int)     intcor
     11.24     -13.15       0.83        0.00      86.87       2.05       0.02       1.88       ----

> <Gold.Chemscore.Fitness>
11.2443

> <Gold.Chemscore.DG>
-13.1524

> <Gold.Chemscore.ZeroCoef>
-5.4800

> <Gold.Chemscore.Hbond>
0.8274

> <Gold.Chemscore.Metal>
0.0000

> <Gold.Chemscore.Lipo>
86.8738

> <Gold.Chemscore.Internal_Hbond>
0.0000

> <Gold.Chemscore.DEClash>
0.0237

> <Gold.Chemscore.DEInternal>
1.8843

> <Gold.Chemscore.Rot>
2.0529

> <Gold.Chemscore.Internal.Correction>
   9.000000E+99

> <Gold.Chemscore.Hbonds>
donor molecule, donor type, donor heavy atom, donor atom, acceptor molecule, acceptor atom, score
      P1  H  7997  8008       L1     9  0.14
      P1  H 10752 10765       L1     6  0.54

> <Gold.Chemscore.Hbond.Weighted>
-2.7635

> <Gold.Chemscore.Metal.Weighted>
-0.0000

> <Gold.Chemscore.Lipo.Weighted>
-10.1642

> <Gold.Chemscore.Internal_Hbond.Weighted>
0.0000

> <Gold.Chemscore.DEClash.Weighted>
0.0237

> <Gold.Chemscore.DEInternal.Weighted>
1.8843

> <Gold.Chemscore.Rot.Weighted>
5.2554

> <Gold.Chemscore.Internal.Correction.Weighted>
   9.000000E+99

> <Gold.Protein.RotatedTorsions>
[ 6907 6896 6895 6894 ] final -148.05 input  -60.11 | X-H torsion
[ 7974 7965 7964 7962 ] final   79.12 input  175.53 | X-H torsion
[ 8008 7997 7996 7995 ] final  -86.66 input   59.86 | X-H torsion
[ 10167 10162 10161 10158 ] final  -36.73 input  -65.29 | X-H torsion
[ 10718 10713 10712 10709 ] final   20.93 input   66.30 | X-H torsion
[ 10763 10752 10751 10750 ] final -128.83 input  -60.55 | X-H torsion
[ 11005 11000 10999 10996 ] final -151.80 input  -57.11 | X-H torsion

> <Gold.Protein.ActiveResidues>
 VAL166  LYS551  ARG553  GLY616  TRP617  ASP618  TYR619  PRO620  LYS621  CYS622 
 ASP623  PHE694  ASN695  SER759  ASP760  ASP761  ALA762  ILE779  LEU786  VAL792 
 PHE793  MET794  SER795  GLU796  ALA797  LYS798  CYS799  TRP800  GLU811  SER814 

> <Gold.Protein.RotatedAtoms>
  151.1643  133.4825  159.2593 H   0  0  0  0  0  0  0  0  0  0  0  0  # atno 6907 bound_to 6896
  151.1422  135.0185  159.8641 H   0  0  0  0  0  0  0  0  0  0  0  0  # atno 6908 bound_to 6896
  152.5462  134.1535  159.8581 H   0  0  0  0  0  0  0  0  0  0  0  0  # atno 6909 bound_to 6896
  145.6684  139.2490  143.1883 H   0  0  0  0  0  0  0  0  0  0  0  0  # atno 7974 bound_to 7965
  154.6543  140.0575  156.9991 H   0  0  0  0  0  0  0  0  0  0  0  0  # atno 8008 bound_to 7997
  155.1323  140.3257  155.4452 H   0  0  0  0  0  0  0  0  0  0  0  0  # atno 8009 bound_to 7997
  156.2590  140.1978  156.6442 H   0  0  0  0  0  0  0  0  0  0  0  0  # atno 8010 bound_to 7997
  140.7136  143.3389  151.2401 H   0  0  0  0  0  0  0  0  0  0  0  0  # atno 10167 bound_to 10162
  157.1314  130.6592  149.5953 H   0  0  0  0  0  0  0  0  0  0  0  0  # atno 10718 bound_to 10713
  154.8757  135.3915  154.3821 H   0  0  0  0  0  0  0  0  0  0  0  0  # atno 10763 bound_to 10752
  153.4567  135.7029  153.6081 H   0  0  0  0  0  0  0  0  0  0  0  0  # atno 10764 bound_to 10752
  153.4597  135.3815  155.2300 H   0  0  0  0  0  0  0  0  0  0  0  0  # atno 10765 bound_to 10752
  140.7257  134.3678  157.5176 H   0  0  0  0  0  0  0  0  0  0  0  0  # atno 11005 bound_to 11000
  146.1066  140.7479  142.9523 LP  0  0  0  0  0  0  0  0  0  0  0  0  # atno 17320 bound_to 7965
  144.7065  140.3873  143.7114 LP  0  0  0  0  0  0  0  0  0  0  0  0  # atno 17321 bound_to 7965
  139.6891  143.9722  152.2850 LP  0  0  0  0  0  0  0  0  0  0  0  0  # atno 17342 bound_to 10162
  139.9378  144.6701  150.8297 LP  0  0  0  0  0  0  0  0  0  0  0  0  # atno 17343 bound_to 10162
  155.9807  130.4810  150.6788 LP  0  0  0  0  0  0  0  0  0  0  0  0  # atno 17370 bound_to 10713
  157.4389  131.0859  151.0964 LP  0  0  0  0  0  0  0  0  0  0  0  0  # atno 17371 bound_to 10713
  139.8838  134.8984  156.2745 LP  0  0  0  0  0  0  0  0  0  0  0  0  # atno 17394 bound_to 11000
  140.9965  133.7177  156.0894 LP  0  0  0  0  0  0  0  0  0  0  0  0  # atno 17395 bound_to 11000

$$$$
