AV-unprocessed.smi:384|AV-procd|sdf|2470|dock3
  -GOLD-   2262022413D 1   1.00000     0.00000
 Structure written by MMmdl.
 33 34  0  0  0  0  0  0  0  0  3 V2000
  146.1053  131.6976  149.9478 C   0  0  0  0  0  0  0  0  0  0  0  0
  145.4354  131.8417  151.3258 C   0  0  1  0  0  0  0  0  0  0  0  0
  146.4361  131.8735  152.4982 C   0  0  0  0  0  0  0  0  0  0  0  0
  147.1208  133.1580  152.5578 N   0  0  0  0  0  0  0  0  0  0  0  0
  148.1167  133.2010  153.5413 C   0  0  0  0  0  0  0  0  0  0  0  0
  148.4344  132.1063  154.3775 C   0  0  0  0  0  0  0  0  0  0  0  0
  149.4533  132.2463  155.3420 C   0  0  0  0  0  0  0  0  0  0  0  0
  150.1422  133.4761  155.4596 C   0  0  0  0  0  0  0  0  0  0  0  0
  151.2303  133.6575  156.4792 C   0  0  0  0  0  0  0  0  0  0  0  0
  151.4703  132.7218  157.2739 O   0  0  0  0  0  0  0  0  0  0  0  0
  151.8609  134.7377  156.5000 O   0  5  0  0  0  0  0  0  0  0  0  0
  149.7805  134.5325  154.5927 C   0  0  0  0  0  0  0  0  0  0  0  0
  148.7983  134.3585  153.6812 N   0  3  0  0  0  0  0  0  0  0  0  0
  146.1943  134.2791  152.6255 C   0  0  0  0  0  0  0  0  0  0  0  0
  145.2375  134.2419  151.4212 C   0  0  2  0  0  0  0  0  0  0  0  0
  144.1725  135.3405  151.5007 C   0  0  0  0  0  0  0  0  0  0  0  0
  144.5707  132.9794  151.3878 O   0  0  0  0  0  0  0  0  0  0  0  0
  146.6588  130.7605  149.8833 H   0  0  0  0  0  0  0  0  0  0  0  0
  146.8092  132.5032  149.7417 H   0  0  0  0  0  0  0  0  0  0  0  0
  145.3592  131.6937  149.1528 H   0  0  0  0  0  0  0  0  0  0  0  0
  144.7976  130.9673  151.4582 H   0  0  0  0  0  0  0  0  0  0  0  0
  145.9013  131.7092  153.4349 H   0  0  0  0  0  0  0  0  0  0  0  0
  147.1615  131.0646  152.4007 H   0  0  0  0  0  0  0  0  0  0  0  0
  147.9081  131.1674  154.2863 H   0  0  0  0  0  0  0  0  0  0  0  0
  149.6966  131.4110  155.9824 H   0  0  0  0  0  0  0  0  0  0  0  0
  150.2427  135.5093  154.5994 H   0  0  0  0  0  0  0  0  0  0  0  0
  145.6249  134.2321  153.5547 H   0  0  0  0  0  0  0  0  0  0  0  0
  146.7509  135.2173  152.6343 H   0  0  0  0  0  0  0  0  0  0  0  0
  145.8023  134.3849  150.4996 H   0  0  0  0  0  0  0  0  0  0  0  0
  144.6299  136.3300  151.5229 H   0  0  0  0  0  0  0  0  0  0  0  0
  143.5599  135.2342  152.3964 H   0  0  0  0  0  0  0  0  0  0  0  0
  143.5084  135.3015  150.6370 H   0  0  0  0  0  0  0  0  0  0  0  0
  148.5600  135.1410  153.0717 H   0  0  0  0  0  0  0  0  0  0  0  0
  1  2  1  0  0  0  0
  1 18  1  0  0  0  0
  1 19  1  0  0  0  0
  1 20  1  0  0  0  0
  2 17  1  0  0  0  0
  2  3  1  0  0  0  0
  2 21  1  0  0  0  0
  3  4  1  0  0  0  0
  3 22  1  0  0  0  0
  3 23  1  0  0  0  0
  4  5  1  0  0  0  0
  4 14  1  0  0  0  0
  5 13  1  0  0  0  0
  5  6  2  0  0  0  0
  6  7  1  0  0  0  0
  6 24  1  0  0  0  0
  7  8  2  0  0  0  0
  7 25  1  0  0  0  0
  8  9  1  0  0  0  0
  8 12  1  0  0  0  0
  9 10  2  0  0  0  0
  9 11  1  0  0  0  0
 12 13  2  0  0  0  0
 12 26  1  0  0  0  0
 13 33  1  0  0  0  0
 14 15  1  0  0  0  0
 14 27  1  0  0  0  0
 14 28  1  0  0  0  0
 15 16  1  0  0  0  0
 15 17  1  0  0  0  0
 15 29  1  0  0  0  0
 16 30  1  0  0  0  0
 16 31  1  0  0  0  0
 16 32  1  0  0  0  0
M  CHG  1  11  -1
M  CHG  1  13   1
M  END
> <s_m_source_file>
AV-unprocessed.smi

> <i_m_source_file_index>
384

> <i_lp_mmshare_version>
43012

> <i_f3d_flags>
0

> <s_epik_input>
W0NIM11bQ0BASF0xW0NIMl1OKFtDSDJdW0NASF0oTzEpW0NIM10pYzJbY0hdW2NIXWMoW2NIXW4yKUMoPU8pW09IXQ==

> <s_epik_cmdline>
J2VwaWtfcHl0aG9uJywgJy1waCcsICc3LjAnLCAnLXRuJywgJzgnLCAnLW1hJywgJzIwMCcsICctbWV0YWxfYmluZGluZycsICctaW1hZScsICc8aW5maWxlLm1hZT4nLCAnLW9tYWUnLCAnPG91dGZpbGUubWFlPic=

> <r_epik_Ionization_Penalty>
2.35185

> <r_epik_Ionization_Penalty_Charging>
2.35185

> <r_epik_Ionization_Penalty_Neutral>
3.18713e-12

> <r_epik_State_Penalty>
2.50619

> <r_epik_Charging_Adjusted_Penalty>
4.85804

> <i_epik_Tot_Q>
0

> <i_epik_Tot_abs_Q>
2

> <r_epik_Metal_State_Penalty>
6.59026

> <b_epik_Metal_Only>
0

> <s_lp_Force_Field>
OPLS_2005

> <r_lp_Energy>
19.8992

> <b_lp_Chiralities_Consistent>
1

> <s_lp_Variant>
AV-unprocessed.smi:384-6

> <Gold.Version>
5.8.1

> <Gold.Id.Protein>
6NUR|6NUR_protein|mol2

> <Gold.PLP.Fitness>
43.6923

> <Gold.PLP.PLP>
-26.3356

> <Gold.PLP.part.hbond>
-3.0000

> <Gold.PLP.part.metal>
0.0000

> <Gold.PLP.part.buried>
-0.9821

> <Gold.PLP.part.nonpolar>
-22.4789

> <Gold.PLP.part.repulsive>
0.2514

> <Gold.PLP.ligand.clash>
0.0000

> <Gold.PLP.ligand.torsion>
0.1019

> <Gold.PLP.Chemscore.Hbond>
5.8240

> <Gold.PLP.Chemscore.CHOScore>
0.0000

> <Gold.PLP.Chemscore.Metal>
0.0000

> <Gold.Chemscore.Hbonds>
donor molecule, donor type, donor heavy atom, donor atom, acceptor molecule, acceptor atom, score
      L1  H    13    33       P1  7948  1.98
      P1  H  6896  6907       L1    10  1.93
      P1  H 10752 10764       L1    11  1.81

> <Gold.PLP.Chemscore.Internal.Correction>
0.0886

> <Gold.Rescore>
     Score         DG    S(hbond)    S(metal)    S(lipo)     H(rot)  DE(clash)    DE(int)     intcor
     17.75     -18.09       2.51        0.00      58.09       1.00       0.23       0.12       ----

> <Gold.Chemscore.Fitness>
17.7460

> <Gold.Chemscore.DG>
-18.0866

> <Gold.Chemscore.ZeroCoef>
-5.4800

> <Gold.Chemscore.Hbond>
2.5061

> <Gold.Chemscore.Metal>
0.0000

> <Gold.Chemscore.Lipo>
58.0879

> <Gold.Chemscore.Internal_Hbond>
0.0000

> <Gold.Chemscore.DEClash>
0.2253

> <Gold.Chemscore.DEInternal>
0.1154

> <Gold.Chemscore.Rot>
1.0000

> <Gold.Chemscore.Internal.Correction>
   9.000000E+99

> <Gold.Chemscore.Hbonds>
donor molecule, donor type, donor heavy atom, donor atom, acceptor molecule, acceptor atom, score
      L1  H    13    33       P1  7948  0.73
      P1  H  6896  6907       L1    10  0.74
      P1  H 10752 10764       L1    11  0.83

> <Gold.Chemscore.Hbond.Weighted>
-8.3704

> <Gold.Chemscore.Metal.Weighted>
-0.0000

> <Gold.Chemscore.Lipo.Weighted>
-6.7963

> <Gold.Chemscore.Internal_Hbond.Weighted>
0.0000

> <Gold.Chemscore.DEClash.Weighted>
0.2253

> <Gold.Chemscore.DEInternal.Weighted>
0.1154

> <Gold.Chemscore.Rot.Weighted>
2.5600

> <Gold.Chemscore.Internal.Correction.Weighted>
   9.000000E+99

> <Gold.Protein.RotatedTorsions>
[ 6907 6896 6895 6894 ] final -169.61 input  -60.11 | X-H torsion
[ 7974 7965 7964 7962 ] final   93.36 input  175.53 | X-H torsion
[ 8008 7997 7996 7995 ] final -144.28 input   59.86 | X-H torsion
[ 10167 10162 10161 10158 ] final -106.68 input  -65.29 | X-H torsion
[ 10718 10713 10712 10709 ] final   87.87 input   66.30 | X-H torsion
[ 10763 10752 10751 10750 ] final  -18.61 input  -60.55 | X-H torsion
[ 11005 11000 10999 10996 ] final  -54.28 input  -57.11 | X-H torsion

> <Gold.Protein.ActiveResidues>
 VAL166  LYS551  ARG553  GLY616  TRP617  ASP618  TYR619  PRO620  LYS621  CYS622 
 ASP623  PHE694  ASN695  SER759  ASP760  ASP761  ALA762  ILE779  LEU786  VAL792 
 PHE793  MET794  SER795  GLU796  ALA797  LYS798  CYS799  TRP800  GLU811  SER814 

> <Gold.Protein.RotatedAtoms>
  151.4944  133.3518  159.2858 H   0  0  0  0  0  0  0  0  0  0  0  0  # atno 6907 bound_to 6896
  150.8813  134.8207  159.7238 H   0  0  0  0  0  0  0  0  0  0  0  0  # atno 6908 bound_to 6896
  152.4765  134.4842  159.9727 H   0  0  0  0  0  0  0  0  0  0  0  0  # atno 6909 bound_to 6896
  145.4799  139.2279  143.2888 H   0  0  0  0  0  0  0  0  0  0  0  0  # atno 7974 bound_to 7965
  155.5244  140.0594  157.2901 H   0  0  0  0  0  0  0  0  0  0  0  0  # atno 8008 bound_to 7997
  154.4506  140.1947  156.0476 H   0  0  0  0  0  0  0  0  0  0  0  0  # atno 8009 bound_to 7997
  156.0696  140.3262  155.7564 H   0  0  0  0  0  0  0  0  0  0  0  0  # atno 8010 bound_to 7997
  140.1851  143.3936  152.1250 H   0  0  0  0  0  0  0  0  0  0  0  0  # atno 10167 bound_to 10162
  157.6944  131.0273  150.3189 H   0  0  0  0  0  0  0  0  0  0  0  0  # atno 10718 bound_to 10713
  153.5919  135.7002  153.5420 H   0  0  0  0  0  0  0  0  0  0  0  0  # atno 10763 bound_to 10752
  153.3171  135.4084  155.1385 H   0  0  0  0  0  0  0  0  0  0  0  0  # atno 10764 bound_to 10752
  154.8599  135.3686  154.5451 H   0  0  0  0  0  0  0  0  0  0  0  0  # atno 10765 bound_to 10752
  141.1018  133.6617  156.4297 H   0  0  0  0  0  0  0  0  0  0  0  0  # atno 11005 bound_to 11000
  146.2347  140.5585  142.8960 LP  0  0  0  0  0  0  0  0  0  0  0  0  # atno 17320 bound_to 7965
  144.7895  140.6003  143.6551 LP  0  0  0  0  0  0  0  0  0  0  0  0  # atno 17321 bound_to 7965
  139.5279  144.7125  151.5161 LP  0  0  0  0  0  0  0  0  0  0  0  0  # atno 17342 bound_to 10162
  140.6493  143.8729  150.6769 LP  0  0  0  0  0  0  0  0  0  0  0  0  # atno 17343 bound_to 10162
  156.3679  130.3858  149.7198 LP  0  0  0  0  0  0  0  0  0  0  0  0  # atno 17370 bound_to 10713
  156.4623  130.7957  151.2977 LP  0  0  0  0  0  0  0  0  0  0  0  0  # atno 17371 bound_to 10713
  140.5003  134.6492  157.5246 LP  0  0  0  0  0  0  0  0  0  0  0  0  # atno 17394 bound_to 11000
  139.9872  134.7042  155.9752 LP  0  0  0  0  0  0  0  0  0  0  0  0  # atno 17395 bound_to 11000

$$$$
