AV-unprocessed.smi:2928|AV-procd|sdf|11235|dock3
  -GOLD-   2272016133D 1   1.00000     0.00000
 Structure written by MMmdl.
 56 59  0  0  0  0  0  0  0  0  3 V2000
  149.6773  141.3588  155.4699 C   0  0  0  0  0  0  0  0  0  0  0  0
  148.3480  141.9927  155.2994 N   0  3  2  0  0  0  0  0  0  0  0  0
  147.3461  141.6250  156.3284 C   0  0  2  0  0  0  0  0  0  0  0  0
  146.8936  140.1500  156.1766 C   0  0  0  0  0  0  0  0  0  0  0  0
  146.4495  139.7647  154.7530 C   0  0  0  0  0  0  0  0  0  0  0  0
  147.3376  140.3886  153.6613 C   0  0  0  0  0  0  0  0  0  0  0  0
  147.7611  141.8516  153.9457 C   0  0  1  0  0  0  0  0  0  0  0  0
  146.6455  142.9074  153.7649 C   0  0  0  0  0  0  0  0  0  0  0  0
  145.6176  143.0102  154.9259 C   0  0  1  0  0  0  0  0  0  0  0  0
  144.3878  142.2643  154.6730 N   0  0  0  0  0  0  0  0  0  0  0  0
  143.2042  142.4706  155.2677 C   0  0  0  0  0  0  0  0  0  0  0  0
  143.0158  143.3194  156.1384 O   0  0  0  0  0  0  0  0  0  0  0  0
  142.2655  141.6524  154.7659 N   0  0  0  0  0  0  0  0  0  0  0  0
  140.8725  141.6361  155.0542 C   0  0  0  0  0  0  0  0  0  0  0  0
  140.1755  142.7771  155.5264 C   0  0  0  0  0  0  0  0  0  0  0  0
  138.7982  142.6843  155.8094 C   0  0  0  0  0  0  0  0  0  0  0  0
  138.1419  141.4532  155.6244 C   0  0  0  0  0  0  0  0  0  0  0  0
  138.8377  140.3821  155.1888 N   0  3  0  0  0  0  0  0  0  0  0  0
  140.1625  140.4180  154.9039 C   0  0  0  0  0  0  0  0  0  0  0  0
  140.7962  139.2466  154.4545 N   0  0  0  0  0  0  0  0  0  0  0  0
  140.8725  138.1657  155.4227 C   0  0  0  0  0  0  0  0  0  0  0  0
  141.2368  136.9191  154.6120 C   0  0  0  0  0  0  0  0  0  0  0  0
  140.8255  137.2500  153.1718 C   0  0  0  0  0  0  0  0  0  0  0  0
  140.2431  138.6637  153.2439 C   0  0  0  0  0  0  0  0  0  0  0  0
  146.2069  142.6719  156.3189 C   0  0  0  0  0  0  0  0  0  0  0  0
  149.6364  140.2750  155.3660 H   0  0  0  0  0  0  0  0  0  0  0  0
  150.0838  141.5882  156.4551 H   0  0  0  0  0  0  0  0  0  0  0  0
  150.3783  141.7422  154.7280 H   0  0  0  0  0  0  0  0  0  0  0  0
  147.8268  141.7097  157.3042 H   0  0  0  0  0  0  0  0  0  0  0  0
  147.7222  139.5013  156.4619 H   0  0  0  0  0  0  0  0  0  0  0  0
  146.0963  139.9255  156.8857 H   0  0  0  0  0  0  0  0  0  0  0  0
  146.4622  138.6791  154.6516 H   0  0  0  0  0  0  0  0  0  0  0  0
  145.4112  140.0334  154.5932 H   0  0  0  0  0  0  0  0  0  0  0  0
  148.2358  139.7788  153.5610 H   0  0  0  0  0  0  0  0  0  0  0  0
  146.8361  140.3234  152.6952 H   0  0  0  0  0  0  0  0  0  0  0  0
  148.5368  142.1032  153.2209 H   0  0  0  0  0  0  0  0  0  0  0  0
  147.1384  143.8778  153.6916 H   0  0  0  0  0  0  0  0  0  0  0  0
  146.1511  142.7737  152.8023 H   0  0  0  0  0  0  0  0  0  0  0  0
  145.3003  144.0537  154.9777 H   0  0  0  0  0  0  0  0  0  0  0  0
  144.4396  141.5395  153.9722 H   0  0  0  0  0  0  0  0  0  0  0  0
  142.5560  141.0618  154.0005 H   0  0  0  0  0  0  0  0  0  0  0  0
  140.6772  143.7189  155.6888 H   0  0  0  0  0  0  0  0  0  0  0  0
  138.2543  143.5460  156.1678 H   0  0  0  0  0  0  0  0  0  0  0  0
  137.0908  141.2920  155.8157 H   0  0  0  0  0  0  0  0  0  0  0  0
  141.6183  138.3771  156.1897 H   0  0  0  0  0  0  0  0  0  0  0  0
  139.9104  138.0245  155.9172 H   0  0  0  0  0  0  0  0  0  0  0  0
  142.3111  136.7363  154.6582 H   0  0  0  0  0  0  0  0  0  0  0  0
  140.7326  136.0309  154.9944 H   0  0  0  0  0  0  0  0  0  0  0  0
  141.7021  137.2339  152.5228 H   0  0  0  0  0  0  0  0  0  0  0  0
  140.1030  136.5382  152.7714 H   0  0  0  0  0  0  0  0  0  0  0  0
  139.1546  138.6180  153.3029 H   0  0  0  0  0  0  0  0  0  0  0  0
  140.5092  139.2531  152.3659 H   0  0  0  0  0  0  0  0  0  0  0  0
  145.4190  142.3878  157.0179 H   0  0  0  0  0  0  0  0  0  0  0  0
  146.6223  143.5960  156.7239 H   0  0  0  0  0  0  0  0  0  0  0  0
  148.5188  142.9807  155.4231 H   0  0  0  0  0  0  0  0  0  0  0  0
  138.3397  139.5000  155.0667 H   0  0  0  0  0  0  0  0  0  0  0  0
  1  2  1  0  0  0  0
  1 26  1  0  0  0  0
  1 27  1  0  0  0  0
  1 28  1  0  0  0  0
  2  7  1  0  0  0  0
  2  3  1  0  0  0  0
  2 55  1  0  0  0  0
  3 25  1  0  0  0  0
  3  4  1  0  0  0  0
  3 29  1  0  0  0  0
  4  5  1  0  0  0  0
  4 30  1  0  0  0  0
  4 31  1  0  0  0  0
  5  6  1  0  0  0  0
  5 32  1  0  0  0  0
  5 33  1  0  0  0  0
  6  7  1  0  0  0  0
  6 34  1  0  0  0  0
  6 35  1  0  0  0  0
  7  8  1  0  0  0  0
  7 36  1  0  0  0  0
  8  9  1  0  0  0  0
  8 37  1  0  0  0  0
  8 38  1  0  0  0  0
  9 10  1  0  0  0  0
  9 25  1  0  0  0  0
  9 39  1  0  0  0  0
 10 11  1  0  0  0  0
 10 40  1  0  0  0  0
 11 12  2  0  0  0  0
 11 13  1  0  0  0  0
 13 14  1  0  0  0  0
 13 41  1  0  0  0  0
 14 19  1  0  0  0  0
 14 15  2  0  0  0  0
 15 16  1  0  0  0  0
 15 42  1  0  0  0  0
 16 17  2  0  0  0  0
 16 43  1  0  0  0  0
 17 18  1  0  0  0  0
 17 44  1  0  0  0  0
 18 19  2  0  0  0  0
 18 56  1  0  0  0  0
 19 20  1  0  0  0  0
 20 24  1  0  0  0  0
 20 21  1  0  0  0  0
 21 22  1  0  0  0  0
 21 45  1  0  0  0  0
 21 46  1  0  0  0  0
 22 23  1  0  0  0  0
 22 47  1  0  0  0  0
 22 48  1  0  0  0  0
 23 24  1  0  0  0  0
 23 49  1  0  0  0  0
 23 50  1  0  0  0  0
 24 51  1  0  0  0  0
 24 52  1  0  0  0  0
 25 53  1  0  0  0  0
 25 54  1  0  0  0  0
M  CHG  1   2   1
M  CHG  1  18   1
M  END
> <s_m_source_file>
AV-unprocessed.smi

> <i_m_source_file_index>
2928

> <i_lp_mmshare_version>
43012

> <i_f3d_flags>
0

> <s_epik_input>
W0NIMl0xW0NIMl1bQ0gyXVtDQEhdKE4oW0NIM10pW0NIXTEyKVtDSDJdW0NASF0oW0NIMl0yKVtOSF1DKD1PKVtOSF1jM1tjSF1bY0hdW2NIXW5jM040W0NIMl1bQ0gyXVtDSDJdW0NIMl00

> <s_epik_cmdline>
J2VwaWtfcHl0aG9uJywgJy1waCcsICc3LjAnLCAnLXRuJywgJzgnLCAnLW1hJywgJzIwMCcsICctbWV0YWxfYmluZGluZycsICctaW1hZScsICc8aW5maWxlLm1hZT4nLCAnLW9tYWUnLCAnPG91dGZpbGUubWFlPic=

> <r_lp_tautomer_probability>
0.999994

> <r_epik_Ionization_Penalty>
1.2404

> <r_epik_Ionization_Penalty_Charging>
1.24038

> <r_epik_Ionization_Penalty_Neutral>
1.86539e-05

> <r_epik_State_Penalty>
1.30821

> <r_epik_Charging_Adjusted_Penalty>
2.54859

> <i_epik_Tot_Q>
2

> <i_epik_Tot_abs_Q>
2

> <r_epik_Metal_State_Penalty>
1.3782

> <b_epik_Metal_Only>
0

> <s_lp_Force_Field>
OPLS_2005

> <r_lp_Energy>
75.6224

> <b_lp_Chiralities_Consistent>
1

> <s_lp_Variant>
AV-unprocessed.smi:2928-5

> <Gold.Version>
5.8.1

> <Gold.Id.Protein>
6NUR|6NUR_protein|mol2

> <Gold.PLP.Fitness>
39.3210

> <Gold.PLP.PLP>
-28.0171

> <Gold.PLP.part.hbond>
-4.6063

> <Gold.PLP.part.metal>
0.0000

> <Gold.PLP.part.buried>
-4.1547

> <Gold.PLP.part.nonpolar>
-18.9164

> <Gold.PLP.part.repulsive>
0.3374

> <Gold.PLP.ligand.clash>
0.0000

> <Gold.PLP.ligand.torsion>
0.3837

> <Gold.PLP.Chemscore.Hbond>
4.0000

> <Gold.PLP.Chemscore.CHOScore>
0.0000

> <Gold.PLP.Chemscore.Metal>
0.0000

> <Gold.Chemscore.Hbonds>
donor molecule, donor type, donor heavy atom, donor atom, acceptor molecule, acceptor atom, score
      L1  H     2    55       P1  8028  2.00
      L1  H    10    40       P1 10175  0.90
      L1  H    13    41       P1 10175  0.80

> <Gold.PLP.Chemscore.Internal.Correction>
0.0714

> <Gold.Rescore>
     Score         DG    S(hbond)    S(metal)    S(lipo)     H(rot)  DE(clash)    DE(int)     intcor
     15.56     -17.20       2.22        0.00      62.80       1.19       0.14       1.50       ----

> <Gold.Chemscore.Fitness>
15.5635

> <Gold.Chemscore.DG>
-17.2044

> <Gold.Chemscore.ZeroCoef>
-5.4800

> <Gold.Chemscore.Hbond>
2.2209

> <Gold.Chemscore.Metal>
0.0000

> <Gold.Chemscore.Lipo>
62.8003

> <Gold.Chemscore.Internal_Hbond>
0.0000

> <Gold.Chemscore.DEClash>
0.1391

> <Gold.Chemscore.DEInternal>
1.5019

> <Gold.Chemscore.Rot>
1.1879

> <Gold.Chemscore.Internal.Correction>
   9.000000E+99

> <Gold.Chemscore.Hbonds>
donor molecule, donor type, donor heavy atom, donor atom, acceptor molecule, acceptor atom, score
      L1  H     2    55       P1  8028  1.00
      L1  H    10    40       P1 10175  0.17
      L1  H    13    41       P1 10175  0.12

> <Gold.Chemscore.Hbond.Weighted>
-7.4179

> <Gold.Chemscore.Metal.Weighted>
-0.0000

> <Gold.Chemscore.Lipo.Weighted>
-7.3476

> <Gold.Chemscore.Internal_Hbond.Weighted>
0.0000

> <Gold.Chemscore.DEClash.Weighted>
0.1391

> <Gold.Chemscore.DEInternal.Weighted>
1.5019

> <Gold.Chemscore.Rot.Weighted>
3.0410

> <Gold.Chemscore.Internal.Correction.Weighted>
   9.000000E+99

> <Gold.Protein.RotatedTorsions>
[ 6907 6896 6895 6894 ] final  -43.32 input  -60.11 | X-H torsion
[ 7974 7965 7964 7962 ] final   10.61 input  175.53 | X-H torsion
[ 8008 7997 7996 7995 ] final  -99.83 input   59.86 | X-H torsion
[ 10167 10162 10161 10158 ] final   73.57 input  -65.29 | X-H torsion
[ 10718 10713 10712 10709 ] final   80.57 input   66.30 | X-H torsion
[ 10763 10752 10751 10750 ] final  -16.69 input  -60.55 | X-H torsion
[ 11005 11000 10999 10996 ] final    2.87 input  -57.11 | X-H torsion

> <Gold.Protein.ActiveResidues>
 VAL166  LYS551  ARG553  GLY616  TRP617  ASP618  TYR619  PRO620  LYS621  CYS622 
 ASP623  PHE694  ASN695  SER759  ASP760  ASP761  ALA762  ILE779  LEU786  VAL792 
 PHE793  MET794  SER795  GLU796  ALA797  LYS798  CYS799  TRP800  GLU811  SER814 

> <Gold.Protein.RotatedAtoms>
  150.9452  134.8858  159.7637 H   0  0  0  0  0  0  0  0  0  0  0  0  # atno 6907 bound_to 6896
  152.5097  134.3884  159.9385 H   0  0  0  0  0  0  0  0  0  0  0  0  # atno 6908 bound_to 6896
  151.3903  133.3751  159.2755 H   0  0  0  0  0  0  0  0  0  0  0  0  # atno 6909 bound_to 6896
  146.2385  139.9608  142.8459 H   0  0  0  0  0  0  0  0  0  0  0  0  # atno 7974 bound_to 7965
  154.8202  140.0445  157.1405 H   0  0  0  0  0  0  0  0  0  0  0  0  # atno 8008 bound_to 7997
  154.9268  140.3034  155.5168 H   0  0  0  0  0  0  0  0  0  0  0  0  # atno 8009 bound_to 7997
  156.2979  140.2330  156.4323 H   0  0  0  0  0  0  0  0  0  0  0  0  # atno 8010 bound_to 7997
  140.0231  144.5525  150.7566 H   0  0  0  0  0  0  0  0  0  0  0  0  # atno 10167 bound_to 10162
  157.6810  130.9965  150.2099 H   0  0  0  0  0  0  0  0  0  0  0  0  # atno 10718 bound_to 10713
  153.5624  135.7009  153.5541 H   0  0  0  0  0  0  0  0  0  0  0  0  # atno 10763 bound_to 10752
  153.3418  135.4019  155.1577 H   0  0  0  0  0  0  0  0  0  0  0  0  # atno 10764 bound_to 10752
  154.8646  135.3744  154.5142 H   0  0  0  0  0  0  0  0  0  0  0  0  # atno 10765 bound_to 10752
  140.5995  133.9849  155.8125 H   0  0  0  0  0  0  0  0  0  0  0  0  # atno 11005 bound_to 11000
  145.1773  140.9750  143.4287 LP  0  0  0  0  0  0  0  0  0  0  0  0  # atno 17320 bound_to 7965
  144.9974  139.3631  143.6184 LP  0  0  0  0  0  0  0  0  0  0  0  0  # atno 17321 bound_to 7965
  140.7334  143.2717  151.3869 LP  0  0  0  0  0  0  0  0  0  0  0  0  # atno 17342 bound_to 10162
  139.6126  144.1067  152.2314 LP  0  0  0  0  0  0  0  0  0  0  0  0  # atno 17343 bound_to 10162
  156.2772  130.3729  149.7972 LP  0  0  0  0  0  0  0  0  0  0  0  0  # atno 17370 bound_to 10713
  156.5671  130.8408  151.3346 LP  0  0  0  0  0  0  0  0  0  0  0  0  # atno 17371 bound_to 10713
  141.0881  133.9958  157.3280 LP  0  0  0  0  0  0  0  0  0  0  0  0  # atno 17394 bound_to 11000
  139.9238  135.0201  156.8163 LP  0  0  0  0  0  0  0  0  0  0  0  0  # atno 17395 bound_to 11000

$$$$
