AV-unprocessed.smi:221|AV-procd|sdf|1701|dock1
  -GOLD-   2262020153D 1   1.00000     0.00000
 Structure written by MMmdl.
 50 53  0  0  0  0  0  0  0  0  1 V2000
  147.6393  131.1149  152.8040 N   0  0  0  0  0  0  0  0  0  0  0  0
  146.6958  132.0042  153.1326 C   0  0  0  0  0  0  0  0  0  0  0  0
  146.1753  132.0020  154.2460 O   0  0  0  0  0  0  0  0  0  0  0  0
  146.2469  133.0383  152.0804 C   0  0  1  0  0  0  0  0  0  0  0  0
  145.6544  132.3752  150.8211 C   0  0  0  0  0  0  0  0  0  0  0  0
  144.1492  132.4260  151.0554 C   0  0  2  0  0  0  0  0  0  0  0  0
  143.4505  132.3420  149.9234 F   0  0  0  0  0  0  0  0  0  0  0  0
  143.9791  133.7696  151.7544 C   0  0  0  0  0  0  0  0  0  0  0  0
  145.1765  133.9172  152.5722 N   0  0  0  0  0  0  0  0  0  0  0  0
  145.5060  135.1878  152.8907 C   0  0  0  0  0  0  0  0  0  0  0  0
  144.7777  136.2252  152.4013 N   0  0  0  0  0  0  0  0  0  0  0  0
  145.1057  137.4796  152.7265 C   0  0  0  0  0  0  0  0  0  0  0  0
  146.1003  137.9074  153.5084 N   0  0  0  0  0  0  0  0  0  0  0  0
  146.8277  136.8636  154.0014 C   0  0  0  0  0  0  0  0  0  0  0  0
  146.5987  135.4835  153.7450 C   0  0  0  0  0  0  0  0  0  0  0  0
  147.5385  134.7087  154.4122 N   0  0  0  0  0  0  0  0  0  0  0  0
  148.2868  135.5839  155.0277 C   0  0  0  0  0  0  0  0  0  0  0  0
  147.9344  136.9006  154.8315 N   0  0  0  0  0  0  0  0  0  0  0  0
  148.5946  138.0658  155.3949 C   0  0  0  0  0  0  0  0  0  0  0  0
  149.4159  138.8695  154.3547 C   0  0  1  0  0  0  0  0  0  0  0  0
  149.2293  140.3955  154.5588 C   0  0  0  0  0  0  0  0  0  0  0  0
  149.4869  141.1234  153.3771 O   0  0  0  0  0  0  0  0  0  0  0  0
  150.9118  138.4486  154.4011 C   0  0  1  0  0  0  0  0  0  0  0  0
  151.7376  139.1338  155.4783 C   0  0  0  0  0  0  0  0  0  0  0  0
  152.9608  138.2299  155.5856 C   0  0  0  0  0  0  0  0  0  0  0  0
  152.5022  136.9210  155.2716 O   0  0  0  0  0  0  0  0  0  0  0  0
  151.1749  136.9813  154.7607 C   0  0  0  0  0  0  0  0  0  0  0  0
  147.1381  133.6018  151.7996 H   0  0  0  0  0  0  0  0  0  0  0  0
  143.8353  131.6084  151.7061 H   0  0  0  0  0  0  0  0  0  0  0  0
  147.9400  130.4291  153.4812 H   0  0  0  0  0  0  0  0  0  0  0  0
  148.0444  131.1297  151.8787 H   0  0  0  0  0  0  0  0  0  0  0  0
  145.9105  132.9725  149.9449 H   0  0  0  0  0  0  0  0  0  0  0  0
  146.0132  131.3614  150.6378 H   0  0  0  0  0  0  0  0  0  0  0  0
  143.9102  134.5746  151.0199 H   0  0  0  0  0  0  0  0  0  0  0  0
  143.0770  133.7936  152.3668 H   0  0  0  0  0  0  0  0  0  0  0  0
  144.4825  138.2510  152.2987 H   0  0  0  0  0  0  0  0  0  0  0  0
  149.1255  135.2926  155.6433 H   0  0  0  0  0  0  0  0  0  0  0  0
  147.8437  138.7069  155.8579 H   0  0  0  0  0  0  0  0  0  0  0  0
  149.2333  137.7071  156.2017 H   0  0  0  0  0  0  0  0  0  0  0  0
  149.0210  138.6130  153.3702 H   0  0  0  0  0  0  0  0  0  0  0  0
  148.2069  140.6406  154.8421 H   0  0  0  0  0  0  0  0  0  0  0  0
  149.8713  140.7597  155.3615 H   0  0  0  0  0  0  0  0  0  0  0  0
  149.2849  140.5734  152.6355 H   0  0  0  0  0  0  0  0  0  0  0  0
  151.3737  138.6552  153.4343 H   0  0  0  0  0  0  0  0  0  0  0  0
  152.0089  140.1602  155.2297 H   0  0  0  0  0  0  0  0  0  0  0  0
  151.1959  139.1424  156.4253 H   0  0  0  0  0  0  0  0  0  0  0  0
  153.7144  138.5187  154.8519 H   0  0  0  0  0  0  0  0  0  0  0  0
  153.4190  138.2656  156.5743 H   0  0  0  0  0  0  0  0  0  0  0  0
  150.4939  136.6475  155.5447 H   0  0  0  0  0  0  0  0  0  0  0  0
  151.0623  136.3137  153.9062 H   0  0  0  0  0  0  0  0  0  0  0  0
  1  2  1  0  0  0  0
  1 30  1  0  0  0  0
  1 31  1  0  0  0  0
  2  3  2  0  0  0  0
  2  4  1  0  0  0  0
  4 28  1  0  0  0  0
  4  9  1  0  0  0  0
  4  5  1  0  0  0  0
  5  6  1  0  0  0  0
  5 32  1  0  0  0  0
  5 33  1  0  0  0  0
  6 29  1  0  0  0  0
  6  7  1  0  0  0  0
  6  8  1  0  0  0  0
  8  9  1  0  0  0  0
  8 34  1  0  0  0  0
  8 35  1  0  0  0  0
  9 10  1  0  0  0  0
 10 15  1  0  0  0  0
 10 11  2  0  0  0  0
 11 12  1  0  0  0  0
 12 13  2  0  0  0  0
 12 36  1  0  0  0  0
 13 14  1  0  0  0  0
 14 18  1  0  0  0  0
 14 15  2  0  0  0  0
 15 16  1  0  0  0  0
 16 17  2  0  0  0  0
 17 18  1  0  0  0  0
 17 37  1  0  0  0  0
 18 19  1  0  0  0  0
 19 20  1  0  0  0  0
 19 38  1  0  0  0  0
 19 39  1  0  0  0  0
 20 21  1  0  0  0  0
 20 23  1  0  0  0  0
 20 40  1  0  0  0  0
 21 22  1  0  0  0  0
 21 41  1  0  0  0  0
 21 42  1  0  0  0  0
 22 43  1  0  0  0  0
 23 27  1  0  0  0  0
 23 24  1  0  0  0  0
 23 44  1  0  0  0  0
 24 25  1  0  0  0  0
 24 45  1  0  0  0  0
 24 46  1  0  0  0  0
 25 26  1  0  0  0  0
 25 47  1  0  0  0  0
 25 48  1  0  0  0  0
 26 27  1  0  0  0  0
 27 49  1  0  0  0  0
 27 50  1  0  0  0  0
M  END
> <s_m_source_file>
AV-unprocessed.smi

> <i_m_source_file_index>
221

> <i_lp_mmshare_version>
43012

> <i_f3d_flags>
0

> <s_epik_input>
W05IMl1DKD1PKVtDQEBIXTFbQ0gyXVtDQEBIXShGKVtDSDJdTjFjKG5bY0hdbjIpYyhjMjMpbltjSF1uM1tDSDJdW0NASF0oW0NIMl1bT0hdKVtDQEBIXTRbQ0gyXVtDSDJdT1tDSDJdNA==

> <s_epik_cmdline>
J2VwaWtfcHl0aG9uJywgJy1waCcsICc3LjAnLCAnLXRuJywgJzgnLCAnLW1hJywgJzIwMCcsICctbWV0YWxfYmluZGluZycsICctaW1hZScsICc8aW5maWxlLm1hZT4nLCAnLW9tYWUnLCAnPG91dGZpbGUubWFlPic=

> <r_lp_tautomer_probability>
1

> <r_epik_Ionization_Penalty>
0.000818822

> <r_epik_Ionization_Penalty_Charging>
0

> <r_epik_Ionization_Penalty_Neutral>
0.000818822

> <r_epik_State_Penalty>
0.000440551

> <r_epik_Charging_Adjusted_Penalty>
0.000440551

> <i_epik_Tot_Q>
0

> <i_epik_Tot_abs_Q>
0

> <r_epik_Metal_State_Penalty>
-0

> <b_epik_Metal_Only>
0

> <s_lp_Force_Field>
OPLS_2005

> <r_lp_Energy>
50.9528

> <b_lp_Chiralities_Consistent>
1

> <s_lp_Variant>
AV-unprocessed.smi:221-16

> <Gold.Version>
5.8.1

> <Gold.Id.Protein>
6NUR|6NUR_protein|mol2

> <Gold.PLP.Fitness>
52.1193

> <Gold.PLP.PLP>
-38.5843

> <Gold.PLP.part.hbond>
-4.6030

> <Gold.PLP.part.metal>
0.0000

> <Gold.PLP.part.buried>
-2.9077

> <Gold.PLP.part.nonpolar>
-32.2767

> <Gold.PLP.part.repulsive>
0.7003

> <Gold.PLP.ligand.clash>
0.0000

> <Gold.PLP.ligand.torsion>
1.5051

> <Gold.PLP.Chemscore.Hbond>
3.3671

> <Gold.PLP.Chemscore.CHOScore>
1.9952

> <Gold.PLP.Chemscore.Metal>
0.0000

> <Gold.Chemscore.Hbonds>
donor molecule, donor type, donor heavy atom, donor atom, acceptor molecule, acceptor atom, score
      L1  H     1    31       P1 10747  1.00
      L1  H    22    43       P1  7957  1.00
      P1  H  7989  7998       L1    22  0.11
      P1  H  8011  8017       L1    22  0.50
      P1  H 10752 10765       L1    26  0.71
      L1  C    12    36       P1 10171  0.86
      L1  C    12    36       P1 10175  1.00

> <Gold.PLP.Chemscore.Internal.Correction>
0.4584

> <Gold.Rescore>
     Score         DG    S(hbond)    S(metal)    S(lipo)     H(rot)  DE(clash)    DE(int)     intcor
     12.21     -14.01       2.78        0.00      74.84       3.72       0.02       1.78       ----

> <Gold.Chemscore.Fitness>
12.2092

> <Gold.Chemscore.DG>
-14.0131

> <Gold.Chemscore.ZeroCoef>
-5.4800

> <Gold.Chemscore.Hbond>
2.7846

> <Gold.Chemscore.Metal>
0.0000

> <Gold.Chemscore.Lipo>
74.8398

> <Gold.Chemscore.Internal_Hbond>
0.0000

> <Gold.Chemscore.DEClash>
0.0204

> <Gold.Chemscore.DEInternal>
1.7836

> <Gold.Chemscore.Rot>
3.7202

> <Gold.Chemscore.Internal.Correction>
   9.000000E+99

> <Gold.Chemscore.Hbonds>
donor molecule, donor type, donor heavy atom, donor atom, acceptor molecule, acceptor atom, score
      L1  H     1    31       P1 10747  1.00
      L1  H    22    43       P1  7957  0.93
      P1  H  8011  8017       L1    22  0.02
      P1  H 10752 10765       L1    26  0.40

> <Gold.Chemscore.Hbond.Weighted>
-9.3006

> <Gold.Chemscore.Metal.Weighted>
-0.0000

> <Gold.Chemscore.Lipo.Weighted>
-8.7563

> <Gold.Chemscore.Internal_Hbond.Weighted>
0.0000

> <Gold.Chemscore.DEClash.Weighted>
0.0204

> <Gold.Chemscore.DEInternal.Weighted>
1.7836

> <Gold.Chemscore.Rot.Weighted>
9.5237

> <Gold.Chemscore.Internal.Correction.Weighted>
   9.000000E+99

> <Gold.Protein.RotatedTorsions>
[ 6907 6896 6895 6894 ] final   86.75 input  -60.11 | X-H torsion
[ 7974 7965 7964 7962 ] final  126.36 input  175.53 | X-H torsion
[ 8008 7997 7996 7995 ] final   19.16 input   59.86 | X-H torsion
[ 10167 10162 10161 10158 ] final   57.16 input  -65.29 | X-H torsion
[ 10718 10713 10712 10709 ] final   91.25 input   66.30 | X-H torsion
[ 10763 10752 10751 10750 ] final -161.29 input  -60.55 | X-H torsion
[ 11005 11000 10999 10996 ] final  116.64 input  -57.11 | X-H torsion

> <Gold.Protein.ActiveResidues>
 VAL166  LYS551  ARG553  GLY616  TRP617  ASP618  TYR619  PRO620  LYS621  CYS622 
 ASP623  PHE694  ASN695  SER759  ASP760  ASP761  ALA762  ILE779  LEU786  VAL792 
 PHE793  MET794  SER795  GLU796  ALA797  LYS798  CYS799  TRP800  GLU811  SER814 

> <Gold.Protein.RotatedAtoms>
  152.5400  134.2382  159.8851 H   0  0  0  0  0  0  0  0  0  0  0  0  # atno 6907 bound_to 6896
  151.2351  133.4423  159.2613 H   0  0  0  0  0  0  0  0  0  0  0  0  # atno 6908 bound_to 6896
  151.0679  134.9793  159.8350 H   0  0  0  0  0  0  0  0  0  0  0  0  # atno 6909 bound_to 6896
  145.0625  139.3793  143.4998 H   0  0  0  0  0  0  0  0  0  0  0  0  # atno 7974 bound_to 7965
  154.9166  140.3021  155.5238 H   0  0  0  0  0  0  0  0  0  0  0  0  # atno 8008 bound_to 7997
  156.3012  140.2379  156.4147 H   0  0  0  0  0  0  0  0  0  0  0  0  # atno 8009 bound_to 7997
  154.8372  140.0415  157.1506 H   0  0  0  0  0  0  0  0  0  0  0  0  # atno 8010 bound_to 7997
  140.2010  144.3988  150.6529 H   0  0  0  0  0  0  0  0  0  0  0  0  # atno 10167 bound_to 10162
  157.6960  131.0400  150.3700 H   0  0  0  0  0  0  0  0  0  0  0  0  # atno 10718 bound_to 10713
  154.7317  135.3048  154.8881 H   0  0  0  0  0  0  0  0  0  0  0  0  # atno 10763 bound_to 10752
  153.9722  135.6740  153.4751 H   0  0  0  0  0  0  0  0  0  0  0  0  # atno 10764 bound_to 10752
  153.0924  135.4952  154.8636 H   0  0  0  0  0  0  0  0  0  0  0  0  # atno 10765 bound_to 10752
  139.9048  134.9600  156.7229 H   0  0  0  0  0  0  0  0  0  0  0  0  # atno 11005 bound_to 11000
  146.3525  140.0331  142.8649 LP  0  0  0  0  0  0  0  0  0  0  0  0  # atno 17320 bound_to 7965
  145.1391  140.9561  143.4499 LP  0  0  0  0  0  0  0  0  0  0  0  0  # atno 17321 bound_to 7965
  140.6391  143.2200  151.6331 LP  0  0  0  0  0  0  0  0  0  0  0  0  # atno 17342 bound_to 10162
  139.5217  144.3184  152.0932 LP  0  0  0  0  0  0  0  0  0  0  0  0  # atno 17343 bound_to 10162
  156.4126  130.3937  149.6880 LP  0  0  0  0  0  0  0  0  0  0  0  0  # atno 17370 bound_to 10713
  156.4159  130.7745  151.2760 LP  0  0  0  0  0  0  0  0  0  0  0  0  # atno 17371 bound_to 10713
  140.6986  133.9326  155.8010 LP  0  0  0  0  0  0  0  0  0  0  0  0  # atno 17394 bound_to 11000
  141.0388  134.0651  157.3926 LP  0  0  0  0  0  0  0  0  0  0  0  0  # atno 17395 bound_to 11000

$$$$
