AV-unprocessed.smi:1254|AV-procd|sdf|5280|dock5
  -GOLD-   22720 4403D 1   1.00000     0.00000
 Structure written by MMmdl.
 44 45  0  0  0  0  0  0  0  0  2 V2000
  145.8468  133.8594  161.6366 C   0  0  0  0  0  0  0  0  0  0  0  0
  146.7565  134.7386  160.8493 C   0  0  0  0  0  0  0  0  0  0  0  0
  147.6940  134.4847  159.8888 C   0  0  0  0  0  0  0  0  0  0  0  0
  148.1835  135.7790  159.5625 C   0  0  0  0  0  0  0  0  0  0  0  0
  149.1420  136.0552  158.6648 N   0  5  0  0  0  0  0  0  0  0  0  0
  148.9443  137.0139  157.7305 C   0  0  0  0  0  0  0  0  0  0  0  0
  147.8704  137.5522  157.4521 O   0  0  0  0  0  0  0  0  0  0  0  0
  150.0609  137.3674  157.0781 N   0  0  0  0  0  0  0  0  0  0  0  0
  150.1620  138.3773  156.0292 C   0  0  0  0  0  0  0  0  0  0  0  0
  149.9818  139.7974  156.5909 C   0  0  1  0  0  0  0  0  0  0  0  0
  150.9314  140.0687  157.7744 C   0  0  0  0  0  0  0  0  0  0  0  0
  150.8058  141.4305  158.2840 N   0  0  0  0  0  0  0  0  0  0  0  0
  151.7123  141.6490  159.4125 C   0  0  0  0  0  0  0  0  0  0  0  0
  151.8172  143.1028  159.9214 C   0  0  0  0  0  0  0  0  0  0  0  0
  152.2705  143.1245  161.3886 C   0  0  0  0  0  0  0  0  0  0  0  0
  150.4899  143.8610  159.7573 C   0  0  0  0  0  0  0  0  0  0  0  0
  151.0317  142.3689  157.1867 C   0  0  0  0  0  0  0  0  0  0  0  0
  150.1006  142.0930  155.9943 C   0  0  0  0  0  0  0  0  0  0  0  0
  150.2653  140.7465  155.5657 O   0  0  0  0  0  0  0  0  0  0  0  0
  147.6066  136.7322  160.2754 N   0  0  0  0  0  0  0  0  0  0  0  0
  146.6853  136.0737  161.0986 O   0  0  0  0  0  0  0  0  0  0  0  0
  146.1887  133.7766  162.6682 H   0  0  0  0  0  0  0  0  0  0  0  0
  145.8103  132.8567  161.2103 H   0  0  0  0  0  0  0  0  0  0  0  0
  144.8328  134.2594  161.6457 H   0  0  0  0  0  0  0  0  0  0  0  0
  147.9824  133.5275  159.4805 H   0  0  0  0  0  0  0  0  0  0  0  0
  150.9155  136.9004  157.3430 H   0  0  0  0  0  0  0  0  0  0  0  0
  151.1541  138.2834  155.5873 H   0  0  0  0  0  0  0  0  0  0  0  0
  149.4500  138.1857  155.2247 H   0  0  0  0  0  0  0  0  0  0  0  0
  148.9486  139.9220  156.9209 H   0  0  0  0  0  0  0  0  0  0  0  0
  150.7191  139.3576  158.5736 H   0  0  0  0  0  0  0  0  0  0  0  0
  151.9608  139.8860  157.4610 H   0  0  0  0  0  0  0  0  0  0  0  0
  151.3902  141.0284  160.2500 H   0  0  0  0  0  0  0  0  0  0  0  0
  152.7071  141.2889  159.1455 H   0  0  0  0  0  0  0  0  0  0  0  0
  152.5814  143.6307  159.3519 H   0  0  0  0  0  0  0  0  0  0  0  0
  151.5490  142.6230  162.0344 H   0  0  0  0  0  0  0  0  0  0  0  0
  152.3865  144.1467  161.7497 H   0  0  0  0  0  0  0  0  0  0  0  0
  153.2309  142.6230  161.5108 H   0  0  0  0  0  0  0  0  0  0  0  0
  149.6853  143.3765  160.3112 H   0  0  0  0  0  0  0  0  0  0  0  0
  150.1891  143.9124  158.7105 H   0  0  0  0  0  0  0  0  0  0  0  0
  150.5751  144.8851  160.1217 H   0  0  0  0  0  0  0  0  0  0  0  0
  150.8696  143.3925  157.5212 H   0  0  0  0  0  0  0  0  0  0  0  0
  152.0692  142.3072  156.8543 H   0  0  0  0  0  0  0  0  0  0  0  0
  149.0591  142.2716  156.2660 H   0  0  0  0  0  0  0  0  0  0  0  0
  150.3352  142.7614  155.1659 H   0  0  0  0  0  0  0  0  0  0  0  0
  1  2  1  0  0  0  0
  1 22  1  0  0  0  0
  1 23  1  0  0  0  0
  1 24  1  0  0  0  0
  2 21  1  0  0  0  0
  2  3  2  0  0  0  0
  3  4  1  0  0  0  0
  3 25  1  0  0  0  0
  4  5  1  0  0  0  0
  4 20  2  0  0  0  0
  5  6  1  0  0  0  0
  6  7  2  0  0  0  0
  6  8  1  0  0  0  0
  8  9  1  0  0  0  0
  8 26  1  0  0  0  0
  9 10  1  0  0  0  0
  9 27  1  0  0  0  0
  9 28  1  0  0  0  0
 10 19  1  0  0  0  0
 10 11  1  0  0  0  0
 10 29  1  0  0  0  0
 11 12  1  0  0  0  0
 11 30  1  0  0  0  0
 11 31  1  0  0  0  0
 12 13  1  0  0  0  0
 12 17  1  0  0  0  0
 13 14  1  0  0  0  0
 13 32  1  0  0  0  0
 13 33  1  0  0  0  0
 14 15  1  0  0  0  0
 14 16  1  0  0  0  0
 14 34  1  0  0  0  0
 15 35  1  0  0  0  0
 15 36  1  0  0  0  0
 15 37  1  0  0  0  0
 16 38  1  0  0  0  0
 16 39  1  0  0  0  0
 16 40  1  0  0  0  0
 17 18  1  0  0  0  0
 17 41  1  0  0  0  0
 17 42  1  0  0  0  0
 18 19  1  0  0  0  0
 18 43  1  0  0  0  0
 18 44  1  0  0  0  0
 20 21  1  0  0  0  0
M  CHG  1   5  -1
M  END
> <s_m_source_file>
AV-unprocessed.smi

> <i_m_source_file_index>
1254

> <i_lp_mmshare_version>
43012

> <i_f3d_flags>
0

> <s_epik_input>
W0NIM11jMVtjSF1jKG5vMSlbTkhdQyg9TylbTkhdW0NIMl1bQ0BASF0yW0NIMl1OKFtDSDJdW0NIMl1PMilbQ0gyXVtDSF0oW0NIM10pW0NIM10=

> <s_epik_cmdline>
J2VwaWtfcHl0aG9uJywgJy1waCcsICc3LjAnLCAnLXRuJywgJzgnLCAnLW1hJywgJzIwMCcsICctbWV0YWxfYmluZGluZycsICctaW1hZScsICc8aW5maWxlLm1hZT4nLCAnLW9tYWUnLCAnPG91dGZpbGUubWFlPic=

> <r_epik_Ionization_Penalty>
7.56718

> <r_epik_Ionization_Penalty_Charging>
6.43435

> <r_epik_Ionization_Penalty_Neutral>
1.13283

> <r_epik_State_Penalty>
7.60314

> <r_epik_Charging_Adjusted_Penalty>
14.0375

> <i_epik_Tot_Q>
-1

> <i_epik_Tot_abs_Q>
1

> <r_epik_Metal_State_Penalty>
3.53636

> <b_epik_Metal_Only>
1

> <s_lp_Force_Field>
OPLS_2005

> <r_lp_Energy>
16.636

> <b_lp_Chiralities_Consistent>
1

> <s_lp_Variant>
AV-unprocessed.smi:1254-12

> <Gold.Version>
5.8.1

> <Gold.Id.Protein>
6NUR|6NUR_protein|mol2

> <Gold.PLP.Fitness>
44.4200

> <Gold.PLP.PLP>
-34.5157

> <Gold.PLP.part.hbond>
-3.0000

> <Gold.PLP.part.metal>
0.0000

> <Gold.PLP.part.buried>
-6.7112

> <Gold.PLP.part.nonpolar>
-25.4623

> <Gold.PLP.part.repulsive>
0.1000

> <Gold.PLP.ligand.clash>
0.0000

> <Gold.PLP.ligand.torsion>
0.8944

> <Gold.PLP.Chemscore.Hbond>
3.8240

> <Gold.PLP.Chemscore.CHOScore>
0.0000

> <Gold.PLP.Chemscore.Metal>
0.0000

> <Gold.Chemscore.Hbonds>
donor molecule, donor type, donor heavy atom, donor atom, acceptor molecule, acceptor atom, score
      P1  H  6896  6907       L1     5  0.55
      P1  H  6934  6947       L1    20  0.03

> <Gold.PLP.Chemscore.Internal.Correction>
0.2211

> <Gold.Rescore>
     Score         DG    S(hbond)    S(metal)    S(lipo)     H(rot)  DE(clash)    DE(int)     intcor
     17.67     -18.67       2.07        0.00      89.90       1.65       0.08       0.93       ----

> <Gold.Chemscore.Fitness>
17.6686

> <Gold.Chemscore.DG>
-18.6747

> <Gold.Chemscore.ZeroCoef>
-5.4800

> <Gold.Chemscore.Hbond>
2.0679

> <Gold.Chemscore.Metal>
0.0000

> <Gold.Chemscore.Lipo>
89.9021

> <Gold.Chemscore.Internal_Hbond>
0.0000

> <Gold.Chemscore.DEClash>
0.0756

> <Gold.Chemscore.DEInternal>
0.9304

> <Gold.Chemscore.Rot>
1.6526

> <Gold.Chemscore.Internal.Correction>
   9.000000E+99

> <Gold.Chemscore.Hbonds>
donor molecule, donor type, donor heavy atom, donor atom, acceptor molecule, acceptor atom, score
      P1  H  6896  6907       L1     5  0.05
      P1  H  6934  6947       L1    20  0.02
      P1  H  7989  7998       L1    19  0.01

> <Gold.Chemscore.Hbond.Weighted>
-6.9069

> <Gold.Chemscore.Metal.Weighted>
-0.0000

> <Gold.Chemscore.Lipo.Weighted>
-10.5185

> <Gold.Chemscore.Internal_Hbond.Weighted>
0.0000

> <Gold.Chemscore.DEClash.Weighted>
0.0756

> <Gold.Chemscore.DEInternal.Weighted>
0.9304

> <Gold.Chemscore.Rot.Weighted>
4.2308

> <Gold.Chemscore.Internal.Correction.Weighted>
   9.000000E+99

> <Gold.Protein.RotatedTorsions>
[ 6907 6896 6895 6894 ] final  -51.95 input  -60.11 | X-H torsion
[ 7974 7965 7964 7962 ] final  -45.85 input  175.53 | X-H torsion
[ 8008 7997 7996 7995 ] final  -29.45 input   59.86 | X-H torsion
[ 10167 10162 10161 10158 ] final   70.34 input  -65.29 | X-H torsion
[ 10718 10713 10712 10709 ] final -143.77 input   66.30 | X-H torsion
[ 10763 10752 10751 10750 ] final  133.76 input  -60.55 | X-H torsion
[ 11005 11000 10999 10996 ] final  -93.48 input  -57.11 | X-H torsion

> <Gold.Protein.ActiveResidues>
 VAL166  LYS551  ARG553  GLY616  TRP617  ASP618  TYR619  PRO620  LYS621  CYS622 
 ASP623  PHE694  ASN695  SER759  ASP760  ASP761  ALA762  ILE779  LEU786  VAL792 
 PHE793  MET794  SER795  GLU796  ALA797  LYS798  CYS799  TRP800  GLU811  SER814 

> <Gold.Protein.RotatedAtoms>
  150.8563  134.7903  159.7047 H   0  0  0  0  0  0  0  0  0  0  0  0  # atno 6907 bound_to 6896
  152.4614  134.5173  159.9782 H   0  0  0  0  0  0  0  0  0  0  0  0  # atno 6908 bound_to 6896
  151.5285  133.3415  159.2949 H   0  0  0  0  0  0  0  0  0  0  0  0  # atno 6909 bound_to 6896
  145.9779  140.7315  142.9378 H   0  0  0  0  0  0  0  0  0  0  0  0  # atno 7974 bound_to 7965
  154.4289  140.1818  156.1250 H   0  0  0  0  0  0  0  0  0  0  0  0  # atno 8008 bound_to 7997
  156.0113  140.3350  155.6918 H   0  0  0  0  0  0  0  0  0  0  0  0  # atno 8009 bound_to 7997
  155.6107  140.0649  157.2698 H   0  0  0  0  0  0  0  0  0  0  0  0  # atno 8010 bound_to 7997
  140.0580  144.5257  150.7315 H   0  0  0  0  0  0  0  0  0  0  0  0  # atno 10167 bound_to 10162
  156.3619  130.7743  151.1912 H   0  0  0  0  0  0  0  0  0  0  0  0  # atno 10718 bound_to 10713
  153.8125  135.3127  155.3402 H   0  0  0  0  0  0  0  0  0  0  0  0  # atno 10763 bound_to 10752
  154.8046  135.4706  154.0362 H   0  0  0  0  0  0  0  0  0  0  0  0  # atno 10764 bound_to 10752
  153.1745  135.6883  153.8651 H   0  0  0  0  0  0  0  0  0  0  0  0  # atno 10765 bound_to 10752
  141.1496  133.7891  157.0165 H   0  0  0  0  0  0  0  0  0  0  0  0  # atno 11005 bound_to 11000
  144.6853  140.2858  143.7285 LP  0  0  0  0  0  0  0  0  0  0  0  0  # atno 17320 bound_to 7965
  145.7812  139.1892  143.2156 LP  0  0  0  0  0  0  0  0  0  0  0  0  # atno 17321 bound_to 7965
  140.7185  143.2567  151.4355 LP  0  0  0  0  0  0  0  0  0  0  0  0  # atno 17342 bound_to 10162
  139.5911  144.1496  152.2089 LP  0  0  0  0  0  0  0  0  0  0  0  0  # atno 17343 bound_to 10162
  157.7474  131.0397  150.4564 LP  0  0  0  0  0  0  0  0  0  0  0  0  # atno 17370 bound_to 10713
  156.4777  130.4067  149.6480 LP  0  0  0  0  0  0  0  0  0  0  0  0  # atno 17371 bound_to 10713
  140.0843  134.9630  157.1675 LP  0  0  0  0  0  0  0  0  0  0  0  0  # atno 17394 bound_to 11000
  140.3533  134.2574  155.7196 LP  0  0  0  0  0  0  0  0  0  0  0  0  # atno 17395 bound_to 11000

$$$$
