AV-unprocessed.smi:1830|AV-procd|sdf|7436|dock2
  -GOLD-   22720 9123D 1   1.00000     0.00000
 Structure written by MMmdl.
 53 56  0  0  0  0  0  0  0  0  2 V2000
  146.2861  139.2799  152.0458 O   0  0  0  0  0  0  0  0  0  0  0  0
  146.7576  138.3545  152.7063 C   0  0  0  0  0  0  0  0  0  0  0  0
  146.3410  137.0845  152.6051 N   0  0  0  0  0  0  0  0  0  0  0  0
  145.2713  136.6204  151.7281 C   0  0  0  0  0  0  0  0  0  0  0  0
  145.6812  135.3564  150.9515 C   0  0  2  0  0  0  0  0  0  0  0  0
  144.4792  134.7021  150.2505 C   0  0  0  0  0  0  0  0  0  0  0  0
  144.8724  133.4597  149.5379 N   0  3  2  0  0  0  0  0  0  0  0  0
  143.7007  132.6627  149.1130 C   0  0  0  0  0  0  0  0  0  0  0  0
  143.4828  131.5892  150.1952 C   0  0  0  0  0  0  0  0  0  0  0  0
  144.6670  131.7246  151.1595 C   0  0  0  0  0  0  0  0  0  0  0  0
  145.6861  132.5464  150.3696 C   0  0  2  0  0  0  0  0  0  0  0  0
  146.7577  133.2756  151.2044 C   0  0  0  0  0  0  0  0  0  0  0  0
  146.2064  134.4033  151.8669 O   0  0  0  0  0  0  0  0  0  0  0  0
  147.7253  138.4750  153.6298 N   0  0  0  0  0  0  0  0  0  0  0  0
  148.3742  139.6621  154.0732 C   0  0  0  0  0  0  0  0  0  0  0  0
  147.7584  140.9325  153.9597 C   0  0  0  0  0  0  0  0  0  0  0  0
  148.4340  142.0712  154.4309 C   0  0  0  0  0  0  0  0  0  0  0  0
  149.7076  141.9008  154.9981 C   0  0  0  0  0  0  0  0  0  0  0  0
  150.3158  140.7018  155.0950 N   0  0  0  0  0  0  0  0  0  0  0  0
  149.6834  139.5960  154.6306 C   0  0  0  0  0  0  0  0  0  0  0  0
  150.3782  138.3695  154.7384 N   0  0  0  0  0  0  0  0  0  0  0  0
  149.7842  137.2420  155.4489 C   0  0  0  0  0  0  0  0  0  0  0  0
  150.9419  136.2808  155.7027 C   0  0  0  0  0  0  0  0  0  0  0  0
  152.1063  137.2342  155.9511 C   0  0  0  0  0  0  0  0  0  0  0  0
  151.8091  138.4170  155.0237 C   0  0  0  0  0  0  0  0  0  0  0  0
  146.7878  136.3903  153.1861 H   0  0  0  0  0  0  0  0  0  0  0  0
  144.3528  136.4483  152.2918 H   0  0  0  0  0  0  0  0  0  0  0  0
  145.0537  137.4265  151.0269 H   0  0  0  0  0  0  0  0  0  0  0  0
  146.4391  135.6252  150.2128 H   0  0  0  0  0  0  0  0  0  0  0  0
  143.7094  134.4757  150.9906 H   0  0  0  0  0  0  0  0  0  0  0  0
  144.0344  135.3944  149.5346 H   0  0  0  0  0  0  0  0  0  0  0  0
  142.8139  133.2760  148.9454 H   0  0  0  0  0  0  0  0  0  0  0  0
  143.9427  132.1807  148.1651 H   0  0  0  0  0  0  0  0  0  0  0  0
  142.5381  131.7341  150.7202 H   0  0  0  0  0  0  0  0  0  0  0  0
  143.4586  130.5967  149.7439 H   0  0  0  0  0  0  0  0  0  0  0  0
  144.3553  132.2670  152.0532 H   0  0  0  0  0  0  0  0  0  0  0  0
  145.0632  130.7599  151.4778 H   0  0  0  0  0  0  0  0  0  0  0  0
  146.1958  131.8628  149.6886 H   0  0  0  0  0  0  0  0  0  0  0  0
  147.1872  132.5994  151.9439 H   0  0  0  0  0  0  0  0  0  0  0  0
  147.5807  133.6000  150.5655 H   0  0  0  0  0  0  0  0  0  0  0  0
  147.9418  137.6428  154.1584 H   0  0  0  0  0  0  0  0  0  0  0  0
  146.7832  141.0525  153.5129 H   0  0  0  0  0  0  0  0  0  0  0  0
  147.9853  143.0510  154.3601 H   0  0  0  0  0  0  0  0  0  0  0  0
  150.2569  142.7496  155.3772 H   0  0  0  0  0  0  0  0  0  0  0  0
  149.3641  137.5614  156.4036 H   0  0  0  0  0  0  0  0  0  0  0  0
  148.9911  136.7763  154.8632 H   0  0  0  0  0  0  0  0  0  0  0  0
  150.7578  135.6031  156.5364 H   0  0  0  0  0  0  0  0  0  0  0  0
  151.1336  135.6817  154.8113 H   0  0  0  0  0  0  0  0  0  0  0  0
  152.0889  137.5683  156.9894 H   0  0  0  0  0  0  0  0  0  0  0  0
  153.0788  136.7798  155.7604 H   0  0  0  0  0  0  0  0  0  0  0  0
  152.3565  138.2996  154.0882 H   0  0  0  0  0  0  0  0  0  0  0  0
  152.1084  139.3632  155.4765 H   0  0  0  0  0  0  0  0  0  0  0  0
  145.4098  133.7316  148.7271 H   0  0  0  0  0  0  0  0  0  0  0  0
  1  2  2  0  0  0  0
  2  3  1  0  0  0  0
  2 14  1  0  0  0  0
  3  4  1  0  0  0  0
  3 26  1  0  0  0  0
  4  5  1  0  0  0  0
  4 27  1  0  0  0  0
  4 28  1  0  0  0  0
  5 13  1  0  0  0  0
  5  6  1  0  0  0  0
  5 29  1  0  0  0  0
  6  7  1  0  0  0  0
  6 30  1  0  0  0  0
  6 31  1  0  0  0  0
  7 11  1  0  0  0  0
  7  8  1  0  0  0  0
  7 53  1  0  0  0  0
  8  9  1  0  0  0  0
  8 32  1  0  0  0  0
  8 33  1  0  0  0  0
  9 10  1  0  0  0  0
  9 34  1  0  0  0  0
  9 35  1  0  0  0  0
 10 11  1  0  0  0  0
 10 36  1  0  0  0  0
 10 37  1  0  0  0  0
 11 12  1  0  0  0  0
 11 38  1  0  0  0  0
 12 13  1  0  0  0  0
 12 39  1  0  0  0  0
 12 40  1  0  0  0  0
 14 15  1  0  0  0  0
 14 41  1  0  0  0  0
 15 20  1  0  0  0  0
 15 16  2  0  0  0  0
 16 17  1  0  0  0  0
 16 42  1  0  0  0  0
 17 18  2  0  0  0  0
 17 43  1  0  0  0  0
 18 19  1  0  0  0  0
 18 44  1  0  0  0  0
 19 20  2  0  0  0  0
 20 21  1  0  0  0  0
 21 25  1  0  0  0  0
 21 22  1  0  0  0  0
 22 23  1  0  0  0  0
 22 45  1  0  0  0  0
 22 46  1  0  0  0  0
 23 24  1  0  0  0  0
 23 47  1  0  0  0  0
 23 48  1  0  0  0  0
 24 25  1  0  0  0  0
 24 49  1  0  0  0  0
 24 50  1  0  0  0  0
 25 51  1  0  0  0  0
 25 52  1  0  0  0  0
M  CHG  1   7   1
M  END
> <s_m_source_file>
AV-unprocessed.smi

> <i_m_source_file_index>
1830

> <i_lp_mmshare_version>
43012

> <i_f3d_flags>
0

> <s_epik_input>
W0NIMl0xW0NIMl1bQ0gyXVtDQEhdKE4xMilbQ0gyXU9bQ0BASF0oW0NIMl0yKVtDSDJdW05IXUMoPU8pW05IXWMzW2NIXVtjSF1bY0hdbmMzTjRbQ0gyXVtDSDJdW0NIMl1bQ0gyXTQ=

> <s_epik_cmdline>
J2VwaWtfcHl0aG9uJywgJy1waCcsICc3LjAnLCAnLXRuJywgJzgnLCAnLW1hJywgJzIwMCcsICctbWV0YWxfYmluZGluZycsICctaW1hZScsICc8aW5maWxlLm1hZT4nLCAnLW9tYWUnLCAnPG91dGZpbGUubWFlPic=

> <r_lp_tautomer_probability>
1

> <r_epik_Ionization_Penalty>
0.193547

> <r_epik_Ionization_Penalty_Charging>
0.10673

> <r_epik_Ionization_Penalty_Neutral>
0.0868166

> <r_epik_State_Penalty>
0.173595

> <r_epik_Charging_Adjusted_Penalty>
0.280326

> <i_epik_Tot_Q>
1

> <i_epik_Tot_abs_Q>
1

> <r_epik_Metal_State_Penalty>
0.164683

> <b_epik_Metal_Only>
0

> <s_lp_Force_Field>
OPLS_2005

> <r_lp_Energy>
65.0875

> <b_lp_Chiralities_Consistent>
1

> <s_lp_Variant>
AV-unprocessed.smi:1830-5

> <Gold.Version>
5.8.1

> <Gold.Id.Protein>
6NUR|6NUR_protein|mol2

> <Gold.PLP.Fitness>
43.8677

> <Gold.PLP.PLP>
-37.3663

> <Gold.PLP.part.hbond>
-3.8459

> <Gold.PLP.part.metal>
0.0000

> <Gold.PLP.part.buried>
7.3514

> <Gold.PLP.part.nonpolar>
-42.0994

> <Gold.PLP.part.repulsive>
2.5126

> <Gold.PLP.ligand.clash>
0.0000

> <Gold.PLP.ligand.torsion>
0.4506

> <Gold.PLP.Chemscore.Hbond>
1.6864

> <Gold.PLP.Chemscore.CHOScore>
0.6714

> <Gold.PLP.Chemscore.Metal>
0.0000

> <Gold.Chemscore.Hbonds>
donor molecule, donor type, donor heavy atom, donor atom, acceptor molecule, acceptor atom, score
      L1  H     7    53       P1  7921  1.00
      P1  H  7989  7998       L1    19  0.58
      L1  C    18    44       P1  8028  0.67

> <Gold.PLP.Chemscore.Internal.Correction>
0.3291

> <Gold.Rescore>
     Score         DG    S(hbond)    S(metal)    S(lipo)     H(rot)  DE(clash)    DE(int)     intcor
     12.17     -18.10       0.74        0.00     117.59       1.41       3.23       2.70       ----

> <Gold.Chemscore.Fitness>
12.1734

> <Gold.Chemscore.DG>
-18.1038

> <Gold.Chemscore.ZeroCoef>
-5.4800

> <Gold.Chemscore.Hbond>
0.7385

> <Gold.Chemscore.Metal>
0.0000

> <Gold.Chemscore.Lipo>
117.5905

> <Gold.Chemscore.Internal_Hbond>
0.0000

> <Gold.Chemscore.DEClash>
3.2280

> <Gold.Chemscore.DEInternal>
2.7024

> <Gold.Chemscore.Rot>
1.4067

> <Gold.Chemscore.Internal.Correction>
   9.000000E+99

> <Gold.Chemscore.Hbonds>
donor molecule, donor type, donor heavy atom, donor atom, acceptor molecule, acceptor atom, score
      L1  H     7    53       P1  7921  0.60
      P1  H  7989  7998       L1    19  0.02

> <Gold.Chemscore.Hbond.Weighted>
-2.4668

> <Gold.Chemscore.Metal.Weighted>
-0.0000

> <Gold.Chemscore.Lipo.Weighted>
-13.7581

> <Gold.Chemscore.Internal_Hbond.Weighted>
0.0000

> <Gold.Chemscore.DEClash.Weighted>
3.2280

> <Gold.Chemscore.DEInternal.Weighted>
2.7024

> <Gold.Chemscore.Rot.Weighted>
3.6011

> <Gold.Chemscore.Internal.Correction.Weighted>
   9.000000E+99

> <Gold.Protein.RotatedTorsions>
[ 6907 6896 6895 6894 ] final  176.84 input  -60.11 | X-H torsion
[ 7974 7965 7964 7962 ] final  177.16 input  175.53 | X-H torsion
[ 8008 7997 7996 7995 ] final -108.55 input   59.86 | X-H torsion
[ 10167 10162 10161 10158 ] final   90.81 input  -65.29 | X-H torsion
[ 10718 10713 10712 10709 ] final -150.56 input   66.30 | X-H torsion
[ 10763 10752 10751 10750 ] final  -22.16 input  -60.55 | X-H torsion
[ 11005 11000 10999 10996 ] final -168.15 input  -57.11 | X-H torsion

> <Gold.Protein.ActiveResidues>
 VAL166  LYS551  ARG553  GLY616  TRP617  ASP618  TYR619  PRO620  LYS621  CYS622 
 ASP623  PHE694  ASN695  SER759  ASP760  ASP761  ALA762  ILE779  LEU786  VAL792 
 PHE793  MET794  SER795  GLU796  ALA797  LYS798  CYS799  TRP800  GLU811  SER814 

> <Gold.Protein.RotatedAtoms>
  151.7136  133.3313  159.3296 H   0  0  0  0  0  0  0  0  0  0  0  0  # atno 6907 bound_to 6896
  150.7683  134.6510  159.6297 H   0  0  0  0  0  0  0  0  0  0  0  0  # atno 6908 bound_to 6896
  152.3696  134.6757  160.0232 H   0  0  0  0  0  0  0  0  0  0  0  0  # atno 6909 bound_to 6896
  144.7173  140.0206  143.6440 H   0  0  0  0  0  0  0  0  0  0  0  0  # atno 7974 bound_to 7965
  154.9460  140.0402  157.2120 H   0  0  0  0  0  0  0  0  0  0  0  0  # atno 8008 bound_to 7997
  154.8024  140.2854  155.5890 H   0  0  0  0  0  0  0  0  0  0  0  0  # atno 8009 bound_to 7997
  156.2963  140.2552  156.2895 H   0  0  0  0  0  0  0  0  0  0  0  0  # atno 8010 bound_to 7997
  139.8436  144.6629  150.9253 H   0  0  0  0  0  0  0  0  0  0  0  0  # atno 10167 bound_to 10162
  156.4478  130.8153  151.2383 H   0  0  0  0  0  0  0  0  0  0  0  0  # atno 10718 bound_to 10713
  153.6475  135.6982  153.5220 H   0  0  0  0  0  0  0  0  0  0  0  0  # atno 10763 bound_to 10752
  153.2733  135.4208  155.1008 H   0  0  0  0  0  0  0  0  0  0  0  0  # atno 10764 bound_to 10752
  154.8484  135.3584  154.6020 H   0  0  0  0  0  0  0  0  0  0  0  0  # atno 10765 bound_to 10752
  140.5452  134.5483  157.5109 H   0  0  0  0  0  0  0  0  0  0  0  0  # atno 11005 bound_to 11000
  146.0184  139.3230  143.0828 LP  0  0  0  0  0  0  0  0  0  0  0  0  # atno 17320 bound_to 7965
  145.8598  140.9482  143.0706 LP  0  0  0  0  0  0  0  0  0  0  0  0  # atno 17321 bound_to 7965
  140.7795  143.3890  151.1343 LP  0  0  0  0  0  0  0  0  0  0  0  0  # atno 17342 bound_to 10162
  139.7534  143.8744  152.3082 LP  0  0  0  0  0  0  0  0  0  0  0  0  # atno 17343 bound_to 10162
  157.7504  131.0148  150.3477 LP  0  0  0  0  0  0  0  0  0  0  0  0  # atno 17370 bound_to 10713
  156.3849  130.3887  149.7074 LP  0  0  0  0  0  0  0  0  0  0  0  0  # atno 17371 bound_to 10713
  139.9483  134.7662  156.0509 LP  0  0  0  0  0  0  0  0  0  0  0  0  # atno 17394 bound_to 11000
  141.1204  133.6615  156.3200 LP  0  0  0  0  0  0  0  0  0  0  0  0  # atno 17395 bound_to 11000

$$$$
