AV-unprocessed.smi:2386|AV-procd|sdf|9467|dock8
  -GOLD-   2272013 93D 1   1.00000     0.00000
 Structure written by MMmdl.
 43 44  0  0  0  0  0  0  0  0  2 V2000
  152.2762  145.6442  159.1296 C   0  0  0  0  0  0  0  0  0  0  0  0
  152.3275  144.1358  159.2500 C   0  0  0  0  0  0  0  0  0  0  0  0
  152.8064  143.5178  160.4218 C   0  0  0  0  0  0  0  0  0  0  0  0
  152.8261  142.1125  160.4695 C   0  0  0  0  0  0  0  0  0  0  0  0
  152.3678  141.3884  159.3521 C   0  0  0  0  0  0  0  0  0  0  0  0
  151.9025  142.0858  158.2148 C   0  0  0  0  0  0  0  0  0  0  0  0
  151.4606  141.2636  157.1444 N   0  0  0  0  0  0  0  0  0  0  0  0
  151.8472  140.0115  156.8430 C   0  0  0  0  0  0  0  0  0  0  0  0
  152.6679  139.3456  157.4750 O   0  0  0  0  0  0  0  0  0  0  0  0
  151.2136  139.5582  155.7516 N   0  0  0  0  0  0  0  0  0  0  0  0
  151.4070  138.2417  155.1514 C   0  0  0  0  0  0  0  0  0  0  0  0
  150.0822  137.5090  154.8635 C   0  0  0  0  0  0  0  0  0  0  0  0
  150.1519  135.9872  155.0934 C   0  0  0  0  0  0  0  0  0  0  0  0
  149.0479  135.2652  154.4132 N   0  3  0  0  0  0  0  0  0  0  0  0
  149.2510  133.7966  154.4037 C   0  0  0  0  0  0  0  0  0  0  0  0
  148.1086  133.0987  153.6467 C   0  0  0  0  0  0  0  0  0  0  0  0
  146.8635  133.4409  154.2418 O   0  0  0  0  0  0  0  0  0  0  0  0
  146.6117  134.8390  154.1788 C   0  0  0  0  0  0  0  0  0  0  0  0
  147.7048  135.5981  154.9501 C   0  0  0  0  0  0  0  0  0  0  0  0
  151.8895  143.4415  158.1775 N   0  0  0  0  0  0  0  0  0  0  0  0
  152.6606  146.1266  160.0287 H   0  0  0  0  0  0  0  0  0  0  0  0
  151.2491  145.9772  158.9777 H   0  0  0  0  0  0  0  0  0  0  0  0
  152.8753  145.9778  158.2819 H   0  0  0  0  0  0  0  0  0  0  0  0
  153.1496  144.1017  161.2632 H   0  0  0  0  0  0  0  0  0  0  0  0
  153.1857  141.5975  161.3481 H   0  0  0  0  0  0  0  0  0  0  0  0
  152.3750  140.3083  159.3734 H   0  0  0  0  0  0  0  0  0  0  0  0
  150.7740  141.6808  156.5340 H   0  0  0  0  0  0  0  0  0  0  0  0
  150.5596  140.1750  155.2921 H   0  0  0  0  0  0  0  0  0  0  0  0
  151.9632  138.3736  154.2230 H   0  0  0  0  0  0  0  0  0  0  0  0
  152.0375  137.6332  155.8019 H   0  0  0  0  0  0  0  0  0  0  0  0
  149.3132  137.9482  155.4982 H   0  0  0  0  0  0  0  0  0  0  0  0
  149.7699  137.7065  153.8373 H   0  0  0  0  0  0  0  0  0  0  0  0
  151.1018  135.6231  154.7001 H   0  0  0  0  0  0  0  0  0  0  0  0
  150.1514  135.7538  156.1591 H   0  0  0  0  0  0  0  0  0  0  0  0
  150.2025  133.5563  153.9280 H   0  0  0  0  0  0  0  0  0  0  0  0
  149.3011  133.4271  155.4289 H   0  0  0  0  0  0  0  0  0  0  0  0
  148.1113  133.3780  152.5919 H   0  0  0  0  0  0  0  0  0  0  0  0
  148.2350  132.0170  153.6899 H   0  0  0  0  0  0  0  0  0  0  0  0
  146.5683  135.1674  153.1392 H   0  0  0  0  0  0  0  0  0  0  0  0
  145.6343  135.0411  154.6170 H   0  0  0  0  0  0  0  0  0  0  0  0
  147.6587  135.3376  156.0086 H   0  0  0  0  0  0  0  0  0  0  0  0
  147.5183  136.6689  154.8770 H   0  0  0  0  0  0  0  0  0  0  0  0
  149.0633  135.5573  153.4463 H   0  0  0  0  0  0  0  0  0  0  0  0
  1  2  1  0  0  0  0
  1 21  1  0  0  0  0
  1 22  1  0  0  0  0
  1 23  1  0  0  0  0
  2 20  1  0  0  0  0
  2  3  2  0  0  0  0
  3  4  1  0  0  0  0
  3 24  1  0  0  0  0
  4  5  2  0  0  0  0
  4 25  1  0  0  0  0
  5  6  1  0  0  0  0
  5 26  1  0  0  0  0
  6  7  1  0  0  0  0
  6 20  2  0  0  0  0
  7  8  1  0  0  0  0
  7 27  1  0  0  0  0
  8  9  2  0  0  0  0
  8 10  1  0  0  0  0
 10 11  1  0  0  0  0
 10 28  1  0  0  0  0
 11 12  1  0  0  0  0
 11 29  1  0  0  0  0
 11 30  1  0  0  0  0
 12 13  1  0  0  0  0
 12 31  1  0  0  0  0
 12 32  1  0  0  0  0
 13 14  1  0  0  0  0
 13 33  1  0  0  0  0
 13 34  1  0  0  0  0
 14 19  1  0  0  0  0
 14 15  1  0  0  0  0
 14 43  1  0  0  0  0
 15 16  1  0  0  0  0
 15 35  1  0  0  0  0
 15 36  1  0  0  0  0
 16 17  1  0  0  0  0
 16 37  1  0  0  0  0
 16 38  1  0  0  0  0
 17 18  1  0  0  0  0
 18 19  1  0  0  0  0
 18 39  1  0  0  0  0
 18 40  1  0  0  0  0
 19 41  1  0  0  0  0
 19 42  1  0  0  0  0
M  CHG  1  14   1
M  END
> <s_m_source_file>
AV-unprocessed.smi

> <i_m_source_file_index>
2386

> <i_lp_mmshare_version>
43012

> <i_f3d_flags>
0

> <s_epik_input>
W0NIM11jMVtjSF1bY0hdW2NIXWMobjEpW05IXUMoPU8pW05IXVtDSDJdW0NIMl1bQ0gyXU4yW0NIMl1bQ0gyXU9bQ0gyXVtDSDJdMg==

> <s_epik_cmdline>
J2VwaWtfcHl0aG9uJywgJy1waCcsICc3LjAnLCAnLXRuJywgJzgnLCAnLW1hJywgJzIwMCcsICctbWV0YWxfYmluZGluZycsICctaW1hZScsICc8aW5maWxlLm1hZT4nLCAnLW9tYWUnLCAnPG91dGZpbGUubWFlPic=

> <r_epik_Ionization_Penalty>
0.270568

> <r_epik_Ionization_Penalty_Charging>
0.270496

> <r_epik_Ionization_Penalty_Neutral>
7.21828e-05

> <r_epik_State_Penalty>
0.262618

> <r_epik_Charging_Adjusted_Penalty>
0.533114

> <i_epik_Tot_Q>
1

> <i_epik_Tot_abs_Q>
1

> <r_epik_Metal_State_Penalty>
0.26262

> <b_epik_Metal_Only>
0

> <s_lp_Force_Field>
OPLS_2005

> <r_lp_Energy>
18.5564

> <b_lp_Chiralities_Consistent>
1

> <s_lp_Variant>
AV-unprocessed.smi:2386-1

> <Gold.Version>
5.8.1

> <Gold.Id.Protein>
6NUR|6NUR_protein|mol2

> <Gold.PLP.Fitness>
46.5413

> <Gold.PLP.PLP>
-38.6539

> <Gold.PLP.part.hbond>
-2.0000

> <Gold.PLP.part.metal>
0.0000

> <Gold.PLP.part.buried>
-5.2897

> <Gold.PLP.part.nonpolar>
-31.4048

> <Gold.PLP.part.repulsive>
0.3397

> <Gold.PLP.ligand.clash>
0.0000

> <Gold.PLP.ligand.torsion>
0.5728

> <Gold.PLP.Chemscore.Hbond>
3.0000

> <Gold.PLP.Chemscore.CHOScore>
0.0000

> <Gold.PLP.Chemscore.Metal>
0.0000

> <Gold.Chemscore.Hbonds>
donor molecule, donor type, donor heavy atom, donor atom, acceptor molecule, acceptor atom, score
      L1  H    14    43       P1  7948  2.00
      P1  H  7997  8009       L1     9  0.99

> <Gold.PLP.Chemscore.Internal.Correction>
0.0331

> <Gold.Rescore>
     Score         DG    S(hbond)    S(metal)    S(lipo)     H(rot)  DE(clash)    DE(int)     intcor
     16.00     -18.02       1.91        0.00      91.15       1.76       0.03       1.99       ----

> <Gold.Chemscore.Fitness>
15.9980

> <Gold.Chemscore.DG>
-18.0161

> <Gold.Chemscore.ZeroCoef>
-5.4800

> <Gold.Chemscore.Hbond>
1.9087

> <Gold.Chemscore.Metal>
0.0000

> <Gold.Chemscore.Lipo>
91.1536

> <Gold.Chemscore.Internal_Hbond>
0.0000

> <Gold.Chemscore.DEClash>
0.0285

> <Gold.Chemscore.DEInternal>
1.9896

> <Gold.Chemscore.Rot>
1.7593

> <Gold.Chemscore.Internal.Correction>
   9.000000E+99

> <Gold.Chemscore.Hbonds>
donor molecule, donor type, donor heavy atom, donor atom, acceptor molecule, acceptor atom, score
      L1  H    14    43       P1  7948  0.65
      P1  H  7997  8009       L1     9  0.46

> <Gold.Chemscore.Hbond.Weighted>
-6.3751

> <Gold.Chemscore.Metal.Weighted>
-0.0000

> <Gold.Chemscore.Lipo.Weighted>
-10.6650

> <Gold.Chemscore.Internal_Hbond.Weighted>
0.0000

> <Gold.Chemscore.DEClash.Weighted>
0.0285

> <Gold.Chemscore.DEInternal.Weighted>
1.9896

> <Gold.Chemscore.Rot.Weighted>
4.5039

> <Gold.Chemscore.Internal.Correction.Weighted>
   9.000000E+99

> <Gold.Protein.RotatedTorsions>
[ 6907 6896 6895 6894 ] final -144.51 input  -60.11 | X-H torsion
[ 7974 7965 7964 7962 ] final -129.84 input  175.53 | X-H torsion
[ 8008 7997 7996 7995 ] final  165.46 input   59.86 | X-H torsion
[ 10167 10162 10161 10158 ] final  149.89 input  -65.29 | X-H torsion
[ 10718 10713 10712 10709 ] final -147.06 input   66.30 | X-H torsion
[ 10763 10752 10751 10750 ] final   64.85 input  -60.55 | X-H torsion
[ 11005 11000 10999 10996 ] final -103.49 input  -57.11 | X-H torsion

> <Gold.Protein.ActiveResidues>
 VAL166  LYS551  ARG553  GLY616  TRP617  ASP618  TYR619  PRO620  LYS621  CYS622 
 ASP623  PHE694  ASN695  SER759  ASP760  ASP761  ALA762  ILE779  LEU786  VAL792 
 PHE793  MET794  SER795  GLU796  ALA797  LYS798  CYS799  TRP800  GLU811  SER814 

> <Gold.Protein.RotatedAtoms>
  151.1151  133.5144  159.2603 H   0  0  0  0  0  0  0  0  0  0  0  0  # atno 6907 bound_to 6896
  151.1924  135.0407  159.8848 H   0  0  0  0  0  0  0  0  0  0  0  0  # atno 6908 bound_to 6896
  152.5452  134.0990  159.8363 H   0  0  0  0  0  0  0  0  0  0  0  0  # atno 6909 bound_to 6896
  144.9533  140.7368  143.4774 H   0  0  0  0  0  0  0  0  0  0  0  0  # atno 7974 bound_to 7965
  156.1799  140.1669  156.8294 H   0  0  0  0  0  0  0  0  0  0  0  0  # atno 8008 bound_to 7997
  154.5348  140.0749  156.8441 H   0  0  0  0  0  0  0  0  0  0  0  0  # atno 8009 bound_to 7997
  155.3334  140.3380  155.4241 H   0  0  0  0  0  0  0  0  0  0  0  0  # atno 8010 bound_to 7997
  139.4856  144.5566  151.7307 H   0  0  0  0  0  0  0  0  0  0  0  0  # atno 10167 bound_to 10162
  156.4028  130.7942  151.2154 H   0  0  0  0  0  0  0  0  0  0  0  0  # atno 10718 bound_to 10713
  153.0072  135.5378  154.6574 H   0  0  0  0  0  0  0  0  0  0  0  0  # atno 10763 bound_to 10752
  154.5791  135.2848  155.0753 H   0  0  0  0  0  0  0  0  0  0  0  0  # atno 10764 bound_to 10752
  154.1888  135.6503  153.5107 H   0  0  0  0  0  0  0  0  0  0  0  0  # atno 10765 bound_to 10752
  141.1143  133.8644  157.1492 H   0  0  0  0  0  0  0  0  0  0  0  0  # atno 11005 bound_to 11000
  145.2811  139.1918  143.4790 LP  0  0  0  0  0  0  0  0  0  0  0  0  # atno 17320 bound_to 7965
  146.3328  140.2773  142.8608 LP  0  0  0  0  0  0  0  0  0  0  0  0  # atno 17321 bound_to 7965
  140.5128  144.0998  150.6000 LP  0  0  0  0  0  0  0  0  0  0  0  0  # atno 17342 bound_to 10162
  140.3930  143.2743  152.0038 LP  0  0  0  0  0  0  0  0  0  0  0  0  # atno 17343 bound_to 10162
  157.7504  131.0281  150.4036 LP  0  0  0  0  0  0  0  0  0  0  0  0  # atno 17370 bound_to 10713
  156.4319  130.3974  149.6754 LP  0  0  0  0  0  0  0  0  0  0  0  0  # atno 17371 bound_to 10713
  140.0056  135.0010  157.0285 LP  0  0  0  0  0  0  0  0  0  0  0  0  # atno 17394 bound_to 11000
  140.4688  134.1408  155.7200 LP  0  0  0  0  0  0  0  0  0  0  0  0  # atno 17395 bound_to 11000

$$$$
