AV-unprocessed.smi:2633|AV-procd|sdf|10253|dock1
  -GOLD-   2272014263D 1   1.00000     0.00000
 Structure written by MMmdl.
 36 38  0  0  0  0  0  0  0  0  2 V2000
  153.1137  139.5361  154.7012 O   0  0  0  0  0  0  0  0  0  0  0  0
  151.8615  139.1950  155.2528 C   0  0  0  0  0  0  0  0  0  0  0  0
  151.8182  139.6146  156.7285 C   0  0  0  0  0  0  0  0  0  0  0  0
  151.3484  140.9968  156.8881 N   0  0  0  0  0  0  0  0  0  0  0  0
  150.4226  141.7047  156.1784 C   0  0  0  0  0  0  0  0  0  0  0  0
  149.6193  141.2158  155.0131 C   0  0  0  0  0  0  0  0  0  0  0  0
  148.1710  141.6671  155.0662 C   0  0  0  0  0  0  0  0  0  0  0  0
  147.4442  141.5647  156.2713 C   0  0  0  0  0  0  0  0  0  0  0  0
  146.1042  141.9945  156.3276 C   0  0  0  0  0  0  0  0  0  0  0  0
  145.4859  142.5269  155.1795 C   0  0  0  0  0  0  0  0  0  0  0  0
  146.2082  142.6292  153.9749 C   0  0  0  0  0  0  0  0  0  0  0  0
  147.5485  142.2002  153.9175 C   0  0  0  0  0  0  0  0  0  0  0  0
  150.3626  142.9510  156.7308 N   0  3  0  0  0  0  0  0  0  0  0  0
  151.2415  143.0346  157.8107 C   0  0  0  0  0  0  0  0  0  0  0  0
  151.5196  144.0843  158.6809 C   0  0  0  0  0  0  0  0  0  0  0  0
  152.4745  143.8342  159.6882 C   0  0  0  0  0  0  0  0  0  0  0  0
  153.1117  142.5814  159.8016 C   0  0  0  0  0  0  0  0  0  0  0  0
  152.8219  141.5252  158.9126 C   0  0  0  0  0  0  0  0  0  0  0  0
  151.8771  141.7812  157.9193 C   0  0  0  0  0  0  0  0  0  0  0  0
  153.3157  138.9248  154.0089 H   0  0  0  0  0  0  0  0  0  0  0  0
  151.0740  139.6943  154.6870 H   0  0  0  0  0  0  0  0  0  0  0  0
  151.7096  138.1204  155.1489 H   0  0  0  0  0  0  0  0  0  0  0  0
  151.1742  138.9537  157.3097 H   0  0  0  0  0  0  0  0  0  0  0  0
  152.8108  139.5445  157.1745 H   0  0  0  0  0  0  0  0  0  0  0  0
  150.0867  141.5635  154.0912 H   0  0  0  0  0  0  0  0  0  0  0  0
  149.6430  140.1259  154.9837 H   0  0  0  0  0  0  0  0  0  0  0  0
  147.9144  141.1599  157.1559 H   0  0  0  0  0  0  0  0  0  0  0  0
  145.5507  141.9165  157.2519 H   0  0  0  0  0  0  0  0  0  0  0  0
  144.4583  142.8565  155.2228 H   0  0  0  0  0  0  0  0  0  0  0  0
  145.7344  143.0381  153.0945 H   0  0  0  0  0  0  0  0  0  0  0  0
  148.0964  142.2842  152.9902 H   0  0  0  0  0  0  0  0  0  0  0  0
  151.0312  145.0441  158.5972 H   0  0  0  0  0  0  0  0  0  0  0  0
  152.7221  144.6189  160.3885 H   0  0  0  0  0  0  0  0  0  0  0  0
  153.8376  142.4265  160.5868 H   0  0  0  0  0  0  0  0  0  0  0  0
  153.3136  140.5686  159.0095 H   0  0  0  0  0  0  0  0  0  0  0  0
  149.7529  143.6857  156.3949 H   0  0  0  0  0  0  0  0  0  0  0  0
  1  2  1  0  0  0  0
  1 20  1  0  0  0  0
  2  3  1  0  0  0  0
  2 21  1  0  0  0  0
  2 22  1  0  0  0  0
  3  4  1  0  0  0  0
  3 23  1  0  0  0  0
  3 24  1  0  0  0  0
  4 19  1  0  0  0  0
  4  5  1  0  0  0  0
  5  6  1  0  0  0  0
  5 13  2  0  0  0  0
  6  7  1  0  0  0  0
  6 25  1  0  0  0  0
  6 26  1  0  0  0  0
  7 12  1  0  0  0  0
  7  8  2  0  0  0  0
  8  9  1  0  0  0  0
  8 27  1  0  0  0  0
  9 10  2  0  0  0  0
  9 28  1  0  0  0  0
 10 11  1  0  0  0  0
 10 29  1  0  0  0  0
 11 12  2  0  0  0  0
 11 30  1  0  0  0  0
 12 31  1  0  0  0  0
 13 14  1  0  0  0  0
 13 36  1  0  0  0  0
 14 19  2  0  0  0  0
 14 15  1  0  0  0  0
 15 16  2  0  0  0  0
 15 32  1  0  0  0  0
 16 17  1  0  0  0  0
 16 33  1  0  0  0  0
 17 18  2  0  0  0  0
 17 34  1  0  0  0  0
 18 19  1  0  0  0  0
 18 35  1  0  0  0  0
M  CHG  1  13   1
M  END
> <s_m_source_file>
AV-unprocessed.smi

> <i_m_source_file_index>
2633

> <i_lp_mmshare_version>
43012

> <i_f3d_flags>
0

> <s_epik_input>
W2NIXTFbY0hdW2NIXVtjSF1jKGMxMiluKFtDSDJdW0NIMl1bT0hdKWMobjIpW0NIMl1jM1tjSF1bY0hdW2NIXVtjSF1bY0hdMw==

> <s_epik_cmdline>
J2VwaWtfcHl0aG9uJywgJy1waCcsICc3LjAnLCAnLXRuJywgJzgnLCAnLW1hJywgJzIwMCcsICctbWV0YWxfYmluZGluZycsICctaW1hZScsICc8aW5maWxlLm1hZT4nLCAnLW9tYWUnLCAnPG91dGZpbGUubWFlPic=

> <r_epik_Ionization_Penalty>
1.35779

> <r_epik_Ionization_Penalty_Charging>
1.35779

> <r_epik_Ionization_Penalty_Neutral>
5.76693e-08

> <r_epik_State_Penalty>
1.43641

> <r_epik_Charging_Adjusted_Penalty>
2.79419

> <i_epik_Tot_Q>
1

> <i_epik_Tot_abs_Q>
1

> <r_epik_Metal_State_Penalty>
5.47429

> <b_epik_Metal_Only>
0

> <s_lp_Force_Field>
OPLS_2005

> <r_lp_Energy>
16.7782

> <b_lp_Chiralities_Consistent>
1

> <s_lp_Variant>
AV-unprocessed.smi:2633-2

> <Gold.Version>
5.8.1

> <Gold.Id.Protein>
6NUR|6NUR_protein|mol2

> <Gold.PLP.Fitness>
53.8411

> <Gold.PLP.PLP>
-46.7083

> <Gold.PLP.part.hbond>
-3.0000

> <Gold.PLP.part.metal>
0.0000

> <Gold.PLP.part.buried>
-5.3380

> <Gold.PLP.part.nonpolar>
-38.3050

> <Gold.PLP.part.repulsive>
0.0440

> <Gold.PLP.ligand.clash>
0.0000

> <Gold.PLP.ligand.torsion>
0.9435

> <Gold.PLP.Chemscore.Hbond>
3.0000

> <Gold.PLP.Chemscore.CHOScore>
0.0000

> <Gold.PLP.Chemscore.Metal>
0.0000

> <Gold.Chemscore.Hbonds>
donor molecule, donor type, donor heavy atom, donor atom, acceptor molecule, acceptor atom, score
      L1  H    13    36       P1  8028  2.00
      P1  H  7997  8009       L1     1  1.00

> <Gold.PLP.Chemscore.Internal.Correction>
0.0199

> <Gold.Rescore>
     Score         DG    S(hbond)    S(metal)    S(lipo)     H(rot)  DE(clash)    DE(int)     intcor
     19.40     -20.06       1.95        0.00     113.11       2.02       0.06       0.60       ----

> <Gold.Chemscore.Fitness>
19.4017

> <Gold.Chemscore.DG>
-20.0639

> <Gold.Chemscore.ZeroCoef>
-5.4800

> <Gold.Chemscore.Hbond>
1.9530

> <Gold.Chemscore.Metal>
0.0000

> <Gold.Chemscore.Lipo>
113.1134

> <Gold.Chemscore.Internal_Hbond>
0.0000

> <Gold.Chemscore.DEClash>
0.0589

> <Gold.Chemscore.DEInternal>
0.6033

> <Gold.Chemscore.Rot>
2.0209

> <Gold.Chemscore.Internal.Correction>
   9.000000E+99

> <Gold.Chemscore.Hbonds>
donor molecule, donor type, donor heavy atom, donor atom, acceptor molecule, acceptor atom, score
      L1  H    13    36       P1  8028  0.93
      P1  H  7997  8009       L1     1  0.95

> <Gold.Chemscore.Hbond.Weighted>
-6.5231

> <Gold.Chemscore.Metal.Weighted>
-0.0000

> <Gold.Chemscore.Lipo.Weighted>
-13.2343

> <Gold.Chemscore.Internal_Hbond.Weighted>
0.0000

> <Gold.Chemscore.DEClash.Weighted>
0.0589

> <Gold.Chemscore.DEInternal.Weighted>
0.6033

> <Gold.Chemscore.Rot.Weighted>
5.1735

> <Gold.Chemscore.Internal.Correction.Weighted>
   9.000000E+99

> <Gold.Protein.RotatedTorsions>
[ 6907 6896 6895 6894 ] final    4.14 input  -60.11 | X-H torsion
[ 7974 7965 7964 7962 ] final  -69.48 input  175.53 | X-H torsion
[ 8008 7997 7996 7995 ] final -135.53 input   59.86 | X-H torsion
[ 10167 10162 10161 10158 ] final  -14.28 input  -65.29 | X-H torsion
[ 10718 10713 10712 10709 ] final   62.05 input   66.30 | X-H torsion
[ 10763 10752 10751 10750 ] final  -55.50 input  -60.55 | X-H torsion
[ 11005 11000 10999 10996 ] final -163.07 input  -57.11 | X-H torsion

> <Gold.Protein.ActiveResidues>
 VAL166  LYS551  ARG553  GLY616  TRP617  ASP618  TYR619  PRO620  LYS621  CYS622 
 ASP623  PHE694  ASN695  SER759  ASP760  ASP761  ALA762  ILE779  LEU786  VAL792 
 PHE793  MET794  SER795  GLU796  ALA797  LYS798  CYS799  TRP800  GLU811  SER814 

> <Gold.Protein.RotatedAtoms>
  151.6365  135.1017  160.0132 H   0  0  0  0  0  0  0  0  0  0  0  0  # atno 6907 bound_to 6896
  152.4078  133.6912  159.6380 H   0  0  0  0  0  0  0  0  0  0  0  0  # atno 6908 bound_to 6896
  150.7971  133.8595  159.3269 H   0  0  0  0  0  0  0  0  0  0  0  0  # atno 6909 bound_to 6896
  145.7032  140.9108  143.0720 H   0  0  0  0  0  0  0  0  0  0  0  0  # atno 7974 bound_to 7965
  155.3802  140.0493  157.3044 H   0  0  0  0  0  0  0  0  0  0  0  0  # atno 8008 bound_to 7997
  154.5086  140.2183  155.9162 H   0  0  0  0  0  0  0  0  0  0  0  0  # atno 8009 bound_to 7997
  156.1556  140.3127  155.8726 H   0  0  0  0  0  0  0  0  0  0  0  0  # atno 8010 bound_to 7997
  140.7198  143.5338  150.9488 H   0  0  0  0  0  0  0  0  0  0  0  0  # atno 10167 bound_to 10162
  157.5873  130.9029  149.9539 H   0  0  0  0  0  0  0  0  0  0  0  0  # atno 10718 bound_to 10713
  154.1917  135.6426  153.5062 H   0  0  0  0  0  0  0  0  0  0  0  0  # atno 10763 bound_to 10752
  153.0033  135.5430  154.6408 H   0  0  0  0  0  0  0  0  0  0  0  0  # atno 10764 bound_to 10752
  154.5798  135.2924  155.0717 H   0  0  0  0  0  0  0  0  0  0  0  0  # atno 10765 bound_to 10752
  140.6022  134.4935  157.5206 H   0  0  0  0  0  0  0  0  0  0  0  0  # atno 11005 bound_to 11000
  144.6963  139.8975  143.7456 LP  0  0  0  0  0  0  0  0  0  0  0  0  # atno 17320 bound_to 7965
  146.0779  139.3767  143.0482 LP  0  0  0  0  0  0  0  0  0  0  0  0  # atno 17321 bound_to 7965
  139.9059  143.6779  152.3123 LP  0  0  0  0  0  0  0  0  0  0  0  0  # atno 17342 bound_to 10162
  139.7145  144.7614  151.1057 LP  0  0  0  0  0  0  0  0  0  0  0  0  # atno 17343 bound_to 10162
  156.0923  130.3662  150.0371 LP  0  0  0  0  0  0  0  0  0  0  0  0  # atno 17370 bound_to 10713
  156.8500  130.9455  151.3626 LP  0  0  0  0  0  0  0  0  0  0  0  0  # atno 17371 bound_to 10713
  139.9227  134.8116  156.1161 LP  0  0  0  0  0  0  0  0  0  0  0  0  # atno 17394 bound_to 11000
  141.0864  133.6732  156.2446 LP  0  0  0  0  0  0  0  0  0  0  0  0  # atno 17395 bound_to 11000

$$$$
