AV-unprocessed.smi:3311|AV-procd|sdf|12721|dock2
  -GOLD-   2272019 63D 1   1.00000     0.00000
 Structure written by MMmdl.
 44 45  0  0  0  0  0  0  0  0  2 V2000
  146.3882  138.2432  150.8020 C   0  0  0  0  0  0  0  0  0  0  0  0
  146.5226  138.4123  152.3263 C   0  0  2  0  0  0  0  0  0  0  0  0
  147.9311  138.7342  152.6456 N   0  3  0  0  0  0  0  0  0  0  0  0
  148.1704  139.1785  154.0364 C   0  0  0  0  0  0  0  0  0  0  0  0
  148.6023  140.6631  154.1121 C   0  0  0  0  0  0  0  0  0  0  0  0
  149.8066  140.7773  153.3771 O   0  0  0  0  0  0  0  0  0  0  0  0
  147.5668  141.6419  153.5055 C   0  0  0  0  0  0  0  0  0  0  0  0
  146.2983  141.7608  154.3686 C   0  0  0  0  0  0  0  0  0  0  0  0
  146.6435  142.1753  155.8075 C   0  0  0  0  0  0  0  0  0  0  0  0
  147.6651  141.2163  156.4385 C   0  0  0  0  0  0  0  0  0  0  0  0
  148.9261  141.0856  155.5646 C   0  0  0  0  0  0  0  0  0  0  0  0
  146.0547  137.1614  153.1189 C   0  0  1  0  0  0  0  0  0  0  0  0
  144.9998  137.4883  154.1933 C   0  0  0  0  0  0  0  0  0  0  0  0
  145.5566  136.1118  152.2386 N   0  0  0  0  0  0  0  0  0  0  0  0
  146.1557  134.9118  151.9140 C   0  0  0  0  0  0  0  0  0  0  0  0
  145.3165  134.2534  151.0614 C   0  0  0  0  0  0  0  0  0  0  0  0
  144.2112  135.1387  150.9238 C   0  0  0  0  0  0  0  0  0  0  0  0
  144.3563  136.2477  151.6302 N   0  0  0  0  0  0  0  0  0  0  0  0
  145.3503  138.1059  150.4979 H   0  0  0  0  0  0  0  0  0  0  0  0
  146.9558  137.3824  150.4470 H   0  0  0  0  0  0  0  0  0  0  0  0
  146.7590  139.1244  150.2774 H   0  0  0  0  0  0  0  0  0  0  0  0
  145.8932  139.2582  152.6087 H   0  0  0  0  0  0  0  0  0  0  0  0
  148.4980  137.9167  152.4691 H   0  0  0  0  0  0  0  0  0  0  0  0
  147.2593  139.0110  154.6107 H   0  0  0  0  0  0  0  0  0  0  0  0
  148.9385  138.5466  154.4847 H   0  0  0  0  0  0  0  0  0  0  0  0
  149.5982  140.7733  152.4547 H   0  0  0  0  0  0  0  0  0  0  0  0
  148.0152  142.6332  153.4184 H   0  0  0  0  0  0  0  0  0  0  0  0
  147.2984  141.3504  152.4898 H   0  0  0  0  0  0  0  0  0  0  0  0
  145.6203  142.4924  153.9283 H   0  0  0  0  0  0  0  0  0  0  0  0
  145.7592  140.8132  154.3760 H   0  0  0  0  0  0  0  0  0  0  0  0
  147.0488  143.1880  155.8069 H   0  0  0  0  0  0  0  0  0  0  0  0
  145.7378  142.2062  156.4137 H   0  0  0  0  0  0  0  0  0  0  0  0
  147.9415  141.5749  157.4305 H   0  0  0  0  0  0  0  0  0  0  0  0
  147.2078  140.2380  156.5880 H   0  0  0  0  0  0  0  0  0  0  0  0
  149.6214  140.3797  156.0212 H   0  0  0  0  0  0  0  0  0  0  0  0
  149.4385  142.0492  155.5580 H   0  0  0  0  0  0  0  0  0  0  0  0
  146.9242  136.7479  153.6325 H   0  0  0  0  0  0  0  0  0  0  0  0
  145.3982  138.1576  154.9557 H   0  0  0  0  0  0  0  0  0  0  0  0
  144.6691  136.5831  154.7034 H   0  0  0  0  0  0  0  0  0  0  0  0
  144.1196  137.9640  153.7592 H   0  0  0  0  0  0  0  0  0  0  0  0
  147.1193  134.6284  152.3111 H   0  0  0  0  0  0  0  0  0  0  0  0
  145.4678  133.2858  150.6064 H   0  0  0  0  0  0  0  0  0  0  0  0
  143.3142  135.0091  150.3362 H   0  0  0  0  0  0  0  0  0  0  0  0
  148.2359  139.4726  152.0276 H   0  0  0  0  0  0  0  0  0  0  0  0
  1  2  1  0  0  0  0
  1 19  1  0  0  0  0
  1 20  1  0  0  0  0
  1 21  1  0  0  0  0
  2  3  1  0  0  0  0
  2 12  1  0  0  0  0
  2 22  1  0  0  0  0
  3  4  1  0  0  0  0
  3 23  1  0  0  0  0
  3 44  1  0  0  0  0
  4  5  1  0  0  0  0
  4 24  1  0  0  0  0
  4 25  1  0  0  0  0
  5 11  1  0  0  0  0
  5  6  1  0  0  0  0
  5  7  1  0  0  0  0
  6 26  1  0  0  0  0
  7  8  1  0  0  0  0
  7 27  1  0  0  0  0
  7 28  1  0  0  0  0
  8  9  1  0  0  0  0
  8 29  1  0  0  0  0
  8 30  1  0  0  0  0
  9 10  1  0  0  0  0
  9 31  1  0  0  0  0
  9 32  1  0  0  0  0
 10 11  1  0  0  0  0
 10 33  1  0  0  0  0
 10 34  1  0  0  0  0
 11 35  1  0  0  0  0
 11 36  1  0  0  0  0
 12 13  1  0  0  0  0
 12 14  1  0  0  0  0
 12 37  1  0  0  0  0
 13 38  1  0  0  0  0
 13 39  1  0  0  0  0
 13 40  1  0  0  0  0
 14 18  1  0  0  0  0
 14 15  1  0  0  0  0
 15 16  2  0  0  0  0
 15 41  1  0  0  0  0
 16 17  1  0  0  0  0
 16 42  1  0  0  0  0
 17 18  2  0  0  0  0
 17 43  1  0  0  0  0
M  CHG  1   3   1
M  END
> <s_m_source_file>
AV-unprocessed.smi

> <i_m_source_file_index>
3311

> <i_lp_mmshare_version>
43012

> <i_f3d_flags>
0

> <s_epik_input>
bjFbY0hdW2NIXVtjSF1uMVtDQEBIXShbQ0gzXSlbQ0BIXShbQ0gzXSlbTkhdW0NIMl1DMihbT0hdKVtDSDJdW0NIMl1bQ0gyXVtDSDJdW0NIMl0y

> <s_epik_cmdline>
J2VwaWtfcHl0aG9uJywgJy1waCcsICc3LjAnLCAnLXRuJywgJzgnLCAnLW1hJywgJzIwMCcsICctbWV0YWxfYmluZGluZycsICctaW1hZScsICc8aW5maWxlLm1hZT4nLCAnLW9tYWUnLCAnPG91dGZpbGUubWFlPic=

> <r_lp_tautomer_probability>
1

> <r_epik_Ionization_Penalty>
0.0141403

> <r_epik_Ionization_Penalty_Charging>
0.0141276

> <r_epik_Ionization_Penalty_Neutral>
1.27139e-05

> <r_epik_State_Penalty>
0.0110334

> <r_epik_Charging_Adjusted_Penalty>
0.025161

> <i_epik_Tot_Q>
1

> <i_epik_Tot_abs_Q>
1

> <r_epik_Metal_State_Penalty>
0.0110573

> <b_epik_Metal_Only>
0

> <s_lp_Force_Field>
OPLS_2005

> <r_lp_Energy>
22.4961

> <b_lp_Chiralities_Consistent>
1

> <s_lp_Variant>
AV-unprocessed.smi:3311-3

> <Gold.Version>
5.8.1

> <Gold.Id.Protein>
6NUR|6NUR_protein|mol2

> <Gold.PLP.Fitness>
43.6952

> <Gold.PLP.PLP>
-29.7163

> <Gold.PLP.part.hbond>
-4.5712

> <Gold.PLP.part.metal>
0.0000

> <Gold.PLP.part.buried>
0.6634

> <Gold.PLP.part.nonpolar>
-27.2276

> <Gold.PLP.part.repulsive>
1.6688

> <Gold.PLP.ligand.clash>
0.0000

> <Gold.PLP.ligand.torsion>
2.0635

> <Gold.PLP.Chemscore.Hbond>
4.2640

> <Gold.PLP.Chemscore.CHOScore>
1.7191

> <Gold.PLP.Chemscore.Metal>
0.0000

> <Gold.Chemscore.Hbonds>
donor molecule, donor type, donor heavy atom, donor atom, acceptor molecule, acceptor atom, score
      L1  H     3    23       P1  7948  2.00
      L1  H     3    44       P1  7957  0.85
      L1  H     6    26       P1  7957  0.84
      P1  H  7989  7998       L1     6  0.30
      L1  C    15    41       P1  7948  0.71
      L1  C    17    43       P1 10186  1.00

> <Gold.PLP.Chemscore.Internal.Correction>
0.1567

> <Gold.Rescore>
     Score         DG    S(hbond)    S(metal)    S(lipo)     H(rot)  DE(clash)    DE(int)     intcor
     12.83     -18.93       2.94        0.00      77.88       2.14       2.79       3.31       ----

> <Gold.Chemscore.Fitness>
12.8319

> <Gold.Chemscore.DG>
-18.9325

> <Gold.Chemscore.ZeroCoef>
-5.4800

> <Gold.Chemscore.Hbond>
2.9415

> <Gold.Chemscore.Metal>
0.0000

> <Gold.Chemscore.Lipo>
77.8837

> <Gold.Chemscore.Internal_Hbond>
0.0000

> <Gold.Chemscore.DEClash>
2.7875

> <Gold.Chemscore.DEInternal>
3.3131

> <Gold.Chemscore.Rot>
2.1424

> <Gold.Chemscore.Internal.Correction>
   9.000000E+99

> <Gold.Chemscore.Hbonds>
donor molecule, donor type, donor heavy atom, donor atom, acceptor molecule, acceptor atom, score
      L1  H     3    23       P1  7948  0.99
      L1  H     3    44       P1  7957  0.85
      L1  H     6    26       P1  7957  0.78
      P1  H  7989  7998       L1     6  0.15

> <Gold.Chemscore.Hbond.Weighted>
-9.8247

> <Gold.Chemscore.Metal.Weighted>
-0.0000

> <Gold.Chemscore.Lipo.Weighted>
-9.1124

> <Gold.Chemscore.Internal_Hbond.Weighted>
0.0000

> <Gold.Chemscore.DEClash.Weighted>
2.7875

> <Gold.Chemscore.DEInternal.Weighted>
3.3131

> <Gold.Chemscore.Rot.Weighted>
5.4846

> <Gold.Chemscore.Internal.Correction.Weighted>
   9.000000E+99

> <Gold.Protein.RotatedTorsions>
[ 6907 6896 6895 6894 ] final  126.01 input  -60.11 | X-H torsion
[ 7974 7965 7964 7962 ] final  102.70 input  175.53 | X-H torsion
[ 8008 7997 7996 7995 ] final -160.57 input   59.86 | X-H torsion
[ 10167 10162 10161 10158 ] final  -60.66 input  -65.29 | X-H torsion
[ 10718 10713 10712 10709 ] final  -46.66 input   66.30 | X-H torsion
[ 10763 10752 10751 10750 ] final   50.05 input  -60.55 | X-H torsion
[ 11005 11000 10999 10996 ] final -171.56 input  -57.11 | X-H torsion

> <Gold.Protein.ActiveResidues>
 VAL166  LYS551  ARG553  GLY616  TRP617  ASP618  TYR619  PRO620  LYS621  CYS622 
 ASP623  PHE694  ASN695  SER759  ASP760  ASP761  ALA762  ILE779  LEU786  VAL792 
 PHE793  MET794  SER795  GLU796  ALA797  LYS798  CYS799  TRP800  GLU811  SER814 

> <Gold.Protein.RotatedAtoms>
  152.3941  133.6721  159.6261 H   0  0  0  0  0  0  0  0  0  0  0  0  # atno 6907 bound_to 6896
  150.7844  133.8904  159.3320 H   0  0  0  0  0  0  0  0  0  0  0  0  # atno 6908 bound_to 6896
  151.6684  135.0981  160.0244 H   0  0  0  0  0  0  0  0  0  0  0  0  # atno 6909 bound_to 6896
  145.3556  139.2429  143.3534 H   0  0  0  0  0  0  0  0  0  0  0  0  # atno 7974 bound_to 7965
  155.7795  140.0863  157.2067 H   0  0  0  0  0  0  0  0  0  0  0  0  # atno 8008 bound_to 7997
  154.3991  140.1510  156.3092 H   0  0  0  0  0  0  0  0  0  0  0  0  # atno 8009 bound_to 7997
  155.8668  140.3427  155.5796 H   0  0  0  0  0  0  0  0  0  0  0  0  # atno 8010 bound_to 7997
  140.6057  143.2373  151.5827 H   0  0  0  0  0  0  0  0  0  0  0  0  # atno 10167 bound_to 10162
  156.2161  130.4163  149.9052 H   0  0  0  0  0  0  0  0  0  0  0  0  # atno 10718 bound_to 10713
  152.9785  135.5892  154.4189 H   0  0  0  0  0  0  0  0  0  0  0  0  # atno 10763 bound_to 10752
  154.3815  135.2767  155.2210 H   0  0  0  0  0  0  0  0  0  0  0  0  # atno 10764 bound_to 10752
  154.4122  135.6079  153.6014 H   0  0  0  0  0  0  0  0  0  0  0  0  # atno 10765 bound_to 10752
  140.5069  134.5839  157.5006 H   0  0  0  0  0  0  0  0  0  0  0  0  # atno 11005 bound_to 11000
  146.2949  140.4181  142.8725 LP  0  0  0  0  0  0  0  0  0  0  0  0  # atno 17320 bound_to 7965
  144.8684  140.7239  143.6062 LP  0  0  0  0  0  0  0  0  0  0  0  0  # atno 17321 bound_to 7965
  139.5323  144.2880  152.1175 LP  0  0  0  0  0  0  0  0  0  0  0  0  # atno 17342 bound_to 10162
  140.2069  144.4602  150.6404 LP  0  0  0  0  0  0  0  0  0  0  0  0  # atno 17343 bound_to 10162
  156.6714  130.8822  151.3563 LP  0  0  0  0  0  0  0  0  0  0  0  0  # atno 17370 bound_to 10713
  157.7064  130.9389  150.0944 LP  0  0  0  0  0  0  0  0  0  0  0  0  # atno 17371 bound_to 10713
  139.9681  134.7339  156.0097 LP  0  0  0  0  0  0  0  0  0  0  0  0  # atno 17394 bound_to 11000
  141.1406  133.6565  156.3719 LP  0  0  0  0  0  0  0  0  0  0  0  0  # atno 17395 bound_to 11000

$$$$
