AV-unprocessed.smi:3032|AV-procd|sdf|11568|dock2
  -GOLD-   2272016533D 1   1.00000     0.00000
 Structure written by MMmdl.
 37 38  0  0  0  0  0  0  0  0  1 V2000
  154.5774  140.5892  161.0252 C   0  0  0  0  0  0  0  0  0  0  0  0
  153.4072  141.5221  160.6823 C   0  0  1  0  0  0  0  0  0  0  0  0
  153.2295  142.6152  161.7521 C   0  0  0  0  0  0  0  0  0  0  0  0
  152.0572  143.5493  161.4162 C   0  0  0  0  0  0  0  0  0  0  0  0
  152.2263  144.1837  160.0237 C   0  0  0  0  0  0  0  0  0  0  0  0
  152.4664  143.1509  158.8977 C   0  0  2  0  0  0  0  0  0  0  0  0
  151.1754  142.4373  158.4534 C   0  0  0  0  0  0  0  0  0  0  0  0
  150.2317  142.2915  159.2300 O   0  0  0  0  0  0  0  0  0  0  0  0
  151.1495  141.9895  157.1881 N   0  0  0  0  0  0  0  0  0  0  0  0
  150.0384  141.2702  156.5758 C   0  0  0  0  0  0  0  0  0  0  0  0
  149.6550  141.8763  155.2160 C   0  0  0  0  0  0  0  0  0  0  0  0
  148.2202  141.6461  154.8711 C   0  0  0  0  0  0  0  0  0  0  0  0
  147.1907  141.8696  155.6970 N   0  0  0  0  0  0  0  0  0  0  0  0
  146.0547  141.5424  154.9731 N   0  0  0  0  0  0  0  0  0  0  0  0
  146.5094  141.1580  153.7794 C   0  0  0  0  0  0  0  0  0  0  0  0
  147.8415  141.2054  153.6617 N   0  0  0  0  0  0  0  0  0  0  0  0
  153.5887  142.1591  159.2870 C   0  0  0  0  0  0  0  0  0  0  0  0
  148.4146  140.9687  152.8650 H   0  0  0  0  0  0  0  0  0  0  0  0
  155.5219  141.1329  161.0608 H   0  0  0  0  0  0  0  0  0  0  0  0
  154.6771  139.7962  160.2834 H   0  0  0  0  0  0  0  0  0  0  0  0
  154.4295  140.1145  161.9955 H   0  0  0  0  0  0  0  0  0  0  0  0
  152.5059  140.9093  160.6727 H   0  0  0  0  0  0  0  0  0  0  0  0
  153.0626  142.1589  162.7284 H   0  0  0  0  0  0  0  0  0  0  0  0
  154.1463  143.2001  161.8375 H   0  0  0  0  0  0  0  0  0  0  0  0
  151.1194  142.9971  161.4705 H   0  0  0  0  0  0  0  0  0  0  0  0
  151.9865  144.3345  162.1692 H   0  0  0  0  0  0  0  0  0  0  0  0
  151.3553  144.7986  159.7932 H   0  0  0  0  0  0  0  0  0  0  0  0
  153.0731  144.8707  160.0533 H   0  0  0  0  0  0  0  0  0  0  0  0
  152.8241  143.7094  158.0309 H   0  0  0  0  0  0  0  0  0  0  0  0
  151.9622  142.1519  156.6113 H   0  0  0  0  0  0  0  0  0  0  0  0
  150.2881  140.2131  156.4685 H   0  0  0  0  0  0  0  0  0  0  0  0
  149.1883  141.3203  157.2564 H   0  0  0  0  0  0  0  0  0  0  0  0
  149.8508  142.9494  155.2154 H   0  0  0  0  0  0  0  0  0  0  0  0
  150.2710  141.4487  154.4239 H   0  0  0  0  0  0  0  0  0  0  0  0
  145.8591  140.8381  152.9785 H   0  0  0  0  0  0  0  0  0  0  0  0
  154.5424  142.6878  159.2606 H   0  0  0  0  0  0  0  0  0  0  0  0
  153.6670  141.3745  158.5327 H   0  0  0  0  0  0  0  0  0  0  0  0
  1  2  1  0  0  0  0
  1 19  1  0  0  0  0
  1 20  1  0  0  0  0
  1 21  1  0  0  0  0
  2 17  1  0  0  0  0
  2  3  1  0  0  0  0
  2 22  1  0  0  0  0
  3  4  1  0  0  0  0
  3 23  1  0  0  0  0
  3 24  1  0  0  0  0
  4  5  1  0  0  0  0
  4 25  1  0  0  0  0
  4 26  1  0  0  0  0
  5  6  1  0  0  0  0
  5 27  1  0  0  0  0
  5 28  1  0  0  0  0
  6  7  1  0  0  0  0
  6 17  1  0  0  0  0
  6 29  1  0  0  0  0
  7  8  2  0  0  0  0
  7  9  1  0  0  0  0
  9 10  1  0  0  0  0
  9 30  1  0  0  0  0
 10 11  1  0  0  0  0
 10 31  1  0  0  0  0
 10 32  1  0  0  0  0
 11 12  1  0  0  0  0
 11 33  1  0  0  0  0
 11 34  1  0  0  0  0
 12 16  1  0  0  0  0
 12 13  2  0  0  0  0
 13 14  1  0  0  0  0
 14 15  2  0  0  0  0
 15 16  1  0  0  0  0
 15 35  1  0  0  0  0
 16 18  1  0  0  0  0
 17 36  1  0  0  0  0
 17 37  1  0  0  0  0
M  END
> <s_m_source_file>
AV-unprocessed.smi

> <i_m_source_file_index>
3032

> <i_lp_mmshare_version>
43012

> <i_f3d_flags>
0

> <s_epik_input>
W0NIM11bQ0BASF0xW0NIMl1bQ0gyXVtDSDJdW0NASF0oW0NIMl0xKUMoPU8pW05IXVtDSDJdW0NIMl1jMm5uW2NIXVtuSF0y

> <s_epik_cmdline>
J2VwaWtfcHl0aG9uJywgJy1waCcsICc3LjAnLCAnLXRuJywgJzgnLCAnLW1hJywgJzIwMCcsICctbWV0YWxfYmluZGluZycsICctaW1hZScsICc8aW5maWxlLm1hZT4nLCAnLW9tYWUnLCAnPG91dGZpbGUubWFlPic=

> <r_lp_tautomer_probability>
0.0517155

> <r_epik_Ionization_Penalty>
0.00149837

> <r_epik_Ionization_Penalty_Charging>
0

> <r_epik_Ionization_Penalty_Neutral>
0.00149837

> <r_epik_State_Penalty>
2.1109

> <r_epik_Charging_Adjusted_Penalty>
2.1109

> <i_epik_Tot_Q>
0

> <i_epik_Tot_abs_Q>
0

> <r_epik_Metal_State_Penalty>
2.23635

> <b_epik_Metal_Only>
0

> <s_lp_Force_Field>
OPLS_2005

> <r_lp_Energy>
9.23597

> <b_lp_Chiralities_Consistent>
1

> <s_lp_Variant>
AV-unprocessed.smi:3032-12

> <Gold.Version>
5.8.1

> <Gold.Id.Protein>
6NUR|6NUR_protein|mol2

> <Gold.PLP.Fitness>
43.9068

> <Gold.PLP.PLP>
-39.8733

> <Gold.PLP.part.hbond>
-2.0000

> <Gold.PLP.part.metal>
0.0000

> <Gold.PLP.part.buried>
-5.1164

> <Gold.PLP.part.nonpolar>
-33.6296

> <Gold.PLP.part.repulsive>
0.5600

> <Gold.PLP.ligand.clash>
0.0000

> <Gold.PLP.ligand.torsion>
1.0153

> <Gold.PLP.Chemscore.Hbond>
1.0000

> <Gold.PLP.Chemscore.CHOScore>
1.0000

> <Gold.PLP.Chemscore.Metal>
0.0000

> <Gold.Chemscore.Hbonds>
donor molecule, donor type, donor heavy atom, donor atom, acceptor molecule, acceptor atom, score
      L1  H    16    18       P1  7957  0.41
      L1  C    15    35       P1 10175  1.00

> <Gold.PLP.Chemscore.Internal.Correction>
0.0640

> <Gold.Rescore>
     Score         DG    S(hbond)    S(metal)    S(lipo)     H(rot)  DE(clash)    DE(int)     intcor
     13.14     -13.83       0.99        0.00      92.36       2.25       0.04       0.65       ----

> <Gold.Chemscore.Fitness>
13.1437

> <Gold.Chemscore.DG>
-13.8333

> <Gold.Chemscore.ZeroCoef>
-5.4800

> <Gold.Chemscore.Hbond>
0.9903

> <Gold.Chemscore.Metal>
0.0000

> <Gold.Chemscore.Lipo>
92.3587

> <Gold.Chemscore.Internal_Hbond>
0.0000

> <Gold.Chemscore.DEClash>
0.0354

> <Gold.Chemscore.DEInternal>
0.6542

> <Gold.Chemscore.Rot>
2.2501

> <Gold.Chemscore.Internal.Correction>
   9.000000E+99

> <Gold.Chemscore.Hbonds>
donor molecule, donor type, donor heavy atom, donor atom, acceptor molecule, acceptor atom, score
      L1  H    16    18       P1  7957  0.41

> <Gold.Chemscore.Hbond.Weighted>
-3.3076

> <Gold.Chemscore.Metal.Weighted>
-0.0000

> <Gold.Chemscore.Lipo.Weighted>
-10.8060

> <Gold.Chemscore.Internal_Hbond.Weighted>
0.0000

> <Gold.Chemscore.DEClash.Weighted>
0.0354

> <Gold.Chemscore.DEInternal.Weighted>
0.6542

> <Gold.Chemscore.Rot.Weighted>
5.7603

> <Gold.Chemscore.Internal.Correction.Weighted>
   9.000000E+99

> <Gold.Protein.RotatedTorsions>
[ 6907 6896 6895 6894 ] final  115.33 input  -60.11 | X-H torsion
[ 7974 7965 7964 7962 ] final   35.33 input  175.53 | X-H torsion
[ 8008 7997 7996 7995 ] final   11.24 input   59.86 | X-H torsion
[ 10167 10162 10161 10158 ] final  -33.59 input  -65.29 | X-H torsion
[ 10718 10713 10712 10709 ] final   35.59 input   66.30 | X-H torsion
[ 10763 10752 10751 10750 ] final  -54.79 input  -60.55 | X-H torsion
[ 11005 11000 10999 10996 ] final   63.68 input  -57.11 | X-H torsion

> <Gold.Protein.ActiveResidues>
 VAL166  LYS551  ARG553  GLY616  TRP617  ASP618  TYR619  PRO620  LYS621  CYS622 
 ASP623  PHE694  ASN695  SER759  ASP760  ASP761  ALA762  ILE779  LEU786  VAL792 
 PHE793  MET794  SER795  GLU796  ALA797  LYS798  CYS799  TRP800  GLU811  SER814 

> <Gold.Protein.RotatedAtoms>
  152.4748  133.8113  159.7004 H   0  0  0  0  0  0  0  0  0  0  0  0  # atno 6907 bound_to 6896
  150.8758  133.7431  159.2953 H   0  0  0  0  0  0  0  0  0  0  0  0  # atno 6908 bound_to 6896
  151.4951  135.1063  159.9866 H   0  0  0  0  0  0  0  0  0  0  0  0  # atno 6909 bound_to 6896
  146.1290  139.6156  142.9239 H   0  0  0  0  0  0  0  0  0  0  0  0  # atno 7974 bound_to 7965
  154.8043  140.2857  155.5899 H   0  0  0  0  0  0  0  0  0  0  0  0  # atno 8008 bound_to 7997
  156.2981  140.2580  156.2847 H   0  0  0  0  0  0  0  0  0  0  0  0  # atno 8009 bound_to 7997
  154.9522  140.0379  157.2139 H   0  0  0  0  0  0  0  0  0  0  0  0  # atno 8010 bound_to 7997
  140.7201  143.3609  151.1965 H   0  0  0  0  0  0  0  0  0  0  0  0  # atno 10167 bound_to 10162
  157.3246  130.7466  149.6807 H   0  0  0  0  0  0  0  0  0  0  0  0  # atno 10718 bound_to 10713
  154.1805  135.6444  153.5033 H   0  0  0  0  0  0  0  0  0  0  0  0  # atno 10763 bound_to 10752
  153.0060  135.5405  154.6519 H   0  0  0  0  0  0  0  0  0  0  0  0  # atno 10764 bound_to 10752
  154.5882  135.2931  155.0635 H   0  0  0  0  0  0  0  0  0  0  0  0  # atno 10765 bound_to 10752
  140.0008  134.6445  155.9933 H   0  0  0  0  0  0  0  0  0  0  0  0  # atno 11005 bound_to 11000
  145.5301  141.0427  143.2387 LP  0  0  0  0  0  0  0  0  0  0  0  0  # atno 17320 bound_to 7965
  144.7672  139.6819  143.7210 LP  0  0  0  0  0  0  0  0  0  0  0  0  # atno 17321 bound_to 7965
  139.7160  143.9299  152.2967 LP  0  0  0  0  0  0  0  0  0  0  0  0  # atno 17342 bound_to 10162
  139.9040  144.6895  150.8634 LP  0  0  0  0  0  0  0  0  0  0  0  0  # atno 17343 bound_to 10162
  155.9689  130.4213  150.4463 LP  0  0  0  0  0  0  0  0  0  0  0  0  # atno 17370 bound_to 10713
  157.2485  131.0541  151.2394 LP  0  0  0  0  0  0  0  0  0  0  0  0  # atno 17371 bound_to 10713
  141.1640  133.6537  156.4417 LP  0  0  0  0  0  0  0  0  0  0  0  0  # atno 17394 bound_to 11000
  140.4731  134.6735  157.5138 LP  0  0  0  0  0  0  0  0  0  0  0  0  # atno 17395 bound_to 11000

$$$$
