AV-unprocessed.smi:283|AV-procd|sdf|2129|dock4
  -GOLD-   2262021443D 1   1.00000     0.00000
 Structure written by MMmdl.
 48 51  0  0  0  0  0  0  0  0  1 V2000
  148.9790  142.1840  158.3920 C   0  0  0  0  0  0  0  0  0  0  0  0
  150.2429  141.8774  157.5772 C   0  0  2  0  0  0  0  0  0  0  0  0
  150.0230  140.6885  156.7561 N   0  0  0  0  0  0  0  0  0  0  0  0
  149.0115  140.6337  155.8614 C   0  0  0  0  0  0  0  0  0  0  0  0
  148.4028  141.8137  155.5949 N   0  0  0  0  0  0  0  0  0  0  0  0
  147.3763  141.8615  154.7417 C   0  0  0  0  0  0  0  0  0  0  0  0
  146.8159  140.8648  154.0546 N   0  0  0  0  0  0  0  0  0  0  0  0
  147.4339  139.6738  154.3038 C   0  0  0  0  0  0  0  0  0  0  0  0
  148.5336  139.4718  155.1861 C   0  0  0  0  0  0  0  0  0  0  0  0
  148.8909  138.1293  155.1691 N   0  0  0  0  0  0  0  0  0  0  0  0
  148.0414  137.5764  154.3484 C   0  0  0  0  0  0  0  0  0  0  0  0
  147.1346  138.4388  153.7672 N   0  0  0  0  0  0  0  0  0  0  0  0
  146.0136  138.1534  152.8096 C   0  0  2  0  0  0  0  0  0  0  0  0
  145.0782  137.3650  153.4797 O   0  0  0  0  0  0  0  0  0  0  0  0
  145.2934  135.9936  153.1691 C   0  0  1  0  0  0  0  0  0  0  0  0
  144.0556  135.1434  153.5086 C   0  0  0  0  0  0  0  0  0  0  0  0
  144.2868  133.7923  153.1704 O   0  0  0  0  0  0  0  0  0  0  0  0
  145.6731  136.0573  151.6823 C   0  0  1  0  0  0  0  0  0  0  0  0
  144.5092  136.0916  150.8715 O   0  0  0  0  0  0  0  0  0  0  0  0
  146.4986  137.3454  151.5900 C   0  0  1  0  0  0  0  0  0  0  0  0
  146.3149  138.0321  150.3660 O   0  0  0  0  0  0  0  0  0  0  0  0
  151.4645  141.8037  158.4982 C   0  0  0  0  0  0  0  0  0  0  0  0
  151.8986  140.5525  158.9955 C   0  0  0  0  0  0  0  0  0  0  0  0
  153.0225  140.4644  159.8377 C   0  0  0  0  0  0  0  0  0  0  0  0
  153.7207  141.6296  160.2014 C   0  0  0  0  0  0  0  0  0  0  0  0
  153.2892  142.8815  159.7263 C   0  0  0  0  0  0  0  0  0  0  0  0
  152.1646  142.9755  158.8821 C   0  0  0  0  0  0  0  0  0  0  0  0
  151.6722  144.5424  158.3413 Cl  0  0  0  0  0  0  0  0  0  0  0  0
  145.5885  139.1247  152.5558 H   0  0  0  0  0  0  0  0  0  0  0  0
  146.1523  135.6257  153.7307 H   0  0  0  0  0  0  0  0  0  0  0  0
  146.2591  135.1868  151.3856 H   0  0  0  0  0  0  0  0  0  0  0  0
  147.5589  137.1144  151.6881 H   0  0  0  0  0  0  0  0  0  0  0  0
  149.0860  143.1173  158.9455 H   0  0  0  0  0  0  0  0  0  0  0  0
  148.7686  141.3925  159.1123 H   0  0  0  0  0  0  0  0  0  0  0  0
  148.1081  142.2860  157.7437 H   0  0  0  0  0  0  0  0  0  0  0  0
  150.3735  142.7029  156.8799 H   0  0  0  0  0  0  0  0  0  0  0  0
  150.8151  140.0652  156.6991 H   0  0  0  0  0  0  0  0  0  0  0  0
  146.9402  142.8378  154.5893 H   0  0  0  0  0  0  0  0  0  0  0  0
  148.0686  136.5164  154.1454 H   0  0  0  0  0  0  0  0  0  0  0  0
  143.7896  135.2266  154.5628 H   0  0  0  0  0  0  0  0  0  0  0  0
  143.1970  135.4818  152.9276 H   0  0  0  0  0  0  0  0  0  0  0  0
  143.8141  133.2441  153.7778 H   0  0  0  0  0  0  0  0  0  0  0  0
  144.4126  136.9650  150.5236 H   0  0  0  0  0  0  0  0  0  0  0  0
  145.3886  138.0785  150.1838 H   0  0  0  0  0  0  0  0  0  0  0  0
  151.3722  139.6476  158.7302 H   0  0  0  0  0  0  0  0  0  0  0  0
  153.3474  139.5024  160.2056 H   0  0  0  0  0  0  0  0  0  0  0  0
  154.5831  141.5637  160.8484 H   0  0  0  0  0  0  0  0  0  0  0  0
  153.8231  143.7753  160.0139 H   0  0  0  0  0  0  0  0  0  0  0  0
  1  2  1  0  0  0  0
  1 33  1  0  0  0  0
  1 34  1  0  0  0  0
  1 35  1  0  0  0  0
  2  3  1  0  0  0  0
  2 22  1  0  0  0  0
  2 36  1  0  0  0  0
  3  4  1  0  0  0  0
  3 37  1  0  0  0  0
  4  9  1  0  0  0  0
  4  5  2  0  0  0  0
  5  6  1  0  0  0  0
  6  7  2  0  0  0  0
  6 38  1  0  0  0  0
  7  8  1  0  0  0  0
  8 12  1  0  0  0  0
  8  9  2  0  0  0  0
  9 10  1  0  0  0  0
 10 11  2  0  0  0  0
 11 12  1  0  0  0  0
 11 39  1  0  0  0  0
 12 13  1  0  0  0  0
 13 29  1  0  0  0  0
 13 20  1  0  0  0  0
 13 14  1  0  0  0  0
 14 15  1  0  0  0  0
 15 30  1  0  0  0  0
 15 16  1  0  0  0  0
 15 18  1  0  0  0  0
 16 17  1  0  0  0  0
 16 40  1  0  0  0  0
 16 41  1  0  0  0  0
 17 42  1  0  0  0  0
 18 31  1  0  0  0  0
 18 19  1  0  0  0  0
 18 20  1  0  0  0  0
 19 43  1  0  0  0  0
 20 32  1  0  0  0  0
 20 21  1  0  0  0  0
 21 44  1  0  0  0  0
 22 27  1  0  0  0  0
 22 23  2  0  0  0  0
 23 24  1  0  0  0  0
 23 45  1  0  0  0  0
 24 25  2  0  0  0  0
 24 46  1  0  0  0  0
 25 26  1  0  0  0  0
 25 47  1  0  0  0  0
 26 27  2  0  0  0  0
 26 48  1  0  0  0  0
 27 28  1  0  0  0  0
M  END
> <s_m_source_file>
AV-unprocessed.smi

> <i_m_source_file_index>
283

> <i_lp_mmshare_version>
43012

> <i_f3d_flags>
0

> <s_epik_input>
Q2xjMVtjSF1bY0hdW2NIXVtjSF1jMVtDQEhdKFtDSDNdKVtOSF1jKG5bY0hdbjIpYyhjMjMpbltjSF1uM1tDQEBIXTRPW0NASF0oW0NIMl1bT0hdKVtDQEBIXShbT0hdKVtDQEhdNFtPSF0=

> <s_epik_cmdline>
J2VwaWtfcHl0aG9uJywgJy1waCcsICc3LjAnLCAnLXRuJywgJzgnLCAnLW1hJywgJzIwMCcsICctbWV0YWxfYmluZGluZycsICctaW1hZScsICc8aW5maWxlLm1hZT4nLCAnLW9tYWUnLCAnPG91dGZpbGUubWFlPic=

> <r_lp_tautomer_probability>
1

> <r_epik_Ionization_Penalty>
0.000266407

> <r_epik_Ionization_Penalty_Charging>
0

> <r_epik_Ionization_Penalty_Neutral>
0.000266407

> <r_epik_State_Penalty>
-0

> <r_epik_Charging_Adjusted_Penalty>
0

> <i_epik_Tot_Q>
0

> <i_epik_Tot_abs_Q>
0

> <r_epik_Metal_State_Penalty>
-0

> <b_epik_Metal_Only>
0

> <s_epik_Chemistry_Notes>
This compound contains an acetal/aminal-like group ( X-CH(R)-Y where X, Y are N, S, or O) that may be acid/base labile, releasing an aldehyde.

> <s_lp_Force_Field>
OPLS_2005

> <r_lp_Energy>
46.6771

> <b_lp_Chiralities_Consistent>
1

> <s_lp_Variant>
AV-unprocessed.smi:283-5

> <Gold.Version>
5.8.1

> <Gold.Id.Protein>
6NUR|6NUR_protein|mol2

> <Gold.PLP.Fitness>
52.1215

> <Gold.PLP.PLP>
-40.6680

> <Gold.PLP.part.hbond>
-4.0000

> <Gold.PLP.part.metal>
0.0000

> <Gold.PLP.part.buried>
-4.5797

> <Gold.PLP.part.nonpolar>
-35.5239

> <Gold.PLP.part.repulsive>
2.0342

> <Gold.PLP.ligand.clash>
0.0000

> <Gold.PLP.ligand.torsion>
0.8927

> <Gold.PLP.Chemscore.Hbond>
3.8056

> <Gold.PLP.Chemscore.CHOScore>
0.5617

> <Gold.PLP.Chemscore.Metal>
0.0000

> <Gold.Chemscore.Hbonds>
donor molecule, donor type, donor heavy atom, donor atom, acceptor molecule, acceptor atom, score
      L1  H    17    42       P1 10957  0.76
      L1  H    19    43       P1 10171  1.00
      L1  H    21    44       P1 10171  1.00
      P1  H  7954  7966       L1    21  0.57
      L1  C     6    38       P1  8028  0.09
      L1  C    11    39       P1  7948  0.55

> <Gold.PLP.Chemscore.Internal.Correction>
0.1369

> <Gold.Rescore>
     Score         DG    S(hbond)    S(metal)    S(lipo)     H(rot)  DE(clash)    DE(int)     intcor
     13.37     -17.95       3.31        0.00     101.87       4.10       2.50       2.08       ----

> <Gold.Chemscore.Fitness>
13.3677

> <Gold.Chemscore.DG>
-17.9547

> <Gold.Chemscore.ZeroCoef>
-5.4800

> <Gold.Chemscore.Hbond>
3.3064

> <Gold.Chemscore.Metal>
0.0000

> <Gold.Chemscore.Lipo>
101.8723

> <Gold.Chemscore.Internal_Hbond>
0.0000

> <Gold.Chemscore.DEClash>
2.5039

> <Gold.Chemscore.DEInternal>
2.0831

> <Gold.Chemscore.Rot>
4.0968

> <Gold.Chemscore.Internal.Correction>
   9.000000E+99

> <Gold.Chemscore.Hbonds>
donor molecule, donor type, donor heavy atom, donor atom, acceptor molecule, acceptor atom, score
      L1  H    17    42       P1 10957  0.76
      L1  H    19    43       P1 10171  1.00
      L1  H    21    44       P1 10171  0.99
      P1  H  7954  7966       L1    21  0.06

> <Gold.Chemscore.Hbond.Weighted>
-11.0435

> <Gold.Chemscore.Metal.Weighted>
-0.0000

> <Gold.Chemscore.Lipo.Weighted>
-11.9191

> <Gold.Chemscore.Internal_Hbond.Weighted>
0.0000

> <Gold.Chemscore.DEClash.Weighted>
2.5039

> <Gold.Chemscore.DEInternal.Weighted>
2.0831

> <Gold.Chemscore.Rot.Weighted>
10.4879

> <Gold.Chemscore.Internal.Correction.Weighted>
   9.000000E+99

> <Gold.Protein.RotatedTorsions>
[ 6907 6896 6895 6894 ] final   98.14 input  -60.11 | X-H torsion
[ 7974 7965 7964 7962 ] final  -69.59 input  175.53 | X-H torsion
[ 8008 7997 7996 7995 ] final  -59.35 input   59.86 | X-H torsion
[ 10167 10162 10161 10158 ] final   23.70 input  -65.29 | X-H torsion
[ 10718 10713 10712 10709 ] final   62.47 input   66.30 | X-H torsion
[ 10763 10752 10751 10750 ] final   23.96 input  -60.55 | X-H torsion
[ 11005 11000 10999 10996 ] final -177.17 input  -57.11 | X-H torsion

> <Gold.Protein.ActiveResidues>
 VAL166  LYS551  ARG553  GLY616  TRP617  ASP618  TYR619  PRO620  LYS621  CYS622 
 ASP623  PHE694  ASN695  SER759  ASP760  ASP761  ALA762  ILE779  LEU786  VAL792 
 PHE793  MET794  SER795  GLU796  ALA797  LYS798  CYS799  TRP800  GLU811  SER814 

> <Gold.Protein.RotatedAtoms>
  152.5413  134.0626  159.8158 H   0  0  0  0  0  0  0  0  0  0  0  0  # atno 6907 bound_to 6896
  151.0751  133.5427  159.2631 H   0  0  0  0  0  0  0  0  0  0  0  0  # atno 6908 bound_to 6896
  151.2275  135.0550  159.9028 H   0  0  0  0  0  0  0  0  0  0  0  0  # atno 6909 bound_to 6896
  145.7018  140.9113  143.0727 H   0  0  0  0  0  0  0  0  0  0  0  0  # atno 7974 bound_to 7965
  154.4349  140.1063  156.6102 H   0  0  0  0  0  0  0  0  0  0  0  0  # atno 8008 bound_to 7997
  155.5818  140.3491  155.4523 H   0  0  0  0  0  0  0  0  0  0  0  0  # atno 8009 bound_to 7997
  156.0313  140.1261  157.0244 H   0  0  0  0  0  0  0  0  0  0  0  0  # atno 8010 bound_to 7997
  140.5248  143.9942  150.6435 H   0  0  0  0  0  0  0  0  0  0  0  0  # atno 10167 bound_to 10162
  157.5903  130.9052  149.9592 H   0  0  0  0  0  0  0  0  0  0  0  0  # atno 10718 bound_to 10713
  153.0799  135.6615  154.0067 H   0  0  0  0  0  0  0  0  0  0  0  0  # atno 10763 bound_to 10752
  153.9691  135.2966  155.3430 H   0  0  0  0  0  0  0  0  0  0  0  0  # atno 10764 bound_to 10752
  154.7196  135.5170  153.8862 H   0  0  0  0  0  0  0  0  0  0  0  0  # atno 10765 bound_to 10752
  140.4439  134.6406  157.4770 H   0  0  0  0  0  0  0  0  0  0  0  0  # atno 11005 bound_to 11000
  144.6966  139.8958  143.7456 LP  0  0  0  0  0  0  0  0  0  0  0  0  # atno 17320 bound_to 7965
  146.0791  139.3778  143.0476 LP  0  0  0  0  0  0  0  0  0  0  0  0  # atno 17321 bound_to 7965
  140.3301  143.3083  152.0696 LP  0  0  0  0  0  0  0  0  0  0  0  0  # atno 17342 bound_to 10162
  139.4934  144.6515  151.6665 LP  0  0  0  0  0  0  0  0  0  0  0  0  # atno 17343 bound_to 10162
  156.0957  130.3659  150.0311 LP  0  0  0  0  0  0  0  0  0  0  0  0  # atno 17370 bound_to 10713
  156.8435  130.9434  151.3630 LP  0  0  0  0  0  0  0  0  0  0  0  0  # atno 17371 bound_to 10713
  140.0051  134.6776  155.9467 LP  0  0  0  0  0  0  0  0  0  0  0  0  # atno 17394 bound_to 11000
  141.1694  133.6537  156.4595 LP  0  0  0  0  0  0  0  0  0  0  0  0  # atno 17395 bound_to 11000

$$$$
