AV-unprocessed.smi:828|AV-procd|sdf|3862|dock2
  -GOLD-   22720 1313D 1   1.00000     0.00000
 Structure written by MMmdl.
 34 35  0  0  0  0  0  0  0  0  3 V2000
  152.4419  140.6155  158.1136 C   0  0  0  0  0  0  0  0  0  0  0  0
  151.8111  140.1210  156.8573 C   0  0  0  0  0  0  0  0  0  0  0  0
  152.5168  139.8370  155.7604 N   0  0  0  0  0  0  0  0  0  0  0  0
  151.7118  139.3942  154.7209 N   0  0  0  0  0  0  0  0  0  0  0  0
  150.4129  139.3418  155.0474 C   0  0  0  0  0  0  0  0  0  0  0  0
  149.4689  138.9430  154.1789 N   0  5  0  0  0  0  0  0  0  0  0  0
  148.2305  138.6331  154.6228 C   0  0  0  0  0  0  0  0  0  0  0  0
  147.6620  139.1199  155.6027 O   0  0  0  0  0  0  0  0  0  0  0  0
  147.6100  137.7070  153.8784 N   0  0  0  0  0  0  0  0  0  0  0  0
  146.2639  137.1857  154.0936 C   0  0  0  0  0  0  0  0  0  0  0  0
  145.4698  137.0897  152.7762 C   0  0  2  0  0  0  0  0  0  0  0  0
  144.7974  135.7332  152.5369 C   0  0  0  0  0  0  0  0  0  0  0  0
  144.6130  135.7063  151.0270 C   0  0  0  0  0  0  0  0  0  0  0  0
  145.8642  136.4156  150.5045 C   0  0  0  0  0  0  0  0  0  0  0  0
  146.3429  137.2975  151.5962 N   0  3  1  0  0  0  0  0  0  0  0  0
  146.4980  138.7134  151.1962 C   0  0  0  0  0  0  0  0  0  0  0  0
  150.0816  139.8640  156.6992 S   0  0  0  0  0  0  0  0  0  0  0  0
  153.0410  139.8251  158.5659 H   0  0  0  0  0  0  0  0  0  0  0  0
  151.6774  140.9267  158.8256 H   0  0  0  0  0  0  0  0  0  0  0  0
  153.0870  141.4679  157.8996 H   0  0  0  0  0  0  0  0  0  0  0  0
  148.1217  137.3353  153.0910 H   0  0  0  0  0  0  0  0  0  0  0  0
  146.3683  136.1948  154.5354 H   0  0  0  0  0  0  0  0  0  0  0  0
  145.7223  137.7865  154.8261 H   0  0  0  0  0  0  0  0  0  0  0  0
  144.6894  137.8533  152.7675 H   0  0  0  0  0  0  0  0  0  0  0  0
  145.4598  134.9201  152.8376 H   0  0  0  0  0  0  0  0  0  0  0  0
  143.8584  135.6218  153.0804 H   0  0  0  0  0  0  0  0  0  0  0  0
  144.4994  134.6970  150.6298 H   0  0  0  0  0  0  0  0  0  0  0  0
  143.7232  136.2765  150.7566 H   0  0  0  0  0  0  0  0  0  0  0  0
  146.6481  135.6885  150.2904 H   0  0  0  0  0  0  0  0  0  0  0  0
  145.6578  136.9569  149.5799 H   0  0  0  0  0  0  0  0  0  0  0  0
  145.5429  139.1427  150.8912 H   0  0  0  0  0  0  0  0  0  0  0  0
  147.1938  138.7980  150.3609 H   0  0  0  0  0  0  0  0  0  0  0  0
  146.8929  139.3068  152.0210 H   0  0  0  0  0  0  0  0  0  0  0  0
  147.2577  136.9541  151.8526 H   0  0  0  0  0  0  0  0  0  0  0  0
  1  2  1  0  0  0  0
  1 18  1  0  0  0  0
  1 19  1  0  0  0  0
  1 20  1  0  0  0  0
  2 17  1  0  0  0  0
  2  3  2  0  0  0  0
  3  4  1  0  0  0  0
  4  5  2  0  0  0  0
  5  6  1  0  0  0  0
  5 17  1  0  0  0  0
  6  7  1  0  0  0  0
  7  8  2  0  0  0  0
  7  9  1  0  0  0  0
  9 10  1  0  0  0  0
  9 21  1  0  0  0  0
 10 11  1  0  0  0  0
 10 22  1  0  0  0  0
 10 23  1  0  0  0  0
 11 15  1  0  0  0  0
 11 12  1  0  0  0  0
 11 24  1  0  0  0  0
 12 13  1  0  0  0  0
 12 25  1  0  0  0  0
 12 26  1  0  0  0  0
 13 14  1  0  0  0  0
 13 27  1  0  0  0  0
 13 28  1  0  0  0  0
 14 15  1  0  0  0  0
 14 29  1  0  0  0  0
 14 30  1  0  0  0  0
 15 16  1  0  0  0  0
 15 34  1  0  0  0  0
 16 31  1  0  0  0  0
 16 32  1  0  0  0  0
 16 33  1  0  0  0  0
M  CHG  1   6  -1
M  CHG  1  15   1
M  END
> <s_m_source_file>
AV-unprocessed.smi

> <i_m_source_file_index>
828

> <i_lp_mmshare_version>
43012

> <i_f3d_flags>
0

> <s_epik_input>
W0NIM11jMW5uYyhzMSlbTkhdQyg9TylbTkhdW0NIMl1bQ0BASF0yW0NIMl1bQ0gyXVtDSDJdTjJbQ0gzXQ==

> <s_epik_cmdline>
J2VwaWtfcHl0aG9uJywgJy1waCcsICc3LjAnLCAnLXRuJywgJzgnLCAnLW1hJywgJzIwMCcsICctbWV0YWxfYmluZGluZycsICctaW1hZScsICc8aW5maWxlLm1hZT4nLCAnLW9tYWUnLCAnPG91dGZpbGUubWFlPic=

> <r_lp_tautomer_probability>
1

> <r_epik_Ionization_Penalty>
3.94379

> <r_epik_Ionization_Penalty_Charging>
3.83377

> <r_epik_Ionization_Penalty_Neutral>
0.110023

> <r_epik_State_Penalty>
3.83036

> <r_epik_Charging_Adjusted_Penalty>
7.66413

> <i_epik_Tot_Q>
0

> <i_epik_Tot_abs_Q>
2

> <r_epik_Metal_State_Penalty>
0.575095

> <b_epik_Metal_Only>
1

> <s_lp_Force_Field>
OPLS_2005

> <r_lp_Energy>
18.3526

> <b_lp_Chiralities_Consistent>
1

> <s_lp_Variant>
AV-unprocessed.smi:828-5

> <Gold.Version>
5.8.1

> <Gold.Id.Protein>
6NUR|6NUR_protein|mol2

> <Gold.PLP.Fitness>
35.5907

> <Gold.PLP.PLP>
-22.6298

> <Gold.PLP.part.hbond>
-4.0728

> <Gold.PLP.part.metal>
0.0000

> <Gold.PLP.part.buried>
1.1275

> <Gold.PLP.part.nonpolar>
-18.5700

> <Gold.PLP.part.repulsive>
0.3501

> <Gold.PLP.ligand.clash>
0.0000

> <Gold.PLP.ligand.torsion>
1.0307

> <Gold.PLP.Chemscore.Hbond>
5.0000

> <Gold.PLP.Chemscore.CHOScore>
0.0000

> <Gold.PLP.Chemscore.Metal>
0.0000

> <Gold.Chemscore.Hbonds>
donor molecule, donor type, donor heavy atom, donor atom, acceptor molecule, acceptor atom, score
      L1  H     9    21       P1  7948  1.00
      L1  H    15    34       P1  7948  2.00
      P1  H  7989  7998       L1     4  0.95
      P1  H  7997  8008       L1     3  1.00

> <Gold.PLP.Chemscore.Internal.Correction>
0.0224

> <Gold.Rescore>
     Score         DG    S(hbond)    S(metal)    S(lipo)     H(rot)  DE(clash)    DE(int)     intcor
     16.70     -20.07       3.62        0.00      50.05       1.31       0.23       3.14       ----

> <Gold.Chemscore.Fitness>
16.6952

> <Gold.Chemscore.DG>
-20.0702

> <Gold.Chemscore.ZeroCoef>
-5.4800

> <Gold.Chemscore.Hbond>
3.6229

> <Gold.Chemscore.Metal>
0.0000

> <Gold.Chemscore.Lipo>
50.0518

> <Gold.Chemscore.Internal_Hbond>
0.0000

> <Gold.Chemscore.DEClash>
0.2308

> <Gold.Chemscore.DEInternal>
3.1442

> <Gold.Chemscore.Rot>
1.3149

> <Gold.Chemscore.Internal.Correction>
   9.000000E+99

> <Gold.Chemscore.Hbonds>
donor molecule, donor type, donor heavy atom, donor atom, acceptor molecule, acceptor atom, score
      L1  H     9    21       P1  7948  1.00
      L1  H    15    34       P1  7948  1.00
      P1  H  7989  7998       L1     4  0.10
      P1  H  7997  8008       L1     3  0.65

> <Gold.Chemscore.Hbond.Weighted>
-12.1003

> <Gold.Chemscore.Metal.Weighted>
-0.0000

> <Gold.Chemscore.Lipo.Weighted>
-5.8561

> <Gold.Chemscore.Internal_Hbond.Weighted>
0.0000

> <Gold.Chemscore.DEClash.Weighted>
0.2308

> <Gold.Chemscore.DEInternal.Weighted>
3.1442

> <Gold.Chemscore.Rot.Weighted>
3.3662

> <Gold.Chemscore.Internal.Correction.Weighted>
   9.000000E+99

> <Gold.Protein.RotatedTorsions>
[ 6907 6896 6895 6894 ] final  -89.36 input  -60.11 | X-H torsion
[ 7974 7965 7964 7962 ] final   94.72 input  175.53 | X-H torsion
[ 8008 7997 7996 7995 ] final  -31.17 input   59.86 | X-H torsion
[ 10167 10162 10161 10158 ] final   21.33 input  -65.29 | X-H torsion
[ 10718 10713 10712 10709 ] final  147.90 input   66.30 | X-H torsion
[ 10763 10752 10751 10750 ] final  -32.99 input  -60.55 | X-H torsion
[ 11005 11000 10999 10996 ] final   19.10 input  -57.11 | X-H torsion

> <Gold.Protein.ActiveResidues>
 VAL166  LYS551  ARG553  GLY616  TRP617  ASP618  TYR619  PRO620  LYS621  CYS622 
 ASP623  PHE694  ASN695  SER759  ASP760  ASP761  ALA762  ILE779  LEU786  VAL792 
 PHE793  MET794  SER795  GLU796  ALA797  LYS798  CYS799  TRP800  GLU811  SER814 

> <Gold.Protein.RotatedAtoms>
  150.6873  134.2598  159.4544 H   0  0  0  0  0  0  0  0  0  0  0  0  # atno 6907 bound_to 6896
  152.0529  134.9640  160.0584 H   0  0  0  0  0  0  0  0  0  0  0  0  # atno 6908 bound_to 6896
  152.1097  133.4259  159.4662 H   0  0  0  0  0  0  0  0  0  0  0  0  # atno 6909 bound_to 6896
  145.4618  139.2286  143.2983 H   0  0  0  0  0  0  0  0  0  0  0  0  # atno 7974 bound_to 7965
  154.4223  140.1771  156.1524 H   0  0  0  0  0  0  0  0  0  0  0  0  # atno 8008 bound_to 7997
  155.9904  140.3369  155.6723 H   0  0  0  0  0  0  0  0  0  0  0  0  # atno 8009 bound_to 7997
  155.6379  140.0677  157.2618 H   0  0  0  0  0  0  0  0  0  0  0  0  # atno 8010 bound_to 7997
  140.5435  143.9636  150.6533 H   0  0  0  0  0  0  0  0  0  0  0  0  # atno 10167 bound_to 10162
  157.3153  131.0895  151.1284 H   0  0  0  0  0  0  0  0  0  0  0  0  # atno 10718 bound_to 10713
  153.8229  135.6873  153.4824 H   0  0  0  0  0  0  0  0  0  0  0  0  # atno 10763 bound_to 10752
  153.1558  135.4599  154.9700 H   0  0  0  0  0  0  0  0  0  0  0  0  # atno 10764 bound_to 10752
  154.7920  135.3305  154.7700 H   0  0  0  0  0  0  0  0  0  0  0  0  # atno 10765 bound_to 10752
  140.4174  134.1554  155.7670 H   0  0  0  0  0  0  0  0  0  0  0  0  # atno 11005 bound_to 11000
  146.2446  140.5388  142.8919 LP  0  0  0  0  0  0  0  0  0  0  0  0  # atno 17320 bound_to 7965
  144.7998  140.6191  143.6486 LP  0  0  0  0  0  0  0  0  0  0  0  0  # atno 17321 bound_to 7965
  140.3043  143.3240  152.0942 LP  0  0  0  0  0  0  0  0  0  0  0  0  # atno 17342 bound_to 10162
  139.4998  144.6677  151.6317 LP  0  0  0  0  0  0  0  0  0  0  0  0  # atno 17343 bound_to 10162
  157.2590  130.6650  149.5966 LP  0  0  0  0  0  0  0  0  0  0  0  0  # atno 17370 bound_to 10713
  155.9681  130.4514  150.5736 LP  0  0  0  0  0  0  0  0  0  0  0  0  # atno 17371 bound_to 10713
  141.1797  133.8439  157.1299 LP  0  0  0  0  0  0  0  0  0  0  0  0  # atno 17394 bound_to 11000
  140.0224  134.9939  157.0618 LP  0  0  0  0  0  0  0  0  0  0  0  0  # atno 17395 bound_to 11000

$$$$
