AV-unprocessed.smi:877|AV-procd|sdf|4027|dock5
  -GOLD-   22720 1513D 1   1.00000     0.00000
 Structure written by MMmdl.
 43 45  0  0  0  0  0  0  0  0  1 V2000
  143.4054  143.1133  155.3024 C   0  0  0  0  0  0  0  0  0  0  0  0
  144.2764  142.9110  156.4055 O   0  0  0  0  0  0  0  0  0  0  0  0
  145.5516  142.4543  156.1497 C   0  0  0  0  0  0  0  0  0  0  0  0
  146.0531  142.1753  154.8533 C   0  0  0  0  0  0  0  0  0  0  0  0
  147.3723  141.7126  154.6828 C   0  0  0  0  0  0  0  0  0  0  0  0
  148.2094  141.5205  155.8003 C   0  0  0  0  0  0  0  0  0  0  0  0
  149.6323  141.0212  155.6173 C   0  0  0  0  0  0  0  0  0  0  0  0
  150.5395  141.3920  156.7581 C   0  0  0  0  0  0  0  0  0  0  0  0
  150.7592  142.6649  157.0943 N   0  0  0  0  0  0  0  0  0  0  0  0
  151.6256  142.5563  158.1635 C   0  0  0  0  0  0  0  0  0  0  0  0
  152.2236  143.5541  158.9661 C   0  0  0  0  0  0  0  0  0  0  0  0
  153.0882  143.1979  160.0218 C   0  0  0  0  0  0  0  0  0  0  0  0
  153.3669  141.8419  160.2888 C   0  0  0  0  0  0  0  0  0  0  0  0
  152.7830  140.8325  159.4995 C   0  0  0  0  0  0  0  0  0  0  0  0
  151.9200  141.1933  158.4471 C   0  0  0  0  0  0  0  0  0  0  0  0
  151.1972  140.4670  157.5047 N   0  0  0  0  0  0  0  0  0  0  0  0
  151.1804  139.0154  157.3735 C   0  0  0  0  0  0  0  0  0  0  0  0
  152.5910  138.4111  157.2237 C   0  0  2  0  0  0  0  0  0  0  0  0
  153.1591  138.8553  156.0063 O   0  0  0  0  0  0  0  0  0  0  0  0
  152.5530  136.8738  157.2174 C   0  0  0  0  0  0  0  0  0  0  0  0
  151.9633  136.4054  156.0234 O   0  0  0  0  0  0  0  0  0  0  0  0
  147.7154  141.7945  157.0914 C   0  0  0  0  0  0  0  0  0  0  0  0
  146.3971  142.2585  157.2607 C   0  0  0  0  0  0  0  0  0  0  0  0
  142.4447  143.4784  155.6653 H   0  0  0  0  0  0  0  0  0  0  0  0
  143.2222  142.1829  154.7630 H   0  0  0  0  0  0  0  0  0  0  0  0
  143.8025  143.8595  154.6129 H   0  0  0  0  0  0  0  0  0  0  0  0
  145.4452  142.3091  153.9715 H   0  0  0  0  0  0  0  0  0  0  0  0
  147.7386  141.5074  153.6875 H   0  0  0  0  0  0  0  0  0  0  0  0
  149.5884  139.9420  155.4826 H   0  0  0  0  0  0  0  0  0  0  0  0
  150.0543  141.4276  154.6977 H   0  0  0  0  0  0  0  0  0  0  0  0
  152.0156  144.5955  158.7698 H   0  0  0  0  0  0  0  0  0  0  0  0
  153.5389  143.9686  160.6297 H   0  0  0  0  0  0  0  0  0  0  0  0
  154.0293  141.5766  161.0998 H   0  0  0  0  0  0  0  0  0  0  0  0
  152.9943  139.7932  159.7037 H   0  0  0  0  0  0  0  0  0  0  0  0
  150.6672  138.5910  158.2367 H   0  0  0  0  0  0  0  0  0  0  0  0
  150.5676  138.7521  156.5105 H   0  0  0  0  0  0  0  0  0  0  0  0
  153.2187  138.7557  158.0456 H   0  0  0  0  0  0  0  0  0  0  0  0
  152.4634  138.9770  155.3781 H   0  0  0  0  0  0  0  0  0  0  0  0
  153.5654  136.4712  157.2631 H   0  0  0  0  0  0  0  0  0  0  0  0
  152.0125  136.4843  158.0811 H   0  0  0  0  0  0  0  0  0  0  0  0
  151.2526  136.9862  155.7969 H   0  0  0  0  0  0  0  0  0  0  0  0
  148.3470  141.6543  157.9561 H   0  0  0  0  0  0  0  0  0  0  0  0
  146.0307  142.4675  158.2550 H   0  0  0  0  0  0  0  0  0  0  0  0
  1  2  1  0  0  0  0
  1 24  1  0  0  0  0
  1 25  1  0  0  0  0
  1 26  1  0  0  0  0
  2  3  1  0  0  0  0
  3 23  1  0  0  0  0
  3  4  2  0  0  0  0
  4  5  1  0  0  0  0
  4 27  1  0  0  0  0
  5  6  2  0  0  0  0
  5 28  1  0  0  0  0
  6  7  1  0  0  0  0
  6 22  1  0  0  0  0
  7  8  1  0  0  0  0
  7 29  1  0  0  0  0
  7 30  1  0  0  0  0
  8 16  1  0  0  0  0
  8  9  2  0  0  0  0
  9 10  1  0  0  0  0
 10 15  2  0  0  0  0
 10 11  1  0  0  0  0
 11 12  2  0  0  0  0
 11 31  1  0  0  0  0
 12 13  1  0  0  0  0
 12 32  1  0  0  0  0
 13 14  2  0  0  0  0
 13 33  1  0  0  0  0
 14 15  1  0  0  0  0
 14 34  1  0  0  0  0
 15 16  1  0  0  0  0
 16 17  1  0  0  0  0
 17 18  1  0  0  0  0
 17 35  1  0  0  0  0
 17 36  1  0  0  0  0
 18 19  1  0  0  0  0
 18 20  1  0  0  0  0
 18 37  1  0  0  0  0
 19 38  1  0  0  0  0
 20 21  1  0  0  0  0
 20 39  1  0  0  0  0
 20 40  1  0  0  0  0
 21 41  1  0  0  0  0
 22 23  2  0  0  0  0
 22 42  1  0  0  0  0
 23 43  1  0  0  0  0
M  END
> <s_m_source_file>
AV-unprocessed.smi

> <i_m_source_file_index>
877

> <i_lp_mmshare_version>
43012

> <i_f3d_flags>
0

> <s_epik_input>
W0NIM11PYzFbY0hdW2NIXWMoW2NIXVtjSF0xKVtDSDJdYyhuMiluKFtDSDJdW0NASF0oW09IXSlbQ0gyXVtPSF0pYyhjMjMpW2NIXVtjSF1bY0hdW2NIXTM=

> <s_epik_cmdline>
J2VwaWtfcHl0aG9uJywgJy1waCcsICc3LjAnLCAnLXRuJywgJzgnLCAnLW1hJywgJzIwMCcsICctbWV0YWxfYmluZGluZycsICctaW1hZScsICc8aW5maWxlLm1hZT4nLCAnLW9tYWUnLCAnPG91dGZpbGUubWFlPic=

> <r_lp_tautomer_probability>
1

> <r_epik_Ionization_Penalty>
0.0616669

> <r_epik_Ionization_Penalty_Charging>
0

> <r_epik_Ionization_Penalty_Neutral>
0.0616669

> <r_epik_State_Penalty>
0.0535415

> <r_epik_Charging_Adjusted_Penalty>
0.0535415

> <i_epik_Tot_Q>
0

> <i_epik_Tot_abs_Q>
0

> <r_epik_Metal_State_Penalty>
5.60326e-05

> <b_epik_Metal_Only>
0

> <s_lp_Force_Field>
OPLS_2005

> <r_lp_Energy>
20.6154

> <b_lp_Chiralities_Consistent>
1

> <s_lp_Variant>
AV-unprocessed.smi:877-1

> <Gold.Version>
5.8.1

> <Gold.Id.Protein>
6NUR|6NUR_protein|mol2

> <Gold.PLP.Fitness>
45.3231

> <Gold.PLP.PLP>
-40.1271

> <Gold.PLP.part.hbond>
-2.0000

> <Gold.PLP.part.metal>
0.0000

> <Gold.PLP.part.buried>
-4.9317

> <Gold.PLP.part.nonpolar>
-34.4805

> <Gold.PLP.part.repulsive>
0.7344

> <Gold.PLP.ligand.clash>
0.0000

> <Gold.PLP.ligand.torsion>
0.4237

> <Gold.PLP.Chemscore.Hbond>
2.0000

> <Gold.PLP.Chemscore.CHOScore>
0.0000

> <Gold.PLP.Chemscore.Metal>
0.0000

> <Gold.Chemscore.Hbonds>
donor molecule, donor type, donor heavy atom, donor atom, acceptor molecule, acceptor atom, score
      P1  H  7997  8010       L1    19  0.94
      P1  H 10752 10763       L1    21  0.99

> <Gold.PLP.Chemscore.Internal.Correction>
0.0434

> <Gold.Rescore>
     Score         DG    S(hbond)    S(metal)    S(lipo)     H(rot)  DE(clash)    DE(int)     intcor
     15.09     -15.38       1.79        0.00     102.51       3.15       0.04       0.25       ----

> <Gold.Chemscore.Fitness>
15.0950

> <Gold.Chemscore.DG>
-15.3824

> <Gold.Chemscore.ZeroCoef>
-5.4800

> <Gold.Chemscore.Hbond>
1.7873

> <Gold.Chemscore.Metal>
0.0000

> <Gold.Chemscore.Lipo>
102.5097

> <Gold.Chemscore.Internal_Hbond>
0.0000

> <Gold.Chemscore.DEClash>
0.0402

> <Gold.Chemscore.DEInternal>
0.2472

> <Gold.Chemscore.Rot>
3.1488

> <Gold.Chemscore.Internal.Correction>
   9.000000E+99

> <Gold.Chemscore.Hbonds>
donor molecule, donor type, donor heavy atom, donor atom, acceptor molecule, acceptor atom, score
      P1  H  7997  8010       L1    19  0.81
      P1  H 10752 10763       L1    21  0.91

> <Gold.Chemscore.Hbond.Weighted>
-5.9696

> <Gold.Chemscore.Metal.Weighted>
-0.0000

> <Gold.Chemscore.Lipo.Weighted>
-11.9936

> <Gold.Chemscore.Internal_Hbond.Weighted>
0.0000

> <Gold.Chemscore.DEClash.Weighted>
0.0402

> <Gold.Chemscore.DEInternal.Weighted>
0.2472

> <Gold.Chemscore.Rot.Weighted>
8.0608

> <Gold.Chemscore.Internal.Correction.Weighted>
   9.000000E+99

> <Gold.Protein.RotatedTorsions>
[ 6907 6896 6895 6894 ] final   70.88 input  -60.11 | X-H torsion
[ 7974 7965 7964 7962 ] final   68.69 input  175.53 | X-H torsion
[ 8008 7997 7996 7995 ] final   97.13 input   59.86 | X-H torsion
[ 10167 10162 10161 10158 ] final   32.31 input  -65.29 | X-H torsion
[ 10718 10713 10712 10709 ] final -137.51 input   66.30 | X-H torsion
[ 10763 10752 10751 10750 ] final   65.27 input  -60.55 | X-H torsion
[ 11005 11000 10999 10996 ] final -145.50 input  -57.11 | X-H torsion

> <Gold.Protein.ActiveResidues>
 VAL166  LYS551  ARG553  GLY616  TRP617  ASP618  TYR619  PRO620  LYS621  CYS622 
 ASP623  PHE694  ASN695  SER759  ASP760  ASP761  ALA762  ILE779  LEU786  VAL792 
 PHE793  MET794  SER795  GLU796  ALA797  LYS798  CYS799  TRP800  GLU811  SER814 

> <Gold.Protein.RotatedAtoms>
  152.4776  134.4803  159.9663 H   0  0  0  0  0  0  0  0  0  0  0  0  # atno 6907 bound_to 6896
  151.4816  133.3539  159.2847 H   0  0  0  0  0  0  0  0  0  0  0  0  # atno 6908 bound_to 6896
  150.8826  134.8245  159.7297 H   0  0  0  0  0  0  0  0  0  0  0  0  # atno 6909 bound_to 6896
  145.7996  139.2975  143.1163 H   0  0  0  0  0  0  0  0  0  0  0  0  # atno 7974 bound_to 7965
  156.0870  140.3262  155.7766 H   0  0  0  0  0  0  0  0  0  0  0  0  # atno 8008 bound_to 7997
  155.5060  140.0573  157.2948 H   0  0  0  0  0  0  0  0  0  0  0  0  # atno 8009 bound_to 7997
  154.4615  140.1969  156.0249 H   0  0  0  0  0  0  0  0  0  0  0  0  # atno 8010 bound_to 7997
  140.4510  144.1048  150.6192 H   0  0  0  0  0  0  0  0  0  0  0  0  # atno 10167 bound_to 10162
  156.2889  130.7363  151.1383 H   0  0  0  0  0  0  0  0  0  0  0  0  # atno 10718 bound_to 10713
  153.0089  135.5363  154.6640 H   0  0  0  0  0  0  0  0  0  0  0  0  # atno 10763 bound_to 10752
  154.5842  135.2852  155.0704 H   0  0  0  0  0  0  0  0  0  0  0  0  # atno 10764 bound_to 10752
  154.1822  135.6514  153.5089 H   0  0  0  0  0  0  0  0  0  0  0  0  # atno 10765 bound_to 10752
  140.7916  134.2962  157.5011 H   0  0  0  0  0  0  0  0  0  0  0  0  # atno 11005 bound_to 11000
  145.9892  140.8617  143.0075 LP  0  0  0  0  0  0  0  0  0  0  0  0  # atno 17320 bound_to 7965
  144.6770  140.2191  143.7368 LP  0  0  0  0  0  0  0  0  0  0  0  0  # atno 17321 bound_to 7965
  140.4207  143.2613  151.9718 LP  0  0  0  0  0  0  0  0  0  0  0  0  # atno 17342 bound_to 10162
  139.4796  144.5833  151.7896 LP  0  0  0  0  0  0  0  0  0  0  0  0  # atno 17343 bound_to 10162
  157.7337  131.0589  150.5565 LP  0  0  0  0  0  0  0  0  0  0  0  0  # atno 17370 bound_to 10713
  156.5679  130.4272  149.6033 LP  0  0  0  0  0  0  0  0  0  0  0  0  # atno 17371 bound_to 10713
  139.8730  134.9378  156.3696 LP  0  0  0  0  0  0  0  0  0  0  0  0  # atno 17394 bound_to 11000
  140.9384  133.7531  156.0114 LP  0  0  0  0  0  0  0  0  0  0  0  0  # atno 17395 bound_to 11000

$$$$
