AV-unprocessed.smi:2526|AV-procd|sdf|9939|dock10
  -GOLD-   2272013583D 1   1.00000     0.00000
 Structure written by MMmdl.
 28 29  0  0  0  0  0  0  0  0  1 V2000
  144.2404  132.4699  149.5010 C   0  0  0  0  0  0  0  0  0  0  0  0
  144.9095  133.4750  150.2987 N   0  0  0  0  0  0  0  0  0  0  0  0
  144.3698  134.5794  150.9205 C   0  0  0  0  0  0  0  0  0  0  0  0
  145.3863  135.2330  151.5633 C   0  0  0  0  0  0  0  0  0  0  0  0
  145.3472  136.4979  152.3995 C   0  0  1  0  0  0  0  0  0  0  0  0
  144.0191  137.1150  152.3421 N   0  0  0  0  0  0  0  0  0  0  0  0
  143.0401  137.0008  153.2596 C   0  0  0  0  0  0  0  0  0  0  0  0
  141.9195  137.4633  153.0598 O   0  0  0  0  0  0  0  0  0  0  0  0
  143.3451  136.3222  154.6064 C   0  0  0  0  0  0  0  0  0  0  0  0
  144.6580  135.5191  154.6289 C   0  0  0  0  0  0  0  0  0  0  0  0
  145.7646  136.2647  153.8725 C   0  0  1  0  0  0  0  0  0  0  0  0
  147.0327  135.5670  153.9890 N   0  0  0  0  0  0  0  0  0  0  0  0
  146.5255  134.4324  151.2586 C   0  0  0  0  0  0  0  0  0  0  0  0
  146.2384  133.3843  150.5044 N   0  0  0  0  0  0  0  0  0  0  0  0
  143.1711  132.6785  149.4566 H   0  0  0  0  0  0  0  0  0  0  0  0
  144.3906  131.4856  149.9453 H   0  0  0  0  0  0  0  0  0  0  0  0
  144.6445  132.4727  148.4883 H   0  0  0  0  0  0  0  0  0  0  0  0
  143.3153  134.8055  150.8599 H   0  0  0  0  0  0  0  0  0  0  0  0
  146.0363  137.2276  151.9730 H   0  0  0  0  0  0  0  0  0  0  0  0
  143.7943  137.6067  151.4892 H   0  0  0  0  0  0  0  0  0  0  0  0
  143.3967  137.1113  155.3572 H   0  0  0  0  0  0  0  0  0  0  0  0
  142.5102  135.6807  154.8894 H   0  0  0  0  0  0  0  0  0  0  0  0
  144.9576  135.3479  155.6634 H   0  0  0  0  0  0  0  0  0  0  0  0
  144.4956  134.5330  154.1915 H   0  0  0  0  0  0  0  0  0  0  0  0
  145.8992  137.2368  154.3490 H   0  0  0  0  0  0  0  0  0  0  0  0
  147.6411  135.8354  153.2288 H   0  0  0  0  0  0  0  0  0  0  0  0
  147.4967  135.8427  154.8427 H   0  0  0  0  0  0  0  0  0  0  0  0
  147.5499  134.5826  151.5659 H   0  0  0  0  0  0  0  0  0  0  0  0
  1  2  1  0  0  0  0
  1 15  1  0  0  0  0
  1 16  1  0  0  0  0
  1 17  1  0  0  0  0
  2 14  1  0  0  0  0
  2  3  1  0  0  0  0
  3  4  2  0  0  0  0
  3 18  1  0  0  0  0
  4  5  1  0  0  0  0
  4 13  1  0  0  0  0
  5 11  1  0  0  0  0
  5  6  1  0  0  0  0
  5 19  1  0  0  0  0
  6  7  1  0  0  0  0
  6 20  1  0  0  0  0
  7  8  2  0  0  0  0
  7  9  1  0  0  0  0
  9 10  1  0  0  0  0
  9 21  1  0  0  0  0
  9 22  1  0  0  0  0
 10 11  1  0  0  0  0
 10 23  1  0  0  0  0
 10 24  1  0  0  0  0
 11 12  1  0  0  0  0
 11 25  1  0  0  0  0
 12 26  1  0  0  0  0
 12 27  1  0  0  0  0
 13 14  2  0  0  0  0
 13 28  1  0  0  0  0
M  END
> <s_m_source_file>
AV-unprocessed.smi

> <i_m_source_file_index>
2526

> <i_lp_mmshare_version>
43012

> <i_f3d_flags>
0

> <s_epik_input>
W0NIM11uMVtjSF1jKFtjSF1uMSlbQ0BASF0yW05IXUMoPU8pW0NIMl1bQ0gyXVtDQEhdMltOSDJd

> <s_epik_cmdline>
J2VwaWtfcHl0aG9uJywgJy1waCcsICc3LjAnLCAnLXRuJywgJzgnLCAnLW1hJywgJzIwMCcsICctbWV0YWxfYmluZGluZycsICctaW1hZScsICc8aW5maWxlLm1hZT4nLCAnLW9tYWUnLCAnPG91dGZpbGUubWFlPic=

> <r_lp_tautomer_probability>
1

> <r_epik_Ionization_Penalty>
2.50279

> <r_epik_Ionization_Penalty_Charging>
0

> <r_epik_Ionization_Penalty_Neutral>
2.50279

> <r_epik_State_Penalty>
2.66754

> <r_epik_Charging_Adjusted_Penalty>
2.66754

> <i_epik_Tot_Q>
0

> <i_epik_Tot_abs_Q>
0

> <r_epik_Metal_State_Penalty>
2.66721

> <b_epik_Metal_Only>
0

> <s_lp_Force_Field>
OPLS_2005

> <r_lp_Energy>
9.07018

> <b_lp_Chiralities_Consistent>
1

> <s_lp_Variant>
AV-unprocessed.smi:2526-6

> <Gold.Version>
5.8.1

> <Gold.Id.Protein>
6NUR|6NUR_protein|mol2

> <Gold.PLP.Fitness>
31.6355

> <Gold.PLP.PLP>
-20.7251

> <Gold.PLP.part.hbond>
-2.0000

> <Gold.PLP.part.metal>
0.0000

> <Gold.PLP.part.buried>
-5.6597

> <Gold.PLP.part.nonpolar>
-14.5894

> <Gold.PLP.part.repulsive>
0.4399

> <Gold.PLP.ligand.clash>
0.0023

> <Gold.PLP.ligand.torsion>
0.0526

> <Gold.PLP.Chemscore.Hbond>
2.0000

> <Gold.PLP.Chemscore.CHOScore>
1.6668

> <Gold.PLP.Chemscore.Metal>
0.0000

> <Gold.Chemscore.Hbonds>
donor molecule, donor type, donor heavy atom, donor atom, acceptor molecule, acceptor atom, score
      L1  H     6    20       P1 10171  1.00
      L1  H    12    26       P1  7948  1.00
      L1  C     3    18       P1 10186  0.62
      L1  C    13    28       P1  7948  1.00

> <Gold.PLP.Chemscore.Internal.Correction>
0.0176

> <Gold.Rescore>
     Score         DG    S(hbond)    S(metal)    S(lipo)     H(rot)  DE(clash)    DE(int)     intcor
     13.30     -14.44       2.00        0.00      41.41       1.00       0.07       1.08       ----

> <Gold.Chemscore.Fitness>
13.2964

> <Gold.Chemscore.DG>
-14.4442

> <Gold.Chemscore.ZeroCoef>
-5.4800

> <Gold.Chemscore.Hbond>
1.9997

> <Gold.Chemscore.Metal>
0.0000

> <Gold.Chemscore.Lipo>
41.4113

> <Gold.Chemscore.Internal_Hbond>
0.0000

> <Gold.Chemscore.DEClash>
0.0688

> <Gold.Chemscore.DEInternal>
1.0790

> <Gold.Chemscore.Rot>
1.0000

> <Gold.Chemscore.Internal.Correction>
   9.000000E+99

> <Gold.Chemscore.Hbonds>
donor molecule, donor type, donor heavy atom, donor atom, acceptor molecule, acceptor atom, score
      L1  H     6    20       P1 10171  0.99
      L1  H    12    26       P1  7948  0.99

> <Gold.Chemscore.Hbond.Weighted>
-6.6791

> <Gold.Chemscore.Metal.Weighted>
-0.0000

> <Gold.Chemscore.Lipo.Weighted>
-4.8451

> <Gold.Chemscore.Internal_Hbond.Weighted>
0.0000

> <Gold.Chemscore.DEClash.Weighted>
0.0688

> <Gold.Chemscore.DEInternal.Weighted>
1.0790

> <Gold.Chemscore.Rot.Weighted>
2.5600

> <Gold.Chemscore.Internal.Correction.Weighted>
   9.000000E+99

> <Gold.Protein.RotatedTorsions>
[ 6907 6896 6895 6894 ] final -141.00 input  -60.11 | X-H torsion
[ 7974 7965 7964 7962 ] final  121.81 input  175.53 | X-H torsion
[ 8008 7997 7996 7995 ] final  -53.92 input   59.86 | X-H torsion
[ 10167 10162 10161 10158 ] final   87.50 input  -65.29 | X-H torsion
[ 10718 10713 10712 10709 ] final   -8.16 input   66.30 | X-H torsion
[ 10763 10752 10751 10750 ] final -162.71 input  -60.55 | X-H torsion
[ 11005 11000 10999 10996 ] final   37.32 input  -57.11 | X-H torsion

> <Gold.Protein.ActiveResidues>
 VAL166  LYS551  ARG553  GLY616  TRP617  ASP618  TYR619  PRO620  LYS621  CYS622 
 ASP623  PHE694  ASN695  SER759  ASP760  ASP761  ALA762  ILE779  LEU786  VAL792 
 PHE793  MET794  SER795  GLU796  ALA797  LYS798  CYS799  TRP800  GLU811  SER814 

> <Gold.Protein.RotatedAtoms>
  151.0681  133.5489  159.2628 H   0  0  0  0  0  0  0  0  0  0  0  0  # atno 6907 bound_to 6896
  151.2439  135.0598  159.9045 H   0  0  0  0  0  0  0  0  0  0  0  0  # atno 6908 bound_to 6896
  152.5407  134.0452  159.8139 H   0  0  0  0  0  0  0  0  0  0  0  0  # atno 6909 bound_to 6896
  145.1149  139.3427  143.4744 H   0  0  0  0  0  0  0  0  0  0  0  0  # atno 7974 bound_to 7965
  154.4147  140.1188  156.5231 H   0  0  0  0  0  0  0  0  0  0  0  0  # atno 8008 bound_to 7997
  155.6682  140.3496  155.4789 H   0  0  0  0  0  0  0  0  0  0  0  0  # atno 8009 bound_to 7997
  155.9656  140.1131  157.0848 H   0  0  0  0  0  0  0  0  0  0  0  0  # atno 8010 bound_to 7997
  139.8767  144.6463  150.8888 H   0  0  0  0  0  0  0  0  0  0  0  0  # atno 10167 bound_to 10162
  156.7067  130.5109  149.5903 H   0  0  0  0  0  0  0  0  0  0  0  0  # atno 10718 bound_to 10713
  154.7189  135.3021  154.9079 H   0  0  0  0  0  0  0  0  0  0  0  0  # atno 10763 bound_to 10752
  153.9957  135.6713  153.4760 H   0  0  0  0  0  0  0  0  0  0  0  0  # atno 10764 bound_to 10752
  153.0817  135.5005  154.8433 H   0  0  0  0  0  0  0  0  0  0  0  0  # atno 10765 bound_to 10752
  140.2237  134.3610  155.7994 H   0  0  0  0  0  0  0  0  0  0  0  0  # atno 11005 bound_to 11000
  146.3524  140.1084  142.8605 LP  0  0  0  0  0  0  0  0  0  0  0  0  # atno 17320 bound_to 7965
  145.0805  140.9217  143.4828 LP  0  0  0  0  0  0  0  0  0  0  0  0  # atno 17321 bound_to 7965
  140.7751  143.3619  151.1812 LP  0  0  0  0  0  0  0  0  0  0  0  0  # atno 17342 bound_to 10162
  139.7233  143.9188  152.2993 LP  0  0  0  0  0  0  0  0  0  0  0  0  # atno 17343 bound_to 10162
  156.1690  130.6424  151.0814 LP  0  0  0  0  0  0  0  0  0  0  0  0  # atno 17370 bound_to 10713
  157.6952  131.0796  150.6990 LP  0  0  0  0  0  0  0  0  0  0  0  0  # atno 17371 bound_to 10713
  141.2222  133.7207  156.8617 LP  0  0  0  0  0  0  0  0  0  0  0  0  # atno 17394 bound_to 11000
  140.1823  134.9024  157.2963 LP  0  0  0  0  0  0  0  0  0  0  0  0  # atno 17395 bound_to 11000

$$$$
