AV-unprocessed.smi:1890|AV-procd|sdf|7663|dock3
  -GOLD-   22720 9393D 1   1.00000     0.00000
 Structure written by MMmdl.
 52 53  0  0  0  0  0  0  0  0  2 V2000
  152.1509  145.2346  158.8788 C   0  0  0  0  0  0  0  0  0  0  0  0
  151.3529  144.2281  158.0382 C   0  0  0  0  0  0  0  0  0  0  0  0
  151.5308  142.8373  158.4692 N   0  0  0  0  0  0  0  0  0  0  0  0
  152.0044  142.5653  159.8289 C   0  0  0  0  0  0  0  0  0  0  0  0
  153.4406  142.0218  159.8616 C   0  0  0  0  0  0  0  0  0  0  0  0
  150.6491  141.8739  157.9272 C   0  0  0  0  0  0  0  0  0  0  0  0
  150.6044  140.5367  158.3895 C   0  0  0  0  0  0  0  0  0  0  0  0
  149.6980  139.6235  157.8126 C   0  0  0  0  0  0  0  0  0  0  0  0
  148.8334  140.0469  156.7817 C   0  0  0  0  0  0  0  0  0  0  0  0
  147.9481  139.0840  156.2232 N   0  0  0  0  0  0  0  0  0  0  0  0
  147.1336  139.2048  155.1602 C   0  0  0  0  0  0  0  0  0  0  0  0
  146.9800  140.2304  154.4982 O   0  0  0  0  0  0  0  0  0  0  0  0
  146.4879  138.0531  154.9150 N   0  0  0  0  0  0  0  0  0  0  0  0
  145.5248  137.7819  153.8453 C   0  0  0  0  0  0  0  0  0  0  0  0
  144.0641  137.7336  154.3564 C   0  0  0  0  0  0  0  0  0  0  0  0
  143.0947  137.3906  153.2113 C   0  0  0  0  0  0  0  0  0  0  0  0
  143.5180  136.1246  152.5978 N   0  0  0  0  0  0  0  0  0  0  0  0
  142.8778  134.9379  152.7292 C   0  0  0  0  0  0  0  0  0  0  0  0
  141.5690  134.8770  153.5200 C   0  0  0  0  0  0  0  0  0  0  0  0
  143.3076  133.8926  152.2418 O   0  0  0  0  0  0  0  0  0  0  0  0
  144.8252  136.2504  151.9413 C   0  0  0  0  0  0  0  0  0  0  0  0
  145.8925  136.5281  153.0157 C   0  0  0  0  0  0  0  0  0  0  0  0
  148.9228  141.3907  156.3466 C   0  0  0  0  0  0  0  0  0  0  0  0
  149.8068  142.2308  156.9263 N   0  3  0  0  0  0  0  0  0  0  0  0
  152.0670  146.2353  158.4546 H   0  0  0  0  0  0  0  0  0  0  0  0
  153.2098  144.9761  158.9067 H   0  0  0  0  0  0  0  0  0  0  0  0
  151.7853  145.2892  159.9041 H   0  0  0  0  0  0  0  0  0  0  0  0
  150.2929  144.4833  158.0560 H   0  0  0  0  0  0  0  0  0  0  0  0
  151.6838  144.3349  157.0045 H   0  0  0  0  0  0  0  0  0  0  0  0
  151.9434  143.4576  160.4492 H   0  0  0  0  0  0  0  0  0  0  0  0
  151.3369  141.8495  160.3064 H   0  0  0  0  0  0  0  0  0  0  0  0
  153.7594  141.8425  160.8885 H   0  0  0  0  0  0  0  0  0  0  0  0
  154.1440  142.7261  159.4163 H   0  0  0  0  0  0  0  0  0  0  0  0
  153.5234  141.0769  159.3240 H   0  0  0  0  0  0  0  0  0  0  0  0
  151.2667  140.1924  159.1692 H   0  0  0  0  0  0  0  0  0  0  0  0
  149.6712  138.6022  158.1638 H   0  0  0  0  0  0  0  0  0  0  0  0
  147.9131  138.1983  156.7062 H   0  0  0  0  0  0  0  0  0  0  0  0
  146.6857  137.2766  155.5290 H   0  0  0  0  0  0  0  0  0  0  0  0
  145.5959  138.6374  153.1722 H   0  0  0  0  0  0  0  0  0  0  0  0
  143.9529  136.9856  155.1418 H   0  0  0  0  0  0  0  0  0  0  0  0
  143.7905  138.6911  154.8008 H   0  0  0  0  0  0  0  0  0  0  0  0
  142.0712  137.3753  153.5828 H   0  0  0  0  0  0  0  0  0  0  0  0
  143.1166  138.1786  152.4571 H   0  0  0  0  0  0  0  0  0  0  0  0
  141.7186  135.2236  154.5431 H   0  0  0  0  0  0  0  0  0  0  0  0
  141.1968  133.8532  153.5678 H   0  0  0  0  0  0  0  0  0  0  0  0
  140.8010  135.4887  153.0459 H   0  0  0  0  0  0  0  0  0  0  0  0
  145.0974  135.3637  151.3673 H   0  0  0  0  0  0  0  0  0  0  0  0
  144.7927  137.0702  151.2221 H   0  0  0  0  0  0  0  0  0  0  0  0
  146.8675  136.6610  152.5459 H   0  0  0  0  0  0  0  0  0  0  0  0
  145.9760  135.6510  153.6581 H   0  0  0  0  0  0  0  0  0  0  0  0
  148.3377  141.8328  155.5550 H   0  0  0  0  0  0  0  0  0  0  0  0
  149.8417  143.1929  156.5893 H   0  0  0  0  0  0  0  0  0  0  0  0
  1  2  1  0  0  0  0
  1 25  1  0  0  0  0
  1 26  1  0  0  0  0
  1 27  1  0  0  0  0
  2  3  1  0  0  0  0
  2 28  1  0  0  0  0
  2 29  1  0  0  0  0
  3  4  1  0  0  0  0
  3  6  1  0  0  0  0
  4  5  1  0  0  0  0
  4 30  1  0  0  0  0
  4 31  1  0  0  0  0
  5 32  1  0  0  0  0
  5 33  1  0  0  0  0
  5 34  1  0  0  0  0
  6 24  1  0  0  0  0
  6  7  2  0  0  0  0
  7  8  1  0  0  0  0
  7 35  1  0  0  0  0
  8  9  2  0  0  0  0
  8 36  1  0  0  0  0
  9 10  1  0  0  0  0
  9 23  1  0  0  0  0
 10 11  1  0  0  0  0
 10 37  1  0  0  0  0
 11 12  2  0  0  0  0
 11 13  1  0  0  0  0
 13 14  1  0  0  0  0
 13 38  1  0  0  0  0
 14 22  1  0  0  0  0
 14 15  1  0  0  0  0
 14 39  1  0  0  0  0
 15 16  1  0  0  0  0
 15 40  1  0  0  0  0
 15 41  1  0  0  0  0
 16 17  1  0  0  0  0
 16 42  1  0  0  0  0
 16 43  1  0  0  0  0
 17 18  1  0  0  0  0
 17 21  1  0  0  0  0
 18 19  1  0  0  0  0
 18 20  2  0  0  0  0
 19 44  1  0  0  0  0
 19 45  1  0  0  0  0
 19 46  1  0  0  0  0
 21 22  1  0  0  0  0
 21 47  1  0  0  0  0
 21 48  1  0  0  0  0
 22 49  1  0  0  0  0
 22 50  1  0  0  0  0
 23 24  2  0  0  0  0
 23 51  1  0  0  0  0
 24 52  1  0  0  0  0
M  CHG  1  24   1
M  END
> <s_m_source_file>
AV-unprocessed.smi

> <i_m_source_file_index>
1890

> <i_lp_mmshare_version>
43012

> <i_f3d_flags>
0

> <s_epik_input>
W0NIM11bQ0gyXU4oW0NIMl1bQ0gzXSljMVtjSF1bY0hdYyhbY0hdbjEpW05IXUMoPU8pW05IXVtDSF0yW0NIMl1bQ0gyXU4oQyg9TylbQ0gzXSlbQ0gyXVtDSDJdMg==

> <s_epik_cmdline>
J2VwaWtfcHl0aG9uJywgJy1waCcsICc3LjAnLCAnLXRuJywgJzgnLCAnLW1hJywgJzIwMCcsICctbWV0YWxfYmluZGluZycsICctaW1hZScsICc8aW5maWxlLm1hZT4nLCAnLW9tYWUnLCAnPG91dGZpbGUubWFlPic=

> <r_lp_tautomer_probability>
0.999994

> <r_epik_Ionization_Penalty>
0.22788

> <r_epik_Ionization_Penalty_Charging>
0.227859

> <r_epik_Ionization_Penalty_Neutral>
2.12958e-05

> <r_epik_State_Penalty>
0.0148833

> <r_epik_Charging_Adjusted_Penalty>
0.242742

> <i_epik_Tot_Q>
1

> <i_epik_Tot_abs_Q>
1

> <r_epik_Metal_State_Penalty>
0.0452648

> <b_epik_Metal_Only>
0

> <s_lp_Force_Field>
OPLS_2005

> <r_lp_Energy>
37.6565

> <b_lp_Chiralities_Consistent>
1

> <s_lp_Variant>
AV-unprocessed.smi:1890-1

> <Gold.Version>
5.8.1

> <Gold.Id.Protein>
6NUR|6NUR_protein|mol2

> <Gold.PLP.Fitness>
43.8181

> <Gold.PLP.PLP>
-38.1941

> <Gold.PLP.part.hbond>
-1.0000

> <Gold.PLP.part.metal>
0.0000

> <Gold.PLP.part.buried>
-5.5009

> <Gold.PLP.part.nonpolar>
-32.5906

> <Gold.PLP.part.repulsive>
0.2961

> <Gold.PLP.ligand.clash>
0.0000

> <Gold.PLP.ligand.torsion>
0.6472

> <Gold.PLP.Chemscore.Hbond>
1.9840

> <Gold.PLP.Chemscore.CHOScore>
0.0000

> <Gold.PLP.Chemscore.Metal>
0.0000

> <Gold.Chemscore.Hbonds>
donor molecule, donor type, donor heavy atom, donor atom, acceptor molecule, acceptor atom, score
      L1  H    24    52       P1  8028  1.92

> <Gold.PLP.Chemscore.Internal.Correction>
0.9662

> <Gold.Rescore>
     Score         DG    S(hbond)    S(metal)    S(lipo)     H(rot)  DE(clash)    DE(int)     intcor
     13.25     -15.11       0.98        0.00      83.66       1.35       0.03       1.84       ----

> <Gold.Chemscore.Fitness>
13.2472

> <Gold.Chemscore.DG>
-15.1082

> <Gold.Chemscore.ZeroCoef>
-5.4800

> <Gold.Chemscore.Hbond>
0.9850

> <Gold.Chemscore.Metal>
0.0000

> <Gold.Chemscore.Lipo>
83.6632

> <Gold.Chemscore.Internal_Hbond>
0.0000

> <Gold.Chemscore.DEClash>
0.0255

> <Gold.Chemscore.DEInternal>
1.8355

> <Gold.Chemscore.Rot>
1.3477

> <Gold.Chemscore.Internal.Correction>
   9.000000E+99

> <Gold.Chemscore.Hbonds>
donor molecule, donor type, donor heavy atom, donor atom, acceptor molecule, acceptor atom, score
      L1  H    24    52       P1  8028  0.86

> <Gold.Chemscore.Hbond.Weighted>
-3.2899

> <Gold.Chemscore.Metal.Weighted>
-0.0000

> <Gold.Chemscore.Lipo.Weighted>
-9.7886

> <Gold.Chemscore.Internal_Hbond.Weighted>
0.0000

> <Gold.Chemscore.DEClash.Weighted>
0.0255

> <Gold.Chemscore.DEInternal.Weighted>
1.8355

> <Gold.Chemscore.Rot.Weighted>
3.4502

> <Gold.Chemscore.Internal.Correction.Weighted>
   9.000000E+99

> <Gold.Protein.RotatedTorsions>
[ 6907 6896 6895 6894 ] final   73.41 input  -60.11 | X-H torsion
[ 7974 7965 7964 7962 ] final   81.88 input  175.53 | X-H torsion
[ 8008 7997 7996 7995 ] final   14.92 input   59.86 | X-H torsion
[ 10167 10162 10161 10158 ] final -158.17 input  -65.29 | X-H torsion
[ 10718 10713 10712 10709 ] final  -99.65 input   66.30 | X-H torsion
[ 10763 10752 10751 10750 ] final  -54.97 input  -60.55 | X-H torsion
[ 11005 11000 10999 10996 ] final  100.01 input  -57.11 | X-H torsion

> <Gold.Protein.ActiveResidues>
 VAL166  LYS551  ARG553  GLY616  TRP617  ASP618  TYR619  PRO620  LYS621  CYS622 
 ASP623  PHE694  ASN695  SER759  ASP760  ASP761  ALA762  ILE779  LEU786  VAL792 
 PHE793  MET794  SER795  GLU796  ALA797  LYS798  CYS799  TRP800  GLU811  SER814 

> <Gold.Protein.RotatedAtoms>
  152.4921  134.4426  159.9548 H   0  0  0  0  0  0  0  0  0  0  0  0  # atno 6907 bound_to 6896
  151.4411  133.3637  159.2790 H   0  0  0  0  0  0  0  0  0  0  0  0  # atno 6908 bound_to 6896
  150.9087  134.8526  159.7470 H   0  0  0  0  0  0  0  0  0  0  0  0  # atno 6909 bound_to 6896
  145.6324  139.2408  143.2077 H   0  0  0  0  0  0  0  0  0  0  0  0  # atno 7974 bound_to 7965
  154.8553  140.2936  155.5573 H   0  0  0  0  0  0  0  0  0  0  0  0  # atno 8008 bound_to 7997
  156.3018  140.2488  156.3451 H   0  0  0  0  0  0  0  0  0  0  0  0  # atno 8009 bound_to 7997
  154.8977  140.0392  157.1864 H   0  0  0  0  0  0  0  0  0  0  0  0  # atno 8010 bound_to 7997
  139.6713  143.9740  152.2285 H   0  0  0  0  0  0  0  0  0  0  0  0  # atno 10167 bound_to 10162
  156.0140  130.5292  150.6701 H   0  0  0  0  0  0  0  0  0  0  0  0  # atno 10718 bound_to 10713
  154.1834  135.6439  153.5040 H   0  0  0  0  0  0  0  0  0  0  0  0  # atno 10763 bound_to 10752
  153.0053  135.5411  154.6490 H   0  0  0  0  0  0  0  0  0  0  0  0  # atno 10764 bound_to 10752
  154.5861  135.2929  155.0656 H   0  0  0  0  0  0  0  0  0  0  0  0  # atno 10765 bound_to 10752
  139.8771  134.9121  156.4692 H   0  0  0  0  0  0  0  0  0  0  0  0  # atno 11005 bound_to 11000
  146.1346  140.7140  142.9396 LP  0  0  0  0  0  0  0  0  0  0  0  0  # atno 17320 bound_to 7965
  144.7188  140.4304  143.7024 LP  0  0  0  0  0  0  0  0  0  0  0  0  # atno 17321 bound_to 7965
  139.9505  144.6623  150.8176 LP  0  0  0  0  0  0  0  0  0  0  0  0  # atno 17342 bound_to 10162
  140.7619  143.3185  151.2677 LP  0  0  0  0  0  0  0  0  0  0  0  0  # atno 17343 bound_to 10162
  157.4426  131.0863  151.0928 LP  0  0  0  0  0  0  0  0  0  0  0  0  # atno 17370 bound_to 10713
  157.1468  130.6167  149.5571 LP  0  0  0  0  0  0  0  0  0  0  0  0  # atno 17371 bound_to 10713
  140.8808  133.7919  155.9464 LP  0  0  0  0  0  0  0  0  0  0  0  0  # atno 17394 bound_to 11000
  140.8856  134.2558  157.5121 LP  0  0  0  0  0  0  0  0  0  0  0  0  # atno 17395 bound_to 11000

$$$$
