AV-unprocessed.smi:104|AV-procd|sdf|1008|dock8
  -GOLD-   2262018 03D 1   1.00000     0.00000
 Structure written by MMmdl.
 47 49  0  0  0  0  0  0  0  0  1 V2000
  145.8911  137.0582  161.9431 C   0  0  0  0  0  0  0  0  0  0  0  0
  147.1010  136.4901  161.2135 C   0  0  0  0  0  0  0  0  0  0  0  0
  148.2485  136.8185  161.5156 O   0  0  0  0  0  0  0  0  0  0  0  0
  146.7560  135.6302  160.2445 O   0  0  0  0  0  0  0  0  0  0  0  0
  147.7634  135.0505  159.4298 C   0  0  0  0  0  0  0  0  0  0  0  0
  148.0500  135.9459  158.2176 C   0  0  1  0  0  0  0  0  0  0  0  0
  147.8088  137.3059  158.5471 O   0  0  0  0  0  0  0  0  0  0  0  0
  148.6770  138.1424  157.8527 C   0  0  2  0  0  0  0  0  0  0  0  0
  147.9188  138.7920  156.7194 N   0  0  0  0  0  0  0  0  0  0  0  0
  146.6004  138.5958  156.3642 C   0  0  0  0  0  0  0  0  0  0  0  0
  145.4358  137.4285  157.3191 Br  0  0  0  0  0  0  0  0  0  0  0  0
  146.1500  139.2539  155.3344 N   0  0  0  0  0  0  0  0  0  0  0  0
  147.2604  139.9752  154.9233 C   0  0  0  0  0  0  0  0  0  0  0  0
  147.4948  140.8972  153.8722 C   0  0  0  0  0  0  0  0  0  0  0  0
  146.5503  141.2591  152.9933 N   0  0  0  0  0  0  0  0  0  0  0  0
  148.7277  141.4397  153.7482 N   0  0  0  0  0  0  0  0  0  0  0  0
  149.6865  141.0937  154.6115 C   0  0  0  0  0  0  0  0  0  0  0  0
  149.6157  140.2451  155.6391 N   0  0  0  0  0  0  0  0  0  0  0  0
  148.3734  139.6946  155.7701 C   0  0  0  0  0  0  0  0  0  0  0  0
  149.9047  137.3104  157.4180 C   0  0  2  0  0  0  0  0  0  0  0  0
  150.3047  137.5555  156.0705 O   0  0  0  0  0  0  0  0  0  0  0  0
  151.4893  137.1107  155.6195 C   0  0  0  0  0  0  0  0  0  0  0  0
  151.8458  137.6965  154.2605 C   0  0  0  0  0  0  0  0  0  0  0  0
  152.2432  136.3342  156.2061 O   0  0  0  0  0  0  0  0  0  0  0  0
  149.4875  135.8581  157.6818 C   0  0  2  0  0  0  0  0  0  0  0  0
  149.5103  135.0423  156.5138 O   0  0  0  0  0  0  0  0  0  0  0  0
  149.7234  133.7187  156.6086 C   0  0  0  0  0  0  0  0  0  0  0  0
  149.7658  133.0414  155.2455 C   0  0  0  0  0  0  0  0  0  0  0  0
  149.8833  133.0819  157.6497 O   0  0  0  0  0  0  0  0  0  0  0  0
  145.2229  136.2550  162.2549 H   0  0  0  0  0  0  0  0  0  0  0  0
  145.3395  137.7334  161.2889 H   0  0  0  0  0  0  0  0  0  0  0  0
  146.2028  137.6125  162.8285 H   0  0  0  0  0  0  0  0  0  0  0  0
  148.6747  134.9233  160.0159 H   0  0  0  0  0  0  0  0  0  0  0  0
  147.4483  134.0604  159.0969 H   0  0  0  0  0  0  0  0  0  0  0  0
  147.3415  135.6784  157.4355 H   0  0  0  0  0  0  0  0  0  0  0  0
  148.9677  138.9699  158.4964 H   0  0  0  0  0  0  0  0  0  0  0  0
  145.6212  140.8696  153.0638 H   0  0  0  0  0  0  0  0  0  0  0  0
  146.7703  141.9170  152.2596 H   0  0  0  0  0  0  0  0  0  0  0  0
  150.6469  141.5630  154.4582 H   0  0  0  0  0  0  0  0  0  0  0  0
  150.7229  137.5461  158.1003 H   0  0  0  0  0  0  0  0  0  0  0  0
  151.1077  137.3988  153.5158 H   0  0  0  0  0  0  0  0  0  0  0  0
  152.8258  137.3461  153.9362 H   0  0  0  0  0  0  0  0  0  0  0  0
  151.8669  138.7853  154.3128 H   0  0  0  0  0  0  0  0  0  0  0  0
  150.1396  135.4400  158.4498 H   0  0  0  0  0  0  0  0  0  0  0  0
  148.8016  133.1364  154.7459 H   0  0  0  0  0  0  0  0  0  0  0  0
  149.9982  131.9818  155.3510 H   0  0  0  0  0  0  0  0  0  0  0  0
  150.5289  133.5024  154.6181 H   0  0  0  0  0  0  0  0  0  0  0  0
  1  2  1  0  0  0  0
  1 30  1  0  0  0  0
  1 31  1  0  0  0  0
  1 32  1  0  0  0  0
  2  3  2  0  0  0  0
  2  4  1  0  0  0  0
  4  5  1  0  0  0  0
  5  6  1  0  0  0  0
  5 33  1  0  0  0  0
  5 34  1  0  0  0  0
  6 25  1  0  0  0  0
  6  7  1  0  0  0  0
  6 35  1  0  0  0  0
  7  8  1  0  0  0  0
  8  9  1  0  0  0  0
  8 20  1  0  0  0  0
  8 36  1  0  0  0  0
  9 19  1  0  0  0  0
  9 10  1  0  0  0  0
 10 11  1  0  0  0  0
 10 12  2  0  0  0  0
 12 13  1  0  0  0  0
 13 19  2  0  0  0  0
 13 14  1  0  0  0  0
 14 15  1  0  0  0  0
 14 16  2  0  0  0  0
 15 37  1  0  0  0  0
 15 38  1  0  0  0  0
 16 17  1  0  0  0  0
 17 18  2  0  0  0  0
 17 39  1  0  0  0  0
 18 19  1  0  0  0  0
 20 21  1  0  0  0  0
 20 25  1  0  0  0  0
 20 40  1  0  0  0  0
 21 22  1  0  0  0  0
 22 23  1  0  0  0  0
 22 24  2  0  0  0  0
 23 41  1  0  0  0  0
 23 42  1  0  0  0  0
 23 43  1  0  0  0  0
 25 26  1  0  0  0  0
 25 44  1  0  0  0  0
 26 27  1  0  0  0  0
 27 28  1  0  0  0  0
 27 29  2  0  0  0  0
 28 45  1  0  0  0  0
 28 46  1  0  0  0  0
 28 47  1  0  0  0  0
M  END
> <s_m_source_file>
AV-unprocessed.smi

> <i_m_source_file_index>
104

> <i_lp_mmshare_version>
43012

> <i_f3d_flags>
0

> <s_epik_input>
W0NIM11DKD1PKU9bQ0gyXVtDQEBIXTFPW0NASF0oW0NAQEhdKE9DKD1PKVtDSDNdKVtDQEhdMU9DKD1PKVtDSDNdKW4oYyhCciluMiljKGMyMyluW2NIXW5jM1tOSDJd

> <s_epik_cmdline>
J2VwaWtfcHl0aG9uJywgJy1waCcsICc3LjAnLCAnLXRuJywgJzgnLCAnLW1hJywgJzIwMCcsICctbWV0YWxfYmluZGluZycsICctaW1hZScsICc8aW5maWxlLm1hZT4nLCAnLW9tYWUnLCAnPG91dGZpbGUubWFlPic=

> <r_lp_tautomer_probability>
1

> <r_epik_Ionization_Penalty>
7.36622e-05

> <r_epik_Ionization_Penalty_Charging>
0

> <r_epik_Ionization_Penalty_Neutral>
7.36622e-05

> <r_epik_State_Penalty>
-0

> <r_epik_Charging_Adjusted_Penalty>
0

> <i_epik_Tot_Q>
0

> <i_epik_Tot_abs_Q>
0

> <r_epik_Metal_State_Penalty>
-0

> <b_epik_Metal_Only>
0

> <s_epik_Chemistry_Notes>
This compound has an ester and may undergo hydrolysis at high or low pH. This compound contains an acetal/aminal-like group ( X-CH(R)-Y where X, Y are N, S, or O) that may be acid/base labile, releasing an aldehyde.

> <s_lp_Force_Field>
OPLS_2005

> <r_lp_Energy>
19.0996

> <b_lp_Chiralities_Consistent>
1

> <s_lp_Variant>
AV-unprocessed.smi:104-16

> <Gold.Version>
5.8.1

> <Gold.Id.Protein>
6NUR|6NUR_protein|mol2

> <Gold.PLP.Fitness>
40.2878

> <Gold.PLP.PLP>
-28.7678

> <Gold.PLP.part.hbond>
-5.4103

> <Gold.PLP.part.metal>
0.0000

> <Gold.PLP.part.buried>
-4.4947

> <Gold.PLP.part.nonpolar>
-18.4001

> <Gold.PLP.part.repulsive>
0.3745

> <Gold.PLP.ligand.clash>
0.0000

> <Gold.PLP.ligand.torsion>
1.1055

> <Gold.PLP.Chemscore.Hbond>
4.5301

> <Gold.PLP.Chemscore.CHOScore>
0.0000

> <Gold.PLP.Chemscore.Metal>
0.0000

> <Gold.Chemscore.Hbonds>
donor molecule, donor type, donor heavy atom, donor atom, acceptor molecule, acceptor atom, score
      L1  H    15    37       P1 10175  0.94
      P1  H  6896  6907       L1    29  1.00
      P1  H  6931  6943       L1     3  1.00
      P1  H  8011  8017       L1    16  0.75
      P1  H 10752 10764       L1    24  1.00

> <Gold.PLP.Chemscore.Internal.Correction>
0.1408

> <Gold.Rescore>
     Score         DG    S(hbond)    S(metal)    S(lipo)     H(rot)  DE(clash)    DE(int)     intcor
      3.23     -10.58       3.56        0.00      36.17       4.31       0.02       7.33       ----

> <Gold.Chemscore.Fitness>
3.2259

> <Gold.Chemscore.DG>
-10.5806

> <Gold.Chemscore.ZeroCoef>
-5.4800

> <Gold.Chemscore.Hbond>
3.5611

> <Gold.Chemscore.Metal>
0.0000

> <Gold.Chemscore.Lipo>
36.1743

> <Gold.Chemscore.Internal_Hbond>
0.0000

> <Gold.Chemscore.DEClash>
0.0237

> <Gold.Chemscore.DEInternal>
7.3310

> <Gold.Chemscore.Rot>
4.3070

> <Gold.Chemscore.Internal.Correction>
   9.000000E+99

> <Gold.Chemscore.Hbonds>
donor molecule, donor type, donor heavy atom, donor atom, acceptor molecule, acceptor atom, score
      L1  H    15    37       P1 10175  0.44
      P1  H  6896  6907       L1    29  0.98
      P1  H  6931  6943       L1     3  1.00
      P1  H  8011  8017       L1    16  0.25
      P1  H 10752 10764       L1    24  0.74

> <Gold.Chemscore.Hbond.Weighted>
-11.8941

> <Gold.Chemscore.Metal.Weighted>
-0.0000

> <Gold.Chemscore.Lipo.Weighted>
-4.2324

> <Gold.Chemscore.Internal_Hbond.Weighted>
0.0000

> <Gold.Chemscore.DEClash.Weighted>
0.0237

> <Gold.Chemscore.DEInternal.Weighted>
7.3310

> <Gold.Chemscore.Rot.Weighted>
11.0259

> <Gold.Chemscore.Internal.Correction.Weighted>
   9.000000E+99

> <Gold.Protein.RotatedTorsions>
[ 6907 6896 6895 6894 ] final -138.78 input  -60.11 | X-H torsion
[ 7974 7965 7964 7962 ] final -131.34 input  175.53 | X-H torsion
[ 8008 7997 7996 7995 ] final -129.49 input   59.86 | X-H torsion
[ 10167 10162 10161 10158 ] final   -2.10 input  -65.29 | X-H torsion
[ 10718 10713 10712 10709 ] final -159.85 input   66.30 | X-H torsion
[ 10763 10752 10751 10750 ] final  -26.81 input  -60.55 | X-H torsion
[ 11005 11000 10999 10996 ] final   82.55 input  -57.11 | X-H torsion

> <Gold.Protein.ActiveResidues>
 VAL166  LYS551  ARG553  GLY616  TRP617  ASP618  TYR619  PRO620  LYS621  CYS622 
 ASP623  PHE694  ASN695  SER759  ASP760  ASP761  ALA762  ILE779  LEU786  VAL792 
 PHE793  MET794  SER795  GLU796  ALA797  LYS798  CYS799  TRP800  GLU811  SER814 

> <Gold.Protein.RotatedAtoms>
  151.0394  133.5719  159.2652 H   0  0  0  0  0  0  0  0  0  0  0  0  # atno 6907 bound_to 6896
  151.2771  135.0702  159.9165 H   0  0  0  0  0  0  0  0  0  0  0  0  # atno 6908 bound_to 6896
  152.5361  134.0115  159.7994 H   0  0  0  0  0  0  0  0  0  0  0  0  # atno 6909 bound_to 6896
  144.9389  140.7215  143.4859 H   0  0  0  0  0  0  0  0  0  0  0  0  # atno 7974 bound_to 7965
  155.2801  140.0443  157.3015 H   0  0  0  0  0  0  0  0  0  0  0  0  # atno 8008 bound_to 7997
  154.5602  140.2343  155.8316 H   0  0  0  0  0  0  0  0  0  0  0  0  # atno 8009 bound_to 7997
  156.2040  140.3017  155.9595 H   0  0  0  0  0  0  0  0  0  0  0  0  # atno 8010 bound_to 7997
  140.6837  143.6697  150.8195 H   0  0  0  0  0  0  0  0  0  0  0  0  # atno 10167 bound_to 10162
  156.5739  130.8700  151.2845 H   0  0  0  0  0  0  0  0  0  0  0  0  # atno 10718 bound_to 10713
  153.7219  135.6944  153.5011 H   0  0  0  0  0  0  0  0  0  0  0  0  # atno 10763 bound_to 10752
  153.2198  135.4374  155.0474 H   0  0  0  0  0  0  0  0  0  0  0  0  # atno 10764 bound_to 10752
  154.8281  135.3457  154.6752 H   0  0  0  0  0  0  0  0  0  0  0  0  # atno 10765 bound_to 10752
  139.9060  134.8079  156.2190 H   0  0  0  0  0  0  0  0  0  0  0  0  # atno 11005 bound_to 11000
  145.3023  139.1846  143.4683 LP  0  0  0  0  0  0  0  0  0  0  0  0  # atno 17320 bound_to 7965
  146.3278  140.3015  142.8621 LP  0  0  0  0  0  0  0  0  0  0  0  0  # atno 17321 bound_to 7965
  140.0401  143.5355  152.2721 LP  0  0  0  0  0  0  0  0  0  0  0  0  # atno 17342 bound_to 10162
  139.6179  144.7623  151.2806 LP  0  0  0  0  0  0  0  0  0  0  0  0  # atno 17343 bound_to 10162
  157.7342  130.9742  150.2016 LP  0  0  0  0  0  0  0  0  0  0  0  0  # atno 17370 bound_to 10713
  156.2690  130.3719  149.8051 LP  0  0  0  0  0  0  0  0  0  0  0  0  # atno 17371 bound_to 10713
  141.0418  133.6934  156.1611 LP  0  0  0  0  0  0  0  0  0  0  0  0  # atno 17394 bound_to 11000
  140.6944  134.4631  157.5588 LP  0  0  0  0  0  0  0  0  0  0  0  0  # atno 17395 bound_to 11000

$$$$
