AV-unprocessed.smi:1903|AV-procd|sdf|7722|dock3
  -GOLD-   22720 9463D 1   1.00000     0.00000
 Structure written by MMmdl.
 47 48  0  0  0  0  0  0  0  0  2 V2000
  153.0031  137.7704  156.1304 C   0  0  0  0  0  0  0  0  0  0  0  0
  152.1918  139.0335  156.1834 C   0  0  0  0  0  0  0  0  0  0  0  0
  152.4683  139.9455  157.1004 N   0  0  0  0  0  0  0  0  0  0  0  0
  151.5784  140.9340  156.8823 N   0  0  0  0  0  0  0  0  0  0  0  0
  151.6044  142.1135  157.7254 C   0  0  0  0  0  0  0  0  0  0  0  0
  150.7377  140.6464  155.8247 C   0  0  0  0  0  0  0  0  0  0  0  0
  149.6661  141.5908  155.3839 C   0  0  0  0  0  0  0  0  0  0  0  0
  151.1059  139.4180  155.3430 C   0  0  0  0  0  0  0  0  0  0  0  0
  150.5186  138.6353  154.1957 C   0  0  0  0  0  0  0  0  0  0  0  0
  148.9937  138.6238  154.3047 C   0  0  0  0  0  0  0  0  0  0  0  0
  148.4520  138.2395  155.3409 O   0  0  0  0  0  0  0  0  0  0  0  0
  148.3115  139.0465  153.2288 N   0  0  0  0  0  0  0  0  0  0  0  0
  146.8583  139.0842  153.1208 C   0  0  0  0  0  0  0  0  0  0  0  0
  146.3600  138.2962  151.8937 C   0  0  0  0  0  0  0  0  0  0  0  0
  146.4116  136.8270  152.1033 N   0  3  0  0  0  0  0  0  0  0  0  0
  145.8668  136.4305  153.4287 C   0  0  0  0  0  0  0  0  0  0  0  0
  146.0528  134.9249  153.6820 C   0  0  0  0  0  0  0  0  0  0  0  0
  145.4126  134.0954  152.5621 C   0  0  0  0  0  0  0  0  0  0  0  0
  145.9661  134.5403  151.2028 C   0  0  0  0  0  0  0  0  0  0  0  0
  145.7808  136.0536  150.9998 C   0  0  0  0  0  0  0  0  0  0  0  0
  153.3850  137.5946  155.1248 H   0  0  0  0  0  0  0  0  0  0  0  0
  152.3979  136.9083  156.4109 H   0  0  0  0  0  0  0  0  0  0  0  0
  153.8587  137.8090  156.8056 H   0  0  0  0  0  0  0  0  0  0  0  0
  150.6185  142.2754  158.1619 H   0  0  0  0  0  0  0  0  0  0  0  0
  151.8781  142.9836  157.1282 H   0  0  0  0  0  0  0  0  0  0  0  0
  152.3300  141.9955  158.5313 H   0  0  0  0  0  0  0  0  0  0  0  0
  149.1138  141.1965  154.5312 H   0  0  0  0  0  0  0  0  0  0  0  0
  150.0932  142.5495  155.0894 H   0  0  0  0  0  0  0  0  0  0  0  0
  148.9532  141.7705  156.1888 H   0  0  0  0  0  0  0  0  0  0  0  0
  150.8012  139.0702  153.2363 H   0  0  0  0  0  0  0  0  0  0  0  0
  150.8863  137.6089  154.1772 H   0  0  0  0  0  0  0  0  0  0  0  0
  148.8397  139.3398  152.4194 H   0  0  0  0  0  0  0  0  0  0  0  0
  146.4585  138.6641  154.0429 H   0  0  0  0  0  0  0  0  0  0  0  0
  146.5154  140.1195  153.0769 H   0  0  0  0  0  0  0  0  0  0  0  0
  145.3274  138.5879  151.6969 H   0  0  0  0  0  0  0  0  0  0  0  0
  146.9293  138.5636  151.0021 H   0  0  0  0  0  0  0  0  0  0  0  0
  146.3738  136.9878  154.2176 H   0  0  0  0  0  0  0  0  0  0  0  0
  144.8093  136.6944  153.4828 H   0  0  0  0  0  0  0  0  0  0  0  0
  147.1167  134.6928  153.7474 H   0  0  0  0  0  0  0  0  0  0  0  0
  145.6169  134.6514  154.6435 H   0  0  0  0  0  0  0  0  0  0  0  0
  145.6053  133.0339  152.7200 H   0  0  0  0  0  0  0  0  0  0  0  0
  144.3294  134.2232  152.5797 H   0  0  0  0  0  0  0  0  0  0  0  0
  147.0254  134.2888  151.1379 H   0  0  0  0  0  0  0  0  0  0  0  0
  145.4694  133.9934  150.4010 H   0  0  0  0  0  0  0  0  0  0  0  0
  144.7185  136.2963  150.9454 H   0  0  0  0  0  0  0  0  0  0  0  0
  146.2165  136.3329  150.0413 H   0  0  0  0  0  0  0  0  0  0  0  0
  147.3900  136.5760  152.1180 H   0  0  0  0  0  0  0  0  0  0  0  0
  1  2  1  0  0  0  0
  1 21  1  0  0  0  0
  1 22  1  0  0  0  0
  1 23  1  0  0  0  0
  2  8  1  0  0  0  0
  2  3  2  0  0  0  0
  3  4  1  0  0  0  0
  4  5  1  0  0  0  0
  4  6  1  0  0  0  0
  5 24  1  0  0  0  0
  5 25  1  0  0  0  0
  5 26  1  0  0  0  0
  6  7  1  0  0  0  0
  6  8  2  0  0  0  0
  7 27  1  0  0  0  0
  7 28  1  0  0  0  0
  7 29  1  0  0  0  0
  8  9  1  0  0  0  0
  9 10  1  0  0  0  0
  9 30  1  0  0  0  0
  9 31  1  0  0  0  0
 10 11  2  0  0  0  0
 10 12  1  0  0  0  0
 12 13  1  0  0  0  0
 12 32  1  0  0  0  0
 13 14  1  0  0  0  0
 13 33  1  0  0  0  0
 13 34  1  0  0  0  0
 14 15  1  0  0  0  0
 14 35  1  0  0  0  0
 14 36  1  0  0  0  0
 15 20  1  0  0  0  0
 15 16  1  0  0  0  0
 15 47  1  0  0  0  0
 16 17  1  0  0  0  0
 16 37  1  0  0  0  0
 16 38  1  0  0  0  0
 17 18  1  0  0  0  0
 17 39  1  0  0  0  0
 17 40  1  0  0  0  0
 18 19  1  0  0  0  0
 18 41  1  0  0  0  0
 18 42  1  0  0  0  0
 19 20  1  0  0  0  0
 19 43  1  0  0  0  0
 19 44  1  0  0  0  0
 20 45  1  0  0  0  0
 20 46  1  0  0  0  0
M  CHG  1  15   1
M  END
> <s_m_source_file>
AV-unprocessed.smi

> <i_m_source_file_index>
1903

> <i_lp_mmshare_version>
43012

> <i_f3d_flags>
0

> <s_epik_input>
W0NIM11jMW5uKFtDSDNdKWMoW0NIM10pYzFbQ0gyXUMoPU8pW05IXVtDSDJdW0NIMl1OMltDSDJdW0NIMl1bQ0gyXVtDSDJdW0NIMl0y

> <s_epik_cmdline>
J2VwaWtfcHl0aG9uJywgJy1waCcsICc3LjAnLCAnLXRuJywgJzgnLCAnLW1hJywgJzIwMCcsICctbWV0YWxfYmluZGluZycsICctaW1hZScsICc8aW5maWxlLm1hZT4nLCAnLW9tYWUnLCAnPG91dGZpbGUubWFlPic=

> <r_lp_tautomer_probability>
1

> <r_epik_Ionization_Penalty>
0.00456445

> <r_epik_Ionization_Penalty_Charging>
0.00240401

> <r_epik_Ionization_Penalty_Neutral>
0.00216044

> <r_epik_State_Penalty>
-0

> <r_epik_Charging_Adjusted_Penalty>
0.00240401

> <i_epik_Tot_Q>
1

> <i_epik_Tot_abs_Q>
1

> <r_epik_Metal_State_Penalty>
-0

> <b_epik_Metal_Only>
0

> <s_lp_Force_Field>
OPLS_2005

> <r_lp_Energy>
10.8117

> <b_lp_Chiralities_Consistent>
1

> <s_lp_Variant>
AV-unprocessed.smi:1903-1

> <Gold.Version>
5.8.1

> <Gold.Id.Protein>
6NUR|6NUR_protein|mol2

> <Gold.PLP.Fitness>
47.4193

> <Gold.PLP.PLP>
-36.1120

> <Gold.PLP.part.hbond>
-3.5762

> <Gold.PLP.part.metal>
0.0000

> <Gold.PLP.part.buried>
-2.7032

> <Gold.PLP.part.nonpolar>
-30.9649

> <Gold.PLP.part.repulsive>
0.2070

> <Gold.PLP.ligand.clash>
0.0000

> <Gold.PLP.ligand.torsion>
0.3185

> <Gold.PLP.Chemscore.Hbond>
3.9500

> <Gold.PLP.Chemscore.CHOScore>
0.0000

> <Gold.PLP.Chemscore.Metal>
0.0000

> <Gold.Chemscore.Hbonds>
donor molecule, donor type, donor heavy atom, donor atom, acceptor molecule, acceptor atom, score
      L1  H    12    32       P1  7957  1.00
      L1  H    15    47       P1  7948  2.00
      P1  H  7997  8010       L1     3  0.90

> <Gold.PLP.Chemscore.Internal.Correction>
0.0942

> <Gold.Rescore>
     Score         DG    S(hbond)    S(metal)    S(lipo)     H(rot)  DE(clash)    DE(int)     intcor
     19.61     -20.21       2.61        0.00      87.35       1.65       0.33       0.26       ----

> <Gold.Chemscore.Fitness>
19.6132

> <Gold.Chemscore.DG>
-20.2077

> <Gold.Chemscore.ZeroCoef>
-5.4800

> <Gold.Chemscore.Hbond>
2.6116

> <Gold.Chemscore.Metal>
0.0000

> <Gold.Chemscore.Lipo>
87.3534

> <Gold.Chemscore.Internal_Hbond>
0.0000

> <Gold.Chemscore.DEClash>
0.3324

> <Gold.Chemscore.DEInternal>
0.2620

> <Gold.Chemscore.Rot>
1.6467

> <Gold.Chemscore.Internal.Correction>
   9.000000E+99

> <Gold.Chemscore.Hbonds>
donor molecule, donor type, donor heavy atom, donor atom, acceptor molecule, acceptor atom, score
      L1  H    12    32       P1  7957  0.99
      L1  H    15    47       P1  7948  0.99
      P1  H  7997  8010       L1     3  0.17

> <Gold.Chemscore.Hbond.Weighted>
-8.7228

> <Gold.Chemscore.Metal.Weighted>
-0.0000

> <Gold.Chemscore.Lipo.Weighted>
-10.2203

> <Gold.Chemscore.Internal_Hbond.Weighted>
0.0000

> <Gold.Chemscore.DEClash.Weighted>
0.3324

> <Gold.Chemscore.DEInternal.Weighted>
0.2620

> <Gold.Chemscore.Rot.Weighted>
4.2155

> <Gold.Chemscore.Internal.Correction.Weighted>
   9.000000E+99

> <Gold.Protein.RotatedTorsions>
[ 6907 6896 6895 6894 ] final  -41.86 input  -60.11 | X-H torsion
[ 7974 7965 7964 7962 ] final -165.00 input  175.53 | X-H torsion
[ 8008 7997 7996 7995 ] final   49.76 input   59.86 | X-H torsion
[ 10167 10162 10161 10158 ] final  -12.13 input  -65.29 | X-H torsion
[ 10718 10713 10712 10709 ] final  142.54 input   66.30 | X-H torsion
[ 10763 10752 10751 10750 ] final  -34.86 input  -60.55 | X-H torsion
[ 11005 11000 10999 10996 ] final -136.00 input  -57.11 | X-H torsion

> <Gold.Protein.ActiveResidues>
 VAL166  LYS551  ARG553  GLY616  TRP617  ASP618  TYR619  PRO620  LYS621  CYS622 
 ASP623  PHE694  ASN695  SER759  ASP760  ASP761  ALA762  ILE779  LEU786  VAL792 
 PHE793  MET794  SER795  GLU796  ALA797  LYS798  CYS799  TRP800  GLU811  SER814 

> <Gold.Protein.RotatedAtoms>
  150.9618  134.9005  159.7735 H   0  0  0  0  0  0  0  0  0  0  0  0  # atno 6907 bound_to 6896
  152.5159  134.3662  159.9312 H   0  0  0  0  0  0  0  0  0  0  0  0  # atno 6908 bound_to 6896
  151.3673  133.3827  159.2730 H   0  0  0  0  0  0  0  0  0  0  0  0  # atno 6909 bound_to 6896
  144.7281  140.2879  143.6225 H   0  0  0  0  0  0  0  0  0  0  0  0  # atno 7974 bound_to 7965
  155.4076  140.3441  155.4261 H   0  0  0  0  0  0  0  0  0  0  0  0  # atno 8008 bound_to 7997
  156.1467  140.1558  156.8866 H   0  0  0  0  0  0  0  0  0  0  0  0  # atno 8009 bound_to 7997
  154.5017  140.0813  156.7792 H   0  0  0  0  0  0  0  0  0  0  0  0  # atno 8010 bound_to 7997
  140.7154  143.5565  150.9243 H   0  0  0  0  0  0  0  0  0  0  0  0  # atno 10167 bound_to 10162
  157.3794  131.0990  151.0753 H   0  0  0  0  0  0  0  0  0  0  0  0  # atno 10718 bound_to 10713
  153.8537  135.6846  153.4790 H   0  0  0  0  0  0  0  0  0  0  0  0  # atno 10763 bound_to 10752
  153.1382  135.4668  154.9453 H   0  0  0  0  0  0  0  0  0  0  0  0  # atno 10764 bound_to 10752
  154.7791  135.3263  154.7978 H   0  0  0  0  0  0  0  0  0  0  0  0  # atno 10765 bound_to 10752
  140.8846  134.1889  157.4569 H   0  0  0  0  0  0  0  0  0  0  0  0  # atno 11005 bound_to 11000
  145.7885  139.1918  143.2117 LP  0  0  0  0  0  0  0  0  0  0  0  0  # atno 17320 bound_to 7965
  146.0776  140.7800  142.9657 LP  0  0  0  0  0  0  0  0  0  0  0  0  # atno 17321 bound_to 7965
  139.9290  143.6516  152.3080 LP  0  0  0  0  0  0  0  0  0  0  0  0  # atno 17342 bound_to 10162
  139.6960  144.7641  151.1356 LP  0  0  0  0  0  0  0  0  0  0  0  0  # atno 17343 bound_to 10162
  157.1828  130.6317  149.5677 LP  0  0  0  0  0  0  0  0  0  0  0  0  # atno 17370 bound_to 10713
  155.9772  130.4748  150.6580 LP  0  0  0  0  0  0  0  0  0  0  0  0  # atno 17371 bound_to 10713
  139.8723  134.9832  156.5188 LP  0  0  0  0  0  0  0  0  0  0  0  0  # atno 17394 bound_to 11000
  140.8420  133.8197  155.9085 LP  0  0  0  0  0  0  0  0  0  0  0  0  # atno 17395 bound_to 11000

$$$$
