AV-unprocessed.smi:1691|AV-procd|sdf|6775|dock1
  -GOLD-   22720 7533D 1   1.00000     0.00000
 Structure written by MMmdl.
 44 45  0  0  0  0  0  0  0  0  2 V2000
  146.9475  139.5555  157.5681 C   0  0  0  0  0  0  0  0  0  0  0  0
  146.4926  139.7430  156.1066 C   0  0  0  0  0  0  0  0  0  0  0  0
  144.9959  139.3910  156.0040 C   0  0  0  0  0  0  0  0  0  0  0  0
  147.3785  138.9343  155.1133 C   0  0  1  0  0  0  0  0  0  0  0  0
  146.9317  139.1102  153.6338 C   0  0  0  0  0  0  0  0  0  0  0  0
  147.0057  137.8756  152.8575 N   0  0  0  0  0  0  0  0  0  0  0  0
  145.9706  137.0776  152.5597 C   0  0  0  0  0  0  0  0  0  0  0  0
  144.8139  137.2990  152.9167 O   0  0  0  0  0  0  0  0  0  0  0  0
  146.3622  136.0281  151.8195 N   0  0  0  0  0  0  0  0  0  0  0  0
  145.5440  134.9933  151.3016 C   0  0  0  0  0  0  0  0  0  0  0  0
  145.8303  133.6041  151.1558 C   0  0  0  0  0  0  0  0  0  0  0  0
  144.8022  132.9558  150.6277 N   0  0  0  0  0  0  0  0  0  0  0  0
  143.8671  133.9127  150.4341 N   0  0  0  0  0  0  0  0  0  0  0  0
  144.2771  135.1667  150.8298 C   0  0  0  0  0  0  0  0  0  0  0  0
  148.8235  139.2448  155.3553 N   0  3  0  0  0  0  0  0  0  0  0  0
  149.7913  138.4632  154.5467 C   0  0  0  0  0  0  0  0  0  0  0  0
  151.2174  138.6944  155.0735 C   0  0  0  0  0  0  0  0  0  0  0  0
  151.5144  140.0860  155.0552 O   0  0  0  0  0  0  0  0  0  0  0  0
  150.6415  140.8329  155.8952 C   0  0  0  0  0  0  0  0  0  0  0  0
  149.1938  140.6816  155.4002 C   0  0  0  0  0  0  0  0  0  0  0  0
  142.9647  133.6962  150.0349 H   0  0  0  0  0  0  0  0  0  0  0  0
  146.9193  138.5051  157.8597 H   0  0  0  0  0  0  0  0  0  0  0  0
  146.3020  140.1048  158.2542 H   0  0  0  0  0  0  0  0  0  0  0  0
  147.9610  139.9212  157.7322 H   0  0  0  0  0  0  0  0  0  0  0  0
  146.5848  140.8037  155.8711 H   0  0  0  0  0  0  0  0  0  0  0  0
  144.8299  138.3199  156.1241 H   0  0  0  0  0  0  0  0  0  0  0  0
  144.5683  139.6955  155.0492 H   0  0  0  0  0  0  0  0  0  0  0  0
  144.4184  139.9015  156.7754 H   0  0  0  0  0  0  0  0  0  0  0  0
  147.2311  137.8833  155.3674 H   0  0  0  0  0  0  0  0  0  0  0  0
  145.8871  139.4147  153.5893 H   0  0  0  0  0  0  0  0  0  0  0  0
  147.4968  139.9176  153.1655 H   0  0  0  0  0  0  0  0  0  0  0  0
  147.9201  137.6046  152.5258 H   0  0  0  0  0  0  0  0  0  0  0  0
  147.3446  135.9655  151.5963 H   0  0  0  0  0  0  0  0  0  0  0  0
  146.7225  133.0492  151.4054 H   0  0  0  0  0  0  0  0  0  0  0  0
  143.6502  136.0418  150.7436 H   0  0  0  0  0  0  0  0  0  0  0  0
  149.5516  137.4007  154.5980 H   0  0  0  0  0  0  0  0  0  0  0  0
  149.7452  138.7545  153.4985 H   0  0  0  0  0  0  0  0  0  0  0  0
  151.3282  138.3002  156.0849 H   0  0  0  0  0  0  0  0  0  0  0  0
  151.9391  138.1700  154.4466 H   0  0  0  0  0  0  0  0  0  0  0  0
  150.7368  140.4981  156.9295 H   0  0  0  0  0  0  0  0  0  0  0  0
  150.9391  141.8813  155.8708 H   0  0  0  0  0  0  0  0  0  0  0  0
  149.1069  141.1302  154.4120 H   0  0  0  0  0  0  0  0  0  0  0  0
  148.5212  141.2271  156.0616 H   0  0  0  0  0  0  0  0  0  0  0  0
  148.9790  138.9117  156.2961 H   0  0  0  0  0  0  0  0  0  0  0  0
  1  2  1  0  0  0  0
  1 22  1  0  0  0  0
  1 23  1  0  0  0  0
  1 24  1  0  0  0  0
  2  3  1  0  0  0  0
  2  4  1  0  0  0  0
  2 25  1  0  0  0  0
  3 26  1  0  0  0  0
  3 27  1  0  0  0  0
  3 28  1  0  0  0  0
  4  5  1  0  0  0  0
  4 15  1  0  0  0  0
  4 29  1  0  0  0  0
  5  6  1  0  0  0  0
  5 30  1  0  0  0  0
  5 31  1  0  0  0  0
  6  7  1  0  0  0  0
  6 32  1  0  0  0  0
  7  8  2  0  0  0  0
  7  9  1  0  0  0  0
  9 10  1  0  0  0  0
  9 33  1  0  0  0  0
 10 14  2  0  0  0  0
 10 11  1  0  0  0  0
 11 12  2  0  0  0  0
 11 34  1  0  0  0  0
 12 13  1  0  0  0  0
 13 21  1  0  0  0  0
 13 14  1  0  0  0  0
 14 35  1  0  0  0  0
 15 20  1  0  0  0  0
 15 16  1  0  0  0  0
 15 44  1  0  0  0  0
 16 17  1  0  0  0  0
 16 36  1  0  0  0  0
 16 37  1  0  0  0  0
 17 18  1  0  0  0  0
 17 38  1  0  0  0  0
 17 39  1  0  0  0  0
 18 19  1  0  0  0  0
 19 20  1  0  0  0  0
 19 40  1  0  0  0  0
 19 41  1  0  0  0  0
 20 42  1  0  0  0  0
 20 43  1  0  0  0  0
M  CHG  1  15   1
M  END
> <s_m_source_file>
AV-unprocessed.smi

> <i_m_source_file_index>
1691

> <i_lp_mmshare_version>
43012

> <i_f3d_flags>
0

> <s_epik_input>
W0NIMl0xW0NIMl1PW0NIMl1bQ0gyXU4xW0NASF0oW0NIXShbQ0gzXSlbQ0gzXSlbQ0gyXVtOSF1DKD1PKVtOSF1jMltjSF1uW25IXVtjSF0y

> <s_epik_cmdline>
J2VwaWtfcHl0aG9uJywgJy1waCcsICc3LjAnLCAnLXRuJywgJzgnLCAnLW1hJywgJzIwMCcsICctbWV0YWxfYmluZGluZycsICctaW1hZScsICc8aW5maWxlLm1hZT4nLCAnLW9tYWUnLCAnPG91dGZpbGUubWFlPic=

> <r_lp_tautomer_probability>
0.5

> <r_epik_Ionization_Penalty>
0.363378

> <r_epik_Ionization_Penalty_Charging>
0.363339

> <r_epik_Ionization_Penalty_Neutral>
3.97246e-05

> <r_epik_State_Penalty>
0.36031

> <r_epik_Charging_Adjusted_Penalty>
0.723649

> <i_epik_Tot_Q>
1

> <i_epik_Tot_abs_Q>
1

> <r_epik_Metal_State_Penalty>
0.360311

> <b_epik_Metal_Only>
0

> <s_lp_Force_Field>
OPLS_2005

> <r_lp_Energy>
33.682

> <b_lp_Chiralities_Consistent>
1

> <s_lp_Variant>
AV-unprocessed.smi:1691-2

> <Gold.Version>
5.8.1

> <Gold.Id.Protein>
6NUR|6NUR_protein|mol2

> <Gold.PLP.Fitness>
41.8147

> <Gold.PLP.PLP>
-28.5804

> <Gold.PLP.part.hbond>
-4.0000

> <Gold.PLP.part.metal>
0.0000

> <Gold.PLP.part.buried>
-5.9199

> <Gold.PLP.part.nonpolar>
-20.7916

> <Gold.PLP.part.repulsive>
0.6149

> <Gold.PLP.ligand.clash>
0.0000

> <Gold.PLP.ligand.torsion>
1.0213

> <Gold.PLP.Chemscore.Hbond>
3.9520

> <Gold.PLP.Chemscore.CHOScore>
1.0000

> <Gold.PLP.Chemscore.Metal>
0.0000

> <Gold.Chemscore.Hbonds>
donor molecule, donor type, donor heavy atom, donor atom, acceptor molecule, acceptor atom, score
      L1  H     6    32       P1  7948  0.93
      L1  H     9    33       P1  7948  1.00
      L1  H    13    21       P1 10186  0.66
      P1  H  7989  7998       L1    18  1.00
      L1  C    14    35       P1 10171  0.58

> <Gold.PLP.Chemscore.Internal.Correction>
0.4209

> <Gold.Rescore>
     Score         DG    S(hbond)    S(metal)    S(lipo)     H(rot)  DE(clash)    DE(int)     intcor
     16.98     -18.55       3.34        0.00      56.70       1.84       0.13       1.45       ----

> <Gold.Chemscore.Fitness>
16.9780

> <Gold.Chemscore.DG>
-18.5542

> <Gold.Chemscore.ZeroCoef>
-5.4800

> <Gold.Chemscore.Hbond>
3.3403

> <Gold.Chemscore.Metal>
0.0000

> <Gold.Chemscore.Lipo>
56.7046

> <Gold.Chemscore.Internal_Hbond>
0.0000

> <Gold.Chemscore.DEClash>
0.1306

> <Gold.Chemscore.DEInternal>
1.4456

> <Gold.Chemscore.Rot>
1.8425

> <Gold.Chemscore.Internal.Correction>
   9.000000E+99

> <Gold.Chemscore.Hbonds>
donor molecule, donor type, donor heavy atom, donor atom, acceptor molecule, acceptor atom, score
      L1  H     6    32       P1  7948  0.91
      L1  H     9    33       P1  7948  0.98
      L1  H    13    21       P1 10186  0.63
      P1  H  7989  7998       L1    18  0.69

> <Gold.Chemscore.Hbond.Weighted>
-11.1566

> <Gold.Chemscore.Metal.Weighted>
-0.0000

> <Gold.Chemscore.Lipo.Weighted>
-6.6344

> <Gold.Chemscore.Internal_Hbond.Weighted>
0.0000

> <Gold.Chemscore.DEClash.Weighted>
0.1306

> <Gold.Chemscore.DEInternal.Weighted>
1.4456

> <Gold.Chemscore.Rot.Weighted>
4.7168

> <Gold.Chemscore.Internal.Correction.Weighted>
   9.000000E+99

> <Gold.Protein.RotatedTorsions>
[ 6907 6896 6895 6894 ] final -116.65 input  -60.11 | X-H torsion
[ 7974 7965 7964 7962 ] final  -78.81 input  175.53 | X-H torsion
[ 8008 7997 7996 7995 ] final   42.35 input   59.86 | X-H torsion
[ 10167 10162 10161 10158 ] final -149.38 input  -65.29 | X-H torsion
[ 10718 10713 10712 10709 ] final  -60.87 input   66.30 | X-H torsion
[ 10763 10752 10751 10750 ] final   -9.59 input  -60.55 | X-H torsion
[ 11005 11000 10999 10996 ] final -170.17 input  -57.11 | X-H torsion

> <Gold.Protein.ActiveResidues>
 VAL166  LYS551  ARG553  GLY616  TRP617  ASP618  TYR619  PRO620  LYS621  CYS622 
 ASP623  PHE694  ASN695  SER759  ASP760  ASP761  ALA762  ILE779  LEU786  VAL792 
 PHE793  MET794  SER795  GLU796  ALA797  LYS798  CYS799  TRP800  GLU811  SER814 

> <Gold.Protein.RotatedAtoms>
  150.8073  133.8486  159.3198 H   0  0  0  0  0  0  0  0  0  0  0  0  # atno 6907 bound_to 6896
  151.6282  135.1024  160.0125 H   0  0  0  0  0  0  0  0  0  0  0  0  # atno 6908 bound_to 6896
  152.4164  133.7005  159.6478 H   0  0  0  0  0  0  0  0  0  0  0  0  # atno 6909 bound_to 6896
  145.5816  140.9447  143.1341 H   0  0  0  0  0  0  0  0  0  0  0  0  # atno 7974 bound_to 7965
  155.2847  140.3375  155.4256 H   0  0  0  0  0  0  0  0  0  0  0  0  # atno 8008 bound_to 7997
  156.2074  140.1756  156.7811 H   0  0  0  0  0  0  0  0  0  0  0  0  # atno 8009 bound_to 7997
  154.5639  140.0682  156.8845 H   0  0  0  0  0  0  0  0  0  0  0  0  # atno 8010 bound_to 7997
  139.7448  143.8608  152.2571 H   0  0  0  0  0  0  0  0  0  0  0  0  # atno 10167 bound_to 10162
  156.0960  130.4193  150.0915 H   0  0  0  0  0  0  0  0  0  0  0  0  # atno 10718 bound_to 10713
  153.4570  135.7015  153.6074 H   0  0  0  0  0  0  0  0  0  0  0  0  # atno 10763 bound_to 10752
  153.4384  135.3786  155.2213 H   0  0  0  0  0  0  0  0  0  0  0  0  # atno 10764 bound_to 10752
  154.8728  135.3968  154.3990 H   0  0  0  0  0  0  0  0  0  0  0  0  # atno 10765 bound_to 10752
  140.5225  134.5696  157.5052 H   0  0  0  0  0  0  0  0  0  0  0  0  # atno 11005 bound_to 11000
  144.7391  139.7499  143.7317 LP  0  0  0  0  0  0  0  0  0  0  0  0  # atno 17320 bound_to 7965
  146.1712  139.4864  142.9926 LP  0  0  0  0  0  0  0  0  0  0  0  0  # atno 17321 bound_to 7965
  139.8569  144.7137  150.9146 LP  0  0  0  0  0  0  0  0  0  0  0  0  # atno 17342 bound_to 10162
  140.7790  143.3851  151.1408 LP  0  0  0  0  0  0  0  0  0  0  0  0  # atno 17343 bound_to 10162
  156.8914  130.9589  151.3588 LP  0  0  0  0  0  0  0  0  0  0  0  0  # atno 17370 bound_to 10713
  157.6121  130.8591  149.8969 LP  0  0  0  0  0  0  0  0  0  0  0  0  # atno 17371 bound_to 10713
  139.9598  134.7472  156.0261 LP  0  0  0  0  0  0  0  0  0  0  0  0  # atno 17394 bound_to 11000
  141.1326  133.6582  156.3507 LP  0  0  0  0  0  0  0  0  0  0  0  0  # atno 17395 bound_to 11000

$$$$
