AV-unprocessed.smi:766|AV-procd|sdf|3656|dock4
  -GOLD-   22720 1 63D 1   1.00000     0.00000
 Structure written by MMmdl.
 46 48  0  0  0  0  0  0  0  0  1 V2000
  153.9468  141.8924  162.3490 C   0  0  0  0  0  0  0  0  0  0  0  0
  153.2570  141.8152  160.9985 C   0  0  0  0  0  0  0  0  0  0  0  0
  153.5210  140.7132  160.1542 C   0  0  0  0  0  0  0  0  0  0  0  0
  152.9038  140.6061  158.8888 C   0  0  0  0  0  0  0  0  0  0  0  0
  153.0186  139.6314  157.9126 N   0  0  0  0  0  0  0  0  0  0  0  0
  152.2046  140.1002  156.9716 C   0  0  0  0  0  0  0  0  0  0  0  0
  151.5714  141.2621  157.2244 N   0  0  0  0  0  0  0  0  0  0  0  0
  150.6447  141.9640  156.3542 C   0  0  0  0  0  0  0  0  0  0  0  0
  149.3157  141.2030  156.1562 C   0  0  1  0  0  0  0  0  0  0  0  0
  148.2616  142.1186  155.9425 O   0  0  0  0  0  0  0  0  0  0  0  0
  149.3113  140.1431  155.0359 C   0  0  0  0  0  0  0  0  0  0  0  0
  148.0150  139.4830  154.9089 N   0  0  0  0  0  0  0  0  0  0  0  0
  147.3985  139.6519  153.5969 C   0  0  0  0  0  0  0  0  0  0  0  0
  147.3737  141.1298  153.1749 C   0  0  0  0  0  0  0  0  0  0  0  0
  146.4993  141.9283  154.0164 N   0  0  0  0  0  0  0  0  0  0  0  0
  146.1025  143.2377  153.8429 C   0  0  0  0  0  0  0  0  0  0  0  0
  145.2791  143.5546  154.8853 C   0  0  0  0  0  0  0  0  0  0  0  0
  145.2347  142.3594  155.6562 C   0  0  0  0  0  0  0  0  0  0  0  0
  145.9699  141.3897  155.1365 N   0  0  0  0  0  0  0  0  0  0  0  0
  152.0066  141.6394  158.4890 C   0  0  0  0  0  0  0  0  0  0  0  0
  151.7331  142.7389  159.3212 C   0  0  0  0  0  0  0  0  0  0  0  0
  152.3596  142.8311  160.5816 C   0  0  0  0  0  0  0  0  0  0  0  0
  152.0605  144.0246  161.4714 C   0  0  0  0  0  0  0  0  0  0  0  0
  154.6234  141.0508  162.5000 H   0  0  0  0  0  0  0  0  0  0  0  0
  153.2112  141.8795  163.1534 H   0  0  0  0  0  0  0  0  0  0  0  0
  154.5320  142.8088  162.4282 H   0  0  0  0  0  0  0  0  0  0  0  0
  154.2043  139.9389  160.4707 H   0  0  0  0  0  0  0  0  0  0  0  0
  152.0551  139.5674  156.0447 H   0  0  0  0  0  0  0  0  0  0  0  0
  150.4548  142.9502  156.7797 H   0  0  0  0  0  0  0  0  0  0  0  0
  151.1352  142.1324  155.3943 H   0  0  0  0  0  0  0  0  0  0  0  0
  149.0811  140.6881  157.0885 H   0  0  0  0  0  0  0  0  0  0  0  0
  148.5688  142.9852  156.1614 H   0  0  0  0  0  0  0  0  0  0  0  0
  149.5619  140.6279  154.0913 H   0  0  0  0  0  0  0  0  0  0  0  0
  150.0959  139.4073  155.2172 H   0  0  0  0  0  0  0  0  0  0  0  0
  148.1106  138.4953  155.1232 H   0  0  0  0  0  0  0  0  0  0  0  0
  147.9346  139.0654  152.8497 H   0  0  0  0  0  0  0  0  0  0  0  0
  146.3787  139.2666  153.6192 H   0  0  0  0  0  0  0  0  0  0  0  0
  148.3786  141.5498  153.2340 H   0  0  0  0  0  0  0  0  0  0  0  0
  147.0543  141.2287  152.1365 H   0  0  0  0  0  0  0  0  0  0  0  0
  146.4309  143.8264  152.9990 H   0  0  0  0  0  0  0  0  0  0  0  0
  144.7816  144.4955  155.0682 H   0  0  0  0  0  0  0  0  0  0  0  0
  144.6940  142.1690  156.5716 H   0  0  0  0  0  0  0  0  0  0  0  0
  151.0486  143.5054  158.9893 H   0  0  0  0  0  0  0  0  0  0  0  0
  151.3358  144.6943  161.0074 H   0  0  0  0  0  0  0  0  0  0  0  0
  152.9696  144.5952  161.6625 H   0  0  0  0  0  0  0  0  0  0  0  0
  151.6493  143.6968  162.4263 H   0  0  0  0  0  0  0  0  0  0  0  0
  1  2  1  0  0  0  0
  1 24  1  0  0  0  0
  1 25  1  0  0  0  0
  1 26  1  0  0  0  0
  2 22  1  0  0  0  0
  2  3  2  0  0  0  0
  3  4  1  0  0  0  0
  3 27  1  0  0  0  0
  4 20  2  0  0  0  0
  4  5  1  0  0  0  0
  5  6  2  0  0  0  0
  6  7  1  0  0  0  0
  6 28  1  0  0  0  0
  7  8  1  0  0  0  0
  7 20  1  0  0  0  0
  8  9  1  0  0  0  0
  8 29  1  0  0  0  0
  8 30  1  0  0  0  0
  9 10  1  0  0  0  0
  9 11  1  0  0  0  0
  9 31  1  0  0  0  0
 10 32  1  0  0  0  0
 11 12  1  0  0  0  0
 11 33  1  0  0  0  0
 11 34  1  0  0  0  0
 12 13  1  0  0  0  0
 12 35  1  0  0  0  0
 13 14  1  0  0  0  0
 13 36  1  0  0  0  0
 13 37  1  0  0  0  0
 14 15  1  0  0  0  0
 14 38  1  0  0  0  0
 14 39  1  0  0  0  0
 15 19  1  0  0  0  0
 15 16  1  0  0  0  0
 16 17  2  0  0  0  0
 16 40  1  0  0  0  0
 17 18  1  0  0  0  0
 17 41  1  0  0  0  0
 18 19  2  0  0  0  0
 18 42  1  0  0  0  0
 20 21  1  0  0  0  0
 21 22  2  0  0  0  0
 21 43  1  0  0  0  0
 22 23  1  0  0  0  0
 23 44  1  0  0  0  0
 23 45  1  0  0  0  0
 23 46  1  0  0  0  0
M  END
> <s_m_source_file>
AV-unprocessed.smi

> <i_m_source_file_index>
766

> <i_lp_mmshare_version>
43012

> <i_f3d_flags>
0

> <s_epik_input>
W0NIM11jKFtjSF0xKWMoW0NIM10pW2NIXWMoYzEyKW4oW2NIXW4yKVtDSDJdW0NASF0oW09IXSlbQ0gyXVtOSF1bQ0gyXVtDSDJdbjNbY0hdW2NIXVtjSF1uMw==

> <s_epik_cmdline>
J2VwaWtfcHl0aG9uJywgJy1waCcsICc3LjAnLCAnLXRuJywgJzgnLCAnLW1hJywgJzIwMCcsICctbWV0YWxfYmluZGluZycsICctaW1hZScsICc8aW5maWxlLm1hZT4nLCAnLW9tYWUnLCAnPG91dGZpbGUubWFlPic=

> <r_lp_tautomer_probability>
1

> <r_epik_Ionization_Penalty>
1.68727

> <r_epik_Ionization_Penalty_Charging>
0

> <r_epik_Ionization_Penalty_Neutral>
1.68727

> <r_epik_State_Penalty>
1.78741

> <r_epik_Charging_Adjusted_Penalty>
1.78741

> <i_epik_Tot_Q>
0

> <i_epik_Tot_abs_Q>
0

> <r_epik_Metal_State_Penalty>
1.73664

> <b_epik_Metal_Only>
0

> <s_lp_Force_Field>
OPLS_2005

> <r_lp_Energy>
18.4914

> <b_lp_Chiralities_Consistent>
1

> <s_lp_Variant>
AV-unprocessed.smi:766-6

> <Gold.Version>
5.8.1

> <Gold.Id.Protein>
6NUR|6NUR_protein|mol2

> <Gold.PLP.Fitness>
53.6057

> <Gold.PLP.PLP>
-49.1469

> <Gold.PLP.part.hbond>
-2.0000

> <Gold.PLP.part.metal>
0.0000

> <Gold.PLP.part.buried>
-4.1522

> <Gold.PLP.part.nonpolar>
-41.8068

> <Gold.PLP.part.repulsive>
0.1215

> <Gold.PLP.ligand.clash>
0.0000

> <Gold.PLP.ligand.torsion>
0.8802

> <Gold.PLP.Chemscore.Hbond>
2.0000

> <Gold.PLP.Chemscore.CHOScore>
0.0000

> <Gold.PLP.Chemscore.Metal>
0.0000

> <Gold.Chemscore.Hbonds>
donor molecule, donor type, donor heavy atom, donor atom, acceptor molecule, acceptor atom, score
      L1  H    10    32       P1  8028  0.98
      P1  H  7997  8008       L1     5  1.00

> <Gold.PLP.Chemscore.Internal.Correction>
0.2193

> <Gold.Rescore>
     Score         DG    S(hbond)    S(metal)    S(lipo)     H(rot)  DE(clash)    DE(int)     intcor
     12.06     -17.65       1.32        0.00     128.39       2.83       0.26       5.34       ----

> <Gold.Chemscore.Fitness>
12.0557

> <Gold.Chemscore.DG>
-17.6546

> <Gold.Chemscore.ZeroCoef>
-5.4800

> <Gold.Chemscore.Hbond>
1.3203

> <Gold.Chemscore.Metal>
0.0000

> <Gold.Chemscore.Lipo>
128.3920

> <Gold.Chemscore.Internal_Hbond>
0.0000

> <Gold.Chemscore.DEClash>
0.2581

> <Gold.Chemscore.DEInternal>
5.3408

> <Gold.Chemscore.Rot>
2.8348

> <Gold.Chemscore.Internal.Correction>
   9.000000E+99

> <Gold.Chemscore.Hbonds>
donor molecule, donor type, donor heavy atom, donor atom, acceptor molecule, acceptor atom, score
      L1  H    10    32       P1  8028  0.90
      P1  H  7997  8008       L1     5  0.08

> <Gold.Chemscore.Hbond.Weighted>
-4.4099

> <Gold.Chemscore.Metal.Weighted>
-0.0000

> <Gold.Chemscore.Lipo.Weighted>
-15.0219

> <Gold.Chemscore.Internal_Hbond.Weighted>
0.0000

> <Gold.Chemscore.DEClash.Weighted>
0.2581

> <Gold.Chemscore.DEInternal.Weighted>
5.3408

> <Gold.Chemscore.Rot.Weighted>
7.2572

> <Gold.Chemscore.Internal.Correction.Weighted>
   9.000000E+99

> <Gold.Protein.RotatedTorsions>
[ 6907 6896 6895 6894 ] final   76.97 input  -60.11 | X-H torsion
[ 7974 7965 7964 7962 ] final   75.11 input  175.53 | X-H torsion
[ 8008 7997 7996 7995 ] final  -96.37 input   59.86 | X-H torsion
[ 10167 10162 10161 10158 ] final  -63.59 input  -65.29 | X-H torsion
[ 10718 10713 10712 10709 ] final  142.44 input   66.30 | X-H torsion
[ 10763 10752 10751 10750 ] final   58.38 input  -60.55 | X-H torsion
[ 11005 11000 10999 10996 ] final -124.58 input  -57.11 | X-H torsion

> <Gold.Protein.ActiveResidues>
 VAL166  LYS551  ARG553  GLY616  TRP617  ASP618  TYR619  PRO620  LYS621  CYS622 
 ASP623  PHE694  ASN695  SER759  ASP760  ASP761  ALA762  ILE779  LEU786  VAL792 
 PHE793  MET794  SER795  GLU796  ALA797  LYS798  CYS799  TRP800  GLU811  SER814 

> <Gold.Protein.RotatedAtoms>
  152.5097  134.3888  159.9376 H   0  0  0  0  0  0  0  0  0  0  0  0  # atno 6907 bound_to 6896
  151.3847  133.3803  159.2722 H   0  0  0  0  0  0  0  0  0  0  0  0  # atno 6908 bound_to 6896
  150.9478  134.8901  159.7711 H   0  0  0  0  0  0  0  0  0  0  0  0  # atno 6909 bound_to 6896
  145.7197  139.2644  143.1603 H   0  0  0  0  0  0  0  0  0  0  0  0  # atno 7974 bound_to 7965
  154.7736  140.0472  157.1071 H   0  0  0  0  0  0  0  0  0  0  0  0  # atno 8008 bound_to 7997
  154.9791  140.3099  155.4935 H   0  0  0  0  0  0  0  0  0  0  0  0  # atno 8009 bound_to 7997
  156.2925  140.2239  156.4888 H   0  0  0  0  0  0  0  0  0  0  0  0  # atno 8010 bound_to 7997
  140.5860  143.2334  151.6242 H   0  0  0  0  0  0  0  0  0  0  0  0  # atno 10167 bound_to 10162
  157.3805  131.0991  151.0743 H   0  0  0  0  0  0  0  0  0  0  0  0  # atno 10718 bound_to 10713
  152.9869  135.5609  154.5542 H   0  0  0  0  0  0  0  0  0  0  0  0  # atno 10763 bound_to 10752
  154.4973  135.2795  155.1451 H   0  0  0  0  0  0  0  0  0  0  0  0  # atno 10764 bound_to 10752
  154.2895  135.6329  153.5432 H   0  0  0  0  0  0  0  0  0  0  0  0  # atno 10765 bound_to 10752
  140.9830  134.0646  157.3743 H   0  0  0  0  0  0  0  0  0  0  0  0  # atno 11005 bound_to 11000
  146.0637  140.7944  142.9722 LP  0  0  0  0  0  0  0  0  0  0  0  0  # atno 17320 bound_to 7965
  144.6920  140.3235  143.7228 LP  0  0  0  0  0  0  0  0  0  0  0  0  # atno 17321 bound_to 7965
  139.5198  144.3243  152.0883 LP  0  0  0  0  0  0  0  0  0  0  0  0  # atno 17342 bound_to 10162
  140.2400  144.4279  150.6264 LP  0  0  0  0  0  0  0  0  0  0  0  0  # atno 17343 bound_to 10162
  157.1814  130.6311  149.5673 LP  0  0  0  0  0  0  0  0  0  0  0  0  # atno 17370 bound_to 10713
  155.9774  130.4752  150.6595 LP  0  0  0  0  0  0  0  0  0  0  0  0  # atno 17371 bound_to 10713
  139.8958  135.0143  156.7021 LP  0  0  0  0  0  0  0  0  0  0  0  0  # atno 17394 bound_to 11000
  140.7157  133.9184  155.8113 LP  0  0  0  0  0  0  0  0  0  0  0  0  # atno 17395 bound_to 11000

$$$$
