AV-unprocessed.smi:837|AV-procd|sdf|3892|dock6
  -GOLD-   22720 1353D 1   1.00000     0.00000
 Structure written by MMmdl.
 49 51  0  0  0  0  0  0  0  0  1 V2000
  152.1668  139.1265  158.4635 C   0  0  0  0  0  0  0  0  0  0  0  0
  152.2546  140.6011  158.0133 C   0  0  2  0  0  0  0  0  0  0  0  0
  152.2546  141.5310  159.2461 C   0  0  0  0  0  0  0  0  0  0  0  0
  152.4028  143.0095  158.8543 C   0  0  0  0  0  0  0  0  0  0  0  0
  151.3085  143.4372  157.8667 C   0  0  0  0  0  0  0  0  0  0  0  0
  151.3082  142.5334  156.6239 C   0  0  0  0  0  0  0  0  0  0  0  0
  151.1564  141.0384  156.9940 C   0  0  2  0  0  0  0  0  0  0  0  0
  149.8145  140.7526  157.4745 N   0  0  0  0  0  0  0  0  0  0  0  0
  149.1482  139.8992  156.6865 C   0  0  0  0  0  0  0  0  0  0  0  0
  148.0053  139.4929  156.8893 O   0  0  0  0  0  0  0  0  0  0  0  0
  149.9454  139.5660  155.6553 N   0  0  0  0  0  0  0  0  0  0  0  0
  149.5901  138.6076  154.6019 C   0  0  0  0  0  0  0  0  0  0  0  0
  149.4805  137.1712  155.1308 C   0  0  0  0  0  0  0  0  0  0  0  0
  149.5917  136.9352  156.3344 O   0  0  0  0  0  0  0  0  0  0  0  0
  149.2522  136.2197  154.2135 N   0  0  0  0  0  0  0  0  0  0  0  0
  149.1359  134.7913  154.4924 C   0  0  0  0  0  0  0  0  0  0  0  0
  147.6830  134.2776  154.4279 C   0  0  0  0  0  0  0  0  0  0  0  0
  147.0703  134.3544  153.0399 C   0  0  0  0  0  0  0  0  0  0  0  0
  147.4418  133.4402  152.0323 C   0  0  0  0  0  0  0  0  0  0  0  0
  146.8538  133.5578  150.7586 C   0  0  0  0  0  0  0  0  0  0  0  0
  145.9155  134.5871  150.5462 C   0  0  0  0  0  0  0  0  0  0  0  0
  145.5498  135.4665  151.5040 N   0  0  0  0  0  0  0  0  0  0  0  0
  146.1186  135.3464  152.7230 C   0  0  0  0  0  0  0  0  0  0  0  0
  151.1351  140.1769  155.7383 C   0  0  0  0  0  0  0  0  0  0  0  0
  152.0797  140.0743  154.9554 O   0  0  0  0  0  0  0  0  0  0  0  0
  151.2359  138.9225  158.9928 H   0  0  0  0  0  0  0  0  0  0  0  0
  152.9862  138.8778  159.1383 H   0  0  0  0  0  0  0  0  0  0  0  0
  152.2279  138.4370  157.6222 H   0  0  0  0  0  0  0  0  0  0  0  0
  153.2218  140.7221  157.5222 H   0  0  0  0  0  0  0  0  0  0  0  0
  151.3316  141.3970  159.8119 H   0  0  0  0  0  0  0  0  0  0  0  0
  153.0671  141.2554  159.9194 H   0  0  0  0  0  0  0  0  0  0  0  0
  152.3622  143.6356  159.7461 H   0  0  0  0  0  0  0  0  0  0  0  0
  153.3840  143.1726  158.4065 H   0  0  0  0  0  0  0  0  0  0  0  0
  150.3343  143.3979  158.3556 H   0  0  0  0  0  0  0  0  0  0  0  0
  151.4624  144.4750  157.5699 H   0  0  0  0  0  0  0  0  0  0  0  0
  150.5115  142.8452  155.9462 H   0  0  0  0  0  0  0  0  0  0  0  0
  152.2427  142.6840  156.0809 H   0  0  0  0  0  0  0  0  0  0  0  0
  149.4420  141.1517  158.3239 H   0  0  0  0  0  0  0  0  0  0  0  0
  148.6386  138.8803  154.1429 H   0  0  0  0  0  0  0  0  0  0  0  0
  150.3307  138.6524  153.8008 H   0  0  0  0  0  0  0  0  0  0  0  0
  149.1731  136.5026  153.2473 H   0  0  0  0  0  0  0  0  0  0  0  0
  149.7720  134.2220  153.8131 H   0  0  0  0  0  0  0  0  0  0  0  0
  149.5321  134.6268  155.4947 H   0  0  0  0  0  0  0  0  0  0  0  0
  147.6422  133.2442  154.7747 H   0  0  0  0  0  0  0  0  0  0  0  0
  147.0617  134.8482  155.1188 H   0  0  0  0  0  0  0  0  0  0  0  0
  148.1703  132.6671  152.2270 H   0  0  0  0  0  0  0  0  0  0  0  0
  147.1205  132.8781  149.9630 H   0  0  0  0  0  0  0  0  0  0  0  0
  145.4465  134.7078  149.5810 H   0  0  0  0  0  0  0  0  0  0  0  0
  145.8081  136.0660  153.4663 H   0  0  0  0  0  0  0  0  0  0  0  0
  1  2  1  0  0  0  0
  1 26  1  0  0  0  0
  1 27  1  0  0  0  0
  1 28  1  0  0  0  0
  2  7  1  0  0  0  0
  2  3  1  0  0  0  0
  2 29  1  0  0  0  0
  3  4  1  0  0  0  0
  3 30  1  0  0  0  0
  3 31  1  0  0  0  0
  4  5  1  0  0  0  0
  4 32  1  0  0  0  0
  4 33  1  0  0  0  0
  5  6  1  0  0  0  0
  5 34  1  0  0  0  0
  5 35  1  0  0  0  0
  6  7  1  0  0  0  0
  6 36  1  0  0  0  0
  6 37  1  0  0  0  0
  7 24  1  0  0  0  0
  7  8  1  0  0  0  0
  8  9  1  0  0  0  0
  8 38  1  0  0  0  0
  9 10  2  0  0  0  0
  9 11  1  0  0  0  0
 11 12  1  0  0  0  0
 11 24  1  0  0  0  0
 12 13  1  0  0  0  0
 12 39  1  0  0  0  0
 12 40  1  0  0  0  0
 13 14  2  0  0  0  0
 13 15  1  0  0  0  0
 15 16  1  0  0  0  0
 15 41  1  0  0  0  0
 16 17  1  0  0  0  0
 16 42  1  0  0  0  0
 16 43  1  0  0  0  0
 17 18  1  0  0  0  0
 17 44  1  0  0  0  0
 17 45  1  0  0  0  0
 18 23  1  0  0  0  0
 18 19  2  0  0  0  0
 19 20  1  0  0  0  0
 19 46  1  0  0  0  0
 20 21  2  0  0  0  0
 20 47  1  0  0  0  0
 21 22  1  0  0  0  0
 21 48  1  0  0  0  0
 22 23  2  0  0  0  0
 23 49  1  0  0  0  0
 24 25  2  0  0  0  0
M  END
> <s_m_source_file>
AV-unprocessed.smi

> <i_m_source_file_index>
837

> <i_lp_mmshare_version>
43012

> <i_f3d_flags>
0

> <s_epik_input>
W0NIMl0xW0NIMl1bQ0gyXVtDSDJdW0NAQEhdKFtDSDNdKVtDQEBdMTJbTkhdQyg9TylOKEMyPU8pW0NIMl1DKD1PKVtOSF1bQ0gyXVtDSDJdYzNbY0hdW2NIXVtjSF1uW2NIXTM=

> <s_epik_cmdline>
J2VwaWtfcHl0aG9uJywgJy1waCcsICc3LjAnLCAnLXRuJywgJzgnLCAnLW1hJywgJzIwMCcsICctbWV0YWxfYmluZGluZycsICctaW1hZScsICc8aW5maWxlLm1hZT4nLCAnLW9tYWUnLCAnPG91dGZpbGUubWFlPic=

> <r_lp_tautomer_probability>
1

> <r_epik_Ionization_Penalty>
0.0127837

> <r_epik_Ionization_Penalty_Charging>
0

> <r_epik_Ionization_Penalty_Neutral>
0.0127837

> <r_epik_State_Penalty>
0.00987657

> <r_epik_Charging_Adjusted_Penalty>
0.00987657

> <i_epik_Tot_Q>
0

> <i_epik_Tot_abs_Q>
0

> <r_epik_Metal_State_Penalty>
0.0309865

> <b_epik_Metal_Only>
0

> <s_lp_Force_Field>
OPLS_2005

> <r_lp_Energy>
21.3574

> <b_lp_Chiralities_Consistent>
1

> <s_lp_Variant>
AV-unprocessed.smi:837-1

> <Gold.Version>
5.8.1

> <Gold.Id.Protein>
6NUR|6NUR_protein|mol2

> <Gold.PLP.Fitness>
43.6203

> <Gold.PLP.PLP>
-35.8505

> <Gold.PLP.part.hbond>
-2.0000

> <Gold.PLP.part.metal>
0.0000

> <Gold.PLP.part.buried>
-4.3162

> <Gold.PLP.part.nonpolar>
-29.9584

> <Gold.PLP.part.repulsive>
0.3097

> <Gold.PLP.ligand.clash>
0.0000

> <Gold.PLP.ligand.torsion>
0.3822

> <Gold.PLP.Chemscore.Hbond>
1.8320

> <Gold.PLP.Chemscore.CHOScore>
1.0000

> <Gold.PLP.Chemscore.Metal>
0.0000

> <Gold.Chemscore.Hbonds>
donor molecule, donor type, donor heavy atom, donor atom, acceptor molecule, acceptor atom, score
      L1  H    15    41       P1  7948  0.70
      P1  H  7989  7998       L1    25  0.77
      L1  C    21    48       P1  7921  1.00

> <Gold.PLP.Chemscore.Internal.Correction>
0.0382

> <Gold.Rescore>
     Score         DG    S(hbond)    S(metal)    S(lipo)     H(rot)  DE(clash)    DE(int)     intcor
     17.65     -18.07       1.91        0.00      93.65       1.86       0.09       0.33       ----

> <Gold.Chemscore.Fitness>
17.6481

> <Gold.Chemscore.DG>
-18.0704

> <Gold.Chemscore.ZeroCoef>
-5.4800

> <Gold.Chemscore.Hbond>
1.9112

> <Gold.Chemscore.Metal>
0.0000

> <Gold.Chemscore.Lipo>
93.6477

> <Gold.Chemscore.Internal_Hbond>
0.0000

> <Gold.Chemscore.DEClash>
0.0885

> <Gold.Chemscore.DEInternal>
0.3338

> <Gold.Chemscore.Rot>
1.8553

> <Gold.Chemscore.Internal.Correction>
   9.000000E+99

> <Gold.Chemscore.Hbonds>
donor molecule, donor type, donor heavy atom, donor atom, acceptor molecule, acceptor atom, score
      L1  H    15    41       P1  7948  0.64
      P1  H  7989  7998       L1    25  0.54

> <Gold.Chemscore.Hbond.Weighted>
-6.3833

> <Gold.Chemscore.Metal.Weighted>
-0.0000

> <Gold.Chemscore.Lipo.Weighted>
-10.9568

> <Gold.Chemscore.Internal_Hbond.Weighted>
0.0000

> <Gold.Chemscore.DEClash.Weighted>
0.0885

> <Gold.Chemscore.DEInternal.Weighted>
0.3338

> <Gold.Chemscore.Rot.Weighted>
4.7497

> <Gold.Chemscore.Internal.Correction.Weighted>
   9.000000E+99

> <Gold.Protein.RotatedTorsions>
[ 6907 6896 6895 6894 ] final -126.01 input  -60.11 | X-H torsion
[ 7974 7965 7964 7962 ] final   82.07 input  175.53 | X-H torsion
[ 8008 7997 7996 7995 ] final   95.08 input   59.86 | X-H torsion
[ 10167 10162 10161 10158 ] final   84.49 input  -65.29 | X-H torsion
[ 10718 10713 10712 10709 ] final  -47.90 input   66.30 | X-H torsion
[ 10763 10752 10751 10750 ] final   27.75 input  -60.55 | X-H torsion
[ 11005 11000 10999 10996 ] final  146.32 input  -57.11 | X-H torsion

> <Gold.Protein.ActiveResidues>
 VAL166  LYS551  ARG553  GLY616  TRP617  ASP618  TYR619  PRO620  LYS621  CYS622 
 ASP623  PHE694  ASN695  SER759  ASP760  ASP761  ALA762  ILE779  LEU786  VAL792 
 PHE793  MET794  SER795  GLU796  ALA797  LYS798  CYS799  TRP800  GLU811  SER814 

> <Gold.Protein.RotatedAtoms>
  150.8925  133.7224  159.2900 H   0  0  0  0  0  0  0  0  0  0  0  0  # atno 6907 bound_to 6896
  151.4770  135.1048  159.9777 H   0  0  0  0  0  0  0  0  0  0  0  0  # atno 6908 bound_to 6896
  152.4829  133.8251  159.7129 H   0  0  0  0  0  0  0  0  0  0  0  0  # atno 6909 bound_to 6896
  145.6298  139.2402  143.2091 H   0  0  0  0  0  0  0  0  0  0  0  0  # atno 7974 bound_to 7965
  156.0649  140.3291  155.7506 H   0  0  0  0  0  0  0  0  0  0  0  0  # atno 8008 bound_to 7997
  155.5396  140.0600  157.2890 H   0  0  0  0  0  0  0  0  0  0  0  0  # atno 8009 bound_to 7997
  154.4500  140.1913  156.0566 H   0  0  0  0  0  0  0  0  0  0  0  0  # atno 8010 bound_to 7997
  139.9075  144.6292  150.8572 H   0  0  0  0  0  0  0  0  0  0  0  0  # atno 10167 bound_to 10162
  156.2039  130.4157  149.9204 H   0  0  0  0  0  0  0  0  0  0  0  0  # atno 10718 bound_to 10713
  153.0535  135.6529  154.0634 H   0  0  0  0  0  0  0  0  0  0  0  0  # atno 10763 bound_to 10752
  154.0317  135.2911  155.3369 H   0  0  0  0  0  0  0  0  0  0  0  0  # atno 10764 bound_to 10752
  154.6838  135.5310  153.8365 H   0  0  0  0  0  0  0  0  0  0  0  0  # atno 10765 bound_to 10752
  140.0784  134.9111  157.1460 H   0  0  0  0  0  0  0  0  0  0  0  0  # atno 11005 bound_to 11000
  146.1365  140.7115  142.9387 LP  0  0  0  0  0  0  0  0  0  0  0  0  # atno 17320 bound_to 7965
  144.7198  140.4334  143.7017 LP  0  0  0  0  0  0  0  0  0  0  0  0  # atno 17321 bound_to 7965
  140.7693  143.3390  151.2247 LP  0  0  0  0  0  0  0  0  0  0  0  0  # atno 17342 bound_to 10162
  139.6971  143.9594  152.2888 LP  0  0  0  0  0  0  0  0  0  0  0  0  # atno 17343 bound_to 10162
  156.6904  130.8893  151.3587 LP  0  0  0  0  0  0  0  0  0  0  0  0  # atno 17370 bound_to 10713
  157.7001  130.9324  150.0761 LP  0  0  0  0  0  0  0  0  0  0  0  0  # atno 17371 bound_to 10713
  140.3524  134.2584  155.7197 LP  0  0  0  0  0  0  0  0  0  0  0  0  # atno 17394 bound_to 11000
  141.2038  133.7903  157.0322 LP  0  0  0  0  0  0  0  0  0  0  0  0  # atno 17395 bound_to 11000

$$$$
