AV-unprocessed.smi:1927|AV-procd|sdf|7797|dock10
  -GOLD-   22720 9543D 1   1.00000     0.00000
 Structure written by MMmdl.
 34 35  0  0  0  0  0  0  0  0  1 V2000
  151.8230  144.7793  157.7061 C   0  0  0  0  0  0  0  0  0  0  0  0
  152.0142  143.4118  158.3421 C   0  0  0  0  0  0  0  0  0  0  0  0
  152.9224  143.2686  159.4127 C   0  0  0  0  0  0  0  0  0  0  0  0
  153.0981  142.0034  159.9986 C   0  0  0  0  0  0  0  0  0  0  0  0
  152.3531  140.9278  159.4856 C   0  0  0  0  0  0  0  0  0  0  0  0
  151.4828  141.0556  158.4632 N   0  0  0  0  0  0  0  0  0  0  0  0
  151.3010  142.2702  157.8867 C   0  0  0  0  0  0  0  0  0  0  0  0
  150.3961  142.4817  156.8081 N   0  0  0  0  0  0  0  0  0  0  0  0
  149.8844  141.5789  155.9529 C   0  0  0  0  0  0  0  0  0  0  0  0
  150.1465  140.3758  155.9433 O   0  0  0  0  0  0  0  0  0  0  0  0
  149.0397  142.1602  155.0886 N   0  0  0  0  0  0  0  0  0  0  0  0
  148.3084  141.4773  154.0260 C   0  0  0  0  0  0  0  0  0  0  0  0
  146.7931  141.7342  154.1189 C   0  0  1  0  0  0  0  0  0  0  0  0
  146.1922  141.5597  155.5006 C   0  0  0  0  0  0  0  0  0  0  0  0
  144.8823  142.3339  155.3802 C   0  0  0  0  0  0  0  0  0  0  0  0
  145.1146  143.3551  154.4135 O   0  0  0  0  0  0  0  0  0  0  0  0
  146.3936  143.1770  153.8139 C   0  0  0  0  0  0  0  0  0  0  0  0
  152.4515  145.5316  158.1839 H   0  0  0  0  0  0  0  0  0  0  0  0
  150.7854  145.1017  157.7978 H   0  0  0  0  0  0  0  0  0  0  0  0
  152.0847  144.7478  156.6481 H   0  0  0  0  0  0  0  0  0  0  0  0
  153.4798  144.1165  159.7829 H   0  0  0  0  0  0  0  0  0  0  0  0
  153.7852  141.8612  160.8195 H   0  0  0  0  0  0  0  0  0  0  0  0
  152.4570  139.9390  159.9071 H   0  0  0  0  0  0  0  0  0  0  0  0
  150.0951  143.4361  156.6802 H   0  0  0  0  0  0  0  0  0  0  0  0
  148.8878  143.1547  155.1726 H   0  0  0  0  0  0  0  0  0  0  0  0
  148.6885  141.7608  153.0429 H   0  0  0  0  0  0  0  0  0  0  0  0
  148.5013  140.4092  154.1284 H   0  0  0  0  0  0  0  0  0  0  0  0
  146.2687  141.0765  153.4231 H   0  0  0  0  0  0  0  0  0  0  0  0
  146.0420  140.5157  155.7775 H   0  0  0  0  0  0  0  0  0  0  0  0
  146.8314  142.0227  156.2540 H   0  0  0  0  0  0  0  0  0  0  0  0
  144.0882  141.6838  155.0111 H   0  0  0  0  0  0  0  0  0  0  0  0
  144.5603  142.7541  156.3334 H   0  0  0  0  0  0  0  0  0  0  0  0
  147.0913  143.8774  154.2753 H   0  0  0  0  0  0  0  0  0  0  0  0
  146.3640  143.3857  152.7441 H   0  0  0  0  0  0  0  0  0  0  0  0
  1  2  1  0  0  0  0
  1 18  1  0  0  0  0
  1 19  1  0  0  0  0
  1 20  1  0  0  0  0
  2  7  1  0  0  0  0
  2  3  2  0  0  0  0
  3  4  1  0  0  0  0
  3 21  1  0  0  0  0
  4  5  2  0  0  0  0
  4 22  1  0  0  0  0
  5  6  1  0  0  0  0
  5 23  1  0  0  0  0
  6  7  2  0  0  0  0
  7  8  1  0  0  0  0
  8  9  1  0  0  0  0
  8 24  1  0  0  0  0
  9 10  2  0  0  0  0
  9 11  1  0  0  0  0
 11 12  1  0  0  0  0
 11 25  1  0  0  0  0
 12 13  1  0  0  0  0
 12 26  1  0  0  0  0
 12 27  1  0  0  0  0
 13 17  1  0  0  0  0
 13 14  1  0  0  0  0
 13 28  1  0  0  0  0
 14 15  1  0  0  0  0
 14 29  1  0  0  0  0
 14 30  1  0  0  0  0
 15 16  1  0  0  0  0
 15 31  1  0  0  0  0
 15 32  1  0  0  0  0
 16 17  1  0  0  0  0
 17 33  1  0  0  0  0
 17 34  1  0  0  0  0
M  END
> <s_m_source_file>
AV-unprocessed.smi

> <i_m_source_file_index>
1927

> <i_lp_mmshare_version>
43012

> <i_f3d_flags>
0

> <s_epik_input>
W0NIM11jMVtjSF1bY0hdW2NIXW5jMVtOSF1DKD1PKVtOSF1bQ0gyXVtDQEBIXTJbQ0gyXVtDSDJdT1tDSDJdMg==

> <s_epik_cmdline>
J2VwaWtfcHl0aG9uJywgJy1waCcsICc3LjAnLCAnLXRuJywgJzgnLCAnLW1hJywgJzIwMCcsICctbWV0YWxfYmluZGluZycsICctaW1hZScsICc8aW5maWxlLm1hZT4nLCAnLW9tYWUnLCAnPG91dGZpbGUubWFlPic=

> <r_lp_tautomer_probability>
1

> <r_epik_Ionization_Penalty>
5.84082e-05

> <r_epik_Ionization_Penalty_Charging>
0

> <r_epik_Ionization_Penalty_Neutral>
5.84082e-05

> <r_epik_State_Penalty>
-0

> <r_epik_Charging_Adjusted_Penalty>
0

> <i_epik_Tot_Q>
0

> <i_epik_Tot_abs_Q>
0

> <r_epik_Metal_State_Penalty>
-0

> <b_epik_Metal_Only>
0

> <s_lp_Force_Field>
OPLS_2005

> <r_lp_Energy>
21.9437

> <b_lp_Chiralities_Consistent>
1

> <s_lp_Variant>
AV-unprocessed.smi:1927-2

> <Gold.Version>
5.8.1

> <Gold.Id.Protein>
6NUR|6NUR_protein|mol2

> <Gold.PLP.Fitness>
42.5865

> <Gold.PLP.PLP>
-37.0196

> <Gold.PLP.part.hbond>
-2.0000

> <Gold.PLP.part.metal>
0.0000

> <Gold.PLP.part.buried>
-5.6593

> <Gold.PLP.part.nonpolar>
-29.4591

> <Gold.PLP.part.repulsive>
0.4817

> <Gold.PLP.ligand.clash>
0.0000

> <Gold.PLP.ligand.torsion>
0.1591

> <Gold.PLP.Chemscore.Hbond>
1.9600

> <Gold.PLP.Chemscore.CHOScore>
0.0000

> <Gold.PLP.Chemscore.Metal>
0.0000

> <Gold.Chemscore.Hbonds>
donor molecule, donor type, donor heavy atom, donor atom, acceptor molecule, acceptor atom, score
      L1  H     8    24       P1  8028  0.96
      L1  H    11    25       P1  8028  1.00

> <Gold.PLP.Chemscore.Internal.Correction>
0.0051

> <Gold.Rescore>
     Score         DG    S(hbond)    S(metal)    S(lipo)     H(rot)  DE(clash)    DE(int)     intcor
     16.69     -18.79       1.92        0.00      86.04       1.23       0.77       1.33       ----

> <Gold.Chemscore.Fitness>
16.6909

> <Gold.Chemscore.DG>
-18.7916

> <Gold.Chemscore.ZeroCoef>
-5.4800

> <Gold.Chemscore.Hbond>
1.9173

> <Gold.Chemscore.Metal>
0.0000

> <Gold.Chemscore.Lipo>
86.0357

> <Gold.Chemscore.Internal_Hbond>
0.0000

> <Gold.Chemscore.DEClash>
0.7678

> <Gold.Chemscore.DEInternal>
1.3329

> <Gold.Chemscore.Rot>
1.2337

> <Gold.Chemscore.Internal.Correction>
   9.000000E+99

> <Gold.Chemscore.Hbonds>
donor molecule, donor type, donor heavy atom, donor atom, acceptor molecule, acceptor atom, score
      L1  H     8    24       P1  8028  0.86
      L1  H    11    25       P1  8028  0.99

> <Gold.Chemscore.Hbond.Weighted>
-6.4036

> <Gold.Chemscore.Metal.Weighted>
-0.0000

> <Gold.Chemscore.Lipo.Weighted>
-10.0662

> <Gold.Chemscore.Internal_Hbond.Weighted>
0.0000

> <Gold.Chemscore.DEClash.Weighted>
0.7678

> <Gold.Chemscore.DEInternal.Weighted>
1.3329

> <Gold.Chemscore.Rot.Weighted>
3.1582

> <Gold.Chemscore.Internal.Correction.Weighted>
   9.000000E+99

> <Gold.Protein.RotatedTorsions>
[ 6907 6896 6895 6894 ] final  -89.08 input  -60.11 | X-H torsion
[ 7974 7965 7964 7962 ] final    6.12 input  175.53 | X-H torsion
[ 8008 7997 7996 7995 ] final   13.95 input   59.86 | X-H torsion
[ 10167 10162 10161 10158 ] final -139.76 input  -65.29 | X-H torsion
[ 10718 10713 10712 10709 ] final -173.45 input   66.30 | X-H torsion
[ 10763 10752 10751 10750 ] final   45.18 input  -60.55 | X-H torsion
[ 11005 11000 10999 10996 ] final -163.62 input  -57.11 | X-H torsion

> <Gold.Protein.ActiveResidues>
 VAL166  LYS551  ARG553  GLY616  TRP617  ASP618  TYR619  PRO620  LYS621  CYS622 
 ASP623  PHE694  ASN695  SER759  ASP760  ASP761  ALA762  ILE779  LEU786  VAL792 
 PHE793  MET794  SER795  GLU796  ALA797  LYS798  CYS799  TRP800  GLU811  SER814 

> <Gold.Protein.RotatedAtoms>
  150.6872  134.2642  159.4561 H   0  0  0  0  0  0  0  0  0  0  0  0  # atno 6907 bound_to 6896
  152.0570  134.9616  160.0584 H   0  0  0  0  0  0  0  0  0  0  0  0  # atno 6908 bound_to 6896
  152.1058  133.4239  159.4645 H   0  0  0  0  0  0  0  0  0  0  0  0  # atno 6909 bound_to 6896
  146.2437  140.0281  142.8392 H   0  0  0  0  0  0  0  0  0  0  0  0  # atno 7974 bound_to 7965
  154.8416  140.2915  155.5656 H   0  0  0  0  0  0  0  0  0  0  0  0  # atno 8008 bound_to 7997
  156.3012  140.2513  156.3291 H   0  0  0  0  0  0  0  0  0  0  0  0  # atno 8009 bound_to 7997
  154.9119  140.0388  157.1940 H   0  0  0  0  0  0  0  0  0  0  0  0  # atno 8010 bound_to 7997
  139.8348  143.7399  152.2665 H   0  0  0  0  0  0  0  0  0  0  0  0  # atno 10167 bound_to 10162
  156.7706  130.9447  151.3120 H   0  0  0  0  0  0  0  0  0  0  0  0  # atno 10718 bound_to 10713
  152.9828  135.6047  154.3394 H   0  0  0  0  0  0  0  0  0  0  0  0  # atno 10763 bound_to 10752
  154.3092  135.2771  155.2576 H   0  0  0  0  0  0  0  0  0  0  0  0  # atno 10764 bound_to 10752
  154.4793  135.5921  153.6433 H   0  0  0  0  0  0  0  0  0  0  0  0  # atno 10765 bound_to 10752
  140.5961  134.4995  157.5199 H   0  0  0  0  0  0  0  0  0  0  0  0  # atno 11005 bound_to 11000
  145.1180  140.9445  143.4617 LP  0  0  0  0  0  0  0  0  0  0  0  0  # atno 17320 bound_to 7965
  145.0510  139.3182  143.5928 LP  0  0  0  0  0  0  0  0  0  0  0  0  # atno 17321 bound_to 7965
  139.7618  144.7504  151.0353 LP  0  0  0  0  0  0  0  0  0  0  0  0  # atno 17342 bound_to 10162
  140.7803  143.4743  151.0104 LP  0  0  0  0  0  0  0  0  0  0  0  0  # atno 17343 bound_to 10162
  157.6693  130.9036  150.0003 LP  0  0  0  0  0  0  0  0  0  0  0  0  # atno 17370 bound_to 10713
  156.1281  130.3644  149.9777 LP  0  0  0  0  0  0  0  0  0  0  0  0  # atno 17371 bound_to 10713
  139.9253  134.8069  156.1088 LP  0  0  0  0  0  0  0  0  0  0  0  0  # atno 17394 bound_to 11000
  141.0903  133.6717  156.2526 LP  0  0  0  0  0  0  0  0  0  0  0  0  # atno 17395 bound_to 11000

$$$$
