AV-unprocessed.smi:2097|AV-procd|sdf|8564|dock9
  -GOLD-   2272011293D 1   1.00000     0.00000
 Structure written by MMmdl.
 41 42  0  0  0  0  0  0  0  0  1 V2000
  146.4151  142.5643  154.1564 C   0  0  0  0  0  0  0  0  0  0  0  0
  147.4565  141.5012  153.7777 C   0  0  1  0  0  0  0  0  0  0  0  0
  148.5265  141.5986  154.7147 O   0  0  0  0  0  0  0  0  0  0  0  0
  149.5866  140.6648  154.5337 C   0  0  0  0  0  0  0  0  0  0  0  0
  150.5739  140.7847  155.7006 C   0  0  0  0  0  0  0  0  0  0  0  0
  150.0327  140.2414  156.7904 F   0  0  0  0  0  0  0  0  0  0  0  0
  151.7045  140.1388  155.4170 F   0  0  0  0  0  0  0  0  0  0  0  0
  150.8401  142.0667  155.9488 F   0  0  0  0  0  0  0  0  0  0  0  0
  146.8467  140.0902  153.8074 C   0  0  0  0  0  0  0  0  0  0  0  0
  146.3811  139.6530  154.8589 O   0  0  0  0  0  0  0  0  0  0  0  0
  146.9040  139.4054  152.6497 N   0  0  0  0  0  0  0  0  0  0  0  0
  146.4470  138.0898  152.3636 C   0  0  0  0  0  0  0  0  0  0  0  0
  146.0194  137.1570  153.3389 C   0  0  0  0  0  0  0  0  0  0  0  0
  145.5819  135.8858  152.9196 C   0  0  0  0  0  0  0  0  0  0  0  0
  145.5770  135.5870  151.5420 C   0  0  0  0  0  0  0  0  0  0  0  0
  145.1547  134.3173  151.1233 N   0  0  0  0  0  0  0  0  0  0  0  0
  146.2424  133.4773  150.6374 C   0  0  0  0  0  0  0  0  0  0  0  0
  145.7173  132.0663  150.3216 C   0  0  0  0  0  0  0  0  0  0  0  0
  144.6426  132.1541  149.3901 O   0  0  0  0  0  0  0  0  0  0  0  0
  143.5524  132.9164  149.9010 C   0  0  0  0  0  0  0  0  0  0  0  0
  144.0224  134.3495  150.2057 C   0  0  0  0  0  0  0  0  0  0  0  0
  145.9694  136.4791  150.6022 N   0  0  0  0  0  0  0  0  0  0  0  0
  146.3874  137.6956  151.0107 C   0  0  0  0  0  0  0  0  0  0  0  0
  145.5597  142.5399  153.4801 H   0  0  0  0  0  0  0  0  0  0  0  0
  146.8479  143.5635  154.1028 H   0  0  0  0  0  0  0  0  0  0  0  0
  146.0447  142.4209  155.1723 H   0  0  0  0  0  0  0  0  0  0  0  0
  147.8296  141.7275  152.7768 H   0  0  0  0  0  0  0  0  0  0  0  0
  149.2068  139.6437  154.4860 H   0  0  0  0  0  0  0  0  0  0  0  0
  150.1002  140.8661  153.5925 H   0  0  0  0  0  0  0  0  0  0  0  0
  147.3817  139.8689  151.8903 H   0  0  0  0  0  0  0  0  0  0  0  0
  146.0065  137.3871  154.3926 H   0  0  0  0  0  0  0  0  0  0  0  0
  145.2556  135.1545  153.6447 H   0  0  0  0  0  0  0  0  0  0  0  0
  146.6773  133.9189  149.7396 H   0  0  0  0  0  0  0  0  0  0  0  0
  147.0323  133.4247  151.3878 H   0  0  0  0  0  0  0  0  0  0  0  0
  146.5123  131.4571  149.8914 H   0  0  0  0  0  0  0  0  0  0  0  0
  145.3846  131.5625  151.2306 H   0  0  0  0  0  0  0  0  0  0  0  0
  142.7520  132.9318  149.1613 H   0  0  0  0  0  0  0  0  0  0  0  0
  143.1508  132.4397  150.7967 H   0  0  0  0  0  0  0  0  0  0  0  0
  143.2070  134.9263  150.6441 H   0  0  0  0  0  0  0  0  0  0  0  0
  144.3110  134.8484  149.2795 H   0  0  0  0  0  0  0  0  0  0  0  0
  146.6910  138.3757  150.2281 H   0  0  0  0  0  0  0  0  0  0  0  0
  1  2  1  0  0  0  0
  1 24  1  0  0  0  0
  1 25  1  0  0  0  0
  1 26  1  0  0  0  0
  2  3  1  0  0  0  0
  2  9  1  0  0  0  0
  2 27  1  0  0  0  0
  3  4  1  0  0  0  0
  4  5  1  0  0  0  0
  4 28  1  0  0  0  0
  4 29  1  0  0  0  0
  5  6  1  0  0  0  0
  5  7  1  0  0  0  0
  5  8  1  0  0  0  0
  9 10  2  0  0  0  0
  9 11  1  0  0  0  0
 11 12  1  0  0  0  0
 11 30  1  0  0  0  0
 12 23  1  0  0  0  0
 12 13  2  0  0  0  0
 13 14  1  0  0  0  0
 13 31  1  0  0  0  0
 14 15  2  0  0  0  0
 14 32  1  0  0  0  0
 15 16  1  0  0  0  0
 15 22  1  0  0  0  0
 16 21  1  0  0  0  0
 16 17  1  0  0  0  0
 17 18  1  0  0  0  0
 17 33  1  0  0  0  0
 17 34  1  0  0  0  0
 18 19  1  0  0  0  0
 18 35  1  0  0  0  0
 18 36  1  0  0  0  0
 19 20  1  0  0  0  0
 20 21  1  0  0  0  0
 20 37  1  0  0  0  0
 20 38  1  0  0  0  0
 21 39  1  0  0  0  0
 21 40  1  0  0  0  0
 22 23  2  0  0  0  0
 23 41  1  0  0  0  0
M  END
> <s_m_source_file>
AV-unprocessed.smi

> <i_m_source_file_index>
2097

> <i_lp_mmshare_version>
43012

> <i_f3d_flags>
0

> <s_epik_input>
RkMoRikoRilbQ0gyXU9bQ0BASF0oW0NIM10pQyg9TylbTkhdYzFbY0hdW2NIXWMobltjSF0xKU4yW0NIMl1bQ0gyXU9bQ0gyXVtDSDJdMg==

> <s_epik_cmdline>
J2VwaWtfcHl0aG9uJywgJy1waCcsICc3LjAnLCAnLXRuJywgJzgnLCAnLW1hJywgJzIwMCcsICctbWV0YWxfYmluZGluZycsICctaW1hZScsICc8aW5maWxlLm1hZT4nLCAnLW9tYWUnLCAnPG91dGZpbGUubWFlPic=

> <r_lp_tautomer_probability>
1

> <r_epik_Ionization_Penalty>
0.000443452

> <r_epik_Ionization_Penalty_Charging>
0

> <r_epik_Ionization_Penalty_Neutral>
0.000443452

> <r_epik_State_Penalty>
0.00027288

> <r_epik_Charging_Adjusted_Penalty>
0.00027288

> <i_epik_Tot_Q>
0

> <i_epik_Tot_abs_Q>
0

> <r_epik_Metal_State_Penalty>
-0

> <b_epik_Metal_Only>
0

> <s_lp_Force_Field>
OPLS_2005

> <r_lp_Energy>
27.3588

> <b_lp_Chiralities_Consistent>
1

> <s_lp_Variant>
AV-unprocessed.smi:2097-2

> <Gold.Version>
5.8.1

> <Gold.Id.Protein>
6NUR|6NUR_protein|mol2

> <Gold.PLP.Fitness>
37.4247

> <Gold.PLP.PLP>
-36.5269

> <Gold.PLP.part.hbond>
-1.0779

> <Gold.PLP.part.metal>
0.0000

> <Gold.PLP.part.buried>
2.6827

> <Gold.PLP.part.nonpolar>
-39.3795

> <Gold.PLP.part.repulsive>
1.1575

> <Gold.PLP.ligand.clash>
0.0000

> <Gold.PLP.ligand.torsion>
0.3062

> <Gold.PLP.Chemscore.Hbond>
0.4576

> <Gold.PLP.Chemscore.CHOScore>
0.0000

> <Gold.PLP.Chemscore.Metal>
0.0000

> <Gold.Chemscore.Hbonds>
donor molecule, donor type, donor heavy atom, donor atom, acceptor molecule, acceptor atom, score
      L1  H    11    30       P1  7957  0.22
      L1  C    23    41       P1 10171  0.02

> <Gold.PLP.Chemscore.Internal.Correction>
0.1373

> <Gold.Rescore>
     Score         DG    S(hbond)    S(metal)    S(lipo)     H(rot)  DE(clash)    DE(int)     intcor
      8.91     -12.20       0.51        0.00      85.50       1.95       1.88       1.41       ----

> <Gold.Chemscore.Fitness>
8.9131

> <Gold.Chemscore.DG>
-12.2028

> <Gold.Chemscore.ZeroCoef>
-5.4800

> <Gold.Chemscore.Hbond>
0.5115

> <Gold.Chemscore.Metal>
0.0000

> <Gold.Chemscore.Lipo>
85.5044

> <Gold.Chemscore.Internal_Hbond>
0.0000

> <Gold.Chemscore.DEClash>
1.8809

> <Gold.Chemscore.DEInternal>
1.4088

> <Gold.Chemscore.Rot>
1.9491

> <Gold.Chemscore.Internal.Correction>
   9.000000E+99

> <Gold.Chemscore.Hbonds>
donor molecule, donor type, donor heavy atom, donor atom, acceptor molecule, acceptor atom, score
      L1  H    11    30       P1  7957  0.21

> <Gold.Chemscore.Hbond.Weighted>
-1.7085

> <Gold.Chemscore.Metal.Weighted>
-0.0000

> <Gold.Chemscore.Lipo.Weighted>
-10.0040

> <Gold.Chemscore.Internal_Hbond.Weighted>
0.0000

> <Gold.Chemscore.DEClash.Weighted>
1.8809

> <Gold.Chemscore.DEInternal.Weighted>
1.4088

> <Gold.Chemscore.Rot.Weighted>
4.9897

> <Gold.Chemscore.Internal.Correction.Weighted>
   9.000000E+99

> <Gold.Protein.RotatedTorsions>
[ 6907 6896 6895 6894 ] final   78.72 input  -60.11 | X-H torsion
[ 7974 7965 7964 7962 ] final -132.23 input  175.53 | X-H torsion
[ 8008 7997 7996 7995 ] final -129.32 input   59.86 | X-H torsion
[ 10167 10162 10161 10158 ] final   75.92 input  -65.29 | X-H torsion
[ 10718 10713 10712 10709 ] final -157.37 input   66.30 | X-H torsion
[ 10763 10752 10751 10750 ] final -110.86 input  -60.55 | X-H torsion
[ 11005 11000 10999 10996 ] final  -59.38 input  -57.11 | X-H torsion

> <Gold.Protein.ActiveResidues>
 VAL166  LYS551  ARG553  GLY616  TRP617  ASP618  TYR619  PRO620  LYS621  CYS622 
 ASP623  PHE694  ASN695  SER759  ASP760  ASP761  ALA762  ILE779  LEU786  VAL792 
 PHE793  MET794  SER795  GLU796  ALA797  LYS798  CYS799  TRP800  GLU811  SER814 

> <Gold.Protein.RotatedAtoms>
  152.5171  134.3620  159.9287 H   0  0  0  0  0  0  0  0  0  0  0  0  # atno 6907 bound_to 6896
  151.3573  133.3896  159.2694 H   0  0  0  0  0  0  0  0  0  0  0  0  # atno 6908 bound_to 6896
  150.9680  134.9076  159.7829 H   0  0  0  0  0  0  0  0  0  0  0  0  # atno 6909 bound_to 6896
  144.9304  140.7122  143.4909 H   0  0  0  0  0  0  0  0  0  0  0  0  # atno 7974 bound_to 7965
  155.2772  140.0442  157.3012 H   0  0  0  0  0  0  0  0  0  0  0  0  # atno 8008 bound_to 7997
  154.5618  140.2348  155.8292 H   0  0  0  0  0  0  0  0  0  0  0  0  # atno 8009 bound_to 7997
  156.2053  140.3014  155.9621 H   0  0  0  0  0  0  0  0  0  0  0  0  # atno 8010 bound_to 7997
  139.9977  144.5709  150.7763 H   0  0  0  0  0  0  0  0  0  0  0  0  # atno 10167 bound_to 10162
  156.5394  130.8556  151.2743 H   0  0  0  0  0  0  0  0  0  0  0  0  # atno 10718 bound_to 10713
  154.8270  135.4548  154.0950 H   0  0  0  0  0  0  0  0  0  0  0  0  # atno 10763 bound_to 10752
  153.2256  135.6899  153.7956 H   0  0  0  0  0  0  0  0  0  0  0  0  # atno 10764 bound_to 10752
  153.7357  135.3320  155.3271 H   0  0  0  0  0  0  0  0  0  0  0  0  # atno 10765 bound_to 10752
  141.1246  133.6616  156.5063 H   0  0  0  0  0  0  0  0  0  0  0  0  # atno 11005 bound_to 11000
  145.3150  139.1806  143.4618 LP  0  0  0  0  0  0  0  0  0  0  0  0  # atno 17320 bound_to 7965
  146.3244  140.3160  142.8630 LP  0  0  0  0  0  0  0  0  0  0  0  0  # atno 17321 bound_to 7965
  140.7430  143.2841  151.3515 LP  0  0  0  0  0  0  0  0  0  0  0  0  # atno 17342 bound_to 10162
  139.6294  144.0751  152.2463 LP  0  0  0  0  0  0  0  0  0  0  0  0  # atno 17343 bound_to 10162
  157.7408  130.9857  150.2402 LP  0  0  0  0  0  0  0  0  0  0  0  0  # atno 17370 bound_to 10713
  156.2986  130.3755  149.7772 LP  0  0  0  0  0  0  0  0  0  0  0  0  # atno 17371 bound_to 10713
  140.4405  134.7019  157.4989 LP  0  0  0  0  0  0  0  0  0  0  0  0  # atno 17394 bound_to 11000
  140.0232  134.6516  155.9210 LP  0  0  0  0  0  0  0  0  0  0  0  0  # atno 17395 bound_to 11000

$$$$
