AV-unprocessed.smi:942|AV-procd|sdf|4228|dock5
  -GOLD-   22720 2133D 1   1.00000     0.00000
 Structure written by MMmdl.
 42 44  0  0  0  0  0  0  0  0  1 V2000
  150.1071  142.8543  157.7876 O   0  0  0  0  0  0  0  0  0  0  0  0
  151.1334  142.5080  157.2023 C   0  0  0  0  0  0  0  0  0  0  0  0
  152.3648  142.8477  157.6126 N   0  0  0  0  0  0  0  0  0  0  0  0
  152.6688  143.6748  158.7768 C   0  0  1  0  0  0  0  0  0  0  0  0
  152.0381  145.0781  158.6562 C   0  0  0  0  0  0  0  0  0  0  0  0
  150.9417  145.1504  159.7213 C   0  0  0  0  0  0  0  0  0  0  0  0
  151.4239  144.2121  160.8230 C   0  0  0  0  0  0  0  0  0  0  0  0
  152.0658  143.0513  160.0553 C   0  0  2  0  0  0  0  0  0  0  0  0
  153.0313  142.3022  160.8443 N   0  0  0  0  0  0  0  0  0  0  0  0
  153.8122  141.2262  160.4375 C   0  0  0  0  0  0  0  0  0  0  0  0
  154.5633  140.8483  161.5272 C   0  0  0  0  0  0  0  0  0  0  0  0
  154.2624  141.6695  162.6107 N   0  0  0  0  0  0  0  0  0  0  0  0
  153.3482  142.5030  162.1313 C   0  0  0  0  0  0  0  0  0  0  0  0
  151.0526  141.6442  155.9367 C   0  0  0  0  0  0  0  0  0  0  0  0
  149.5864  141.4039  155.5183 C   0  0  0  0  0  0  0  0  0  0  0  0
  149.5037  140.5388  154.2497 C   0  0  0  0  0  0  0  0  0  0  0  0
  150.2441  139.2045  154.4350 C   0  0  0  0  0  0  0  0  0  0  0  0
  151.7014  139.4306  154.8683 C   0  0  0  0  0  0  0  0  0  0  0  0
  151.7786  140.2971  156.1364 C   0  0  0  0  0  0  0  0  0  0  0  0
  153.1507  142.5144  157.0734 H   0  0  0  0  0  0  0  0  0  0  0  0
  153.7513  143.7807  158.8732 H   0  0  0  0  0  0  0  0  0  0  0  0
  152.7984  145.8299  158.8712 H   0  0  0  0  0  0  0  0  0  0  0  0
  151.6488  145.2967  157.6609 H   0  0  0  0  0  0  0  0  0  0  0  0
  150.7702  146.1661  160.0790 H   0  0  0  0  0  0  0  0  0  0  0  0
  150.0031  144.7788  159.3078 H   0  0  0  0  0  0  0  0  0  0  0  0
  152.1611  144.7291  161.4386 H   0  0  0  0  0  0  0  0  0  0  0  0
  150.6154  143.8842  161.4771 H   0  0  0  0  0  0  0  0  0  0  0  0
  151.2600  142.3696  159.7754 H   0  0  0  0  0  0  0  0  0  0  0  0
  153.7696  140.8282  159.4343 H   0  0  0  0  0  0  0  0  0  0  0  0
  155.2900  140.0540  161.6145 H   0  0  0  0  0  0  0  0  0  0  0  0
  152.8984  143.2795  162.7328 H   0  0  0  0  0  0  0  0  0  0  0  0
  151.5510  142.1800  155.1266 H   0  0  0  0  0  0  0  0  0  0  0  0
  149.0398  140.9111  156.3241 H   0  0  0  0  0  0  0  0  0  0  0  0
  149.0846  142.3564  155.3429 H   0  0  0  0  0  0  0  0  0  0  0  0
  148.4602  140.3524  153.9943 H   0  0  0  0  0  0  0  0  0  0  0  0
  149.9354  141.0825  153.4085 H   0  0  0  0  0  0  0  0  0  0  0  0
  149.7294  138.6028  155.1852 H   0  0  0  0  0  0  0  0  0  0  0  0
  150.2168  138.6321  153.5074 H   0  0  0  0  0  0  0  0  0  0  0  0
  152.1904  138.4716  155.0422 H   0  0  0  0  0  0  0  0  0  0  0  0
  152.2515  139.9156  154.0610 H   0  0  0  0  0  0  0  0  0  0  0  0
  152.8239  140.4685  156.3969 H   0  0  0  0  0  0  0  0  0  0  0  0
  151.3377  139.7508  156.9722 H   0  0  0  0  0  0  0  0  0  0  0  0
  1  2  2  0  0  0  0
  2  3  1  0  0  0  0
  2 14  1  0  0  0  0
  3  4  1  0  0  0  0
  3 20  1  0  0  0  0
  4  8  1  0  0  0  0
  4  5  1  0  0  0  0
  4 21  1  0  0  0  0
  5  6  1  0  0  0  0
  5 22  1  0  0  0  0
  5 23  1  0  0  0  0
  6  7  1  0  0  0  0
  6 24  1  0  0  0  0
  6 25  1  0  0  0  0
  7  8  1  0  0  0  0
  7 26  1  0  0  0  0
  7 27  1  0  0  0  0
  8  9  1  0  0  0  0
  8 28  1  0  0  0  0
  9 13  1  0  0  0  0
  9 10  1  0  0  0  0
 10 11  2  0  0  0  0
 10 29  1  0  0  0  0
 11 12  1  0  0  0  0
 11 30  1  0  0  0  0
 12 13  2  0  0  0  0
 13 31  1  0  0  0  0
 14 19  1  0  0  0  0
 14 15  1  0  0  0  0
 14 32  1  0  0  0  0
 15 16  1  0  0  0  0
 15 33  1  0  0  0  0
 15 34  1  0  0  0  0
 16 17  1  0  0  0  0
 16 35  1  0  0  0  0
 16 36  1  0  0  0  0
 17 18  1  0  0  0  0
 17 37  1  0  0  0  0
 17 38  1  0  0  0  0
 18 19  1  0  0  0  0
 18 39  1  0  0  0  0
 18 40  1  0  0  0  0
 19 41  1  0  0  0  0
 19 42  1  0  0  0  0
M  END
> <s_m_source_file>
AV-unprocessed.smi

> <i_m_source_file_index>
942

> <i_lp_mmshare_version>
43012

> <i_f3d_flags>
0

> <s_epik_input>
W0NIMl0xW0NIMl1bQ0gyXVtDSDJdW0NIMl1bQ0hdMUMoPU8pW05IXVtDQEBIXTJbQ0gyXVtDSDJdW0NIMl1bQ0BIXTJuM1tjSF1bY0hdbltjSF0z

> <s_epik_cmdline>
J2VwaWtfcHl0aG9uJywgJy1waCcsICc3LjAnLCAnLXRuJywgJzgnLCAnLW1hJywgJzIwMCcsICctbWV0YWxfYmluZGluZycsICctaW1hZScsICc8aW5maWxlLm1hZT4nLCAnLW9tYWUnLCAnPG91dGZpbGUubWFlPic=

> <r_lp_tautomer_probability>
1

> <r_epik_Ionization_Penalty>
0.778458

> <r_epik_Ionization_Penalty_Charging>
0.778458

> <r_epik_Ionization_Penalty_Neutral>
2.79355e-08

> <r_epik_State_Penalty>
0.807804

> <r_epik_Charging_Adjusted_Penalty>
1.58626

> <i_epik_Tot_Q>
0

> <i_epik_Tot_abs_Q>
0

> <r_epik_Metal_State_Penalty>
0.343007

> <b_epik_Metal_Only>
0

> <s_lp_Force_Field>
OPLS_2005

> <r_lp_Energy>
31.6658

> <b_lp_Chiralities_Consistent>
1

> <s_lp_Variant>
AV-unprocessed.smi:942-8

> <Gold.Version>
5.8.1

> <Gold.Id.Protein>
6NUR|6NUR_protein|mol2

> <Gold.PLP.Fitness>
50.1258

> <Gold.PLP.PLP>
-50.1749

> <Gold.PLP.part.hbond>
-1.0000

> <Gold.PLP.part.metal>
0.0000

> <Gold.PLP.part.buried>
-1.2383

> <Gold.PLP.part.nonpolar>
-47.6899

> <Gold.PLP.part.repulsive>
0.5073

> <Gold.PLP.ligand.clash>
0.0000

> <Gold.PLP.ligand.torsion>
0.0323

> <Gold.PLP.Chemscore.Hbond>
0.0000

> <Gold.PLP.Chemscore.CHOScore>
0.0000

> <Gold.PLP.Chemscore.Metal>
0.0000

> <Gold.PLP.Chemscore.Internal.Correction>
0.0155

> <Gold.Rescore>
     Score         DG    S(hbond)    S(metal)    S(lipo)     H(rot)  DE(clash)    DE(int)     intcor
     13.64     -16.17       0.00        0.00     122.90       1.44       1.30       1.24       ----

> <Gold.Chemscore.Fitness>
13.6380

> <Gold.Chemscore.DG>
-16.1738

> <Gold.Chemscore.ZeroCoef>
-5.4800

> <Gold.Chemscore.Hbond>
0.0000

> <Gold.Chemscore.Metal>
0.0000

> <Gold.Chemscore.Lipo>
122.8971

> <Gold.Chemscore.Internal_Hbond>
0.0000

> <Gold.Chemscore.DEClash>
1.2973

> <Gold.Chemscore.DEInternal>
1.2384

> <Gold.Chemscore.Rot>
1.4395

> <Gold.Chemscore.Internal.Correction>
   9.000000E+99

> <Gold.Chemscore.Hbond.Weighted>
-0.0000

> <Gold.Chemscore.Metal.Weighted>
-0.0000

> <Gold.Chemscore.Lipo.Weighted>
-14.3790

> <Gold.Chemscore.Internal_Hbond.Weighted>
0.0000

> <Gold.Chemscore.DEClash.Weighted>
1.2973

> <Gold.Chemscore.DEInternal.Weighted>
1.2384

> <Gold.Chemscore.Rot.Weighted>
3.6852

> <Gold.Chemscore.Internal.Correction.Weighted>
   9.000000E+99

> <Gold.Protein.RotatedTorsions>
[ 6907 6896 6895 6894 ] final  -44.72 input  -60.11 | X-H torsion
[ 7974 7965 7964 7962 ] final  166.56 input  175.53 | X-H torsion
[ 8008 7997 7996 7995 ] final   65.20 input   59.86 | X-H torsion
[ 10167 10162 10161 10158 ] final   30.79 input  -65.29 | X-H torsion
[ 10718 10713 10712 10709 ] final  107.37 input   66.30 | X-H torsion
[ 10763 10752 10751 10750 ] final  -78.93 input  -60.55 | X-H torsion
[ 11005 11000 10999 10996 ] final   -1.33 input  -57.11 | X-H torsion

> <Gold.Protein.ActiveResidues>
 VAL166  LYS551  ARG553  GLY616  TRP617  ASP618  TYR619  PRO620  LYS621  CYS622 
 ASP623  PHE694  ASN695  SER759  ASP760  ASP761  ALA762  ILE779  LEU786  VAL792 
 PHE793  MET794  SER795  GLU796  ALA797  LYS798  CYS799  TRP800  GLU811  SER814 

> <Gold.Protein.RotatedAtoms>
  150.9297  134.8712  159.7542 H   0  0  0  0  0  0  0  0  0  0  0  0  # atno 6907 bound_to 6896
  152.5032  134.4097  159.9454 H   0  0  0  0  0  0  0  0  0  0  0  0  # atno 6908 bound_to 6896
  151.4125  133.3683  159.2781 H   0  0  0  0  0  0  0  0  0  0  0  0  # atno 6909 bound_to 6896
  144.7458  139.8633  143.6382 H   0  0  0  0  0  0  0  0  0  0  0  0  # atno 7974 bound_to 7965
  155.6580  140.3497  155.4772 H   0  0  0  0  0  0  0  0  0  0  0  0  # atno 8008 bound_to 7997
  155.9792  140.1171  157.0765 H   0  0  0  0  0  0  0  0  0  0  0  0  # atno 8009 bound_to 7997
  154.4187  140.1141  156.5398 H   0  0  0  0  0  0  0  0  0  0  0  0  # atno 8010 bound_to 7997
  140.4646  144.0854  150.6221 H   0  0  0  0  0  0  0  0  0  0  0  0  # atno 10167 bound_to 10162
  157.6631  131.0871  150.6146 H   0  0  0  0  0  0  0  0  0  0  0  0  # atno 10718 bound_to 10713
  154.5322  135.5713  153.6768 H   0  0  0  0  0  0  0  0  0  0  0  0  # atno 10763 bound_to 10752
  152.9942  135.6207  154.2614 H   0  0  0  0  0  0  0  0  0  0  0  0  # atno 10764 bound_to 10752
  154.2541  135.2858  155.2784 H   0  0  0  0  0  0  0  0  0  0  0  0  # atno 10765 bound_to 10752
  140.6461  133.9446  155.8353 H   0  0  0  0  0  0  0  0  0  0  0  0  # atno 11005 bound_to 11000
  146.1333  139.4373  143.0155 LP  0  0  0  0  0  0  0  0  0  0  0  0  # atno 17320 bound_to 7965
  145.7130  141.0100  143.1443 LP  0  0  0  0  0  0  0  0  0  0  0  0  # atno 17321 bound_to 7965
  140.4051  143.2684  151.9900 LP  0  0  0  0  0  0  0  0  0  0  0  0  # atno 17342 bound_to 10162
  139.4810  144.5964  151.7683 LP  0  0  0  0  0  0  0  0  0  0  0  0  # atno 17343 bound_to 10162
  156.6448  130.4468  149.5740 LP  0  0  0  0  0  0  0  0  0  0  0  0  # atno 17370 bound_to 10713
  156.2182  130.6721  151.1341 LP  0  0  0  0  0  0  0  0  0  0  0  0  # atno 17371 bound_to 10713
  141.0571  134.0400  157.3708 LP  0  0  0  0  0  0  0  0  0  0  0  0  # atno 17394 bound_to 11000
  139.9062  135.0180  156.7497 LP  0  0  0  0  0  0  0  0  0  0  0  0  # atno 17395 bound_to 11000

$$$$
