AV-unprocessed.smi:1047|AV-procd|sdf|4593|dock10
  -GOLD-   22720 3 73D 1   1.00000     0.00000
 Structure written by MMmdl.
 55 57  0  0  0  0  0  0  0  0  1 V2000
  145.5497  131.4981  151.0959 C   0  0  0  0  0  0  0  0  0  0  0  0
  146.4375  132.6788  151.5139 C   0  0  0  0  0  0  0  0  0  0  0  0
  147.1666  132.4884  152.7666 N   0  0  0  0  0  0  0  0  0  0  0  0
  146.2543  132.4696  153.9043 C   0  0  0  0  0  0  0  0  0  0  0  0
  146.9999  132.2768  155.2350 C   0  0  0  0  0  0  0  0  0  0  0  0
  147.9792  133.2998  155.3808 O   0  0  0  0  0  0  0  0  0  0  0  0
  148.9317  133.3143  154.3196 C   0  0  2  0  0  0  0  0  0  0  0  0
  149.9323  134.4473  154.5889 C   0  0  0  0  0  0  0  0  0  0  0  0
  149.2487  135.7299  154.7183 N   0  0  0  0  0  0  0  0  0  0  0  0
  149.9294  136.6663  155.6066 C   0  0  0  0  0  0  0  0  0  0  0  0
  150.8618  137.6014  154.8188 C   0  0  2  0  0  0  0  0  0  0  0  0
  151.6776  136.8136  153.9723 O   0  0  0  0  0  0  0  0  0  0  0  0
  151.7633  138.4297  155.7544 C   0  0  0  0  0  0  0  0  0  0  0  0
  151.2040  139.7372  156.0489 N   0  0  0  0  0  0  0  0  0  0  0  0
  150.2327  140.3794  155.3714 C   0  0  0  0  0  0  0  0  0  0  0  0
  149.8654  141.5757  155.8213 N   0  0  0  0  0  0  0  0  0  0  0  0
  150.6957  141.7276  156.9187 C   0  0  0  0  0  0  0  0  0  0  0  0
  150.8081  142.7888  157.8435 C   0  0  0  0  0  0  0  0  0  0  0  0
  151.7412  142.7307  158.9034 C   0  0  0  0  0  0  0  0  0  0  0  0
  151.8264  143.8934  159.8768 C   0  0  0  0  0  0  0  0  0  0  0  0
  152.5822  141.5980  159.0487 C   0  0  0  0  0  0  0  0  0  0  0  0
  153.5965  141.5165  160.1758 C   0  0  0  0  0  0  0  0  0  0  0  0
  152.4805  140.5277  158.1353 C   0  0  0  0  0  0  0  0  0  0  0  0
  151.5471  140.5967  157.0862 C   0  0  0  0  0  0  0  0  0  0  0  0
  148.1797  133.5184  152.9890 C   0  0  0  0  0  0  0  0  0  0  0  0
  144.9635  131.7552  150.2135 H   0  0  0  0  0  0  0  0  0  0  0  0
  144.8518  131.2307  151.8898 H   0  0  0  0  0  0  0  0  0  0  0  0
  146.1357  130.6137  150.8474 H   0  0  0  0  0  0  0  0  0  0  0  0
  147.1361  132.9123  150.7091 H   0  0  0  0  0  0  0  0  0  0  0  0
  145.7918  133.5526  151.6123 H   0  0  0  0  0  0  0  0  0  0  0  0
  145.6890  133.4023  153.9405 H   0  0  0  0  0  0  0  0  0  0  0  0
  145.5250  131.6680  153.7813 H   0  0  0  0  0  0  0  0  0  0  0  0
  146.3031  132.3278  156.0717 H   0  0  0  0  0  0  0  0  0  0  0  0
  147.4774  131.2965  155.2738 H   0  0  0  0  0  0  0  0  0  0  0  0
  149.4600  132.3591  154.2878 H   0  0  0  0  0  0  0  0  0  0  0  0
  150.4790  134.2383  155.5091 H   0  0  0  0  0  0  0  0  0  0  0  0
  150.6712  134.4846  153.7872 H   0  0  0  0  0  0  0  0  0  0  0  0
  149.1384  136.1506  153.8006 H   0  0  0  0  0  0  0  0  0  0  0  0
  149.1800  137.2621  156.1291 H   0  0  0  0  0  0  0  0  0  0  0  0
  150.4906  136.1335  156.3757 H   0  0  0  0  0  0  0  0  0  0  0  0
  150.2716  138.2826  154.2034 H   0  0  0  0  0  0  0  0  0  0  0  0
  151.3568  136.8924  153.0871 H   0  0  0  0  0  0  0  0  0  0  0  0
  151.9099  137.9040  156.6987 H   0  0  0  0  0  0  0  0  0  0  0  0
  152.7531  138.5630  155.3153 H   0  0  0  0  0  0  0  0  0  0  0  0
  149.7659  139.9417  154.5010 H   0  0  0  0  0  0  0  0  0  0  0  0
  150.1681  143.6516  157.7315 H   0  0  0  0  0  0  0  0  0  0  0  0
  152.8175  144.3461  159.8447 H   0  0  0  0  0  0  0  0  0  0  0  0
  151.6320  143.5547  160.8947 H   0  0  0  0  0  0  0  0  0  0  0  0
  151.0968  144.6676  159.6377 H   0  0  0  0  0  0  0  0  0  0  0  0
  154.1753  140.5939  160.1237 H   0  0  0  0  0  0  0  0  0  0  0  0
  153.0957  141.5447  161.1437 H   0  0  0  0  0  0  0  0  0  0  0  0
  154.2947  142.3522  160.1221 H   0  0  0  0  0  0  0  0  0  0  0  0
  153.1119  139.6573  158.2357 H   0  0  0  0  0  0  0  0  0  0  0  0
  148.9049  133.5130  152.1758 H   0  0  0  0  0  0  0  0  0  0  0  0
  147.7112  134.5040  152.9835 H   0  0  0  0  0  0  0  0  0  0  0  0
  1  2  1  0  0  0  0
  1 26  1  0  0  0  0
  1 27  1  0  0  0  0
  1 28  1  0  0  0  0
  2  3  1  0  0  0  0
  2 29  1  0  0  0  0
  2 30  1  0  0  0  0
  3 25  1  0  0  0  0
  3  4  1  0  0  0  0
  4  5  1  0  0  0  0
  4 31  1  0  0  0  0
  4 32  1  0  0  0  0
  5  6  1  0  0  0  0
  5 33  1  0  0  0  0
  5 34  1  0  0  0  0
  6  7  1  0  0  0  0
  7  8  1  0  0  0  0
  7 25  1  0  0  0  0
  7 35  1  0  0  0  0
  8  9  1  0  0  0  0
  8 36  1  0  0  0  0
  8 37  1  0  0  0  0
  9 10  1  0  0  0  0
  9 38  1  0  0  0  0
 10 11  1  0  0  0  0
 10 39  1  0  0  0  0
 10 40  1  0  0  0  0
 11 12  1  0  0  0  0
 11 13  1  0  0  0  0
 11 41  1  0  0  0  0
 12 42  1  0  0  0  0
 13 14  1  0  0  0  0
 13 43  1  0  0  0  0
 13 44  1  0  0  0  0
 14 24  1  0  0  0  0
 14 15  1  0  0  0  0
 15 16  2  0  0  0  0
 15 45  1  0  0  0  0
 16 17  1  0  0  0  0
 17 24  2  0  0  0  0
 17 18  1  0  0  0  0
 18 19  2  0  0  0  0
 18 46  1  0  0  0  0
 19 20  1  0  0  0  0
 19 21  1  0  0  0  0
 20 47  1  0  0  0  0
 20 48  1  0  0  0  0
 20 49  1  0  0  0  0
 21 22  1  0  0  0  0
 21 23  2  0  0  0  0
 22 50  1  0  0  0  0
 22 51  1  0  0  0  0
 22 52  1  0  0  0  0
 23 24  1  0  0  0  0
 23 53  1  0  0  0  0
 25 54  1  0  0  0  0
 25 55  1  0  0  0  0
M  END
> <s_m_source_file>
AV-unprocessed.smi

> <i_m_source_file_index>
1047

> <i_lp_mmshare_version>
43012

> <i_f3d_flags>
0

> <s_epik_input>
W0NIM11bQ0gyXU4xW0NIMl1bQ0gyXU9bQ0BIXShbQ0gyXTEpW0NIMl1bTkhdW0NIMl1bQ0BIXShbT0hdKVtDSDJdbihbY0hdbjIpYyhjMjMpW2NIXWMoW0NIM10pYyhbY0hdMylbQ0gzXQ==

> <s_epik_cmdline>
J2VwaWtfcHl0aG9uJywgJy1waCcsICc3LjAnLCAnLXRuJywgJzgnLCAnLW1hJywgJzIwMCcsICctbWV0YWxfYmluZGluZycsICctaW1hZScsICc8aW5maWxlLm1hZT4nLCAnLW9tYWUnLCAnPG91dGZpbGUubWFlPic=

> <r_epik_Ionization_Penalty>
2.74124

> <r_epik_Ionization_Penalty_Charging>
0

> <r_epik_Ionization_Penalty_Neutral>
2.74124

> <r_epik_State_Penalty>
2.37482

> <r_epik_Charging_Adjusted_Penalty>
2.37482

> <i_epik_Tot_Q>
0

> <i_epik_Tot_abs_Q>
0

> <r_epik_Metal_State_Penalty>
2.25944

> <b_epik_Metal_Only>
0

> <s_lp_Force_Field>
OPLS_2005

> <r_lp_Energy>
33.9666

> <b_lp_Chiralities_Consistent>
1

> <s_lp_Variant>
AV-unprocessed.smi:1047-34

> <Gold.Version>
5.8.1

> <Gold.Id.Protein>
6NUR|6NUR_protein|mol2

> <Gold.PLP.Fitness>
53.7289

> <Gold.PLP.PLP>
-47.0540

> <Gold.PLP.part.hbond>
-3.2287

> <Gold.PLP.part.metal>
0.0000

> <Gold.PLP.part.buried>
-2.5912

> <Gold.PLP.part.nonpolar>
-40.9019

> <Gold.PLP.part.repulsive>
0.2469

> <Gold.PLP.ligand.clash>
0.0000

> <Gold.PLP.ligand.torsion>
1.2141

> <Gold.PLP.Chemscore.Hbond>
3.0000

> <Gold.PLP.Chemscore.CHOScore>
0.0000

> <Gold.PLP.Chemscore.Metal>
0.0000

> <Gold.Chemscore.Hbonds>
donor molecule, donor type, donor heavy atom, donor atom, acceptor molecule, acceptor atom, score
      L1  H     9    38       P1  7948  1.00
      L1  H    12    42       P1  7949  0.86
      P1  H 10752 10764       L1    12  1.00

> <Gold.PLP.Chemscore.Internal.Correction>
0.1030

> <Gold.Rescore>
     Score         DG    S(hbond)    S(metal)    S(lipo)     H(rot)  DE(clash)    DE(int)     intcor
     20.77     -21.95       2.55        0.00     123.36       2.52       0.02       1.16       ----

> <Gold.Chemscore.Fitness>
20.7731

> <Gold.Chemscore.DG>
-21.9536

> <Gold.Chemscore.ZeroCoef>
-5.4800

> <Gold.Chemscore.Hbond>
2.5451

> <Gold.Chemscore.Metal>
0.0000

> <Gold.Chemscore.Lipo>
123.3644

> <Gold.Chemscore.Internal_Hbond>
0.0000

> <Gold.Chemscore.DEClash>
0.0199

> <Gold.Chemscore.DEInternal>
1.1606

> <Gold.Chemscore.Rot>
2.5237

> <Gold.Chemscore.Internal.Correction>
   9.000000E+99

> <Gold.Chemscore.Hbonds>
donor molecule, donor type, donor heavy atom, donor atom, acceptor molecule, acceptor atom, score
      L1  H     9    38       P1  7948  0.93
      L1  H    12    42       P1  7949  0.68
      P1  H 10752 10764       L1    12  0.97

> <Gold.Chemscore.Hbond.Weighted>
-8.5007

> <Gold.Chemscore.Metal.Weighted>
-0.0000

> <Gold.Chemscore.Lipo.Weighted>
-14.4336

> <Gold.Chemscore.Internal_Hbond.Weighted>
0.0000

> <Gold.Chemscore.DEClash.Weighted>
0.0199

> <Gold.Chemscore.DEInternal.Weighted>
1.1606

> <Gold.Chemscore.Rot.Weighted>
6.4607

> <Gold.Chemscore.Internal.Correction.Weighted>
   9.000000E+99

> <Gold.Protein.RotatedTorsions>
[ 6907 6896 6895 6894 ] final  -11.12 input  -60.11 | X-H torsion
[ 7974 7965 7964 7962 ] final   83.11 input  175.53 | X-H torsion
[ 8008 7997 7996 7995 ] final   85.51 input   59.86 | X-H torsion
[ 10167 10162 10161 10158 ] final  -14.34 input  -65.29 | X-H torsion
[ 10718 10713 10712 10709 ] final  161.91 input   66.30 | X-H torsion
[ 10763 10752 10751 10750 ] final  -72.87 input  -60.55 | X-H torsion
[ 11005 11000 10999 10996 ] final  -89.15 input  -57.11 | X-H torsion

> <Gold.Protein.ActiveResidues>
 VAL166  LYS551  ARG553  GLY616  TRP617  ASP618  TYR619  PRO620  LYS621  CYS622 
 ASP623  PHE694  ASN695  SER759  ASP760  ASP761  ALA762  ILE779  LEU786  VAL792 
 PHE793  MET794  SER795  GLU796  ALA797  LYS798  CYS799  TRP800  GLU811  SER814 

> <Gold.Protein.RotatedAtoms>
  151.3912  135.0956  159.9526 H   0  0  0  0  0  0  0  0  0  0  0  0  # atno 6907 bound_to 6896
  152.5079  133.8978  159.7436 H   0  0  0  0  0  0  0  0  0  0  0  0  # atno 6908 bound_to 6896
  150.9432  133.6577  159.2815 H   0  0  0  0  0  0  0  0  0  0  0  0  # atno 6909 bound_to 6896
  145.6162  139.2377  143.2164 H   0  0  0  0  0  0  0  0  0  0  0  0  # atno 7974 bound_to 7965
  155.9510  140.3401  155.6408 H   0  0  0  0  0  0  0  0  0  0  0  0  # atno 8008 bound_to 7997
  155.6920  140.0750  157.2463 H   0  0  0  0  0  0  0  0  0  0  0  0  # atno 8009 bound_to 7997
  154.4122  140.1655  156.2084 H   0  0  0  0  0  0  0  0  0  0  0  0  # atno 8010 bound_to 7997
  140.7199  143.5331  150.9496 H   0  0  0  0  0  0  0  0  0  0  0  0  # atno 10167 bound_to 10162
  157.1299  131.0514  151.2376 H   0  0  0  0  0  0  0  0  0  0  0  0  # atno 10718 bound_to 10713
  154.4516  135.5916  153.6195 H   0  0  0  0  0  0  0  0  0  0  0  0  # atno 10763 bound_to 10752
  152.9814  135.6022  154.3597 H   0  0  0  0  0  0  0  0  0  0  0  0  # atno 10764 bound_to 10752
  154.3459  135.2841  155.2377 H   0  0  0  0  0  0  0  0  0  0  0  0  # atno 10765 bound_to 10752
  141.1590  133.7612  156.9553 H   0  0  0  0  0  0  0  0  0  0  0  0  # atno 11005 bound_to 11000
  146.1466  140.6984  142.9342 LP  0  0  0  0  0  0  0  0  0  0  0  0  # atno 17320 bound_to 7965
  144.7249  140.4494  143.6980 LP  0  0  0  0  0  0  0  0  0  0  0  0  # atno 17321 bound_to 7965
  139.9052  143.6787  152.3124 LP  0  0  0  0  0  0  0  0  0  0  0  0  # atno 17342 bound_to 10162
  139.7150  144.7613  151.1048 LP  0  0  0  0  0  0  0  0  0  0  0  0  # atno 17343 bound_to 10162
  157.4401  130.7539  149.7062 LP  0  0  0  0  0  0  0  0  0  0  0  0  # atno 17370 bound_to 10713
  155.9810  130.4024  150.3496 LP  0  0  0  0  0  0  0  0  0  0  0  0  # atno 17371 bound_to 10713
  140.1229  134.9405  157.2229 LP  0  0  0  0  0  0  0  0  0  0  0  0  # atno 17394 bound_to 11000
  140.3049  134.3090  155.7280 LP  0  0  0  0  0  0  0  0  0  0  0  0  # atno 17395 bound_to 11000

$$$$
