AV-unprocessed.smi:759|AV-procd|sdf|3624|dock2
  -GOLD-   22720 1 13D 1   1.00000     0.00000
 Structure written by MMmdl.
 24 25  0  0  0  0  0  0  0  0  2 V2000
  151.6043  138.2874  158.2390 C   0  0  0  0  0  0  0  0  0  0  0  0
  152.9307  138.4260  158.2307 N   0  0  0  0  0  0  0  0  0  0  0  0
  153.1463  139.7839  158.4021 N   0  0  0  0  0  0  0  0  0  0  0  0
  151.9287  140.3345  158.4948 C   0  0  0  0  0  0  0  0  0  0  0  0
  151.6614  141.7961  158.6859 C   0  0  1  0  0  0  0  0  0  0  0  0
  152.9316  142.5687  159.0914 C   0  0  0  0  0  0  0  0  0  0  0  0
  152.6231  144.0647  159.2581 C   0  0  0  0  0  0  0  0  0  0  0  0
  151.9632  144.6347  157.9915 C   0  0  0  0  0  0  0  0  0  0  0  0
  150.7456  143.8689  157.6471 N   0  3  0  0  0  0  0  0  0  0  0  0
  151.0080  142.4276  157.4389 C   0  0  0  0  0  0  0  0  0  0  0  0
  150.9364  139.4357  158.3997 N   0  0  0  0  0  0  0  0  0  0  0  0
  149.9385  139.5843  158.4400 H   0  0  0  0  0  0  0  0  0  0  0  0
  151.1131  137.3321  158.1256 H   0  0  0  0  0  0  0  0  0  0  0  0
  150.9489  141.8872  159.5080 H   0  0  0  0  0  0  0  0  0  0  0  0
  153.3387  142.1668  160.0201 H   0  0  0  0  0  0  0  0  0  0  0  0
  153.7045  142.4412  158.3321 H   0  0  0  0  0  0  0  0  0  0  0  0
  151.9618  144.2102  160.1133 H   0  0  0  0  0  0  0  0  0  0  0  0
  153.5398  144.6121  159.4795 H   0  0  0  0  0  0  0  0  0  0  0  0
  151.6949  145.6807  158.1422 H   0  0  0  0  0  0  0  0  0  0  0  0
  152.6590  144.6010  157.1520 H   0  0  0  0  0  0  0  0  0  0  0  0
  150.0796  143.9697  158.3997 H   0  0  0  0  0  0  0  0  0  0  0  0
  151.6519  142.3092  156.5660 H   0  0  0  0  0  0  0  0  0  0  0  0
  150.0660  141.9286  157.2093 H   0  0  0  0  0  0  0  0  0  0  0  0
  150.3444  144.2534  156.8035 H   0  0  0  0  0  0  0  0  0  0  0  0
  1 11  1  0  0  0  0
  1  2  2  0  0  0  0
  1 13  1  0  0  0  0
  2  3  1  0  0  0  0
  3  4  2  0  0  0  0
  4  5  1  0  0  0  0
  4 11  1  0  0  0  0
  5 10  1  0  0  0  0
  5  6  1  0  0  0  0
  5 14  1  0  0  0  0
  6  7  1  0  0  0  0
  6 15  1  0  0  0  0
  6 16  1  0  0  0  0
  7  8  1  0  0  0  0
  7 17  1  0  0  0  0
  7 18  1  0  0  0  0
  8  9  1  0  0  0  0
  8 19  1  0  0  0  0
  8 20  1  0  0  0  0
  9 10  1  0  0  0  0
  9 21  1  0  0  0  0
  9 24  1  0  0  0  0
 10 22  1  0  0  0  0
 10 23  1  0  0  0  0
 11 12  1  0  0  0  0
M  CHG  1   9   1
M  END
> <s_m_source_file>
AV-unprocessed.smi

> <i_m_source_file_index>
759

> <i_lp_mmshare_version>
43012

> <i_f3d_flags>
0

> <s_epik_input>
W25IXTFbY0hdbm5jMVtDQEBIXTJbQ0gyXVtDSDJdW0NIMl1bTkhdW0NIMl0y

> <s_epik_cmdline>
J2VwaWtfcHl0aG9uJywgJy1waCcsICc3LjAnLCAnLXRuJywgJzgnLCAnLW1hJywgJzIwMCcsICctbWV0YWxfYmluZGluZycsICctaW1hZScsICc8aW5maWxlLm1hZT4nLCAnLW9tYWUnLCAnPG91dGZpbGUubWFlPic=

> <r_lp_tautomer_probability>
0.0517155

> <r_epik_Ionization_Penalty>
0.0333069

> <r_epik_Ionization_Penalty_Charging>
0.000426856

> <r_epik_Ionization_Penalty_Neutral>
0.03288

> <r_epik_State_Penalty>
2.11054

> <r_epik_Charging_Adjusted_Penalty>
2.11097

> <i_epik_Tot_Q>
1

> <i_epik_Tot_abs_Q>
1

> <r_epik_Metal_State_Penalty>
2.37626

> <b_epik_Metal_Only>
0

> <s_lp_Force_Field>
OPLS_2005

> <r_lp_Energy>
13.742

> <b_lp_Chiralities_Consistent>
1

> <s_lp_Variant>
AV-unprocessed.smi:759-6

> <Gold.Version>
5.8.1

> <Gold.Id.Protein>
6NUR|6NUR_protein|mol2

> <Gold.PLP.Fitness>
31.2804

> <Gold.PLP.PLP>
-22.6845

> <Gold.PLP.part.hbond>
-2.0000

> <Gold.PLP.part.metal>
0.0000

> <Gold.PLP.part.buried>
-3.6143

> <Gold.PLP.part.nonpolar>
-17.5738

> <Gold.PLP.part.repulsive>
0.1432

> <Gold.PLP.ligand.clash>
0.0000

> <Gold.PLP.ligand.torsion>
0.2159

> <Gold.PLP.Chemscore.Hbond>
3.0000

> <Gold.PLP.Chemscore.CHOScore>
0.0000

> <Gold.PLP.Chemscore.Metal>
0.0000

> <Gold.Chemscore.Hbonds>
donor molecule, donor type, donor heavy atom, donor atom, acceptor molecule, acceptor atom, score
      L1  H     9    24       P1  8028  2.00
      P1  H  7997  8009       L1     3  1.00

> <Gold.PLP.Chemscore.Internal.Correction>
0.0278

> <Gold.Rescore>
     Score         DG    S(hbond)    S(metal)    S(lipo)     H(rot)  DE(clash)    DE(int)     intcor
     15.17     -15.68       1.86        0.00      55.87       1.00       0.24       0.27       ----

> <Gold.Chemscore.Fitness>
15.1747

> <Gold.Chemscore.DG>
-15.6840

> <Gold.Chemscore.ZeroCoef>
-5.4800

> <Gold.Chemscore.Hbond>
1.8644

> <Gold.Chemscore.Metal>
0.0000

> <Gold.Chemscore.Lipo>
55.8704

> <Gold.Chemscore.Internal_Hbond>
0.0000

> <Gold.Chemscore.DEClash>
0.2407

> <Gold.Chemscore.DEInternal>
0.2686

> <Gold.Chemscore.Rot>
1.0000

> <Gold.Chemscore.Internal.Correction>
   9.000000E+99

> <Gold.Chemscore.Hbonds>
donor molecule, donor type, donor heavy atom, donor atom, acceptor molecule, acceptor atom, score
      L1  H     9    24       P1  8028  0.95
      P1  H  7997  8009       L1     3  0.24

> <Gold.Chemscore.Hbond.Weighted>
-6.2272

> <Gold.Chemscore.Metal.Weighted>
-0.0000

> <Gold.Chemscore.Lipo.Weighted>
-6.5368

> <Gold.Chemscore.Internal_Hbond.Weighted>
0.0000

> <Gold.Chemscore.DEClash.Weighted>
0.2407

> <Gold.Chemscore.DEInternal.Weighted>
0.2686

> <Gold.Chemscore.Rot.Weighted>
2.5600

> <Gold.Chemscore.Internal.Correction.Weighted>
   9.000000E+99

> <Gold.Protein.RotatedTorsions>
[ 6907 6896 6895 6894 ] final   10.97 input  -60.11 | X-H torsion
[ 7974 7965 7964 7962 ] final  -72.79 input  175.53 | X-H torsion
[ 8008 7997 7996 7995 ] final  144.61 input   59.86 | X-H torsion
[ 10167 10162 10161 10158 ] final   62.38 input  -65.29 | X-H torsion
[ 10718 10713 10712 10709 ] final  151.22 input   66.30 | X-H torsion
[ 10763 10752 10751 10750 ] final -166.94 input  -60.55 | X-H torsion
[ 11005 11000 10999 10996 ] final -162.55 input  -57.11 | X-H torsion

> <Gold.Protein.ActiveResidues>
 VAL166  LYS551  ARG553  GLY616  TRP617  ASP618  TYR619  PRO620  LYS621  CYS622 
 ASP623  PHE694  ASN695  SER759  ASP760  ASP761  ALA762  ILE779  LEU786  VAL792 
 PHE793  MET794  SER795  GLU796  ALA797  LYS798  CYS799  TRP800  GLU811  SER814 

> <Gold.Protein.RotatedAtoms>
  151.7468  135.0842  160.0324 H   0  0  0  0  0  0  0  0  0  0  0  0  # atno 6907 bound_to 6896
  152.3443  133.6099  159.5907 H   0  0  0  0  0  0  0  0  0  0  0  0  # atno 6908 bound_to 6896
  150.7499  133.9590  159.3551 H   0  0  0  0  0  0  0  0  0  0  0  0  # atno 6909 bound_to 6896
  145.6605  140.9254  143.0936 H   0  0  0  0  0  0  0  0  0  0  0  0  # atno 7974 bound_to 7965
  156.2904  140.2231  156.5082 H   0  0  0  0  0  0  0  0  0  0  0  0  # atno 8008 bound_to 7997
  154.7632  140.0472  157.1012 H   0  0  0  0  0  0  0  0  0  0  0  0  # atno 8009 bound_to 7997
  154.9966  140.3096  155.4888 H   0  0  0  0  0  0  0  0  0  0  0  0  # atno 8010 bound_to 7997
  140.1446  144.4521  150.6792 H   0  0  0  0  0  0  0  0  0  0  0  0  # atno 10167 bound_to 10162
  157.2735  131.0821  151.1583 H   0  0  0  0  0  0  0  0  0  0  0  0  # atno 10718 bound_to 10713
  154.6782  135.2950  154.9649 H   0  0  0  0  0  0  0  0  0  0  0  0  # atno 10763 bound_to 10752
  154.0653  135.6625  153.4821 H   0  0  0  0  0  0  0  0  0  0  0  0  # atno 10764 bound_to 10752
  153.0530  135.5162  154.7812 H   0  0  0  0  0  0  0  0  0  0  0  0  # atno 10765 bound_to 10752
  140.6080  134.4879  157.5212 H   0  0  0  0  0  0  0  0  0  0  0  0  # atno 11005 bound_to 11000
  144.7090  139.8443  143.7420 LP  0  0  0  0  0  0  0  0  0  0  0  0  # atno 17320 bound_to 7965
  146.1129  139.4136  143.0276 LP  0  0  0  0  0  0  0  0  0  0  0  0  # atno 17321 bound_to 7965
  140.6740  143.2297  151.5555 LP  0  0  0  0  0  0  0  0  0  0  0  0  # atno 17342 bound_to 10162
  139.5455  144.2532  152.1434 LP  0  0  0  0  0  0  0  0  0  0  0  0  # atno 17343 bound_to 10162
  157.3045  130.6859  149.6182 LP  0  0  0  0  0  0  0  0  0  0  0  0  # atno 17370 bound_to 10713
  155.9663  130.4382  150.5207 LP  0  0  0  0  0  0  0  0  0  0  0  0  # atno 17371 bound_to 10713
  139.9204  134.8160  156.1230 LP  0  0  0  0  0  0  0  0  0  0  0  0  # atno 17394 bound_to 11000
  141.0827  133.6747  156.2371 LP  0  0  0  0  0  0  0  0  0  0  0  0  # atno 17395 bound_to 11000

$$$$
