AV-unprocessed.smi:1933|AV-procd|sdf|7822|dock10
  -GOLD-   22720 9573D 1   1.00000     0.00000
 Structure written by MMmdl.
 48 50  0  0  0  0  0  0  0  0  2 V2000
  144.4333  137.0014  151.3368 O   0  0  0  0  0  0  0  0  0  0  0  0
  145.6305  136.7291  151.4273 C   0  0  0  0  0  0  0  0  0  0  0  0
  146.5805  137.6423  151.6760 N   0  0  0  0  0  0  0  0  0  0  0  0
  146.3517  139.0714  151.8661 C   0  0  0  0  0  0  0  0  0  0  0  0
  147.6426  139.8372  152.2640 C   0  0  1  0  0  0  0  0  0  0  0  0
  147.3833  141.2855  152.7696 C   0  0  1  0  0  0  0  0  0  0  0  0
  146.7116  142.1908  151.7481 C   0  0  0  0  0  0  0  0  0  0  0  0
  146.1792  143.3188  152.6203 C   0  0  0  0  0  0  0  0  0  0  0  0
  145.7513  142.6774  153.8124 O   0  0  0  0  0  0  0  0  0  0  0  0
  146.4072  141.4201  153.9489 C   0  0  0  0  0  0  0  0  0  0  0  0
  148.4452  139.0843  153.2754 N   0  3  0  0  0  0  0  0  0  0  0  0
  149.7141  139.7213  153.7126 C   0  0  0  0  0  0  0  0  0  0  0  0
  150.5075  138.7505  154.6024 C   0  0  0  0  0  0  0  0  0  0  0  0
  149.7100  138.3682  155.7170 O   0  0  0  0  0  0  0  0  0  0  0  0
  148.5235  137.6901  155.3203 C   0  0  0  0  0  0  0  0  0  0  0  0
  147.6626  138.6177  154.4458 C   0  0  0  0  0  0  0  0  0  0  0  0
  146.1615  135.5013  151.2900 N   0  0  0  0  0  0  0  0  0  0  0  0
  145.4905  134.2832  151.0000 C   0  0  0  0  0  0  0  0  0  0  0  0
  146.2980  133.1250  151.0627 C   0  0  0  0  0  0  0  0  0  0  0  0
  145.7266  131.8665  150.7920 C   0  0  0  0  0  0  0  0  0  0  0  0
  144.3606  131.7982  150.4649 C   0  0  0  0  0  0  0  0  0  0  0  0
  143.6286  132.9991  150.4227 C   0  0  0  0  0  0  0  0  0  0  0  0
  144.1741  134.2061  150.6819 N   0  0  0  0  0  0  0  0  0  0  0  0
  147.5365  137.3237  151.7372 H   0  0  0  0  0  0  0  0  0  0  0  0
  145.9296  139.5099  150.9608 H   0  0  0  0  0  0  0  0  0  0  0  0
  145.5915  139.1694  152.6404 H   0  0  0  0  0  0  0  0  0  0  0  0
  148.2672  139.9238  151.3732 H   0  0  0  0  0  0  0  0  0  0  0  0
  148.3276  141.7472  153.0616 H   0  0  0  0  0  0  0  0  0  0  0  0
  147.3932  142.5506  150.9766 H   0  0  0  0  0  0  0  0  0  0  0  0
  145.8837  141.6733  151.2607 H   0  0  0  0  0  0  0  0  0  0  0  0
  146.9760  144.0228  152.8639 H   0  0  0  0  0  0  0  0  0  0  0  0
  145.3666  143.8710  152.1475 H   0  0  0  0  0  0  0  0  0  0  0  0
  145.6456  140.6399  153.9230 H   0  0  0  0  0  0  0  0  0  0  0  0
  146.9170  141.3625  154.9105 H   0  0  0  0  0  0  0  0  0  0  0  0
  150.3189  140.0027  152.8511 H   0  0  0  0  0  0  0  0  0  0  0  0
  149.5078  140.6323  154.2754 H   0  0  0  0  0  0  0  0  0  0  0  0
  150.8169  137.8682  154.0394 H   0  0  0  0  0  0  0  0  0  0  0  0
  151.4159  139.2313  154.9661 H   0  0  0  0  0  0  0  0  0  0  0  0
  148.7764  136.7737  154.7845 H   0  0  0  0  0  0  0  0  0  0  0  0
  147.9702  137.3949  156.2121 H   0  0  0  0  0  0  0  0  0  0  0  0
  147.3234  139.4697  155.0356 H   0  0  0  0  0  0  0  0  0  0  0  0
  146.7732  138.0813  154.1135 H   0  0  0  0  0  0  0  0  0  0  0  0
  147.1620  135.4282  151.4004 H   0  0  0  0  0  0  0  0  0  0  0  0
  147.3460  133.1946  151.3158 H   0  0  0  0  0  0  0  0  0  0  0  0
  146.3265  130.9697  150.8352 H   0  0  0  0  0  0  0  0  0  0  0  0
  143.8866  130.8516  150.2516 H   0  0  0  0  0  0  0  0  0  0  0  0
  142.5776  132.9910  150.1744 H   0  0  0  0  0  0  0  0  0  0  0  0
  148.7204  138.2376  152.7983 H   0  0  0  0  0  0  0  0  0  0  0  0
  1  2  2  0  0  0  0
  2  3  1  0  0  0  0
  2 17  1  0  0  0  0
  3  4  1  0  0  0  0
  3 24  1  0  0  0  0
  4  5  1  0  0  0  0
  4 25  1  0  0  0  0
  4 26  1  0  0  0  0
  5  6  1  0  0  0  0
  5 11  1  0  0  0  0
  5 27  1  0  0  0  0
  6 10  1  0  0  0  0
  6  7  1  0  0  0  0
  6 28  1  0  0  0  0
  7  8  1  0  0  0  0
  7 29  1  0  0  0  0
  7 30  1  0  0  0  0
  8  9  1  0  0  0  0
  8 31  1  0  0  0  0
  8 32  1  0  0  0  0
  9 10  1  0  0  0  0
 10 33  1  0  0  0  0
 10 34  1  0  0  0  0
 11 16  1  0  0  0  0
 11 12  1  0  0  0  0
 11 48  1  0  0  0  0
 12 13  1  0  0  0  0
 12 35  1  0  0  0  0
 12 36  1  0  0  0  0
 13 14  1  0  0  0  0
 13 37  1  0  0  0  0
 13 38  1  0  0  0  0
 14 15  1  0  0  0  0
 15 16  1  0  0  0  0
 15 39  1  0  0  0  0
 15 40  1  0  0  0  0
 16 41  1  0  0  0  0
 16 42  1  0  0  0  0
 17 18  1  0  0  0  0
 17 43  1  0  0  0  0
 18 23  1  0  0  0  0
 18 19  2  0  0  0  0
 19 20  1  0  0  0  0
 19 44  1  0  0  0  0
 20 21  2  0  0  0  0
 20 45  1  0  0  0  0
 21 22  1  0  0  0  0
 21 46  1  0  0  0  0
 22 23  2  0  0  0  0
 22 47  1  0  0  0  0
M  CHG  1  11   1
M  END
> <s_m_source_file>
AV-unprocessed.smi

> <i_m_source_file_index>
1933

> <i_lp_mmshare_version>
43012

> <i_f3d_flags>
0

> <s_epik_input>
bjFbY0hdW2NIXVtjSF1bY0hdYzFbTkhdQyg9TylbTkhdW0NIMl1bQ0BIXShbQ0BASF0yW0NIMl1bQ0gyXU9bQ0gyXTIpTjNbQ0gyXVtDSDJdT1tDSDJdW0NIMl0z

> <s_epik_cmdline>
J2VwaWtfcHl0aG9uJywgJy1waCcsICc3LjAnLCAnLXRuJywgJzgnLCAnLW1hJywgJzIwMCcsICctbWV0YWxfYmluZGluZycsICctaW1hZScsICc8aW5maWxlLm1hZT4nLCAnLW9tYWUnLCAnPG91dGZpbGUubWFlPic=

> <r_epik_Ionization_Penalty>
0.983294

> <r_epik_Ionization_Penalty_Charging>
0.98326

> <r_epik_Ionization_Penalty_Neutral>
3.39688e-05

> <r_epik_State_Penalty>
1.0303

> <r_epik_Charging_Adjusted_Penalty>
2.01356

> <i_epik_Tot_Q>
1

> <i_epik_Tot_abs_Q>
1

> <r_epik_Metal_State_Penalty>
1.0303

> <b_epik_Metal_Only>
0

> <s_lp_Force_Field>
OPLS_2005

> <r_lp_Energy>
40.1163

> <b_lp_Chiralities_Consistent>
1

> <s_lp_Variant>
AV-unprocessed.smi:1933-8

> <Gold.Version>
5.8.1

> <Gold.Id.Protein>
6NUR|6NUR_protein|mol2

> <Gold.PLP.Fitness>
51.7755

> <Gold.PLP.PLP>
-37.4092

> <Gold.PLP.part.hbond>
-3.6292

> <Gold.PLP.part.metal>
0.0000

> <Gold.PLP.part.buried>
-1.5618

> <Gold.PLP.part.nonpolar>
-32.1626

> <Gold.PLP.part.repulsive>
0.6751

> <Gold.PLP.ligand.clash>
0.0000

> <Gold.PLP.ligand.torsion>
0.2878

> <Gold.PLP.Chemscore.Hbond>
3.9120

> <Gold.PLP.Chemscore.CHOScore>
1.0000

> <Gold.PLP.Chemscore.Metal>
0.0000

> <Gold.Chemscore.Hbonds>
donor molecule, donor type, donor heavy atom, donor atom, acceptor molecule, acceptor atom, score
      L1  H     3    24       P1  7948  1.00
      L1  H    11    48       P1  7948  1.17
      L1  H    17    43       P1  7948  1.00
      L1  C    22    47       P1 10186  1.00

> <Gold.PLP.Chemscore.Internal.Correction>
0.2060

> <Gold.Rescore>
     Score         DG    S(hbond)    S(metal)    S(lipo)     H(rot)  DE(clash)    DE(int)     intcor
     18.71     -20.27       2.79        0.00      85.48       1.77       0.01       1.55       ----

> <Gold.Chemscore.Fitness>
18.7107

> <Gold.Chemscore.DG>
-20.2674

> <Gold.Chemscore.ZeroCoef>
-5.4800

> <Gold.Chemscore.Hbond>
2.7874

> <Gold.Chemscore.Metal>
0.0000

> <Gold.Chemscore.Lipo>
85.4818

> <Gold.Chemscore.Internal_Hbond>
0.0000

> <Gold.Chemscore.DEClash>
0.0060

> <Gold.Chemscore.DEInternal>
1.5507

> <Gold.Chemscore.Rot>
1.7671

> <Gold.Chemscore.Internal.Correction>
   9.000000E+99

> <Gold.Chemscore.Hbonds>
donor molecule, donor type, donor heavy atom, donor atom, acceptor molecule, acceptor atom, score
      L1  H     3    24       P1  7948  1.00
      L1  H    11    48       P1  7948  0.58
      L1  H    17    43       P1  7948  0.89

> <Gold.Chemscore.Hbond.Weighted>
-9.3098

> <Gold.Chemscore.Metal.Weighted>
-0.0000

> <Gold.Chemscore.Lipo.Weighted>
-10.0014

> <Gold.Chemscore.Internal_Hbond.Weighted>
0.0000

> <Gold.Chemscore.DEClash.Weighted>
0.0060

> <Gold.Chemscore.DEInternal.Weighted>
1.5507

> <Gold.Chemscore.Rot.Weighted>
4.5238

> <Gold.Chemscore.Internal.Correction.Weighted>
   9.000000E+99

> <Gold.Protein.RotatedTorsions>
[ 6907 6896 6895 6894 ] final  151.94 input  -60.11 | X-H torsion
[ 7974 7965 7964 7962 ] final   60.08 input  175.53 | X-H torsion
[ 8008 7997 7996 7995 ] final -173.85 input   59.86 | X-H torsion
[ 10167 10162 10161 10158 ] final  104.59 input  -65.29 | X-H torsion
[ 10718 10713 10712 10709 ] final   66.66 input   66.30 | X-H torsion
[ 10763 10752 10751 10750 ] final  -30.76 input  -60.55 | X-H torsion
[ 11005 11000 10999 10996 ] final  -76.03 input  -57.11 | X-H torsion

> <Gold.Protein.ActiveResidues>
 VAL166  LYS551  ARG553  GLY616  TRP617  ASP618  TYR619  PRO620  LYS621  CYS622 
 ASP623  PHE694  ASN695  SER759  ASP760  ASP761  ALA762  ILE779  LEU786  VAL792 
 PHE793  MET794  SER795  GLU796  ALA797  LYS798  CYS799  TRP800  GLU811  SER814 

> <Gold.Protein.RotatedAtoms>
  152.0936  133.4213  159.4554 H   0  0  0  0  0  0  0  0  0  0  0  0  # atno 6907 bound_to 6896
  150.6863  134.2843  159.4649 H   0  0  0  0  0  0  0  0  0  0  0  0  # atno 6908 bound_to 6896
  152.0696  134.9541  160.0625 H   0  0  0  0  0  0  0  0  0  0  0  0  # atno 6909 bound_to 6896
  145.9000  139.3574  143.0598 H   0  0  0  0  0  0  0  0  0  0  0  0  # atno 7974 bound_to 7965
  155.9626  140.1147  157.0882 H   0  0  0  0  0  0  0  0  0  0  0  0  # atno 8008 bound_to 7997
  154.4136  140.1179  156.5266 H   0  0  0  0  0  0  0  0  0  0  0  0  # atno 8009 bound_to 7997
  155.6700  140.3473  155.4817 H   0  0  0  0  0  0  0  0  0  0  0  0  # atno 8010 bound_to 7997
  139.7164  144.7067  151.0943 H   0  0  0  0  0  0  0  0  0  0  0  0  # atno 10167 bound_to 10162
  157.6183  130.9280  150.0139 H   0  0  0  0  0  0  0  0  0  0  0  0  # atno 10718 bound_to 10713
  153.7863  135.6901  153.4879 H   0  0  0  0  0  0  0  0  0  0  0  0  # atno 10763 bound_to 10752
  153.1778  135.4518  154.9987 H   0  0  0  0  0  0  0  0  0  0  0  0  # atno 10764 bound_to 10752
  154.8062  135.3358  154.7362 H   0  0  0  0  0  0  0  0  0  0  0  0  # atno 10765 bound_to 10752
  141.1650  133.6968  156.7607 H   0  0  0  0  0  0  0  0  0  0  0  0  # atno 11005 bound_to 11000
  145.8802  140.9367  143.0605 LP  0  0  0  0  0  0  0  0  0  0  0  0  # atno 17320 bound_to 7965
  144.6735  140.0770  143.7471 LP  0  0  0  0  0  0  0  0  0  0  0  0  # atno 17321 bound_to 7965
  140.7744  143.5224  150.9521 LP  0  0  0  0  0  0  0  0  0  0  0  0  # atno 17342 bound_to 10162
  139.8910  143.6953  152.3145 LP  0  0  0  0  0  0  0  0  0  0  0  0  # atno 17343 bound_to 10162
  156.1315  130.3643  149.9724 LP  0  0  0  0  0  0  0  0  0  0  0  0  # atno 17370 bound_to 10713
  156.7784  130.9212  151.3645 LP  0  0  0  0  0  0  0  0  0  0  0  0  # atno 17371 bound_to 10713
  140.2536  134.8521  157.3691 LP  0  0  0  0  0  0  0  0  0  0  0  0  # atno 17394 bound_to 11000
  140.1679  134.4646  155.7851 LP  0  0  0  0  0  0  0  0  0  0  0  0  # atno 17395 bound_to 11000

$$$$
