AV-unprocessed.smi:1829|AV-procd|sdf|7429|dock1
  -GOLD-   22720 9113D 1   1.00000     0.00000
 Structure written by MMmdl.
 45 47  0  0  0  0  0  0  0  0  1 V2000
  144.8836  144.4144  153.3489 C   0  0  0  0  0  0  0  0  0  0  0  0
  144.7277  143.2135  154.2953 C   0  0  0  0  0  0  0  0  0  0  0  0
  143.9120  143.5796  155.5453 C   0  0  0  0  0  0  0  0  0  0  0  0
  146.0757  142.6067  154.6642 C   0  0  0  0  0  0  0  0  0  0  0  0
  146.9496  142.1571  153.6512 C   0  0  0  0  0  0  0  0  0  0  0  0
  148.1950  141.5901  153.9849 C   0  0  0  0  0  0  0  0  0  0  0  0
  148.5832  141.4685  155.3355 C   0  0  0  0  0  0  0  0  0  0  0  0
  149.9245  140.8455  155.6887 C   0  0  1  0  0  0  0  0  0  0  0  0
  150.3855  139.9648  154.6824 O   0  0  0  0  0  0  0  0  0  0  0  0
  150.9861  141.9272  155.9710 C   0  0  0  0  0  0  0  0  0  0  0  0
  151.3720  141.9819  157.3750 N   0  0  0  0  0  0  0  0  0  0  0  0
  151.6988  140.9566  158.2025 C   0  0  0  0  0  0  0  0  0  0  0  0
  151.7003  139.5325  157.7227 C   0  0  0  0  0  0  0  0  0  0  0  0
  152.6791  139.2564  156.7407 O   0  0  0  0  0  0  0  0  0  0  0  0
  152.0185  141.3049  159.4516 N   0  0  0  0  0  0  0  0  0  0  0  0
  151.8853  142.6791  159.4311 C   0  0  0  0  0  0  0  0  0  0  0  0
  152.0824  143.6373  160.4512 C   0  0  0  0  0  0  0  0  0  0  0  0
  151.8838  145.0091  160.1899 C   0  0  0  0  0  0  0  0  0  0  0  0
  151.4863  145.4415  158.9080 C   0  0  0  0  0  0  0  0  0  0  0  0
  151.2845  144.5030  157.8777 C   0  0  0  0  0  0  0  0  0  0  0  0
  151.4836  143.1352  158.1443 C   0  0  0  0  0  0  0  0  0  0  0  0
  147.7090  141.9153  156.3499 C   0  0  0  0  0  0  0  0  0  0  0  0
  146.4638  142.4815  156.0160 C   0  0  0  0  0  0  0  0  0  0  0  0
  145.4224  144.1328  152.4436 H   0  0  0  0  0  0  0  0  0  0  0  0
  145.4291  145.2321  153.8211 H   0  0  0  0  0  0  0  0  0  0  0  0
  143.9104  144.8011  153.0452 H   0  0  0  0  0  0  0  0  0  0  0  0
  144.1604  142.4540  153.7555 H   0  0  0  0  0  0  0  0  0  0  0  0
  143.7594  142.7077  156.1822 H   0  0  0  0  0  0  0  0  0  0  0  0
  142.9286  143.9633  155.2720 H   0  0  0  0  0  0  0  0  0  0  0  0
  144.4098  144.3448  156.1417 H   0  0  0  0  0  0  0  0  0  0  0  0
  146.6684  142.2421  152.6117 H   0  0  0  0  0  0  0  0  0  0  0  0
  148.8500  141.2466  153.1975 H   0  0  0  0  0  0  0  0  0  0  0  0
  149.7914  140.2422  156.5877 H   0  0  0  0  0  0  0  0  0  0  0  0
  149.9517  139.1326  154.7919 H   0  0  0  0  0  0  0  0  0  0  0  0
  151.8691  141.7713  155.3515 H   0  0  0  0  0  0  0  0  0  0  0  0
  150.5954  142.9075  155.6950 H   0  0  0  0  0  0  0  0  0  0  0  0
  151.8687  138.8664  158.5688 H   0  0  0  0  0  0  0  0  0  0  0  0
  150.7193  139.2966  157.3097 H   0  0  0  0  0  0  0  0  0  0  0  0
  152.2692  138.7838  156.0328 H   0  0  0  0  0  0  0  0  0  0  0  0
  152.3870  143.3159  161.4362 H   0  0  0  0  0  0  0  0  0  0  0  0
  152.0374  145.7328  160.9769 H   0  0  0  0  0  0  0  0  0  0  0  0
  151.3363  146.4939  158.7163 H   0  0  0  0  0  0  0  0  0  0  0  0
  150.9799  144.8301  156.8945 H   0  0  0  0  0  0  0  0  0  0  0  0
  147.9893  141.8215  157.3889 H   0  0  0  0  0  0  0  0  0  0  0  0
  145.8066  142.8177  156.8047 H   0  0  0  0  0  0  0  0  0  0  0  0
  1  2  1  0  0  0  0
  1 24  1  0  0  0  0
  1 25  1  0  0  0  0
  1 26  1  0  0  0  0
  2  3  1  0  0  0  0
  2  4  1  0  0  0  0
  2 27  1  0  0  0  0
  3 28  1  0  0  0  0
  3 29  1  0  0  0  0
  3 30  1  0  0  0  0
  4 23  1  0  0  0  0
  4  5  2  0  0  0  0
  5  6  1  0  0  0  0
  5 31  1  0  0  0  0
  6  7  2  0  0  0  0
  6 32  1  0  0  0  0
  7  8  1  0  0  0  0
  7 22  1  0  0  0  0
  8  9  1  0  0  0  0
  8 10  1  0  0  0  0
  8 33  1  0  0  0  0
  9 34  1  0  0  0  0
 10 11  1  0  0  0  0
 10 35  1  0  0  0  0
 10 36  1  0  0  0  0
 11 21  1  0  0  0  0
 11 12  1  0  0  0  0
 12 13  1  0  0  0  0
 12 15  2  0  0  0  0
 13 14  1  0  0  0  0
 13 37  1  0  0  0  0
 13 38  1  0  0  0  0
 14 39  1  0  0  0  0
 15 16  1  0  0  0  0
 16 21  2  0  0  0  0
 16 17  1  0  0  0  0
 17 18  2  0  0  0  0
 17 40  1  0  0  0  0
 18 19  1  0  0  0  0
 18 41  1  0  0  0  0
 19 20  2  0  0  0  0
 19 42  1  0  0  0  0
 20 21  1  0  0  0  0
 20 43  1  0  0  0  0
 22 23  2  0  0  0  0
 22 44  1  0  0  0  0
 23 45  1  0  0  0  0
M  END
> <s_m_source_file>
AV-unprocessed.smi

> <i_m_source_file_index>
1829

> <i_lp_mmshare_version>
43012

> <i_f3d_flags>
0

> <s_epik_input>
W0NIM11bQ0hdKFtDSDNdKWMxW2NIXVtjSF1jKFtjSF1bY0hdMSlbQ0BIXShbT0hdKVtDSDJdbihjKG4yKVtDSDJdW09IXSljKGMyMylbY0hdW2NIXVtjSF1bY0hdMw==

> <s_epik_cmdline>
J2VwaWtfcHl0aG9uJywgJy1waCcsICc3LjAnLCAnLXRuJywgJzgnLCAnLW1hJywgJzIwMCcsICctbWV0YWxfYmluZGluZycsICctaW1hZScsICc8aW5maWxlLm1hZT4nLCAnLW9tYWUnLCAnPG91dGZpbGUubWFlPic=

> <r_epik_Ionization_Penalty>
0.0634718

> <r_epik_Ionization_Penalty_Charging>
0

> <r_epik_Ionization_Penalty_Neutral>
0.0634718

> <r_epik_State_Penalty>
0.0551572

> <r_epik_Charging_Adjusted_Penalty>
0.0551572

> <i_epik_Tot_Q>
0

> <i_epik_Tot_abs_Q>
0

> <r_epik_Metal_State_Penalty>
5.78034e-05

> <b_epik_Metal_Only>
0

> <s_lp_Force_Field>
OPLS_2005

> <r_lp_Energy>
13.3672

> <b_lp_Chiralities_Consistent>
1

> <s_lp_Variant>
AV-unprocessed.smi:1829-2

> <Gold.Version>
5.8.1

> <Gold.Id.Protein>
6NUR|6NUR_protein|mol2

> <Gold.PLP.Fitness>
54.4707

> <Gold.PLP.PLP>
-51.4929

> <Gold.PLP.part.hbond>
-2.0000

> <Gold.PLP.part.metal>
0.0000

> <Gold.PLP.part.buried>
-7.9632

> <Gold.PLP.part.nonpolar>
-40.8032

> <Gold.PLP.part.repulsive>
0.0000

> <Gold.PLP.ligand.clash>
0.0000

> <Gold.PLP.ligand.torsion>
1.5840

> <Gold.PLP.Chemscore.Hbond>
2.0000

> <Gold.PLP.Chemscore.CHOScore>
0.0000

> <Gold.PLP.Chemscore.Metal>
0.0000

> <Gold.Chemscore.Hbonds>
donor molecule, donor type, donor heavy atom, donor atom, acceptor molecule, acceptor atom, score
      P1  H  7989  7998       L1     9  1.00
      P1  H  7997  8008       L1    14  1.00

> <Gold.PLP.Chemscore.Internal.Correction>
0.1458

> <Gold.Rescore>
     Score         DG    S(hbond)    S(metal)    S(lipo)     H(rot)  DE(clash)    DE(int)     intcor
     17.12     -19.72       1.93        0.00     125.12       2.68       0.39       2.22       ----

> <Gold.Chemscore.Fitness>
17.1187

> <Gold.Chemscore.DG>
-19.7241

> <Gold.Chemscore.ZeroCoef>
-5.4800

> <Gold.Chemscore.Hbond>
1.9329

> <Gold.Chemscore.Metal>
0.0000

> <Gold.Chemscore.Lipo>
125.1185

> <Gold.Chemscore.Internal_Hbond>
0.0000

> <Gold.Chemscore.DEClash>
0.3850

> <Gold.Chemscore.DEInternal>
2.2204

> <Gold.Chemscore.Rot>
2.6761

> <Gold.Chemscore.Internal.Correction>
   9.000000E+99

> <Gold.Chemscore.Hbonds>
donor molecule, donor type, donor heavy atom, donor atom, acceptor molecule, acceptor atom, score
      P1  H  7989  7998       L1     9  0.78
      P1  H  7997  8008       L1    14  0.80

> <Gold.Chemscore.Hbond.Weighted>
-6.4560

> <Gold.Chemscore.Metal.Weighted>
-0.0000

> <Gold.Chemscore.Lipo.Weighted>
-14.6389

> <Gold.Chemscore.Internal_Hbond.Weighted>
0.0000

> <Gold.Chemscore.DEClash.Weighted>
0.3850

> <Gold.Chemscore.DEInternal.Weighted>
2.2204

> <Gold.Chemscore.Rot.Weighted>
6.8507

> <Gold.Chemscore.Internal.Correction.Weighted>
   9.000000E+99

> <Gold.Protein.RotatedTorsions>
[ 6907 6896 6895 6894 ] final -138.94 input  -60.11 | X-H torsion
[ 7974 7965 7964 7962 ] final  -37.47 input  175.53 | X-H torsion
[ 8008 7997 7996 7995 ] final  -33.63 input   59.86 | X-H torsion
[ 10167 10162 10161 10158 ] final  -15.74 input  -65.29 | X-H torsion
[ 10718 10713 10712 10709 ] final   60.96 input   66.30 | X-H torsion
[ 10763 10752 10751 10750 ] final  -60.49 input  -60.55 | X-H torsion
[ 11005 11000 10999 10996 ] final  149.09 input  -57.11 | X-H torsion

> <Gold.Protein.ActiveResidues>
 VAL166  LYS551  ARG553  GLY616  TRP617  ASP618  TYR619  PRO620  LYS621  CYS622 
 ASP623  PHE694  ASN695  SER759  ASP760  ASP761  ALA762  ILE779  LEU786  VAL792 
 PHE793  MET794  SER795  GLU796  ALA797  LYS798  CYS799  TRP800  GLU811  SER814 

> <Gold.Protein.RotatedAtoms>
  151.0414  133.5703  159.2650 H   0  0  0  0  0  0  0  0  0  0  0  0  # atno 6907 bound_to 6896
  151.2748  135.0695  159.9157 H   0  0  0  0  0  0  0  0  0  0  0  0  # atno 6908 bound_to 6896
  152.5365  134.0138  159.8004 H   0  0  0  0  0  0  0  0  0  0  0  0  # atno 6909 bound_to 6896
  146.0571  140.6400  142.9014 H   0  0  0  0  0  0  0  0  0  0  0  0  # atno 7974 bound_to 7965
  154.4143  140.1705  156.1919 H   0  0  0  0  0  0  0  0  0  0  0  0  # atno 8008 bound_to 7997
  155.9596  140.3394  155.6455 H   0  0  0  0  0  0  0  0  0  0  0  0  # atno 8009 bound_to 7997
  155.6765  140.0717  157.2491 H   0  0  0  0  0  0  0  0  0  0  0  0  # atno 8010 bound_to 7997
  140.7223  143.5187  150.9660 H   0  0  0  0  0  0  0  0  0  0  0  0  # atno 10167 bound_to 10162
  157.5792  130.8968  149.9401 H   0  0  0  0  0  0  0  0  0  0  0  0  # atno 10718 bound_to 10713
  154.2700  135.6292  153.5306 H   0  0  0  0  0  0  0  0  0  0  0  0  # atno 10763 bound_to 10752
  152.9882  135.5608  154.5611 H   0  0  0  0  0  0  0  0  0  0  0  0  # atno 10764 bound_to 10752
  154.5179  135.2880  155.1263 H   0  0  0  0  0  0  0  0  0  0  0  0  # atno 10765 bound_to 10752
  140.1015  134.8980  157.1802 H   0  0  0  0  0  0  0  0  0  0  0  0  # atno 11005 bound_to 11000
  144.7154  140.4191  143.7048 LP  0  0  0  0  0  0  0  0  0  0  0  0  # atno 17320 bound_to 7965
  145.6624  139.1584  143.2801 LP  0  0  0  0  0  0  0  0  0  0  0  0  # atno 17321 bound_to 7965
  139.8903  143.6961  152.3146 LP  0  0  0  0  0  0  0  0  0  0  0  0  # atno 17342 bound_to 10162
  139.7274  144.7590  151.0856 LP  0  0  0  0  0  0  0  0  0  0  0  0  # atno 17343 bound_to 10162
  156.0837  130.3670  150.0529 LP  0  0  0  0  0  0  0  0  0  0  0  0  # atno 17370 bound_to 10713
  156.8671  130.9511  151.3613 LP  0  0  0  0  0  0  0  0  0  0  0  0  # atno 17371 bound_to 10713
  140.3214  134.2912  155.7245 LP  0  0  0  0  0  0  0  0  0  0  0  0  # atno 17394 bound_to 11000
  141.2107  133.7712  156.9916 LP  0  0  0  0  0  0  0  0  0  0  0  0  # atno 17395 bound_to 11000

$$$$
