AV-unprocessed.smi:1419|AV-procd|sdf|5785|dock1
  -GOLD-   22720 5433D 1   1.00000     0.00000
 Structure written by MMmdl.
 41 42  0  0  0  0  0  0  0  0  1 V2000
  151.3731  140.0475  155.5629 C   0  0  0  0  0  0  0  0  0  0  0  0
  150.6074  141.3496  155.8494 C   0  0  1  0  0  0  0  0  0  0  0  0
  149.1579  141.1094  156.3265 C   0  0  0  0  0  0  0  0  0  0  0  0
  148.2031  141.0908  155.2345 N   0  0  0  0  0  0  0  0  0  0  0  0
  147.8095  139.9928  154.4809 C   0  0  0  0  0  0  0  0  0  0  0  0
  146.8892  140.4535  153.5667 C   0  0  0  0  0  0  0  0  0  0  0  0
  146.6991  141.8224  153.7418 N   0  0  0  0  0  0  0  0  0  0  0  0
  147.5077  142.1280  154.7483 C   0  0  0  0  0  0  0  0  0  0  0  0
  151.3435  142.1233  156.8444 N   0  0  0  0  0  0  0  0  0  0  0  0
  151.6040  141.7353  158.1044 C   0  0  0  0  0  0  0  0  0  0  0  0
  151.2243  140.6509  158.5483 O   0  0  0  0  0  0  0  0  0  0  0  0
  152.3175  142.6273  158.8355 N   0  0  0  0  0  0  0  0  0  0  0  0
  152.9574  142.3956  160.1373 C   0  0  0  0  0  0  0  0  0  0  0  0
  152.1827  143.1935  161.2035 C   0  0  1  0  0  0  0  0  0  0  0  0
  152.8202  143.0698  162.5916 C   0  0  0  0  0  0  0  0  0  0  0  0
  152.1689  144.5784  160.8466 O   0  0  0  0  0  0  0  0  0  0  0  0
  151.6580  144.8797  159.5437 C   0  0  2  0  0  0  0  0  0  0  0  0
  150.1267  144.7263  159.4920 C   0  0  0  0  0  0  0  0  0  0  0  0
  152.4080  144.0461  158.4827 C   0  0  0  0  0  0  0  0  0  0  0  0
  150.9102  139.4798  154.7555 H   0  0  0  0  0  0  0  0  0  0  0  0
  151.4075  139.4064  156.4442 H   0  0  0  0  0  0  0  0  0  0  0  0
  152.4005  140.2554  155.2620 H   0  0  0  0  0  0  0  0  0  0  0  0
  150.5793  141.9221  154.9203 H   0  0  0  0  0  0  0  0  0  0  0  0
  149.0882  140.1617  156.8624 H   0  0  0  0  0  0  0  0  0  0  0  0
  148.8505  141.8867  157.0276 H   0  0  0  0  0  0  0  0  0  0  0  0
  148.2076  139.0031  154.6503 H   0  0  0  0  0  0  0  0  0  0  0  0
  146.3526  139.9095  152.8036 H   0  0  0  0  0  0  0  0  0  0  0  0
  147.5990  143.1307  155.1397 H   0  0  0  0  0  0  0  0  0  0  0  0
  151.6871  143.0265  156.5520 H   0  0  0  0  0  0  0  0  0  0  0  0
  153.0098  141.3451  160.4231 H   0  0  0  0  0  0  0  0  0  0  0  0
  153.9930  142.7364  160.0920 H   0  0  0  0  0  0  0  0  0  0  0  0
  151.1592  142.8224  161.2658 H   0  0  0  0  0  0  0  0  0  0  0  0
  152.8453  142.0310  162.9215 H   0  0  0  0  0  0  0  0  0  0  0  0
  152.2559  143.6393  163.3304 H   0  0  0  0  0  0  0  0  0  0  0  0
  153.8435  143.4463  162.5915 H   0  0  0  0  0  0  0  0  0  0  0  0
  151.8811  145.9315  159.3623 H   0  0  0  0  0  0  0  0  0  0  0  0
  149.7393  145.0458  158.5243 H   0  0  0  0  0  0  0  0  0  0  0  0
  149.6499  145.3396  160.2566 H   0  0  0  0  0  0  0  0  0  0  0  0
  149.8054  143.6964  159.6447 H   0  0  0  0  0  0  0  0  0  0  0  0
  153.4585  144.3389  158.4562 H   0  0  0  0  0  0  0  0  0  0  0  0
  152.0167  144.2642  157.4879 H   0  0  0  0  0  0  0  0  0  0  0  0
  1  2  1  0  0  0  0
  1 20  1  0  0  0  0
  1 21  1  0  0  0  0
  1 22  1  0  0  0  0
  2  3  1  0  0  0  0
  2  9  1  0  0  0  0
  2 23  1  0  0  0  0
  3  4  1  0  0  0  0
  3 24  1  0  0  0  0
  3 25  1  0  0  0  0
  4  8  1  0  0  0  0
  4  5  1  0  0  0  0
  5  6  2  0  0  0  0
  5 26  1  0  0  0  0
  6  7  1  0  0  0  0
  6 27  1  0  0  0  0
  7  8  2  0  0  0  0
  8 28  1  0  0  0  0
  9 10  1  0  0  0  0
  9 29  1  0  0  0  0
 10 11  2  0  0  0  0
 10 12  1  0  0  0  0
 12 19  1  0  0  0  0
 12 13  1  0  0  0  0
 13 14  1  0  0  0  0
 13 30  1  0  0  0  0
 13 31  1  0  0  0  0
 14 15  1  0  0  0  0
 14 16  1  0  0  0  0
 14 32  1  0  0  0  0
 15 33  1  0  0  0  0
 15 34  1  0  0  0  0
 15 35  1  0  0  0  0
 16 17  1  0  0  0  0
 17 18  1  0  0  0  0
 17 19  1  0  0  0  0
 17 36  1  0  0  0  0
 18 37  1  0  0  0  0
 18 38  1  0  0  0  0
 18 39  1  0  0  0  0
 19 40  1  0  0  0  0
 19 41  1  0  0  0  0
M  END
> <s_m_source_file>
AV-unprocessed.smi

> <i_m_source_file_index>
1419

> <i_lp_mmshare_version>
43012

> <i_f3d_flags>
0

> <s_epik_input>
W2NIXTFuW2NIXVtjSF1uMVtDSDJdW0NAQEhdKFtDSDNdKVtOSF1DKD1PKU4yW0NIMl1bQ0BASF0oW0NIM10pT1tDQEBIXShbQ0gzXSlbQ0gyXTI=

> <s_epik_cmdline>
J2VwaWtfcHl0aG9uJywgJy1waCcsICc3LjAnLCAnLXRuJywgJzgnLCAnLW1hJywgJzIwMCcsICctbWV0YWxfYmluZGluZycsICctaW1hZScsICc8aW5maWxlLm1hZT4nLCAnLW9tYWUnLCAnPG91dGZpbGUubWFlPic=

> <r_lp_tautomer_probability>
1

> <r_epik_Ionization_Penalty>
0.625124

> <r_epik_Ionization_Penalty_Charging>
0.625093

> <r_epik_Ionization_Penalty_Neutral>
3.17415e-05

> <r_epik_State_Penalty>
0.641455

> <r_epik_Charging_Adjusted_Penalty>
1.26655

> <i_epik_Tot_Q>
0

> <i_epik_Tot_abs_Q>
0

> <r_epik_Metal_State_Penalty>
0.307717

> <b_epik_Metal_Only>
0

> <s_lp_Force_Field>
OPLS_2005

> <r_lp_Energy>
31.3243

> <b_lp_Chiralities_Consistent>
1

> <s_lp_Variant>
AV-unprocessed.smi:1419-12

> <Gold.Version>
5.8.1

> <Gold.Id.Protein>
6NUR|6NUR_protein|mol2

> <Gold.PLP.Fitness>
44.4011

> <Gold.PLP.PLP>
-41.6388

> <Gold.PLP.part.hbond>
0.0000

> <Gold.PLP.part.metal>
0.0000

> <Gold.PLP.part.buried>
-2.5810

> <Gold.PLP.part.nonpolar>
-39.8953

> <Gold.PLP.part.repulsive>
0.4173

> <Gold.PLP.ligand.clash>
0.3184

> <Gold.PLP.ligand.torsion>
0.9270

> <Gold.PLP.Chemscore.Hbond>
0.0000

> <Gold.PLP.Chemscore.CHOScore>
1.6299

> <Gold.PLP.Chemscore.Metal>
0.0000

> <Gold.Chemscore.Hbonds>
donor molecule, donor type, donor heavy atom, donor atom, acceptor molecule, acceptor atom, score
      L1  C     6    27       P1 10175  0.35
      L1  C     8    28       P1  8028  1.00

> <Gold.PLP.Chemscore.Internal.Correction>
0.0451

> <Gold.Rescore>
     Score         DG    S(hbond)    S(metal)    S(lipo)     H(rot)  DE(clash)    DE(int)     intcor
     11.29     -13.09       0.00        0.00      99.57       1.58       0.11       1.70       ----

> <Gold.Chemscore.Fitness>
11.2867

> <Gold.Chemscore.DG>
-13.0932

> <Gold.Chemscore.ZeroCoef>
-5.4800

> <Gold.Chemscore.Hbond>
0.0000

> <Gold.Chemscore.Metal>
0.0000

> <Gold.Chemscore.Lipo>
99.5731

> <Gold.Chemscore.Internal_Hbond>
0.0000

> <Gold.Chemscore.DEClash>
0.1053

> <Gold.Chemscore.DEInternal>
1.7011

> <Gold.Chemscore.Rot>
1.5769

> <Gold.Chemscore.Internal.Correction>
   9.000000E+99

> <Gold.Chemscore.Hbond.Weighted>
-0.0000

> <Gold.Chemscore.Metal.Weighted>
-0.0000

> <Gold.Chemscore.Lipo.Weighted>
-11.6501

> <Gold.Chemscore.Internal_Hbond.Weighted>
0.0000

> <Gold.Chemscore.DEClash.Weighted>
0.1053

> <Gold.Chemscore.DEInternal.Weighted>
1.7011

> <Gold.Chemscore.Rot.Weighted>
4.0369

> <Gold.Chemscore.Internal.Correction.Weighted>
   9.000000E+99

> <Gold.Protein.RotatedTorsions>
[ 6907 6896 6895 6894 ] final  -48.22 input  -60.11 | X-H torsion
[ 7974 7965 7964 7962 ] final  -76.88 input  175.53 | X-H torsion
[ 8008 7997 7996 7995 ] final  -56.92 input   59.86 | X-H torsion
[ 10167 10162 10161 10158 ] final -132.17 input  -65.29 | X-H torsion
[ 10718 10713 10712 10709 ] final -118.12 input   66.30 | X-H torsion
[ 10763 10752 10751 10750 ] final   78.49 input  -60.55 | X-H torsion
[ 11005 11000 10999 10996 ] final  -80.20 input  -57.11 | X-H torsion

> <Gold.Protein.ActiveResidues>
 VAL166  LYS551  ARG553  GLY616  TRP617  ASP618  TYR619  PRO620  LYS621  CYS622 
 ASP623  PHE694  ASN695  SER759  ASP760  ASP761  ALA762  ILE779  LEU786  VAL792 
 PHE793  MET794  SER795  GLU796  ALA797  LYS798  CYS799  TRP800  GLU811  SER814 

> <Gold.Protein.RotatedAtoms>
  150.8928  134.8333  159.7304 H   0  0  0  0  0  0  0  0  0  0  0  0  # atno 6907 bound_to 6896
  152.4847  134.4622  159.9619 H   0  0  0  0  0  0  0  0  0  0  0  0  # atno 6908 bound_to 6896
  151.4683  133.3536  159.2855 H   0  0  0  0  0  0  0  0  0  0  0  0  # atno 6909 bound_to 6896
  145.6071  140.9395  143.1209 H   0  0  0  0  0  0  0  0  0  0  0  0  # atno 7974 bound_to 7965
  154.4248  140.1119  156.5714 H   0  0  0  0  0  0  0  0  0  0  0  0  # atno 8008 bound_to 7997
  155.6208  140.3495  155.4632 H   0  0  0  0  0  0  0  0  0  0  0  0  # atno 8009 bound_to 7997
  156.0026  140.1202  157.0522 H   0  0  0  0  0  0  0  0  0  0  0  0  # atno 8010 bound_to 7997
  139.9113  143.6491  152.2574 H   0  0  0  0  0  0  0  0  0  0  0  0  # atno 10167 bound_to 10162
  156.1083  130.6228  150.9250 H   0  0  0  0  0  0  0  0  0  0  0  0  # atno 10718 bound_to 10713
  153.0878  135.4875  154.8631 H   0  0  0  0  0  0  0  0  0  0  0  0  # atno 10763 bound_to 10752
  154.7232  135.3044  154.9015 H   0  0  0  0  0  0  0  0  0  0  0  0  # atno 10764 bound_to 10752
  153.9673  135.6805  153.4799 H   0  0  0  0  0  0  0  0  0  0  0  0  # atno 10765 bound_to 10752
  141.1668  133.7140  156.8237 H   0  0  0  0  0  0  0  0  0  0  0  0  # atno 11005 bound_to 11000
  144.7285  139.7798  143.7356 LP  0  0  0  0  0  0  0  0  0  0  0  0  # atno 17320 bound_to 7965
  146.1533  139.4622  143.0035 LP  0  0  0  0  0  0  0  0  0  0  0  0  # atno 17321 bound_to 7965
  139.6940  144.7643  151.1388 LP  0  0  0  0  0  0  0  0  0  0  0  0  # atno 17342 bound_to 10162
  140.7684  143.5549  150.9163 LP  0  0  0  0  0  0  0  0  0  0  0  0  # atno 17343 bound_to 10162
  157.6262  131.0925  150.8530 LP  0  0  0  0  0  0  0  0  0  0  0  0  # atno 17370 bound_to 10713
  156.8645  130.5124  149.5301 LP  0  0  0  0  0  0  0  0  0  0  0  0  # atno 17371 bound_to 10713
  140.2100  134.8834  157.3264 LP  0  0  0  0  0  0  0  0  0  0  0  0  # atno 17394 bound_to 11000
  140.2096  134.4154  155.7619 LP  0  0  0  0  0  0  0  0  0  0  0  0  # atno 17395 bound_to 11000

$$$$
