AV-unprocessed.smi:103|AV-procd|sdf|978|dock3
  -GOLD-   2262017533D 1   1.00000     0.00000
 Structure written by MMmdl.
 53 55  0  0  0  0  0  0  0  0  1 V2000
  151.5636  144.5548  158.9067 C   0  0  0  0  0  0  0  0  0  0  0  0
  151.9103  143.0749  159.0076 C   0  0  0  0  0  0  0  0  0  0  0  0
  152.7964  142.6745  159.7627 O   0  0  0  0  0  0  0  0  0  0  0  0
  151.1499  142.3107  158.2039 O   0  0  0  0  0  0  0  0  0  0  0  0
  151.5310  140.9742  157.9046 C   0  0  0  0  0  0  0  0  0  0  0  0
  151.0534  139.9975  159.0002 C   0  0  1  0  0  0  0  0  0  0  0  0
  149.6265  139.9265  158.9355 O   0  0  0  0  0  0  0  0  0  0  0  0
  149.2067  138.6355  158.6150 C   0  0  1  0  0  0  0  0  0  0  0  0
  148.0296  138.7019  157.6872 N   0  0  0  0  0  0  0  0  0  0  0  0
  146.7897  138.1094  157.8166 C   0  0  0  0  0  0  0  0  0  0  0  0
  146.2115  137.1532  159.2130 S   0  0  0  0  0  0  0  0  0  0  0  0
  146.5420  135.4346  158.6501 C   0  0  0  0  0  0  0  0  0  0  0  0
  147.0913  137.4746  160.3476 O   0  0  0  0  0  0  0  0  0  0  0  0
  144.7582  137.3564  159.3122 O   0  0  0  0  0  0  0  0  0  0  0  0
  145.9179  138.3595  156.8784 N   0  0  0  0  0  0  0  0  0  0  0  0
  146.6371  139.1365  155.9819 C   0  0  0  0  0  0  0  0  0  0  0  0
  146.3336  139.7297  154.7308 C   0  0  0  0  0  0  0  0  0  0  0  0
  145.1378  139.6131  154.1376 N   0  0  0  0  0  0  0  0  0  0  0  0
  147.2952  140.4456  154.1030 N   0  0  0  0  0  0  0  0  0  0  0  0
  148.4967  140.5753  154.6733 C   0  0  0  0  0  0  0  0  0  0  0  0
  148.9257  140.0800  155.8363 N   0  0  0  0  0  0  0  0  0  0  0  0
  147.9566  139.3576  156.4716 C   0  0  0  0  0  0  0  0  0  0  0  0
  150.4115  137.9098  158.0057 C   0  0  1  0  0  0  0  0  0  0  0  0
  150.5427  138.1816  156.6105 O   0  0  0  0  0  0  0  0  0  0  0  0
  151.2799  137.3826  155.8190 C   0  0  0  0  0  0  0  0  0  0  0  0
  151.3446  137.8907  154.3853 C   0  0  0  0  0  0  0  0  0  0  0  0
  151.8431  136.3424  156.1589 O   0  0  0  0  0  0  0  0  0  0  0  0
  151.5324  138.5494  158.8073 C   0  0  1  0  0  0  0  0  0  0  0  0
  152.8073  138.4352  158.1828 O   0  0  0  0  0  0  0  0  0  0  0  0
  153.5290  137.3089  158.3181 C   0  0  0  0  0  0  0  0  0  0  0  0
  154.8406  137.3633  157.5467 C   0  0  0  0  0  0  0  0  0  0  0  0
  153.2079  136.3169  158.9725 O   0  0  0  0  0  0  0  0  0  0  0  0
  151.0337  144.7671  157.9776 H   0  0  0  0  0  0  0  0  0  0  0  0
  152.4711  145.1587  158.9305 H   0  0  0  0  0  0  0  0  0  0  0  0
  150.9298  144.8511  159.7425 H   0  0  0  0  0  0  0  0  0  0  0  0
  151.1044  140.7018  156.9402 H   0  0  0  0  0  0  0  0  0  0  0  0
  152.6139  140.9203  157.7850 H   0  0  0  0  0  0  0  0  0  0  0  0
  151.3638  140.3553  159.9821 H   0  0  0  0  0  0  0  0  0  0  0  0
  148.8381  138.1620  159.5245 H   0  0  0  0  0  0  0  0  0  0  0  0
  146.2302  134.7335  159.4237 H   0  0  0  0  0  0  0  0  0  0  0  0
  147.6086  135.3146  158.4609 H   0  0  0  0  0  0  0  0  0  0  0  0
  145.9866  135.2366  157.7338 H   0  0  0  0  0  0  0  0  0  0  0  0
  144.4045  139.0823  154.5853 H   0  0  0  0  0  0  0  0  0  0  0  0
  144.9740  140.0505  153.2425 H   0  0  0  0  0  0  0  0  0  0  0  0
  149.2168  141.1608  154.1208 H   0  0  0  0  0  0  0  0  0  0  0  0
  150.3491  136.8399  158.2058 H   0  0  0  0  0  0  0  0  0  0  0  0
  150.4098  138.3804  154.1104 H   0  0  0  0  0  0  0  0  0  0  0  0
  151.5160  137.0638  153.6956 H   0  0  0  0  0  0  0  0  0  0  0  0
  152.1583  138.6079  154.2765 H   0  0  0  0  0  0  0  0  0  0  0  0
  151.5627  138.0806  159.7925 H   0  0  0  0  0  0  0  0  0  0  0  0
  154.6722  137.7372  156.5366 H   0  0  0  0  0  0  0  0  0  0  0  0
  155.2846  136.3701  157.4771 H   0  0  0  0  0  0  0  0  0  0  0  0
  155.5473  138.0238  158.0490 H   0  0  0  0  0  0  0  0  0  0  0  0
  1  2  1  0  0  0  0
  1 33  1  0  0  0  0
  1 34  1  0  0  0  0
  1 35  1  0  0  0  0
  2  3  2  0  0  0  0
  2  4  1  0  0  0  0
  4  5  1  0  0  0  0
  5  6  1  0  0  0  0
  5 36  1  0  0  0  0
  5 37  1  0  0  0  0
  6 28  1  0  0  0  0
  6  7  1  0  0  0  0
  6 38  1  0  0  0  0
  7  8  1  0  0  0  0
  8  9  1  0  0  0  0
  8 23  1  0  0  0  0
  8 39  1  0  0  0  0
  9 22  1  0  0  0  0
  9 10  1  0  0  0  0
 10 11  1  0  0  0  0
 10 15  2  0  0  0  0
 11 12  1  0  0  0  0
 11 13  2  0  0  0  0
 11 14  2  0  0  0  0
 12 40  1  0  0  0  0
 12 41  1  0  0  0  0
 12 42  1  0  0  0  0
 15 16  1  0  0  0  0
 16 22  2  0  0  0  0
 16 17  1  0  0  0  0
 17 18  1  0  0  0  0
 17 19  2  0  0  0  0
 18 43  1  0  0  0  0
 18 44  1  0  0  0  0
 19 20  1  0  0  0  0
 20 21  2  0  0  0  0
 20 45  1  0  0  0  0
 21 22  1  0  0  0  0
 23 24  1  0  0  0  0
 23 28  1  0  0  0  0
 23 46  1  0  0  0  0
 24 25  1  0  0  0  0
 25 26  1  0  0  0  0
 25 27  2  0  0  0  0
 26 47  1  0  0  0  0
 26 48  1  0  0  0  0
 26 49  1  0  0  0  0
 28 29  1  0  0  0  0
 28 50  1  0  0  0  0
 29 30  1  0  0  0  0
 30 31  1  0  0  0  0
 30 32  2  0  0  0  0
 31 51  1  0  0  0  0
 31 52  1  0  0  0  0
 31 53  1  0  0  0  0
M  END
> <s_m_source_file>
AV-unprocessed.smi

> <i_m_source_file_index>
103

> <i_lp_mmshare_version>
43012

> <i_f3d_flags>
0

> <s_epik_input>
W0NIM11DKD1PKU9bQ0gyXVtDQEBIXTFPW0NASF0oW0NAQEhdKE9DKD1PKVtDSDNdKVtDQEhdMU9DKD1PKVtDSDNdKW4oYyhuMilTKD1PKSg9TylbQ0gzXSljKGMyMyluW2NIXW5jM1tOSDJd

> <s_epik_cmdline>
J2VwaWtfcHl0aG9uJywgJy1waCcsICc3LjAnLCAnLXRuJywgJzgnLCAnLW1hJywgJzIwMCcsICctbWV0YWxfYmluZGluZycsICctaW1hZScsICc8aW5maWxlLm1hZT4nLCAnLW9tYWUnLCAnPG91dGZpbGUubWFlPic=

> <r_lp_tautomer_probability>
1

> <r_epik_Ionization_Penalty>
1.51338e-05

> <r_epik_Ionization_Penalty_Charging>
0

> <r_epik_Ionization_Penalty_Neutral>
1.51338e-05

> <r_epik_State_Penalty>
-0

> <r_epik_Charging_Adjusted_Penalty>
0

> <i_epik_Tot_Q>
0

> <i_epik_Tot_abs_Q>
0

> <r_epik_Metal_State_Penalty>
-0

> <b_epik_Metal_Only>
0

> <s_epik_Chemistry_Notes>
This compound has an ester and may undergo hydrolysis at high or low pH. This compound contains an acetal/aminal-like group ( X-CH(R)-Y where X, Y are N, S, or O) that may be acid/base labile, releasing an aldehyde.

> <s_lp_Force_Field>
OPLS_2005

> <r_lp_Energy>
15.224

> <b_lp_Chiralities_Consistent>
1

> <s_lp_Variant>
AV-unprocessed.smi:103-2

> <Gold.Version>
5.8.1

> <Gold.Id.Protein>
6NUR|6NUR_protein|mol2

> <Gold.PLP.Fitness>
39.8369

> <Gold.PLP.PLP>
-28.9492

> <Gold.PLP.part.hbond>
-5.9213

> <Gold.PLP.part.metal>
0.0000

> <Gold.PLP.part.buried>
-3.6527

> <Gold.PLP.part.nonpolar>
-21.0019

> <Gold.PLP.part.repulsive>
0.1690

> <Gold.PLP.ligand.clash>
0.0000

> <Gold.PLP.ligand.torsion>
1.9102

> <Gold.PLP.Chemscore.Hbond>
4.0651

> <Gold.PLP.Chemscore.CHOScore>
0.0000

> <Gold.PLP.Chemscore.Metal>
0.0000

> <Gold.Chemscore.Hbonds>
donor molecule, donor type, donor heavy atom, donor atom, acceptor molecule, acceptor atom, score
      L1  H    18    44       P1 10175  0.67
      P1  H  6896  6909       L1    32  0.83
      P1  H  6934  6947       L1    13  1.00
      P1  H 10752 10764       L1    27  1.00

> <Gold.PLP.Chemscore.Internal.Correction>
2.5128

> <Gold.Rescore>
     Score         DG    S(hbond)    S(metal)    S(lipo)     H(rot)  DE(clash)    DE(int)     intcor
      5.71     -11.61       3.55        0.00      43.81       4.25       0.22       5.68       ----

> <Gold.Chemscore.Fitness>
5.7105

> <Gold.Chemscore.DG>
-11.6083

> <Gold.Chemscore.ZeroCoef>
-5.4800

> <Gold.Chemscore.Hbond>
3.5543

> <Gold.Chemscore.Metal>
0.0000

> <Gold.Chemscore.Lipo>
43.8089

> <Gold.Chemscore.Internal_Hbond>
0.0000

> <Gold.Chemscore.DEClash>
0.2213

> <Gold.Chemscore.DEInternal>
5.6765

> <Gold.Chemscore.Rot>
4.2456

> <Gold.Chemscore.Internal.Correction>
   9.000000E+99

> <Gold.Chemscore.Hbonds>
donor molecule, donor type, donor heavy atom, donor atom, acceptor molecule, acceptor atom, score
      L1  H    18    44       P1 10175  0.65
      P1  H  6896  6909       L1    32  0.79
      P1  H  6934  6947       L1    13  0.97
      P1  H 10752 10764       L1    27  0.92

> <Gold.Chemscore.Hbond.Weighted>
-11.8714

> <Gold.Chemscore.Metal.Weighted>
-0.0000

> <Gold.Chemscore.Lipo.Weighted>
-5.1256

> <Gold.Chemscore.Internal_Hbond.Weighted>
0.0000

> <Gold.Chemscore.DEClash.Weighted>
0.2213

> <Gold.Chemscore.DEInternal.Weighted>
5.6765

> <Gold.Chemscore.Rot.Weighted>
10.8687

> <Gold.Chemscore.Internal.Correction.Weighted>
   9.000000E+99

> <Gold.Protein.RotatedTorsions>
[ 6907 6896 6895 6894 ] final  167.75 input  -60.11 | X-H torsion
[ 7974 7965 7964 7962 ] final   50.81 input  175.53 | X-H torsion
[ 8008 7997 7996 7995 ] final -148.07 input   59.86 | X-H torsion
[ 10167 10162 10161 10158 ] final   71.95 input  -65.29 | X-H torsion
[ 10718 10713 10712 10709 ] final  -20.92 input   66.30 | X-H torsion
[ 10763 10752 10751 10750 ] final  -46.36 input  -60.55 | X-H torsion
[ 11005 11000 10999 10996 ] final -151.44 input  -57.11 | X-H torsion

> <Gold.Protein.ActiveResidues>
 VAL166  LYS551  ARG553  GLY616  TRP617  ASP618  TYR619  PRO620  LYS621  CYS622 
 ASP623  PHE694  ASN695  SER759  ASP760  ASP761  ALA762  ILE779  LEU786  VAL792 
 PHE793  MET794  SER795  GLU796  ALA797  LYS798  CYS799  TRP800  GLU811  SER814 

> <Gold.Protein.RotatedAtoms>
  151.8584  133.3452  159.3695 H   0  0  0  0  0  0  0  0  0  0  0  0  # atno 6907 bound_to 6896
  150.7186  134.5230  159.5672 H   0  0  0  0  0  0  0  0  0  0  0  0  # atno 6908 bound_to 6896
  152.2738  134.7904  160.0460 H   0  0  0  0  0  0  0  0  0  0  0  0  # atno 6909 bound_to 6896
  145.9975  139.4403  143.0035 H   0  0  0  0  0  0  0  0  0  0  0  0  # atno 7974 bound_to 7965
  155.5857  140.0647  157.2771 H   0  0  0  0  0  0  0  0  0  0  0  0  # atno 8008 bound_to 7997
  154.4319  140.1844  156.1069 H   0  0  0  0  0  0  0  0  0  0  0  0  # atno 8009 bound_to 7997
  156.0271  140.3310  155.7103 H   0  0  0  0  0  0  0  0  0  0  0  0  # atno 8010 bound_to 7997
  140.0406  144.5393  150.7437 H   0  0  0  0  0  0  0  0  0  0  0  0  # atno 10167 bound_to 10162
  156.5252  130.4642  149.6576 H   0  0  0  0  0  0  0  0  0  0  0  0  # atno 10718 bound_to 10713
  154.0438  135.6640  153.4793 H   0  0  0  0  0  0  0  0  0  0  0  0  # atno 10763 bound_to 10752
  153.0491  135.5096  154.7817 H   0  0  0  0  0  0  0  0  0  0  0  0  # atno 10764 bound_to 10752
  154.6801  135.3043  154.9590 H   0  0  0  0  0  0  0  0  0  0  0  0  # atno 10765 bound_to 10752
  140.7295  134.3637  157.5169 H   0  0  0  0  0  0  0  0  0  0  0  0  # atno 11005 bound_to 11000
  145.7538  140.9962  143.1236 LP  0  0  0  0  0  0  0  0  0  0  0  0  # atno 17320 bound_to 7965
  144.6908  139.9246  143.7469 LP  0  0  0  0  0  0  0  0  0  0  0  0  # atno 17321 bound_to 7965
  140.7262  143.2639  151.4112 LP  0  0  0  0  0  0  0  0  0  0  0  0  # atno 17342 bound_to 10162
  139.6017  144.1283  152.2205 LP  0  0  0  0  0  0  0  0  0  0  0  0  # atno 17343 bound_to 10162
  156.3112  130.7230  151.2123 LP  0  0  0  0  0  0  0  0  0  0  0  0  # atno 17370 bound_to 10713
  157.7430  131.0481  150.4977 LP  0  0  0  0  0  0  0  0  0  0  0  0  # atno 17371 bound_to 10713
  139.8829  134.9009  156.2798 LP  0  0  0  0  0  0  0  0  0  0  0  0  # atno 17394 bound_to 11000
  140.9933  133.7195  156.0848 LP  0  0  0  0  0  0  0  0  0  0  0  0  # atno 17395 bound_to 11000

$$$$
