AV-unprocessed.smi:3032|AV-procd|sdf|11570|dock3
  -GOLD-   2272016533D 1   1.00000     0.00000
 Structure written by MMmdl.
 36 37  0  0  0  0  0  0  0  0  2 V2000
  151.1254  144.3580  158.6300 C   0  0  0  0  0  0  0  0  0  0  0  0
  152.2208  143.3841  159.0869 C   0  0  1  0  0  0  0  0  0  0  0  0
  152.4631  143.4780  160.6057 C   0  0  0  0  0  0  0  0  0  0  0  0
  153.5548  142.4981  161.0648 C   0  0  0  0  0  0  0  0  0  0  0  0
  153.2191  141.0560  160.6529 C   0  0  0  0  0  0  0  0  0  0  0  0
  152.9914  140.9514  159.1309 C   0  0  1  0  0  0  0  0  0  0  0  0
  152.6372  139.5172  158.7170 C   0  0  0  0  0  0  0  0  0  0  0  0
  153.4053  138.8705  158.0040 O   0  0  0  0  0  0  0  0  0  0  0  0
  151.4787  139.0326  159.1908 N   0  0  0  0  0  0  0  0  0  0  0  0
  151.0143  137.6537  159.0626 C   0  0  0  0  0  0  0  0  0  0  0  0
  149.5483  137.5083  159.5089 C   0  0  0  0  0  0  0  0  0  0  0  0
  149.3453  136.4523  160.5783 C   0  0  0  0  0  0  0  0  0  0  0  0
  148.8621  136.6716  161.8183 N   0  5  0  0  0  0  0  0  0  0  0  0
  148.7670  135.5326  162.4763 N   0  0  0  0  0  0  0  0  0  0  0  0
  149.1990  134.6137  161.6048 C   0  0  0  0  0  0  0  0  0  0  0  0
  149.5596  135.1463  160.4327 N   0  0  0  0  0  0  0  0  0  0  0  0
  151.8878  141.9341  158.6850 C   0  0  0  0  0  0  0  0  0  0  0  0
  150.1691  144.1291  159.1015 H   0  0  0  0  0  0  0  0  0  0  0  0
  150.9838  144.3090  157.5500 H   0  0  0  0  0  0  0  0  0  0  0  0
  151.3841  145.3866  158.8821 H   0  0  0  0  0  0  0  0  0  0  0  0
  153.1440  143.6693  158.5802 H   0  0  0  0  0  0  0  0  0  0  0  0
  152.7479  144.4952  160.8766 H   0  0  0  0  0  0  0  0  0  0  0  0
  151.5365  143.2642  161.1402 H   0  0  0  0  0  0  0  0  0  0  0  0
  154.5123  142.7885  160.6308 H   0  0  0  0  0  0  0  0  0  0  0  0
  153.6750  142.5568  162.1468 H   0  0  0  0  0  0  0  0  0  0  0  0
  154.0286  140.3916  160.9583 H   0  0  0  0  0  0  0  0  0  0  0  0
  152.3290  140.7269  161.1916 H   0  0  0  0  0  0  0  0  0  0  0  0
  153.9190  141.2331  158.6290 H   0  0  0  0  0  0  0  0  0  0  0  0
  150.9195  139.6425  159.7690 H   0  0  0  0  0  0  0  0  0  0  0  0
  151.1157  137.3492  158.0210 H   0  0  0  0  0  0  0  0  0  0  0  0
  151.6378  136.9717  159.6428 H   0  0  0  0  0  0  0  0  0  0  0  0
  149.1843  138.4612  159.8946 H   0  0  0  0  0  0  0  0  0  0  0  0
  148.9223  137.2639  158.6504 H   0  0  0  0  0  0  0  0  0  0  0  0
  149.2484  133.5544  161.8243 H   0  0  0  0  0  0  0  0  0  0  0  0
  150.9310  141.6465  159.1247 H   0  0  0  0  0  0  0  0  0  0  0  0
  151.7570  141.8752  157.6034 H   0  0  0  0  0  0  0  0  0  0  0  0
  1  2  1  0  0  0  0
  1 18  1  0  0  0  0
  1 19  1  0  0  0  0
  1 20  1  0  0  0  0
  2 17  1  0  0  0  0
  2  3  1  0  0  0  0
  2 21  1  0  0  0  0
  3  4  1  0  0  0  0
  3 22  1  0  0  0  0
  3 23  1  0  0  0  0
  4  5  1  0  0  0  0
  4 24  1  0  0  0  0
  4 25  1  0  0  0  0
  5  6  1  0  0  0  0
  5 26  1  0  0  0  0
  5 27  1  0  0  0  0
  6  7  1  0  0  0  0
  6 17  1  0  0  0  0
  6 28  1  0  0  0  0
  7  8  2  0  0  0  0
  7  9  1  0  0  0  0
  9 10  1  0  0  0  0
  9 29  1  0  0  0  0
 10 11  1  0  0  0  0
 10 30  1  0  0  0  0
 10 31  1  0  0  0  0
 11 32  1  0  0  0  0
 11 33  1  0  0  0  0
 11 12  1  0  0  0  0
 12 16  2  0  0  0  0
 12 13  1  0  0  0  0
 13 14  1  0  0  0  0
 14 15  2  0  0  0  0
 15 16  1  0  0  0  0
 15 34  1  0  0  0  0
 17 35  1  0  0  0  0
 17 36  1  0  0  0  0
M  CHG  1  13  -1
M  END
> <s_m_source_file>
AV-unprocessed.smi

> <i_m_source_file_index>
3032

> <i_lp_mmshare_version>
43012

> <i_f3d_flags>
0

> <s_epik_input>
W0NIM11bQ0BASF0xW0NIMl1bQ0gyXVtDSDJdW0NASF0oW0NIMl0xKUMoPU8pW05IXVtDSDJdW0NIMl1jMm5uW2NIXVtuSF0y

> <s_epik_cmdline>
J2VwaWtfcHl0aG9uJywgJy1waCcsICc3LjAnLCAnLXRuJywgJzgnLCAnLW1hJywgJzIwMCcsICctbWV0YWxfYmluZGluZycsICctaW1hZScsICc8aW5maWxlLm1hZT4nLCAnLW9tYWUnLCAnPG91dGZpbGUubWFlPic=

> <r_lp_tautomer_probability>
0.948284

> <r_epik_Ionization_Penalty>
12.042

> <r_epik_Ionization_Penalty_Charging>
12.042

> <r_epik_Ionization_Penalty_Neutral>
4.36781e-08

> <r_epik_State_Penalty>
4.67286

> <r_epik_Charging_Adjusted_Penalty>
16.7149

> <i_epik_Tot_Q>
-1

> <i_epik_Tot_abs_Q>
1

> <r_epik_Metal_State_Penalty>
0.981637

> <b_epik_Metal_Only>
1

> <s_lp_Force_Field>
OPLS_2005

> <r_lp_Energy>
10.6668

> <b_lp_Chiralities_Consistent>
1

> <s_lp_Variant>
AV-unprocessed.smi:3032-14

> <Gold.Version>
5.8.1

> <Gold.Id.Protein>
6NUR|6NUR_protein|mol2

> <Gold.PLP.Fitness>
48.0997

> <Gold.PLP.PLP>
-33.4701

> <Gold.PLP.part.hbond>
-4.0000

> <Gold.PLP.part.metal>
0.0000

> <Gold.PLP.part.buried>
-4.8270

> <Gold.PLP.part.nonpolar>
-25.5940

> <Gold.PLP.part.repulsive>
0.1321

> <Gold.PLP.ligand.clash>
0.0000

> <Gold.PLP.ligand.torsion>
0.4531

> <Gold.PLP.Chemscore.Hbond>
5.1680

> <Gold.PLP.Chemscore.CHOScore>
0.0000

> <Gold.PLP.Chemscore.Metal>
0.0000

> <Gold.Chemscore.Hbonds>
donor molecule, donor type, donor heavy atom, donor atom, acceptor molecule, acceptor atom, score
      P1  H  6896  6909       L1    16  0.46
      P1  H  6931  6943       L1    13  2.00
      P1  H  7997  8010       L1     8  1.00

> <Gold.PLP.Chemscore.Internal.Correction>
0.0318

> <Gold.Rescore>
     Score         DG    S(hbond)    S(metal)    S(lipo)     H(rot)  DE(clash)    DE(int)     intcor
     17.73     -18.22       2.66        0.00      81.39       2.21       0.02       0.47       ----

> <Gold.Chemscore.Fitness>
17.7315

> <Gold.Chemscore.DG>
-18.2232

> <Gold.Chemscore.ZeroCoef>
-5.4800

> <Gold.Chemscore.Hbond>
2.6621

> <Gold.Chemscore.Metal>
0.0000

> <Gold.Chemscore.Lipo>
81.3855

> <Gold.Chemscore.Internal_Hbond>
0.0000

> <Gold.Chemscore.DEClash>
0.0206

> <Gold.Chemscore.DEInternal>
0.4710

> <Gold.Chemscore.Rot>
2.2149

> <Gold.Chemscore.Internal.Correction>
   9.000000E+99

> <Gold.Chemscore.Hbonds>
donor molecule, donor type, donor heavy atom, donor atom, acceptor molecule, acceptor atom, score
      P1  H  6896  6909       L1    16  0.43
      P1  H  6931  6943       L1    13  0.25
      P1  H  7997  8010       L1     8  0.82

> <Gold.Chemscore.Hbond.Weighted>
-8.8913

> <Gold.Chemscore.Metal.Weighted>
-0.0000

> <Gold.Chemscore.Lipo.Weighted>
-9.5221

> <Gold.Chemscore.Internal_Hbond.Weighted>
0.0000

> <Gold.Chemscore.DEClash.Weighted>
0.0206

> <Gold.Chemscore.DEInternal.Weighted>
0.4710

> <Gold.Chemscore.Rot.Weighted>
5.6702

> <Gold.Chemscore.Internal.Correction.Weighted>
   9.000000E+99

> <Gold.Protein.RotatedTorsions>
[ 6907 6896 6895 6894 ] final   55.25 input  -60.11 | X-H torsion
[ 7974 7965 7964 7962 ] final -109.78 input  175.53 | X-H torsion
[ 8008 7997 7996 7995 ] final   27.43 input   59.86 | X-H torsion
[ 10167 10162 10161 10158 ] final   16.29 input  -65.29 | X-H torsion
[ 10718 10713 10712 10709 ] final   84.71 input   66.30 | X-H torsion
[ 10763 10752 10751 10750 ] final  164.69 input  -60.55 | X-H torsion
[ 11005 11000 10999 10996 ] final   97.17 input  -57.11 | X-H torsion

> <Gold.Protein.ActiveResidues>
 VAL166  LYS551  ARG553  GLY616  TRP617  ASP618  TYR619  PRO620  LYS621  CYS622 
 ASP623  PHE694  ASN695  SER759  ASP760  ASP761  ALA762  ILE779  LEU786  VAL792 
 PHE793  MET794  SER795  GLU796  ALA797  LYS798  CYS799  TRP800  GLU811  SER814 

> <Gold.Protein.RotatedAtoms>
  152.3520  134.6992  160.0233 H   0  0  0  0  0  0  0  0  0  0  0  0  # atno 6907 bound_to 6896
  151.7343  133.3313  159.3356 H   0  0  0  0  0  0  0  0  0  0  0  0  # atno 6908 bound_to 6896
  150.7547  134.6269  159.6210 H   0  0  0  0  0  0  0  0  0  0  0  0  # atno 6909 bound_to 6896
  145.1763  140.8950  143.3506 H   0  0  0  0  0  0  0  0  0  0  0  0  # atno 7974 bound_to 7965
  155.0429  140.3171  155.4718 H   0  0  0  0  0  0  0  0  0  0  0  0  # atno 8008 bound_to 7997
  156.2851  140.2160  156.5496 H   0  0  0  0  0  0  0  0  0  0  0  0  # atno 8009 bound_to 7997
  154.7275  140.0484  157.0684 H   0  0  0  0  0  0  0  0  0  0  0  0  # atno 8010 bound_to 7997
  140.5807  143.8985  150.6788 H   0  0  0  0  0  0  0  0  0  0  0  0  # atno 10167 bound_to 10162
  157.6903  131.0144  150.2713 H   0  0  0  0  0  0  0  0  0  0  0  0  # atno 10718 bound_to 10713
  154.3127  135.2757  155.2558 H   0  0  0  0  0  0  0  0  0  0  0  0  # atno 10763 bound_to 10752
  154.4946  135.5824  153.6488 H   0  0  0  0  0  0  0  0  0  0  0  0  # atno 10764 bound_to 10752
  152.9886  135.6143  154.3305 H   0  0  0  0  0  0  0  0  0  0  0  0  # atno 10765 bound_to 10752
  139.8777  134.8987  156.4267 H   0  0  0  0  0  0  0  0  0  0  0  0  # atno 11005 bound_to 11000
  145.0182  139.3448  143.6086 LP  0  0  0  0  0  0  0  0  0  0  0  0  # atno 17320 bound_to 7965
  146.3460  139.9471  142.8733 LP  0  0  0  0  0  0  0  0  0  0  0  0  # atno 17321 bound_to 7965
  140.2484  143.3611  152.1427 LP  0  0  0  0  0  0  0  0  0  0  0  0  # atno 17342 bound_to 10162
  139.5168  144.6983  151.5567 LP  0  0  0  0  0  0  0  0  0  0  0  0  # atno 17343 bound_to 10162
  156.3276  130.3795  149.7520 LP  0  0  0  0  0  0  0  0  0  0  0  0  # atno 17370 bound_to 10713
  156.5070  130.8154  151.3154 LP  0  0  0  0  0  0  0  0  0  0  0  0  # atno 17371 bound_to 10713
  140.9095  133.7722  155.9775 LP  0  0  0  0  0  0  0  0  0  0  0  0  # atno 17394 bound_to 11000
  140.8562  134.2895  157.5254 LP  0  0  0  0  0  0  0  0  0  0  0  0  # atno 17395 bound_to 11000

$$$$
