AV-unprocessed.smi:3136|AV-procd|sdf|11950|dock10
  -GOLD-   2272017343D 1   1.00000     0.00000
 Structure written by MMmdl.
 40 40  0  0  0  0  0  0  0  0  2 V2000
  152.3173  138.2633  155.2863 C   0  0  0  0  0  0  0  0  0  0  0  0
  152.3168  139.4958  156.2004 C   0  0  0  0  0  0  0  0  0  0  0  0
  150.9681  140.0119  156.4038 N   0  0  0  0  0  0  0  0  0  0  0  0
  150.0921  140.2877  155.4255 C   0  0  0  0  0  0  0  0  0  0  0  0
  150.3455  140.1374  154.2300 O   0  0  0  0  0  0  0  0  0  0  0  0
  148.7233  140.8124  155.8692 C   0  0  0  0  0  0  0  0  0  0  0  0
  148.7888  141.6070  157.1840 C   0  0  0  0  0  0  0  0  0  0  0  0
  150.0677  142.3384  157.2982 N   0  3  0  0  0  0  0  0  0  0  0  0
  150.5288  142.5878  158.6846 C   0  0  2  0  0  0  0  0  0  0  0  0
  149.6464  143.6888  159.2961 C   0  0  0  0  0  0  0  0  0  0  0  0
  152.0393  142.9518  158.7055 C   0  0  1  0  0  0  0  0  0  0  0  0
  152.3378  144.3604  158.1567 C   0  0  0  0  0  0  0  0  0  0  0  0
  152.5998  142.8129  160.0455 N   0  0  0  0  0  0  0  0  0  0  0  0
  152.2475  143.4723  161.2075 C   0  0  0  0  0  0  0  0  0  0  0  0
  153.0201  142.9687  162.2141 C   0  0  0  0  0  0  0  0  0  0  0  0
  153.8198  141.9864  161.5675 C   0  0  0  0  0  0  0  0  0  0  0  0
  153.5602  141.8895  160.2737 N   0  0  0  0  0  0  0  0  0  0  0  0
  153.3270  137.8698  155.1689 H   0  0  0  0  0  0  0  0  0  0  0  0
  151.9396  138.5045  154.2923 H   0  0  0  0  0  0  0  0  0  0  0  0
  151.6965  137.4667  155.6978 H   0  0  0  0  0  0  0  0  0  0  0  0
  152.7301  139.2310  157.1738 H   0  0  0  0  0  0  0  0  0  0  0  0
  152.9632  140.2734  155.7902 H   0  0  0  0  0  0  0  0  0  0  0  0
  150.6803  140.1670  157.3593 H   0  0  0  0  0  0  0  0  0  0  0  0
  148.3207  141.4498  155.0799 H   0  0  0  0  0  0  0  0  0  0  0  0
  148.0401  139.9685  155.9723 H   0  0  0  0  0  0  0  0  0  0  0  0
  147.9665  142.3219  157.2388 H   0  0  0  0  0  0  0  0  0  0  0  0
  148.6811  140.9289  158.0307 H   0  0  0  0  0  0  0  0  0  0  0  0
  150.7869  141.8176  156.8160 H   0  0  0  0  0  0  0  0  0  0  0  0
  150.3744  141.6842  159.2775 H   0  0  0  0  0  0  0  0  0  0  0  0
  149.8486  143.8253  160.3583 H   0  0  0  0  0  0  0  0  0  0  0  0
  148.5891  143.4364  159.2067 H   0  0  0  0  0  0  0  0  0  0  0  0
  149.8018  144.6467  158.7984 H   0  0  0  0  0  0  0  0  0  0  0  0
  152.5653  142.2454  158.0600 H   0  0  0  0  0  0  0  0  0  0  0  0
  152.1087  144.4344  157.0941 H   0  0  0  0  0  0  0  0  0  0  0  0
  153.3940  144.6078  158.2689 H   0  0  0  0  0  0  0  0  0  0  0  0
  151.7599  145.1252  158.6758 H   0  0  0  0  0  0  0  0  0  0  0  0
  151.4822  144.2342  161.2245 H   0  0  0  0  0  0  0  0  0  0  0  0
  153.0125  143.2555  163.2554 H   0  0  0  0  0  0  0  0  0  0  0  0
  154.5718  141.3416  161.9978 H   0  0  0  0  0  0  0  0  0  0  0  0
  149.9544  143.2300  156.8375 H   0  0  0  0  0  0  0  0  0  0  0  0
  1  2  1  0  0  0  0
  1 18  1  0  0  0  0
  1 19  1  0  0  0  0
  1 20  1  0  0  0  0
  2  3  1  0  0  0  0
  2 21  1  0  0  0  0
  2 22  1  0  0  0  0
  3  4  1  0  0  0  0
  3 23  1  0  0  0  0
  4  5  2  0  0  0  0
  4  6  1  0  0  0  0
  6  7  1  0  0  0  0
  6 24  1  0  0  0  0
  6 25  1  0  0  0  0
  7  8  1  0  0  0  0
  7 26  1  0  0  0  0
  7 27  1  0  0  0  0
  8  9  1  0  0  0  0
  8 28  1  0  0  0  0
  8 40  1  0  0  0  0
  9 10  1  0  0  0  0
  9 11  1  0  0  0  0
  9 29  1  0  0  0  0
 10 30  1  0  0  0  0
 10 31  1  0  0  0  0
 10 32  1  0  0  0  0
 11 12  1  0  0  0  0
 11 13  1  0  0  0  0
 11 33  1  0  0  0  0
 12 34  1  0  0  0  0
 12 35  1  0  0  0  0
 12 36  1  0  0  0  0
 13 17  1  0  0  0  0
 13 14  1  0  0  0  0
 14 15  2  0  0  0  0
 14 37  1  0  0  0  0
 15 16  1  0  0  0  0
 15 38  1  0  0  0  0
 16 17  2  0  0  0  0
 16 39  1  0  0  0  0
M  CHG  1   8   1
M  END
> <s_m_source_file>
AV-unprocessed.smi

> <i_m_source_file_index>
3136

> <i_lp_mmshare_version>
43012

> <i_f3d_flags>
0

> <s_epik_input>
W0NIM11bQ0gyXVtOSF1DKD1PKVtDSDJdW0NIMl1bTkhdW0NASF0oW0NIM10pW0NASF0oW0NIM10pbjFbY0hdW2NIXVtjSF1uMQ==

> <s_epik_cmdline>
J2VwaWtfcHl0aG9uJywgJy1waCcsICc3LjAnLCAnLXRuJywgJzgnLCAnLW1hJywgJzIwMCcsICctbWV0YWxfYmluZGluZycsICctaW1hZScsICc8aW5maWxlLm1hZT4nLCAnLW9tYWUnLCAnPG91dGZpbGUubWFlPic=

> <r_lp_tautomer_probability>
1

> <r_epik_Ionization_Penalty>
0.00463447

> <r_epik_Ionization_Penalty_Charging>
0.00462393

> <r_epik_Ionization_Penalty_Neutral>
1.05394e-05

> <r_epik_State_Penalty>
-0

> <r_epik_Charging_Adjusted_Penalty>
0.00462393

> <i_epik_Tot_Q>
1

> <i_epik_Tot_abs_Q>
1

> <r_epik_Metal_State_Penalty>
-0

> <b_epik_Metal_Only>
0

> <s_lp_Force_Field>
OPLS_2005

> <r_lp_Energy>
10.6492

> <b_lp_Chiralities_Consistent>
1

> <s_lp_Variant>
AV-unprocessed.smi:3136-3

> <Gold.Version>
5.8.1

> <Gold.Id.Protein>
6NUR|6NUR_protein|mol2

> <Gold.PLP.Fitness>
46.9475

> <Gold.PLP.PLP>
-40.1984

> <Gold.PLP.part.hbond>
-1.7435

> <Gold.PLP.part.metal>
0.0000

> <Gold.PLP.part.buried>
-5.0751

> <Gold.PLP.part.nonpolar>
-33.6991

> <Gold.PLP.part.repulsive>
0.8836

> <Gold.PLP.ligand.clash>
0.0000

> <Gold.PLP.ligand.torsion>
1.0744

> <Gold.PLP.Chemscore.Hbond>
2.9120

> <Gold.PLP.Chemscore.CHOScore>
0.0000

> <Gold.PLP.Chemscore.Metal>
0.0000

> <Gold.Chemscore.Hbonds>
donor molecule, donor type, donor heavy atom, donor atom, acceptor molecule, acceptor atom, score
      L1  H     8    40       P1  8028  1.27
      P1  H  7989  7998       L1     5  1.00

> <Gold.PLP.Chemscore.Internal.Correction>
0.1620

> <Gold.Rescore>
     Score         DG    S(hbond)    S(metal)    S(lipo)     H(rot)  DE(clash)    DE(int)     intcor
     16.13     -16.78       1.97        0.00      91.00       2.32       0.02       0.64       ----

> <Gold.Chemscore.Fitness>
16.1251

> <Gold.Chemscore.DG>
-16.7782

> <Gold.Chemscore.ZeroCoef>
-5.4800

> <Gold.Chemscore.Hbond>
1.9701

> <Gold.Chemscore.Metal>
0.0000

> <Gold.Chemscore.Lipo>
90.9955

> <Gold.Chemscore.Internal_Hbond>
0.0000

> <Gold.Chemscore.DEClash>
0.0178

> <Gold.Chemscore.DEInternal>
0.6353

> <Gold.Chemscore.Rot>
2.3159

> <Gold.Chemscore.Internal.Correction>
   9.000000E+99

> <Gold.Chemscore.Hbonds>
donor molecule, donor type, donor heavy atom, donor atom, acceptor molecule, acceptor atom, score
      L1  H     8    40       P1  8028  0.63
      P1  H  7989  7998       L1     5  0.97

> <Gold.Chemscore.Hbond.Weighted>
-6.5803

> <Gold.Chemscore.Metal.Weighted>
-0.0000

> <Gold.Chemscore.Lipo.Weighted>
-10.6465

> <Gold.Chemscore.Internal_Hbond.Weighted>
0.0000

> <Gold.Chemscore.DEClash.Weighted>
0.0178

> <Gold.Chemscore.DEInternal.Weighted>
0.6353

> <Gold.Chemscore.Rot.Weighted>
5.9286

> <Gold.Chemscore.Internal.Correction.Weighted>
   9.000000E+99

> <Gold.Protein.RotatedTorsions>
[ 6907 6896 6895 6894 ] final   73.67 input  -60.11 | X-H torsion
[ 7974 7965 7964 7962 ] final  -46.72 input  175.53 | X-H torsion
[ 8008 7997 7996 7995 ] final -108.86 input   59.86 | X-H torsion
[ 10167 10162 10161 10158 ] final   20.72 input  -65.29 | X-H torsion
[ 10718 10713 10712 10709 ] final  139.55 input   66.30 | X-H torsion
[ 10763 10752 10751 10750 ] final  -16.38 input  -60.55 | X-H torsion
[ 11005 11000 10999 10996 ] final -178.01 input  -57.11 | X-H torsion

> <Gold.Protein.ActiveResidues>
 VAL166  LYS551  ARG553  GLY616  TRP617  ASP618  TYR619  PRO620  LYS621  CYS622 
 ASP623  PHE694  ASN695  SER759  ASP760  ASP761  ALA762  ILE779  LEU786  VAL792 
 PHE793  MET794  SER795  GLU796  ALA797  LYS798  CYS799  TRP800  GLU811  SER814 

> <Gold.Protein.RotatedAtoms>
  152.4936  134.4386  159.9535 H   0  0  0  0  0  0  0  0  0  0  0  0  # atno 6907 bound_to 6896
  151.4369  133.3648  159.2784 H   0  0  0  0  0  0  0  0  0  0  0  0  # atno 6908 bound_to 6896
  150.9115  134.8555  159.7488 H   0  0  0  0  0  0  0  0  0  0  0  0  # atno 6909 bound_to 6896
  145.9690  140.7402  142.9420 H   0  0  0  0  0  0  0  0  0  0  0  0  # atno 7974 bound_to 7965
  154.9506  140.0401  157.2142 H   0  0  0  0  0  0  0  0  0  0  0  0  # atno 8008 bound_to 7997
  154.7982  140.2847  155.5919 H   0  0  0  0  0  0  0  0  0  0  0  0  # atno 8009 bound_to 7997
  156.2958  140.2560  156.2845 H   0  0  0  0  0  0  0  0  0  0  0  0  # atno 8010 bound_to 7997
  140.5482  143.9557  150.6561 H   0  0  0  0  0  0  0  0  0  0  0  0  # atno 10167 bound_to 10162
  157.4131  131.1030  151.0433 H   0  0  0  0  0  0  0  0  0  0  0  0  # atno 10718 bound_to 10713
  153.5576  135.7010  153.5562 H   0  0  0  0  0  0  0  0  0  0  0  0  # atno 10763 bound_to 10752
  153.3458  135.4008  155.1607 H   0  0  0  0  0  0  0  0  0  0  0  0  # atno 10764 bound_to 10752
  154.8652  135.3753  154.5092 H   0  0  0  0  0  0  0  0  0  0  0  0  # atno 10765 bound_to 10752
  140.4345  134.6488  157.4728 H   0  0  0  0  0  0  0  0  0  0  0  0  # atno 11005 bound_to 11000
  144.6832  140.2717  143.7305 LP  0  0  0  0  0  0  0  0  0  0  0  0  # atno 17320 bound_to 7965
  145.7933  139.1935  143.2090 LP  0  0  0  0  0  0  0  0  0  0  0  0  # atno 17321 bound_to 7965
  140.2976  143.3282  152.1003 LP  0  0  0  0  0  0  0  0  0  0  0  0  # atno 17342 bound_to 10162
  139.5016  144.6717  151.6227 LP  0  0  0  0  0  0  0  0  0  0  0  0  # atno 17343 bound_to 10162
  157.1390  130.6135  149.5550 LP  0  0  0  0  0  0  0  0  0  0  0  0  # atno 17370 bound_to 10713
  155.9857  130.4888  150.7043 LP  0  0  0  0  0  0  0  0  0  0  0  0  # atno 17371 bound_to 10713
  140.0112  134.6688  155.9379 LP  0  0  0  0  0  0  0  0  0  0  0  0  # atno 17394 bound_to 11000
  141.1732  133.6538  156.4728 LP  0  0  0  0  0  0  0  0  0  0  0  0  # atno 17395 bound_to 11000

$$$$
