AV-unprocessed.smi:2740|AV-procd|sdf|10554|dock4
  -GOLD-   2272015 03D 1   1.00000     0.00000
 Structure written by MMmdl.
 31 32  0  0  0  0  0  0  0  0  1 V2000
  144.6977  131.0513  151.1255 C   0  0  0  0  0  0  0  0  0  0  0  0
  144.8551  132.5270  151.2706 C   0  0  0  0  0  0  0  0  0  0  0  0
  143.8835  133.4899  151.1414 C   0  0  0  0  0  0  0  0  0  0  0  0
  144.3480  134.7925  151.3376 N   0  0  0  0  0  0  0  0  0  0  0  0
  145.6563  134.8217  151.6139 C   0  0  0  0  0  0  0  0  0  0  0  0
  146.3983  136.0077  151.8550 N   0  0  0  0  0  0  0  0  0  0  0  0
  145.9403  137.2090  152.2491 C   0  0  0  0  0  0  0  0  0  0  0  0
  144.7627  137.4793  152.4870 O   0  0  0  0  0  0  0  0  0  0  0  0
  146.9380  138.0979  152.3562 N   0  0  0  0  0  0  0  0  0  0  0  0
  146.7780  139.4882  152.7664 C   0  0  0  0  0  0  0  0  0  0  0  0
  147.6966  139.8404  153.9478 C   0  0  2  0  0  0  0  0  0  0  0  0
  148.2650  141.2554  153.8826 C   0  0  0  0  0  0  0  0  0  0  0  0
  149.4915  141.1276  154.7572 C   0  0  0  0  0  0  0  0  0  0  0  0
  149.9876  139.7265  154.4076 C   0  0  0  0  0  0  0  0  0  0  0  0
  148.8454  138.9974  153.9624 O   0  0  0  0  0  0  0  0  0  0  0  0
  146.4050  133.2331  151.6527 S   0  0  0  0  0  0  0  0  0  0  0  0
  143.8157  130.8085  150.5323 H   0  0  0  0  0  0  0  0  0  0  0  0
  144.5894  130.5774  152.1011 H   0  0  0  0  0  0  0  0  0  0  0  0
  145.5648  130.6135  150.6306 H   0  0  0  0  0  0  0  0  0  0  0  0
  142.8392  133.3382  150.9119 H   0  0  0  0  0  0  0  0  0  0  0  0
  147.3934  135.9352  151.7027 H   0  0  0  0  0  0  0  0  0  0  0  0
  147.8768  137.7913  152.1475 H   0  0  0  0  0  0  0  0  0  0  0  0
  147.0030  140.1281  151.9126 H   0  0  0  0  0  0  0  0  0  0  0  0
  145.7361  139.6779  153.0292 H   0  0  0  0  0  0  0  0  0  0  0  0
  147.1708  139.7152  154.8959 H   0  0  0  0  0  0  0  0  0  0  0  0
  148.5577  141.5081  152.8624 H   0  0  0  0  0  0  0  0  0  0  0  0
  147.5637  142.0116  154.2361 H   0  0  0  0  0  0  0  0  0  0  0  0
  150.2358  141.9025  154.5721 H   0  0  0  0  0  0  0  0  0  0  0  0
  149.2048  141.1727  155.8088 H   0  0  0  0  0  0  0  0  0  0  0  0
  150.7105  139.7680  153.5921 H   0  0  0  0  0  0  0  0  0  0  0  0
  150.4636  139.2361  155.2570 H   0  0  0  0  0  0  0  0  0  0  0  0
  1  2  1  0  0  0  0
  1 17  1  0  0  0  0
  1 18  1  0  0  0  0
  1 19  1  0  0  0  0
  2 16  1  0  0  0  0
  2  3  2  0  0  0  0
  3  4  1  0  0  0  0
  3 20  1  0  0  0  0
  4  5  2  0  0  0  0
  5  6  1  0  0  0  0
  5 16  1  0  0  0  0
  6  7  1  0  0  0  0
  6 21  1  0  0  0  0
  7  8  2  0  0  0  0
  7  9  1  0  0  0  0
  9 10  1  0  0  0  0
  9 22  1  0  0  0  0
 10 11  1  0  0  0  0
 10 23  1  0  0  0  0
 10 24  1  0  0  0  0
 11 15  1  0  0  0  0
 11 12  1  0  0  0  0
 11 25  1  0  0  0  0
 12 13  1  0  0  0  0
 12 26  1  0  0  0  0
 12 27  1  0  0  0  0
 13 14  1  0  0  0  0
 13 28  1  0  0  0  0
 13 29  1  0  0  0  0
 14 15  1  0  0  0  0
 14 30  1  0  0  0  0
 14 31  1  0  0  0  0
M  END
> <s_m_source_file>
AV-unprocessed.smi

> <i_m_source_file_index>
2740

> <i_lp_mmshare_version>
43012

> <i_f3d_flags>
0

> <s_epik_input>
W0NIM11jMVtjSF1uYyhzMSlbTkhdQyg9TylbTkhdW0NIMl1bQ0BASF0yW0NIMl1bQ0gyXVtDSDJdTzI=

> <s_epik_cmdline>
J2VwaWtfcHl0aG9uJywgJy1waCcsICc3LjAnLCAnLXRuJywgJzgnLCAnLW1hJywgJzIwMCcsICctbWV0YWxfYmluZGluZycsICctaW1hZScsICc8aW5maWxlLm1hZT4nLCAnLW9tYWUnLCAnPG91dGZpbGUubWFlPic=

> <r_lp_tautomer_probability>
0.999

> <r_epik_Ionization_Penalty>
0.000387528

> <r_epik_Ionization_Penalty_Charging>
0

> <r_epik_Ionization_Penalty_Neutral>
0.000387528

> <r_epik_State_Penalty>
0.000177984

> <r_epik_Charging_Adjusted_Penalty>
0.000177984

> <i_epik_Tot_Q>
0

> <i_epik_Tot_abs_Q>
0

> <r_epik_Metal_State_Penalty>
0.00626158

> <b_epik_Metal_Only>
0

> <s_lp_Force_Field>
OPLS_2005

> <r_lp_Energy>
15.1526

> <b_lp_Chiralities_Consistent>
1

> <s_lp_Variant>
AV-unprocessed.smi:2740-1

> <Gold.Version>
5.8.1

> <Gold.Id.Protein>
6NUR|6NUR_protein|mol2

> <Gold.PLP.Fitness>
36.4437

> <Gold.PLP.PLP>
-28.9978

> <Gold.PLP.part.hbond>
-2.0000

> <Gold.PLP.part.metal>
0.0000

> <Gold.PLP.part.buried>
-3.1182

> <Gold.PLP.part.nonpolar>
-24.9426

> <Gold.PLP.part.repulsive>
1.4927

> <Gold.PLP.ligand.clash>
0.0000

> <Gold.PLP.ligand.torsion>
0.5983

> <Gold.PLP.Chemscore.Hbond>
1.8800

> <Gold.PLP.Chemscore.CHOScore>
1.0000

> <Gold.PLP.Chemscore.Metal>
0.0000

> <Gold.Chemscore.Hbonds>
donor molecule, donor type, donor heavy atom, donor atom, acceptor molecule, acceptor atom, score
      L1  H     6    21       P1  7948  1.00
      L1  H     9    22       P1  7948  0.88
      L1  C     3    20       P1 10186  1.00

> <Gold.PLP.Chemscore.Internal.Correction>
0.0026

> <Gold.Rescore>
     Score         DG    S(hbond)    S(metal)    S(lipo)     H(rot)  DE(clash)    DE(int)     intcor
     14.69     -16.48       1.95        0.00      66.07       1.27       0.13       1.66       ----

> <Gold.Chemscore.Fitness>
14.6900

> <Gold.Chemscore.DG>
-16.4801

> <Gold.Chemscore.ZeroCoef>
-5.4800

> <Gold.Chemscore.Hbond>
1.9506

> <Gold.Chemscore.Metal>
0.0000

> <Gold.Chemscore.Lipo>
66.0738

> <Gold.Chemscore.Internal_Hbond>
0.0000

> <Gold.Chemscore.DEClash>
0.1306

> <Gold.Chemscore.DEInternal>
1.6594

> <Gold.Chemscore.Rot>
1.2678

> <Gold.Chemscore.Internal.Correction>
   9.000000E+99

> <Gold.Chemscore.Hbonds>
donor molecule, donor type, donor heavy atom, donor atom, acceptor molecule, acceptor atom, score
      L1  H     6    21       P1  7948  0.96
      L1  H     9    22       P1  7948  0.86

> <Gold.Chemscore.Hbond.Weighted>
-6.5149

> <Gold.Chemscore.Metal.Weighted>
-0.0000

> <Gold.Chemscore.Lipo.Weighted>
-7.7306

> <Gold.Chemscore.Internal_Hbond.Weighted>
0.0000

> <Gold.Chemscore.DEClash.Weighted>
0.1306

> <Gold.Chemscore.DEInternal.Weighted>
1.6594

> <Gold.Chemscore.Rot.Weighted>
3.2455

> <Gold.Chemscore.Internal.Correction.Weighted>
   9.000000E+99

> <Gold.Protein.RotatedTorsions>
[ 6907 6896 6895 6894 ] final   88.30 input  -60.11 | X-H torsion
[ 7974 7965 7964 7962 ] final -171.13 input  175.53 | X-H torsion
[ 8008 7997 7996 7995 ] final  117.79 input   59.86 | X-H torsion
[ 10167 10162 10161 10158 ] final -118.61 input  -65.29 | X-H torsion
[ 10718 10713 10712 10709 ] final  -21.59 input   66.30 | X-H torsion
[ 10763 10752 10751 10750 ] final -148.83 input  -60.55 | X-H torsion
[ 11005 11000 10999 10996 ] final  136.66 input  -57.11 | X-H torsion

> <Gold.Protein.ActiveResidues>
 VAL166  LYS551  ARG553  GLY616  TRP617  ASP618  TYR619  PRO620  LYS621  CYS622 
 ASP623  PHE694  ASN695  SER759  ASP760  ASP761  ALA762  ILE779  LEU786  VAL792 
 PHE793  MET794  SER795  GLU796  ALA797  LYS798  CYS799  TRP800  GLU811  SER814 

> <Gold.Protein.RotatedAtoms>
  152.5423  134.2143  159.8762 H   0  0  0  0  0  0  0  0  0  0  0  0  # atno 6907 bound_to 6896
  151.2124  133.4541  159.2606 H   0  0  0  0  0  0  0  0  0  0  0  0  # atno 6908 bound_to 6896
  151.0884  134.9914  159.8446 H   0  0  0  0  0  0  0  0  0  0  0  0  # atno 6909 bound_to 6896
  144.7161  140.1968  143.6342 H   0  0  0  0  0  0  0  0  0  0  0  0  # atno 7974 bound_to 7965
  156.2513  140.2888  156.0734 H   0  0  0  0  0  0  0  0  0  0  0  0  # atno 8008 bound_to 7997
  155.1646  140.0400  157.2867 H   0  0  0  0  0  0  0  0  0  0  0  0  # atno 8009 bound_to 7997
  154.6369  140.2513  155.7375 H   0  0  0  0  0  0  0  0  0  0  0  0  # atno 8010 bound_to 7997
  140.0557  143.5017  152.2059 H   0  0  0  0  0  0  0  0  0  0  0  0  # atno 10167 bound_to 10162
  156.5160  130.4621  149.6622 H   0  0  0  0  0  0  0  0  0  0  0  0  # atno 10718 bound_to 10713
  154.8211  135.3324  154.7035 H   0  0  0  0  0  0  0  0  0  0  0  0  # atno 10763 bound_to 10752
  153.7667  135.6928  153.4919 H   0  0  0  0  0  0  0  0  0  0  0  0  # atno 10764 bound_to 10752
  153.2072  135.4495  155.0286 H   0  0  0  0  0  0  0  0  0  0  0  0  # atno 10765 bound_to 10752
  140.0061  134.9458  157.0178 H   0  0  0  0  0  0  0  0  0  0  0  0  # atno 11005 bound_to 11000
  145.8717  139.2276  143.1657 LP  0  0  0  0  0  0  0  0  0  0  0  0  # atno 17320 bound_to 7965
  146.0078  140.8463  142.9986 LP  0  0  0  0  0  0  0  0  0  0  0  0  # atno 17321 bound_to 7965
  139.5925  144.7555  151.3365 LP  0  0  0  0  0  0  0  0  0  0  0  0  # atno 17342 bound_to 10162
  140.7196  143.7172  150.7723 LP  0  0  0  0  0  0  0  0  0  0  0  0  # atno 17343 bound_to 10162
  156.3194  130.7272  151.2181 LP  0  0  0  0  0  0  0  0  0  0  0  0  # atno 17370 bound_to 10713
  157.7444  131.0459  150.4869 LP  0  0  0  0  0  0  0  0  0  0  0  0  # atno 17371 bound_to 10713
  140.4639  134.1456  155.7194 LP  0  0  0  0  0  0  0  0  0  0  0  0  # atno 17394 bound_to 11000
  141.1678  133.8669  157.1663 LP  0  0  0  0  0  0  0  0  0  0  0  0  # atno 17395 bound_to 11000

$$$$
