AV-unprocessed.smi:1792|AV-procd|sdf|7222|dock3
  -GOLD-   22720 8463D 1   1.00000     0.00000
 Structure written by MMmdl.
 42 43  0  0  0  0  0  0  0  0  1 V2000
  148.0178  140.2374  153.8105 C   0  0  0  0  0  0  0  0  0  0  0  0
  147.9323  138.9716  154.6971 C   0  0  0  0  0  0  0  0  0  0  0  0
  147.7838  139.4476  156.1650 C   0  0  0  0  0  0  0  0  0  0  0  0
  146.6029  138.2460  154.3410 C   0  0  0  0  0  0  0  0  0  0  0  0
  146.8169  137.1408  153.4082 N   0  0  0  0  0  0  0  0  0  0  0  0
  145.8823  136.2806  152.9817 C   0  0  0  0  0  0  0  0  0  0  0  0
  144.6964  136.3443  153.3066 O   0  0  0  0  0  0  0  0  0  0  0  0
  146.4180  135.3538  152.1682 N   0  0  0  0  0  0  0  0  0  0  0  0
  145.7698  134.2621  151.5318 C   0  0  0  0  0  0  0  0  0  0  0  0
  146.6364  133.3021  150.9622 C   0  0  0  0  0  0  0  0  0  0  0  0
  146.0933  132.1775  150.3115 C   0  0  0  0  0  0  0  0  0  0  0  0
  144.6951  132.0427  150.2450 C   0  0  0  0  0  0  0  0  0  0  0  0
  143.9036  133.0449  150.8358 C   0  0  0  0  0  0  0  0  0  0  0  0
  144.4222  134.1230  151.4611 N   0  0  0  0  0  0  0  0  0  0  0  0
  149.1097  138.0709  154.5433 N   0  0  0  0  0  0  0  0  0  0  0  0
  149.0966  136.8835  155.4055 C   0  0  0  0  0  0  0  0  0  0  0  0
  150.2762  135.9408  155.1120 C   0  0  0  0  0  0  0  0  0  0  0  0
  151.5027  136.6479  155.2498 O   0  0  0  0  0  0  0  0  0  0  0  0
  151.5799  137.7725  154.3830 C   0  0  0  0  0  0  0  0  0  0  0  0
  150.4137  138.7316  154.6748 C   0  0  0  0  0  0  0  0  0  0  0  0
  147.1429  140.8732  153.9525 H   0  0  0  0  0  0  0  0  0  0  0  0
  148.0591  139.9948  152.7489 H   0  0  0  0  0  0  0  0  0  0  0  0
  148.8893  140.8478  154.0455 H   0  0  0  0  0  0  0  0  0  0  0  0
  146.8336  139.9583  156.3265 H   0  0  0  0  0  0  0  0  0  0  0  0
  148.5610  140.1563  156.4508 H   0  0  0  0  0  0  0  0  0  0  0  0
  147.8249  138.6126  156.8655 H   0  0  0  0  0  0  0  0  0  0  0  0
  146.1233  137.8911  155.2552 H   0  0  0  0  0  0  0  0  0  0  0  0
  145.8810  138.9321  153.8987 H   0  0  0  0  0  0  0  0  0  0  0  0
  147.7651  137.0067  153.0884 H   0  0  0  0  0  0  0  0  0  0  0  0
  147.4092  135.4297  151.9952 H   0  0  0  0  0  0  0  0  0  0  0  0
  147.7085  133.4211  151.0227 H   0  0  0  0  0  0  0  0  0  0  0  0
  146.7390  131.4318  149.8720 H   0  0  0  0  0  0  0  0  0  0  0  0
  144.2414  131.1946  149.7539 H   0  0  0  0  0  0  0  0  0  0  0  0
  142.8261  132.9801  150.8061 H   0  0  0  0  0  0  0  0  0  0  0  0
  149.1358  137.1781  156.4543 H   0  0  0  0  0  0  0  0  0  0  0  0
  148.1786  136.3145  155.2703 H   0  0  0  0  0  0  0  0  0  0  0  0
  150.2703  135.1003  155.8062 H   0  0  0  0  0  0  0  0  0  0  0  0
  150.1981  135.5258  154.1059 H   0  0  0  0  0  0  0  0  0  0  0  0
  152.5333  138.2773  154.5386 H   0  0  0  0  0  0  0  0  0  0  0  0
  151.5578  137.4429  153.3431 H   0  0  0  0  0  0  0  0  0  0  0  0
  150.4970  139.5710  153.9870 H   0  0  0  0  0  0  0  0  0  0  0  0
  150.5337  139.1334  155.6809 H   0  0  0  0  0  0  0  0  0  0  0  0
  1  2  1  0  0  0  0
  1 21  1  0  0  0  0
  1 22  1  0  0  0  0
  1 23  1  0  0  0  0
  2  3  1  0  0  0  0
  2  4  1  0  0  0  0
  2 15  1  0  0  0  0
  3 24  1  0  0  0  0
  3 25  1  0  0  0  0
  3 26  1  0  0  0  0
  4  5  1  0  0  0  0
  4 27  1  0  0  0  0
  4 28  1  0  0  0  0
  5  6  1  0  0  0  0
  5 29  1  0  0  0  0
  6  7  2  0  0  0  0
  6  8  1  0  0  0  0
  8  9  1  0  0  0  0
  8 30  1  0  0  0  0
  9 14  1  0  0  0  0
  9 10  2  0  0  0  0
 10 11  1  0  0  0  0
 10 31  1  0  0  0  0
 11 12  2  0  0  0  0
 11 32  1  0  0  0  0
 12 13  1  0  0  0  0
 12 33  1  0  0  0  0
 13 14  2  0  0  0  0
 13 34  1  0  0  0  0
 15 20  1  0  0  0  0
 15 16  1  0  0  0  0
 16 17  1  0  0  0  0
 16 35  1  0  0  0  0
 16 36  1  0  0  0  0
 17 18  1  0  0  0  0
 17 37  1  0  0  0  0
 17 38  1  0  0  0  0
 18 19  1  0  0  0  0
 19 20  1  0  0  0  0
 19 39  1  0  0  0  0
 19 40  1  0  0  0  0
 20 41  1  0  0  0  0
 20 42  1  0  0  0  0
M  END
> <s_m_source_file>
AV-unprocessed.smi

> <i_m_source_file_index>
1792

> <i_lp_mmshare_version>
43012

> <i_f3d_flags>
0

> <s_epik_input>
W0NIMl0xW0NIMl1PW0NIMl1bQ0gyXU4xQyhbQ0gzXSkoW0NIM10pW0NIMl1bTkhdQyg9TylbTkhdYzJbY0hdW2NIXVtjSF1bY0hdbjI=

> <s_epik_cmdline>
J2VwaWtfcHl0aG9uJywgJy1waCcsICc3LjAnLCAnLXRuJywgJzgnLCAnLW1hJywgJzIwMCcsICctbWV0YWxfYmluZGluZycsICctaW1hZScsICc8aW5maWxlLm1hZT4nLCAnLW9tYWUnLCAnPG91dGZpbGUubWFlPic=

> <r_epik_Ionization_Penalty>
0.26604

> <r_epik_Ionization_Penalty_Charging>
0

> <r_epik_Ionization_Penalty_Neutral>
0.26604

> <r_epik_State_Penalty>
0.257924

> <r_epik_Charging_Adjusted_Penalty>
0.257924

> <i_epik_Tot_Q>
0

> <i_epik_Tot_abs_Q>
0

> <r_epik_Metal_State_Penalty>
0.257923

> <b_epik_Metal_Only>
0

> <s_lp_Force_Field>
OPLS_2005

> <r_lp_Energy>
43.4175

> <b_lp_Chiralities_Consistent>
1

> <s_lp_Variant>
AV-unprocessed.smi:1792-1

> <Gold.Version>
5.8.1

> <Gold.Id.Protein>
6NUR|6NUR_protein|mol2

> <Gold.PLP.Fitness>
39.9117

> <Gold.PLP.PLP>
-29.5335

> <Gold.PLP.part.hbond>
-3.0000

> <Gold.PLP.part.metal>
0.0000

> <Gold.PLP.part.buried>
-4.7205

> <Gold.PLP.part.nonpolar>
-22.9517

> <Gold.PLP.part.repulsive>
0.6072

> <Gold.PLP.ligand.clash>
0.0000

> <Gold.PLP.ligand.torsion>
0.8309

> <Gold.PLP.Chemscore.Hbond>
2.9920

> <Gold.PLP.Chemscore.CHOScore>
1.0000

> <Gold.PLP.Chemscore.Metal>
0.0000

> <Gold.Chemscore.Hbonds>
donor molecule, donor type, donor heavy atom, donor atom, acceptor molecule, acceptor atom, score
      L1  H     5    29       P1  7948  0.98
      L1  H     8    30       P1  7948  1.00
      P1  H 10752 10763       L1    18  1.00
      L1  C    13    34       P1 10186  0.74

> <Gold.PLP.Chemscore.Internal.Correction>
0.0640

> <Gold.Rescore>
     Score         DG    S(hbond)    S(metal)    S(lipo)     H(rot)  DE(clash)    DE(int)     intcor
     17.10     -19.70       2.71        0.00      77.21       1.50       0.32       2.28       ----

> <Gold.Chemscore.Fitness>
17.1024

> <Gold.Chemscore.DG>
-19.7017

> <Gold.Chemscore.ZeroCoef>
-5.4800

> <Gold.Chemscore.Hbond>
2.7066

> <Gold.Chemscore.Metal>
0.0000

> <Gold.Chemscore.Lipo>
77.2068

> <Gold.Chemscore.Internal_Hbond>
0.0000

> <Gold.Chemscore.DEClash>
0.3158

> <Gold.Chemscore.DEInternal>
2.2834

> <Gold.Chemscore.Rot>
1.5045

> <Gold.Chemscore.Internal.Correction>
   9.000000E+99

> <Gold.Chemscore.Hbonds>
donor molecule, donor type, donor heavy atom, donor atom, acceptor molecule, acceptor atom, score
      L1  H     5    29       P1  7948  0.93
      L1  H     8    30       P1  7948  0.99
      P1  H 10752 10763       L1    18  0.45

> <Gold.Chemscore.Hbond.Weighted>
-9.0400

> <Gold.Chemscore.Metal.Weighted>
-0.0000

> <Gold.Chemscore.Lipo.Weighted>
-9.0332

> <Gold.Chemscore.Internal_Hbond.Weighted>
0.0000

> <Gold.Chemscore.DEClash.Weighted>
0.3158

> <Gold.Chemscore.DEInternal.Weighted>
2.2834

> <Gold.Chemscore.Rot.Weighted>
3.8515

> <Gold.Chemscore.Internal.Correction.Weighted>
   9.000000E+99

> <Gold.Protein.RotatedTorsions>
[ 6907 6896 6895 6894 ] final  -64.76 input  -60.11 | X-H torsion
[ 7974 7965 7964 7962 ] final -125.54 input  175.53 | X-H torsion
[ 8008 7997 7996 7995 ] final  143.52 input   59.86 | X-H torsion
[ 10167 10162 10161 10158 ] final   18.01 input  -65.29 | X-H torsion
[ 10718 10713 10712 10709 ] final -145.80 input   66.30 | X-H torsion
[ 10763 10752 10751 10750 ] final   75.35 input  -60.55 | X-H torsion
[ 11005 11000 10999 10996 ] final  -15.21 input  -57.11 | X-H torsion

> <Gold.Protein.ActiveResidues>
 VAL166  LYS551  ARG553  GLY616  TRP617  ASP618  TYR619  PRO620  LYS621  CYS622 
 ASP623  PHE694  ASN695  SER759  ASP760  ASP761  ALA762  ILE779  LEU786  VAL792 
 PHE793  MET794  SER795  GLU796  ALA797  LYS798  CYS799  TRP800  GLU811  SER814 

> <Gold.Protein.RotatedAtoms>
  150.7565  134.6254  159.6157 H   0  0  0  0  0  0  0  0  0  0  0  0  # atno 6907 bound_to 6896
  152.3548  134.6952  160.0234 H   0  0  0  0  0  0  0  0  0  0  0  0  # atno 6908 bound_to 6896
  151.7362  133.3284  159.3390 H   0  0  0  0  0  0  0  0  0  0  0  0  # atno 6909 bound_to 6896
  144.9965  140.7781  143.4522 H   0  0  0  0  0  0  0  0  0  0  0  0  # atno 7974 bound_to 7965
  156.2928  140.2260  156.4905 H   0  0  0  0  0  0  0  0  0  0  0  0  # atno 8008 bound_to 7997
  154.7775  140.0462  157.1122 H   0  0  0  0  0  0  0  0  0  0  0  0  # atno 8009 bound_to 7997
  154.9798  140.3077  155.4954 H   0  0  0  0  0  0  0  0  0  0  0  0  # atno 8010 bound_to 7997
  140.5685  143.9206  150.6694 H   0  0  0  0  0  0  0  0  0  0  0  0  # atno 10167 bound_to 10162
  156.3870  130.7866  151.2064 H   0  0  0  0  0  0  0  0  0  0  0  0  # atno 10718 bound_to 10713
  153.0649  135.4991  154.8177 H   0  0  0  0  0  0  0  0  0  0  0  0  # atno 10763 bound_to 10752
  154.6938  135.2989  154.9443 H   0  0  0  0  0  0  0  0  0  0  0  0  # atno 10764 bound_to 10752
  154.0189  135.6744  153.4823 H   0  0  0  0  0  0  0  0  0  0  0  0  # atno 10765 bound_to 10752
  140.7943  133.8263  155.9409 H   0  0  0  0  0  0  0  0  0  0  0  0  # atno 11005 bound_to 11000
  145.2213  139.2158  143.5091 LP  0  0  0  0  0  0  0  0  0  0  0  0  # atno 17320 bound_to 7965
  146.3443  140.2071  142.8589 LP  0  0  0  0  0  0  0  0  0  0  0  0  # atno 17321 bound_to 7965
  140.2675  143.3479  152.1267 LP  0  0  0  0  0  0  0  0  0  0  0  0  # atno 17342 bound_to 10162
  139.5105  144.6885  151.5823 LP  0  0  0  0  0  0  0  0  0  0  0  0  # atno 17343 bound_to 10162
  157.7496  131.0327  150.4238 LP  0  0  0  0  0  0  0  0  0  0  0  0  # atno 17370 bound_to 10713
  156.4493  130.4008  149.6646 LP  0  0  0  0  0  0  0  0  0  0  0  0  # atno 17371 bound_to 10713
  140.9358  134.1963  157.4832 LP  0  0  0  0  0  0  0  0  0  0  0  0  # atno 17394 bound_to 11000
  139.8728  134.9852  156.5271 LP  0  0  0  0  0  0  0  0  0  0  0  0  # atno 17395 bound_to 11000

$$$$
