AV-unprocessed.smi:72|AV-procd|sdf|708|dock8
  -GOLD-   2262017 33D 1   1.00000     0.00000
 Structure written by MMmdl.
 30 31  0  0  0  0  0  0  0  0  2 V2000
  139.9558  140.6047  153.6957 N   0  0  0  0  0  0  0  0  0  0  0  0
  140.3983  139.2987  153.7294 C   0  0  0  0  0  0  0  0  0  0  0  0
  141.6517  139.0311  153.2107 N   0  3  0  0  0  0  0  0  0  0  0  0
  142.2311  137.8233  153.1752 C   0  0  0  0  0  0  0  0  0  0  0  0
  141.5903  136.7886  153.6859 N   0  0  0  0  0  0  0  0  0  0  0  0
  142.1756  135.3944  153.6677 C   0  0  1  0  0  0  0  0  0  0  0  0
  142.6920  135.1579  152.3949 O   0  0  0  0  0  0  0  0  0  0  0  0
  144.0745  135.4976  152.3797 C   0  0  2  0  0  0  0  0  0  0  0  0
  144.7765  134.9367  151.1313 C   0  0  0  0  0  0  0  0  0  0  0  0
  144.6694  135.8620  150.0704 O   0  0  0  0  0  0  0  0  0  0  0  0
  144.5428  134.9340  153.7249 C   0  0  2  0  0  0  0  0  0  0  0  0
  144.7779  133.5384  153.6237 O   0  0  0  0  0  0  0  0  0  0  0  0
  143.3676  135.2725  154.6453 C   0  0  2  0  0  0  0  0  0  0  0  0
  143.1674  134.2993  155.6527 O   0  0  0  0  0  0  0  0  0  0  0  0
  140.2776  136.9592  154.1985 C   0  0  0  0  0  0  0  0  0  0  0  0
  139.6443  135.9933  154.6212 O   0  0  0  0  0  0  0  0  0  0  0  0
  139.7590  138.2622  154.1955 N   0  0  0  0  0  0  0  0  0  0  0  0
  141.3379  134.7253  153.8724 H   0  0  0  0  0  0  0  0  0  0  0  0
  144.1859  136.5834  152.4114 H   0  0  0  0  0  0  0  0  0  0  0  0
  145.4660  135.4084  154.0600 H   0  0  0  0  0  0  0  0  0  0  0  0
  143.5517  136.2373  155.1202 H   0  0  0  0  0  0  0  0  0  0  0  0
  139.0525  140.8912  154.0457 H   0  0  0  0  0  0  0  0  0  0  0  0
  140.4898  141.3727  153.3148 H   0  0  0  0  0  0  0  0  0  0  0  0
  143.2074  137.7321  152.7179 H   0  0  0  0  0  0  0  0  0  0  0  0
  145.8382  134.7887  151.3313 H   0  0  0  0  0  0  0  0  0  0  0  0
  144.3609  133.9726  150.8363 H   0  0  0  0  0  0  0  0  0  0  0  0
  144.2786  136.6558  150.4033 H   0  0  0  0  0  0  0  0  0  0  0  0
  144.0842  133.0849  154.0785 H   0  0  0  0  0  0  0  0  0  0  0  0
  142.2815  134.3773  155.9734 H   0  0  0  0  0  0  0  0  0  0  0  0
  142.1659  139.8088  152.8223 H   0  0  0  0  0  0  0  0  0  0  0  0
  1  2  1  0  0  0  0
  1 22  1  0  0  0  0
  1 23  1  0  0  0  0
  2 17  2  0  0  0  0
  2  3  1  0  0  0  0
  3  4  2  0  0  0  0
  3 30  1  0  0  0  0
  4  5  1  0  0  0  0
  4 24  1  0  0  0  0
  5  6  1  0  0  0  0
  5 15  1  0  0  0  0
  6 18  1  0  0  0  0
  6 13  1  0  0  0  0
  6  7  1  0  0  0  0
  7  8  1  0  0  0  0
  8 19  1  0  0  0  0
  8  9  1  0  0  0  0
  8 11  1  0  0  0  0
  9 10  1  0  0  0  0
  9 25  1  0  0  0  0
  9 26  1  0  0  0  0
 10 27  1  0  0  0  0
 11 20  1  0  0  0  0
 11 12  1  0  0  0  0
 11 13  1  0  0  0  0
 12 28  1  0  0  0  0
 13 21  1  0  0  0  0
 13 14  1  0  0  0  0
 14 29  1  0  0  0  0
 15 16  2  0  0  0  0
 15 17  1  0  0  0  0
M  CHG  1   3   1
M  END
> <s_m_source_file>
AV-unprocessed.smi

> <i_m_source_file_index>
72

> <i_lp_mmshare_version>
43012

> <i_f3d_flags>
0

> <s_epik_input>
W05IMl1jMW5bY0hdbihjKD1PKW4xKVtDQEBIXTJPW0NASF0oW0NIMl1bT0hdKVtDQEBIXShbT0hdKVtDQEhdMltPSF0=

> <s_epik_cmdline>
J2VwaWtfcHl0aG9uJywgJy1waCcsICc3LjAnLCAnLXRuJywgJzgnLCAnLW1hJywgJzIwMCcsICctbWV0YWxfYmluZGluZycsICctaW1hZScsICc8aW5maWxlLm1hZT4nLCAnLW9tYWUnLCAnPG91dGZpbGUubWFlPic=

> <r_lp_tautomer_probability>
4.77166e-05

> <r_epik_Ionization_Penalty>
0.104979

> <r_epik_Ionization_Penalty_Charging>
0.0999619

> <r_epik_Ionization_Penalty_Neutral>
0.00501745

> <r_epik_State_Penalty>
2.51541

> <r_epik_Charging_Adjusted_Penalty>
2.61537

> <i_epik_Tot_Q>
1

> <i_epik_Tot_abs_Q>
1

> <r_epik_Metal_State_Penalty>
3.53763

> <b_epik_Metal_Only>
0

> <s_epik_Chemistry_Notes>
This compound contains an acetal/aminal-like group ( X-CH(R)-Y where X, Y are N, S, or O) that may be acid/base labile, releasing an aldehyde.

> <s_lp_Force_Field>
OPLS_2005

> <r_lp_Energy>
33.6404

> <b_lp_Chiralities_Consistent>
1

> <s_lp_Variant>
AV-unprocessed.smi:72-46

> <Gold.Version>
5.8.1

> <Gold.Id.Protein>
6NUR|6NUR_protein|mol2

> <Gold.PLP.Fitness>
43.1038

> <Gold.PLP.PLP>
-26.5332

> <Gold.PLP.part.hbond>
-9.2597

> <Gold.PLP.part.metal>
0.0000

> <Gold.PLP.part.buried>
-3.7638

> <Gold.PLP.part.nonpolar>
-13.9285

> <Gold.PLP.part.repulsive>
0.4452

> <Gold.PLP.ligand.clash>
0.0000

> <Gold.PLP.ligand.torsion>
0.5086

> <Gold.PLP.Chemscore.Hbond>
5.7180

> <Gold.PLP.Chemscore.CHOScore>
0.1330

> <Gold.PLP.Chemscore.Metal>
0.0000

> <Gold.Chemscore.Hbonds>
donor molecule, donor type, donor heavy atom, donor atom, acceptor molecule, acceptor atom, score
      L1  H     3    30       P1 10175  1.95
      L1  H    10    27       P1 10171  0.75
      L1  H    12    28       P1 10957  0.93
      L1  H    14    29       P1 11000  0.86
      P1  H 11000 11005       L1    16  1.00
      L1  C     4    24       P1 10175  0.14

> <Gold.PLP.Chemscore.Internal.Correction>
0.0348

> <Gold.Rescore>
     Score         DG    S(hbond)    S(metal)    S(lipo)     H(rot)  DE(clash)    DE(int)     intcor
      8.33      -9.42       3.82        0.00      13.93       4.08       0.01       1.08       ----

> <Gold.Chemscore.Fitness>
8.3260

> <Gold.Chemscore.DG>
-9.4161

> <Gold.Chemscore.ZeroCoef>
-5.4800

> <Gold.Chemscore.Hbond>
3.8164

> <Gold.Chemscore.Metal>
0.0000

> <Gold.Chemscore.Lipo>
13.9278

> <Gold.Chemscore.Internal_Hbond>
0.0000

> <Gold.Chemscore.DEClash>
0.0060

> <Gold.Chemscore.DEInternal>
1.0841

> <Gold.Chemscore.Rot>
4.0783

> <Gold.Chemscore.Internal.Correction>
   9.000000E+99

> <Gold.Chemscore.Hbonds>
donor molecule, donor type, donor heavy atom, donor atom, acceptor molecule, acceptor atom, score
      L1  H     3    30       P1 10175  0.41
      L1  H    10    27       P1 10171  0.71
      L1  H    12    28       P1 10957  0.88
      L1  H    14    29       P1 11000  0.16
      P1  H 11000 11005       L1    16  0.94

> <Gold.Chemscore.Hbond.Weighted>
-12.7469

> <Gold.Chemscore.Metal.Weighted>
-0.0000

> <Gold.Chemscore.Lipo.Weighted>
-1.6295

> <Gold.Chemscore.Internal_Hbond.Weighted>
0.0000

> <Gold.Chemscore.DEClash.Weighted>
0.0060

> <Gold.Chemscore.DEInternal.Weighted>
1.0841

> <Gold.Chemscore.Rot.Weighted>
10.4404

> <Gold.Chemscore.Internal.Correction.Weighted>
   9.000000E+99

> <Gold.Protein.RotatedTorsions>
[ 6907 6896 6895 6894 ] final  -17.38 input  -60.11 | X-H torsion
[ 7974 7965 7964 7962 ] final  -56.55 input  175.53 | X-H torsion
[ 8008 7997 7996 7995 ] final -157.55 input   59.86 | X-H torsion
[ 10167 10162 10161 10158 ] final -102.51 input  -65.29 | X-H torsion
[ 10718 10713 10712 10709 ] final  166.17 input   66.30 | X-H torsion
[ 10763 10752 10751 10750 ] final  -12.92 input  -60.55 | X-H torsion
[ 11005 11000 10999 10996 ] final   85.65 input  -57.11 | X-H torsion

> <Gold.Protein.ActiveResidues>
 VAL166  LYS551  ARG553  GLY616  TRP617  ASP618  TYR619  PRO620  LYS621  CYS622 
 ASP623  PHE694  ASN695  SER759  ASP760  ASP761  ALA762  ILE779  LEU786  VAL792 
 PHE793  MET794  SER795  GLU796  ALA797  LYS798  CYS799  TRP800  GLU811  SER814 

> <Gold.Protein.RotatedAtoms>
  151.2942  135.0750  159.9214 H   0  0  0  0  0  0  0  0  0  0  0  0  # atno 6907 bound_to 6896
  152.5310  133.9900  159.7857 H   0  0  0  0  0  0  0  0  0  0  0  0  # atno 6908 bound_to 6896
  151.0176  133.5856  159.2705 H   0  0  0  0  0  0  0  0  0  0  0  0  # atno 6909 bound_to 6896
  145.8613  140.8283  142.9935 H   0  0  0  0  0  0  0  0  0  0  0  0  # atno 7974 bound_to 7965
  155.7341  140.0805  157.2276 H   0  0  0  0  0  0  0  0  0  0  0  0  # atno 8008 bound_to 7997
  154.4029  140.1590  156.2596 H   0  0  0  0  0  0  0  0  0  0  0  0  # atno 8009 bound_to 7997
  155.9082  140.3405  155.6081 H   0  0  0  0  0  0  0  0  0  0  0  0  # atno 8010 bound_to 7997
  140.2299  143.3614  152.0896 H   0  0  0  0  0  0  0  0  0  0  0  0  # atno 10167 bound_to 10162
  157.0697  131.0362  151.2616 H   0  0  0  0  0  0  0  0  0  0  0  0  # atno 10718 bound_to 10713
  153.5057  135.7017  153.5808 H   0  0  0  0  0  0  0  0  0  0  0  0  # atno 10763 bound_to 10752
  153.3920  135.3893  155.1929 H   0  0  0  0  0  0  0  0  0  0  0  0  # atno 10764 bound_to 10752
  154.8707  135.3860  154.4532 H   0  0  0  0  0  0  0  0  0  0  0  0  # atno 10765 bound_to 10752
  139.8966  134.8301  156.2611 H   0  0  0  0  0  0  0  0  0  0  0  0  # atno 11005 bound_to 11000
  144.6726  140.1100  143.7456 LP  0  0  0  0  0  0  0  0  0  0  0  0  # atno 17320 bound_to 7965
  145.9244  139.2566  143.1362 LP  0  0  0  0  0  0  0  0  0  0  0  0  # atno 17321 bound_to 7965
  139.5114  144.6899  151.5787 LP  0  0  0  0  0  0  0  0  0  0  0  0  # atno 17342 bound_to 10162
  140.6193  143.9289  150.6513 LP  0  0  0  0  0  0  0  0  0  0  0  0  # atno 17343 bound_to 10162
  157.4888  130.7809  149.7487 LP  0  0  0  0  0  0  0  0  0  0  0  0  # atno 17370 bound_to 10713
  155.9954  130.3912  150.2820 LP  0  0  0  0  0  0  0  0  0  0  0  0  # atno 17371 bound_to 10713
  141.0162  133.7067  156.1192 LP  0  0  0  0  0  0  0  0  0  0  0  0  # atno 17394 bound_to 11000
  140.7299  134.4266  157.5567 LP  0  0  0  0  0  0  0  0  0  0  0  0  # atno 17395 bound_to 11000

$$$$
