AV-unprocessed.smi:2964|AV-procd|sdf|11321|dock5
  -GOLD-   2272016223D 1   1.00000     0.00000
 Structure written by MMmdl.
 35 36  0  0  0  0  0  0  0  0  1 V2000
  152.8173  140.2293  158.0959 O   0  0  0  0  0  0  0  0  0  0  0  0
  151.6769  140.6947  158.0709 C   0  0  0  0  0  0  0  0  0  0  0  0
  150.4828  139.8359  157.6295 C   0  0  0  0  0  0  0  0  0  0  0  0
  149.7193  140.4229  156.5150 N   0  0  0  0  0  0  0  0  0  0  0  0
  148.4217  140.8907  156.8022 C   0  0  0  0  0  0  0  0  0  0  0  0
  147.6196  141.4420  155.8705 C   0  0  0  0  0  0  0  0  0  0  0  0
  146.2289  141.9648  156.1936 C   0  0  0  0  0  0  0  0  0  0  0  0
  145.4539  140.9749  156.6365 F   0  0  0  0  0  0  0  0  0  0  0  0
  146.3016  142.8887  157.1509 F   0  0  0  0  0  0  0  0  0  0  0  0
  145.6435  142.5112  155.1269 F   0  0  0  0  0  0  0  0  0  0  0  0
  148.1639  141.5512  154.5324 C   0  0  0  0  0  0  0  0  0  0  0  0
  149.4019  141.1071  154.2404 C   0  0  0  0  0  0  0  0  0  0  0  0
  150.2580  140.4980  155.2610 C   0  0  0  0  0  0  0  0  0  0  0  0
  151.3886  140.0831  155.0052 O   0  0  0  0  0  0  0  0  0  0  0  0
  151.3903  141.9532  158.4366 N   0  0  0  0  0  0  0  0  0  0  0  0
  152.3696  142.9381  158.8879 C   0  0  0  0  0  0  0  0  0  0  0  0
  152.1127  143.3796  160.3439 C   0  0  0  0  0  0  0  0  0  0  0  0
  152.1636  144.9080  160.3375 C   0  0  0  0  0  0  0  0  0  0  0  0
  151.6901  145.2932  158.9401 C   0  0  0  0  0  0  0  0  0  0  0  0
  152.2871  144.2163  158.0332 C   0  0  0  0  0  0  0  0  0  0  0  0
  150.8573  138.8481  157.3579 H   0  0  0  0  0  0  0  0  0  0  0  0
  149.8269  139.6652  158.4854 H   0  0  0  0  0  0  0  0  0  0  0  0
  148.1202  140.7655  157.8321 H   0  0  0  0  0  0  0  0  0  0  0  0
  147.5637  141.9939  153.7511 H   0  0  0  0  0  0  0  0  0  0  0  0
  149.7737  141.2017  153.2307 H   0  0  0  0  0  0  0  0  0  0  0  0
  150.4274  142.2540  158.3924 H   0  0  0  0  0  0  0  0  0  0  0  0
  153.3724  142.5170  158.7938 H   0  0  0  0  0  0  0  0  0  0  0  0
  151.1226  143.0603  160.6735 H   0  0  0  0  0  0  0  0  0  0  0  0
  152.8363  142.9498  161.0374 H   0  0  0  0  0  0  0  0  0  0  0  0
  151.5549  145.3519  161.1256 H   0  0  0  0  0  0  0  0  0  0  0  0
  153.1918  145.2424  160.4816 H   0  0  0  0  0  0  0  0  0  0  0  0
  150.6009  145.2502  158.8971 H   0  0  0  0  0  0  0  0  0  0  0  0
  151.9962  146.3000  158.6547 H   0  0  0  0  0  0  0  0  0  0  0  0
  153.2935  144.5154  157.7374 H   0  0  0  0  0  0  0  0  0  0  0  0
  151.7104  144.0888  157.1160 H   0  0  0  0  0  0  0  0  0  0  0  0
  1  2  2  0  0  0  0
  2  3  1  0  0  0  0
  2 15  1  0  0  0  0
  3  4  1  0  0  0  0
  3 21  1  0  0  0  0
  3 22  1  0  0  0  0
  4 13  1  0  0  0  0
  4  5  1  0  0  0  0
  5  6  2  0  0  0  0
  5 23  1  0  0  0  0
  6  7  1  0  0  0  0
  6 11  1  0  0  0  0
  7  8  1  0  0  0  0
  7  9  1  0  0  0  0
  7 10  1  0  0  0  0
 11 12  2  0  0  0  0
 11 24  1  0  0  0  0
 12 13  1  0  0  0  0
 12 25  1  0  0  0  0
 13 14  2  0  0  0  0
 15 16  1  0  0  0  0
 15 26  1  0  0  0  0
 16 20  1  0  0  0  0
 16 17  1  0  0  0  0
 16 27  1  0  0  0  0
 17 18  1  0  0  0  0
 17 28  1  0  0  0  0
 17 29  1  0  0  0  0
 18 19  1  0  0  0  0
 18 30  1  0  0  0  0
 18 31  1  0  0  0  0
 19 20  1  0  0  0  0
 19 32  1  0  0  0  0
 19 33  1  0  0  0  0
 20 34  1  0  0  0  0
 20 35  1  0  0  0  0
M  END
> <s_m_source_file>
AV-unprocessed.smi

> <i_m_source_file_index>
2964

> <i_lp_mmshare_version>
43012

> <i_f3d_flags>
0

> <s_epik_input>
W0NIMl0xW0NIMl1bQ0gyXVtDSDJdW0NIXTFbTkhdQyg9TylbQ0gyXW4yW2NIXWMoQyhGKShGKUYpW2NIXVtjSF1jMj1P

> <s_epik_cmdline>
J2VwaWtfcHl0aG9uJywgJy1waCcsICc3LjAnLCAnLXRuJywgJzgnLCAnLW1hJywgJzIwMCcsICctbWV0YWxfYmluZGluZycsICctaW1hZScsICc8aW5maWxlLm1hZT4nLCAnLW9tYWUnLCAnPG91dGZpbGUubWFlPic=

> <r_lp_tautomer_probability>
1

> <r_epik_Ionization_Penalty>
3.84201e-08

> <r_epik_Ionization_Penalty_Charging>
1.91184e-08

> <r_epik_Ionization_Penalty_Neutral>
1.93017e-08

> <r_epik_State_Penalty>
-0

> <r_epik_Charging_Adjusted_Penalty>
1.91184e-08

> <i_epik_Tot_Q>
0

> <i_epik_Tot_abs_Q>
0

> <r_epik_Metal_State_Penalty>
-0

> <b_epik_Metal_Only>
0

> <s_lp_Force_Field>
OPLS_2005

> <r_lp_Energy>
29.7678

> <b_lp_Chiralities_Consistent>
1

> <s_lp_Variant>
AV-unprocessed.smi:2964-1

> <Gold.Version>
5.8.1

> <Gold.Id.Protein>
6NUR|6NUR_protein|mol2

> <Gold.PLP.Fitness>
46.2286

> <Gold.PLP.PLP>
-40.5982

> <Gold.PLP.part.hbond>
-2.0000

> <Gold.PLP.part.metal>
0.0000

> <Gold.PLP.part.buried>
-4.6097

> <Gold.PLP.part.nonpolar>
-33.3554

> <Gold.PLP.part.repulsive>
0.1294

> <Gold.PLP.ligand.clash>
0.0000

> <Gold.PLP.ligand.torsion>
0.1200

> <Gold.PLP.Chemscore.Hbond>
1.9516

> <Gold.PLP.Chemscore.CHOScore>
0.0000

> <Gold.PLP.Chemscore.Metal>
0.0000

> <Gold.Chemscore.Hbonds>
donor molecule, donor type, donor heavy atom, donor atom, acceptor molecule, acceptor atom, score
      P1  H  7989  7998       L1    14  1.00
      P1  H  7997  8010       L1     1  0.87

> <Gold.PLP.Chemscore.Internal.Correction>
0.0157

> <Gold.Rescore>
     Score         DG    S(hbond)    S(metal)    S(lipo)     H(rot)  DE(clash)    DE(int)     intcor
     17.75     -17.98       1.86        0.00      87.75       1.56       0.08       0.15       ----

> <Gold.Chemscore.Fitness>
17.7453

> <Gold.Chemscore.DG>
-17.9757

> <Gold.Chemscore.ZeroCoef>
-5.4800

> <Gold.Chemscore.Hbond>
1.8606

> <Gold.Chemscore.Metal>
0.0000

> <Gold.Chemscore.Lipo>
87.7488

> <Gold.Chemscore.Internal_Hbond>
0.0000

> <Gold.Chemscore.DEClash>
0.0794

> <Gold.Chemscore.DEInternal>
0.1511

> <Gold.Chemscore.Rot>
1.5568

> <Gold.Chemscore.Internal.Correction>
   9.000000E+99

> <Gold.Chemscore.Hbonds>
donor molecule, donor type, donor heavy atom, donor atom, acceptor molecule, acceptor atom, score
      P1  H  7989  7998       L1    14  0.25
      P1  H  7997  8010       L1     1  0.80

> <Gold.Chemscore.Hbond.Weighted>
-6.2145

> <Gold.Chemscore.Metal.Weighted>
-0.0000

> <Gold.Chemscore.Lipo.Weighted>
-10.2666

> <Gold.Chemscore.Internal_Hbond.Weighted>
0.0000

> <Gold.Chemscore.DEClash.Weighted>
0.0794

> <Gold.Chemscore.DEInternal.Weighted>
0.1511

> <Gold.Chemscore.Rot.Weighted>
3.9854

> <Gold.Chemscore.Internal.Correction.Weighted>
   9.000000E+99

> <Gold.Protein.RotatedTorsions>
[ 6907 6896 6895 6894 ] final  -90.20 input  -60.11 | X-H torsion
[ 7974 7965 7964 7962 ] final   98.12 input  175.53 | X-H torsion
[ 8008 7997 7996 7995 ] final   46.30 input   59.86 | X-H torsion
[ 10167 10162 10161 10158 ] final  163.28 input  -65.29 | X-H torsion
[ 10718 10713 10712 10709 ] final  122.41 input   66.30 | X-H torsion
[ 10763 10752 10751 10750 ] final   -5.96 input  -60.55 | X-H torsion
[ 11005 11000 10999 10996 ] final  135.00 input  -57.11 | X-H torsion

> <Gold.Protein.ActiveResidues>
 VAL166  LYS551  ARG553  GLY616  TRP617  ASP618  TYR619  PRO620  LYS621  CYS622 
 ASP623  PHE694  ASN695  SER759  ASP760  ASP761  ALA762  ILE779  LEU786  VAL792 
 PHE793  MET794  SER795  GLU796  ALA797  LYS798  CYS799  TRP800  GLU811  SER814 

> <Gold.Protein.RotatedAtoms>
  150.6880  134.2469  159.4494 H   0  0  0  0  0  0  0  0  0  0  0  0  # atno 6907 bound_to 6896
  152.0409  134.9709  160.0583 H   0  0  0  0  0  0  0  0  0  0  0  0  # atno 6908 bound_to 6896
  152.1212  133.4319  159.4713 H   0  0  0  0  0  0  0  0  0  0  0  0  # atno 6909 bound_to 6896
  145.4164  139.2327  143.3220 H   0  0  0  0  0  0  0  0  0  0  0  0  # atno 7974 bound_to 7965
  155.3501  140.3413  155.4239 H   0  0  0  0  0  0  0  0  0  0  0  0  # atno 8008 bound_to 7997
  156.1768  140.1650  156.8383 H   0  0  0  0  0  0  0  0  0  0  0  0  # atno 8009 bound_to 7997
  154.5291  140.0749  156.8294 H   0  0  0  0  0  0  0  0  0  0  0  0  # atno 8010 bound_to 7997
  139.4872  144.4353  151.9020 H   0  0  0  0  0  0  0  0  0  0  0  0  # atno 10167 bound_to 10162
  157.5744  131.1080  150.8306 H   0  0  0  0  0  0  0  0  0  0  0  0  # atno 10718 bound_to 10713
  153.4058  135.7006  153.6394 H   0  0  0  0  0  0  0  0  0  0  0  0  # atno 10763 bound_to 10752
  153.4908  135.3673  155.2491 H   0  0  0  0  0  0  0  0  0  0  0  0  # atno 10764 bound_to 10752
  154.8714  135.4088  154.3401 H   0  0  0  0  0  0  0  0  0  0  0  0  # atno 10765 bound_to 10752
  139.9951  134.9500  156.9945 H   0  0  0  0  0  0  0  0  0  0  0  0  # atno 11005 bound_to 11000
  146.2679  140.4882  142.8826 LP  0  0  0  0  0  0  0  0  0  0  0  0  # atno 17320 bound_to 7965
  144.8274  140.6652  143.6313 LP  0  0  0  0  0  0  0  0  0  0  0  0  # atno 17321 bound_to 7965
  140.3802  144.2746  150.5909 LP  0  0  0  0  0  0  0  0  0  0  0  0  # atno 17342 bound_to 10162
  140.5240  143.2259  151.8344 LP  0  0  0  0  0  0  0  0  0  0  0  0  # atno 17343 bound_to 10162
  156.8769  130.5165  149.5293 LP  0  0  0  0  0  0  0  0  0  0  0  0  # atno 17370 bound_to 10713
  156.0789  130.5804  150.9526 LP  0  0  0  0  0  0  0  0  0  0  0  0  # atno 17371 bound_to 10713
  140.4834  134.1267  155.7220 LP  0  0  0  0  0  0  0  0  0  0  0  0  # atno 17394 bound_to 11000
  141.1598  133.8815  157.1880 LP  0  0  0  0  0  0  0  0  0  0  0  0  # atno 17395 bound_to 11000

$$$$
