AV-unprocessed.smi:1601|AV-procd|sdf|6432|dock8
  -GOLD-   22720 7 73D 1   1.00000     0.00000
 Structure written by MMmdl.
 41 42  0  0  0  0  0  0  0  0  1 V2000
  150.1153  138.7815  153.9020 C   0  0  0  0  0  0  0  0  0  0  0  0
  151.3195  138.1977  154.6842 C   0  0  1  0  0  0  0  0  0  0  0  0
  152.1258  139.3748  155.3073 C   0  0  0  0  0  0  0  0  0  0  0  0
  151.3199  140.2319  156.1723 N   0  0  0  0  0  0  0  0  0  0  0  0
  151.6216  140.5458  157.4425 C   0  0  0  0  0  0  0  0  0  0  0  0
  152.6263  140.1228  158.0159 O   0  0  0  0  0  0  0  0  0  0  0  0
  150.6433  141.4903  158.1610 C   0  0  2  0  0  0  0  0  0  0  0  0
  149.3283  141.6979  157.3826 C   0  0  0  0  0  0  0  0  0  0  0  0
  151.2916  142.7564  158.4830 N   0  0  0  0  0  0  0  0  0  0  0  0
  150.8523  144.0326  158.1939 C   0  0  0  0  0  0  0  0  0  0  0  0
  151.7659  144.9076  158.7078 C   0  0  0  0  0  0  0  0  0  0  0  0
  152.7385  144.0644  159.3126 C   0  0  0  0  0  0  0  0  0  0  0  0
  152.4511  142.7800  159.1811 N   0  0  0  0  0  0  0  0  0  0  0  0
  150.9192  137.1685  155.6723 N   0  0  0  0  0  0  0  0  0  0  0  0
  149.8268  137.6232  156.5413 C   0  0  0  0  0  0  0  0  0  0  0  0
  149.3709  136.5509  157.5455 C   0  0  0  0  0  0  0  0  0  0  0  0
  148.9792  135.3778  156.8469 O   0  0  0  0  0  0  0  0  0  0  0  0
  150.0350  134.8537  156.0540 C   0  0  0  0  0  0  0  0  0  0  0  0
  150.4987  135.9127  155.0391 C   0  0  0  0  0  0  0  0  0  0  0  0
  150.4122  139.5681  153.2094 H   0  0  0  0  0  0  0  0  0  0  0  0
  149.3733  139.2055  154.5792 H   0  0  0  0  0  0  0  0  0  0  0  0
  149.6205  138.0336  153.2840 H   0  0  0  0  0  0  0  0  0  0  0  0
  151.9684  137.7158  153.9513 H   0  0  0  0  0  0  0  0  0  0  0  0
  152.9573  138.9847  155.8954 H   0  0  0  0  0  0  0  0  0  0  0  0
  152.5638  140.0229  154.5497 H   0  0  0  0  0  0  0  0  0  0  0  0
  150.4758  140.6173  155.7746 H   0  0  0  0  0  0  0  0  0  0  0  0
  150.3826  141.0133  159.1071 H   0  0  0  0  0  0  0  0  0  0  0  0
  148.8283  140.7471  157.1952 H   0  0  0  0  0  0  0  0  0  0  0  0
  149.4944  142.1798  156.4183 H   0  0  0  0  0  0  0  0  0  0  0  0
  148.6369  142.3224  157.9488 H   0  0  0  0  0  0  0  0  0  0  0  0
  149.9357  144.2107  157.6510 H   0  0  0  0  0  0  0  0  0  0  0  0
  151.7417  145.9862  158.6622 H   0  0  0  0  0  0  0  0  0  0  0  0
  153.6372  144.3456  159.8412 H   0  0  0  0  0  0  0  0  0  0  0  0
  150.1343  138.4912  157.1214 H   0  0  0  0  0  0  0  0  0  0  0  0
  148.9754  137.9328  155.9333 H   0  0  0  0  0  0  0  0  0  0  0  0
  150.1697  136.3161  158.2506 H   0  0  0  0  0  0  0  0  0  0  0  0
  148.5256  136.9152  158.1296 H   0  0  0  0  0  0  0  0  0  0  0  0
  150.8625  134.5437  156.6940 H   0  0  0  0  0  0  0  0  0  0  0  0
  149.6809  133.9628  155.5354 H   0  0  0  0  0  0  0  0  0  0  0  0
  149.6950  136.1083  154.3274 H   0  0  0  0  0  0  0  0  0  0  0  0
  151.3187  135.4695  154.4784 H   0  0  0  0  0  0  0  0  0  0  0  0
  1  2  1  0  0  0  0
  1 20  1  0  0  0  0
  1 21  1  0  0  0  0
  1 22  1  0  0  0  0
  2  3  1  0  0  0  0
  2 14  1  0  0  0  0
  2 23  1  0  0  0  0
  3  4  1  0  0  0  0
  3 24  1  0  0  0  0
  3 25  1  0  0  0  0
  4  5  1  0  0  0  0
  4 26  1  0  0  0  0
  5  6  2  0  0  0  0
  5  7  1  0  0  0  0
  7  8  1  0  0  0  0
  7  9  1  0  0  0  0
  7 27  1  0  0  0  0
  8 28  1  0  0  0  0
  8 29  1  0  0  0  0
  8 30  1  0  0  0  0
  9 13  1  0  0  0  0
  9 10  1  0  0  0  0
 10 11  2  0  0  0  0
 10 31  1  0  0  0  0
 11 12  1  0  0  0  0
 11 32  1  0  0  0  0
 12 13  2  0  0  0  0
 12 33  1  0  0  0  0
 14 19  1  0  0  0  0
 14 15  1  0  0  0  0
 15 16  1  0  0  0  0
 15 34  1  0  0  0  0
 15 35  1  0  0  0  0
 16 17  1  0  0  0  0
 16 36  1  0  0  0  0
 16 37  1  0  0  0  0
 17 18  1  0  0  0  0
 18 19  1  0  0  0  0
 18 38  1  0  0  0  0
 18 39  1  0  0  0  0
 19 40  1  0  0  0  0
 19 41  1  0  0  0  0
M  END
> <s_m_source_file>
AV-unprocessed.smi

> <i_m_source_file_index>
1601

> <i_lp_mmshare_version>
43012

> <i_f3d_flags>
0

> <s_epik_input>
W0NIMl0xW0NIMl1PW0NIMl1bQ0gyXU4xW0NASF0oW0NIM10pW0NIMl1bTkhdQyg9TylbQ0BIXShbQ0gzXSluMltjSF1bY0hdW2NIXW4y

> <s_epik_cmdline>
J2VwaWtfcHl0aG9uJywgJy1waCcsICc3LjAnLCAnLXRuJywgJzgnLCAnLW1hJywgJzIwMCcsICctbWV0YWxfYmluZGluZycsICctaW1hZScsICc8aW5maWxlLm1hZT4nLCAnLW9tYWUnLCAnPG91dGZpbGUubWFlPic=

> <r_lp_tautomer_probability>
1

> <r_epik_Ionization_Penalty>
0.203323

> <r_epik_Ionization_Penalty_Charging>
0

> <r_epik_Ionization_Penalty_Neutral>
0.203323

> <r_epik_State_Penalty>
0.193192

> <r_epik_Charging_Adjusted_Penalty>
0.193192

> <i_epik_Tot_Q>
0

> <i_epik_Tot_abs_Q>
0

> <r_epik_Metal_State_Penalty>
0.193187

> <b_epik_Metal_Only>
0

> <s_lp_Force_Field>
OPLS_2005

> <r_lp_Energy>
32.6682

> <b_lp_Chiralities_Consistent>
1

> <s_lp_Variant>
AV-unprocessed.smi:1601-2

> <Gold.Version>
5.8.1

> <Gold.Id.Protein>
6NUR|6NUR_protein|mol2

> <Gold.PLP.Fitness>
38.5850

> <Gold.PLP.PLP>
-32.8042

> <Gold.PLP.part.hbond>
-1.0000

> <Gold.PLP.part.metal>
0.0000

> <Gold.PLP.part.buried>
-5.0064

> <Gold.PLP.part.nonpolar>
-26.9364

> <Gold.PLP.part.repulsive>
0.1754

> <Gold.PLP.ligand.clash>
0.0000

> <Gold.PLP.ligand.torsion>
0.3895

> <Gold.PLP.Chemscore.Hbond>
1.0000

> <Gold.PLP.Chemscore.CHOScore>
1.1427

> <Gold.PLP.Chemscore.Metal>
0.0000

> <Gold.Chemscore.Hbonds>
donor molecule, donor type, donor heavy atom, donor atom, acceptor molecule, acceptor atom, score
      P1  H  7997  8008       L1     6  0.63
      L1  C    10    31       P1  8028  1.00
      L1  C    10    31       P1  8029  0.08

> <Gold.PLP.Chemscore.Internal.Correction>
0.1316

> <Gold.Rescore>
     Score         DG    S(hbond)    S(metal)    S(lipo)     H(rot)  DE(clash)    DE(int)     intcor
     12.97     -14.62       0.97        0.00      89.43       1.79       0.01       1.65       ----

> <Gold.Chemscore.Fitness>
12.9663

> <Gold.Chemscore.DG>
-14.6178

> <Gold.Chemscore.ZeroCoef>
-5.4800

> <Gold.Chemscore.Hbond>
0.9730

> <Gold.Chemscore.Metal>
0.0000

> <Gold.Chemscore.Lipo>
89.4281

> <Gold.Chemscore.Internal_Hbond>
0.0000

> <Gold.Chemscore.DEClash>
0.0060

> <Gold.Chemscore.DEInternal>
1.6455

> <Gold.Chemscore.Rot>
1.7872

> <Gold.Chemscore.Internal.Correction>
   9.000000E+99

> <Gold.Chemscore.Hbonds>
donor molecule, donor type, donor heavy atom, donor atom, acceptor molecule, acceptor atom, score
      P1  H  7997  8008       L1     6  0.58

> <Gold.Chemscore.Hbond.Weighted>
-3.2499

> <Gold.Chemscore.Metal.Weighted>
-0.0000

> <Gold.Chemscore.Lipo.Weighted>
-10.4631

> <Gold.Chemscore.Internal_Hbond.Weighted>
0.0000

> <Gold.Chemscore.DEClash.Weighted>
0.0060

> <Gold.Chemscore.DEInternal.Weighted>
1.6455

> <Gold.Chemscore.Rot.Weighted>
4.5752

> <Gold.Chemscore.Internal.Correction.Weighted>
   9.000000E+99

> <Gold.Protein.RotatedTorsions>
[ 6907 6896 6895 6894 ] final  162.07 input  -60.11 | X-H torsion
[ 7974 7965 7964 7962 ] final  -52.82 input  175.53 | X-H torsion
[ 8008 7997 7996 7995 ] final  -79.46 input   59.86 | X-H torsion
[ 10167 10162 10161 10158 ] final -140.72 input  -65.29 | X-H torsion
[ 10718 10713 10712 10709 ] final   95.05 input   66.30 | X-H torsion
[ 10763 10752 10751 10750 ] final  -62.06 input  -60.55 | X-H torsion
[ 11005 11000 10999 10996 ] final   29.46 input  -57.11 | X-H torsion

> <Gold.Protein.ActiveResidues>
 VAL166  LYS551  ARG553  GLY616  TRP617  ASP618  TYR619  PRO620  LYS621  CYS622 
 ASP623  PHE694  ASN695  SER759  ASP760  ASP761  ALA762  ILE779  LEU786  VAL792 
 PHE793  MET794  SER795  GLU796  ALA797  LYS798  CYS799  TRP800  GLU811  SER814 

> <Gold.Protein.RotatedAtoms>
  151.9460  133.3652  159.3982 H   0  0  0  0  0  0  0  0  0  0  0  0  # atno 6907 bound_to 6896
  150.6989  134.4389  159.5292 H   0  0  0  0  0  0  0  0  0  0  0  0  # atno 6908 bound_to 6896
  152.2054  134.8550  160.0554 H   0  0  0  0  0  0  0  0  0  0  0  0  # atno 6909 bound_to 6896
  145.9037  140.7973  142.9730 H   0  0  0  0  0  0  0  0  0  0  0  0  # atno 7974 bound_to 7965
  154.5788  140.0678  156.9073 H   0  0  0  0  0  0  0  0  0  0  0  0  # atno 8008 bound_to 7997
  155.2501  140.3351  155.4265 H   0  0  0  0  0  0  0  0  0  0  0  0  # atno 8009 bound_to 7997
  156.2173  140.1784  156.7543 H   0  0  0  0  0  0  0  0  0  0  0  0  # atno 8010 bound_to 7997
  139.8254  143.7518  152.2666 H   0  0  0  0  0  0  0  0  0  0  0  0  # atno 10167 bound_to 10162
  157.6942  131.0533  150.4280 H   0  0  0  0  0  0  0  0  0  0  0  0  # atno 10718 bound_to 10713
  154.2941  135.6247  153.5397 H   0  0  0  0  0  0  0  0  0  0  0  0  # atno 10763 bound_to 10752
  152.9848  135.5663  154.5357 H   0  0  0  0  0  0  0  0  0  0  0  0  # atno 10764 bound_to 10752
  154.4974  135.2870  155.1424 H   0  0  0  0  0  0  0  0  0  0  0  0  # atno 10765 bound_to 10752
  140.3047  134.2717  155.7746 H   0  0  0  0  0  0  0  0  0  0  0  0  # atno 11005 bound_to 11000
  144.6737  140.1717  143.7413 LP  0  0  0  0  0  0  0  0  0  0  0  0  # atno 17320 bound_to 7965
  145.8759  139.2296  143.1634 LP  0  0  0  0  0  0  0  0  0  0  0  0  # atno 17321 bound_to 7965
  139.7709  144.7477  151.0226 LP  0  0  0  0  0  0  0  0  0  0  0  0  # atno 17342 bound_to 10162
  140.7810  143.4646  151.0230 LP  0  0  0  0  0  0  0  0  0  0  0  0  # atno 17343 bound_to 10162
  156.4649  130.4040  149.6553 LP  0  0  0  0  0  0  0  0  0  0  0  0  # atno 17370 bound_to 10713
  156.3655  130.7503  151.2480 LP  0  0  0  0  0  0  0  0  0  0  0  0  # atno 17371 bound_to 10713
  141.2121  133.7669  156.9819 LP  0  0  0  0  0  0  0  0  0  0  0  0  # atno 17394 bound_to 11000
  140.1078  134.9496  157.2020 LP  0  0  0  0  0  0  0  0  0  0  0  0  # atno 17395 bound_to 11000

$$$$
