AV-unprocessed.smi:3254|AV-procd|sdf|12454|dock4
  -GOLD-   2272018353D 1   1.00000     0.00000
 Structure written by MMmdl.
 37 38  0  0  0  0  0  0  0  0  2 V2000
  151.2279  143.2884  157.4550 C   0  0  0  0  0  0  0  0  0  0  0  0
  151.0945  141.8013  157.8117 C   0  0  0  0  0  0  0  0  0  0  0  0
  151.0535  140.9608  156.6176 N   0  0  0  0  0  0  0  0  0  0  0  0
  149.9912  141.1157  155.6377 C   0  0  0  0  0  0  0  0  0  0  0  0
  150.1723  139.9535  154.6369 C   0  0  2  0  0  0  0  0  0  0  0  0
  149.0399  138.9188  154.7325 C   0  0  0  0  0  0  0  0  0  0  0  0
  148.7631  138.3988  155.8142 O   0  0  0  0  0  0  0  0  0  0  0  0
  148.3902  138.6328  153.5937 N   0  0  0  0  0  0  0  0  0  0  0  0
  147.2905  137.6827  153.4785 C   0  0  0  0  0  0  0  0  0  0  0  0
  146.3099  138.0848  152.3641 C   0  0  0  0  0  0  0  0  0  0  0  0
  145.3527  137.0163  152.0752 N   0  0  0  0  0  0  0  0  0  0  0  0
  145.6024  135.8322  151.4304 C   0  0  0  0  0  0  0  0  0  0  0  0
  144.4121  135.1529  151.3869 C   0  0  0  0  0  0  0  0  0  0  0  0
  143.4874  135.9511  152.0057 N   0  3  0  0  0  0  0  0  0  0  0  0
  144.0614  137.0843  152.4234 C   0  0  0  0  0  0  0  0  0  0  0  0
  151.5389  139.3303  154.9858 C   0  0  0  0  0  0  0  0  0  0  0  0
  151.9309  140.0066  156.2886 C   0  0  0  0  0  0  0  0  0  0  0  0
  152.9280  139.6840  156.9324 O   0  0  0  0  0  0  0  0  0  0  0  0
  151.2348  143.9026  158.3554 H   0  0  0  0  0  0  0  0  0  0  0  0
  150.3955  143.6197  156.8335 H   0  0  0  0  0  0  0  0  0  0  0  0
  152.1524  143.4879  156.9125 H   0  0  0  0  0  0  0  0  0  0  0  0
  151.9280  141.4930  158.4447 H   0  0  0  0  0  0  0  0  0  0  0  0
  150.1891  141.6453  158.3992 H   0  0  0  0  0  0  0  0  0  0  0  0
  149.0152  141.1099  156.1267 H   0  0  0  0  0  0  0  0  0  0  0  0
  150.1013  142.0785  155.1369 H   0  0  0  0  0  0  0  0  0  0  0  0
  150.2028  140.3536  153.6219 H   0  0  0  0  0  0  0  0  0  0  0  0
  148.6822  139.1025  152.7486 H   0  0  0  0  0  0  0  0  0  0  0  0
  147.7117  136.6993  153.2677 H   0  0  0  0  0  0  0  0  0  0  0  0
  146.7712  137.5993  154.4351 H   0  0  0  0  0  0  0  0  0  0  0  0
  145.7377  138.9694  152.6464 H   0  0  0  0  0  0  0  0  0  0  0  0
  146.8447  138.3282  151.4447 H   0  0  0  0  0  0  0  0  0  0  0  0
  146.5828  135.5685  151.0599 H   0  0  0  0  0  0  0  0  0  0  0  0
  144.1605  134.1874  150.9724 H   0  0  0  0  0  0  0  0  0  0  0  0
  143.5761  137.8937  152.9391 H   0  0  0  0  0  0  0  0  0  0  0  0
  151.5093  138.2467  155.1128 H   0  0  0  0  0  0  0  0  0  0  0  0
  152.2820  139.5584  154.2211 H   0  0  0  0  0  0  0  0  0  0  0  0
  142.5097  135.7195  152.1305 H   0  0  0  0  0  0  0  0  0  0  0  0
  1  2  1  0  0  0  0
  1 19  1  0  0  0  0
  1 20  1  0  0  0  0
  1 21  1  0  0  0  0
  2  3  1  0  0  0  0
  2 22  1  0  0  0  0
  2 23  1  0  0  0  0
  3 17  1  0  0  0  0
  3  4  1  0  0  0  0
  4  5  1  0  0  0  0
  4 24  1  0  0  0  0
  4 25  1  0  0  0  0
  5  6  1  0  0  0  0
  5 16  1  0  0  0  0
  5 26  1  0  0  0  0
  6  7  2  0  0  0  0
  6  8  1  0  0  0  0
  8  9  1  0  0  0  0
  8 27  1  0  0  0  0
  9 10  1  0  0  0  0
  9 28  1  0  0  0  0
  9 29  1  0  0  0  0
 10 11  1  0  0  0  0
 10 30  1  0  0  0  0
 10 31  1  0  0  0  0
 11 15  1  0  0  0  0
 11 12  1  0  0  0  0
 12 13  2  0  0  0  0
 12 32  1  0  0  0  0
 13 14  1  0  0  0  0
 13 33  1  0  0  0  0
 14 15  2  0  0  0  0
 14 37  1  0  0  0  0
 15 34  1  0  0  0  0
 16 17  1  0  0  0  0
 16 35  1  0  0  0  0
 16 36  1  0  0  0  0
 17 18  2  0  0  0  0
M  CHG  1  14   1
M  END
> <s_m_source_file>
AV-unprocessed.smi

> <i_m_source_file_index>
3254

> <i_lp_mmshare_version>
43012

> <i_f3d_flags>
0

> <s_epik_input>
W0NIM11bQ0gyXU4xW0NIMl1bQ0BIXShbQ0gyXUMxPU8pQyg9TylbTkhdW0NIMl1bQ0gyXW4yW2NIXVtjSF1uW2NIXTI=

> <s_epik_cmdline>
J2VwaWtfcHl0aG9uJywgJy1waCcsICc3LjAnLCAnLXRuJywgJzgnLCAnLW1hJywgJzIwMCcsICctbWV0YWxfYmluZGluZycsICctaW1hZScsICc8aW5maWxlLm1hZT4nLCAnLW9tYWUnLCAnPG91dGZpbGUubWFlPic=

> <r_lp_tautomer_probability>
1

> <r_epik_Ionization_Penalty>
0.274742

> <r_epik_Ionization_Penalty_Charging>
0

> <r_epik_Ionization_Penalty_Neutral>
0.274742

> <r_epik_State_Penalty>
0.267046

> <r_epik_Charging_Adjusted_Penalty>
0.267046

> <i_epik_Tot_Q>
1

> <i_epik_Tot_abs_Q>
1

> <r_epik_Metal_State_Penalty>
0.550456

> <b_epik_Metal_Only>
0

> <s_lp_Force_Field>
OPLS_2005

> <r_lp_Energy>
15.3275

> <b_lp_Chiralities_Consistent>
1

> <s_lp_Variant>
AV-unprocessed.smi:3254-2

> <Gold.Version>
5.8.1

> <Gold.Id.Protein>
6NUR|6NUR_protein|mol2

> <Gold.PLP.Fitness>
40.5387

> <Gold.PLP.PLP>
-29.3389

> <Gold.PLP.part.hbond>
-2.9126

> <Gold.PLP.part.metal>
0.0000

> <Gold.PLP.part.buried>
5.3254

> <Gold.PLP.part.nonpolar>
-31.5736

> <Gold.PLP.part.repulsive>
0.0863

> <Gold.PLP.ligand.clash>
0.0000

> <Gold.PLP.ligand.torsion>
0.4010

> <Gold.PLP.Chemscore.Hbond>
1.9913

> <Gold.PLP.Chemscore.CHOScore>
1.9995

> <Gold.PLP.Chemscore.Metal>
0.0000

> <Gold.Chemscore.Hbonds>
donor molecule, donor type, donor heavy atom, donor atom, acceptor molecule, acceptor atom, score
      L1  H     8    27       P1  7957  0.94
      P1  H  7997  8008       L1    18  1.00
      L1  C    12    32       P1  7948  0.98
      L1  C    15    34       P1 10175  0.86

> <Gold.PLP.Chemscore.Internal.Correction>
0.0295

> <Gold.Rescore>
     Score         DG    S(hbond)    S(metal)    S(lipo)     H(rot)  DE(clash)    DE(int)     intcor
     11.02     -12.99       1.88        0.00      60.26       2.28       1.66       0.31       ----

> <Gold.Chemscore.Fitness>
11.0206

> <Gold.Chemscore.DG>
-12.9875

> <Gold.Chemscore.ZeroCoef>
-5.4800

> <Gold.Chemscore.Hbond>
1.8826

> <Gold.Chemscore.Metal>
0.0000

> <Gold.Chemscore.Lipo>
60.2588

> <Gold.Chemscore.Internal_Hbond>
0.0000

> <Gold.Chemscore.DEClash>
1.6552

> <Gold.Chemscore.DEInternal>
0.3117

> <Gold.Chemscore.Rot>
2.2776

> <Gold.Chemscore.Internal.Correction>
   9.000000E+99

> <Gold.Chemscore.Hbonds>
donor molecule, donor type, donor heavy atom, donor atom, acceptor molecule, acceptor atom, score
      L1  H     8    27       P1  7957  0.90
      P1  H  7997  8008       L1    18  0.89

> <Gold.Chemscore.Hbond.Weighted>
-6.2880

> <Gold.Chemscore.Metal.Weighted>
-0.0000

> <Gold.Chemscore.Lipo.Weighted>
-7.0503

> <Gold.Chemscore.Internal_Hbond.Weighted>
0.0000

> <Gold.Chemscore.DEClash.Weighted>
1.6552

> <Gold.Chemscore.DEInternal.Weighted>
0.3117

> <Gold.Chemscore.Rot.Weighted>
5.8307

> <Gold.Chemscore.Internal.Correction.Weighted>
   9.000000E+99

> <Gold.Protein.RotatedTorsions>
[ 6907 6896 6895 6894 ] final   82.19 input  -60.11 | X-H torsion
[ 7974 7965 7964 7962 ] final -125.61 input  175.53 | X-H torsion
[ 8008 7997 7996 7995 ] final  -41.30 input   59.86 | X-H torsion
[ 10167 10162 10161 10158 ] final -169.54 input  -65.29 | X-H torsion
[ 10718 10713 10712 10709 ] final  -22.24 input   66.30 | X-H torsion
[ 10763 10752 10751 10750 ] final  -52.63 input  -60.55 | X-H torsion
[ 11005 11000 10999 10996 ] final  116.94 input  -57.11 | X-H torsion

> <Gold.Protein.ActiveResidues>
 VAL166  LYS551  ARG553  GLY616  TRP617  ASP618  TYR619  PRO620  LYS621  CYS622 
 ASP623  PHE694  ASN695  SER759  ASP760  ASP761  ALA762  ILE779  LEU786  VAL792 
 PHE793  MET794  SER795  GLU796  ALA797  LYS798  CYS799  TRP800  GLU811  SER814 

> <Gold.Protein.RotatedAtoms>
  152.5291  134.3089  159.9105 H   0  0  0  0  0  0  0  0  0  0  0  0  # atno 6907 bound_to 6896
  151.3038  133.4104  159.2649 H   0  0  0  0  0  0  0  0  0  0  0  0  # atno 6908 bound_to 6896
  151.0096  134.9403  159.8057 H   0  0  0  0  0  0  0  0  0  0  0  0  # atno 6909 bound_to 6896
  144.9958  140.7775  143.4526 H   0  0  0  0  0  0  0  0  0  0  0  0  # atno 7974 bound_to 7965
  154.4005  140.1503  156.3168 H   0  0  0  0  0  0  0  0  0  0  0  0  # atno 8008 bound_to 7997
  155.8565  140.3455  155.5706 H   0  0  0  0  0  0  0  0  0  0  0  0  # atno 8009 bound_to 7997
  155.7927  140.0859  157.1991 H   0  0  0  0  0  0  0  0  0  0  0  0  # atno 8010 bound_to 7997
  139.5916  144.1200  152.1641 H   0  0  0  0  0  0  0  0  0  0  0  0  # atno 10167 bound_to 10162
  156.5072  130.4601  149.6668 H   0  0  0  0  0  0  0  0  0  0  0  0  # atno 10718 bound_to 10713
  154.1459  135.6498  153.4952 H   0  0  0  0  0  0  0  0  0  0  0  0  # atno 10763 bound_to 10752
  153.0152  135.5326  154.6858 H   0  0  0  0  0  0  0  0  0  0  0  0  # atno 10764 bound_to 10752
  154.6132  135.2956  155.0380 H   0  0  0  0  0  0  0  0  0  0  0  0  # atno 10765 bound_to 10752
  139.9058  134.9604  156.7274 H   0  0  0  0  0  0  0  0  0  0  0  0  # atno 11005 bound_to 11000
  145.2221  139.2154  143.5087 LP  0  0  0  0  0  0  0  0  0  0  0  0  # atno 17320 bound_to 7965
  146.3441  140.2081  142.8590 LP  0  0  0  0  0  0  0  0  0  0  0  0  # atno 17321 bound_to 7965
  140.0776  144.5727  150.7146 LP  0  0  0  0  0  0  0  0  0  0  0  0  # atno 17342 bound_to 10162
  140.7178  143.2560  151.4378 LP  0  0  0  0  0  0  0  0  0  0  0  0  # atno 17343 bound_to 10162
  156.3275  130.7314  151.2237 LP  0  0  0  0  0  0  0  0  0  0  0  0  # atno 17370 bound_to 10713
  157.7455  131.0439  150.4765 LP  0  0  0  0  0  0  0  0  0  0  0  0  # atno 17371 bound_to 10713
  140.6952  133.9355  155.7990 LP  0  0  0  0  0  0  0  0  0  0  0  0  # atno 17394 bound_to 11000
  141.0412  134.0618  157.3899 LP  0  0  0  0  0  0  0  0  0  0  0  0  # atno 17395 bound_to 11000

$$$$
