AV-unprocessed.smi:1329|AV-procd|sdf|5483|dock5
  -GOLD-   22720 5 53D 1   1.00000     0.00000
 Structure written by MMmdl.
 42 43  0  0  0  0  0  0  0  0  1 V2000
  144.5598  144.0041  153.3695 C   0  0  0  0  0  0  0  0  0  0  0  0
  145.0139  143.0287  154.4218 C   0  0  0  0  0  0  0  0  0  0  0  0
  146.0406  142.2987  154.1324 N   0  0  0  0  0  0  0  0  0  0  0  0
  146.5390  141.3730  155.0268 N   0  0  0  0  0  0  0  0  0  0  0  0
  147.7061  140.6345  154.5314 C   0  0  0  0  0  0  0  0  0  0  0  0
  148.9363  141.5517  154.3515 C   0  0  2  0  0  0  0  0  0  0  0  0
  149.9303  140.8429  153.6392 O   0  0  0  0  0  0  0  0  0  0  0  0
  149.5476  141.9713  155.6964 C   0  0  0  0  0  0  0  0  0  0  0  0
  150.3399  140.9024  156.1866 O   0  0  0  0  0  0  0  0  0  0  0  0
  150.2567  140.7459  157.5936 C   0  0  0  0  0  0  0  0  0  0  0  0
  151.0711  141.7907  158.3345 C   0  0  0  0  0  0  0  0  0  0  0  0
  152.0936  141.4040  159.2281 C   0  0  0  0  0  0  0  0  0  0  0  0
  152.8331  142.3800  159.9239 C   0  0  0  0  0  0  0  0  0  0  0  0
  152.5501  143.7466  159.7358 C   0  0  0  0  0  0  0  0  0  0  0  0
  151.5248  144.1367  158.8527 C   0  0  0  0  0  0  0  0  0  0  0  0
  150.7853  143.1608  158.1560 C   0  0  0  0  0  0  0  0  0  0  0  0
  146.0304  141.1410  156.2712 C   0  0  0  0  0  0  0  0  0  0  0  0
  146.5180  140.3142  157.0434 O   0  0  0  0  0  0  0  0  0  0  0  0
  144.8653  141.9689  156.5914 C   0  0  0  0  0  0  0  0  0  0  0  0
  144.2983  141.7562  157.8840 C   0  0  0  0  0  0  0  0  0  0  0  0
  143.8509  141.5989  158.9400 N   0  0  0  0  0  0  0  0  0  0  0  0
  144.3613  142.8770  155.7185 C   0  0  0  0  0  0  0  0  0  0  0  0
  143.1551  143.7615  156.0035 C   0  0  0  0  0  0  0  0  0  0  0  0
  144.5304  145.0190  153.7666 H   0  0  0  0  0  0  0  0  0  0  0  0
  143.5610  143.7505  153.0139 H   0  0  0  0  0  0  0  0  0  0  0  0
  145.2255  144.0096  152.5050 H   0  0  0  0  0  0  0  0  0  0  0  0
  147.9348  139.8377  155.2417 H   0  0  0  0  0  0  0  0  0  0  0  0
  147.4763  140.1121  153.6003 H   0  0  0  0  0  0  0  0  0  0  0  0
  148.6812  142.4500  153.7880 H   0  0  0  0  0  0  0  0  0  0  0  0
  149.6482  140.7539  152.7417 H   0  0  0  0  0  0  0  0  0  0  0  0
  150.1486  142.8752  155.5810 H   0  0  0  0  0  0  0  0  0  0  0  0
  148.7569  142.1905  156.4162 H   0  0  0  0  0  0  0  0  0  0  0  0
  149.2137  140.8152  157.9068 H   0  0  0  0  0  0  0  0  0  0  0  0
  150.6201  139.7584  157.8813 H   0  0  0  0  0  0  0  0  0  0  0  0
  152.3161  140.3584  159.3846 H   0  0  0  0  0  0  0  0  0  0  0  0
  153.6166  142.0798  160.6040 H   0  0  0  0  0  0  0  0  0  0  0  0
  153.1169  144.4947  160.2703 H   0  0  0  0  0  0  0  0  0  0  0  0
  151.3043  145.1844  158.7109 H   0  0  0  0  0  0  0  0  0  0  0  0
  149.9982  143.4680  157.4830 H   0  0  0  0  0  0  0  0  0  0  0  0
  142.6779  143.5148  156.9514 H   0  0  0  0  0  0  0  0  0  0  0  0
  142.4016  143.6501  155.2232 H   0  0  0  0  0  0  0  0  0  0  0  0
  143.4540  144.8094  156.0464 H   0  0  0  0  0  0  0  0  0  0  0  0
  1  2  1  0  0  0  0
  1 24  1  0  0  0  0
  1 25  1  0  0  0  0
  1 26  1  0  0  0  0
  2 22  1  0  0  0  0
  2  3  2  0  0  0  0
  3  4  1  0  0  0  0
  4  5  1  0  0  0  0
  4 17  1  0  0  0  0
  5  6  1  0  0  0  0
  5 27  1  0  0  0  0
  5 28  1  0  0  0  0
  6  7  1  0  0  0  0
  6  8  1  0  0  0  0
  6 29  1  0  0  0  0
  7 30  1  0  0  0  0
  8  9  1  0  0  0  0
  8 31  1  0  0  0  0
  8 32  1  0  0  0  0
  9 10  1  0  0  0  0
 10 11  1  0  0  0  0
 10 33  1  0  0  0  0
 10 34  1  0  0  0  0
 11 16  1  0  0  0  0
 11 12  2  0  0  0  0
 12 13  1  0  0  0  0
 12 35  1  0  0  0  0
 13 14  2  0  0  0  0
 13 36  1  0  0  0  0
 14 15  1  0  0  0  0
 14 37  1  0  0  0  0
 15 16  2  0  0  0  0
 15 38  1  0  0  0  0
 16 39  1  0  0  0  0
 17 18  2  0  0  0  0
 17 19  1  0  0  0  0
 19 20  1  0  0  0  0
 19 22  2  0  0  0  0
 20 21  3  0  0  0  0
 22 23  1  0  0  0  0
 23 40  1  0  0  0  0
 23 41  1  0  0  0  0
 23 42  1  0  0  0  0
M  END
> <s_m_source_file>
AV-unprocessed.smi

> <i_m_source_file_index>
1329

> <i_lp_mmshare_version>
43012

> <i_f3d_flags>
0

> <s_epik_input>
TiNDYyhjMVtDSDNdKWMoPU8pbihuYzFbQ0gzXSlbQ0gyXVtDQEhdKFtPSF0pW0NIMl1PW0NIMl1jMltjSF1bY0hdW2NIXVtjSF1bY0hdMg==

> <s_epik_cmdline>
J2VwaWtfcHl0aG9uJywgJy1waCcsICc3LjAnLCAnLXRuJywgJzgnLCAnLW1hJywgJzIwMCcsICctbWV0YWxfYmluZGluZycsICctaW1hZScsICc8aW5maWxlLm1hZT4nLCAnLW9tYWUnLCAnPG91dGZpbGUubWFlPic=

> <r_lp_tautomer_probability>
1

> <r_epik_Ionization_Penalty>
6.13319e-08

> <r_epik_Ionization_Penalty_Charging>
2.19172e-10

> <r_epik_Ionization_Penalty_Neutral>
6.11128e-08

> <r_epik_State_Penalty>
-0

> <r_epik_Charging_Adjusted_Penalty>
2.19172e-10

> <i_epik_Tot_Q>
0

> <i_epik_Tot_abs_Q>
0

> <r_epik_Metal_State_Penalty>
-0

> <b_epik_Metal_Only>
0

> <s_lp_Force_Field>
OPLS_2005

> <r_lp_Energy>
29.8656

> <b_lp_Chiralities_Consistent>
1

> <s_lp_Variant>
AV-unprocessed.smi:1329-1

> <Gold.Version>
5.8.1

> <Gold.Id.Protein>
6NUR|6NUR_protein|mol2

> <Gold.PLP.Fitness>
49.3492

> <Gold.PLP.PLP>
-45.4746

> <Gold.PLP.part.hbond>
-2.0000

> <Gold.PLP.part.metal>
0.0000

> <Gold.PLP.part.buried>
-5.6018

> <Gold.PLP.part.nonpolar>
-39.3287

> <Gold.PLP.part.repulsive>
0.2597

> <Gold.PLP.ligand.clash>
0.0199

> <Gold.PLP.ligand.torsion>
0.6254

> <Gold.PLP.Chemscore.Hbond>
1.7040

> <Gold.PLP.Chemscore.CHOScore>
0.0000

> <Gold.PLP.Chemscore.Metal>
0.0000

> <Gold.Chemscore.Hbonds>
donor molecule, donor type, donor heavy atom, donor atom, acceptor molecule, acceptor atom, score
      L1  H     7    30       P1  7957  1.00
      P1  H  7989  7998       L1     7  0.40

> <Gold.PLP.Chemscore.Internal.Correction>
0.0333

> <Gold.Rescore>
     Score         DG    S(hbond)    S(metal)    S(lipo)     H(rot)  DE(clash)    DE(int)     intcor
     15.99     -17.91       1.34        0.00     122.33       2.48       0.41       1.52       ----

> <Gold.Chemscore.Fitness>
15.9862

> <Gold.Chemscore.DG>
-17.9140

> <Gold.Chemscore.ZeroCoef>
-5.4800

> <Gold.Chemscore.Hbond>
1.3365

> <Gold.Chemscore.Metal>
0.0000

> <Gold.Chemscore.Lipo>
122.3317

> <Gold.Chemscore.Internal_Hbond>
0.0000

> <Gold.Chemscore.DEClash>
0.4071

> <Gold.Chemscore.DEInternal>
1.5207

> <Gold.Chemscore.Rot>
2.4777

> <Gold.Chemscore.Internal.Correction>
   9.000000E+99

> <Gold.Chemscore.Hbonds>
donor molecule, donor type, donor heavy atom, donor atom, acceptor molecule, acceptor atom, score
      L1  H     7    30       P1  7957  0.99
      P1  H  7989  7998       L1     7  0.12

> <Gold.Chemscore.Hbond.Weighted>
-4.4640

> <Gold.Chemscore.Metal.Weighted>
-0.0000

> <Gold.Chemscore.Lipo.Weighted>
-14.3128

> <Gold.Chemscore.Internal_Hbond.Weighted>
0.0000

> <Gold.Chemscore.DEClash.Weighted>
0.4071

> <Gold.Chemscore.DEInternal.Weighted>
1.5207

> <Gold.Chemscore.Rot.Weighted>
6.3428

> <Gold.Chemscore.Internal.Correction.Weighted>
   9.000000E+99

> <Gold.Protein.RotatedTorsions>
[ 6907 6896 6895 6894 ] final  156.96 input  -60.11 | X-H torsion
[ 7974 7965 7964 7962 ] final -117.09 input  175.53 | X-H torsion
[ 8008 7997 7996 7995 ] final  134.91 input   59.86 | X-H torsion
[ 10167 10162 10161 10158 ] final   83.24 input  -65.29 | X-H torsion
[ 10718 10713 10712 10709 ] final    0.71 input   66.30 | X-H torsion
[ 10763 10752 10751 10750 ] final   67.73 input  -60.55 | X-H torsion
[ 11005 11000 10999 10996 ] final -117.83 input  -57.11 | X-H torsion

> <Gold.Protein.ActiveResidues>
 VAL166  LYS551  ARG553  GLY616  TRP617  ASP618  TYR619  PRO620  LYS621  CYS622 
 ASP623  PHE694  ASN695  SER759  ASP760  ASP761  ALA762  ILE779  LEU786  VAL792 
 PHE793  MET794  SER795  GLU796  ALA797  LYS798  CYS799  TRP800  GLU811  SER814 

> <Gold.Protein.RotatedAtoms>
  152.0221  133.3902  159.4262 H   0  0  0  0  0  0  0  0  0  0  0  0  # atno 6907 bound_to 6896
  150.6889  134.3615  159.4961 H   0  0  0  0  0  0  0  0  0  0  0  0  # atno 6908 bound_to 6896
  152.1390  134.9077  160.0605 H   0  0  0  0  0  0  0  0  0  0  0  0  # atno 6909 bound_to 6896
  145.0892  140.8478  143.3992 H   0  0  0  0  0  0  0  0  0  0  0  0  # atno 7974 bound_to 7965
  156.3001  140.2484  156.3494 H   0  0  0  0  0  0  0  0  0  0  0  0  # atno 8008 bound_to 7997
  154.8980  140.0407  157.1896 H   0  0  0  0  0  0  0  0  0  0  0  0  # atno 8009 bound_to 7997
  154.8530  140.2909  155.5590 H   0  0  0  0  0  0  0  0  0  0  0  0  # atno 8010 bound_to 7997
  139.9205  144.6216  150.8445 H   0  0  0  0  0  0  0  0  0  0  0  0  # atno 10167 bound_to 10162
  156.8374  130.5509  149.5681 H   0  0  0  0  0  0  0  0  0  0  0  0  # atno 10718 bound_to 10713
  153.0200  135.5273  154.7024 H   0  0  0  0  0  0  0  0  0  0  0  0  # atno 10763 bound_to 10752
  154.6129  135.2880  155.0414 H   0  0  0  0  0  0  0  0  0  0  0  0  # atno 10764 bound_to 10752
  154.1429  135.6575  153.4998 H   0  0  0  0  0  0  0  0  0  0  0  0  # atno 10765 bound_to 10752
  141.0328  133.9955  157.3117 H   0  0  0  0  0  0  0  0  0  0  0  0  # atno 11005 bound_to 11000
  145.1086  139.2773  143.5649 LP  0  0  0  0  0  0  0  0  0  0  0  0  # atno 17320 bound_to 7965
  146.3531  140.0675  142.8625 LP  0  0  0  0  0  0  0  0  0  0  0  0  # atno 17321 bound_to 7965
  140.7663  143.3301  151.2430 LP  0  0  0  0  0  0  0  0  0  0  0  0  # atno 17342 bound_to 10162
  139.6866  143.9763  152.2837 LP  0  0  0  0  0  0  0  0  0  0  0  0  # atno 17343 bound_to 10162
  156.0900  130.5888  150.9716 LP  0  0  0  0  0  0  0  0  0  0  0  0  # atno 17370 bound_to 10713
  157.6374  131.0914  150.8320 LP  0  0  0  0  0  0  0  0  0  0  0  0  # atno 17371 bound_to 10713
  139.9219  135.0200  156.8097 LP  0  0  0  0  0  0  0  0  0  0  0  0  # atno 17394 bound_to 11000
  140.6376  133.9848  155.7692 LP  0  0  0  0  0  0  0  0  0  0  0  0  # atno 17395 bound_to 11000

$$$$
