AV-unprocessed.smi:1474|AV-procd|sdf|5975|dock10
  -GOLD-   22720 6 63D 1   1.00000     0.00000
 Structure written by MMmdl.
 43 44  0  0  0  0  0  0  0  0  1 V2000
  152.4082  144.5896  158.8820 C   0  0  0  0  0  0  0  0  0  0  0  0
  152.4201  143.1729  158.8718 O   0  0  0  0  0  0  0  0  0  0  0  0
  153.1025  142.6282  159.9890 C   0  0  0  0  0  0  0  0  0  0  0  0
  152.6719  141.1712  160.1820 C   0  0  0  0  0  0  0  0  0  0  0  0
  153.0280  140.4312  159.0182 O   0  0  0  0  0  0  0  0  0  0  0  0
  152.1871  140.4756  157.9254 C   0  0  0  0  0  0  0  0  0  0  0  0
  150.8872  140.9917  158.0977 C   0  0  0  0  0  0  0  0  0  0  0  0
  150.0219  141.0362  156.9882 C   0  0  0  0  0  0  0  0  0  0  0  0
  150.4819  140.5581  155.7420 C   0  0  0  0  0  0  0  0  0  0  0  0
  149.6060  140.5803  154.4973 C   0  0  0  0  0  0  0  0  0  0  0  0
  148.2066  140.9056  154.7544 N   0  0  0  0  0  0  0  0  0  0  0  0
  147.6618  142.1235  154.6068 C   0  0  0  0  0  0  0  0  0  0  0  0
  148.3069  143.1031  154.2319 O   0  0  0  0  0  0  0  0  0  0  0  0
  146.1563  142.2402  154.9125 C   0  0  1  0  0  0  0  0  0  0  0  0
  145.5637  140.9252  155.4524 C   0  0  0  0  0  0  0  0  0  0  0  0
  146.0309  140.5899  156.8816 C   0  0  0  0  0  0  0  0  0  0  0  0
  146.0425  141.7994  157.8288 C   0  0  0  0  0  0  0  0  0  0  0  0
  146.1071  141.6150  159.0420 O   0  0  0  0  0  0  0  0  0  0  0  0
  146.0244  143.0385  157.3071 N   0  0  0  0  0  0  0  0  0  0  0  0
  145.8336  143.3867  155.8974 C   0  0  0  0  0  0  0  0  0  0  0  0
  151.8022  140.0670  155.6706 C   0  0  0  0  0  0  0  0  0  0  0  0
  152.6384  140.0220  156.7295 N   0  0  0  0  0  0  0  0  0  0  0  0
  151.8709  144.9580  158.0080 H   0  0  0  0  0  0  0  0  0  0  0  0
  153.4209  144.9936  158.8496 H   0  0  0  0  0  0  0  0  0  0  0  0
  151.9063  144.9730  159.7713 H   0  0  0  0  0  0  0  0  0  0  0  0
  154.1774  142.6688  159.8069 H   0  0  0  0  0  0  0  0  0  0  0  0
  152.9009  143.2069  160.8918 H   0  0  0  0  0  0  0  0  0  0  0  0
  153.1391  140.7532  161.0754 H   0  0  0  0  0  0  0  0  0  0  0  0
  151.5901  141.1358  160.3203 H   0  0  0  0  0  0  0  0  0  0  0  0
  150.5610  141.3485  159.0636 H   0  0  0  0  0  0  0  0  0  0  0  0
  149.0235  141.4324  157.0992 H   0  0  0  0  0  0  0  0  0  0  0  0
  150.0075  141.3266  153.8118 H   0  0  0  0  0  0  0  0  0  0  0  0
  149.6708  139.6214  153.9800 H   0  0  0  0  0  0  0  0  0  0  0  0
  147.6111  140.1517  155.0649 H   0  0  0  0  0  0  0  0  0  0  0  0
  145.6578  142.4721  153.9697 H   0  0  0  0  0  0  0  0  0  0  0  0
  144.4753  140.9982  155.4437 H   0  0  0  0  0  0  0  0  0  0  0  0
  145.8095  140.0987  154.7843 H   0  0  0  0  0  0  0  0  0  0  0  0
  145.3997  139.8069  157.3030 H   0  0  0  0  0  0  0  0  0  0  0  0
  147.0426  140.1842  156.8527 H   0  0  0  0  0  0  0  0  0  0  0  0
  146.0789  143.8113  157.9549 H   0  0  0  0  0  0  0  0  0  0  0  0
  146.4317  144.2706  155.6713 H   0  0  0  0  0  0  0  0  0  0  0  0
  144.7928  143.6871  155.7723 H   0  0  0  0  0  0  0  0  0  0  0  0
  152.2009  139.6968  154.7376 H   0  0  0  0  0  0  0  0  0  0  0  0
  1  2  1  0  0  0  0
  1 23  1  0  0  0  0
  1 24  1  0  0  0  0
  1 25  1  0  0  0  0
  2  3  1  0  0  0  0
  3  4  1  0  0  0  0
  3 26  1  0  0  0  0
  3 27  1  0  0  0  0
  4  5  1  0  0  0  0
  4 28  1  0  0  0  0
  4 29  1  0  0  0  0
  5  6  1  0  0  0  0
  6 22  1  0  0  0  0
  6  7  2  0  0  0  0
  7  8  1  0  0  0  0
  7 30  1  0  0  0  0
  8  9  2  0  0  0  0
  8 31  1  0  0  0  0
  9 10  1  0  0  0  0
  9 21  1  0  0  0  0
 10 11  1  0  0  0  0
 10 32  1  0  0  0  0
 10 33  1  0  0  0  0
 11 12  1  0  0  0  0
 11 34  1  0  0  0  0
 12 13  2  0  0  0  0
 12 14  1  0  0  0  0
 14 20  1  0  0  0  0
 14 15  1  0  0  0  0
 14 35  1  0  0  0  0
 15 16  1  0  0  0  0
 15 36  1  0  0  0  0
 15 37  1  0  0  0  0
 16 17  1  0  0  0  0
 16 38  1  0  0  0  0
 16 39  1  0  0  0  0
 17 18  2  0  0  0  0
 17 19  1  0  0  0  0
 19 20  1  0  0  0  0
 19 40  1  0  0  0  0
 20 41  1  0  0  0  0
 20 42  1  0  0  0  0
 21 22  2  0  0  0  0
 21 43  1  0  0  0  0
M  END
> <s_m_source_file>
AV-unprocessed.smi

> <i_m_source_file_index>
1474

> <i_lp_mmshare_version>
43012

> <i_f3d_flags>
0

> <s_epik_input>
W0NIM11PW0NIMl1bQ0gyXU9jMVtjSF1bY0hdYyhbY0hdbjEpW0NIMl1bTkhdQyg9TylbQ0BASF0yW0NIMl1bQ0gyXUMoPU8pW05IXVtDSDJdMg==

> <s_epik_cmdline>
J2VwaWtfcHl0aG9uJywgJy1waCcsICc3LjAnLCAnLXRuJywgJzgnLCAnLW1hJywgJzIwMCcsICctbWV0YWxfYmluZGluZycsICctaW1hZScsICc8aW5maWxlLm1hZT4nLCAnLW9tYWUnLCAnPG91dGZpbGUubWFlPic=

> <r_lp_tautomer_probability>
1

> <r_epik_Ionization_Penalty>
6.19599e-05

> <r_epik_Ionization_Penalty_Charging>
0

> <r_epik_Ionization_Penalty_Neutral>
6.19599e-05

> <r_epik_State_Penalty>
-0

> <r_epik_Charging_Adjusted_Penalty>
0

> <i_epik_Tot_Q>
0

> <i_epik_Tot_abs_Q>
0

> <r_epik_Metal_State_Penalty>
-0

> <b_epik_Metal_Only>
0

> <s_lp_Force_Field>
OPLS_2005

> <r_lp_Energy>
8.64292

> <b_lp_Chiralities_Consistent>
1

> <s_lp_Variant>
AV-unprocessed.smi:1474-2

> <Gold.Version>
5.8.1

> <Gold.Id.Protein>
6NUR|6NUR_protein|mol2

> <Gold.PLP.Fitness>
41.3762

> <Gold.PLP.PLP>
-34.5727

> <Gold.PLP.part.hbond>
-4.0000

> <Gold.PLP.part.metal>
0.0000

> <Gold.PLP.part.buried>
-4.2135

> <Gold.PLP.part.nonpolar>
-29.8468

> <Gold.PLP.part.repulsive>
4.1009

> <Gold.PLP.ligand.clash>
0.6016

> <Gold.PLP.ligand.torsion>
0.6990

> <Gold.PLP.Chemscore.Hbond>
2.8953

> <Gold.PLP.Chemscore.CHOScore>
0.0000

> <Gold.PLP.Chemscore.Metal>
0.0000

> <Gold.Chemscore.Hbonds>
donor molecule, donor type, donor heavy atom, donor atom, acceptor molecule, acceptor atom, score
      P1  H  6934  6946       L1    18  0.85
      P1  H  7997  8008       L1    22  1.00
      P1  H  8022  8030       L1    13  1.00

> <Gold.PLP.Chemscore.Internal.Correction>
0.1171

> <Gold.Rescore>
     Score         DG    S(hbond)    S(metal)    S(lipo)     H(rot)  DE(clash)    DE(int)     intcor
     11.18     -16.61       2.71        0.00      72.81       2.52       1.78       3.64       ----

> <Gold.Chemscore.Fitness>
11.1833

> <Gold.Chemscore.DG>
-16.6069

> <Gold.Chemscore.ZeroCoef>
-5.4800

> <Gold.Chemscore.Hbond>
2.7126

> <Gold.Chemscore.Metal>
0.0000

> <Gold.Chemscore.Lipo>
72.8054

> <Gold.Chemscore.Internal_Hbond>
0.0000

> <Gold.Chemscore.DEClash>
1.7803

> <Gold.Chemscore.DEInternal>
3.6433

> <Gold.Chemscore.Rot>
2.5201

> <Gold.Chemscore.Internal.Correction>
   9.000000E+99

> <Gold.Chemscore.Hbonds>
donor molecule, donor type, donor heavy atom, donor atom, acceptor molecule, acceptor atom, score
      P1  H  6934  6946       L1    18  0.82
      P1  H  7997  8008       L1    22  0.89
      P1  H  8022  8030       L1    13  0.98

> <Gold.Chemscore.Hbond.Weighted>
-9.0601

> <Gold.Chemscore.Metal.Weighted>
-0.0000

> <Gold.Chemscore.Lipo.Weighted>
-8.5182

> <Gold.Chemscore.Internal_Hbond.Weighted>
0.0000

> <Gold.Chemscore.DEClash.Weighted>
1.7803

> <Gold.Chemscore.DEInternal.Weighted>
3.6433

> <Gold.Chemscore.Rot.Weighted>
6.4514

> <Gold.Chemscore.Internal.Correction.Weighted>
   9.000000E+99

> <Gold.Protein.RotatedTorsions>
[ 6907 6896 6895 6894 ] final   53.62 input  -60.11 | X-H torsion
[ 7974 7965 7964 7962 ] final  118.38 input  175.53 | X-H torsion
[ 8008 7997 7996 7995 ] final  -53.50 input   59.86 | X-H torsion
[ 10167 10162 10161 10158 ] final -179.66 input  -65.29 | X-H torsion
[ 10718 10713 10712 10709 ] final   79.60 input   66.30 | X-H torsion
[ 10763 10752 10751 10750 ] final  -87.64 input  -60.55 | X-H torsion
[ 11005 11000 10999 10996 ] final  -84.81 input  -57.11 | X-H torsion

> <Gold.Protein.ActiveResidues>
 VAL166  LYS551  ARG553  GLY616  TRP617  ASP618  TYR619  PRO620  LYS621  CYS622 
 ASP623  PHE694  ASN695  SER759  ASP760  ASP761  ALA762  ILE779  LEU786  VAL792 
 PHE793  MET794  SER795  GLU796  ALA797  LYS798  CYS799  TRP800  GLU811  SER814 

> <Gold.Protein.RotatedAtoms>
  152.3355  134.7203  160.0277 H   0  0  0  0  0  0  0  0  0  0  0  0  # atno 6907 bound_to 6896
  151.7605  133.3328  159.3424 H   0  0  0  0  0  0  0  0  0  0  0  0  # atno 6908 bound_to 6896
  150.7448  134.6042  159.6097 H   0  0  0  0  0  0  0  0  0  0  0  0  # atno 6909 bound_to 6896
  145.1559  139.3183  143.4542 H   0  0  0  0  0  0  0  0  0  0  0  0  # atno 7974 bound_to 7965
  154.4135  140.1198  156.5163 H   0  0  0  0  0  0  0  0  0  0  0  0  # atno 8008 bound_to 7997
  155.6748  140.3496  155.4813 H   0  0  0  0  0  0  0  0  0  0  0  0  # atno 8009 bound_to 7997
  155.9602  140.1121  157.0892 H   0  0  0  0  0  0  0  0  0  0  0  0  # atno 8010 bound_to 7997
  139.5376  144.2453  152.0827 H   0  0  0  0  0  0  0  0  0  0  0  0  # atno 10167 bound_to 10162
  157.6781  130.9921  150.1956 H   0  0  0  0  0  0  0  0  0  0  0  0  # atno 10718 bound_to 10713
  154.6358  135.5406  153.7732 H   0  0  0  0  0  0  0  0  0  0  0  0  # atno 10763 bound_to 10752
  153.0308  135.6447  154.1233 H   0  0  0  0  0  0  0  0  0  0  0  0  # atno 10764 bound_to 10752
  154.1160  135.2923  155.3199 H   0  0  0  0  0  0  0  0  0  0  0  0  # atno 10765 bound_to 10752
  141.1647  133.7365  156.8922 H   0  0  0  0  0  0  0  0  0  0  0  0  # atno 11005 bound_to 11000
  146.3489  140.1651  142.8590 LP  0  0  0  0  0  0  0  0  0  0  0  0  # atno 17320 bound_to 7965
  145.0381  140.8924  143.5069 LP  0  0  0  0  0  0  0  0  0  0  0  0  # atno 17321 bound_to 7965
  140.1926  144.4736  150.6471 LP  0  0  0  0  0  0  0  0  0  0  0  0  # atno 17342 bound_to 10162
  140.6590  143.2246  151.5900 LP  0  0  0  0  0  0  0  0  0  0  0  0  # atno 17343 bound_to 10162
  156.2658  130.3716  149.8083 LP  0  0  0  0  0  0  0  0  0  0  0  0  # atno 17370 bound_to 10713
  156.5814  130.8467  151.3384 LP  0  0  0  0  0  0  0  0  0  0  0  0  # atno 17371 bound_to 10713
  140.1640  134.9146  157.2751 LP  0  0  0  0  0  0  0  0  0  0  0  0  # atno 17394 bound_to 11000
  140.2578  134.3607  155.7418 LP  0  0  0  0  0  0  0  0  0  0  0  0  # atno 17395 bound_to 11000

$$$$
