AV-unprocessed.smi:795|AV-procd|sdf|3764|dock10
  -GOLD-   22720 1203D 1   1.00000     0.00000
 Structure written by MMmdl.
 49 52  0  0  0  0  0  0  0  0  1 V2000
  146.3591  137.4290  162.8153 C   0  0  0  0  0  0  0  0  0  0  0  0
  146.9964  136.5651  161.7605 C   0  0  0  0  0  0  0  0  0  0  0  0
  147.6850  137.1732  160.8516 N   0  0  0  0  0  0  0  0  0  0  0  0
  148.3089  136.4778  159.8337 N   0  0  0  0  0  0  0  0  0  0  0  0
  149.0106  137.3423  158.8750 C   0  0  0  0  0  0  0  0  0  0  0  0
  148.0456  138.2498  158.1013 C   0  0  0  0  0  0  0  0  0  0  0  0
  147.1495  138.8573  158.6879 O   0  0  0  0  0  0  0  0  0  0  0  0
  148.2375  138.3217  156.7757 N   0  0  0  0  0  0  0  0  0  0  0  0
  147.4705  139.1510  155.8482 C   0  0  2  0  0  0  0  0  0  0  0  0
  148.0768  139.0914  154.4237 C   0  0  2  0  0  0  0  0  0  0  0  0
  149.4837  139.7365  154.4002 C   0  0  0  0  0  0  0  0  0  0  0  0
  149.3814  141.2108  154.8467 C   0  0  1  0  0  0  0  0  0  0  0  0
  148.4542  141.9778  153.8792 C   0  0  0  0  0  0  0  0  0  0  0  0
  147.0506  141.3346  153.8980 C   0  0  1  0  0  0  0  0  0  0  0  0
  147.1531  139.8587  153.4516 C   0  0  0  0  0  0  0  0  0  0  0  0
  146.4723  141.4067  155.3288 C   0  0  0  0  0  0  0  0  0  0  0  0
  147.3985  140.6365  156.2962 C   0  0  2  0  0  0  0  0  0  0  0  0
  148.8043  141.2812  156.2769 C   0  0  0  0  0  0  0  0  0  0  0  0
  148.2759  135.1216  159.6871 C   0  0  0  0  0  0  0  0  0  0  0  0
  148.8482  134.5394  158.7649 O   0  0  0  0  0  0  0  0  0  0  0  0
  147.4955  134.4386  160.7217 C   0  0  0  0  0  0  0  0  0  0  0  0
  147.4327  133.0174  160.6039 C   0  0  0  0  0  0  0  0  0  0  0  0
  147.4006  131.8633  160.5199 N   0  0  0  0  0  0  0  0  0  0  0  0
  146.8729  135.1118  161.7215 C   0  0  0  0  0  0  0  0  0  0  0  0
  146.0485  134.4505  162.8176 C   0  0  0  0  0  0  0  0  0  0  0  0
  146.7108  137.1508  163.8091 H   0  0  0  0  0  0  0  0  0  0  0  0
  145.2742  137.3239  162.7973 H   0  0  0  0  0  0  0  0  0  0  0  0
  146.5889  138.4857  162.6693 H   0  0  0  0  0  0  0  0  0  0  0  0
  149.7452  137.9521  159.4052 H   0  0  0  0  0  0  0  0  0  0  0  0
  149.5882  136.7556  158.1590 H   0  0  0  0  0  0  0  0  0  0  0  0
  148.9919  137.7804  156.3791 H   0  0  0  0  0  0  0  0  0  0  0  0
  146.4596  138.7402  155.8105 H   0  0  0  0  0  0  0  0  0  0  0  0
  148.1490  138.0521  154.1003 H   0  0  0  0  0  0  0  0  0  0  0  0
  150.1697  139.1917  155.0498 H   0  0  0  0  0  0  0  0  0  0  0  0
  149.9065  139.6773  153.3966 H   0  0  0  0  0  0  0  0  0  0  0  0
  150.3733  141.6634  154.8336 H   0  0  0  0  0  0  0  0  0  0  0  0
  148.3922  143.0275  154.1688 H   0  0  0  0  0  0  0  0  0  0  0  0
  148.8648  141.9606  152.8689 H   0  0  0  0  0  0  0  0  0  0  0  0
  146.3950  141.8753  153.2147 H   0  0  0  0  0  0  0  0  0  0  0  0
  147.5422  139.7986  152.4343 H   0  0  0  0  0  0  0  0  0  0  0  0
  146.1633  139.4011  153.4290 H   0  0  0  0  0  0  0  0  0  0  0  0
  146.3766  142.4461  155.6454 H   0  0  0  0  0  0  0  0  0  0  0  0
  145.4666  140.9853  155.3521 H   0  0  0  0  0  0  0  0  0  0  0  0
  146.9850  140.7049  157.3028 H   0  0  0  0  0  0  0  0  0  0  0  0
  149.4681  140.7770  156.9802 H   0  0  0  0  0  0  0  0  0  0  0  0
  148.7450  142.3190  156.6071 H   0  0  0  0  0  0  0  0  0  0  0  0
  145.9758  133.3716  162.6850 H   0  0  0  0  0  0  0  0  0  0  0  0
  145.0324  134.8463  162.8255 H   0  0  0  0  0  0  0  0  0  0  0  0
  146.4967  134.6326  163.7950 H   0  0  0  0  0  0  0  0  0  0  0  0
  1  2  1  0  0  0  0
  1 26  1  0  0  0  0
  1 27  1  0  0  0  0
  1 28  1  0  0  0  0
  2 24  1  0  0  0  0
  2  3  2  0  0  0  0
  3  4  1  0  0  0  0
  4  5  1  0  0  0  0
  4 19  1  0  0  0  0
  5  6  1  0  0  0  0
  5 29  1  0  0  0  0
  5 30  1  0  0  0  0
  6  7  2  0  0  0  0
  6  8  1  0  0  0  0
  8  9  1  0  0  0  0
  8 31  1  0  0  0  0
  9 17  1  0  0  0  0
  9 10  1  0  0  0  0
  9 32  1  0  0  0  0
 10 15  1  0  0  0  0
 10 11  1  0  0  0  0
 10 33  1  0  0  0  0
 11 12  1  0  0  0  0
 11 34  1  0  0  0  0
 11 35  1  0  0  0  0
 12 18  1  0  0  0  0
 12 13  1  0  0  0  0
 12 36  1  0  0  0  0
 13 14  1  0  0  0  0
 13 37  1  0  0  0  0
 13 38  1  0  0  0  0
 14 15  1  0  0  0  0
 14 16  1  0  0  0  0
 14 39  1  0  0  0  0
 15 40  1  0  0  0  0
 15 41  1  0  0  0  0
 16 17  1  0  0  0  0
 16 42  1  0  0  0  0
 16 43  1  0  0  0  0
 17 18  1  0  0  0  0
 17 44  1  0  0  0  0
 18 45  1  0  0  0  0
 18 46  1  0  0  0  0
 19 20  2  0  0  0  0
 19 21  1  0  0  0  0
 21 22  1  0  0  0  0
 21 24  2  0  0  0  0
 22 23  3  0  0  0  0
 24 25  1  0  0  0  0
 25 47  1  0  0  0  0
 25 48  1  0  0  0  0
 25 49  1  0  0  0  0
M  END
> <s_m_source_file>
AV-unprocessed.smi

> <i_m_source_file_index>
795

> <i_lp_mmshare_version>
43012

> <i_f3d_flags>
0

> <s_epik_input>
TiNDYyhjMVtDSDNdKWMoPU8pbihuYzFbQ0gzXSlbQ0gyXUMoPU8pW05IXVtDQEhdKFtDQEhdMjMpW0NAQEhdNFtDSDJdW0NASF0oW0NIMl0zKVtDSDJdW0NASF0oW0NIMl0yKVtDSDJdNA==

> <s_epik_cmdline>
J2VwaWtfcHl0aG9uJywgJy1waCcsICc3LjAnLCAnLXRuJywgJzgnLCAnLW1hJywgJzIwMCcsICctbWV0YWxfYmluZGluZycsICctaW1hZScsICc8aW5maWxlLm1hZT4nLCAnLW9tYWUnLCAnPG91dGZpbGUubWFlPic=

> <r_lp_tautomer_probability>
1

> <r_epik_Ionization_Penalty>
2.02301e-08

> <r_epik_Ionization_Penalty_Charging>
2.3673e-11

> <r_epik_Ionization_Penalty_Neutral>
2.02064e-08

> <r_epik_State_Penalty>
-0

> <r_epik_Charging_Adjusted_Penalty>
2.3673e-11

> <i_epik_Tot_Q>
0

> <i_epik_Tot_abs_Q>
0

> <r_epik_Metal_State_Penalty>
-0

> <b_epik_Metal_Only>
0

> <s_lp_Force_Field>
OPLS_2005

> <r_lp_Energy>
43.8057

> <b_lp_Chiralities_Consistent>
1

> <s_lp_Variant>
AV-unprocessed.smi:795-1

> <Gold.Version>
5.8.1

> <Gold.Id.Protein>
6NUR|6NUR_protein|mol2

> <Gold.PLP.Fitness>
45.3830

> <Gold.PLP.PLP>
-37.5606

> <Gold.PLP.part.hbond>
-4.0000

> <Gold.PLP.part.metal>
0.0000

> <Gold.PLP.part.buried>
-1.4591

> <Gold.PLP.part.nonpolar>
-32.4175

> <Gold.PLP.part.repulsive>
0.0174

> <Gold.PLP.ligand.clash>
0.0000

> <Gold.PLP.ligand.torsion>
0.2548

> <Gold.PLP.Chemscore.Hbond>
2.7760

> <Gold.PLP.Chemscore.CHOScore>
0.0000

> <Gold.PLP.Chemscore.Metal>
0.0000

> <Gold.Chemscore.Hbonds>
donor molecule, donor type, donor heavy atom, donor atom, acceptor molecule, acceptor atom, score
      P1  H  6896  6907       L1    20  0.95
      P1  H  6931  6943       L1     3  0.86
      P1  H  6934  6947       L1     3  0.91

> <Gold.PLP.Chemscore.Internal.Correction>
0.0039

> <Gold.Rescore>
     Score         DG    S(hbond)    S(metal)    S(lipo)     H(rot)  DE(clash)    DE(int)     intcor
     16.03     -18.69       1.90        0.00      90.35       1.44       0.39       2.27       ----

> <Gold.Chemscore.Fitness>
16.0319

> <Gold.Chemscore.DG>
-18.6904

> <Gold.Chemscore.ZeroCoef>
-5.4800

> <Gold.Chemscore.Hbond>
1.8970

> <Gold.Chemscore.Metal>
0.0000

> <Gold.Chemscore.Lipo>
90.3543

> <Gold.Chemscore.Internal_Hbond>
0.0000

> <Gold.Chemscore.DEClash>
0.3907

> <Gold.Chemscore.DEInternal>
2.2679

> <Gold.Chemscore.Rot>
1.4442

> <Gold.Chemscore.Internal.Correction>
   9.000000E+99

> <Gold.Chemscore.Hbonds>
donor molecule, donor type, donor heavy atom, donor atom, acceptor molecule, acceptor atom, score
      P1  H  6896  6907       L1    20  0.21
      P1  H  6931  6943       L1     3  0.28
      P1  H  6934  6947       L1     3  0.54

> <Gold.Chemscore.Hbond.Weighted>
-6.3361

> <Gold.Chemscore.Metal.Weighted>
-0.0000

> <Gold.Chemscore.Lipo.Weighted>
-10.5715

> <Gold.Chemscore.Internal_Hbond.Weighted>
0.0000

> <Gold.Chemscore.DEClash.Weighted>
0.3907

> <Gold.Chemscore.DEInternal.Weighted>
2.2679

> <Gold.Chemscore.Rot.Weighted>
3.6971

> <Gold.Chemscore.Internal.Correction.Weighted>
   9.000000E+99

> <Gold.Protein.RotatedTorsions>
[ 6907 6896 6895 6894 ] final  -75.40 input  -60.11 | X-H torsion
[ 7974 7965 7964 7962 ] final  -80.96 input  175.53 | X-H torsion
[ 8008 7997 7996 7995 ] final  105.86 input   59.86 | X-H torsion
[ 10167 10162 10161 10158 ] final  -55.16 input  -65.29 | X-H torsion
[ 10718 10713 10712 10709 ] final   30.00 input   66.30 | X-H torsion
[ 10763 10752 10751 10750 ] final  -31.98 input  -60.55 | X-H torsion
[ 11005 11000 10999 10996 ] final   68.39 input  -57.11 | X-H torsion

> <Gold.Protein.ActiveResidues>
 VAL166  LYS551  ARG553  GLY616  TRP617  ASP618  TYR619  PRO620  LYS621  CYS622 
 ASP623  PHE694  ASN695  SER759  ASP760  ASP761  ALA762  ILE779  LEU786  VAL792 
 PHE793  MET794  SER795  GLU796  ALA797  LYS798  CYS799  TRP800  GLU811  SER814 

> <Gold.Protein.RotatedAtoms>
  150.7060  134.4726  159.5432 H   0  0  0  0  0  0  0  0  0  0  0  0  # atno 6907 bound_to 6896
  152.2379  134.8255  160.0473 H   0  0  0  0  0  0  0  0  0  0  0  0  # atno 6908 bound_to 6896
  151.9047  133.3511  159.3879 H   0  0  0  0  0  0  0  0  0  0  0  0  # atno 6909 bound_to 6896
  145.5530  140.9494  143.1489 H   0  0  0  0  0  0  0  0  0  0  0  0  # atno 7974 bound_to 7965
  156.1695  140.3123  155.8948 H   0  0  0  0  0  0  0  0  0  0  0  0  # atno 8008 bound_to 7997
  155.3616  140.0477  157.3063 H   0  0  0  0  0  0  0  0  0  0  0  0  # atno 8009 bound_to 7997
  154.5226  140.2203  155.8958 H   0  0  0  0  0  0  0  0  0  0  0  0  # atno 8010 bound_to 7997
  140.6390  143.2497  151.5040 H   0  0  0  0  0  0  0  0  0  0  0  0  # atno 10167 bound_to 10162
  157.2538  130.7128  149.6419 H   0  0  0  0  0  0  0  0  0  0  0  0  # atno 10718 bound_to 10713
  153.8063  135.6886  153.4848 H   0  0  0  0  0  0  0  0  0  0  0  0  # atno 10763 bound_to 10752
  153.1657  135.4562  154.9832 H   0  0  0  0  0  0  0  0  0  0  0  0  # atno 10764 bound_to 10752
  154.7986  135.3329  154.7547 H   0  0  0  0  0  0  0  0  0  0  0  0  # atno 10765 bound_to 10752
  139.9714  134.6893  156.0439 H   0  0  0  0  0  0  0  0  0  0  0  0  # atno 11005 bound_to 11000
  144.7520  139.7169  143.7269 LP  0  0  0  0  0  0  0  0  0  0  0  0  # atno 17320 bound_to 7965
  146.1904  139.5141  142.9809 LP  0  0  0  0  0  0  0  0  0  0  0  0  # atno 17321 bound_to 7965
  139.5600  144.2181  152.1675 LP  0  0  0  0  0  0  0  0  0  0  0  0  # atno 17342 bound_to 10162
  140.1446  144.5171  150.6723 LP  0  0  0  0  0  0  0  0  0  0  0  0  # atno 17343 bound_to 10162
  155.9665  130.4419  150.5359 LP  0  0  0  0  0  0  0  0  0  0  0  0  # atno 17370 bound_to 10713
  157.3249  131.0689  151.1904 LP  0  0  0  0  0  0  0  0  0  0  0  0  # atno 17371 bound_to 10713
  141.1394  133.6568  156.3685 LP  0  0  0  0  0  0  0  0  0  0  0  0  # atno 17394 bound_to 11000
  140.5285  134.6236  157.5342 LP  0  0  0  0  0  0  0  0  0  0  0  0  # atno 17395 bound_to 11000

$$$$
