AV-unprocessed.smi:561|AV-procd|sdf|2938|dock5
  -GOLD-   2262023433D 1   1.00000     0.00000
 Structure written by MMmdl.
 36 37  0  0  0  0  0  0  0  0  1 V2000
  145.8942  133.3883  154.2975 C   0  0  0  0  0  0  0  0  0  0  0  0
  146.1313  134.3020  153.0879 C   0  0  2  0  0  0  0  0  0  0  0  0
  146.5956  133.4976  151.8561 C   0  0  0  0  0  0  0  0  0  0  0  0
  145.4867  132.9701  151.0820 N   0  0  0  0  0  0  0  0  0  0  0  0
  144.1598  133.3777  151.1341 C   0  0  0  0  0  0  0  0  0  0  0  0
  143.4722  132.5922  150.2371 C   0  0  0  0  0  0  0  0  0  0  0  0
  144.3512  131.7042  149.6213 N   0  0  0  0  0  0  0  0  0  0  0  0
  145.5249  131.9880  150.1711 C   0  0  0  0  0  0  0  0  0  0  0  0
  147.1233  135.3157  153.4439 N   0  0  0  0  0  0  0  0  0  0  0  0
  147.0121  136.2112  154.4432 C   0  0  0  0  0  0  0  0  0  0  0  0
  146.0500  136.2471  155.2108 O   0  0  0  0  0  0  0  0  0  0  0  0
  148.1249  137.1896  154.5650 C   0  0  0  0  0  0  0  0  0  0  0  0
  147.9691  138.4054  154.1428 N   0  0  0  0  0  0  0  0  0  0  0  0
  148.9666  139.3525  154.2535 N   0  0  0  0  0  0  0  0  0  0  0  0
  148.5408  140.7257  153.9903 C   0  0  0  0  0  0  0  0  0  0  0  0
  150.2601  139.0784  154.5557 C   0  0  0  0  0  0  0  0  0  0  0  0
  151.1339  139.9384  154.6675 O   0  0  0  0  0  0  0  0  0  0  0  0
  150.6215  137.6006  154.7305 C   0  0  0  0  0  0  0  0  0  0  0  0
  149.4239  136.7611  155.2179 C   0  0  0  0  0  0  0  0  0  0  0  0
  145.1416  132.6312  154.0751 H   0  0  0  0  0  0  0  0  0  0  0  0
  145.5417  133.9586  155.1576 H   0  0  0  0  0  0  0  0  0  0  0  0
  146.8087  132.8718  154.5915 H   0  0  0  0  0  0  0  0  0  0  0  0
  145.1776  134.7781  152.8529 H   0  0  0  0  0  0  0  0  0  0  0  0
  147.2146  134.1164  151.2048 H   0  0  0  0  0  0  0  0  0  0  0  0
  147.2156  132.6565  152.1690 H   0  0  0  0  0  0  0  0  0  0  0  0
  143.8233  134.1658  151.7915 H   0  0  0  0  0  0  0  0  0  0  0  0
  142.4210  132.5981  149.9894 H   0  0  0  0  0  0  0  0  0  0  0  0
  146.4331  131.4650  149.9095 H   0  0  0  0  0  0  0  0  0  0  0  0
  147.9501  135.3627  152.8658 H   0  0  0  0  0  0  0  0  0  0  0  0
  149.1095  141.1544  153.1637 H   0  0  0  0  0  0  0  0  0  0  0  0
  148.6966  141.3496  154.8716 H   0  0  0  0  0  0  0  0  0  0  0  0
  147.4831  140.7841  153.7277 H   0  0  0  0  0  0  0  0  0  0  0  0
  150.9596  137.2297  153.7622 H   0  0  0  0  0  0  0  0  0  0  0  0
  151.4619  137.4974  155.4177 H   0  0  0  0  0  0  0  0  0  0  0  0
  149.3263  136.8457  156.3008 H   0  0  0  0  0  0  0  0  0  0  0  0
  149.6318  135.7109  155.0091 H   0  0  0  0  0  0  0  0  0  0  0  0
  1  2  1  0  0  0  0
  1 20  1  0  0  0  0
  1 21  1  0  0  0  0
  1 22  1  0  0  0  0
  2  3  1  0  0  0  0
  2  9  1  0  0  0  0
  2 23  1  0  0  0  0
  3  4  1  0  0  0  0
  3 24  1  0  0  0  0
  3 25  1  0  0  0  0
  4  8  1  0  0  0  0
  4  5  1  0  0  0  0
  5  6  2  0  0  0  0
  5 26  1  0  0  0  0
  6  7  1  0  0  0  0
  6 27  1  0  0  0  0
  7  8  2  0  0  0  0
  8 28  1  0  0  0  0
  9 10  1  0  0  0  0
  9 29  1  0  0  0  0
 10 11  2  0  0  0  0
 10 12  1  0  0  0  0
 12 19  1  0  0  0  0
 12 13  2  0  0  0  0
 13 14  1  0  0  0  0
 14 15  1  0  0  0  0
 14 16  1  0  0  0  0
 15 30  1  0  0  0  0
 15 31  1  0  0  0  0
 15 32  1  0  0  0  0
 16 17  2  0  0  0  0
 16 18  1  0  0  0  0
 18 19  1  0  0  0  0
 18 33  1  0  0  0  0
 18 34  1  0  0  0  0
 19 35  1  0  0  0  0
 19 36  1  0  0  0  0
M  END
> <s_m_source_file>
AV-unprocessed.smi

> <i_m_source_file_index>
561

> <i_lp_mmshare_version>
43012

> <i_f3d_flags>
0

> <s_epik_input>
W2NIXTFuW2NIXVtjSF1uMVtDSDJdW0NAQEhdKFtDSDNdKVtOSF1DKD1PKUMyPU5OKFtDSDNdKUMoPU8pW0NIMl1bQ0gyXTI=

> <s_epik_cmdline>
J2VwaWtfcHl0aG9uJywgJy1waCcsICc3LjAnLCAnLXRuJywgJzgnLCAnLW1hJywgJzIwMCcsICctbWV0YWxfYmluZGluZycsICctaW1hZScsICc8aW5maWxlLm1hZT4nLCAnLW9tYWUnLCAnPG91dGZpbGUubWFlPic=

> <r_lp_tautomer_probability>
1

> <r_epik_Ionization_Penalty>
0.46798

> <r_epik_Ionization_Penalty_Charging>
0.467902

> <r_epik_Ionization_Penalty_Neutral>
7.78263e-05

> <r_epik_State_Penalty>
0.47192

> <r_epik_Charging_Adjusted_Penalty>
0.939822

> <i_epik_Tot_Q>
0

> <i_epik_Tot_abs_Q>
0

> <r_epik_Metal_State_Penalty>
0.280825

> <b_epik_Metal_Only>
0

> <s_epik_Chemistry_Notes>
This compound has an imine and may undergo hydrolysis.

> <s_lp_Force_Field>
OPLS_2005

> <r_lp_Energy>
18.1828

> <b_lp_Chiralities_Consistent>
1

> <s_lp_Variant>
AV-unprocessed.smi:561-3

> <Gold.Version>
5.8.1

> <Gold.Id.Protein>
6NUR|6NUR_protein|mol2

> <Gold.PLP.Fitness>
39.0029

> <Gold.PLP.PLP>
-28.2761

> <Gold.PLP.part.hbond>
-3.0000

> <Gold.PLP.part.metal>
0.0000

> <Gold.PLP.part.buried>
-2.7625

> <Gold.PLP.part.nonpolar>
-23.9551

> <Gold.PLP.part.repulsive>
0.4086

> <Gold.PLP.ligand.clash>
0.0000

> <Gold.PLP.ligand.torsion>
1.9807

> <Gold.PLP.Chemscore.Hbond>
2.4326

> <Gold.PLP.Chemscore.CHOScore>
2.4498

> <Gold.PLP.Chemscore.Metal>
0.0000

> <Gold.Chemscore.Hbonds>
donor molecule, donor type, donor heavy atom, donor atom, acceptor molecule, acceptor atom, score
      L1  H     9    29       P1  7948  1.00
      P1  H  7989  7998       L1    17  1.00
      P1  H 10785 10796       L1     7  0.44
      L1  C     6    27       P1 10186  1.00
      L1  C     6    27       P1 10952  0.35
      L1  C     8    28       P1 10747  0.76

> <Gold.PLP.Chemscore.Internal.Correction>
0.0409

> <Gold.Rescore>
     Score         DG    S(hbond)    S(metal)    S(lipo)     H(rot)  DE(clash)    DE(int)     intcor
     12.97     -15.15       2.66        0.00      43.95       1.71       0.01       2.16       ----

> <Gold.Chemscore.Fitness>
12.9742

> <Gold.Chemscore.DG>
-15.1458

> <Gold.Chemscore.ZeroCoef>
-5.4800

> <Gold.Chemscore.Hbond>
2.6641

> <Gold.Chemscore.Metal>
0.0000

> <Gold.Chemscore.Lipo>
43.9469

> <Gold.Chemscore.Internal_Hbond>
0.0000

> <Gold.Chemscore.DEClash>
0.0149

> <Gold.Chemscore.DEInternal>
2.1568

> <Gold.Chemscore.Rot>
1.7086

> <Gold.Chemscore.Internal.Correction>
   9.000000E+99

> <Gold.Chemscore.Hbonds>
donor molecule, donor type, donor heavy atom, donor atom, acceptor molecule, acceptor atom, score
      L1  H     9    29       P1  7948  0.95
      P1  H  7989  7998       L1    17  0.97
      P1  H 10785 10796       L1     7  0.30

> <Gold.Chemscore.Hbond.Weighted>
-8.8979

> <Gold.Chemscore.Metal.Weighted>
-0.0000

> <Gold.Chemscore.Lipo.Weighted>
-5.1418

> <Gold.Chemscore.Internal_Hbond.Weighted>
0.0000

> <Gold.Chemscore.DEClash.Weighted>
0.0149

> <Gold.Chemscore.DEInternal.Weighted>
2.1568

> <Gold.Chemscore.Rot.Weighted>
4.3739

> <Gold.Chemscore.Internal.Correction.Weighted>
   9.000000E+99

> <Gold.Protein.RotatedTorsions>
[ 6907 6896 6895 6894 ] final -121.90 input  -60.11 | X-H torsion
[ 7974 7965 7964 7962 ] final  -38.90 input  175.53 | X-H torsion
[ 8008 7997 7996 7995 ] final  178.65 input   59.86 | X-H torsion
[ 10167 10162 10161 10158 ] final -169.02 input  -65.29 | X-H torsion
[ 10718 10713 10712 10709 ] final   59.71 input   66.30 | X-H torsion
[ 10763 10752 10751 10750 ] final   30.35 input  -60.55 | X-H torsion
[ 11005 11000 10999 10996 ] final  -42.77 input  -57.11 | X-H torsion

> <Gold.Protein.ActiveResidues>
 VAL166  LYS551  ARG553  GLY616  TRP617  ASP618  TYR619  PRO620  LYS621  CYS622 
 ASP623  PHE694  ASN695  SER759  ASP760  ASP761  ALA762  ILE779  LEU786  VAL792 
 PHE793  MET794  SER795  GLU796  ALA797  LYS798  CYS799  TRP800  GLU811  SER814 

> <Gold.Protein.RotatedAtoms>
  150.8525  133.7764  159.3020 H   0  0  0  0  0  0  0  0  0  0  0  0  # atno 6907 bound_to 6896
  151.5432  135.1066  159.9941 H   0  0  0  0  0  0  0  0  0  0  0  0  # atno 6908 bound_to 6896
  152.4564  133.7689  159.6844 H   0  0  0  0  0  0  0  0  0  0  0  0  # atno 6909 bound_to 6896
  146.0445  140.6565  142.9071 H   0  0  0  0  0  0  0  0  0  0  0  0  # atno 7974 bound_to 7965
  156.0523  140.1328  157.0036 H   0  0  0  0  0  0  0  0  0  0  0  0  # atno 8008 bound_to 7997
  154.4441  140.1008  156.6465 H   0  0  0  0  0  0  0  0  0  0  0  0  # atno 8009 bound_to 7997
  155.5504  140.3463  155.4469 H   0  0  0  0  0  0  0  0  0  0  0  0  # atno 8010 bound_to 7997
  139.5949  144.1134  152.1677 H   0  0  0  0  0  0  0  0  0  0  0  0  # atno 10167 bound_to 10162
  157.5697  130.8898  149.9246 H   0  0  0  0  0  0  0  0  0  0  0  0  # atno 10718 bound_to 10713
  153.0377  135.6466  154.1031 H   0  0  0  0  0  0  0  0  0  0  0  0  # atno 10763 bound_to 10752
  154.0743  135.2878  155.3304 H   0  0  0  0  0  0  0  0  0  0  0  0  # atno 10764 bound_to 10752
  154.6573  135.5404  153.8039 H   0  0  0  0  0  0  0  0  0  0  0  0  # atno 10765 bound_to 10752
  141.0339  133.6808  156.2641 H   0  0  0  0  0  0  0  0  0  0  0  0  # atno 11005 bound_to 11000
  144.7091  140.3968  143.7095 LP  0  0  0  0  0  0  0  0  0  0  0  0  # atno 17320 bound_to 7965
  145.6829  139.1622  143.2690 LP  0  0  0  0  0  0  0  0  0  0  0  0  # atno 17321 bound_to 7965
  140.0717  144.5774  150.7187 LP  0  0  0  0  0  0  0  0  0  0  0  0  # atno 17342 bound_to 10162
  140.7203  143.2583  151.4299 LP  0  0  0  0  0  0  0  0  0  0  0  0  # atno 17343 bound_to 10162
  156.0743  130.3681  150.0711 LP  0  0  0  0  0  0  0  0  0  0  0  0  # atno 17370 bound_to 10713
  156.8865  130.9574  151.3593 LP  0  0  0  0  0  0  0  0  0  0  0  0  # atno 17371 bound_to 10713
  140.6358  134.5217  157.5564 LP  0  0  0  0  0  0  0  0  0  0  0  0  # atno 17394 bound_to 11000
  139.9227  134.8118  156.1163 LP  0  0  0  0  0  0  0  0  0  0  0  0  # atno 17395 bound_to 11000

$$$$
