AV-unprocessed.smi:1954|AV-procd|sdf|7897|dock2
  -GOLD-   2272010 53D 1   1.00000     0.00000
 Structure written by MMmdl.
 45 47  0  0  0  0  0  0  0  0  2 V2000
  144.8534  135.7513  153.5797 O   0  0  0  0  0  0  0  0  0  0  0  0
  145.9263  135.8391  152.9827 C   0  0  0  0  0  0  0  0  0  0  0  0
  146.8454  136.7768  153.2535 N   0  0  0  0  0  0  0  0  0  0  0  0
  146.7307  137.8247  154.2680 C   0  0  0  0  0  0  0  0  0  0  0  0
  147.9478  138.8031  154.2881 C   0  0  2  0  0  0  0  0  0  0  0  0
  149.2128  137.9849  154.3830 N   0  3  0  0  0  0  0  0  0  0  0  0
  150.4733  138.7773  154.3249 C   0  0  0  0  0  0  0  0  0  0  0  0
  151.6913  137.8509  154.1919 C   0  0  0  0  0  0  0  0  0  0  0  0
  151.7214  136.9625  155.2995 O   0  0  0  0  0  0  0  0  0  0  0  0
  150.5740  136.1258  155.3290 C   0  0  0  0  0  0  0  0  0  0  0  0
  149.2974  136.9741  155.4718 C   0  0  0  0  0  0  0  0  0  0  0  0
  147.7749  139.8305  155.4431 C   0  0  0  0  0  0  0  0  0  0  0  0
  146.6371  140.7866  155.0745 C   0  0  0  0  0  0  0  0  0  0  0  0
  146.7123  141.0292  153.2838 S   0  0  0  0  0  0  0  0  0  0  0  0
  147.9230  139.7017  153.0289 C   0  0  0  0  0  0  0  0  0  0  0  0
  146.3355  135.0292  151.9910 N   0  0  0  0  0  0  0  0  0  0  0  0
  145.6531  133.9304  151.4032 C   0  0  0  0  0  0  0  0  0  0  0  0
  146.3648  132.9163  150.7106 C   0  0  0  0  0  0  0  0  0  0  0  0
  145.6580  131.8267  150.1658 C   0  0  0  0  0  0  0  0  0  0  0  0
  144.2638  131.7677  150.3354 C   0  0  0  0  0  0  0  0  0  0  0  0
  143.6394  132.8053  151.0506 C   0  0  0  0  0  0  0  0  0  0  0  0
  144.3135  133.8512  151.5745 N   0  0  0  0  0  0  0  0  0  0  0  0
  147.7015  136.7631  152.7180 H   0  0  0  0  0  0  0  0  0  0  0  0
  145.7921  138.3637  154.1382 H   0  0  0  0  0  0  0  0  0  0  0  0
  146.6191  137.3209  155.2274 H   0  0  0  0  0  0  0  0  0  0  0  0
  150.4606  139.4673  153.4826 H   0  0  0  0  0  0  0  0  0  0  0  0
  150.5855  139.3779  155.2282 H   0  0  0  0  0  0  0  0  0  0  0  0
  151.6636  137.2924  153.2549 H   0  0  0  0  0  0  0  0  0  0  0  0
  152.6099  138.4380  154.1861 H   0  0  0  0  0  0  0  0  0  0  0  0
  150.5333  135.5175  154.4235 H   0  0  0  0  0  0  0  0  0  0  0  0
  150.6615  135.4366  156.1690 H   0  0  0  0  0  0  0  0  0  0  0  0
  149.2767  137.4711  156.4427 H   0  0  0  0  0  0  0  0  0  0  0  0
  148.4552  136.2844  155.4308 H   0  0  0  0  0  0  0  0  0  0  0  0
  147.6114  139.3621  156.4140 H   0  0  0  0  0  0  0  0  0  0  0  0
  148.6600  140.4586  155.5404 H   0  0  0  0  0  0  0  0  0  0  0  0
  145.6694  140.3562  155.3320 H   0  0  0  0  0  0  0  0  0  0  0  0
  146.7207  141.7393  155.5980 H   0  0  0  0  0  0  0  0  0  0  0  0
  148.8913  140.1830  152.8863 H   0  0  0  0  0  0  0  0  0  0  0  0
  147.6933  139.1494  152.1172 H   0  0  0  0  0  0  0  0  0  0  0  0
  147.2844  135.1616  151.6732 H   0  0  0  0  0  0  0  0  0  0  0  0
  147.4377  132.9460  150.5986 H   0  0  0  0  0  0  0  0  0  0  0  0
  146.1792  131.0458  149.6324 H   0  0  0  0  0  0  0  0  0  0  0  0
  143.6891  130.9465  149.9332 H   0  0  0  0  0  0  0  0  0  0  0  0
  142.5712  132.7944  151.2099 H   0  0  0  0  0  0  0  0  0  0  0  0
  149.2103  137.4335  153.5364 H   0  0  0  0  0  0  0  0  0  0  0  0
  1  2  2  0  0  0  0
  2  3  1  0  0  0  0
  2 16  1  0  0  0  0
  3  4  1  0  0  0  0
  3 23  1  0  0  0  0
  4  5  1  0  0  0  0
  4 24  1  0  0  0  0
  4 25  1  0  0  0  0
  5 15  1  0  0  0  0
  5  6  1  0  0  0  0
  5 12  1  0  0  0  0
  6 11  1  0  0  0  0
  6  7  1  0  0  0  0
  6 45  1  0  0  0  0
  7  8  1  0  0  0  0
  7 26  1  0  0  0  0
  7 27  1  0  0  0  0
  8  9  1  0  0  0  0
  8 28  1  0  0  0  0
  8 29  1  0  0  0  0
  9 10  1  0  0  0  0
 10 11  1  0  0  0  0
 10 30  1  0  0  0  0
 10 31  1  0  0  0  0
 11 32  1  0  0  0  0
 11 33  1  0  0  0  0
 12 13  1  0  0  0  0
 12 34  1  0  0  0  0
 12 35  1  0  0  0  0
 13 14  1  0  0  0  0
 13 36  1  0  0  0  0
 13 37  1  0  0  0  0
 14 15  1  0  0  0  0
 15 38  1  0  0  0  0
 15 39  1  0  0  0  0
 16 17  1  0  0  0  0
 16 40  1  0  0  0  0
 17 22  1  0  0  0  0
 17 18  2  0  0  0  0
 18 19  1  0  0  0  0
 18 41  1  0  0  0  0
 19 20  2  0  0  0  0
 19 42  1  0  0  0  0
 20 21  1  0  0  0  0
 20 43  1  0  0  0  0
 21 22  2  0  0  0  0
 21 44  1  0  0  0  0
M  CHG  1   6   1
M  END
> <s_m_source_file>
AV-unprocessed.smi

> <i_m_source_file_index>
1954

> <i_lp_mmshare_version>
43012

> <i_f3d_flags>
0

> <s_epik_input>
bjFbY0hdW2NIXVtjSF1bY0hdYzFbTkhdQyg9TylbTkhdW0NIMl1bQ0BdMihbQ0gyXVtDSDJdU1tDSDJdMilOM1tDSDJdW0NIMl1PW0NIMl1bQ0gyXTM=

> <s_epik_cmdline>
J2VwaWtfcHl0aG9uJywgJy1waCcsICc3LjAnLCAnLXRuJywgJzgnLCAnLW1hJywgJzIwMCcsICctbWV0YWxfYmluZGluZycsICctaW1hZScsICc8aW5maWxlLm1hZT4nLCAnLW9tYWUnLCAnPG91dGZpbGUubWFlPic=

> <r_epik_Ionization_Penalty>
2.03222

> <r_epik_Ionization_Penalty_Charging>
2.03219

> <r_epik_Ionization_Penalty_Neutral>
3.25833e-05

> <r_epik_State_Penalty>
2.16328

> <r_epik_Charging_Adjusted_Penalty>
4.19546

> <i_epik_Tot_Q>
1

> <i_epik_Tot_abs_Q>
1

> <r_epik_Metal_State_Penalty>
2.16328

> <b_epik_Metal_Only>
0

> <s_lp_Force_Field>
OPLS_2005

> <r_lp_Energy>
46.5202

> <b_lp_Chiralities_Consistent>
1

> <s_lp_Variant>
AV-unprocessed.smi:1954-4

> <Gold.Version>
5.8.1

> <Gold.Id.Protein>
6NUR|6NUR_protein|mol2

> <Gold.PLP.Fitness>
49.0071

> <Gold.PLP.PLP>
-31.7677

> <Gold.PLP.part.hbond>
-3.9707

> <Gold.PLP.part.metal>
0.0000

> <Gold.PLP.part.buried>
-0.1441

> <Gold.PLP.part.nonpolar>
-29.1611

> <Gold.PLP.part.repulsive>
0.3712

> <Gold.PLP.ligand.clash>
0.0000

> <Gold.PLP.ligand.torsion>
0.2058

> <Gold.PLP.Chemscore.Hbond>
4.9265

> <Gold.PLP.Chemscore.CHOScore>
0.9129

> <Gold.PLP.Chemscore.Metal>
0.0000

> <Gold.Chemscore.Hbonds>
donor molecule, donor type, donor heavy atom, donor atom, acceptor molecule, acceptor atom, score
      L1  H     3    23       P1  7948  1.00
      L1  H     6    45       P1  7948  1.89
      L1  H    16    40       P1  7948  0.96
      P1  H 10752 10764       L1     9  0.80
      L1  C    21    44       P1 10186  0.26

> <Gold.PLP.Chemscore.Internal.Correction>
0.1328

> <Gold.Rescore>
     Score         DG    S(hbond)    S(metal)    S(lipo)     H(rot)  DE(clash)    DE(int)     intcor
     19.06     -22.56       3.05        0.00      92.49       1.54       1.94       1.56       ----

> <Gold.Chemscore.Fitness>
19.0615

> <Gold.Chemscore.DG>
-22.5615

> <Gold.Chemscore.ZeroCoef>
-5.4800

> <Gold.Chemscore.Hbond>
3.0511

> <Gold.Chemscore.Metal>
0.0000

> <Gold.Chemscore.Lipo>
92.4939

> <Gold.Chemscore.Internal_Hbond>
0.0000

> <Gold.Chemscore.DEClash>
1.9390

> <Gold.Chemscore.DEInternal>
1.5610

> <Gold.Chemscore.Rot>
1.5355

> <Gold.Chemscore.Internal.Correction>
   9.000000E+99

> <Gold.Chemscore.Hbonds>
donor molecule, donor type, donor heavy atom, donor atom, acceptor molecule, acceptor atom, score
      L1  H     3    23       P1  7948  0.98
      L1  H     6    45       P1  7948  0.90
      L1  H    16    40       P1  7948  0.85
      P1  H 10752 10764       L1     9  0.05

> <Gold.Chemscore.Hbond.Weighted>
-10.1906

> <Gold.Chemscore.Metal.Weighted>
-0.0000

> <Gold.Chemscore.Lipo.Weighted>
-10.8218

> <Gold.Chemscore.Internal_Hbond.Weighted>
0.0000

> <Gold.Chemscore.DEClash.Weighted>
1.9390

> <Gold.Chemscore.DEInternal.Weighted>
1.5610

> <Gold.Chemscore.Rot.Weighted>
3.9309

> <Gold.Chemscore.Internal.Correction.Weighted>
   9.000000E+99

> <Gold.Protein.RotatedTorsions>
[ 6907 6896 6895 6894 ] final    1.47 input  -60.11 | X-H torsion
[ 7974 7965 7964 7962 ] final -109.79 input  175.53 | X-H torsion
[ 8008 7997 7996 7995 ] final  143.25 input   59.86 | X-H torsion
[ 10167 10162 10161 10158 ] final  -32.45 input  -65.29 | X-H torsion
[ 10718 10713 10712 10709 ] final  175.52 input   66.30 | X-H torsion
[ 10763 10752 10751 10750 ] final  -49.21 input  -60.55 | X-H torsion
[ 11005 11000 10999 10996 ] final    0.13 input  -57.11 | X-H torsion

> <Gold.Protein.ActiveResidues>
 VAL166  LYS551  ARG553  GLY616  TRP617  ASP618  TYR619  PRO620  LYS621  CYS622 
 ASP623  PHE694  ASN695  SER759  ASP760  ASP761  ALA762  ILE779  LEU786  VAL792 
 PHE793  MET794  SER795  GLU796  ALA797  LYS798  CYS799  TRP800  GLU811  SER814 

> <Gold.Protein.RotatedAtoms>
  151.5931  135.1052  160.0043 H   0  0  0  0  0  0  0  0  0  0  0  0  # atno 6907 bound_to 6896
  152.4296  133.7250  159.6566 H   0  0  0  0  0  0  0  0  0  0  0  0  # atno 6908 bound_to 6896
  150.8187  133.8219  159.3171 H   0  0  0  0  0  0  0  0  0  0  0  0  # atno 6909 bound_to 6896
  145.1762  140.8949  143.3506 H   0  0  0  0  0  0  0  0  0  0  0  0  # atno 7974 bound_to 7965
  156.2934  140.2267  156.4860 H   0  0  0  0  0  0  0  0  0  0  0  0  # atno 8008 bound_to 7997
  154.7812  140.0460  157.1149 H   0  0  0  0  0  0  0  0  0  0  0  0  # atno 8009 bound_to 7997
  154.9757  140.3072  155.4972 H   0  0  0  0  0  0  0  0  0  0  0  0  # atno 8010 bound_to 7997
  140.7221  143.3694  151.1807 H   0  0  0  0  0  0  0  0  0  0  0  0  # atno 10167 bound_to 10162
  156.9336  130.9979  151.2982 H   0  0  0  0  0  0  0  0  0  0  0  0  # atno 10718 bound_to 10713
  154.0903  135.6578  153.4851 H   0  0  0  0  0  0  0  0  0  0  0  0  # atno 10763 bound_to 10752
  153.0324  135.5201  154.7387 H   0  0  0  0  0  0  0  0  0  0  0  0  # atno 10764 bound_to 10752
  154.6509  135.3001  154.9957 H   0  0  0  0  0  0  0  0  0  0  0  0  # atno 10765 bound_to 10752
  140.6299  133.9584  155.8269 H   0  0  0  0  0  0  0  0  0  0  0  0  # atno 11005 bound_to 11000
  145.0182  139.3448  143.6086 LP  0  0  0  0  0  0  0  0  0  0  0  0  # atno 17320 bound_to 7965
  146.3460  139.9472  142.8733 LP  0  0  0  0  0  0  0  0  0  0  0  0  # atno 17321 bound_to 7965
  139.7262  143.9144  152.3003 LP  0  0  0  0  0  0  0  0  0  0  0  0  # atno 17342 bound_to 10162
  139.8918  144.6961  150.8762 LP  0  0  0  0  0  0  0  0  0  0  0  0  # atno 17343 bound_to 10162
  157.5831  130.8390  149.8550 LP  0  0  0  0  0  0  0  0  0  0  0  0  # atno 17370 bound_to 10713
  156.0436  130.3733  150.1374 LP  0  0  0  0  0  0  0  0  0  0  0  0  # atno 17371 bound_to 10713
  141.0682  134.0244  157.3563 LP  0  0  0  0  0  0  0  0  0  0  0  0  # atno 17394 bound_to 11000
  139.9120  135.0191  156.7730 LP  0  0  0  0  0  0  0  0  0  0  0  0  # atno 17395 bound_to 11000

$$$$
