AV-unprocessed.smi:904|AV-procd|sdf|4098|dock6
  -GOLD-   22720 1593D 1   1.00000     0.00000
 Structure written by MMmdl.
 42 43  0  0  0  0  0  0  0  0  1 V2000
  153.2423  142.1101  162.7009 C   0  0  0  0  0  0  0  0  0  0  0  0
  152.8528  142.9016  161.4848 C   0  0  0  0  0  0  0  0  0  0  0  0
  152.4415  144.1499  161.6323 N   0  0  0  0  0  0  0  0  0  0  0  0
  152.1839  144.5782  160.3803 N   0  0  0  0  0  0  0  0  0  0  0  0
  151.7057  145.9318  160.1768 C   0  0  0  0  0  0  0  0  0  0  0  0
  152.4392  143.6001  159.4390 C   0  0  0  0  0  0  0  0  0  0  0  0
  152.2424  143.8308  157.9753 C   0  0  0  0  0  0  0  0  0  0  0  0
  152.8717  142.4925  160.1182 C   0  0  0  0  0  0  0  0  0  0  0  0
  153.2814  141.1515  159.5627 C   0  0  0  0  0  0  0  0  0  0  0  0
  152.1288  140.5549  158.7559 C   0  0  0  0  0  0  0  0  0  0  0  0
  150.9647  140.8220  159.0537 O   0  0  0  0  0  0  0  0  0  0  0  0
  152.4691  139.7520  157.7358 N   0  0  0  0  0  0  0  0  0  0  0  0
  151.5372  139.1024  156.8207 C   0  0  2  0  0  0  0  0  0  0  0  0
  151.7391  137.5739  156.8334 C   0  0  0  0  0  0  0  0  0  0  0  0
  150.8140  136.8740  155.8225 C   0  0  0  0  0  0  0  0  0  0  0  0
  150.9627  137.4454  154.3998 C   0  0  2  0  0  0  0  0  0  0  0  0
  152.2168  137.0791  153.8590 O   0  0  0  0  0  0  0  0  0  0  0  0
  150.8089  138.9781  154.3854 C   0  0  0  0  0  0  0  0  0  0  0  0
  151.7357  139.6667  155.4025 C   0  0  0  0  0  0  0  0  0  0  0  0
  154.3223  142.1314  162.8481 H   0  0  0  0  0  0  0  0  0  0  0  0
  152.9401  141.0673  162.6062 H   0  0  0  0  0  0  0  0  0  0  0  0
  152.7760  142.5050  163.6042 H   0  0  0  0  0  0  0  0  0  0  0  0
  150.8426  145.9218  159.5107 H   0  0  0  0  0  0  0  0  0  0  0  0
  152.4957  146.5346  159.7285 H   0  0  0  0  0  0  0  0  0  0  0  0
  151.4099  146.3824  161.1254 H   0  0  0  0  0  0  0  0  0  0  0  0
  152.6979  143.0355  157.3853 H   0  0  0  0  0  0  0  0  0  0  0  0
  152.6949  144.7727  157.6646 H   0  0  0  0  0  0  0  0  0  0  0  0
  151.1810  143.8665  157.7296 H   0  0  0  0  0  0  0  0  0  0  0  0
  154.1617  141.2338  158.9244 H   0  0  0  0  0  0  0  0  0  0  0  0
  153.5554  140.4576  160.3581 H   0  0  0  0  0  0  0  0  0  0  0  0
  153.4523  139.5930  157.5698 H   0  0  0  0  0  0  0  0  0  0  0  0
  150.5159  139.3272  157.1345 H   0  0  0  0  0  0  0  0  0  0  0  0
  152.7784  137.3367  156.6014 H   0  0  0  0  0  0  0  0  0  0  0  0
  151.5500  137.1778  157.8317 H   0  0  0  0  0  0  0  0  0  0  0  0
  151.0036  135.8001  155.8216 H   0  0  0  0  0  0  0  0  0  0  0  0
  149.7803  136.9986  156.1477 H   0  0  0  0  0  0  0  0  0  0  0  0
  150.1996  137.0053  153.7570 H   0  0  0  0  0  0  0  0  0  0  0  0
  152.1089  136.9148  152.9344 H   0  0  0  0  0  0  0  0  0  0  0  0
  150.9950  139.3679  153.3841 H   0  0  0  0  0  0  0  0  0  0  0  0
  149.7752  139.2330  154.6222 H   0  0  0  0  0  0  0  0  0  0  0  0
  151.5477  140.7410  155.3986 H   0  0  0  0  0  0  0  0  0  0  0  0
  152.7743  139.5366  155.0944 H   0  0  0  0  0  0  0  0  0  0  0  0
  1  2  1  0  0  0  0
  1 20  1  0  0  0  0
  1 21  1  0  0  0  0
  1 22  1  0  0  0  0
  2  8  1  0  0  0  0
  2  3  2  0  0  0  0
  3  4  1  0  0  0  0
  4  5  1  0  0  0  0
  4  6  1  0  0  0  0
  5 23  1  0  0  0  0
  5 24  1  0  0  0  0
  5 25  1  0  0  0  0
  6  7  1  0  0  0  0
  6  8  2  0  0  0  0
  7 26  1  0  0  0  0
  7 27  1  0  0  0  0
  7 28  1  0  0  0  0
  8  9  1  0  0  0  0
  9 10  1  0  0  0  0
  9 29  1  0  0  0  0
  9 30  1  0  0  0  0
 10 11  2  0  0  0  0
 10 12  1  0  0  0  0
 12 13  1  0  0  0  0
 12 31  1  0  0  0  0
 13 19  1  0  0  0  0
 13 14  1  0  0  0  0
 13 32  1  0  0  0  0
 14 15  1  0  0  0  0
 14 33  1  0  0  0  0
 14 34  1  0  0  0  0
 15 16  1  0  0  0  0
 15 35  1  0  0  0  0
 15 36  1  0  0  0  0
 16 17  1  0  0  0  0
 16 18  1  0  0  0  0
 16 37  1  0  0  0  0
 17 38  1  0  0  0  0
 18 19  1  0  0  0  0
 18 39  1  0  0  0  0
 18 40  1  0  0  0  0
 19 41  1  0  0  0  0
 19 42  1  0  0  0  0
M  END
> <s_m_source_file>
AV-unprocessed.smi

> <i_m_source_file_index>
904

> <i_lp_mmshare_version>
43012

> <i_f3d_flags>
0

> <s_epik_input>
W0NIM11jMW5uKFtDSDNdKWMoW0NIM10pYzFbQ0gyXUMoPU8pW05IXVtDQEBIXTJbQ0gyXVtDSDJdW0NAQEhdKFtPSF0pW0NIMl1bQ0gyXTI=

> <s_epik_cmdline>
J2VwaWtfcHl0aG9uJywgJy1waCcsICc3LjAnLCAnLXRuJywgJzgnLCAnLW1hJywgJzIwMCcsICctbWV0YWxfYmluZGluZycsICctaW1hZScsICc8aW5maWxlLm1hZT4nLCAnLW9tYWUnLCAnPG91dGZpbGUubWFlPic=

> <r_lp_tautomer_probability>
1

> <r_epik_Ionization_Penalty>
0.00340889

> <r_epik_Ionization_Penalty_Charging>
0

> <r_epik_Ionization_Penalty_Neutral>
0.00340889

> <r_epik_State_Penalty>
0.00241397

> <r_epik_Charging_Adjusted_Penalty>
0.00241397

> <i_epik_Tot_Q>
0

> <i_epik_Tot_abs_Q>
0

> <r_epik_Metal_State_Penalty>
-0

> <b_epik_Metal_Only>
0

> <s_lp_Force_Field>
OPLS_2005

> <r_lp_Energy>
4.71478

> <b_lp_Chiralities_Consistent>
1

> <s_lp_Variant>
AV-unprocessed.smi:904-2

> <Gold.Version>
5.8.1

> <Gold.Id.Protein>
6NUR|6NUR_protein|mol2

> <Gold.PLP.Fitness>
50.0065

> <Gold.PLP.PLP>
-45.1843

> <Gold.PLP.part.hbond>
-2.0543

> <Gold.PLP.part.metal>
0.0000

> <Gold.PLP.part.buried>
-1.9904

> <Gold.PLP.part.nonpolar>
-40.1673

> <Gold.PLP.part.repulsive>
0.2609

> <Gold.PLP.ligand.clash>
0.0000

> <Gold.PLP.ligand.torsion>
0.4010

> <Gold.PLP.Chemscore.Hbond>
1.8736

> <Gold.PLP.Chemscore.CHOScore>
0.0000

> <Gold.PLP.Chemscore.Metal>
0.0000

> <Gold.Chemscore.Hbonds>
donor molecule, donor type, donor heavy atom, donor atom, acceptor molecule, acceptor atom, score
      L1  H    17    38       P1  7949  0.99
      P1  H 10752 10763       L1    17  0.74

> <Gold.PLP.Chemscore.Internal.Correction>
0.0035

> <Gold.Rescore>
     Score         DG    S(hbond)    S(metal)    S(lipo)     H(rot)  DE(clash)    DE(int)     intcor
     18.94     -19.50       1.50        0.00     117.36       1.84       0.18       0.38       ----

> <Gold.Chemscore.Fitness>
18.9383

> <Gold.Chemscore.DG>
-19.4993

> <Gold.Chemscore.ZeroCoef>
-5.4800

> <Gold.Chemscore.Hbond>
1.4971

> <Gold.Chemscore.Metal>
0.0000

> <Gold.Chemscore.Lipo>
117.3569

> <Gold.Chemscore.Internal_Hbond>
0.0000

> <Gold.Chemscore.DEClash>
0.1831

> <Gold.Chemscore.DEInternal>
0.3780

> <Gold.Chemscore.Rot>
1.8406

> <Gold.Chemscore.Internal.Correction>
   9.000000E+99

> <Gold.Chemscore.Hbonds>
donor molecule, donor type, donor heavy atom, donor atom, acceptor molecule, acceptor atom, score
      L1  H    17    38       P1  7949  0.93
      P1  H 10752 10763       L1    17  0.11

> <Gold.Chemscore.Hbond.Weighted>
-5.0004

> <Gold.Chemscore.Metal.Weighted>
-0.0000

> <Gold.Chemscore.Lipo.Weighted>
-13.7308

> <Gold.Chemscore.Internal_Hbond.Weighted>
0.0000

> <Gold.Chemscore.DEClash.Weighted>
0.1831

> <Gold.Chemscore.DEInternal.Weighted>
0.3780

> <Gold.Chemscore.Rot.Weighted>
4.7118

> <Gold.Chemscore.Internal.Correction.Weighted>
   9.000000E+99

> <Gold.Protein.RotatedTorsions>
[ 6907 6896 6895 6894 ] final   68.15 input  -60.11 | X-H torsion
[ 7974 7965 7964 7962 ] final   69.22 input  175.53 | X-H torsion
[ 8008 7997 7996 7995 ] final   74.29 input   59.86 | X-H torsion
[ 10167 10162 10161 10158 ] final   20.78 input  -65.29 | X-H torsion
[ 10718 10713 10712 10709 ] final   -2.17 input   66.30 | X-H torsion
[ 10763 10752 10751 10750 ] final   36.90 input  -60.55 | X-H torsion
[ 11005 11000 10999 10996 ] final   15.95 input  -57.11 | X-H torsion

> <Gold.Protein.ActiveResidues>
 VAL166  LYS551  ARG553  GLY616  TRP617  ASP618  TYR619  PRO620  LYS621  CYS622 
 ASP623  PHE694  ASN695  SER759  ASP760  ASP761  ALA762  ILE779  LEU786  VAL792 
 PHE793  MET794  SER795  GLU796  ALA797  LYS798  CYS799  TRP800  GLU811  SER814 

> <Gold.Protein.RotatedAtoms>
  152.4601  134.5204  159.9780 H   0  0  0  0  0  0  0  0  0  0  0  0  # atno 6907 bound_to 6896
  151.5255  133.3452  159.2917 H   0  0  0  0  0  0  0  0  0  0  0  0  # atno 6908 bound_to 6896
  150.8560  134.7928  159.7108 H   0  0  0  0  0  0  0  0  0  0  0  0  # atno 6909 bound_to 6896
  145.7931  139.2944  143.1199 H   0  0  0  0  0  0  0  0  0  0  0  0  # atno 7974 bound_to 7965
  155.7961  140.3478  155.5376 H   0  0  0  0  0  0  0  0  0  0  0  0  # atno 8008 bound_to 7997
  155.8585  140.0967  157.1649 H   0  0  0  0  0  0  0  0  0  0  0  0  # atno 8009 bound_to 7997
  154.4011  140.1363  156.3919 H   0  0  0  0  0  0  0  0  0  0  0  0  # atno 8010 bound_to 7997
  140.5477  143.9565  150.6558 H   0  0  0  0  0  0  0  0  0  0  0  0  # atno 10167 bound_to 10162
  156.7947  130.5373  149.5730 H   0  0  0  0  0  0  0  0  0  0  0  0  # atno 10718 bound_to 10713
  153.0058  135.6293  154.2059 H   0  0  0  0  0  0  0  0  0  0  0  0  # atno 10763 bound_to 10752
  154.1802  135.2814  155.3056 H   0  0  0  0  0  0  0  0  0  0  0  0  # atno 10764 bound_to 10752
  154.5840  135.5638  153.7273 H   0  0  0  0  0  0  0  0  0  0  0  0  # atno 10765 bound_to 10752
  140.4526  134.1209  155.7704 H   0  0  0  0  0  0  0  0  0  0  0  0  # atno 11005 bound_to 11000
  145.9956  140.8565  143.0044 LP  0  0  0  0  0  0  0  0  0  0  0  0  # atno 17320 bound_to 7965
  144.6779  140.2278  143.7359 LP  0  0  0  0  0  0  0  0  0  0  0  0  # atno 17321 bound_to 7965
  140.2982  143.3278  152.0997 LP  0  0  0  0  0  0  0  0  0  0  0  0  # atno 17342 bound_to 10162
  139.5014  144.6713  151.6236 LP  0  0  0  0  0  0  0  0  0  0  0  0  # atno 17343 bound_to 10162
  156.1137  130.6059  151.0088 LP  0  0  0  0  0  0  0  0  0  0  0  0  # atno 17370 bound_to 10713
  157.6583  131.0885  150.7896 LP  0  0  0  0  0  0  0  0  0  0  0  0  # atno 17371 bound_to 10713
  141.1657  133.8707  157.1720 LP  0  0  0  0  0  0  0  0  0  0  0  0  # atno 17394 bound_to 11000
  139.9997  135.0032  157.0162 LP  0  0  0  0  0  0  0  0  0  0  0  0  # atno 17395 bound_to 11000

$$$$
