AV-unprocessed.smi:3284|AV-procd|sdf|12572|dock4
  -GOLD-   2272018493D 1   1.00000     0.00000
 Structure written by MMmdl.
 44 45  0  0  0  0  0  0  0  0  2 V2000
  151.6716  145.2536  159.1316 C   0  0  0  0  0  0  0  0  0  0  0  0
  152.1754  144.1870  160.0905 C   0  0  0  0  0  0  0  0  0  0  0  0
  152.1612  144.3945  161.4222 C   0  0  0  0  0  0  0  0  0  0  0  0
  152.6987  143.4216  162.4573 C   0  0  0  0  0  0  0  0  0  0  0  0
  153.1169  142.0687  161.8578 C   0  0  0  0  0  0  0  0  0  0  0  0
  153.7476  142.2385  160.4644 C   0  0  1  0  0  0  0  0  0  0  0  0
  154.3754  140.9312  159.9507 C   0  0  0  0  0  0  0  0  0  0  0  0
  152.7464  142.9017  159.4764 C   0  0  1  0  0  0  0  0  0  0  0  0
  151.6343  141.9289  159.0024 C   0  0  0  0  0  0  0  0  0  0  0  0
  151.7615  141.5529  157.5808 N   0  3  0  0  0  0  0  0  0  0  0  0
  152.0135  140.1163  157.3582 C   0  0  0  0  0  0  0  0  0  0  0  0
  152.2737  139.8243  155.8749 C   0  0  0  0  0  0  0  0  0  0  0  0
  151.0267  139.9133  155.0516 C   0  0  0  0  0  0  0  0  0  0  0  0
  150.2123  140.9640  155.0656 N   0  0  0  0  0  0  0  0  0  0  0  0
  149.2094  140.6479  154.1553 C   0  0  0  0  0  0  0  0  0  0  0  0
  149.4593  139.4103  153.6137 C   0  0  0  0  0  0  0  0  0  0  0  0
  150.6349  138.9514  154.1935 N   0  0  0  0  0  0  0  0  0  0  0  0
  151.2863  137.6872  153.9107 C   0  0  0  0  0  0  0  0  0  0  0  0
  152.3991  145.4302  158.3391 H   0  0  0  0  0  0  0  0  0  0  0  0
  151.5115  146.2003  159.6487 H   0  0  0  0  0  0  0  0  0  0  0  0
  150.7232  144.9705  158.6785 H   0  0  0  0  0  0  0  0  0  0  0  0
  151.7751  145.3247  161.8134 H   0  0  0  0  0  0  0  0  0  0  0  0
  153.5605  143.8941  162.9297 H   0  0  0  0  0  0  0  0  0  0  0  0
  151.9537  143.2727  163.2394 H   0  0  0  0  0  0  0  0  0  0  0  0
  153.8142  141.5750  162.5359 H   0  0  0  0  0  0  0  0  0  0  0  0
  152.2484  141.4129  161.7921 H   0  0  0  0  0  0  0  0  0  0  0  0
  154.5789  142.9368  160.5789 H   0  0  0  0  0  0  0  0  0  0  0  0
  153.6591  140.1097  159.9417 H   0  0  0  0  0  0  0  0  0  0  0  0
  155.2051  140.6253  160.5889 H   0  0  0  0  0  0  0  0  0  0  0  0
  154.7679  141.0517  158.9406 H   0  0  0  0  0  0  0  0  0  0  0  0
  153.3255  143.1965  158.6000 H   0  0  0  0  0  0  0  0  0  0  0  0
  151.6630  141.0035  159.5763 H   0  0  0  0  0  0  0  0  0  0  0  0
  150.6511  142.3726  159.1625 H   0  0  0  0  0  0  0  0  0  0  0  0
  150.9052  141.8056  157.1084 H   0  0  0  0  0  0  0  0  0  0  0  0
  152.8719  139.8072  157.9563 H   0  0  0  0  0  0  0  0  0  0  0  0
  151.1539  139.5410  157.7050 H   0  0  0  0  0  0  0  0  0  0  0  0
  153.0245  140.5086  155.4787 H   0  0  0  0  0  0  0  0  0  0  0  0
  152.6876  138.8214  155.7620 H   0  0  0  0  0  0  0  0  0  0  0  0
  148.3942  141.3294  153.9608 H   0  0  0  0  0  0  0  0  0  0  0  0
  148.9131  138.8353  152.8802 H   0  0  0  0  0  0  0  0  0  0  0  0
  150.7845  137.1820  153.0846 H   0  0  0  0  0  0  0  0  0  0  0  0
  151.2462  137.0462  154.7918 H   0  0  0  0  0  0  0  0  0  0  0  0
  152.3275  137.8581  153.6363 H   0  0  0  0  0  0  0  0  0  0  0  0
  152.5222  142.0800  157.1759 H   0  0  0  0  0  0  0  0  0  0  0  0
  1  2  1  0  0  0  0
  1 19  1  0  0  0  0
  1 20  1  0  0  0  0
  1 21  1  0  0  0  0
  2  8  1  0  0  0  0
  2  3  2  0  0  0  0
  3  4  1  0  0  0  0
  3 22  1  0  0  0  0
  4  5  1  0  0  0  0
  4 23  1  0  0  0  0
  4 24  1  0  0  0  0
  5  6  1  0  0  0  0
  5 25  1  0  0  0  0
  5 26  1  0  0  0  0
  6  7  1  0  0  0  0
  6  8  1  0  0  0  0
  6 27  1  0  0  0  0
  7 28  1  0  0  0  0
  7 29  1  0  0  0  0
  7 30  1  0  0  0  0
  8  9  1  0  0  0  0
  8 31  1  0  0  0  0
  9 10  1  0  0  0  0
  9 32  1  0  0  0  0
  9 33  1  0  0  0  0
 10 11  1  0  0  0  0
 10 34  1  0  0  0  0
 10 44  1  0  0  0  0
 11 12  1  0  0  0  0
 11 35  1  0  0  0  0
 11 36  1  0  0  0  0
 12 13  1  0  0  0  0
 12 37  1  0  0  0  0
 12 38  1  0  0  0  0
 13 17  1  0  0  0  0
 13 14  2  0  0  0  0
 14 15  1  0  0  0  0
 15 16  2  0  0  0  0
 15 39  1  0  0  0  0
 16 17  1  0  0  0  0
 16 40  1  0  0  0  0
 17 18  1  0  0  0  0
 18 41  1  0  0  0  0
 18 42  1  0  0  0  0
 18 43  1  0  0  0  0
M  CHG  1  10   1
M  END
> <s_m_source_file>
AV-unprocessed.smi

> <i_m_source_file_index>
3284

> <i_lp_mmshare_version>
43012

> <i_f3d_flags>
0

> <s_epik_input>
W0NIM11DMT1bQ0hdW0NIMl1bQ0gyXVtDQEBIXShbQ0gzXSlbQ0BIXTFbQ0gyXVtOSF1bQ0gyXVtDSDJdYzJuW2NIXVtjSF1uMltDSDNd

> <s_epik_cmdline>
J2VwaWtfcHl0aG9uJywgJy1waCcsICc3LjAnLCAnLXRuJywgJzgnLCAnLW1hJywgJzIwMCcsICctbWV0YWxfYmluZGluZycsICctaW1hZScsICc8aW5maWxlLm1hZT4nLCAnLW9tYWUnLCAnPG91dGZpbGUubWFlPic=

> <r_lp_tautomer_probability>
1

> <r_epik_Ionization_Penalty>
0.150779

> <r_epik_Ionization_Penalty_Charging>
0.150779

> <r_epik_Ionization_Penalty_Neutral>
1.39452e-13

> <r_epik_State_Penalty>
0.349447

> <r_epik_Charging_Adjusted_Penalty>
0.500226

> <i_epik_Tot_Q>
1

> <i_epik_Tot_abs_Q>
1

> <r_epik_Metal_State_Penalty>
0.000470967

> <b_epik_Metal_Only>
0

> <s_lp_Force_Field>
OPLS_2005

> <r_lp_Energy>
13.2562

> <b_lp_Chiralities_Consistent>
1

> <s_lp_Variant>
AV-unprocessed.smi:3284-1

> <Gold.Version>
5.8.1

> <Gold.Id.Protein>
6NUR|6NUR_protein|mol2

> <Gold.PLP.Fitness>
48.5474

> <Gold.PLP.PLP>
-47.4197

> <Gold.PLP.part.hbond>
-0.9567

> <Gold.PLP.part.metal>
0.0000

> <Gold.PLP.part.buried>
1.2421

> <Gold.PLP.part.nonpolar>
-47.0121

> <Gold.PLP.part.repulsive>
0.1542

> <Gold.PLP.ligand.clash>
0.0000

> <Gold.PLP.ligand.torsion>
1.2167

> <Gold.PLP.Chemscore.Hbond>
0.0000

> <Gold.PLP.Chemscore.CHOScore>
1.1708

> <Gold.PLP.Chemscore.Metal>
0.0000

> <Gold.Chemscore.Hbonds>
donor molecule, donor type, donor heavy atom, donor atom, acceptor molecule, acceptor atom, score
      L1  C    16    40       P1  7948  0.42
      L1  C    16    40       P1  7957  0.31

> <Gold.PLP.Chemscore.Internal.Correction>
0.0485

> <Gold.Rescore>
     Score         DG    S(hbond)    S(metal)    S(lipo)     H(rot)  DE(clash)    DE(int)     intcor
     15.30     -17.20       0.00        0.00     135.41       1.61       0.42       1.49       ----

> <Gold.Chemscore.Fitness>
15.2959

> <Gold.Chemscore.DG>
-17.1995

> <Gold.Chemscore.ZeroCoef>
-5.4800

> <Gold.Chemscore.Hbond>
0.0000

> <Gold.Chemscore.Metal>
0.0000

> <Gold.Chemscore.Lipo>
135.4059

> <Gold.Chemscore.Internal_Hbond>
0.0000

> <Gold.Chemscore.DEClash>
0.4185

> <Gold.Chemscore.DEInternal>
1.4851

> <Gold.Chemscore.Rot>
1.6105

> <Gold.Chemscore.Internal.Correction>
   9.000000E+99

> <Gold.Chemscore.Hbond.Weighted>
-0.0000

> <Gold.Chemscore.Metal.Weighted>
-0.0000

> <Gold.Chemscore.Lipo.Weighted>
-15.8425

> <Gold.Chemscore.Internal_Hbond.Weighted>
0.0000

> <Gold.Chemscore.DEClash.Weighted>
0.4185

> <Gold.Chemscore.DEInternal.Weighted>
1.4851

> <Gold.Chemscore.Rot.Weighted>
4.1230

> <Gold.Chemscore.Internal.Correction.Weighted>
   9.000000E+99

> <Gold.Protein.RotatedTorsions>
[ 6907 6896 6895 6894 ] final -104.37 input  -60.11 | X-H torsion
[ 7974 7965 7964 7962 ] final   49.92 input  175.53 | X-H torsion
[ 8008 7997 7996 7995 ] final  -85.80 input   59.86 | X-H torsion
[ 10167 10162 10161 10158 ] final  107.17 input  -65.29 | X-H torsion
[ 10718 10713 10712 10709 ] final   59.87 input   66.30 | X-H torsion
[ 10763 10752 10751 10750 ] final -168.36 input  -60.55 | X-H torsion
[ 11005 11000 10999 10996 ] final   37.65 input  -57.11 | X-H torsion

> <Gold.Protein.ActiveResidues>
 VAL166  LYS551  ARG553  GLY616  TRP617  ASP618  TYR619  PRO620  LYS621  CYS622 
 ASP623  PHE694  ASN695  SER759  ASP760  ASP761  ALA762  ILE779  LEU786  VAL792 
 PHE793  MET794  SER795  GLU796  ALA797  LYS798  CYS799  TRP800  GLU811  SER814 

> <Gold.Protein.RotatedAtoms>
  150.7284  134.0288  159.3725 H   0  0  0  0  0  0  0  0  0  0  0  0  # atno 6907 bound_to 6896
  151.8256  135.0636  160.0440 H   0  0  0  0  0  0  0  0  0  0  0  0  # atno 6908 bound_to 6896
  152.2971  133.5582  159.5631 H   0  0  0  0  0  0  0  0  0  0  0  0  # atno 6909 bound_to 6896
  146.0062  139.4493  142.9984 H   0  0  0  0  0  0  0  0  0  0  0  0  # atno 7974 bound_to 7965
  154.6448  140.0587  156.9887 H   0  0  0  0  0  0  0  0  0  0  0  0  # atno 8008 bound_to 7997
  155.1462  140.3270  155.4423 H   0  0  0  0  0  0  0  0  0  0  0  0  # atno 8009 bound_to 7997
  156.2548  140.1955  156.6575 H   0  0  0  0  0  0  0  0  0  0  0  0  # atno 8010 bound_to 7997
  139.6949  144.7103  151.1284 H   0  0  0  0  0  0  0  0  0  0  0  0  # atno 10167 bound_to 10162
  157.5709  130.8907  149.9266 H   0  0  0  0  0  0  0  0  0  0  0  0  # atno 10718 bound_to 10713
  154.6637  135.2928  154.9833 H   0  0  0  0  0  0  0  0  0  0  0  0  # atno 10763 bound_to 10752
  154.0884  135.6594  153.4852 H   0  0  0  0  0  0  0  0  0  0  0  0  # atno 10764 bound_to 10752
  153.0445  135.5214  154.7600 H   0  0  0  0  0  0  0  0  0  0  0  0  # atno 10765 bound_to 10752
  140.2205  134.3647  155.8007 H   0  0  0  0  0  0  0  0  0  0  0  0  # atno 11005 bound_to 11000
  145.7412  141.0007  143.1300 LP  0  0  0  0  0  0  0  0  0  0  0  0  # atno 17320 bound_to 7965
  144.6936  139.9102  143.7463 LP  0  0  0  0  0  0  0  0  0  0  0  0  # atno 17321 bound_to 7965
  140.7693  143.5506  150.9209 LP  0  0  0  0  0  0  0  0  0  0  0  0  # atno 17342 bound_to 10162
  139.9185  143.6634  152.3101 LP  0  0  0  0  0  0  0  0  0  0  0  0  # atno 17343 bound_to 10162
  156.0755  130.3679  150.0687 LP  0  0  0  0  0  0  0  0  0  0  0  0  # atno 17370 bound_to 10713
  156.8840  130.9566  151.3596 LP  0  0  0  0  0  0  0  0  0  0  0  0  # atno 17371 bound_to 10713
  141.2223  133.7191  156.8567 LP  0  0  0  0  0  0  0  0  0  0  0  0  # atno 17394 bound_to 11000
  140.1855  134.9003  157.2999 LP  0  0  0  0  0  0  0  0  0  0  0  0  # atno 17395 bound_to 11000

$$$$
