AV-unprocessed.smi:1244|AV-procd|sdf|5223|dock4
  -GOLD-   22720 4323D 1   1.00000     0.00000
 Structure written by MMmdl.
 54 56  0  0  0  0  0  0  0  0  1 V2000
  149.7231  141.5267  156.8283 C   0  0  0  0  0  0  0  0  0  0  0  0
  150.1373  140.0515  156.8433 C   0  0  1  0  0  0  0  0  0  0  0  0
  149.0600  139.1415  156.2270 C   0  0  0  0  0  0  0  0  0  0  0  0
  149.4883  137.7498  156.1734 N   0  0  0  0  0  0  0  0  0  0  0  0
  148.4325  136.8981  155.6303 C   0  0  0  0  0  0  0  0  0  0  0  0
  148.7401  135.3890  155.6576 C   0  0  0  0  0  0  0  0  0  0  0  0
  147.8462  134.6480  154.7760 N   0  0  0  0  0  0  0  0  0  0  0  0
  147.9885  133.3569  154.4450 C   0  0  0  0  0  0  0  0  0  0  0  0
  148.9096  132.6482  154.8510 O   0  0  0  0  0  0  0  0  0  0  0  0
  147.0133  132.9594  153.6106 N   0  0  0  0  0  0  0  0  0  0  0  0
  146.8112  131.6724  153.0351 C   0  0  0  0  0  0  0  0  0  0  0  0
  147.2973  130.4957  153.6566 C   0  0  0  0  0  0  0  0  0  0  0  0
  147.0884  129.2508  153.0387 C   0  0  0  0  0  0  0  0  0  0  0  0
  146.3952  129.2240  151.8176 C   0  0  0  0  0  0  0  0  0  0  0  0
  145.9080  130.3314  151.2234 N   0  0  0  0  0  0  0  0  0  0  0  0
  146.0874  131.5384  151.8147 C   0  0  0  0  0  0  0  0  0  0  0  0
  145.5349  132.6590  151.1521 N   0  0  0  0  0  0  0  0  0  0  0  0
  144.3255  133.2982  151.6602 C   0  0  0  0  0  0  0  0  0  0  0  0
  144.2586  134.6432  150.9428 C   0  0  0  0  0  0  0  0  0  0  0  0
  145.7312  135.0266  150.8325 C   0  0  0  0  0  0  0  0  0  0  0  0
  146.4429  133.6827  150.6434 C   0  0  0  0  0  0  0  0  0  0  0  0
  150.7294  137.6647  155.4066 C   0  0  0  0  0  0  0  0  0  0  0  0
  151.8356  138.5861  155.9597 C   0  0  2  0  0  0  0  0  0  0  0  0
  152.4610  138.0678  157.2660 C   0  0  0  0  0  0  0  0  0  0  0  0
  151.3473  139.9216  156.0994 O   0  0  0  0  0  0  0  0  0  0  0  0
  148.8057  141.6819  157.3966 H   0  0  0  0  0  0  0  0  0  0  0  0
  149.5506  141.8781  155.8105 H   0  0  0  0  0  0  0  0  0  0  0  0
  150.4978  142.1534  157.2704 H   0  0  0  0  0  0  0  0  0  0  0  0
  150.3147  139.7565  157.8780 H   0  0  0  0  0  0  0  0  0  0  0  0
  148.1453  139.2226  156.8156 H   0  0  0  0  0  0  0  0  0  0  0  0
  148.8158  139.4915  155.2226 H   0  0  0  0  0  0  0  0  0  0  0  0
  147.5226  137.0640  156.2086 H   0  0  0  0  0  0  0  0  0  0  0  0
  148.1975  137.2065  154.6103 H   0  0  0  0  0  0  0  0  0  0  0  0
  149.7585  135.1948  155.3231 H   0  0  0  0  0  0  0  0  0  0  0  0
  148.6659  135.0021  156.6755 H   0  0  0  0  0  0  0  0  0  0  0  0
  147.0631  135.1554  154.3910 H   0  0  0  0  0  0  0  0  0  0  0  0
  146.3908  133.6816  153.2794 H   0  0  0  0  0  0  0  0  0  0  0  0
  147.8200  130.5256  154.6003 H   0  0  0  0  0  0  0  0  0  0  0  0
  147.4529  128.3400  153.4898 H   0  0  0  0  0  0  0  0  0  0  0  0
  146.2189  128.2884  151.3080 H   0  0  0  0  0  0  0  0  0  0  0  0
  143.4419  132.6896  151.4654 H   0  0  0  0  0  0  0  0  0  0  0  0
  144.3981  133.4647  152.7359 H   0  0  0  0  0  0  0  0  0  0  0  0
  143.8307  134.5156  149.9475 H   0  0  0  0  0  0  0  0  0  0  0  0
  143.6620  135.3818  151.4787 H   0  0  0  0  0  0  0  0  0  0  0  0
  145.9298  135.7283  150.0218 H   0  0  0  0  0  0  0  0  0  0  0  0
  146.0596  135.4883  151.7647 H   0  0  0  0  0  0  0  0  0  0  0  0
  147.4079  133.6674  151.1519 H   0  0  0  0  0  0  0  0  0  0  0  0
  146.6146  133.5024  149.5823 H   0  0  0  0  0  0  0  0  0  0  0  0
  151.1007  136.6407  155.3896 H   0  0  0  0  0  0  0  0  0  0  0  0
  150.5313  137.9374  154.3687 H   0  0  0  0  0  0  0  0  0  0  0  0
  152.6359  138.6294  155.2205 H   0  0  0  0  0  0  0  0  0  0  0  0
  152.9319  137.0968  157.1109 H   0  0  0  0  0  0  0  0  0  0  0  0
  151.7196  137.9467  158.0554 H   0  0  0  0  0  0  0  0  0  0  0  0
  153.2276  138.7526  157.6289 H   0  0  0  0  0  0  0  0  0  0  0  0
  1  2  1  0  0  0  0
  1 26  1  0  0  0  0
  1 27  1  0  0  0  0
  1 28  1  0  0  0  0
  2 25  1  0  0  0  0
  2  3  1  0  0  0  0
  2 29  1  0  0  0  0
  3  4  1  0  0  0  0
  3 30  1  0  0  0  0
  3 31  1  0  0  0  0
  4  5  1  0  0  0  0
  4 22  1  0  0  0  0
  5  6  1  0  0  0  0
  5 32  1  0  0  0  0
  5 33  1  0  0  0  0
  6  7  1  0  0  0  0
  6 34  1  0  0  0  0
  6 35  1  0  0  0  0
  7  8  1  0  0  0  0
  7 36  1  0  0  0  0
  8  9  2  0  0  0  0
  8 10  1  0  0  0  0
 10 11  1  0  0  0  0
 10 37  1  0  0  0  0
 11 16  1  0  0  0  0
 11 12  2  0  0  0  0
 12 13  1  0  0  0  0
 12 38  1  0  0  0  0
 13 14  2  0  0  0  0
 13 39  1  0  0  0  0
 14 15  1  0  0  0  0
 14 40  1  0  0  0  0
 15 16  2  0  0  0  0
 16 17  1  0  0  0  0
 17 21  1  0  0  0  0
 17 18  1  0  0  0  0
 18 19  1  0  0  0  0
 18 41  1  0  0  0  0
 18 42  1  0  0  0  0
 19 20  1  0  0  0  0
 19 43  1  0  0  0  0
 19 44  1  0  0  0  0
 20 21  1  0  0  0  0
 20 45  1  0  0  0  0
 20 46  1  0  0  0  0
 21 47  1  0  0  0  0
 21 48  1  0  0  0  0
 22 23  1  0  0  0  0
 22 49  1  0  0  0  0
 22 50  1  0  0  0  0
 23 24  1  0  0  0  0
 23 25  1  0  0  0  0
 23 51  1  0  0  0  0
 24 52  1  0  0  0  0
 24 53  1  0  0  0  0
 24 54  1  0  0  0  0
M  END
> <s_m_source_file>
AV-unprocessed.smi

> <i_m_source_file_index>
1244

> <i_lp_mmshare_version>
43012

> <i_f3d_flags>
0

> <s_epik_input>
W0NIM11bQ0BASF0xW0NIMl1OKFtDSDJdW0NASF0oTzEpW0NIM10pW0NIMl1bQ0gyXVtOSF1DKD1PKVtOSF1jMltjSF1bY0hdW2NIXW5jMk4zW0NIMl1bQ0gyXVtDSDJdW0NIMl0z

> <s_epik_cmdline>
J2VwaWtfcHl0aG9uJywgJy1waCcsICc3LjAnLCAnLXRuJywgJzgnLCAnLW1hJywgJzIwMCcsICctbWV0YWxfYmluZGluZycsICctaW1hZScsICc8aW5maWxlLm1hZT4nLCAnLW9tYWUnLCAnPG91dGZpbGUubWFlPic=

> <r_lp_tautomer_probability>
1

> <r_epik_Ionization_Penalty>
0.363951

> <r_epik_Ionization_Penalty_Charging>
0

> <r_epik_Ionization_Penalty_Neutral>
0.363951

> <r_epik_State_Penalty>
0.349372

> <r_epik_Charging_Adjusted_Penalty>
0.349372

> <i_epik_Tot_Q>
0

> <i_epik_Tot_abs_Q>
0

> <r_epik_Metal_State_Penalty>
0.333054

> <b_epik_Metal_Only>
0

> <s_lp_Force_Field>
OPLS_2005

> <r_lp_Energy>
51.4551

> <b_lp_Chiralities_Consistent>
1

> <s_lp_Variant>
AV-unprocessed.smi:1244-3

> <Gold.Version>
5.8.1

> <Gold.Id.Protein>
6NUR|6NUR_protein|mol2

> <Gold.PLP.Fitness>
42.7802

> <Gold.PLP.PLP>
-40.7418

> <Gold.PLP.part.hbond>
-2.0000

> <Gold.PLP.part.metal>
0.0000

> <Gold.PLP.part.buried>
-5.2333

> <Gold.PLP.part.nonpolar>
-34.5445

> <Gold.PLP.part.repulsive>
0.4440

> <Gold.PLP.ligand.clash>
0.0000

> <Gold.PLP.ligand.torsion>
0.4594

> <Gold.PLP.Chemscore.Hbond>
0.8480

> <Gold.PLP.Chemscore.CHOScore>
0.0000

> <Gold.PLP.Chemscore.Metal>
0.0000

> <Gold.PLP.Chemscore.Internal.Correction>
0.4133

> <Gold.Rescore>
     Score         DG    S(hbond)    S(metal)    S(lipo)     H(rot)  DE(clash)    DE(int)     intcor
     13.39     -15.77       0.72        0.00     101.25       1.55       0.03       2.35       ----

> <Gold.Chemscore.Fitness>
13.3943

> <Gold.Chemscore.DG>
-15.7748

> <Gold.Chemscore.ZeroCoef>
-5.4800

> <Gold.Chemscore.Hbond>
0.7220

> <Gold.Chemscore.Metal>
0.0000

> <Gold.Chemscore.Lipo>
101.2497

> <Gold.Chemscore.Internal_Hbond>
0.0000

> <Gold.Chemscore.DEClash>
0.0293

> <Gold.Chemscore.DEInternal>
2.3512

> <Gold.Chemscore.Rot>
1.5479

> <Gold.Chemscore.Internal.Correction>
   9.000000E+99

> <Gold.Chemscore.Hbond.Weighted>
-2.4113

> <Gold.Chemscore.Metal.Weighted>
-0.0000

> <Gold.Chemscore.Lipo.Weighted>
-11.8462

> <Gold.Chemscore.Internal_Hbond.Weighted>
0.0000

> <Gold.Chemscore.DEClash.Weighted>
0.0293

> <Gold.Chemscore.DEInternal.Weighted>
2.3512

> <Gold.Chemscore.Rot.Weighted>
3.9627

> <Gold.Chemscore.Internal.Correction.Weighted>
   9.000000E+99

> <Gold.Protein.RotatedTorsions>
[ 6907 6896 6895 6894 ] final   22.51 input  -60.11 | X-H torsion
[ 7974 7965 7964 7962 ] final  -95.07 input  175.53 | X-H torsion
[ 8008 7997 7996 7995 ] final -178.67 input   59.86 | X-H torsion
[ 10167 10162 10161 10158 ] final  -96.65 input  -65.29 | X-H torsion
[ 10718 10713 10712 10709 ] final   60.17 input   66.30 | X-H torsion
[ 10763 10752 10751 10750 ] final  -93.63 input  -60.55 | X-H torsion
[ 11005 11000 10999 10996 ] final  167.82 input  -57.11 | X-H torsion

> <Gold.Protein.ActiveResidues>
 VAL166  LYS551  ARG553  GLY616  TRP617  ASP618  TYR619  PRO620  LYS621  CYS622 
 ASP623  PHE694  ASN695  SER759  ASP760  ASP761  ALA762  ILE779  LEU786  VAL792 
 PHE793  MET794  SER795  GLU796  ALA797  LYS798  CYS799  TRP800  GLU811  SER814 

> <Gold.Protein.RotatedAtoms>
  151.9282  135.0268  160.0526 H   0  0  0  0  0  0  0  0  0  0  0  0  # atno 6907 bound_to 6896
  152.2141  133.4929  159.5135 H   0  0  0  0  0  0  0  0  0  0  0  0  # atno 6908 bound_to 6896
  150.6983  134.1345  159.4124 H   0  0  0  0  0  0  0  0  0  0  0  0  # atno 6909 bound_to 6896
  145.3649  140.9497  143.2480 H   0  0  0  0  0  0  0  0  0  0  0  0  # atno 7974 bound_to 7965
  156.0215  140.1262  157.0352 H   0  0  0  0  0  0  0  0  0  0  0  0  # atno 8008 bound_to 7997
  154.4313  140.1068  156.6040 H   0  0  0  0  0  0  0  0  0  0  0  0  # atno 8009 bound_to 7997
  155.5938  140.3469  155.4576 H   0  0  0  0  0  0  0  0  0  0  0  0  # atno 8010 bound_to 7997
  140.2916  143.3218  152.0340 H   0  0  0  0  0  0  0  0  0  0  0  0  # atno 10167 bound_to 10162
  157.5732  130.8924  149.9303 H   0  0  0  0  0  0  0  0  0  0  0  0  # atno 10718 bound_to 10713
  154.6977  135.5187  153.8482 H   0  0  0  0  0  0  0  0  0  0  0  0  # atno 10763 bound_to 10752
  153.0680  135.6591  154.0320 H   0  0  0  0  0  0  0  0  0  0  0  0  # atno 10764 bound_to 10752
  154.0184  135.2996  155.3363 H   0  0  0  0  0  0  0  0  0  0  0  0  # atno 10765 bound_to 10752
  140.2808  134.7752  157.3756 H   0  0  0  0  0  0  0  0  0  0  0  0  # atno 11005 bound_to 11000
  144.8619  139.5165  143.6808 LP  0  0  0  0  0  0  0  0  0  0  0  0  # atno 17320 bound_to 7965
  146.2911  139.7142  142.9160 LP  0  0  0  0  0  0  0  0  0  0  0  0  # atno 17321 bound_to 7965
  139.4936  144.6521  151.6654 LP  0  0  0  0  0  0  0  0  0  0  0  0  # atno 17342 bound_to 10162
  140.5727  144.0081  150.6225 LP  0  0  0  0  0  0  0  0  0  0  0  0  # atno 17343 bound_to 10162
  156.0777  130.3677  150.0644 LP  0  0  0  0  0  0  0  0  0  0  0  0  # atno 17370 bound_to 10713
  156.8793  130.9551  151.3601 LP  0  0  0  0  0  0  0  0  0  0  0  0  # atno 17371 bound_to 10713
  140.1285  134.5126  155.8125 LP  0  0  0  0  0  0  0  0  0  0  0  0  # atno 17394 bound_to 11000
  141.2163  133.6781  156.6996 LP  0  0  0  0  0  0  0  0  0  0  0  0  # atno 17395 bound_to 11000

$$$$
