AV-unprocessed.smi:158|AV-procd|sdf|1325|dock1
  -GOLD-   2262019 23D 1   1.00000     0.00000
 Structure written by MMmdl.
 31 33  0  0  0  0  0  0  0  0  1 V2000
  144.4593  141.8504  154.9645 N   0  0  0  0  0  0  0  0  0  0  0  0
  145.6194  141.8122  155.6343 C   0  0  0  0  0  0  0  0  0  0  0  0
  145.6595  142.3329  156.8828 N   0  0  0  0  0  0  0  0  0  0  0  0
  146.7987  142.3158  157.5856 C   0  0  0  0  0  0  0  0  0  0  0  0
  146.7372  143.0058  159.1642 Cl  0  0  0  0  0  0  0  0  0  0  0  0
  147.9807  141.8231  157.2015 N   0  0  0  0  0  0  0  0  0  0  0  0
  147.9446  141.2966  155.9428 C   0  0  0  0  0  0  0  0  0  0  0  0
  146.8046  141.2538  155.0966 C   0  0  0  0  0  0  0  0  0  0  0  0
  147.1317  140.6501  153.8900 N   0  0  0  0  0  0  0  0  0  0  0  0
  148.3978  140.3558  154.0202 C   0  0  0  0  0  0  0  0  0  0  0  0
  148.9674  140.7110  155.2234 N   0  0  0  0  0  0  0  0  0  0  0  0
  150.3845  140.5055  155.6574 C   0  0  2  0  0  0  0  0  0  0  0  0
  151.0951  139.8764  154.6328 O   0  0  0  0  0  0  0  0  0  0  0  0
  151.7445  138.7061  155.1255 C   0  0  1  0  0  0  0  0  0  0  0  0
  153.0943  138.4894  154.4202 C   0  0  0  0  0  0  0  0  0  0  0  0
  153.8694  139.6684  154.4690 O   0  0  0  0  0  0  0  0  0  0  0  0
  151.7756  138.8692  156.6536 C   0  0  1  0  0  0  0  0  0  0  0  0
  152.8982  139.6051  157.1030 O   0  0  0  0  0  0  0  0  0  0  0  0
  150.4932  139.6330  156.9169 C   0  0  2  0  0  0  0  0  0  0  0  0
  149.4694  138.7800  157.0006 F   0  0  0  0  0  0  0  0  0  0  0  0
  150.7846  141.5094  155.8036 H   0  0  0  0  0  0  0  0  0  0  0  0
  151.0862  137.8688  154.8877 H   0  0  0  0  0  0  0  0  0  0  0  0
  151.7844  137.9034  157.1602 H   0  0  0  0  0  0  0  0  0  0  0  0
  150.5010  140.2372  157.8247 H   0  0  0  0  0  0  0  0  0  0  0  0
  144.4054  141.4685  154.0309 H   0  0  0  0  0  0  0  0  0  0  0  0
  143.6431  142.2634  155.3917 H   0  0  0  0  0  0  0  0  0  0  0  0
  148.9565  139.8687  153.2343 H   0  0  0  0  0  0  0  0  0  0  0  0
  153.6485  137.6946  154.9196 H   0  0  0  0  0  0  0  0  0  0  0  0
  152.9601  138.1790  153.3838 H   0  0  0  0  0  0  0  0  0  0  0  0
  153.3121  140.4029  154.2609 H   0  0  0  0  0  0  0  0  0  0  0  0
  152.8521  139.6709  158.0450 H   0  0  0  0  0  0  0  0  0  0  0  0
  1  2  1  0  0  0  0
  1 25  1  0  0  0  0
  1 26  1  0  0  0  0
  2  8  1  0  0  0  0
  2  3  2  0  0  0  0
  3  4  1  0  0  0  0
  4  5  1  0  0  0  0
  4  6  2  0  0  0  0
  6  7  1  0  0  0  0
  7 11  1  0  0  0  0
  7  8  2  0  0  0  0
  8  9  1  0  0  0  0
  9 10  2  0  0  0  0
 10 11  1  0  0  0  0
 10 27  1  0  0  0  0
 11 12  1  0  0  0  0
 12 21  1  0  0  0  0
 12 19  1  0  0  0  0
 12 13  1  0  0  0  0
 13 14  1  0  0  0  0
 14 22  1  0  0  0  0
 14 15  1  0  0  0  0
 14 17  1  0  0  0  0
 15 16  1  0  0  0  0
 15 28  1  0  0  0  0
 15 29  1  0  0  0  0
 16 30  1  0  0  0  0
 17 23  1  0  0  0  0
 17 18  1  0  0  0  0
 17 19  1  0  0  0  0
 18 31  1  0  0  0  0
 19 24  1  0  0  0  0
 19 20  1  0  0  0  0
M  END
> <s_m_source_file>
AV-unprocessed.smi

> <i_m_source_file_index>
158

> <i_lp_mmshare_version>
43012

> <i_f3d_flags>
0

> <s_epik_input>
Q2xjKG4xKW5jKFtOSDJdKWMoYzEyKW5bY0hdbjJbQ0BASF0zT1tDQEhdKFtDSDJdW09IXSlbQ0BASF0oW09IXSlbQ0BASF0zRg==

> <s_epik_cmdline>
J2VwaWtfcHl0aG9uJywgJy1waCcsICc3LjAnLCAnLXRuJywgJzgnLCAnLW1hJywgJzIwMCcsICctbWV0YWxfYmluZGluZycsICctaW1hZScsICc8aW5maWxlLm1hZT4nLCAnLW9tYWUnLCAnPG91dGZpbGUubWFlPic=

> <r_lp_tautomer_probability>
1

> <r_epik_Ionization_Penalty>
6.51543e-05

> <r_epik_Ionization_Penalty_Charging>
0

> <r_epik_Ionization_Penalty_Neutral>
6.51543e-05

> <r_epik_State_Penalty>
-0

> <r_epik_Charging_Adjusted_Penalty>
0

> <i_epik_Tot_Q>
0

> <i_epik_Tot_abs_Q>
0

> <r_epik_Metal_State_Penalty>
-0

> <b_epik_Metal_Only>
0

> <s_epik_Chemistry_Notes>
This compound contains an acetal/aminal-like group ( X-CH(R)-Y where X, Y are N, S, or O) that may be acid/base labile, releasing an aldehyde.

> <s_lp_Force_Field>
OPLS_2005

> <r_lp_Energy>
35.164

> <b_lp_Chiralities_Consistent>
1

> <s_lp_Variant>
AV-unprocessed.smi:158-3

> <Gold.Version>
5.8.1

> <Gold.Id.Protein>
6NUR|6NUR_protein|mol2

> <Gold.PLP.Fitness>
37.9917

> <Gold.PLP.PLP>
-25.8297

> <Gold.PLP.part.hbond>
-5.1029

> <Gold.PLP.part.metal>
0.0000

> <Gold.PLP.part.buried>
-2.1969

> <Gold.PLP.part.nonpolar>
-19.3076

> <Gold.PLP.part.repulsive>
0.5099

> <Gold.PLP.ligand.clash>
0.0000

> <Gold.PLP.ligand.torsion>
0.0422

> <Gold.PLP.Chemscore.Hbond>
3.0820

> <Gold.PLP.Chemscore.CHOScore>
1.0000

> <Gold.PLP.Chemscore.Metal>
0.0000

> <Gold.Chemscore.Hbonds>
donor molecule, donor type, donor heavy atom, donor atom, acceptor molecule, acceptor atom, score
      L1  H     1    25       P1 10175  1.00
      P1  H  7989  7998       L1    13  1.00
      P1  H  7997  8009       L1    18  1.00
      P1  H  7997  8010       L1    16  0.40
      L1  C    10    27       P1  7957  1.00

> <Gold.PLP.Chemscore.Internal.Correction>
0.0004

> <Gold.Rescore>
     Score         DG    S(hbond)    S(metal)    S(lipo)     H(rot)  DE(clash)    DE(int)     intcor
      9.99     -10.30       2.82        0.00      28.98       3.12       0.28       0.03       ----

> <Gold.Chemscore.Fitness>
9.9880

> <Gold.Chemscore.DG>
-10.2968

> <Gold.Chemscore.ZeroCoef>
-5.4800

> <Gold.Chemscore.Hbond>
2.8208

> <Gold.Chemscore.Metal>
0.0000

> <Gold.Chemscore.Lipo>
28.9757

> <Gold.Chemscore.Internal_Hbond>
0.0000

> <Gold.Chemscore.DEClash>
0.2797

> <Gold.Chemscore.DEInternal>
0.0291

> <Gold.Chemscore.Rot>
3.1230

> <Gold.Chemscore.Internal.Correction>
   9.000000E+99

> <Gold.Chemscore.Hbonds>
donor molecule, donor type, donor heavy atom, donor atom, acceptor molecule, acceptor atom, score
      L1  H     1    25       P1 10175  0.25
      P1  H  7989  7998       L1    13  0.89
      P1  H  7997  8009       L1    18  0.35
      P1  H  7997  8010       L1    16  0.26

> <Gold.Chemscore.Hbond.Weighted>
-9.4216

> <Gold.Chemscore.Metal.Weighted>
-0.0000

> <Gold.Chemscore.Lipo.Weighted>
-3.3902

> <Gold.Chemscore.Internal_Hbond.Weighted>
0.0000

> <Gold.Chemscore.DEClash.Weighted>
0.2797

> <Gold.Chemscore.DEInternal.Weighted>
0.0291

> <Gold.Chemscore.Rot.Weighted>
7.9950

> <Gold.Chemscore.Internal.Correction.Weighted>
   9.000000E+99

> <Gold.Protein.RotatedTorsions>
[ 6907 6896 6895 6894 ] final  111.74 input  -60.11 | X-H torsion
[ 7974 7965 7964 7962 ] final  -46.56 input  175.53 | X-H torsion
[ 8008 7997 7996 7995 ] final  169.04 input   59.86 | X-H torsion
[ 10167 10162 10161 10158 ] final  -67.26 input  -65.29 | X-H torsion
[ 10718 10713 10712 10709 ] final   55.05 input   66.30 | X-H torsion
[ 10763 10752 10751 10750 ] final -112.54 input  -60.55 | X-H torsion
[ 11005 11000 10999 10996 ] final   30.74 input  -57.11 | X-H torsion

> <Gold.Protein.ActiveResidues>
 VAL166  LYS551  ARG553  GLY616  TRP617  ASP618  TYR619  PRO620  LYS621  CYS622 
 ASP623  PHE694  ASN695  SER759  ASP760  ASP761  ALA762  ILE779  LEU786  VAL792 
 PHE793  MET794  SER795  GLU796  ALA797  LYS798  CYS799  TRP800  GLU811  SER814 

> <Gold.Protein.RotatedAtoms>
  152.4953  133.8615  159.7252 H   0  0  0  0  0  0  0  0  0  0  0  0  # atno 6907 bound_to 6896
  150.9125  133.6971  159.2858 H   0  0  0  0  0  0  0  0  0  0  0  0  # atno 6908 bound_to 6896
  151.4375  135.1021  159.9713 H   0  0  0  0  0  0  0  0  0  0  0  0  # atno 6909 bound_to 6896
  145.9707  140.7386  142.9412 H   0  0  0  0  0  0  0  0  0  0  0  0  # atno 7974 bound_to 7965
  156.1493  140.1574  156.8796 H   0  0  0  0  0  0  0  0  0  0  0  0  # atno 8008 bound_to 7997
  154.5057  140.0814  156.7925 H   0  0  0  0  0  0  0  0  0  0  0  0  # atno 8009 bound_to 7997
  155.3927  140.3410  155.4254 H   0  0  0  0  0  0  0  0  0  0  0  0  # atno 8010 bound_to 7997
  140.5596  143.2312  151.6753 H   0  0  0  0  0  0  0  0  0  0  0  0  # atno 10167 bound_to 10162
  157.5311  130.8631  149.8689 H   0  0  0  0  0  0  0  0  0  0  0  0  # atno 10718 bound_to 10713
  154.8354  135.4487  154.1209 H   0  0  0  0  0  0  0  0  0  0  0  0  # atno 10763 bound_to 10752
  153.2446  135.6920  153.7752 H   0  0  0  0  0  0  0  0  0  0  0  0  # atno 10764 bound_to 10752
  153.7087  135.3360  155.3217 H   0  0  0  0  0  0  0  0  0  0  0  0  # atno 10765 bound_to 10752
  140.2912  134.2862  155.7775 H   0  0  0  0  0  0  0  0  0  0  0  0  # atno 11005 bound_to 11000
  144.6836  140.2744  143.7301 LP  0  0  0  0  0  0  0  0  0  0  0  0  # atno 17320 bound_to 7965
  145.7910  139.1927  143.2103 LP  0  0  0  0  0  0  0  0  0  0  0  0  # atno 17321 bound_to 7965
  139.5064  144.3683  152.0495 LP  0  0  0  0  0  0  0  0  0  0  0  0  # atno 17342 bound_to 10162
  140.2809  144.3861  150.6119 LP  0  0  0  0  0  0  0  0  0  0  0  0  # atno 17343 bound_to 10162
  156.0423  130.3736  150.1404 LP  0  0  0  0  0  0  0  0  0  0  0  0  # atno 17370 bound_to 10713
  156.9589  130.9798  151.3483 LP  0  0  0  0  0  0  0  0  0  0  0  0  # atno 17371 bound_to 10713
  141.2146  133.7586  156.9628 LP  0  0  0  0  0  0  0  0  0  0  0  0  # atno 17394 bound_to 11000
  140.1193  134.9427  157.2180 LP  0  0  0  0  0  0  0  0  0  0  0  0  # atno 17395 bound_to 11000

$$$$
