AV-unprocessed.smi:282|AV-procd|sdf|2120|dock4
  -GOLD-   2262021423D 1   1.00000     0.00000
 Structure written by MMmdl.
 65 69  0  0  0  0  0  0  0  0  2 V2000
  148.8157  129.7851  158.5934 C   0  0  0  0  0  0  0  0  0  0  0  0
  147.4660  130.3992  158.1970 C   0  0  0  0  0  0  0  0  0  0  0  0
  146.9918  131.5569  159.1161 C   0  0  1  0  0  0  0  0  0  0  0  0
  146.8026  131.0633  160.5747 C   0  0  0  0  0  0  0  0  0  0  0  0
  146.4557  132.1576  161.5152 N   0  3  2  0  0  0  0  0  0  0  0  0
  145.0401  132.6018  161.4015 C   0  0  0  0  0  0  0  0  0  0  0  0
  144.6997  133.6573  162.4646 C   0  0  0  0  0  0  0  0  0  0  0  0
  145.6519  134.8549  162.3678 C   0  0  0  0  0  0  0  0  0  0  0  0
  147.1063  134.3766  162.4789 C   0  0  0  0  0  0  0  0  0  0  0  0
  147.4405  133.2727  161.4545 C   0  0  2  0  0  0  0  0  0  0  0  0
  147.5885  133.7954  160.0141 C   0  0  0  0  0  0  0  0  0  0  0  0
  147.9087  132.7076  159.0925 N   0  0  0  0  0  0  0  0  0  0  0  0
  148.2150  133.1752  157.8612 C   0  0  0  0  0  0  0  0  0  0  0  0
  149.4568  133.6660  157.6088 N   0  0  0  0  0  0  0  0  0  0  0  0
  149.7464  134.1464  156.3955 C   0  0  0  0  0  0  0  0  0  0  0  0
  148.9564  134.2369  155.3231 N   0  0  0  0  0  0  0  0  0  0  0  0
  147.7072  133.7528  155.5802 C   0  0  0  0  0  0  0  0  0  0  0  0
  147.2608  133.1996  156.8118 C   0  0  0  0  0  0  0  0  0  0  0  0
  145.9356  132.8004  156.7075 N   0  0  0  0  0  0  0  0  0  0  0  0
  145.6139  133.1030  155.4793 C   0  0  0  0  0  0  0  0  0  0  0  0
  146.6103  133.6987  154.7367 N   0  0  0  0  0  0  0  0  0  0  0  0
  146.5167  134.1421  153.3523 C   0  0  0  0  0  0  0  0  0  0  0  0
  146.1433  133.0269  152.3298 C   0  0  0  0  0  0  0  0  0  0  0  0
  146.7862  131.6704  152.7388 C   0  0  0  0  0  0  0  0  0  0  0  0
  148.1958  131.7457  152.8094 O   0  0  0  0  0  0  0  0  0  0  0  0
  144.5984  132.9232  152.2628 C   0  0  0  0  0  0  0  0  0  0  0  0
  144.1058  132.0540  151.0925 C   0  0  0  0  0  0  0  0  0  0  0  0
  144.6059  132.5719  149.8668 O   0  0  0  0  0  0  0  0  0  0  0  0
  146.0252  132.5467  149.7973 C   0  0  0  0  0  0  0  0  0  0  0  0
  146.6297  133.4221  150.9114 C   0  0  0  0  0  0  0  0  0  0  0  0
  149.0305  128.9077  157.9831 H   0  0  0  0  0  0  0  0  0  0  0  0
  148.8136  129.4690  159.6369 H   0  0  0  0  0  0  0  0  0  0  0  0
  149.6391  130.4841  158.4505 H   0  0  0  0  0  0  0  0  0  0  0  0
  147.5134  130.7434  157.1631 H   0  0  0  0  0  0  0  0  0  0  0  0
  146.7394  129.5864  158.2104 H   0  0  0  0  0  0  0  0  0  0  0  0
  146.0277  131.9044  158.7424 H   0  0  0  0  0  0  0  0  0  0  0  0
  146.0362  130.2909  160.6358 H   0  0  0  0  0  0  0  0  0  0  0  0
  147.7285  130.6038  160.9240 H   0  0  0  0  0  0  0  0  0  0  0  0
  144.8462  133.0043  160.4070 H   0  0  0  0  0  0  0  0  0  0  0  0
  144.3804  131.7419  161.5235 H   0  0  0  0  0  0  0  0  0  0  0  0
  143.6689  133.9906  162.3421 H   0  0  0  0  0  0  0  0  0  0  0  0
  144.7657  133.2135  163.4590 H   0  0  0  0  0  0  0  0  0  0  0  0
  145.4987  135.3770  161.4227 H   0  0  0  0  0  0  0  0  0  0  0  0
  145.4327  135.5741  163.1576 H   0  0  0  0  0  0  0  0  0  0  0  0
  147.7890  135.2190  162.3624 H   0  0  0  0  0  0  0  0  0  0  0  0
  147.2736  133.9896  163.4852 H   0  0  0  0  0  0  0  0  0  0  0  0
  148.4068  132.8549  161.7421 H   0  0  0  0  0  0  0  0  0  0  0  0
  146.6712  134.2893  159.6919 H   0  0  0  0  0  0  0  0  0  0  0  0
  148.3789  134.5469  159.9777 H   0  0  0  0  0  0  0  0  0  0  0  0
  150.7533  134.5148  156.2652 H   0  0  0  0  0  0  0  0  0  0  0  0
  144.6283  132.9080  155.0816 H   0  0  0  0  0  0  0  0  0  0  0  0
  145.7975  134.9606  153.3042 H   0  0  0  0  0  0  0  0  0  0  0  0
  147.4780  134.5844  153.0873 H   0  0  0  0  0  0  0  0  0  0  0  0
  146.4312  131.3313  153.7103 H   0  0  0  0  0  0  0  0  0  0  0  0
  146.5165  130.8849  152.0330 H   0  0  0  0  0  0  0  0  0  0  0  0
  148.5546  131.4414  151.9897 H   0  0  0  0  0  0  0  0  0  0  0  0
  144.1929  132.5455  153.2017 H   0  0  0  0  0  0  0  0  0  0  0  0
  144.1739  133.9204  152.1387 H   0  0  0  0  0  0  0  0  0  0  0  0
  144.4000  131.0110  151.2136 H   0  0  0  0  0  0  0  0  0  0  0  0
  143.0165  132.0675  151.0554 H   0  0  0  0  0  0  0  0  0  0  0  0
  146.3861  131.5194  149.8519 H   0  0  0  0  0  0  0  0  0  0  0  0
  146.3301  132.9281  148.8229 H   0  0  0  0  0  0  0  0  0  0  0  0
  146.3566  134.4591  150.7113 H   0  0  0  0  0  0  0  0  0  0  0  0
  147.7175  133.3768  150.8501 H   0  0  0  0  0  0  0  0  0  0  0  0
  146.5363  131.7642  162.4418 H   0  0  0  0  0  0  0  0  0  0  0  0
  1  2  1  0  0  0  0
  1 31  1  0  0  0  0
  1 32  1  0  0  0  0
  1 33  1  0  0  0  0
  2  3  1  0  0  0  0
  2 34  1  0  0  0  0
  2 35  1  0  0  0  0
  3 12  1  0  0  0  0
  3  4  1  0  0  0  0
  3 36  1  0  0  0  0
  4  5  1  0  0  0  0
  4 37  1  0  0  0  0
  4 38  1  0  0  0  0
  5 10  1  0  0  0  0
  5  6  1  0  0  0  0
  5 65  1  0  0  0  0
  6  7  1  0  0  0  0
  6 39  1  0  0  0  0
  6 40  1  0  0  0  0
  7  8  1  0  0  0  0
  7 41  1  0  0  0  0
  7 42  1  0  0  0  0
  8  9  1  0  0  0  0
  8 43  1  0  0  0  0
  8 44  1  0  0  0  0
  9 10  1  0  0  0  0
  9 45  1  0  0  0  0
  9 46  1  0  0  0  0
 10 11  1  0  0  0  0
 10 47  1  0  0  0  0
 11 12  1  0  0  0  0
 11 48  1  0  0  0  0
 11 49  1  0  0  0  0
 12 13  1  0  0  0  0
 13 18  1  0  0  0  0
 13 14  2  0  0  0  0
 14 15  1  0  0  0  0
 15 16  2  0  0  0  0
 15 50  1  0  0  0  0
 16 17  1  0  0  0  0
 17 21  1  0  0  0  0
 17 18  2  0  0  0  0
 18 19  1  0  0  0  0
 19 20  2  0  0  0  0
 20 21  1  0  0  0  0
 20 51  1  0  0  0  0
 21 22  1  0  0  0  0
 22 23  1  0  0  0  0
 22 52  1  0  0  0  0
 22 53  1  0  0  0  0
 23 30  1  0  0  0  0
 23 24  1  0  0  0  0
 23 26  1  0  0  0  0
 24 25  1  0  0  0  0
 24 54  1  0  0  0  0
 24 55  1  0  0  0  0
 25 56  1  0  0  0  0
 26 27  1  0  0  0  0
 26 57  1  0  0  0  0
 26 58  1  0  0  0  0
 27 28  1  0  0  0  0
 27 59  1  0  0  0  0
 27 60  1  0  0  0  0
 28 29  1  0  0  0  0
 29 30  1  0  0  0  0
 29 61  1  0  0  0  0
 29 62  1  0  0  0  0
 30 63  1  0  0  0  0
 30 64  1  0  0  0  0
M  CHG  1   5   1
M  END
> <s_m_source_file>
AV-unprocessed.smi

> <i_m_source_file_index>
282

> <i_lp_mmshare_version>
43012

> <i_f3d_flags>
0

> <s_epik_input>
W0NIMl0xW0NIMl1bQ0gyXVtDSDJdW0NAQEhdKE4xMilbQ0gyXU4oW0NAQEhdKFtDSDJdMilbQ0gyXVtDSDNdKWMobltjSF1uMyljKGMzNCluW2NIXW40W0NIMl1DNShbQ0gyXVtPSF0pW0NIMl1bQ0gyXU9bQ0gyXVtDSDJdNQ==

> <s_epik_cmdline>
J2VwaWtfcHl0aG9uJywgJy1waCcsICc3LjAnLCAnLXRuJywgJzgnLCAnLW1hJywgJzIwMCcsICctbWV0YWxfYmluZGluZycsICctaW1hZScsICc8aW5maWxlLm1hZT4nLCAnLW9tYWUnLCAnPG91dGZpbGUubWFlPic=

> <r_lp_tautomer_probability>
1

> <r_epik_Ionization_Penalty>
0.00308583

> <r_epik_Ionization_Penalty_Charging>
0.00300384

> <r_epik_Ionization_Penalty_Neutral>
8.19894e-05

> <r_epik_State_Penalty>
-0

> <r_epik_Charging_Adjusted_Penalty>
0.00300384

> <i_epik_Tot_Q>
1

> <i_epik_Tot_abs_Q>
1

> <r_epik_Metal_State_Penalty>
-0

> <b_epik_Metal_Only>
0

> <s_lp_Force_Field>
OPLS_2005

> <r_lp_Energy>
59.0592

> <b_lp_Chiralities_Consistent>
1

> <s_lp_Variant>
AV-unprocessed.smi:282-4

> <Gold.Version>
5.8.1

> <Gold.Id.Protein>
6NUR|6NUR_protein|mol2

> <Gold.PLP.Fitness>
43.3891

> <Gold.PLP.PLP>
-36.2064

> <Gold.PLP.part.hbond>
-2.0000

> <Gold.PLP.part.metal>
0.0000

> <Gold.PLP.part.buried>
-6.0510

> <Gold.PLP.part.nonpolar>
-28.1192

> <Gold.PLP.part.repulsive>
0.3107

> <Gold.PLP.ligand.clash>
0.0000

> <Gold.PLP.ligand.torsion>
1.0574

> <Gold.PLP.Chemscore.Hbond>
2.0000

> <Gold.PLP.Chemscore.CHOScore>
1.0000

> <Gold.PLP.Chemscore.Metal>
0.0000

> <Gold.Chemscore.Hbonds>
donor molecule, donor type, donor heavy atom, donor atom, acceptor molecule, acceptor atom, score
      L1  H    25    56       P1 10747  1.00
      P1  H  6896  6907       L1    14  0.70
      L1  C    20    51       P1 10957  1.00

> <Gold.PLP.Chemscore.Internal.Correction>
0.2975

> <Gold.Rescore>
     Score         DG    S(hbond)    S(metal)    S(lipo)     H(rot)  DE(clash)    DE(int)     intcor
     15.27     -16.11       1.92        0.00      89.85       2.46       0.01       0.82       ----

> <Gold.Chemscore.Fitness>
15.2723

> <Gold.Chemscore.DG>
-16.1087

> <Gold.Chemscore.ZeroCoef>
-5.4800

> <Gold.Chemscore.Hbond>
1.9185

> <Gold.Chemscore.Metal>
0.0000

> <Gold.Chemscore.Lipo>
89.8497

> <Gold.Chemscore.Internal_Hbond>
0.0000

> <Gold.Chemscore.DEClash>
0.0149

> <Gold.Chemscore.DEInternal>
0.8216

> <Gold.Chemscore.Rot>
2.4576

> <Gold.Chemscore.Internal.Correction>
   9.000000E+99

> <Gold.Chemscore.Hbonds>
donor molecule, donor type, donor heavy atom, donor atom, acceptor molecule, acceptor atom, score
      L1  H    25    56       P1 10747  0.99
      P1  H  6896  6907       L1    14  0.65

> <Gold.Chemscore.Hbond.Weighted>
-6.4079

> <Gold.Chemscore.Metal.Weighted>
-0.0000

> <Gold.Chemscore.Lipo.Weighted>
-10.5124

> <Gold.Chemscore.Internal_Hbond.Weighted>
0.0000

> <Gold.Chemscore.DEClash.Weighted>
0.0149

> <Gold.Chemscore.DEInternal.Weighted>
0.8216

> <Gold.Chemscore.Rot.Weighted>
6.2915

> <Gold.Chemscore.Internal.Correction.Weighted>
   9.000000E+99

> <Gold.Protein.RotatedTorsions>
[ 6907 6896 6895 6894 ] final -101.07 input  -60.11 | X-H torsion
[ 7974 7965 7964 7962 ] final  126.08 input  175.53 | X-H torsion
[ 8008 7997 7996 7995 ] final  -54.56 input   59.86 | X-H torsion
[ 10167 10162 10161 10158 ] final   23.94 input  -65.29 | X-H torsion
[ 10718 10713 10712 10709 ] final   74.18 input   66.30 | X-H torsion
[ 10763 10752 10751 10750 ] final  -86.97 input  -60.55 | X-H torsion
[ 11005 11000 10999 10996 ] final  153.27 input  -57.11 | X-H torsion

> <Gold.Protein.ActiveResidues>
 VAL166  LYS551  ARG553  GLY616  TRP617  ASP618  TYR619  PRO620  LYS621  CYS622 
 ASP623  PHE694  ASN695  SER759  ASP760  ASP761  ALA762  ILE779  LEU786  VAL792 
 PHE793  MET794  SER795  GLU796  ALA797  LYS798  CYS799  TRP800  GLU811  SER814 

> <Gold.Protein.RotatedAtoms>
  150.7140  134.0791  159.3891 H   0  0  0  0  0  0  0  0  0  0  0  0  # atno 6907 bound_to 6896
  151.8774  135.0464  160.0495 H   0  0  0  0  0  0  0  0  0  0  0  0  # atno 6908 bound_to 6896
  152.2595  133.5249  159.5409 H   0  0  0  0  0  0  0  0  0  0  0  0  # atno 6909 bound_to 6896
  145.0658  139.3769  143.4983 H   0  0  0  0  0  0  0  0  0  0  0  0  # atno 7974 bound_to 7965
  154.4166  140.1173  156.5335 H   0  0  0  0  0  0  0  0  0  0  0  0  # atno 8008 bound_to 7997
  155.6581  140.3496  155.4753 H   0  0  0  0  0  0  0  0  0  0  0  0  # atno 8009 bound_to 7997
  155.9736  140.1146  157.0780 H   0  0  0  0  0  0  0  0  0  0  0  0  # atno 8010 bound_to 7997
  140.5228  143.9973  150.6425 H   0  0  0  0  0  0  0  0  0  0  0  0  # atno 10167 bound_to 10162
  157.6581  130.9665  150.1175 H   0  0  0  0  0  0  0  0  0  0  0  0  # atno 10718 bound_to 10713
  154.6285  135.5430  153.7653 H   0  0  0  0  0  0  0  0  0  0  0  0  # atno 10763 bound_to 10752
  153.0272  135.6430  154.1336 H   0  0  0  0  0  0  0  0  0  0  0  0  # atno 10764 bound_to 10752
  154.1268  135.2917  155.3175 H   0  0  0  0  0  0  0  0  0  0  0  0  # atno 10765 bound_to 10752
  140.1382  134.8756  157.2296 H   0  0  0  0  0  0  0  0  0  0  0  0  # atno 11005 bound_to 11000
  146.3526  140.0378  142.8645 LP  0  0  0  0  0  0  0  0  0  0  0  0  # atno 17320 bound_to 7965
  145.1353  140.9541  143.4520 LP  0  0  0  0  0  0  0  0  0  0  0  0  # atno 17321 bound_to 7965
  140.3327  143.3068  152.0671 LP  0  0  0  0  0  0  0  0  0  0  0  0  # atno 17342 bound_to 10162
  139.4929  144.6498  151.6700 LP  0  0  0  0  0  0  0  0  0  0  0  0  # atno 17343 bound_to 10162
  156.2055  130.3663  149.8735 LP  0  0  0  0  0  0  0  0  0  0  0  0  # atno 17370 bound_to 10713
  156.6627  130.8788  151.3550 LP  0  0  0  0  0  0  0  0  0  0  0  0  # atno 17371 bound_to 10713
  140.2755  134.3411  155.7359 LP  0  0  0  0  0  0  0  0  0  0  0  0  # atno 17394 bound_to 11000
  141.2182  133.7448  156.9286 LP  0  0  0  0  0  0  0  0  0  0  0  0  # atno 17395 bound_to 11000

$$$$
