AV-unprocessed.smi:112|AV-procd|sdf|1089|dock1
  -GOLD-   2262018193D 1   1.00000     0.00000
 Structure written by MMmdl.
 54 57  0  0  0  0  0  0  0  0  3 V2000
  147.2881  133.6369  155.4444 C   0  0  0  0  0  0  0  0  0  0  0  0
  146.3704  134.3610  154.4712 C   0  0  0  0  0  0  0  0  0  0  0  0
  146.3192  134.0421  153.1572 C   0  0  0  0  0  0  0  0  0  0  0  0
  145.4917  134.6777  152.2468 N   0  0  0  0  0  0  0  0  0  0  0  0
  145.4462  134.2945  150.7806 C   0  0  2  0  0  0  0  0  0  0  0  0
  144.0566  133.7784  150.3833 C   0  0  0  0  0  0  0  0  0  0  0  0
  144.4149  132.6768  149.4106 C   0  0  2  0  0  0  0  0  0  0  0  0
  143.3604  131.7510  149.2387 O   0  0  0  0  0  0  0  0  0  0  0  0
  145.6904  132.0906  150.0292 C   0  0  2  0  0  0  0  0  0  0  0  0
  145.4536  131.1073  151.1974 C   0  0  0  0  0  0  0  0  0  0  0  0
  146.6901  130.7291  151.7639 O   0  0  0  0  0  0  0  0  0  0  0  0
  146.3535  133.2571  150.5233 O   0  0  0  0  0  0  0  0  0  0  0  0
  144.6782  135.7454  152.6776 C   0  0  0  0  0  0  0  0  0  0  0  0
  143.9516  136.3438  151.8805 O   0  0  0  0  0  0  0  0  0  0  0  0
  144.7119  136.1066  154.0430 N   0  0  0  0  0  0  0  0  0  0  0  0
  143.8376  137.2090  154.5038 C   0  0  0  0  0  0  0  0  0  0  0  0
  142.3300  136.9217  154.3276 C   0  0  0  0  0  0  0  0  0  0  0  0
  141.9716  135.7775  154.0464 O   0  0  0  0  0  0  0  0  0  0  0  0
  141.4644  137.9521  154.4971 N   0  0  0  0  0  0  0  0  0  0  0  0
  141.8879  139.3225  154.8336 C   0  0  0  0  0  0  0  0  0  0  0  0
  140.5959  140.1601  154.9501 C   0  0  0  0  0  0  0  0  0  0  0  0
  139.5167  139.1625  154.6494 C   0  0  0  0  0  0  0  0  0  0  0  0
  138.1333  139.4071  154.6172 C   0  0  0  0  0  0  0  0  0  0  0  0
  137.2557  138.3364  154.3146 C   0  0  0  0  0  0  0  0  0  0  0  0
  135.7961  138.5556  154.2744 N   0  3  0  0  0  0  0  0  0  0  0  0
  135.0626  137.5749  154.2008 O   0  0  0  0  0  0  0  0  0  0  0  0
  135.3804  139.7091  154.3167 O   0  5  0  0  0  0  0  0  0  0  0  0
  137.7998  137.0510  154.0520 C   0  0  0  0  0  0  0  0  0  0  0  0
  139.1931  136.8233  154.0880 C   0  0  0  0  0  0  0  0  0  0  0  0
  140.0486  137.9040  154.3932 C   0  0  0  0  0  0  0  0  0  0  0  0
  145.5256  135.4387  154.9902 C   0  0  0  0  0  0  0  0  0  0  0  0
  145.5019  135.7640  156.1789 O   0  0  0  0  0  0  0  0  0  0  0  0
  147.8759  132.8626  154.9504 H   0  0  0  0  0  0  0  0  0  0  0  0
  146.7066  133.1597  156.2341 H   0  0  0  0  0  0  0  0  0  0  0  0
  147.9833  134.3385  155.9070 H   0  0  0  0  0  0  0  0  0  0  0  0
  146.9669  133.2475  152.8207 H   0  0  0  0  0  0  0  0  0  0  0  0
  145.7575  135.1855  150.2326 H   0  0  0  0  0  0  0  0  0  0  0  0
  143.5461  133.3763  151.2605 H   0  0  0  0  0  0  0  0  0  0  0  0
  143.4467  134.5689  149.9452 H   0  0  0  0  0  0  0  0  0  0  0  0
  144.6549  133.1180  148.4419 H   0  0  0  0  0  0  0  0  0  0  0  0
  142.5938  132.0806  149.6823 H   0  0  0  0  0  0  0  0  0  0  0  0
  146.2927  131.6093  149.2574 H   0  0  0  0  0  0  0  0  0  0  0  0
  144.7990  131.5244  151.9620 H   0  0  0  0  0  0  0  0  0  0  0  0
  144.9810  130.1921  150.8413 H   0  0  0  0  0  0  0  0  0  0  0  0
  147.3609  130.8112  151.1036 H   0  0  0  0  0  0  0  0  0  0  0  0
  144.0279  137.4399  155.5527 H   0  0  0  0  0  0  0  0  0  0  0  0
  144.0928  138.1299  153.9783 H   0  0  0  0  0  0  0  0  0  0  0  0
  142.4388  139.3395  155.7749 H   0  0  0  0  0  0  0  0  0  0  0  0
  142.5301  139.7302  154.0520 H   0  0  0  0  0  0  0  0  0  0  0  0
  140.4670  140.5707  155.9519 H   0  0  0  0  0  0  0  0  0  0  0  0
  140.5743  140.9764  154.2275 H   0  0  0  0  0  0  0  0  0  0  0  0
  137.7602  140.3995  154.8228 H   0  0  0  0  0  0  0  0  0  0  0  0
  137.1499  136.2205  153.8189 H   0  0  0  0  0  0  0  0  0  0  0  0
  139.5642  135.8320  153.8823 H   0  0  0  0  0  0  0  0  0  0  0  0
  1  2  1  0  0  0  0
  1 33  1  0  0  0  0
  1 34  1  0  0  0  0
  1 35  1  0  0  0  0
  2 31  1  0  0  0  0
  2  3  2  0  0  0  0
  3  4  1  0  0  0  0
  3 36  1  0  0  0  0
  4  5  1  0  0  0  0
  4 13  1  0  0  0  0
  5 12  1  0  0  0  0
  5  6  1  0  0  0  0
  5 37  1  0  0  0  0
  6  7  1  0  0  0  0
  6 38  1  0  0  0  0
  6 39  1  0  0  0  0
  7  8  1  0  0  0  0
  7  9  1  0  0  0  0
  7 40  1  0  0  0  0
  8 41  1  0  0  0  0
  9 10  1  0  0  0  0
  9 12  1  0  0  0  0
  9 42  1  0  0  0  0
 10 11  1  0  0  0  0
 10 43  1  0  0  0  0
 10 44  1  0  0  0  0
 11 45  1  0  0  0  0
 13 14  2  0  0  0  0
 13 15  1  0  0  0  0
 15 16  1  0  0  0  0
 15 31  1  0  0  0  0
 16 17  1  0  0  0  0
 16 46  1  0  0  0  0
 16 47  1  0  0  0  0
 17 18  2  0  0  0  0
 17 19  1  0  0  0  0
 19 30  1  0  0  0  0
 19 20  1  0  0  0  0
 20 21  1  0  0  0  0
 20 48  1  0  0  0  0
 20 49  1  0  0  0  0
 21 22  1  0  0  0  0
 21 50  1  0  0  0  0
 21 51  1  0  0  0  0
 22 30  2  0  0  0  0
 22 23  1  0  0  0  0
 23 24  2  0  0  0  0
 23 52  1  0  0  0  0
 24 25  1  0  0  0  0
 24 28  1  0  0  0  0
 25 26  2  0  0  0  0
 25 27  1  0  0  0  0
 28 29  2  0  0  0  0
 28 53  1  0  0  0  0
 29 30  1  0  0  0  0
 29 54  1  0  0  0  0
 31 32  2  0  0  0  0
M  CHG  1  25   1
M  CHG  1  27  -1
M  END
> <s_m_source_file>
AV-unprocessed.smi

> <i_m_source_file_index>
112

> <i_lp_mmshare_version>
43012

> <i_f3d_flags>
0

> <s_epik_input>
W09IXVtDSDJdW0NAQEhdKE8xKVtDQEhdKFtPSF0pW0NIMl1bQ0BIXTFuKFtjSF1jMltDSDNdKWMoPU8pbihjMj1PKVtDSDJdQyg9TylOKFtDSDJdW0NIMl0zKWMoYzM0KVtjSF1bY0hdYyhbY0hdNClbTitdKD1PKVtPLV0=

> <s_epik_cmdline>
J2VwaWtfcHl0aG9uJywgJy1waCcsICc3LjAnLCAnLXRuJywgJzgnLCAnLW1hJywgJzIwMCcsICctbWV0YWxfYmluZGluZycsICctaW1hZScsICc8aW5maWxlLm1hZT4nLCAnLW9tYWUnLCAnPG91dGZpbGUubWFlPic=

> <r_lp_tautomer_probability>
1

> <r_epik_Ionization_Penalty>
2.5696e-07

> <r_epik_Ionization_Penalty_Charging>
1.04886e-08

> <r_epik_Ionization_Penalty_Neutral>
2.46472e-07

> <r_epik_State_Penalty>
-0

> <r_epik_Charging_Adjusted_Penalty>
1.04886e-08

> <i_epik_Tot_Q>
0

> <i_epik_Tot_abs_Q>
2

> <r_epik_Metal_State_Penalty>
-0

> <b_epik_Metal_Only>
0

> <s_epik_Chemistry_Notes>
This compound contains an acetal/aminal-like group ( X-CH(R)-Y where X, Y are N, S, or O) that may be acid/base labile, releasing an aldehyde.

> <s_lp_Force_Field>
OPLS_2005

> <r_lp_Energy>
59.9345

> <b_lp_Chiralities_Consistent>
1

> <s_lp_Variant>
AV-unprocessed.smi:112-7

> <Gold.Version>
5.8.1

> <Gold.Id.Protein>
6NUR|6NUR_protein|mol2

> <Gold.PLP.Fitness>
44.8917

> <Gold.PLP.PLP>
-39.2357

> <Gold.PLP.part.hbond>
-3.0000

> <Gold.PLP.part.metal>
0.0000

> <Gold.PLP.part.buried>
-8.9170

> <Gold.PLP.part.nonpolar>
-27.4533

> <Gold.PLP.part.repulsive>
0.6222

> <Gold.PLP.ligand.clash>
0.0000

> <Gold.PLP.ligand.torsion>
0.1985

> <Gold.PLP.Chemscore.Hbond>
2.0000

> <Gold.PLP.Chemscore.CHOScore>
0.0000

> <Gold.PLP.Chemscore.Metal>
0.0000

> <Gold.Chemscore.Hbonds>
donor molecule, donor type, donor heavy atom, donor atom, acceptor molecule, acceptor atom, score
      L1  H    11    45       P1 10747  1.00
      P1  H 10785 10796       L1     8  1.00

> <Gold.PLP.Chemscore.Internal.Correction>
0.0531

> <Gold.Rescore>
     Score         DG    S(hbond)    S(metal)    S(lipo)     H(rot)  DE(clash)    DE(int)     intcor
     10.96     -13.53       1.95        0.00      85.26       3.29       0.02       2.54       ----

> <Gold.Chemscore.Fitness>
10.9631

> <Gold.Chemscore.DG>
-13.5294

> <Gold.Chemscore.ZeroCoef>
-5.4800

> <Gold.Chemscore.Hbond>
1.9461

> <Gold.Chemscore.Metal>
0.0000

> <Gold.Chemscore.Lipo>
85.2643

> <Gold.Chemscore.Internal_Hbond>
0.0000

> <Gold.Chemscore.DEClash>
0.0236

> <Gold.Chemscore.DEInternal>
2.5427

> <Gold.Chemscore.Rot>
3.2916

> <Gold.Chemscore.Internal.Correction>
   9.000000E+99

> <Gold.Chemscore.Hbonds>
donor molecule, donor type, donor heavy atom, donor atom, acceptor molecule, acceptor atom, score
      L1  H    11    45       P1 10747  1.00
      P1  H 10785 10796       L1     8  0.82

> <Gold.Chemscore.Hbond.Weighted>
-6.5000

> <Gold.Chemscore.Metal.Weighted>
-0.0000

> <Gold.Chemscore.Lipo.Weighted>
-9.9759

> <Gold.Chemscore.Internal_Hbond.Weighted>
0.0000

> <Gold.Chemscore.DEClash.Weighted>
0.0236

> <Gold.Chemscore.DEInternal.Weighted>
2.5427

> <Gold.Chemscore.Rot.Weighted>
8.4265

> <Gold.Chemscore.Internal.Correction.Weighted>
   9.000000E+99

> <Gold.Protein.RotatedTorsions>
[ 6907 6896 6895 6894 ] final -107.29 input  -60.11 | X-H torsion
[ 7974 7965 7964 7962 ] final  -84.88 input  175.53 | X-H torsion
[ 8008 7997 7996 7995 ] final  126.65 input   59.86 | X-H torsion
[ 10167 10162 10161 10158 ] final   -6.03 input  -65.29 | X-H torsion
[ 10718 10713 10712 10709 ] final  147.67 input   66.30 | X-H torsion
[ 10763 10752 10751 10750 ] final  142.08 input  -60.55 | X-H torsion
[ 11005 11000 10999 10996 ] final -104.68 input  -57.11 | X-H torsion

> <Gold.Protein.ActiveResidues>
 VAL166  LYS551  ARG553  GLY616  TRP617  ASP618  TYR619  PRO620  LYS621  CYS622 
 ASP623  PHE694  ASN695  SER759  ASP760  ASP761  ALA762  ILE779  LEU786  VAL792 
 PHE793  MET794  SER795  GLU796  ALA797  LYS798  CYS799  TRP800  GLU811  SER814 

> <Gold.Protein.RotatedAtoms>
  150.7436  133.9849  159.3588 H   0  0  0  0  0  0  0  0  0  0  0  0  # atno 6907 bound_to 6896
  151.7793  135.0764  160.0381 H   0  0  0  0  0  0  0  0  0  0  0  0  # atno 6908 bound_to 6896
  152.3285  133.5895  159.5829 H   0  0  0  0  0  0  0  0  0  0  0  0  # atno 6909 bound_to 6896
  145.5008  140.9547  143.1761 H   0  0  0  0  0  0  0  0  0  0  0  0  # atno 7974 bound_to 7965
  156.2870  140.2687  156.2146 H   0  0  0  0  0  0  0  0  0  0  0  0  # atno 8008 bound_to 7997
  155.0229  140.0386  157.2462 H   0  0  0  0  0  0  0  0  0  0  0  0  # atno 8009 bound_to 7997
  154.7420  140.2727  155.6370 H   0  0  0  0  0  0  0  0  0  0  0  0  # atno 8010 bound_to 7997
  140.6983  143.6240  150.8585 H   0  0  0  0  0  0  0  0  0  0  0  0  # atno 10167 bound_to 10162
  157.3181  131.0899  151.1262 H   0  0  0  0  0  0  0  0  0  0  0  0  # atno 10718 bound_to 10713
  153.9499  135.2971  155.3439 H   0  0  0  0  0  0  0  0  0  0  0  0  # atno 10763 bound_to 10752
  154.7432  135.5015  153.9161 H   0  0  0  0  0  0  0  0  0  0  0  0  # atno 10764 bound_to 10752
  153.0999  135.6731  153.9800 H   0  0  0  0  0  0  0  0  0  0  0  0  # atno 10765 bound_to 10752
  141.1089  133.8743  157.1640 H   0  0  0  0  0  0  0  0  0  0  0  0  # atno 11005 bound_to 11000
  144.7781  139.6585  143.7166 LP  0  0  0  0  0  0  0  0  0  0  0  0  # atno 17320 bound_to 7965
  146.2227  139.5666  142.9607 LP  0  0  0  0  0  0  0  0  0  0  0  0  # atno 17321 bound_to 7965
  139.9960  143.5795  152.2893 LP  0  0  0  0  0  0  0  0  0  0  0  0  # atno 17342 bound_to 10162
  139.6467  144.7658  151.2229 LP  0  0  0  0  0  0  0  0  0  0  0  0  # atno 17343 bound_to 10162
  157.2558  130.6635  149.5952 LP  0  0  0  0  0  0  0  0  0  0  0  0  # atno 17370 bound_to 10713
  155.9683  130.4524  150.5772 LP  0  0  0  0  0  0  0  0  0  0  0  0  # atno 17371 bound_to 10713
  139.9973  135.0042  157.0111 LP  0  0  0  0  0  0  0  0  0  0  0  0  # atno 17394 bound_to 11000
  140.4828  134.1272  155.7219 LP  0  0  0  0  0  0  0  0  0  0  0  0  # atno 17395 bound_to 11000

$$$$
