AV-unprocessed.smi:72|AV-procd|sdf|750|dock9
  -GOLD-   2262017 83D 1   1.00000     0.00000
 Structure written by MMmdl.
 29 30  0  0  0  0  0  0  0  0  1 V2000
  153.4938  143.3871  159.5625 N   0  0  0  0  0  0  0  0  0  0  0  0
  152.5949  142.6207  158.8506 C   0  0  0  0  0  0  0  0  0  0  0  0
  151.6216  143.3172  158.1206 N   0  0  0  0  0  0  0  0  0  0  0  0
  150.7720  142.5999  157.4559 C   0  0  0  0  0  0  0  0  0  0  0  0
  150.8288  141.1491  157.4801 N   0  0  0  0  0  0  0  0  0  0  0  0
  149.8359  140.3125  156.7003 C   0  0  1  0  0  0  0  0  0  0  0  0
  148.8172  141.1422  156.2375 O   0  0  0  0  0  0  0  0  0  0  0  0
  148.3191  140.6110  155.0198 C   0  0  1  0  0  0  0  0  0  0  0  0
  147.5781  141.7056  154.2373 C   0  0  0  0  0  0  0  0  0  0  0  0
  147.0499  142.6632  155.1296 O   0  0  0  0  0  0  0  0  0  0  0  0
  149.5914  140.1145  154.3237 C   0  0  2  0  0  0  0  0  0  0  0  0
  149.2799  139.0712  153.4215 O   0  0  0  0  0  0  0  0  0  0  0  0
  150.4498  139.5965  155.4750 C   0  0  1  0  0  0  0  0  0  0  0  0
  151.8180  139.8848  155.2483 O   0  0  0  0  0  0  0  0  0  0  0  0
  151.8557  140.5078  158.2249 C   0  0  0  0  0  0  0  0  0  0  0  0
  151.9453  139.2801  158.2289 O   0  0  0  0  0  0  0  0  0  0  0  0
  152.7445  141.3292  158.9287 N   0  0  0  0  0  0  0  0  0  0  0  0
  149.3865  139.6146  157.4084 H   0  0  0  0  0  0  0  0  0  0  0  0
  147.6621  139.7671  155.2421 H   0  0  0  0  0  0  0  0  0  0  0  0
  150.0854  140.9390  153.8061 H   0  0  0  0  0  0  0  0  0  0  0  0
  150.3244  138.5227  155.6224 H   0  0  0  0  0  0  0  0  0  0  0  0
  154.2373  142.9957  160.1221 H   0  0  0  0  0  0  0  0  0  0  0  0
  153.4746  144.3964  159.5778 H   0  0  0  0  0  0  0  0  0  0  0  0
  149.9779  143.0272  156.8418 H   0  0  0  0  0  0  0  0  0  0  0  0
  148.2316  142.1840  153.5072 H   0  0  0  0  0  0  0  0  0  0  0  0
  146.7409  141.2732  153.6888 H   0  0  0  0  0  0  0  0  0  0  0  0
  147.7583  143.2092  155.4351 H   0  0  0  0  0  0  0  0  0  0  0  0
  149.1091  139.4498  152.5727 H   0  0  0  0  0  0  0  0  0  0  0  0
  152.2259  140.0745  156.0793 H   0  0  0  0  0  0  0  0  0  0  0  0
  1  2  1  0  0  0  0
  1 22  1  0  0  0  0
  1 23  1  0  0  0  0
  2 17  2  0  0  0  0
  2  3  1  0  0  0  0
  3  4  2  0  0  0  0
  4  5  1  0  0  0  0
  4 24  1  0  0  0  0
  5  6  1  0  0  0  0
  5 15  1  0  0  0  0
  6 18  1  0  0  0  0
  6 13  1  0  0  0  0
  6  7  1  0  0  0  0
  7  8  1  0  0  0  0
  8 19  1  0  0  0  0
  8  9  1  0  0  0  0
  8 11  1  0  0  0  0
  9 10  1  0  0  0  0
  9 25  1  0  0  0  0
  9 26  1  0  0  0  0
 10 27  1  0  0  0  0
 11 20  1  0  0  0  0
 11 12  1  0  0  0  0
 11 13  1  0  0  0  0
 12 28  1  0  0  0  0
 13 21  1  0  0  0  0
 13 14  1  0  0  0  0
 14 29  1  0  0  0  0
 15 16  2  0  0  0  0
 15 17  1  0  0  0  0
M  END
> <s_m_source_file>
AV-unprocessed.smi

> <i_m_source_file_index>
72

> <i_lp_mmshare_version>
43012

> <i_f3d_flags>
0

> <s_epik_input>
W05IMl1jMW5bY0hdbihjKD1PKW4xKVtDQEBIXTJPW0NASF0oW0NIMl1bT0hdKVtDQEBIXShbT0hdKVtDQEhdMltPSF0=

> <s_epik_cmdline>
J2VwaWtfcHl0aG9uJywgJy1waCcsICc3LjAnLCAnLXRuJywgJzgnLCAnLW1hJywgJzIwMCcsICctbWV0YWxfYmluZGluZycsICctaW1hZScsICc8aW5maWxlLm1hZT4nLCAnLW9tYWUnLCAnPG91dGZpbGUubWFlPic=

> <r_lp_tautomer_probability>
4.77166e-05

> <r_epik_Ionization_Penalty>
1.3546

> <r_epik_Ionization_Penalty_Charging>
1.46833e-10

> <r_epik_Ionization_Penalty_Neutral>
1.3546

> <r_epik_State_Penalty>
3.51908

> <r_epik_Charging_Adjusted_Penalty>
3.51908

> <i_epik_Tot_Q>
0

> <i_epik_Tot_abs_Q>
0

> <r_epik_Metal_State_Penalty>
3.44088

> <b_epik_Metal_Only>
1

> <s_epik_Chemistry_Notes>
This compound contains an acetal/aminal-like group ( X-CH(R)-Y where X, Y are N, S, or O) that may be acid/base labile, releasing an aldehyde.

> <s_lp_Force_Field>
OPLS_2005

> <r_lp_Energy>
31.5358

> <b_lp_Chiralities_Consistent>
1

> <s_lp_Variant>
AV-unprocessed.smi:72-88

> <Gold.Version>
5.8.1

> <Gold.Id.Protein>
6NUR|6NUR_protein|mol2

> <Gold.PLP.Fitness>
35.9772

> <Gold.PLP.PLP>
-25.2246

> <Gold.PLP.part.hbond>
-3.0732

> <Gold.PLP.part.metal>
0.0000

> <Gold.PLP.part.buried>
-5.3068

> <Gold.PLP.part.nonpolar>
-17.6164

> <Gold.PLP.part.repulsive>
0.1622

> <Gold.PLP.ligand.clash>
0.0000

> <Gold.PLP.ligand.torsion>
0.6588

> <Gold.PLP.Chemscore.Hbond>
2.9440

> <Gold.PLP.Chemscore.CHOScore>
1.0000

> <Gold.PLP.Chemscore.Metal>
0.0000

> <Gold.Chemscore.Hbonds>
donor molecule, donor type, donor heavy atom, donor atom, acceptor molecule, acceptor atom, score
      L1  H    10    27       P1  8028  1.00
      L1  H    12    28       P1  7957  1.00
      P1  H  7989  7998       L1    14  0.94
      L1  C     4    24       P1  8028  1.00

> <Gold.PLP.Chemscore.Internal.Correction>
0.2382

> <Gold.Rescore>
     Score         DG    S(hbond)    S(metal)    S(lipo)     H(rot)  DE(clash)    DE(int)     intcor
      3.62      -4.52       1.93        0.00      25.52       4.06       0.00       0.90       ----

> <Gold.Chemscore.Fitness>
3.6165

> <Gold.Chemscore.DG>
-4.5218

> <Gold.Chemscore.ZeroCoef>
-5.4800

> <Gold.Chemscore.Hbond>
1.9309

> <Gold.Chemscore.Metal>
0.0000

> <Gold.Chemscore.Lipo>
25.5213

> <Gold.Chemscore.Internal_Hbond>
0.0000

> <Gold.Chemscore.DEClash>
0.0009

> <Gold.Chemscore.DEInternal>
0.9044

> <Gold.Chemscore.Rot>
4.0600

> <Gold.Chemscore.Internal.Correction>
   9.000000E+99

> <Gold.Chemscore.Hbonds>
donor molecule, donor type, donor heavy atom, donor atom, acceptor molecule, acceptor atom, score
      L1  H    10    27       P1  8028  0.44
      L1  H    12    28       P1  7957  0.95
      P1  H  7989  7998       L1    14  0.22

> <Gold.Chemscore.Hbond.Weighted>
-6.4494

> <Gold.Chemscore.Metal.Weighted>
-0.0000

> <Gold.Chemscore.Lipo.Weighted>
-2.9860

> <Gold.Chemscore.Internal_Hbond.Weighted>
0.0000

> <Gold.Chemscore.DEClash.Weighted>
0.0009

> <Gold.Chemscore.DEInternal.Weighted>
0.9044

> <Gold.Chemscore.Rot.Weighted>
10.3936

> <Gold.Chemscore.Internal.Correction.Weighted>
   9.000000E+99

> <Gold.Protein.RotatedTorsions>
[ 6907 6896 6895 6894 ] final   -5.91 input  -60.11 | X-H torsion
[ 7974 7965 7964 7962 ] final   58.54 input  175.53 | X-H torsion
[ 8008 7997 7996 7995 ] final  -34.98 input   59.86 | X-H torsion
[ 10167 10162 10161 10158 ] final  -30.76 input  -65.29 | X-H torsion
[ 10718 10713 10712 10709 ] final  173.85 input   66.30 | X-H torsion
[ 10763 10752 10751 10750 ] final   87.54 input  -60.55 | X-H torsion
[ 11005 11000 10999 10996 ] final  170.16 input  -57.11 | X-H torsion

> <Gold.Protein.ActiveResidues>
 VAL166  LYS551  ARG553  GLY616  TRP617  ASP618  TYR619  PRO620  LYS621  CYS622 
 ASP623  PHE694  ASN695  SER759  ASP760  ASP761  ALA762  ILE779  LEU786  VAL792 
 PHE793  MET794  SER795  GLU796  ALA797  LYS798  CYS799  TRP800  GLU811  SER814 

> <Gold.Protein.RotatedAtoms>
  151.4741  135.1048  159.9759 H   0  0  0  0  0  0  0  0  0  0  0  0  # atno 6907 bound_to 6896
  152.4805  133.8239  159.7078 H   0  0  0  0  0  0  0  0  0  0  0  0  # atno 6908 bound_to 6896
  150.8873  133.7229  159.2941 H   0  0  0  0  0  0  0  0  0  0  0  0  # atno 6909 bound_to 6896
  145.9171  139.3699  143.0501 H   0  0  0  0  0  0  0  0  0  0  0  0  # atno 7974 bound_to 7965
  154.4107  140.1669  156.2137 H   0  0  0  0  0  0  0  0  0  0  0  0  # atno 8008 bound_to 7997
  155.9422  140.3407  155.6314 H   0  0  0  0  0  0  0  0  0  0  0  0  # atno 8009 bound_to 7997
  155.6974  140.0741  157.2414 H   0  0  0  0  0  0  0  0  0  0  0  0  # atno 8010 bound_to 7997
  140.7245  143.3824  151.1577 H   0  0  0  0  0  0  0  0  0  0  0  0  # atno 10167 bound_to 10162
  156.9582  131.0052  151.2933 H   0  0  0  0  0  0  0  0  0  0  0  0  # atno 10718 bound_to 10713
  153.1679  135.4539  154.9862 H   0  0  0  0  0  0  0  0  0  0  0  0  # atno 10763 bound_to 10752
  154.7945  135.3232  154.7702 H   0  0  0  0  0  0  0  0  0  0  0  0  # atno 10764 bound_to 10752
  153.8182  135.6949  153.4885 H   0  0  0  0  0  0  0  0  0  0  0  0  # atno 10765 bound_to 10752
  140.3054  134.7561  157.3949 H   0  0  0  0  0  0  0  0  0  0  0  0  # atno 11005 bound_to 11000
  145.8598  140.9482  143.0706 LP  0  0  0  0  0  0  0  0  0  0  0  0  # atno 17320 bound_to 7965
  144.6749  140.0515  143.7478 LP  0  0  0  0  0  0  0  0  0  0  0  0  # atno 17321 bound_to 7965
  139.7415  143.8917  152.3051 LP  0  0  0  0  0  0  0  0  0  0  0  0  # atno 17342 bound_to 10162
  139.8740  144.7053  150.8954 LP  0  0  0  0  0  0  0  0  0  0  0  0  # atno 17343 bound_to 10162
  157.5676  130.8288  149.8348 LP  0  0  0  0  0  0  0  0  0  0  0  0  # atno 17370 bound_to 10713
  156.0333  130.3758  150.1627 LP  0  0  0  0  0  0  0  0  0  0  0  0  # atno 17371 bound_to 10713
  140.1072  134.5393  155.8298 LP  0  0  0  0  0  0  0  0  0  0  0  0  # atno 17394 bound_to 11000
  141.2119  133.6713  156.6621 LP  0  0  0  0  0  0  0  0  0  0  0  0  # atno 17395 bound_to 11000

$$$$
