AV-unprocessed.smi:526|AV-procd|sdf|2814|dock1
  -GOLD-   2262023293D 1   1.00000     0.00000
 Structure written by MMmdl.
 29 29  0  0  0  0  0  0  0  0  3 V2000
  152.0663  145.1176  160.3836 C   0  0  0  0  0  0  0  0  0  0  0  0
  152.3571  143.8064  160.3570 C   0  0  0  0  0  0  0  0  0  0  0  0
  152.6409  143.0237  161.6253 C   0  0  0  0  0  0  0  0  0  0  0  0
  152.4217  143.0190  159.0579 C   0  0  0  0  0  0  0  0  0  0  0  0
  150.9081  143.1508  158.0523 S   0  0  0  0  0  0  0  0  0  0  0  0
  150.9287  141.7163  156.9556 C   0  0  0  0  0  0  0  0  0  0  0  0
  149.9519  141.5947  156.1417 N   0  0  0  0  0  0  0  0  0  0  0  0
  149.9187  140.5052  155.2547 C   0  0  0  0  0  0  0  0  0  0  0  0
  148.7160  140.4410  154.3298 C   0  0  0  0  0  0  0  0  0  0  0  0
  150.9156  139.5743  155.2413 C   0  0  0  0  0  0  0  0  0  0  0  0
  150.9209  138.3646  154.3024 C   0  0  0  0  0  0  0  0  0  0  0  0
  150.9382  136.9988  155.0001 C   0  0  0  0  0  0  0  0  0  0  0  0
  151.9845  136.7046  155.6189 O   0  0  0  0  0  0  0  0  0  0  0  0
  149.9261  136.2685  154.9113 O   0  5  0  0  0  0  0  0  0  0  0  0
  152.0252  139.7498  156.1955 C   0  0  0  0  0  0  0  0  0  0  0  0
  152.9584  138.9481  156.2221 O   0  0  0  0  0  0  0  0  0  0  0  0
  151.9724  140.8220  157.0365 N   0  5  0  0  0  0  0  0  0  0  0  0
  152.0227  145.6654  161.3130 H   0  0  0  0  0  0  0  0  0  0  0  0
  151.8632  145.6628  159.4732 H   0  0  0  0  0  0  0  0  0  0  0  0
  151.8944  142.2425  161.7684 H   0  0  0  0  0  0  0  0  0  0  0  0
  152.6227  143.6705  162.5030 H   0  0  0  0  0  0  0  0  0  0  0  0
  153.6235  142.5548  161.5693 H   0  0  0  0  0  0  0  0  0  0  0  0
  153.2854  143.3180  158.4632 H   0  0  0  0  0  0  0  0  0  0  0  0
  152.5729  141.9683  159.3051 H   0  0  0  0  0  0  0  0  0  0  0  0
  148.1347  139.5390  154.5201 H   0  0  0  0  0  0  0  0  0  0  0  0
  149.0347  140.4366  153.2875 H   0  0  0  0  0  0  0  0  0  0  0  0
  148.0599  141.2997  154.4748 H   0  0  0  0  0  0  0  0  0  0  0  0
  150.0693  138.3957  153.6222 H   0  0  0  0  0  0  0  0  0  0  0  0
  151.7979  138.4264  153.6581 H   0  0  0  0  0  0  0  0  0  0  0  0
  1  2  2  0  0  0  0
  1 18  1  0  0  0  0
  1 19  1  0  0  0  0
  2  3  1  0  0  0  0
  2  4  1  0  0  0  0
  3 20  1  0  0  0  0
  3 21  1  0  0  0  0
  3 22  1  0  0  0  0
  4  5  1  0  0  0  0
  4 23  1  0  0  0  0
  4 24  1  0  0  0  0
  5  6  1  0  0  0  0
  6 17  1  0  0  0  0
  6  7  2  0  0  0  0
  7  8  1  0  0  0  0
  8  9  1  0  0  0  0
  8 10  2  0  0  0  0
  9 25  1  0  0  0  0
  9 26  1  0  0  0  0
  9 27  1  0  0  0  0
 10 11  1  0  0  0  0
 10 15  1  0  0  0  0
 11 12  1  0  0  0  0
 11 28  1  0  0  0  0
 11 29  1  0  0  0  0
 12 13  2  0  0  0  0
 12 14  1  0  0  0  0
 15 16  2  0  0  0  0
 15 17  1  0  0  0  0
M  CHG  1  14  -1
M  CHG  1  17  -1
M  END
> <s_m_source_file>
AV-unprocessed.smi

> <i_m_source_file_index>
526

> <i_lp_mmshare_version>
43012

> <i_f3d_flags>
0

> <s_epik_input>
W0NIMl09QyhbQ0gzXSlbQ0gyXVNjMW5jKFtDSDNdKWMoYyg9TylbbkhdMSlbQ0gyXUMoPU8pW09IXQ==

> <s_epik_cmdline>
J2VwaWtfcHl0aG9uJywgJy1waCcsICc3LjAnLCAnLXRuJywgJzgnLCAnLW1hJywgJzIwMCcsICctbWV0YWxfYmluZGluZycsICctaW1hZScsICc8aW5maWxlLm1hZT4nLCAnLW9tYWUnLCAnPG91dGZpbGUubWFlPic=

> <r_lp_tautomer_probability>
0.660323

> <r_epik_Ionization_Penalty>
6.90042

> <r_epik_Ionization_Penalty_Charging>
0.0120653

> <r_epik_Ionization_Penalty_Neutral>
6.88835

> <r_epik_State_Penalty>
4.79278

> <r_epik_Charging_Adjusted_Penalty>
4.80485

> <i_epik_Tot_Q>
-2

> <i_epik_Tot_abs_Q>
2

> <r_epik_Metal_State_Penalty>
1.03474

> <b_epik_Metal_Only>
1

> <s_lp_Force_Field>
OPLS_2005

> <r_lp_Energy>
11.6225

> <b_lp_Chiralities_Consistent>
1

> <s_lp_Variant>
AV-unprocessed.smi:526-4

> <Gold.Version>
5.8.1

> <Gold.Id.Protein>
6NUR|6NUR_protein|mol2

> <Gold.PLP.Fitness>
46.4155

> <Gold.PLP.PLP>
-37.7257

> <Gold.PLP.part.hbond>
-2.0000

> <Gold.PLP.part.metal>
0.0000

> <Gold.PLP.part.buried>
-2.1519

> <Gold.PLP.part.nonpolar>
-34.0140

> <Gold.PLP.part.repulsive>
0.6210

> <Gold.PLP.ligand.clash>
0.0000

> <Gold.PLP.ligand.torsion>
0.1979

> <Gold.PLP.Chemscore.Hbond>
3.0000

> <Gold.PLP.Chemscore.CHOScore>
0.0000

> <Gold.PLP.Chemscore.Metal>
0.0000

> <Gold.Chemscore.Hbonds>
donor molecule, donor type, donor heavy atom, donor atom, acceptor molecule, acceptor atom, score
      P1  H  7997  8009       L1    16  0.95
      P1  H 10752 10764       L1    13  2.00

> <Gold.PLP.Chemscore.Internal.Correction>
0.0856

> <Gold.Rescore>
     Score         DG    S(hbond)    S(metal)    S(lipo)     H(rot)  DE(clash)    DE(int)     intcor
     13.67     -16.07       1.93        0.00      85.34       2.28       0.10       2.30       ----

> <Gold.Chemscore.Fitness>
13.6657

> <Gold.Chemscore.DG>
-16.0726

> <Gold.Chemscore.ZeroCoef>
-5.4800

> <Gold.Chemscore.Hbond>
1.9312

> <Gold.Chemscore.Metal>
0.0000

> <Gold.Chemscore.Lipo>
85.3413

> <Gold.Chemscore.Internal_Hbond>
0.0000

> <Gold.Chemscore.DEClash>
0.1032

> <Gold.Chemscore.DEInternal>
2.3037

> <Gold.Chemscore.Rot>
2.2823

> <Gold.Chemscore.Internal.Correction>
   9.000000E+99

> <Gold.Chemscore.Hbonds>
donor molecule, donor type, donor heavy atom, donor atom, acceptor molecule, acceptor atom, score
      P1  H  7997  8009       L1    16  0.21
      P1  H 10752 10764       L1    13  0.80

> <Gold.Chemscore.Hbond.Weighted>
-6.4503

> <Gold.Chemscore.Metal.Weighted>
-0.0000

> <Gold.Chemscore.Lipo.Weighted>
-9.9849

> <Gold.Chemscore.Internal_Hbond.Weighted>
0.0000

> <Gold.Chemscore.DEClash.Weighted>
0.1032

> <Gold.Chemscore.DEInternal.Weighted>
2.3037

> <Gold.Chemscore.Rot.Weighted>
5.8426

> <Gold.Chemscore.Internal.Correction.Weighted>
   9.000000E+99

> <Gold.Protein.RotatedTorsions>
[ 6907 6896 6895 6894 ] final  -40.65 input  -60.11 | X-H torsion
[ 7974 7965 7964 7962 ] final  -70.61 input  175.53 | X-H torsion
[ 8008 7997 7996 7995 ] final -151.29 input   59.86 | X-H torsion
[ 10167 10162 10161 10158 ] final  -14.99 input  -65.29 | X-H torsion
[ 10718 10713 10712 10709 ] final  178.23 input   66.30 | X-H torsion
[ 10763 10752 10751 10750 ] final  -52.49 input  -60.55 | X-H torsion
[ 11005 11000 10999 10996 ] final  165.30 input  -57.11 | X-H torsion

> <Gold.Protein.ActiveResidues>
 VAL166  LYS551  ARG553  GLY616  TRP617  ASP618  TYR619  PRO620  LYS621  CYS622 
 ASP623  PHE694  ASN695  SER759  ASP760  ASP761  ALA762  ILE779  LEU786  VAL792 
 PHE793  MET794  SER795  GLU796  ALA797  LYS798  CYS799  TRP800  GLU811  SER814 

> <Gold.Protein.RotatedAtoms>
  150.9759  134.9123  159.7815 H   0  0  0  0  0  0  0  0  0  0  0  0  # atno 6907 bound_to 6896
  152.5206  134.3477  159.9250 H   0  0  0  0  0  0  0  0  0  0  0  0  # atno 6908 bound_to 6896
  151.3485  133.3894  159.2712 H   0  0  0  0  0  0  0  0  0  0  0  0  # atno 6909 bound_to 6896
  145.6887  140.9161  143.0793 H   0  0  0  0  0  0  0  0  0  0  0  0  # atno 7974 bound_to 7965
  155.6371  140.0697  157.2630 H   0  0  0  0  0  0  0  0  0  0  0  0  # atno 8008 bound_to 7997
  154.4192  140.1757  156.1582 H   0  0  0  0  0  0  0  0  0  0  0  0  # atno 8009 bound_to 7997
  155.9886  140.3347  155.6734 H   0  0  0  0  0  0  0  0  0  0  0  0  # atno 8010 bound_to 7997
  140.7211  143.5265  150.9571 H   0  0  0  0  0  0  0  0  0  0  0  0  # atno 10167 bound_to 10162
  156.8936  130.9855  151.3046 H   0  0  0  0  0  0  0  0  0  0  0  0  # atno 10718 bound_to 10713
  154.1435  135.6501  153.4947 H   0  0  0  0  0  0  0  0  0  0  0  0  # atno 10763 bound_to 10752
  153.0159  135.5321  154.6881 H   0  0  0  0  0  0  0  0  0  0  0  0  # atno 10764 bound_to 10752
  154.6149  135.2958  155.0362 H   0  0  0  0  0  0  0  0  0  0  0  0  # atno 10765 bound_to 10752
  140.2547  134.7949  157.3535 H   0  0  0  0  0  0  0  0  0  0  0  0  # atno 11005 bound_to 11000
  144.7003  139.8793  143.7446 LP  0  0  0  0  0  0  0  0  0  0  0  0  # atno 17320 bound_to 7965
  146.0901  139.3890  143.0411 LP  0  0  0  0  0  0  0  0  0  0  0  0  # atno 17321 bound_to 7965
  139.8984  143.6867  152.3135 LP  0  0  0  0  0  0  0  0  0  0  0  0  # atno 17342 bound_to 10162
  139.7207  144.7603  151.0960 LP  0  0  0  0  0  0  0  0  0  0  0  0  # atno 17343 bound_to 10162
  157.6069  130.8554  149.8889 LP  0  0  0  0  0  0  0  0  0  0  0  0  # atno 17370 bound_to 10713
  156.0617  130.3699  150.0968 LP  0  0  0  0  0  0  0  0  0  0  0  0  # atno 17371 bound_to 10713
  140.1523  134.4834  155.7952 LP  0  0  0  0  0  0  0  0  0  0  0  0  # atno 17394 bound_to 11000
  141.2197  133.6867  156.7400 LP  0  0  0  0  0  0  0  0  0  0  0  0  # atno 17395 bound_to 11000

$$$$
