AV-unprocessed.smi:1085|AV-procd|sdf|4723|dock9
  -GOLD-   22720 3253D 1   1.00000     0.00000
 Structure written by MMmdl.
 33 34  0  0  0  0  0  0  0  0  1 V2000
  147.7839  140.0588  155.5480 O   0  0  0  0  0  0  0  0  0  0  0  0
  148.0361  141.2576  155.4335 C   0  0  0  0  0  0  0  0  0  0  0  0
  147.6541  141.9982  154.1521 C   0  0  0  0  0  0  0  0  0  0  0  0
  146.4219  142.7420  154.3330 N   0  0  0  0  0  0  0  0  0  0  0  0
  145.7856  143.5950  153.5270 C   0  0  0  0  0  0  0  0  0  0  0  0
  144.6831  144.0675  154.0872 N   0  0  0  0  0  0  0  0  0  0  0  0
  144.6660  143.4430  155.3233 N   0  0  0  0  0  0  0  0  0  0  0  0
  145.6954  142.6557  155.4750 N   0  0  0  0  0  0  0  0  0  0  0  0
  148.6361  141.9899  156.3852 N   0  0  0  0  0  0  0  0  0  0  0  0
  149.0504  141.5197  157.7065 C   0  0  1  0  0  0  0  0  0  0  0  0
  149.9966  140.3109  157.5779 C   0  0  0  0  0  0  0  0  0  0  0  0
  151.3703  140.7086  157.0130 C   0  0  0  0  0  0  0  0  0  0  0  0
  152.0108  141.8317  157.8435 C   0  0  0  0  0  0  0  0  0  0  0  0
  151.0926  143.0691  157.9347 C   0  0  2  0  0  0  0  0  0  0  0  0
  151.7374  144.2095  158.7493 C   0  0  0  0  0  0  0  0  0  0  0  0
  152.1604  143.7670  159.9339 F   0  0  0  0  0  0  0  0  0  0  0  0
  152.7747  144.7167  158.0830 F   0  0  0  0  0  0  0  0  0  0  0  0
  150.8519  145.1868  158.9445 F   0  0  0  0  0  0  0  0  0  0  0  0
  149.7108  142.6656  158.4993 C   0  0  0  0  0  0  0  0  0  0  0  0
  148.4462  142.6916  153.8662 H   0  0  0  0  0  0  0  0  0  0  0  0
  147.5332  141.2897  153.3311 H   0  0  0  0  0  0  0  0  0  0  0  0
  146.1305  143.8709  152.5414 H   0  0  0  0  0  0  0  0  0  0  0  0
  148.8052  142.9652  156.1857 H   0  0  0  0  0  0  0  0  0  0  0  0
  148.1732  141.1935  158.2673 H   0  0  0  0  0  0  0  0  0  0  0  0
  150.1355  139.8609  158.5620 H   0  0  0  0  0  0  0  0  0  0  0  0
  149.5428  139.5399  156.9541 H   0  0  0  0  0  0  0  0  0  0  0  0
  152.0282  139.8392  156.9960 H   0  0  0  0  0  0  0  0  0  0  0  0
  151.2654  141.0330  155.9771 H   0  0  0  0  0  0  0  0  0  0  0  0
  152.2320  141.4605  158.8449 H   0  0  0  0  0  0  0  0  0  0  0  0
  152.9680  142.1061  157.3996 H   0  0  0  0  0  0  0  0  0  0  0  0
  150.9444  143.4451  156.9213 H   0  0  0  0  0  0  0  0  0  0  0  0
  149.0443  143.5287  158.5178 H   0  0  0  0  0  0  0  0  0  0  0  0
  149.8258  142.3533  159.5380 H   0  0  0  0  0  0  0  0  0  0  0  0
  1  2  2  0  0  0  0
  2  3  1  0  0  0  0
  2  9  1  0  0  0  0
  3  4  1  0  0  0  0
  3 20  1  0  0  0  0
  3 21  1  0  0  0  0
  4  8  1  0  0  0  0
  4  5  1  0  0  0  0
  5  6  2  0  0  0  0
  5 22  1  0  0  0  0
  6  7  1  0  0  0  0
  7  8  2  0  0  0  0
  9 10  1  0  0  0  0
  9 23  1  0  0  0  0
 10 19  1  0  0  0  0
 10 11  1  0  0  0  0
 10 24  1  0  0  0  0
 11 12  1  0  0  0  0
 11 25  1  0  0  0  0
 11 26  1  0  0  0  0
 12 13  1  0  0  0  0
 12 27  1  0  0  0  0
 12 28  1  0  0  0  0
 13 14  1  0  0  0  0
 13 29  1  0  0  0  0
 13 30  1  0  0  0  0
 14 15  1  0  0  0  0
 14 19  1  0  0  0  0
 14 31  1  0  0  0  0
 15 16  1  0  0  0  0
 15 17  1  0  0  0  0
 15 18  1  0  0  0  0
 19 32  1  0  0  0  0
 19 33  1  0  0  0  0
M  END
> <s_m_source_file>
AV-unprocessed.smi

> <i_m_source_file_index>
1085

> <i_lp_mmshare_version>
43012

> <i_f3d_flags>
0

> <s_epik_input>
bjFubltjSF1uMVtDSDJdQyg9TylbTkhdW0NAQEhdMltDSDJdW0NIMl1bQ0gyXVtDQEBIXShDKEYpKEYpRilbQ0gyXTI=

> <s_epik_cmdline>
J2VwaWtfcHl0aG9uJywgJy1waCcsICc3LjAnLCAnLXRuJywgJzgnLCAnLW1hJywgJzIwMCcsICctbWV0YWxfYmluZGluZycsICctaW1hZScsICc8aW5maWxlLm1hZT4nLCAnLW9tYWUnLCAnPG91dGZpbGUubWFlPic=

> <r_lp_tautomer_probability>
1

> <r_epik_Ionization_Penalty>
8.41315e-07

> <r_epik_Ionization_Penalty_Charging>
0

> <r_epik_Ionization_Penalty_Neutral>
8.41315e-07

> <r_epik_State_Penalty>
-0

> <r_epik_Charging_Adjusted_Penalty>
0

> <i_epik_Tot_Q>
0

> <i_epik_Tot_abs_Q>
0

> <r_epik_Metal_State_Penalty>
-0

> <b_epik_Metal_Only>
0

> <s_lp_Force_Field>
OPLS_2005

> <r_lp_Energy>
12.3827

> <b_lp_Chiralities_Consistent>
1

> <s_lp_Variant>
AV-unprocessed.smi:1085-4

> <Gold.Version>
5.8.1

> <Gold.Id.Protein>
6NUR|6NUR_protein|mol2

> <Gold.PLP.Fitness>
40.6191

> <Gold.PLP.PLP>
-38.5673

> <Gold.PLP.part.hbond>
-1.0000

> <Gold.PLP.part.metal>
0.0000

> <Gold.PLP.part.buried>
-6.9948

> <Gold.PLP.part.nonpolar>
-31.3665

> <Gold.PLP.part.repulsive>
0.5424

> <Gold.PLP.ligand.clash>
0.0000

> <Gold.PLP.ligand.torsion>
0.4864

> <Gold.PLP.Chemscore.Hbond>
1.0000

> <Gold.PLP.Chemscore.CHOScore>
0.0000

> <Gold.PLP.Chemscore.Metal>
0.0000

> <Gold.Chemscore.Hbonds>
donor molecule, donor type, donor heavy atom, donor atom, acceptor molecule, acceptor atom, score
      L1  H     9    23       P1  8028  1.00

> <Gold.PLP.Chemscore.Internal.Correction>
0.0247

> <Gold.Rescore>
     Score         DG    S(hbond)    S(metal)    S(lipo)     H(rot)  DE(clash)    DE(int)     intcor
      8.59     -10.21       1.00        0.00      56.78       2.05       0.36       1.26       ----

> <Gold.Chemscore.Fitness>
8.5931

> <Gold.Chemscore.DG>
-10.2120

> <Gold.Chemscore.ZeroCoef>
-5.4800

> <Gold.Chemscore.Hbond>
0.9956

> <Gold.Chemscore.Metal>
0.0000

> <Gold.Chemscore.Lipo>
56.7826

> <Gold.Chemscore.Internal_Hbond>
0.0000

> <Gold.Chemscore.DEClash>
0.3634

> <Gold.Chemscore.DEInternal>
1.2555

> <Gold.Chemscore.Rot>
2.0456

> <Gold.Chemscore.Internal.Correction>
   9.000000E+99

> <Gold.Chemscore.Hbonds>
donor molecule, donor type, donor heavy atom, donor atom, acceptor molecule, acceptor atom, score
      L1  H     9    23       P1  8028  1.00

> <Gold.Chemscore.Hbond.Weighted>
-3.3252

> <Gold.Chemscore.Metal.Weighted>
-0.0000

> <Gold.Chemscore.Lipo.Weighted>
-6.6436

> <Gold.Chemscore.Internal_Hbond.Weighted>
0.0000

> <Gold.Chemscore.DEClash.Weighted>
0.3634

> <Gold.Chemscore.DEInternal.Weighted>
1.2555

> <Gold.Chemscore.Rot.Weighted>
5.2368

> <Gold.Chemscore.Internal.Correction.Weighted>
   9.000000E+99

> <Gold.Protein.RotatedTorsions>
[ 6907 6896 6895 6894 ] final   49.72 input  -60.11 | X-H torsion
[ 7974 7965 7964 7962 ] final   68.97 input  175.53 | X-H torsion
[ 8008 7997 7996 7995 ] final  -74.69 input   59.86 | X-H torsion
[ 10167 10162 10161 10158 ] final  102.73 input  -65.29 | X-H torsion
[ 10718 10713 10712 10709 ] final -166.25 input   66.30 | X-H torsion
[ 10763 10752 10751 10750 ] final   47.54 input  -60.55 | X-H torsion
[ 11005 11000 10999 10996 ] final  109.36 input  -57.11 | X-H torsion

> <Gold.Protein.ActiveResidues>
 VAL166  LYS551  ARG553  GLY616  TRP617  ASP618  TYR619  PRO620  LYS621  CYS622 
 ASP623  PHE694  ASN695  SER759  ASP760  ASP761  ALA762  ILE779  LEU786  VAL792 
 PHE793  MET794  SER795  GLU796  ALA797  LYS798  CYS799  TRP800  GLU811  SER814 

> <Gold.Protein.RotatedAtoms>
  152.2939  134.7690  160.0371 H   0  0  0  0  0  0  0  0  0  0  0  0  # atno 6907 bound_to 6896
  151.8227  133.3391  159.3597 H   0  0  0  0  0  0  0  0  0  0  0  0  # atno 6908 bound_to 6896
  150.7242  134.5488  159.5828 H   0  0  0  0  0  0  0  0  0  0  0  0  # atno 6909 bound_to 6896
  145.7962  139.2959  143.1181 H   0  0  0  0  0  0  0  0  0  0  0  0  # atno 7974 bound_to 7965
  154.5352  140.0757  156.8415 H   0  0  0  0  0  0  0  0  0  0  0  0  # atno 8008 bound_to 7997
  155.3292  140.3401  155.4221 H   0  0  0  0  0  0  0  0  0  0  0  0  # atno 8009 bound_to 7997
  156.1821  140.1656  156.8241 H   0  0  0  0  0  0  0  0  0  0  0  0  # atno 8010 bound_to 7997
  139.7324  144.7032  151.0701 H   0  0  0  0  0  0  0  0  0  0  0  0  # atno 10167 bound_to 10162
  156.6651  130.9061  151.3035 H   0  0  0  0  0  0  0  0  0  0  0  0  # atno 10718 bound_to 10713
  152.9799  135.5973  154.3779 H   0  0  0  0  0  0  0  0  0  0  0  0  # atno 10763 bound_to 10752
  154.3446  135.2767  155.2406 H   0  0  0  0  0  0  0  0  0  0  0  0  # atno 10764 bound_to 10752
  154.4472  135.5998  153.6223 H   0  0  0  0  0  0  0  0  0  0  0  0  # atno 10765 bound_to 10752
  139.8860  134.9456  156.6113 H   0  0  0  0  0  0  0  0  0  0  0  0  # atno 11005 bound_to 11000
  145.9926  140.8590  143.0059 LP  0  0  0  0  0  0  0  0  0  0  0  0  # atno 17320 bound_to 7965
  144.6775  140.2237  143.7363 LP  0  0  0  0  0  0  0  0  0  0  0  0  # atno 17321 bound_to 7965
  140.7773  143.5026  150.9752 LP  0  0  0  0  0  0  0  0  0  0  0  0  # atno 17342 bound_to 10162
  139.8714  143.7187  152.3166 LP  0  0  0  0  0  0  0  0  0  0  0  0  # atno 17343 bound_to 10162
  157.7096  130.9425  150.1045 LP  0  0  0  0  0  0  0  0  0  0  0  0  # atno 17370 bound_to 10713
  156.1981  130.3658  149.8823 LP  0  0  0  0  0  0  0  0  0  0  0  0  # atno 17371 bound_to 10713
  140.7809  133.8661  155.8567 LP  0  0  0  0  0  0  0  0  0  0  0  0  # atno 17394 bound_to 11000
  140.9761  134.1467  157.4535 LP  0  0  0  0  0  0  0  0  0  0  0  0  # atno 17395 bound_to 11000

$$$$
