AV-unprocessed.smi:3340|AV-procd|sdf|12881|dock5
  -GOLD-   2272019283D 1   1.00000     0.00000
 Structure written by MMmdl.
 41 42  0  0  0  0  0  0  0  0  1 V2000
  145.4305  131.6441  149.1944 C   0  0  0  0  0  0  0  0  0  0  0  0
  144.2508  132.4765  149.7024 C   0  0  0  0  0  0  0  0  0  0  0  0
  143.1711  132.3602  149.1223 O   0  0  0  0  0  0  0  0  0  0  0  0
  144.4280  133.3026  150.7614 N   0  0  0  0  0  0  0  0  0  0  0  0
  145.7305  133.4828  151.4210 C   0  0  0  0  0  0  0  0  0  0  0  0
  146.1835  134.9470  151.2499 C   0  0  0  0  0  0  0  0  0  0  0  0
  145.1572  135.8345  151.8298 N   0  0  0  0  0  0  0  0  0  0  0  0
  145.2820  136.5685  152.9639 C   0  0  0  0  0  0  0  0  0  0  0  0
  144.3935  137.3077  153.3904 O   0  0  0  0  0  0  0  0  0  0  0  0
  146.4788  136.4685  153.5678 N   0  0  0  0  0  0  0  0  0  0  0  0
  146.8812  137.1739  154.7811 C   0  0  2  0  0  0  0  0  0  0  0  0
  145.9939  136.7134  155.9491 C   0  0  0  0  0  0  0  0  0  0  0  0
  146.8335  138.6994  154.5481 C   0  0  0  0  0  0  0  0  0  0  0  0
  148.1362  139.3254  154.6713 N   0  0  0  0  0  0  0  0  0  0  0  0
  148.4078  140.6867  154.7125 C   0  0  0  0  0  0  0  0  0  0  0  0
  149.7728  140.8116  154.8395 C   0  0  0  0  0  0  0  0  0  0  0  0
  150.3572  139.5478  154.8836 N   0  0  0  0  0  0  0  0  0  0  0  0
  149.3261  138.7187  154.7822 C   0  0  0  0  0  0  0  0  0  0  0  0
  143.8621  135.6549  151.1563 C   0  0  0  0  0  0  0  0  0  0  0  0
  143.4037  134.1933  151.3299 C   0  0  0  0  0  0  0  0  0  0  0  0
  145.7950  130.9741  149.9737 H   0  0  0  0  0  0  0  0  0  0  0  0
  146.2471  132.2888  148.8684 H   0  0  0  0  0  0  0  0  0  0  0  0
  145.1311  131.0320  148.3429 H   0  0  0  0  0  0  0  0  0  0  0  0
  145.6345  133.2375  152.4797 H   0  0  0  0  0  0  0  0  0  0  0  0
  146.4993  132.8166  151.0280 H   0  0  0  0  0  0  0  0  0  0  0  0
  147.1743  135.0690  151.6870 H   0  0  0  0  0  0  0  0  0  0  0  0
  146.3004  135.1812  150.1909 H   0  0  0  0  0  0  0  0  0  0  0  0
  147.1654  135.8579  153.1494 H   0  0  0  0  0  0  0  0  0  0  0  0
  147.9072  136.8896  155.0225 H   0  0  0  0  0  0  0  0  0  0  0  0
  146.3199  137.1481  156.8944 H   0  0  0  0  0  0  0  0  0  0  0  0
  146.0287  135.6295  156.0636 H   0  0  0  0  0  0  0  0  0  0  0  0
  144.9529  136.9986  155.7926 H   0  0  0  0  0  0  0  0  0  0  0  0
  146.4478  138.9225  153.5524 H   0  0  0  0  0  0  0  0  0  0  0  0
  146.1521  139.1699  155.2587 H   0  0  0  0  0  0  0  0  0  0  0  0
  147.6287  141.4319  154.6471 H   0  0  0  0  0  0  0  0  0  0  0  0
  150.3741  141.7064  154.9033 H   0  0  0  0  0  0  0  0  0  0  0  0
  149.4399  137.6445  154.7845 H   0  0  0  0  0  0  0  0  0  0  0  0
  143.0935  136.3307  151.5336 H   0  0  0  0  0  0  0  0  0  0  0  0
  143.9707  135.8926  150.0970 H   0  0  0  0  0  0  0  0  0  0  0  0
  142.4184  134.0697  150.8837 H   0  0  0  0  0  0  0  0  0  0  0  0
  143.2786  133.9622  152.3888 H   0  0  0  0  0  0  0  0  0  0  0  0
  1  2  1  0  0  0  0
  1 21  1  0  0  0  0
  1 22  1  0  0  0  0
  1 23  1  0  0  0  0
  2  3  2  0  0  0  0
  2  4  1  0  0  0  0
  4 20  1  0  0  0  0
  4  5  1  0  0  0  0
  5  6  1  0  0  0  0
  5 24  1  0  0  0  0
  5 25  1  0  0  0  0
  6  7  1  0  0  0  0
  6 26  1  0  0  0  0
  6 27  1  0  0  0  0
  7  8  1  0  0  0  0
  7 19  1  0  0  0  0
  8  9  2  0  0  0  0
  8 10  1  0  0  0  0
 10 11  1  0  0  0  0
 10 28  1  0  0  0  0
 11 12  1  0  0  0  0
 11 13  1  0  0  0  0
 11 29  1  0  0  0  0
 12 30  1  0  0  0  0
 12 31  1  0  0  0  0
 12 32  1  0  0  0  0
 13 14  1  0  0  0  0
 13 33  1  0  0  0  0
 13 34  1  0  0  0  0
 14 18  1  0  0  0  0
 14 15  1  0  0  0  0
 15 16  2  0  0  0  0
 15 35  1  0  0  0  0
 16 17  1  0  0  0  0
 16 36  1  0  0  0  0
 17 18  2  0  0  0  0
 18 37  1  0  0  0  0
 19 20  1  0  0  0  0
 19 38  1  0  0  0  0
 19 39  1  0  0  0  0
 20 40  1  0  0  0  0
 20 41  1  0  0  0  0
M  END
> <s_m_source_file>
AV-unprocessed.smi

> <i_m_source_file_index>
3340

> <i_lp_mmshare_version>
43012

> <i_f3d_flags>
0

> <s_epik_input>
W0NIM11DKD1PKU4xW0NIMl1bQ0gyXU4oW0NIMl1bQ0gyXTEpQyg9TylbTkhdW0NASF0oW0NIM10pW0NIMl1uMltjSF1bY0hdbltjSF0y

> <s_epik_cmdline>
J2VwaWtfcHl0aG9uJywgJy1waCcsICc3LjAnLCAnLXRuJywgJzgnLCAnLW1hJywgJzIwMCcsICctbWV0YWxfYmluZGluZycsICctaW1hZScsICc8aW5maWxlLm1hZT4nLCAnLW9tYWUnLCAnPG91dGZpbGUubWFlPic=

> <r_lp_tautomer_probability>
1

> <r_epik_Ionization_Penalty>
0.622948

> <r_epik_Ionization_Penalty_Charging>
0.622904

> <r_epik_Ionization_Penalty_Neutral>
4.39259e-05

> <r_epik_State_Penalty>
0.639086

> <r_epik_Charging_Adjusted_Penalty>
1.26199

> <i_epik_Tot_Q>
0

> <i_epik_Tot_abs_Q>
0

> <r_epik_Metal_State_Penalty>
0.307185

> <b_epik_Metal_Only>
0

> <s_lp_Force_Field>
OPLS_2005

> <r_lp_Energy>
49.2595

> <b_lp_Chiralities_Consistent>
1

> <s_lp_Variant>
AV-unprocessed.smi:3340-3

> <Gold.Version>
5.8.1

> <Gold.Id.Protein>
6NUR|6NUR_protein|mol2

> <Gold.PLP.Fitness>
41.3092

> <Gold.PLP.PLP>
-31.6286

> <Gold.PLP.part.hbond>
-3.0000

> <Gold.PLP.part.metal>
0.0000

> <Gold.PLP.part.buried>
-4.6909

> <Gold.PLP.part.nonpolar>
-25.0183

> <Gold.PLP.part.repulsive>
0.5052

> <Gold.PLP.ligand.clash>
0.0000

> <Gold.PLP.ligand.torsion>
0.8728

> <Gold.PLP.Chemscore.Hbond>
2.7920

> <Gold.PLP.Chemscore.CHOScore>
1.0000

> <Gold.PLP.Chemscore.Metal>
0.0000

> <Gold.Chemscore.Hbonds>
donor molecule, donor type, donor heavy atom, donor atom, acceptor molecule, acceptor atom, score
      L1  H    10    28       P1  7948  0.34
      P1  H 10785 10796       L1     3  0.46

> <Gold.PLP.Chemscore.Internal.Correction>
0.0502

> <Gold.Rescore>
     Score         DG    S(hbond)    S(metal)    S(lipo)     H(rot)  DE(clash)    DE(int)     intcor
     12.16     -15.88       2.49        0.00      53.96       1.65       1.75       1.97       ----

> <Gold.Chemscore.Fitness>
12.1638

> <Gold.Chemscore.DG>
-15.8829

> <Gold.Chemscore.ZeroCoef>
-5.4800

> <Gold.Chemscore.Hbond>
2.4869

> <Gold.Chemscore.Metal>
0.0000

> <Gold.Chemscore.Lipo>
53.9596

> <Gold.Chemscore.Internal_Hbond>
0.0000

> <Gold.Chemscore.DEClash>
1.7505

> <Gold.Chemscore.DEInternal>
1.9686

> <Gold.Chemscore.Rot>
1.6471

> <Gold.Chemscore.Internal.Correction>
   9.000000E+99

> <Gold.Chemscore.Hbonds>
donor molecule, donor type, donor heavy atom, donor atom, acceptor molecule, acceptor atom, score
      L1  H    10    28       P1  7948  0.34
      P1  H 10785 10796       L1     3  0.11

> <Gold.Chemscore.Hbond.Weighted>
-8.3063

> <Gold.Chemscore.Metal.Weighted>
-0.0000

> <Gold.Chemscore.Lipo.Weighted>
-6.3133

> <Gold.Chemscore.Internal_Hbond.Weighted>
0.0000

> <Gold.Chemscore.DEClash.Weighted>
1.7505

> <Gold.Chemscore.DEInternal.Weighted>
1.9686

> <Gold.Chemscore.Rot.Weighted>
4.2166

> <Gold.Chemscore.Internal.Correction.Weighted>
   9.000000E+99

> <Gold.Protein.RotatedTorsions>
[ 6907 6896 6895 6894 ] final   10.43 input  -60.11 | X-H torsion
[ 7974 7965 7964 7962 ] final  124.69 input  175.53 | X-H torsion
[ 8008 7997 7996 7995 ] final  -34.03 input   59.86 | X-H torsion
[ 10167 10162 10161 10158 ] final -108.04 input  -65.29 | X-H torsion
[ 10718 10713 10712 10709 ] final  130.63 input   66.30 | X-H torsion
[ 10763 10752 10751 10750 ] final -156.55 input  -60.55 | X-H torsion
[ 11005 11000 10999 10996 ] final  137.35 input  -57.11 | X-H torsion

> <Gold.Protein.ActiveResidues>
 VAL166  LYS551  ARG553  GLY616  TRP617  ASP618  TYR619  PRO620  LYS621  CYS622 
 ASP623  PHE694  ASN695  SER759  ASP760  ASP761  ALA762  ILE779  LEU786  VAL792 
 PHE793  MET794  SER795  GLU796  ALA797  LYS798  CYS799  TRP800  GLU811  SER814 

> <Gold.Protein.RotatedAtoms>
  151.7382  135.0860  160.0311 H   0  0  0  0  0  0  0  0  0  0  0  0  # atno 6907 bound_to 6896
  152.3497  133.6160  159.5944 H   0  0  0  0  0  0  0  0  0  0  0  0  # atno 6908 bound_to 6896
  150.7531  133.9510  159.3527 H   0  0  0  0  0  0  0  0  0  0  0  0  # atno 6909 bound_to 6896
  145.0815  139.3654  143.4907 H   0  0  0  0  0  0  0  0  0  0  0  0  # atno 7974 bound_to 7965
  154.4132  140.1695  156.1983 H   0  0  0  0  0  0  0  0  0  0  0  0  # atno 8008 bound_to 7997
  155.9545  140.3398  155.6413 H   0  0  0  0  0  0  0  0  0  0  0  0  # atno 8009 bound_to 7997
  155.6827  140.0724  157.2469 H   0  0  0  0  0  0  0  0  0  0  0  0  # atno 8010 bound_to 7997
  140.1705  143.4047  152.1358 H   0  0  0  0  0  0  0  0  0  0  0  0  # atno 10167 bound_to 10162
  157.5044  131.1095  150.9382 H   0  0  0  0  0  0  0  0  0  0  0  0  # atno 10718 bound_to 10713
  154.7704  135.3143  154.8201 H   0  0  0  0  0  0  0  0  0  0  0  0  # atno 10763 bound_to 10752
  153.8938  135.6822  153.4763 H   0  0  0  0  0  0  0  0  0  0  0  0  # atno 10764 bound_to 10752
  153.1317  135.4777  154.9293 H   0  0  0  0  0  0  0  0  0  0  0  0  # atno 10765 bound_to 10752
  140.0108  134.9439  157.0274 H   0  0  0  0  0  0  0  0  0  0  0  0  # atno 11005 bound_to 11000
  146.3531  140.0607  142.8629 LP  0  0  0  0  0  0  0  0  0  0  0  0  # atno 17320 bound_to 7965
  145.1172  140.9441  143.4621 LP  0  0  0  0  0  0  0  0  0  0  0  0  # atno 17321 bound_to 7965
  139.5340  144.7190  151.4957 LP  0  0  0  0  0  0  0  0  0  0  0  0  # atno 17342 bound_to 10162
  140.6585  143.8548  150.6861 LP  0  0  0  0  0  0  0  0  0  0  0  0  # atno 17343 bound_to 10162
  157.0043  130.5612  149.5314 LP  0  0  0  0  0  0  0  0  0  0  0  0  # atno 17370 bound_to 10713
  156.0249  130.5343  150.8378 LP  0  0  0  0  0  0  0  0  0  0  0  0  # atno 17371 bound_to 10713
  140.4557  134.1536  155.7186 LP  0  0  0  0  0  0  0  0  0  0  0  0  # atno 17394 bound_to 11000
  141.1710  133.8609  157.1571 LP  0  0  0  0  0  0  0  0  0  0  0  0  # atno 17395 bound_to 11000

$$$$
