AV-unprocessed.smi:325|AV-procd|sdf|2342|dock7
  -GOLD-   2262022253D 1   1.00000     0.00000
 Structure written by MMmdl.
 46 47  0  0  0  0  0  0  0  0  1 V2000
  148.8933  141.7527  154.6515 C   0  0  0  0  0  0  0  0  0  0  0  0
  150.0378  141.3808  155.5776 C   0  0  0  0  0  0  0  0  0  0  0  0
  150.2608  142.2791  156.6050 N   0  0  0  0  0  0  0  0  0  0  0  0
  151.2932  142.0410  157.5042 C   0  0  0  0  0  0  0  0  0  0  0  0
  151.4363  143.0152  158.4919 N   0  0  0  0  0  0  0  0  0  0  0  0
  151.3756  144.4321  158.1313 C   0  0  0  0  0  0  0  0  0  0  0  0
  151.0591  145.3065  159.3564 C   0  0  0  0  0  0  0  0  0  0  0  0
  152.0176  145.0644  160.3774 O   0  0  0  0  0  0  0  0  0  0  0  0
  151.9891  143.7095  160.8060 C   0  0  0  0  0  0  0  0  0  0  0  0
  152.3324  142.7857  159.6255 C   0  0  0  0  0  0  0  0  0  0  0  0
  152.0580  140.9890  157.4421 N   0  0  0  0  0  0  0  0  0  0  0  0
  151.8723  140.0330  156.4324 C   0  0  0  0  0  0  0  0  0  0  0  0
  152.5881  139.0341  156.3800 O   0  0  0  0  0  0  0  0  0  0  0  0
  150.7940  140.2647  155.4489 C   0  0  0  0  0  0  0  0  0  0  0  0
  150.5976  139.2481  154.3276 C   0  0  0  0  0  0  0  0  0  0  0  0
  149.2692  138.4802  154.4647 C   0  0  0  0  0  0  0  0  0  0  0  0
  149.3973  137.2046  155.3031 C   0  0  0  0  0  0  0  0  0  0  0  0
  149.6186  137.2684  156.5129 O   0  0  0  0  0  0  0  0  0  0  0  0
  149.2509  136.0454  154.6420 N   0  0  0  0  0  0  0  0  0  0  0  0
  149.3210  134.7146  155.2394 C   0  0  0  0  0  0  0  0  0  0  0  0
  150.6293  134.5438  156.0283 C   0  0  0  0  0  0  0  0  0  0  0  0
  149.1813  133.6535  154.1396 C   0  0  0  0  0  0  0  0  0  0  0  0
  149.6623  143.0902  156.6620 H   0  0  0  0  0  0  0  0  0  0  0  0
  148.1652  140.9428  154.6023 H   0  0  0  0  0  0  0  0  0  0  0  0
  149.2660  141.9448  153.6452 H   0  0  0  0  0  0  0  0  0  0  0  0
  148.3742  142.6493  154.9929 H   0  0  0  0  0  0  0  0  0  0  0  0
  150.6238  144.6130  157.3624 H   0  0  0  0  0  0  0  0  0  0  0  0
  152.3357  144.7261  157.7051 H   0  0  0  0  0  0  0  0  0  0  0  0
  151.0924  146.3614  159.0830 H   0  0  0  0  0  0  0  0  0  0  0  0
  150.0531  145.1052  159.7285 H   0  0  0  0  0  0  0  0  0  0  0  0
  152.7141  143.5763  161.6090 H   0  0  0  0  0  0  0  0  0  0  0  0
  151.0088  143.4655  161.2186 H   0  0  0  0  0  0  0  0  0  0  0  0
  153.3611  142.9572  159.3052 H   0  0  0  0  0  0  0  0  0  0  0  0
  152.2697  141.7470  159.9535 H   0  0  0  0  0  0  0  0  0  0  0  0
  151.4416  138.5562  154.3199 H   0  0  0  0  0  0  0  0  0  0  0  0
  150.6323  139.7500  153.3607 H   0  0  0  0  0  0  0  0  0  0  0  0
  148.5144  139.1167  154.9279 H   0  0  0  0  0  0  0  0  0  0  0  0
  148.8944  138.2221  153.4730 H   0  0  0  0  0  0  0  0  0  0  0  0
  149.0687  136.0883  153.6498 H   0  0  0  0  0  0  0  0  0  0  0  0
  148.4820  134.5917  155.9268 H   0  0  0  0  0  0  0  0  0  0  0  0
  150.6879  133.5526  156.4786 H   0  0  0  0  0  0  0  0  0  0  0  0
  150.7041  135.2734  156.8353 H   0  0  0  0  0  0  0  0  0  0  0  0
  151.5007  134.6681  155.3846 H   0  0  0  0  0  0  0  0  0  0  0  0
  149.1906  132.6486  154.5625 H   0  0  0  0  0  0  0  0  0  0  0  0
  149.9972  133.7178  153.4184 H   0  0  0  0  0  0  0  0  0  0  0  0
  148.2437  133.7718  153.5949 H   0  0  0  0  0  0  0  0  0  0  0  0
  1 24  1  0  0  0  0
  1 25  1  0  0  0  0
  1 26  1  0  0  0  0
  1  2  1  0  0  0  0
  2 14  2  0  0  0  0
  2  3  1  0  0  0  0
  3 23  1  0  0  0  0
  3  4  1  0  0  0  0
  4  5  1  0  0  0  0
  4 11  2  0  0  0  0
  5 10  1  0  0  0  0
  5  6  1  0  0  0  0
  6  7  1  0  0  0  0
  6 27  1  0  0  0  0
  6 28  1  0  0  0  0
  7  8  1  0  0  0  0
  7 29  1  0  0  0  0
  7 30  1  0  0  0  0
  8  9  1  0  0  0  0
  9 10  1  0  0  0  0
  9 31  1  0  0  0  0
  9 32  1  0  0  0  0
 10 33  1  0  0  0  0
 10 34  1  0  0  0  0
 11 12  1  0  0  0  0
 12 13  2  0  0  0  0
 12 14  1  0  0  0  0
 14 15  1  0  0  0  0
 15 16  1  0  0  0  0
 15 35  1  0  0  0  0
 15 36  1  0  0  0  0
 16 17  1  0  0  0  0
 16 37  1  0  0  0  0
 16 38  1  0  0  0  0
 17 18  2  0  0  0  0
 17 19  1  0  0  0  0
 19 20  1  0  0  0  0
 19 39  1  0  0  0  0
 20 21  1  0  0  0  0
 20 22  1  0  0  0  0
 20 40  1  0  0  0  0
 21 41  1  0  0  0  0
 21 42  1  0  0  0  0
 21 43  1  0  0  0  0
 22 44  1  0  0  0  0
 22 45  1  0  0  0  0
 22 46  1  0  0  0  0
M  END
> <s_m_source_file>
AV-unprocessed.smi

> <i_m_source_file_index>
325

> <i_lp_mmshare_version>
43012

> <i_f3d_flags>
0

> <s_epik_input>
W0NIMl0xW0NIMl1PW0NIMl1bQ0gyXU4xYyhuYzJbQ0gzXSlbbkhdYyg9TyljMltDSDJdW0NIMl1DKD1PKVtOSF1bQ0hdKFtDSDNdKVtDSDNd

> <s_epik_cmdline>
J2VwaWtfcHl0aG9uJywgJy1waCcsICc3LjAnLCAnLXRuJywgJzgnLCAnLW1hJywgJzIwMCcsICctbWV0YWxfYmluZGluZycsICctaW1hZScsICc8aW5maWxlLm1hZT4nLCAnLW9tYWUnLCAnPG91dGZpbGUubWFlPic=

> <r_lp_tautomer_probability>
0.108306

> <r_epik_Ionization_Penalty>
0.0738532

> <r_epik_Ionization_Penalty_Charging>
0.0614224

> <r_epik_Ionization_Penalty_Neutral>
0.0124309

> <r_epik_State_Penalty>
1.70966

> <r_epik_Charging_Adjusted_Penalty>
1.77108

> <i_epik_Tot_Q>
0

> <i_epik_Tot_abs_Q>
0

> <r_epik_Metal_State_Penalty>
2.67951

> <b_epik_Metal_Only>
0

> <s_lp_Force_Field>
OPLS_2005

> <r_lp_Energy>
25.9906

> <b_lp_Chiralities_Consistent>
1

> <s_lp_Variant>
AV-unprocessed.smi:325-2

> <Gold.Version>
5.8.1

> <Gold.Id.Protein>
6NUR|6NUR_protein|mol2

> <Gold.PLP.Fitness>
51.1923

> <Gold.PLP.PLP>
-44.3690

> <Gold.PLP.part.hbond>
-3.0000

> <Gold.PLP.part.metal>
0.0000

> <Gold.PLP.part.buried>
-1.6474

> <Gold.PLP.part.nonpolar>
-38.6150

> <Gold.PLP.part.repulsive>
0.2476

> <Gold.PLP.ligand.clash>
0.0000

> <Gold.PLP.ligand.torsion>
0.7225

> <Gold.PLP.Chemscore.Hbond>
2.6437

> <Gold.PLP.Chemscore.CHOScore>
0.0000

> <Gold.PLP.Chemscore.Metal>
0.0000

> <Gold.Chemscore.Hbonds>
donor molecule, donor type, donor heavy atom, donor atom, acceptor molecule, acceptor atom, score
      L1  H     3    23       P1  8028  0.86
      L1  H    19    39       P1  7948  1.00
      P1  H  7997  8008       L1    13  0.66

> <Gold.PLP.Chemscore.Internal.Correction>
0.3371

> <Gold.Rescore>
     Score         DG    S(hbond)    S(metal)    S(lipo)     H(rot)  DE(clash)    DE(int)     intcor
     17.66     -19.38       2.15        0.00      94.95       1.71       0.11       1.61       ----

> <Gold.Chemscore.Fitness>
17.6602

> <Gold.Chemscore.DG>
-19.3826

> <Gold.Chemscore.ZeroCoef>
-5.4800

> <Gold.Chemscore.Hbond>
2.1455

> <Gold.Chemscore.Metal>
0.0000

> <Gold.Chemscore.Lipo>
94.9494

> <Gold.Chemscore.Internal_Hbond>
0.0000

> <Gold.Chemscore.DEClash>
0.1100

> <Gold.Chemscore.DEInternal>
1.6124

> <Gold.Chemscore.Rot>
1.7080

> <Gold.Chemscore.Internal.Correction>
   9.000000E+99

> <Gold.Chemscore.Hbonds>
donor molecule, donor type, donor heavy atom, donor atom, acceptor molecule, acceptor atom, score
      L1  H     3    23       P1  8028  0.79
      L1  H    19    39       P1  7948  0.94
      P1  H  7997  8008       L1    13  0.07

> <Gold.Chemscore.Hbond.Weighted>
-7.1659

> <Gold.Chemscore.Metal.Weighted>
-0.0000

> <Gold.Chemscore.Lipo.Weighted>
-11.1091

> <Gold.Chemscore.Internal_Hbond.Weighted>
0.0000

> <Gold.Chemscore.DEClash.Weighted>
0.1100

> <Gold.Chemscore.DEInternal.Weighted>
1.6124

> <Gold.Chemscore.Rot.Weighted>
4.3724

> <Gold.Chemscore.Internal.Correction.Weighted>
   9.000000E+99

> <Gold.Protein.RotatedTorsions>
[ 6907 6896 6895 6894 ] final  -42.54 input  -60.11 | X-H torsion
[ 7974 7965 7964 7962 ] final   25.40 input  175.53 | X-H torsion
[ 8008 7997 7996 7995 ] final  -44.75 input   59.86 | X-H torsion
[ 10167 10162 10161 10158 ] final -179.74 input  -65.29 | X-H torsion
[ 10718 10713 10712 10709 ] final  -20.76 input   66.30 | X-H torsion
[ 10763 10752 10751 10750 ] final   54.58 input  -60.55 | X-H torsion
[ 11005 11000 10999 10996 ] final  -72.04 input  -57.11 | X-H torsion

> <Gold.Protein.ActiveResidues>
 VAL166  LYS551  ARG553  GLY616  TRP617  ASP618  TYR619  PRO620  LYS621  CYS622 
 ASP623  PHE694  ASN695  SER759  ASP760  ASP761  ALA762  ILE779  LEU786  VAL792 
 PHE793  MET794  SER795  GLU796  ALA797  LYS798  CYS799  TRP800  GLU811  SER814 

> <Gold.Protein.RotatedAtoms>
  150.9541  134.8937  159.7689 H   0  0  0  0  0  0  0  0  0  0  0  0  # atno 6907 bound_to 6896
  152.5131  134.3765  159.9346 H   0  0  0  0  0  0  0  0  0  0  0  0  # atno 6908 bound_to 6896
  151.3780  133.3791  159.2741 H   0  0  0  0  0  0  0  0  0  0  0  0  # atno 6909 bound_to 6896
  146.1890  139.7471  142.8845 H   0  0  0  0  0  0  0  0  0  0  0  0  # atno 7974 bound_to 7965
  154.3998  140.1414  156.3734 H   0  0  0  0  0  0  0  0  0  0  0  0  # atno 8008 bound_to 7997
  155.8071  140.3474  155.5415 H   0  0  0  0  0  0  0  0  0  0  0  0  # atno 8009 bound_to 7997
  155.8424  140.0929  157.1716 H   0  0  0  0  0  0  0  0  0  0  0  0  # atno 8010 bound_to 7997
  139.5372  144.2463  152.0820 H   0  0  0  0  0  0  0  0  0  0  0  0  # atno 10167 bound_to 10162
  156.5274  130.4647  149.6565 H   0  0  0  0  0  0  0  0  0  0  0  0  # atno 10718 bound_to 10713
  152.9806  135.5740  154.4928 H   0  0  0  0  0  0  0  0  0  0  0  0  # atno 10763 bound_to 10752
  154.4459  135.2777  155.1817 H   0  0  0  0  0  0  0  0  0  0  0  0  # atno 10764 bound_to 10752
  154.3465  135.6218  153.5675 H   0  0  0  0  0  0  0  0  0  0  0  0  # atno 10765 bound_to 10752
  141.1602  133.6835  156.6999 H   0  0  0  0  0  0  0  0  0  0  0  0  # atno 11005 bound_to 11000
  145.3850  141.0364  143.3156 LP  0  0  0  0  0  0  0  0  0  0  0  0  # atno 17320 bound_to 7965
  144.8451  139.5409  143.6882 LP  0  0  0  0  0  0  0  0  0  0  0  0  # atno 17321 bound_to 7965
  140.1935  144.4728  150.6467 LP  0  0  0  0  0  0  0  0  0  0  0  0  # atno 17342 bound_to 10162
  140.6585  143.2245  151.5912 LP  0  0  0  0  0  0  0  0  0  0  0  0  # atno 17343 bound_to 10162
  156.3092  130.7219  151.2108 LP  0  0  0  0  0  0  0  0  0  0  0  0  # atno 17370 bound_to 10713
  157.7427  131.0486  150.5002 LP  0  0  0  0  0  0  0  0  0  0  0  0  # atno 17371 bound_to 10713
  140.2967  134.8197  157.4063 LP  0  0  0  0  0  0  0  0  0  0  0  0  # atno 17394 bound_to 11000
  140.1298  134.5110  155.8114 LP  0  0  0  0  0  0  0  0  0  0  0  0  # atno 17395 bound_to 11000

$$$$
