AV-unprocessed.smi:1277|AV-procd|sdf|5345|dock5
  -GOLD-   22720 4473D 1   1.00000     0.00000
 Structure written by MMmdl.
 43 44  0  0  0  0  0  0  0  0  1 V2000
  151.5193  143.0176  158.1264 C   0  0  0  0  0  0  0  0  0  0  0  0
  151.2878  142.2441  156.9623 O   0  0  0  0  0  0  0  0  0  0  0  0
  150.9454  140.9007  157.2614 C   0  0  0  0  0  0  0  0  0  0  0  0
  150.8924  140.0936  155.9608 C   0  0  0  0  0  0  0  0  0  0  0  0
  150.1069  140.8091  155.0123 O   0  0  0  0  0  0  0  0  0  0  0  0
  148.9775  140.2048  154.5000 C   0  0  0  0  0  0  0  0  0  0  0  0
  148.9544  138.7999  154.3994 C   0  0  0  0  0  0  0  0  0  0  0  0
  147.8044  138.1763  153.8803 C   0  0  0  0  0  0  0  0  0  0  0  0
  146.7098  138.9706  153.4838 C   0  0  0  0  0  0  0  0  0  0  0  0
  145.5705  138.3100  152.9498 N   0  0  0  0  0  0  0  0  0  0  0  0
  145.3357  136.9896  152.8387 C   0  0  0  0  0  0  0  0  0  0  0  0
  146.1127  136.1087  153.2087 O   0  0  0  0  0  0  0  0  0  0  0  0
  143.9863  136.6139  152.1950 C   0  0  2  0  0  0  0  0  0  0  0  0
  142.8137  137.0806  153.0704 C   0  0  0  0  0  0  0  0  0  0  0  0
  142.5154  135.8934  153.9740 C   0  0  0  0  0  0  0  0  0  0  0  0
  142.8667  134.6755  153.1173 C   0  0  0  0  0  0  0  0  0  0  0  0
  143.8019  135.1588  152.0978 N   0  0  0  0  0  0  0  0  0  0  0  0
  144.3850  134.3831  151.1573 C   0  0  0  0  0  0  0  0  0  0  0  0
  144.0917  132.8817  151.1651 C   0  0  0  0  0  0  0  0  0  0  0  0
  145.1405  134.8372  150.2979 O   0  0  0  0  0  0  0  0  0  0  0  0
  146.8359  140.3758  153.6108 C   0  0  0  0  0  0  0  0  0  0  0  0
  147.9365  140.9801  154.1077 N   0  0  0  0  0  0  0  0  0  0  0  0
  143.9140  137.0735  151.2070 H   0  0  0  0  0  0  0  0  0  0  0  0
  151.7743  144.0387  157.8428 H   0  0  0  0  0  0  0  0  0  0  0  0
  152.3466  142.6136  158.7110 H   0  0  0  0  0  0  0  0  0  0  0  0
  150.6304  143.0562  158.7572 H   0  0  0  0  0  0  0  0  0  0  0  0
  151.7026  140.4765  157.9224 H   0  0  0  0  0  0  0  0  0  0  0  0
  149.9879  140.8469  157.7819 H   0  0  0  0  0  0  0  0  0  0  0  0
  151.9020  139.9145  155.5865 H   0  0  0  0  0  0  0  0  0  0  0  0
  150.4305  139.1253  156.1595 H   0  0  0  0  0  0  0  0  0  0  0  0
  149.8029  138.2117  154.7161 H   0  0  0  0  0  0  0  0  0  0  0  0
  147.7648  137.1004  153.7929 H   0  0  0  0  0  0  0  0  0  0  0  0
  144.8736  138.9150  152.5401 H   0  0  0  0  0  0  0  0  0  0  0  0
  143.0187  137.9931  153.6325 H   0  0  0  0  0  0  0  0  0  0  0  0
  141.9479  137.2792  152.4372 H   0  0  0  0  0  0  0  0  0  0  0  0
  143.1682  135.9277  154.8473 H   0  0  0  0  0  0  0  0  0  0  0  0
  141.4849  135.8779  154.3299 H   0  0  0  0  0  0  0  0  0  0  0  0
  143.2998  133.8800  153.7251 H   0  0  0  0  0  0  0  0  0  0  0  0
  141.9711  134.2866  152.6303 H   0  0  0  0  0  0  0  0  0  0  0  0
  143.0260  132.6950  151.0309 H   0  0  0  0  0  0  0  0  0  0  0  0
  144.4121  132.4312  152.1048 H   0  0  0  0  0  0  0  0  0  0  0  0
  144.6244  132.3815  150.3556 H   0  0  0  0  0  0  0  0  0  0  0  0
  146.0578  141.0522  153.2938 H   0  0  0  0  0  0  0  0  0  0  0  0
  1  2  1  0  0  0  0
  1 24  1  0  0  0  0
  1 25  1  0  0  0  0
  1 26  1  0  0  0  0
  2  3  1  0  0  0  0
  3  4  1  0  0  0  0
  3 27  1  0  0  0  0
  3 28  1  0  0  0  0
  4  5  1  0  0  0  0
  4 29  1  0  0  0  0
  4 30  1  0  0  0  0
  5  6  1  0  0  0  0
  6 22  1  0  0  0  0
  6  7  2  0  0  0  0
  7  8  1  0  0  0  0
  7 31  1  0  0  0  0
  8  9  2  0  0  0  0
  8 32  1  0  0  0  0
  9 10  1  0  0  0  0
  9 21  1  0  0  0  0
 10 11  1  0  0  0  0
 10 33  1  0  0  0  0
 11 12  2  0  0  0  0
 11 13  1  0  0  0  0
 13 23  1  0  0  0  0
 13 17  1  0  0  0  0
 13 14  1  0  0  0  0
 14 15  1  0  0  0  0
 14 34  1  0  0  0  0
 14 35  1  0  0  0  0
 15 16  1  0  0  0  0
 15 36  1  0  0  0  0
 15 37  1  0  0  0  0
 16 17  1  0  0  0  0
 16 38  1  0  0  0  0
 16 39  1  0  0  0  0
 17 18  1  0  0  0  0
 18 19  1  0  0  0  0
 18 20  2  0  0  0  0
 19 40  1  0  0  0  0
 19 41  1  0  0  0  0
 19 42  1  0  0  0  0
 21 22  2  0  0  0  0
 21 43  1  0  0  0  0
M  END
> <s_m_source_file>
AV-unprocessed.smi

> <i_m_source_file_index>
1277

> <i_lp_mmshare_version>
43012

> <i_f3d_flags>
0

> <s_epik_input>
W0NIM11PW0NIMl1bQ0gyXU9jMVtjSF1bY0hdYyhbY0hdbjEpW05IXUMoPU8pW0NAQEhdMltDSDJdW0NIMl1bQ0gyXU4yQyg9TylbQ0gzXQ==

> <s_epik_cmdline>
J2VwaWtfcHl0aG9uJywgJy1waCcsICc3LjAnLCAnLXRuJywgJzgnLCAnLW1hJywgJzIwMCcsICctbWV0YWxfYmluZGluZycsICctaW1hZScsICc8aW5maWxlLm1hZT4nLCAnLW9tYWUnLCAnPG91dGZpbGUubWFlPic=

> <r_lp_tautomer_probability>
1

> <r_epik_Ionization_Penalty>
1.62854e-05

> <r_epik_Ionization_Penalty_Charging>
0

> <r_epik_Ionization_Penalty_Neutral>
1.62854e-05

> <r_epik_State_Penalty>
-0

> <r_epik_Charging_Adjusted_Penalty>
0

> <i_epik_Tot_Q>
0

> <i_epik_Tot_abs_Q>
0

> <r_epik_Metal_State_Penalty>
-0

> <b_epik_Metal_Only>
0

> <s_lp_Force_Field>
OPLS_2005

> <r_lp_Energy>
18.7182

> <b_lp_Chiralities_Consistent>
1

> <s_lp_Variant>
AV-unprocessed.smi:1277-1

> <Gold.Version>
5.8.1

> <Gold.Id.Protein>
6NUR|6NUR_protein|mol2

> <Gold.PLP.Fitness>
37.9534

> <Gold.PLP.PLP>
-32.4449

> <Gold.PLP.part.hbond>
-2.0000

> <Gold.PLP.part.metal>
0.0000

> <Gold.PLP.part.buried>
-4.1630

> <Gold.PLP.part.nonpolar>
-28.7072

> <Gold.PLP.part.repulsive>
1.1443

> <Gold.PLP.ligand.clash>
0.0000

> <Gold.PLP.ligand.torsion>
0.8190

> <Gold.PLP.Chemscore.Hbond>
1.4539

> <Gold.PLP.Chemscore.CHOScore>
0.9010

> <Gold.PLP.Chemscore.Metal>
0.0000

> <Gold.Chemscore.Hbonds>
donor molecule, donor type, donor heavy atom, donor atom, acceptor molecule, acceptor atom, score
      L1  H    10    33       P1 10175  1.00
      P1  H  7989  7998       L1     5  0.47
      L1  C    21    43       P1 10175  0.89

> <Gold.PLP.Chemscore.Internal.Correction>
0.0820

> <Gold.Rescore>
     Score         DG    S(hbond)    S(metal)    S(lipo)     H(rot)  DE(clash)    DE(int)     intcor
      9.67     -11.66       0.99        0.00      65.77       1.89       0.06       1.93       ----

> <Gold.Chemscore.Fitness>
9.6672

> <Gold.Chemscore.DG>
-11.6598

> <Gold.Chemscore.ZeroCoef>
-5.4800

> <Gold.Chemscore.Hbond>
0.9937

> <Gold.Chemscore.Metal>
0.0000

> <Gold.Chemscore.Lipo>
65.7696

> <Gold.Chemscore.Internal_Hbond>
0.0000

> <Gold.Chemscore.DEClash>
0.0602

> <Gold.Chemscore.DEInternal>
1.9323

> <Gold.Chemscore.Rot>
1.8884

> <Gold.Chemscore.Internal.Correction>
   9.000000E+99

> <Gold.Chemscore.Hbonds>
donor molecule, donor type, donor heavy atom, donor atom, acceptor molecule, acceptor atom, score
      L1  H    10    33       P1 10175  0.97
      P1  H  7989  7998       L1     5  0.05

> <Gold.Chemscore.Hbond.Weighted>
-3.3190

> <Gold.Chemscore.Metal.Weighted>
-0.0000

> <Gold.Chemscore.Lipo.Weighted>
-7.6950

> <Gold.Chemscore.Internal_Hbond.Weighted>
0.0000

> <Gold.Chemscore.DEClash.Weighted>
0.0602

> <Gold.Chemscore.DEInternal.Weighted>
1.9323

> <Gold.Chemscore.Rot.Weighted>
4.8342

> <Gold.Chemscore.Internal.Correction.Weighted>
   9.000000E+99

> <Gold.Protein.RotatedTorsions>
[ 6907 6896 6895 6894 ] final  -97.27 input  -60.11 | X-H torsion
[ 7974 7965 7964 7962 ] final  165.19 input  175.53 | X-H torsion
[ 8008 7997 7996 7995 ] final  100.25 input   59.86 | X-H torsion
[ 10167 10162 10161 10158 ] final   60.92 input  -65.29 | X-H torsion
[ 10718 10713 10712 10709 ] final   56.97 input   66.30 | X-H torsion
[ 10763 10752 10751 10750 ] final  -76.84 input  -60.55 | X-H torsion
[ 11005 11000 10999 10996 ] final -108.38 input  -57.11 | X-H torsion

> <Gold.Protein.ActiveResidues>
 VAL166  LYS551  ARG553  GLY616  TRP617  ASP618  TYR619  PRO620  LYS621  CYS622 
 ASP623  PHE694  ASN695  SER759  ASP760  ASP761  ALA762  ILE779  LEU786  VAL792 
 PHE793  MET794  SER795  GLU796  ALA797  LYS798  CYS799  TRP800  GLU811  SER814 

> <Gold.Protein.RotatedAtoms>
  150.7011  134.1375  159.4092 H   0  0  0  0  0  0  0  0  0  0  0  0  # atno 6907 bound_to 6896
  151.9360  135.0233  160.0542 H   0  0  0  0  0  0  0  0  0  0  0  0  # atno 6908 bound_to 6896
  152.2135  133.4894  159.5160 H   0  0  0  0  0  0  0  0  0  0  0  0  # atno 6909 bound_to 6896
  144.7513  139.8434  143.6365 H   0  0  0  0  0  0  0  0  0  0  0  0  # atno 7974 bound_to 7965
  156.1185  140.3216  155.8173 H   0  0  0  0  0  0  0  0  0  0  0  0  # atno 8008 bound_to 7997
  155.4547  140.0535  157.3014 H   0  0  0  0  0  0  0  0  0  0  0  0  # atno 8009 bound_to 7997
  154.4810  140.2053  155.9778 H   0  0  0  0  0  0  0  0  0  0  0  0  # atno 8010 bound_to 7997
  140.1603  144.4377  150.6713 H   0  0  0  0  0  0  0  0  0  0  0  0  # atno 10167 bound_to 10162
  157.5475  130.8742  149.8913 H   0  0  0  0  0  0  0  0  0  0  0  0  # atno 10718 bound_to 10713
  154.5052  135.5784  153.6561 H   0  0  0  0  0  0  0  0  0  0  0  0  # atno 10763 bound_to 10752
  152.9886  135.6145  154.2951 H   0  0  0  0  0  0  0  0  0  0  0  0  # atno 10764 bound_to 10752
  154.2862  135.2849  155.2655 H   0  0  0  0  0  0  0  0  0  0  0  0  # atno 10765 bound_to 10752
  141.0905  133.9064  157.2087 H   0  0  0  0  0  0  0  0  0  0  0  0  # atno 11005 bound_to 11000
  146.1467  139.4538  143.0075 LP  0  0  0  0  0  0  0  0  0  0  0  0  # atno 17320 bound_to 7965
  145.6934  141.0157  143.1543 LP  0  0  0  0  0  0  0  0  0  0  0  0  # atno 17321 bound_to 7965
  140.6647  143.2264  151.5772 LP  0  0  0  0  0  0  0  0  0  0  0  0  # atno 17342 bound_to 10162
  139.5384  144.2716  152.1300 LP  0  0  0  0  0  0  0  0  0  0  0  0  # atno 17343 bound_to 10162
  156.0548  130.3710  150.1116 LP  0  0  0  0  0  0  0  0  0  0  0  0  # atno 17370 bound_to 10713
  156.9291  130.9708  151.3536 LP  0  0  0  0  0  0  0  0  0  0  0  0  # atno 17371 bound_to 10713
  139.9730  135.0122  156.9559 LP  0  0  0  0  0  0  0  0  0  0  0  0  # atno 17394 bound_to 11000
  140.5264  134.0857  155.7304 LP  0  0  0  0  0  0  0  0  0  0  0  0  # atno 17395 bound_to 11000

$$$$
