AV-unprocessed.smi:218|AV-procd|sdf|1674|dock4
  -GOLD-   2262020 93D 1   1.00000     0.00000
 Structure written by MMmdl.
 54 57  0  0  0  0  0  0  0  0  1 V2000
  151.9440  144.2956  160.6192 C   0  0  0  0  0  0  0  0  0  0  0  0
  152.2160  143.3782  159.4210 C   0  0  0  0  0  0  0  0  0  0  0  0
  152.2330  144.1739  158.1044 C   0  0  0  0  0  0  0  0  0  0  0  0
  151.1708  142.4037  159.3983 O   0  0  0  0  0  0  0  0  0  0  0  0
  151.1259  141.4566  158.3930 C   0  0  0  0  0  0  0  0  0  0  0  0
  149.9135  141.2796  157.6952 C   0  0  0  0  0  0  0  0  0  0  0  0
  149.8509  140.3124  156.6707 C   0  0  0  0  0  0  0  0  0  0  0  0
  148.5668  140.0865  155.8916 C   0  0  0  0  0  0  0  0  0  0  0  0
  147.3878  139.8488  156.7171 N   0  0  0  0  0  0  0  0  0  0  0  0
  146.2906  139.2544  156.1976 C   0  0  0  0  0  0  0  0  0  0  0  0
  145.0447  139.7345  156.4502 N   0  0  0  0  0  0  0  0  0  0  0  0
  143.9762  139.1309  155.9219 C   0  0  0  0  0  0  0  0  0  0  0  0
  143.9322  138.0602  155.1266 N   0  0  0  0  0  0  0  0  0  0  0  0
  145.1809  137.5762  154.8646 C   0  0  0  0  0  0  0  0  0  0  0  0
  146.4016  138.1160  155.3578 C   0  0  0  0  0  0  0  0  0  0  0  0
  147.4728  137.3710  154.8825 N   0  0  0  0  0  0  0  0  0  0  0  0
  146.9129  136.4448  154.1520 C   0  0  0  0  0  0  0  0  0  0  0  0
  145.5374  136.4886  154.0922 N   0  0  0  0  0  0  0  0  0  0  0  0
  144.6283  135.5561  153.3531 C   0  0  2  0  0  0  0  0  0  0  0  0
  145.3928  134.5281  152.8066 O   0  0  0  0  0  0  0  0  0  0  0  0
  144.8270  134.1434  151.5592 C   0  0  2  0  0  0  0  0  0  0  0  0
  145.8411  133.3575  150.7097 C   0  0  0  0  0  0  0  0  0  0  0  0
  145.2384  132.9367  149.5048 O   0  0  0  0  0  0  0  0  0  0  0  0
  144.3535  135.4779  150.9638 C   0  0  2  0  0  0  0  0  0  0  0  0
  145.4105  136.1407  150.2911 O   0  0  0  0  0  0  0  0  0  0  0  0
  143.8683  136.2393  152.1961 C   0  0  2  0  0  0  0  0  0  0  0  0
  144.0271  137.6458  152.0955 O   0  0  0  0  0  0  0  0  0  0  0  0
  151.0049  139.5558  156.3865 C   0  0  0  0  0  0  0  0  0  0  0  0
  152.1705  139.8052  157.1358 C   0  0  0  0  0  0  0  0  0  0  0  0
  152.2368  140.7285  158.1183 N   0  0  0  0  0  0  0  0  0  0  0  0
  143.9589  135.1600  154.1181 H   0  0  0  0  0  0  0  0  0  0  0  0
  143.9461  133.5288  151.7555 H   0  0  0  0  0  0  0  0  0  0  0  0
  143.5458  135.3310  150.2461 H   0  0  0  0  0  0  0  0  0  0  0  0
  142.8090  136.0291  152.3488 H   0  0  0  0  0  0  0  0  0  0  0  0
  152.7059  145.0715  160.7015 H   0  0  0  0  0  0  0  0  0  0  0  0
  151.9458  143.7297  161.5512 H   0  0  0  0  0  0  0  0  0  0  0  0
  150.9743  144.7861  160.5295 H   0  0  0  0  0  0  0  0  0  0  0  0
  153.1880  142.9112  159.5872 H   0  0  0  0  0  0  0  0  0  0  0  0
  153.0046  144.9441  158.1242 H   0  0  0  0  0  0  0  0  0  0  0  0
  151.2759  144.6660  157.9304 H   0  0  0  0  0  0  0  0  0  0  0  0
  152.4349  143.5333  157.2463 H   0  0  0  0  0  0  0  0  0  0  0  0
  149.0487  141.8773  157.9430 H   0  0  0  0  0  0  0  0  0  0  0  0
  148.3812  140.9294  155.2245 H   0  0  0  0  0  0  0  0  0  0  0  0
  148.7091  139.2170  155.2497 H   0  0  0  0  0  0  0  0  0  0  0  0
  147.3964  140.2815  157.6295 H   0  0  0  0  0  0  0  0  0  0  0  0
  143.0203  139.5676  156.1708 H   0  0  0  0  0  0  0  0  0  0  0  0
  147.4934  135.6928  153.6375 H   0  0  0  0  0  0  0  0  0  0  0  0
  146.6850  133.9955  150.4457 H   0  0  0  0  0  0  0  0  0  0  0  0
  146.2378  132.4997  151.2539 H   0  0  0  0  0  0  0  0  0  0  0  0
  145.2673  133.6548  148.8912 H   0  0  0  0  0  0  0  0  0  0  0  0
  145.1125  137.0038  150.0467 H   0  0  0  0  0  0  0  0  0  0  0  0
  144.0593  137.8793  151.1804 H   0  0  0  0  0  0  0  0  0  0  0  0
  151.0017  138.8062  155.6089 H   0  0  0  0  0  0  0  0  0  0  0  0
  153.0739  139.2463  156.9418 H   0  0  0  0  0  0  0  0  0  0  0  0
  1  2  1  0  0  0  0
  1 35  1  0  0  0  0
  1 36  1  0  0  0  0
  1 37  1  0  0  0  0
  2  3  1  0  0  0  0
  2  4  1  0  0  0  0
  2 38  1  0  0  0  0
  3 39  1  0  0  0  0
  3 40  1  0  0  0  0
  3 41  1  0  0  0  0
  4  5  1  0  0  0  0
  5 30  1  0  0  0  0
  5  6  2  0  0  0  0
  6  7  1  0  0  0  0
  6 42  1  0  0  0  0
  7  8  1  0  0  0  0
  7 28  2  0  0  0  0
  8  9  1  0  0  0  0
  8 43  1  0  0  0  0
  8 44  1  0  0  0  0
  9 10  1  0  0  0  0
  9 45  1  0  0  0  0
 10 15  1  0  0  0  0
 10 11  2  0  0  0  0
 11 12  1  0  0  0  0
 12 13  2  0  0  0  0
 12 46  1  0  0  0  0
 13 14  1  0  0  0  0
 14 18  1  0  0  0  0
 14 15  2  0  0  0  0
 15 16  1  0  0  0  0
 16 17  2  0  0  0  0
 17 18  1  0  0  0  0
 17 47  1  0  0  0  0
 18 19  1  0  0  0  0
 19 31  1  0  0  0  0
 19 26  1  0  0  0  0
 19 20  1  0  0  0  0
 20 21  1  0  0  0  0
 21 32  1  0  0  0  0
 21 22  1  0  0  0  0
 21 24  1  0  0  0  0
 22 23  1  0  0  0  0
 22 48  1  0  0  0  0
 22 49  1  0  0  0  0
 23 50  1  0  0  0  0
 24 33  1  0  0  0  0
 24 25  1  0  0  0  0
 24 26  1  0  0  0  0
 25 51  1  0  0  0  0
 26 34  1  0  0  0  0
 26 27  1  0  0  0  0
 27 52  1  0  0  0  0
 28 29  1  0  0  0  0
 28 53  1  0  0  0  0
 29 30  2  0  0  0  0
 29 54  1  0  0  0  0
M  END
> <s_m_source_file>
AV-unprocessed.smi

> <i_m_source_file_index>
218

> <i_lp_mmshare_version>
43012

> <i_f3d_flags>
0

> <s_epik_input>
W0NIM11bQ0hdKFtDSDNdKU9jMVtjSF1jKFtjSF1bY0hdbjEpW0NIMl1bTkhdYyhuW2NIXW4yKWMoYzIzKW5bY0hdbjNbQ0BASF00T1tDQEhdKFtDSDJdW09IXSlbQ0BASF0oW09IXSlbQ0BIXTRbT0hd

> <s_epik_cmdline>
J2VwaWtfcHl0aG9uJywgJy1waCcsICc3LjAnLCAnLXRuJywgJzgnLCAnLW1hJywgJzIwMCcsICctbWV0YWxfYmluZGluZycsICctaW1hZScsICc8aW5maWxlLm1hZT4nLCAnLW9tYWUnLCAnPG91dGZpbGUubWFlPic=

> <r_lp_tautomer_probability>
1

> <r_epik_Ionization_Penalty>
0.00457014

> <r_epik_Ionization_Penalty_Charging>
0

> <r_epik_Ionization_Penalty_Neutral>
0.00457014

> <r_epik_State_Penalty>
-0

> <r_epik_Charging_Adjusted_Penalty>
0

> <i_epik_Tot_Q>
0

> <i_epik_Tot_abs_Q>
0

> <r_epik_Metal_State_Penalty>
-0

> <b_epik_Metal_Only>
0

> <s_epik_Chemistry_Notes>
This compound contains an acetal/aminal-like group ( X-CH(R)-Y where X, Y are N, S, or O) that may be acid/base labile, releasing an aldehyde.

> <s_lp_Force_Field>
OPLS_2005

> <r_lp_Energy>
51.9748

> <b_lp_Chiralities_Consistent>
1

> <s_lp_Variant>
AV-unprocessed.smi:218-13

> <Gold.Version>
5.8.1

> <Gold.Id.Protein>
6NUR|6NUR_protein|mol2

> <Gold.PLP.Fitness>
47.4907

> <Gold.PLP.PLP>
-37.1177

> <Gold.PLP.part.hbond>
-4.6829

> <Gold.PLP.part.metal>
0.0000

> <Gold.PLP.part.buried>
-5.9684

> <Gold.PLP.part.nonpolar>
-26.9320

> <Gold.PLP.part.repulsive>
0.3221

> <Gold.PLP.ligand.clash>
0.0000

> <Gold.PLP.ligand.torsion>
0.7157

> <Gold.PLP.Chemscore.Hbond>
3.0000

> <Gold.PLP.Chemscore.CHOScore>
0.8970

> <Gold.PLP.Chemscore.Metal>
0.0000

> <Gold.Chemscore.Hbonds>
donor molecule, donor type, donor heavy atom, donor atom, acceptor molecule, acceptor atom, score
      L1  H    23    50       P1  7921  1.00
      L1  H    25    51       P1 10171  1.00
      L1  H    27    52       P1 10171  1.00
      L1  C    17    47       P1  7948  0.86

> <Gold.PLP.Chemscore.Internal.Correction>
0.1133

> <Gold.Rescore>
     Score         DG    S(hbond)    S(metal)    S(lipo)     H(rot)  DE(clash)    DE(int)     intcor
     10.56     -12.43       2.91        0.00      83.48       4.90       0.06       1.81       ----

> <Gold.Chemscore.Fitness>
10.5647

> <Gold.Chemscore.DG>
-12.4271

> <Gold.Chemscore.ZeroCoef>
-5.4800

> <Gold.Chemscore.Hbond>
2.9138

> <Gold.Chemscore.Metal>
0.0000

> <Gold.Chemscore.Lipo>
83.4761

> <Gold.Chemscore.Internal_Hbond>
0.0000

> <Gold.Chemscore.DEClash>
0.0567

> <Gold.Chemscore.DEInternal>
1.8058

> <Gold.Chemscore.Rot>
4.9029

> <Gold.Chemscore.Internal.Correction>
   9.000000E+99

> <Gold.Chemscore.Hbonds>
donor molecule, donor type, donor heavy atom, donor atom, acceptor molecule, acceptor atom, score
      L1  H    23    50       P1  7921  0.68
      L1  H    25    51       P1 10171  0.95
      L1  H    27    52       P1 10171  0.95

> <Gold.Chemscore.Hbond.Weighted>
-9.7320

> <Gold.Chemscore.Metal.Weighted>
-0.0000

> <Gold.Chemscore.Lipo.Weighted>
-9.7667

> <Gold.Chemscore.Internal_Hbond.Weighted>
0.0000

> <Gold.Chemscore.DEClash.Weighted>
0.0567

> <Gold.Chemscore.DEInternal.Weighted>
1.8058

> <Gold.Chemscore.Rot.Weighted>
12.5515

> <Gold.Chemscore.Internal.Correction.Weighted>
   9.000000E+99

> <Gold.Protein.RotatedTorsions>
[ 6907 6896 6895 6894 ] final  158.98 input  -60.11 | X-H torsion
[ 7974 7965 7964 7962 ] final  -61.41 input  175.53 | X-H torsion
[ 8008 7997 7996 7995 ] final  176.12 input   59.86 | X-H torsion
[ 10167 10162 10161 10158 ] final  110.50 input  -65.29 | X-H torsion
[ 10718 10713 10712 10709 ] final  -10.87 input   66.30 | X-H torsion
[ 10763 10752 10751 10750 ] final  101.15 input  -60.55 | X-H torsion
[ 11005 11000 10999 10996 ] final  -22.96 input  -57.11 | X-H torsion

> <Gold.Protein.ActiveResidues>
 VAL166  LYS551  ARG553  GLY616  TRP617  ASP618  TYR619  PRO620  LYS621  CYS622 
 ASP623  PHE694  ASN695  SER759  ASP760  ASP761  ALA762  ILE779  LEU786  VAL792 
 PHE793  MET794  SER795  GLU796  ALA797  LYS798  CYS799  TRP800  GLU811  SER814 

> <Gold.Protein.RotatedAtoms>
  151.9924  133.3796  159.4149 H   0  0  0  0  0  0  0  0  0  0  0  0  # atno 6907 bound_to 6896
  150.6920  134.3922  159.5091 H   0  0  0  0  0  0  0  0  0  0  0  0  # atno 6908 bound_to 6896
  152.1657  134.8875  160.0589 H   0  0  0  0  0  0  0  0  0  0  0  0  # atno 6909 bound_to 6896
  145.8038  140.8639  143.0217 H   0  0  0  0  0  0  0  0  0  0  0  0  # atno 7974 bound_to 7965
  156.0798  140.1391  156.9726 H   0  0  0  0  0  0  0  0  0  0  0  0  # atno 8008 bound_to 7997
  154.4579  140.0954  156.6858 H   0  0  0  0  0  0  0  0  0  0  0  0  # atno 8009 bound_to 7997
  155.5093  140.3453  155.4388 H   0  0  0  0  0  0  0  0  0  0  0  0  # atno 8010 bound_to 7997
  139.6683  144.7126  151.1735 H   0  0  0  0  0  0  0  0  0  0  0  0  # atno 10167 bound_to 10162
  156.6673  130.4999  149.6011 H   0  0  0  0  0  0  0  0  0  0  0  0  # atno 10718 bound_to 10713
  153.3230  135.4054  155.1433 H   0  0  0  0  0  0  0  0  0  0  0  0  # atno 10763 bound_to 10752
  154.8605  135.3592  154.5571 H   0  0  0  0  0  0  0  0  0  0  0  0  # atno 10764 bound_to 10752
  153.6005  135.7071  153.5445 H   0  0  0  0  0  0  0  0  0  0  0  0  # atno 10765 bound_to 10752
  140.8707  133.7723  156.0183 H   0  0  0  0  0  0  0  0  0  0  0  0  # atno 11005 bound_to 11000
  144.6765  140.0297  143.7483 LP  0  0  0  0  0  0  0  0  0  0  0  0  # atno 17320 bound_to 7965
  145.9850  139.2970  143.1019 LP  0  0  0  0  0  0  0  0  0  0  0  0  # atno 17321 bound_to 7965
  140.7608  143.5884  150.8822 LP  0  0  0  0  0  0  0  0  0  0  0  0  # atno 17342 bound_to 10162
  139.9547  143.6231  152.3019 LP  0  0  0  0  0  0  0  0  0  0  0  0  # atno 17343 bound_to 10162
  156.1965  130.6593  151.1120 LP  0  0  0  0  0  0  0  0  0  0  0  0  # atno 17370 bound_to 10713
  157.7089  131.0743  150.6570 LP  0  0  0  0  0  0  0  0  0  0  0  0  # atno 17371 bound_to 10713
  140.8577  134.2878  157.5248 LP  0  0  0  0  0  0  0  0  0  0  0  0  # atno 17394 bound_to 11000
  139.8712  134.9501  156.4046 LP  0  0  0  0  0  0  0  0  0  0  0  0  # atno 17395 bound_to 11000

$$$$
