AV-unprocessed.smi:1361|AV-procd|sdf|5557|dock3
  -GOLD-   22720 5153D 1   1.00000     0.00000
 Structure written by MMmdl.
 45 46  0  0  0  0  0  0  0  0  2 V2000
  144.5565  144.5193  155.8871 C   0  0  0  0  0  0  0  0  0  0  0  0
  145.6123  143.4349  155.9093 C   0  0  0  0  0  0  0  0  0  0  0  0
  145.9771  142.8946  154.8097 N   0  0  0  0  0  0  0  0  0  0  0  0
  146.9599  141.8907  154.8250 C   0  0  0  0  0  0  0  0  0  0  0  0
  147.3341  141.3114  153.4715 C   0  0  0  0  0  0  0  0  0  0  0  0
  147.5301  141.4785  155.9937 C   0  0  0  0  0  0  0  0  0  0  0  0
  148.6075  140.3973  156.0631 C   0  0  0  0  0  0  0  0  0  0  0  0
  150.0389  140.9093  156.2300 C   0  0  0  0  0  0  0  0  0  0  0  0
  150.8708  140.7160  155.3439 O   0  0  0  0  0  0  0  0  0  0  0  0
  150.3106  141.5618  157.3711 N   0  0  0  0  0  0  0  0  0  0  0  0
  151.6016  142.1372  157.7406 C   0  0  0  0  0  0  0  0  0  0  0  0
  152.0146  141.6341  159.1426 C   0  0  0  0  0  0  0  0  0  0  0  0
  153.2142  142.3701  159.7677 C   0  0  0  0  0  0  0  0  0  0  0  0
  152.8729  143.1989  161.0201 C   0  0  0  0  0  0  0  0  0  0  0  0
  151.5936  144.0600  160.9669 C   0  0  0  0  0  0  0  0  0  0  0  0
  151.4705  145.0253  159.7749 C   0  0  0  0  0  0  0  0  0  0  0  0
  150.7046  144.4725  158.5533 C   0  0  0  0  0  0  0  0  0  0  0  0
  151.5555  143.6719  157.5492 C   0  0  0  0  0  0  0  0  0  0  0  0
  147.0757  142.1214  157.2402 C   0  0  0  0  0  0  0  0  0  0  0  0
  147.5451  141.7774  158.3242 O   0  0  0  0  0  0  0  0  0  0  0  0
  146.1257  143.0946  157.1404 N   0  5  0  0  0  0  0  0  0  0  0  0
  144.0784  144.5824  154.9087 H   0  0  0  0  0  0  0  0  0  0  0  0
  145.0067  145.4863  156.1130 H   0  0  0  0  0  0  0  0  0  0  0  0
  143.7849  144.3145  156.6301 H   0  0  0  0  0  0  0  0  0  0  0  0
  148.3930  141.4666  153.2647 H   0  0  0  0  0  0  0  0  0  0  0  0
  146.7658  141.7843  152.6697 H   0  0  0  0  0  0  0  0  0  0  0  0
  147.1251  140.2423  153.4412 H   0  0  0  0  0  0  0  0  0  0  0  0
  148.3670  139.7241  156.8864 H   0  0  0  0  0  0  0  0  0  0  0  0
  148.5764  139.7618  155.1778 H   0  0  0  0  0  0  0  0  0  0  0  0
  149.5597  141.6733  158.0365 H   0  0  0  0  0  0  0  0  0  0  0  0
  152.3468  141.7727  157.0306 H   0  0  0  0  0  0  0  0  0  0  0  0
  151.1592  141.6469  159.8169 H   0  0  0  0  0  0  0  0  0  0  0  0
  152.2710  140.5771  159.0575 H   0  0  0  0  0  0  0  0  0  0  0  0
  153.9674  141.6337  160.0509 H   0  0  0  0  0  0  0  0  0  0  0  0
  153.7165  142.9979  159.0337 H   0  0  0  0  0  0  0  0  0  0  0  0
  152.7811  142.5202  161.8688 H   0  0  0  0  0  0  0  0  0  0  0  0
  153.7248  143.8395  161.2509 H   0  0  0  0  0  0  0  0  0  0  0  0
  150.7012  143.4386  161.0372 H   0  0  0  0  0  0  0  0  0  0  0  0
  151.5809  144.6560  161.8805 H   0  0  0  0  0  0  0  0  0  0  0  0
  150.9086  145.8904  160.1288 H   0  0  0  0  0  0  0  0  0  0  0  0
  152.4462  145.4187  159.4879 H   0  0  0  0  0  0  0  0  0  0  0  0
  149.8221  143.9111  158.8607 H   0  0  0  0  0  0  0  0  0  0  0  0
  150.3159  145.3370  158.0137 H   0  0  0  0  0  0  0  0  0  0  0  0
  152.5624  144.0864  157.5083 H   0  0  0  0  0  0  0  0  0  0  0  0
  151.1555  143.8590  156.5512 H   0  0  0  0  0  0  0  0  0  0  0  0
  1  2  1  0  0  0  0
  1 22  1  0  0  0  0
  1 23  1  0  0  0  0
  1 24  1  0  0  0  0
  2 21  1  0  0  0  0
  2  3  2  0  0  0  0
  3  4  1  0  0  0  0
  4  5  1  0  0  0  0
  4  6  2  0  0  0  0
  5 25  1  0  0  0  0
  5 26  1  0  0  0  0
  5 27  1  0  0  0  0
  6  7  1  0  0  0  0
  6 19  1  0  0  0  0
  7  8  1  0  0  0  0
  7 28  1  0  0  0  0
  7 29  1  0  0  0  0
  8  9  2  0  0  0  0
  8 10  1  0  0  0  0
 10 11  1  0  0  0  0
 10 30  1  0  0  0  0
 11 18  1  0  0  0  0
 11 12  1  0  0  0  0
 11 31  1  0  0  0  0
 12 13  1  0  0  0  0
 12 32  1  0  0  0  0
 12 33  1  0  0  0  0
 13 14  1  0  0  0  0
 13 34  1  0  0  0  0
 13 35  1  0  0  0  0
 14 15  1  0  0  0  0
 14 36  1  0  0  0  0
 14 37  1  0  0  0  0
 15 16  1  0  0  0  0
 15 38  1  0  0  0  0
 15 39  1  0  0  0  0
 16 17  1  0  0  0  0
 16 40  1  0  0  0  0
 16 41  1  0  0  0  0
 17 18  1  0  0  0  0
 17 42  1  0  0  0  0
 17 43  1  0  0  0  0
 18 44  1  0  0  0  0
 18 45  1  0  0  0  0
 19 20  2  0  0  0  0
 19 21  1  0  0  0  0
M  CHG  1  21  -1
M  END
> <s_m_source_file>
AV-unprocessed.smi

> <i_m_source_file_index>
1361

> <i_lp_mmshare_version>
43012

> <i_f3d_flags>
0

> <s_epik_input>
W0NIM11jMW5jKFtDSDNdKWMoYyg9TylbbkhdMSlbQ0gyXUMoPU8pW05IXVtDSF0yW0NIMl1bQ0gyXVtDSDJdW0NIMl1bQ0gyXVtDSDJdW0NIMl0y

> <s_epik_cmdline>
J2VwaWtfcHl0aG9uJywgJy1waCcsICc3LjAnLCAnLXRuJywgJzgnLCAnLW1hJywgJzIwMCcsICctbWV0YWxfYmluZGluZycsICctaW1hZScsICc8aW5maWxlLm1hZT4nLCAnLW9tYWUnLCAnPG91dGZpbGUubWFlPic=

> <r_lp_tautomer_probability>
0.839158

> <r_epik_Ionization_Penalty>
6.62804

> <r_epik_Ionization_Penalty_Charging>
7.40585e-08

> <r_epik_Ionization_Penalty_Neutral>
6.62804

> <r_epik_State_Penalty>
4.44437

> <r_epik_Charging_Adjusted_Penalty>
4.44437

> <i_epik_Tot_Q>
-1

> <i_epik_Tot_abs_Q>
1

> <r_epik_Metal_State_Penalty>
0.804717

> <b_epik_Metal_Only>
1

> <s_lp_Force_Field>
OPLS_2005

> <r_lp_Energy>
26.9664

> <b_lp_Chiralities_Consistent>
1

> <s_lp_Variant>
AV-unprocessed.smi:1361-3

> <Gold.Version>
5.8.1

> <Gold.Id.Protein>
6NUR|6NUR_protein|mol2

> <Gold.PLP.Fitness>
40.8631

> <Gold.PLP.PLP>
-39.0556

> <Gold.PLP.part.hbond>
-1.6753

> <Gold.PLP.part.metal>
0.0000

> <Gold.PLP.part.buried>
-7.8767

> <Gold.PLP.part.nonpolar>
-29.4751

> <Gold.PLP.part.repulsive>
0.5269

> <Gold.PLP.ligand.clash>
0.0000

> <Gold.PLP.ligand.torsion>
0.4131

> <Gold.PLP.Chemscore.Hbond>
0.8640

> <Gold.PLP.Chemscore.CHOScore>
0.0000

> <Gold.PLP.Chemscore.Metal>
0.0000

> <Gold.Chemscore.Hbonds>
donor molecule, donor type, donor heavy atom, donor atom, acceptor molecule, acceptor atom, score
      P1  H  7989  7998       L1     9  0.86

> <Gold.PLP.Chemscore.Internal.Correction>
0.0417

> <Gold.Rescore>
     Score         DG    S(hbond)    S(metal)    S(lipo)     H(rot)  DE(clash)    DE(int)     intcor
     17.03     -17.57       0.95        0.00     107.60       1.43       0.06       0.47       ----

> <Gold.Chemscore.Fitness>
17.0282

> <Gold.Chemscore.DG>
-17.5650

> <Gold.Chemscore.ZeroCoef>
-5.4800

> <Gold.Chemscore.Hbond>
0.9481

> <Gold.Chemscore.Metal>
0.0000

> <Gold.Chemscore.Lipo>
107.6000

> <Gold.Chemscore.Internal_Hbond>
0.0000

> <Gold.Chemscore.DEClash>
0.0619

> <Gold.Chemscore.DEInternal>
0.4749

> <Gold.Chemscore.Rot>
1.4339

> <Gold.Chemscore.Internal.Correction>
   9.000000E+99

> <Gold.Chemscore.Hbonds>
donor molecule, donor type, donor heavy atom, donor atom, acceptor molecule, acceptor atom, score
      P1  H  7989  7998       L1     9  0.82

> <Gold.Chemscore.Hbond.Weighted>
-3.1666

> <Gold.Chemscore.Metal.Weighted>
-0.0000

> <Gold.Chemscore.Lipo.Weighted>
-12.5892

> <Gold.Chemscore.Internal_Hbond.Weighted>
0.0000

> <Gold.Chemscore.DEClash.Weighted>
0.0619

> <Gold.Chemscore.DEInternal.Weighted>
0.4749

> <Gold.Chemscore.Rot.Weighted>
3.6708

> <Gold.Chemscore.Internal.Correction.Weighted>
   9.000000E+99

> <Gold.Protein.RotatedTorsions>
[ 6907 6896 6895 6894 ] final  135.99 input  -60.11 | X-H torsion
[ 7974 7965 7964 7962 ] final  162.78 input  175.53 | X-H torsion
[ 8008 7997 7996 7995 ] final  -43.48 input   59.86 | X-H torsion
[ 10167 10162 10161 10158 ] final   91.66 input  -65.29 | X-H torsion
[ 10718 10713 10712 10709 ] final -161.80 input   66.30 | X-H torsion
[ 10763 10752 10751 10750 ] final  -99.70 input  -60.55 | X-H torsion
[ 11005 11000 10999 10996 ] final  108.70 input  -57.11 | X-H torsion

> <Gold.Protein.ActiveResidues>
 VAL166  LYS551  ARG553  GLY616  TRP617  ASP618  TYR619  PRO620  LYS621  CYS622 
 ASP623  PHE694  ASN695  SER759  ASP760  ASP761  ALA762  ILE779  LEU786  VAL792 
 PHE793  MET794  SER795  GLU796  ALA797  LYS798  CYS799  TRP800  GLU811  SER814 

> <Gold.Protein.RotatedAtoms>
  152.2943  133.5592  159.5577 H   0  0  0  0  0  0  0  0  0  0  0  0  # atno 6907 bound_to 6896
  150.7249  134.0383  159.3766 H   0  0  0  0  0  0  0  0  0  0  0  0  # atno 6908 bound_to 6896
  151.8287  135.0629  160.0485 H   0  0  0  0  0  0  0  0  0  0  0  0  # atno 6909 bound_to 6896
  144.7620  139.8089  143.6329 H   0  0  0  0  0  0  0  0  0  0  0  0  # atno 7974 bound_to 7965
  154.3997  140.1446  156.3526 H   0  0  0  0  0  0  0  0  0  0  0  0  # atno 8008 bound_to 7997
  155.8254  140.3468  155.5519 H   0  0  0  0  0  0  0  0  0  0  0  0  # atno 8009 bound_to 7997
  155.8244  140.0903  157.1820 H   0  0  0  0  0  0  0  0  0  0  0  0  # atno 8010 bound_to 7997
  139.8353  144.6667  150.9350 H   0  0  0  0  0  0  0  0  0  0  0  0  # atno 10167 bound_to 10162
  156.6014  130.8812  151.2914 H   0  0  0  0  0  0  0  0  0  0  0  0  # atno 10718 bound_to 10713
  154.7519  135.4962  153.9305 H   0  0  0  0  0  0  0  0  0  0  0  0  # atno 10763 bound_to 10752
  153.1153  135.6719  153.9437 H   0  0  0  0  0  0  0  0  0  0  0  0  # atno 10764 bound_to 10752
  153.9184  135.3091  155.3427 H   0  0  0  0  0  0  0  0  0  0  0  0  # atno 10765 bound_to 10752
  139.8848  134.9438  156.6012 H   0  0  0  0  0  0  0  0  0  0  0  0  # atno 11005 bound_to 11000
  146.1692  139.4836  142.9938 LP  0  0  0  0  0  0  0  0  0  0  0  0  # atno 17320 bound_to 7965
  145.6589  141.0245  143.1720 LP  0  0  0  0  0  0  0  0  0  0  0  0  # atno 17321 bound_to 7965
  140.7803  143.3963  151.1224 LP  0  0  0  0  0  0  0  0  0  0  0  0  # atno 17342 bound_to 10162
  139.7613  143.8631  152.3101 LP  0  0  0  0  0  0  0  0  0  0  0  0  # atno 17343 bound_to 10162
  157.7278  130.9649  150.1717 LP  0  0  0  0  0  0  0  0  0  0  0  0  # atno 17370 bound_to 10713
  156.2466  130.3696  149.8278 LP  0  0  0  0  0  0  0  0  0  0  0  0  # atno 17371 bound_to 10713
  140.7882  133.8604  155.8624 LP  0  0  0  0  0  0  0  0  0  0  0  0  # atno 17394 bound_to 11000
  140.9701  134.1543  157.4584 LP  0  0  0  0  0  0  0  0  0  0  0  0  # atno 17395 bound_to 11000

$$$$
