AV-unprocessed.smi:451|AV-procd|sdf|2609|dock5
  -GOLD-   2262023 03D 1   1.00000     0.00000
 Structure written by MMmdl.
 38 38  0  0  0  0  0  0  0  0  1 V2000
  147.4501  141.8660  154.1068 C   0  0  0  0  0  0  0  0  0  0  0  0
  148.6286  141.2479  154.8705 C   0  0  0  0  0  0  0  0  0  0  0  0
  149.7892  142.2231  155.1538 C   0  0  0  0  0  0  0  0  0  0  0  0
  150.7247  141.7516  156.1597 N   0  0  0  0  0  0  0  0  0  0  0  0
  151.0191  142.4681  157.3234 C   0  0  0  0  0  0  0  0  0  0  0  0
  150.3963  143.6934  157.5067 N   0  0  0  0  0  0  0  0  0  0  0  0
  151.8987  142.0026  158.2588 C   0  0  0  0  0  0  0  0  0  0  0  0
  152.2027  142.6873  159.4344 N   0  0  0  0  0  0  0  0  0  0  0  0
  151.5887  143.9720  159.7487 C   0  0  0  0  0  0  0  0  0  0  0  0
  153.2287  142.2157  160.3615 C   0  0  0  0  0  0  0  0  0  0  0  0
  153.0796  142.8372  161.7626 C   0  0  0  0  0  0  0  0  0  0  0  0
  153.9663  142.2475  162.7034 O   0  0  0  0  0  0  0  0  0  0  0  0
  154.0104  142.9100  163.9577 C   0  0  0  0  0  0  0  0  0  0  0  0
  152.5652  140.7081  158.0674 C   0  0  0  0  0  0  0  0  0  0  0  0
  153.3639  140.1879  158.8460 O   0  0  0  0  0  0  0  0  0  0  0  0
  152.2282  140.0398  156.8933 N   0  0  0  0  0  0  0  0  0  0  0  0
  151.3362  140.4949  155.9295 C   0  0  0  0  0  0  0  0  0  0  0  0
  151.1140  139.7961  154.9403 O   0  0  0  0  0  0  0  0  0  0  0  0
  152.6648  139.1441  156.7319 H   0  0  0  0  0  0  0  0  0  0  0  0
  146.6381  141.1463  154.0011 H   0  0  0  0  0  0  0  0  0  0  0  0
  147.7435  142.1780  153.1044 H   0  0  0  0  0  0  0  0  0  0  0  0
  147.0559  142.7378  154.6298 H   0  0  0  0  0  0  0  0  0  0  0  0
  148.2621  140.8618  155.8220 H   0  0  0  0  0  0  0  0  0  0  0  0
  148.9971  140.3823  154.3196 H   0  0  0  0  0  0  0  0  0  0  0  0
  150.3359  142.4749  154.2443 H   0  0  0  0  0  0  0  0  0  0  0  0
  149.4120  143.1774  155.5219 H   0  0  0  0  0  0  0  0  0  0  0  0
  149.7490  144.0640  156.8260 H   0  0  0  0  0  0  0  0  0  0  0  0
  150.5486  144.2519  158.3341 H   0  0  0  0  0  0  0  0  0  0  0  0
  150.6508  144.0953  159.2056 H   0  0  0  0  0  0  0  0  0  0  0  0
  152.2479  144.7954  159.4741 H   0  0  0  0  0  0  0  0  0  0  0  0
  151.3673  144.0506  160.8136 H   0  0  0  0  0  0  0  0  0  0  0  0
  153.1782  141.1284  160.4288 H   0  0  0  0  0  0  0  0  0  0  0  0
  154.2131  142.4472  159.9554 H   0  0  0  0  0  0  0  0  0  0  0  0
  153.2157  143.9193  161.7287 H   0  0  0  0  0  0  0  0  0  0  0  0
  152.0689  142.6649  162.1319 H   0  0  0  0  0  0  0  0  0  0  0  0
  154.6521  142.3511  164.6387 H   0  0  0  0  0  0  0  0  0  0  0  0
  153.0194  142.9717  164.4091 H   0  0  0  0  0  0  0  0  0  0  0  0
  154.4202  143.9160  163.8725 H   0  0  0  0  0  0  0  0  0  0  0  0
  1  2  1  0  0  0  0
  1 20  1  0  0  0  0
  1 21  1  0  0  0  0
  1 22  1  0  0  0  0
  2  3  1  0  0  0  0
  2 23  1  0  0  0  0
  2 24  1  0  0  0  0
  3  4  1  0  0  0  0
  3 25  1  0  0  0  0
  3 26  1  0  0  0  0
  4 17  1  0  0  0  0
  4  5  1  0  0  0  0
  5  6  1  0  0  0  0
  5  7  2  0  0  0  0
  6 27  1  0  0  0  0
  6 28  1  0  0  0  0
  7  8  1  0  0  0  0
  7 14  1  0  0  0  0
  8  9  1  0  0  0  0
  8 10  1  0  0  0  0
  9 29  1  0  0  0  0
  9 30  1  0  0  0  0
  9 31  1  0  0  0  0
 10 11  1  0  0  0  0
 10 32  1  0  0  0  0
 10 33  1  0  0  0  0
 11 12  1  0  0  0  0
 11 34  1  0  0  0  0
 11 35  1  0  0  0  0
 12 13  1  0  0  0  0
 13 36  1  0  0  0  0
 13 37  1  0  0  0  0
 13 38  1  0  0  0  0
 14 15  2  0  0  0  0
 14 16  1  0  0  0  0
 16 19  1  0  0  0  0
 16 17  1  0  0  0  0
 17 18  2  0  0  0  0
M  END
> <s_m_source_file>
AV-unprocessed.smi

> <i_m_source_file_index>
451

> <i_lp_mmshare_version>
43012

> <i_f3d_flags>
0

> <s_epik_input>
W0NIM11bQ0gyXVtDSDJdbjFjKFtOSDJdKWMoYyg9TylbbkhdYzE9TylOKFtDSDNdKVtDSDJdW0NIMl1PW0NIM10=

> <s_epik_cmdline>
J2VwaWtfcHl0aG9uJywgJy1waCcsICc3LjAnLCAnLXRuJywgJzgnLCAnLW1hJywgJzIwMCcsICctbWV0YWxfYmluZGluZycsICctaW1hZScsICc8aW5maWxlLm1hZT4nLCAnLW9tYWUnLCAnPG91dGZpbGUubWFlPic=

> <r_lp_tautomer_probability>
1

> <r_epik_Ionization_Penalty>
2.19941e-05

> <r_epik_Ionization_Penalty_Charging>
2.62604e-06

> <r_epik_Ionization_Penalty_Neutral>
1.93681e-05

> <r_epik_State_Penalty>
-0

> <r_epik_Charging_Adjusted_Penalty>
2.62604e-06

> <i_epik_Tot_Q>
0

> <i_epik_Tot_abs_Q>
0

> <r_epik_Metal_State_Penalty>
-0

> <b_epik_Metal_Only>
0

> <s_epik_Chemistry_Notes>
This compound has an imine and may undergo hydrolysis.

> <s_lp_Force_Field>
OPLS_2005

> <r_lp_Energy>
22.0879

> <b_lp_Chiralities_Consistent>
1

> <s_lp_Variant>
AV-unprocessed.smi:451-1

> <Gold.Version>
5.8.1

> <Gold.Id.Protein>
6NUR|6NUR_protein|mol2

> <Gold.PLP.Fitness>
46.2393

> <Gold.PLP.PLP>
-40.2139

> <Gold.PLP.part.hbond>
-3.7582

> <Gold.PLP.part.metal>
0.0000

> <Gold.PLP.part.buried>
-1.4079

> <Gold.PLP.part.nonpolar>
-33.1754

> <Gold.PLP.part.repulsive>
0.2157

> <Gold.PLP.ligand.clash>
21.2512

> <Gold.PLP.ligand.torsion>
0.4037

> <Gold.PLP.Chemscore.Hbond>
2.2563

> <Gold.PLP.Chemscore.CHOScore>
0.0000

> <Gold.PLP.Chemscore.Metal>
0.0000

> <Gold.Chemscore.Hbonds>
donor molecule, donor type, donor heavy atom, donor atom, acceptor molecule, acceptor atom, score
      L1  H     6    27       P1  8028  1.00
      P1  H  7989  7998       L1    18  1.00
      P1  H  7997  8010       L1    15  0.26

> <Gold.PLP.Chemscore.Internal.Correction>
21.3153

> <Gold.Rescore>
     Score         DG    S(hbond)    S(metal)    S(lipo)     H(rot)  DE(clash)    DE(int)     intcor
      6.67     -14.00       1.44        0.00      75.64       2.00       1.79       5.55       ----

> <Gold.Chemscore.Fitness>
6.6652

> <Gold.Chemscore.DG>
-14.0047

> <Gold.Chemscore.ZeroCoef>
-5.4800

> <Gold.Chemscore.Hbond>
1.4378

> <Gold.Chemscore.Metal>
0.0000

> <Gold.Chemscore.Lipo>
75.6442

> <Gold.Chemscore.Internal_Hbond>
0.0000

> <Gold.Chemscore.DEClash>
1.7915

> <Gold.Chemscore.DEInternal>
5.5480

> <Gold.Chemscore.Rot>
2.0031

> <Gold.Chemscore.Internal.Correction>
   9.000000E+99

> <Gold.Chemscore.Hbonds>
donor molecule, donor type, donor heavy atom, donor atom, acceptor molecule, acceptor atom, score
      L1  H     6    27       P1  8028  0.88
      P1  H  7989  7998       L1    18  0.45
      P1  H  7997  8010       L1    15  0.01

> <Gold.Chemscore.Hbond.Weighted>
-4.8022

> <Gold.Chemscore.Metal.Weighted>
-0.0000

> <Gold.Chemscore.Lipo.Weighted>
-8.8504

> <Gold.Chemscore.Internal_Hbond.Weighted>
0.0000

> <Gold.Chemscore.DEClash.Weighted>
1.7915

> <Gold.Chemscore.DEInternal.Weighted>
5.5480

> <Gold.Chemscore.Rot.Weighted>
5.1278

> <Gold.Chemscore.Internal.Correction.Weighted>
   9.000000E+99

> <Gold.Protein.RotatedTorsions>
[ 6907 6896 6895 6894 ] final  105.31 input  -60.11 | X-H torsion
[ 7974 7965 7964 7962 ] final  114.35 input  175.53 | X-H torsion
[ 8008 7997 7996 7995 ] final   14.28 input   59.86 | X-H torsion
[ 10167 10162 10161 10158 ] final -150.57 input  -65.29 | X-H torsion
[ 10718 10713 10712 10709 ] final -161.16 input   66.30 | X-H torsion
[ 10763 10752 10751 10750 ] final  168.43 input  -60.55 | X-H torsion
[ 11005 11000 10999 10996 ] final   17.57 input  -57.11 | X-H torsion

> <Gold.Protein.ActiveResidues>
 VAL166  LYS551  ARG553  GLY616  TRP617  ASP618  TYR619  PRO620  LYS621  CYS622 
 ASP623  PHE694  ASN695  SER759  ASP760  ASP761  ALA762  ILE779  LEU786  VAL792 
 PHE793  MET794  SER795  GLU796  ALA797  LYS798  CYS799  TRP800  GLU811  SER814 

> <Gold.Protein.RotatedAtoms>
  152.5235  133.9548  159.7688 H   0  0  0  0  0  0  0  0  0  0  0  0  # atno 6907 bound_to 6896
  150.9850  133.6198  159.2724 H   0  0  0  0  0  0  0  0  0  0  0  0  # atno 6908 bound_to 6896
  151.3362  135.0859  159.9408 H   0  0  0  0  0  0  0  0  0  0  0  0  # atno 6909 bound_to 6896
  145.2055  139.2931  143.4296 H   0  0  0  0  0  0  0  0  0  0  0  0  # atno 7974 bound_to 7965
  154.8463  140.2922  155.5627 H   0  0  0  0  0  0  0  0  0  0  0  0  # atno 8008 bound_to 7997
  156.3014  140.2504  156.3346 H   0  0  0  0  0  0  0  0  0  0  0  0  # atno 8009 bound_to 7997
  154.9070  140.0389  157.1914 H   0  0  0  0  0  0  0  0  0  0  0  0  # atno 8010 bound_to 7997
  139.7343  143.8760  152.2544 H   0  0  0  0  0  0  0  0  0  0  0  0  # atno 10167 bound_to 10162
  156.5923  130.8775  151.2893 H   0  0  0  0  0  0  0  0  0  0  0  0  # atno 10718 bound_to 10713
  154.3685  135.2753  155.2280 H   0  0  0  0  0  0  0  0  0  0  0  0  # atno 10763 bound_to 10752
  154.4438  135.5948  153.6150 H   0  0  0  0  0  0  0  0  0  0  0  0  # atno 10764 bound_to 10752
  152.9839  135.6025  154.3913 H   0  0  0  0  0  0  0  0  0  0  0  0  # atno 10765 bound_to 10752
  140.4345  134.1386  155.7684 H   0  0  0  0  0  0  0  0  0  0  0  0  # atno 11005 bound_to 11000
  146.3408  140.2314  142.8593 LP  0  0  0  0  0  0  0  0  0  0  0  0  # atno 17320 bound_to 7965
  144.9906  140.8543  143.5342 LP  0  0  0  0  0  0  0  0  0  0  0  0  # atno 17321 bound_to 7965
  139.8692  144.7077  150.9007 LP  0  0  0  0  0  0  0  0  0  0  0  0  # atno 17342 bound_to 10162
  140.7776  143.3752  151.1576 LP  0  0  0  0  0  0  0  0  0  0  0  0  # atno 17343 bound_to 10162
  157.7300  130.9680  150.1815 LP  0  0  0  0  0  0  0  0  0  0  0  0  # atno 17370 bound_to 10713
  156.2539  130.3703  149.8202 LP  0  0  0  0  0  0  0  0  0  0  0  0  # atno 17371 bound_to 10713
  141.1732  133.8567  157.1506 LP  0  0  0  0  0  0  0  0  0  0  0  0  # atno 17394 bound_to 11000
  140.0112  134.9987  157.0398 LP  0  0  0  0  0  0  0  0  0  0  0  0  # atno 17395 bound_to 11000

$$$$
