AV-unprocessed.smi:820|AV-procd|sdf|3837|dock10
  -GOLD-   22720 1283D 1   1.00000     0.00000
 Structure written by MMmdl.
 31 32  0  0  0  0  0  0  0  0  2 V2000
  151.8024  145.1659  160.4939 C   0  0  0  0  0  0  0  0  0  0  0  0
  152.0922  144.0067  161.4513 C   0  0  0  0  0  0  0  0  0  0  0  0
  153.0603  142.7013  160.6417 S   0  0  0  0  0  0  0  0  0  0  0  0
  152.2599  142.3221  159.1112 C   0  0  0  0  0  0  0  0  0  0  0  0
  152.0355  140.9841  158.7394 C   0  0  0  0  0  0  0  0  0  0  0  0
  151.3949  140.7376  157.5106 C   0  0  0  0  0  0  0  0  0  0  0  0
  150.9970  141.8220  156.6965 C   0  0  0  0  0  0  0  0  0  0  0  0
  150.3908  141.6255  155.5150 N   0  5  0  0  0  0  0  0  0  0  0  0
  150.2953  140.3788  154.9850 C   0  0  0  0  0  0  0  0  0  0  0  0
  151.1913  139.5318  155.0473 O   0  0  0  0  0  0  0  0  0  0  0  0
  149.0365  140.0765  154.3085 C   0  0  0  0  0  0  0  0  0  0  0  0
  148.6338  138.7913  154.1635 C   0  0  0  0  0  0  0  0  0  0  0  0
  147.4875  138.4197  153.5058 O   0  0  0  0  0  0  0  0  0  0  0  0
  146.8700  139.4600  152.7581 C   0  0  0  0  0  0  0  0  0  0  0  0
  146.9080  140.7772  153.5455 C   0  0  0  0  0  0  0  0  0  0  0  0
  148.2522  141.1186  153.8633 O   0  0  0  0  0  0  0  0  0  0  0  0
  151.2825  143.1213  157.1785 C   0  0  0  0  0  0  0  0  0  0  0  0
  151.8961  143.3774  158.3539 N   0  0  0  0  0  0  0  0  0  0  0  0
  151.2198  145.9422  160.9899 H   0  0  0  0  0  0  0  0  0  0  0  0
  151.2362  144.8267  159.6261 H   0  0  0  0  0  0  0  0  0  0  0  0
  152.7267  145.6199  160.1360 H   0  0  0  0  0  0  0  0  0  0  0  0
  152.6423  144.3702  162.3196 H   0  0  0  0  0  0  0  0  0  0  0  0
  151.1564  143.5819  161.8150 H   0  0  0  0  0  0  0  0  0  0  0  0
  152.3443  140.1680  159.3754 H   0  0  0  0  0  0  0  0  0  0  0  0
  151.2088  139.7207  157.1966 H   0  0  0  0  0  0  0  0  0  0  0  0
  149.1858  137.9291  154.5092 H   0  0  0  0  0  0  0  0  0  0  0  0
  147.3871  139.5722  151.8042 H   0  0  0  0  0  0  0  0  0  0  0  0
  145.8411  139.1776  152.5346 H   0  0  0  0  0  0  0  0  0  0  0  0
  146.4636  141.5837  152.9626 H   0  0  0  0  0  0  0  0  0  0  0  0
  146.3309  140.6894  154.4671 H   0  0  0  0  0  0  0  0  0  0  0  0
  151.0064  143.9903  156.5989 H   0  0  0  0  0  0  0  0  0  0  0  0
  1  2  1  0  0  0  0
  1 19  1  0  0  0  0
  1 20  1  0  0  0  0
  1 21  1  0  0  0  0
  2  3  1  0  0  0  0
  2 22  1  0  0  0  0
  2 23  1  0  0  0  0
  3  4  1  0  0  0  0
  4 18  1  0  0  0  0
  4  5  2  0  0  0  0
  5  6  1  0  0  0  0
  5 24  1  0  0  0  0
  6  7  2  0  0  0  0
  6 25  1  0  0  0  0
  7  8  1  0  0  0  0
  7 17  1  0  0  0  0
  8  9  1  0  0  0  0
  9 10  2  0  0  0  0
  9 11  1  0  0  0  0
 11 16  1  0  0  0  0
 11 12  2  0  0  0  0
 12 13  1  0  0  0  0
 12 26  1  0  0  0  0
 13 14  1  0  0  0  0
 14 15  1  0  0  0  0
 14 27  1  0  0  0  0
 14 28  1  0  0  0  0
 15 16  1  0  0  0  0
 15 29  1  0  0  0  0
 15 30  1  0  0  0  0
 17 18  2  0  0  0  0
 17 31  1  0  0  0  0
M  CHG  1   8  -1
M  END
> <s_m_source_file>
AV-unprocessed.smi

> <i_m_source_file_index>
820

> <i_lp_mmshare_version>
43012

> <i_f3d_flags>
0

> <s_epik_input>
W0NIM11bQ0gyXVNjMVtjSF1bY0hdYyhbY0hdbjEpW05IXUMoPU8pQzI9W0NIXU9bQ0gyXVtDSDJdTzI=

> <s_epik_cmdline>
J2VwaWtfcHl0aG9uJywgJy1waCcsICc3LjAnLCAnLXRuJywgJzgnLCAnLW1hJywgJzIwMCcsICctbWV0YWxfYmluZGluZycsICctaW1hZScsICc8aW5maWxlLm1hZT4nLCAnLW9tYWUnLCAnPG91dGZpbGUubWFlPic=

> <r_lp_tautomer_probability>
1

> <r_epik_Ionization_Penalty>
5.63505

> <r_epik_Ionization_Penalty_Charging>
5.63079

> <r_epik_Ionization_Penalty_Neutral>
0.00426194

> <r_epik_State_Penalty>
5.63074

> <r_epik_Charging_Adjusted_Penalty>
11.2615

> <i_epik_Tot_Q>
-1

> <i_epik_Tot_abs_Q>
1

> <r_epik_Metal_State_Penalty>
1.62037

> <b_epik_Metal_Only>
1

> <s_lp_Force_Field>
OPLS_2005

> <r_lp_Energy>
4.11082

> <b_lp_Chiralities_Consistent>
1

> <s_lp_Variant>
AV-unprocessed.smi:820-2

> <Gold.Version>
5.8.1

> <Gold.Id.Protein>
6NUR|6NUR_protein|mol2

> <Gold.PLP.Fitness>
38.6858

> <Gold.PLP.PLP>
-36.5194

> <Gold.PLP.part.hbond>
-1.2204

> <Gold.PLP.part.metal>
0.0000

> <Gold.PLP.part.buried>
-3.6895

> <Gold.PLP.part.nonpolar>
-32.0619

> <Gold.PLP.part.repulsive>
0.5273

> <Gold.PLP.ligand.clash>
0.0000

> <Gold.PLP.ligand.torsion>
0.7039

> <Gold.PLP.Chemscore.Hbond>
0.0000

> <Gold.PLP.Chemscore.CHOScore>
1.0000

> <Gold.PLP.Chemscore.Metal>
0.0000

> <Gold.Chemscore.Hbonds>
donor molecule, donor type, donor heavy atom, donor atom, acceptor molecule, acceptor atom, score
      L1  C    17    31       P1  8028  1.00

> <Gold.PLP.Chemscore.Internal.Correction>
0.5742

> <Gold.Rescore>
     Score         DG    S(hbond)    S(metal)    S(lipo)     H(rot)  DE(clash)    DE(int)     intcor
     11.39     -14.65       0.00        0.00     103.09       1.13       0.05       3.22       ----

> <Gold.Chemscore.Fitness>
11.3897

> <Gold.Chemscore.DG>
-14.6548

> <Gold.Chemscore.ZeroCoef>
-5.4800

> <Gold.Chemscore.Hbond>
0.0000

> <Gold.Chemscore.Metal>
0.0000

> <Gold.Chemscore.Lipo>
103.0922

> <Gold.Chemscore.Internal_Hbond>
0.0000

> <Gold.Chemscore.DEClash>
0.0498

> <Gold.Chemscore.DEInternal>
3.2153

> <Gold.Chemscore.Rot>
1.1277

> <Gold.Chemscore.Internal.Correction>
   9.000000E+99

> <Gold.Chemscore.Hbond.Weighted>
-0.0000

> <Gold.Chemscore.Metal.Weighted>
-0.0000

> <Gold.Chemscore.Lipo.Weighted>
-12.0618

> <Gold.Chemscore.Internal_Hbond.Weighted>
0.0000

> <Gold.Chemscore.DEClash.Weighted>
0.0498

> <Gold.Chemscore.DEInternal.Weighted>
3.2153

> <Gold.Chemscore.Rot.Weighted>
2.8870

> <Gold.Chemscore.Internal.Correction.Weighted>
   9.000000E+99

> <Gold.Protein.RotatedTorsions>
[ 6907 6896 6895 6894 ] final  -17.34 input  -60.11 | X-H torsion
[ 7974 7965 7964 7962 ] final -138.26 input  175.53 | X-H torsion
[ 8008 7997 7996 7995 ] final    4.66 input   59.86 | X-H torsion
[ 10167 10162 10161 10158 ] final   51.62 input  -65.29 | X-H torsion
[ 10718 10713 10712 10709 ] final   87.66 input   66.30 | X-H torsion
[ 10763 10752 10751 10750 ] final  -72.38 input  -60.55 | X-H torsion
[ 11005 11000 10999 10996 ] final  115.21 input  -57.11 | X-H torsion

> <Gold.Protein.ActiveResidues>
 VAL166  LYS551  ARG553  GLY616  TRP617  ASP618  TYR619  PRO620  LYS621  CYS622 
 ASP623  PHE694  ASN695  SER759  ASP760  ASP761  ALA762  ILE779  LEU786  VAL792 
 PHE793  MET794  SER795  GLU796  ALA797  LYS798  CYS799  TRP800  GLU811  SER814 

> <Gold.Protein.RotatedAtoms>
  151.2948  135.0752  159.9216 H   0  0  0  0  0  0  0  0  0  0  0  0  # atno 6907 bound_to 6896
  152.5309  133.9894  159.7854 H   0  0  0  0  0  0  0  0  0  0  0  0  # atno 6908 bound_to 6896
  151.0171  133.5860  159.2706 H   0  0  0  0  0  0  0  0  0  0  0  0  # atno 6909 bound_to 6896
  144.8773  140.6456  143.5228 H   0  0  0  0  0  0  0  0  0  0  0  0  # atno 7974 bound_to 7965
  154.7187  140.2707  155.6562 H   0  0  0  0  0  0  0  0  0  0  0  0  # atno 8008 bound_to 7997
  156.2817  140.2739  156.1776 H   0  0  0  0  0  0  0  0  0  0  0  0  # atno 8009 bound_to 7997
  155.0537  140.0371  157.2542 H   0  0  0  0  0  0  0  0  0  0  0  0  # atno 8010 bound_to 7997
  140.2600  144.3383  150.6321 H   0  0  0  0  0  0  0  0  0  0  0  0  # atno 10167 bound_to 10162
  157.6942  131.0264  150.3156 H   0  0  0  0  0  0  0  0  0  0  0  0  # atno 10718 bound_to 10713
  154.4449  135.5931  153.6153 H   0  0  0  0  0  0  0  0  0  0  0  0  # atno 10763 bound_to 10752
  152.9808  135.6007  154.3676 H   0  0  0  0  0  0  0  0  0  0  0  0  # atno 10764 bound_to 10752
  154.3531  135.2841  155.2340 H   0  0  0  0  0  0  0  0  0  0  0  0  # atno 10765 bound_to 10752
  139.9003  134.9580  156.7010 H   0  0  0  0  0  0  0  0  0  0  0  0  # atno 11005 bound_to 11000
  145.4018  139.1596  143.4173 LP  0  0  0  0  0  0  0  0  0  0  0  0  # atno 17320 bound_to 7965
  146.2971  140.4116  142.8717 LP  0  0  0  0  0  0  0  0  0  0  0  0  # atno 17321 bound_to 7965
  140.5973  143.2167  151.7140 LP  0  0  0  0  0  0  0  0  0  0  0  0  # atno 17342 bound_to 10162
  139.5019  144.3847  152.0340 LP  0  0  0  0  0  0  0  0  0  0  0  0  # atno 17343 bound_to 10162
  156.3651  130.3853  149.7220 LP  0  0  0  0  0  0  0  0  0  0  0  0  # atno 17370 bound_to 10713
  156.4653  130.7971  151.2990 LP  0  0  0  0  0  0  0  0  0  0  0  0  # atno 17371 bound_to 10713
  140.7150  133.9190  155.8109 LP  0  0  0  0  0  0  0  0  0  0  0  0  # atno 17394 bound_to 11000
  141.0271  134.0808  157.4056 LP  0  0  0  0  0  0  0  0  0  0  0  0  # atno 17395 bound_to 11000

$$$$
