AV-unprocessed.smi:1898|AV-procd|sdf|7702|dock6
  -GOLD-   22720 9443D 1   1.00000     0.00000
 Structure written by MMmdl.
 47 48  0  0  0  0  0  0  0  0  2 V2000
  149.6951  132.8285  153.2855 C   0  0  0  0  0  0  0  0  0  0  0  0
  149.2082  134.0886  153.8263 N   0  0  0  0  0  0  0  0  0  0  0  0
  149.2885  134.4347  155.1188 C   0  0  0  0  0  0  0  0  0  0  0  0
  149.7820  133.7085  155.9823 O   0  0  0  0  0  0  0  0  0  0  0  0
  148.7059  135.8020  155.4916 C   0  0  0  0  0  0  0  0  0  0  0  0
  149.3933  136.9314  154.8138 N   0  3  2  0  0  0  0  0  0  0  0  0
  150.8713  136.8461  154.9283 C   0  0  0  0  0  0  0  0  0  0  0  0
  151.5594  137.9410  154.0925 C   0  0  0  0  0  0  0  0  0  0  0  0
  151.0638  139.3497  154.4622 C   0  0  2  0  0  0  0  0  0  0  0  0
  151.5750  139.7437  155.7748 N   0  0  0  0  0  0  0  0  0  0  0  0
  151.2882  140.8920  156.4048 C   0  0  0  0  0  0  0  0  0  0  0  0
  150.5279  141.7444  155.9470 O   0  0  0  0  0  0  0  0  0  0  0  0
  151.9180  140.9656  157.5893 N   0  0  0  0  0  0  0  0  0  0  0  0
  151.8909  142.0195  158.5442 C   0  0  0  0  0  0  0  0  0  0  0  0
  151.1041  143.1883  158.4006 C   0  0  0  0  0  0  0  0  0  0  0  0
  151.1695  144.1818  159.3948 C   0  0  0  0  0  0  0  0  0  0  0  0
  152.0243  143.9760  160.4929 C   0  0  0  0  0  0  0  0  0  0  0  0
  152.7897  142.8747  160.6366 N   0  0  0  0  0  0  0  0  0  0  0  0
  152.7291  141.9154  159.6790 C   0  0  0  0  0  0  0  0  0  0  0  0
  153.5188  140.7906  159.8247 O   0  0  0  0  0  0  0  0  0  0  0  0
  154.3977  140.7178  160.9421 C   0  0  0  0  0  0  0  0  0  0  0  0
  149.5236  139.3905  154.4086 C   0  0  0  0  0  0  0  0  0  0  0  0
  148.8879  138.2636  155.2411 C   0  0  0  0  0  0  0  0  0  0  0  0
  149.5187  132.7919  152.2103 H   0  0  0  0  0  0  0  0  0  0  0  0
  149.1792  131.9838  153.7440 H   0  0  0  0  0  0  0  0  0  0  0  0
  150.7663  132.7181  153.4591 H   0  0  0  0  0  0  0  0  0  0  0  0
  148.7821  134.7345  153.1771 H   0  0  0  0  0  0  0  0  0  0  0  0
  147.6355  135.8341  155.2812 H   0  0  0  0  0  0  0  0  0  0  0  0
  148.8154  135.9007  156.5724 H   0  0  0  0  0  0  0  0  0  0  0  0
  151.1622  136.9264  155.9768 H   0  0  0  0  0  0  0  0  0  0  0  0
  151.2114  135.8698  154.5808 H   0  0  0  0  0  0  0  0  0  0  0  0
  152.6422  137.8776  154.2088 H   0  0  0  0  0  0  0  0  0  0  0  0
  151.3581  137.7586  153.0359 H   0  0  0  0  0  0  0  0  0  0  0  0
  151.4598  140.0504  153.7246 H   0  0  0  0  0  0  0  0  0  0  0  0
  152.2115  139.1045  156.2279 H   0  0  0  0  0  0  0  0  0  0  0  0
  152.4366  140.1466  157.8709 H   0  0  0  0  0  0  0  0  0  0  0  0
  150.4673  143.3502  157.5450 H   0  0  0  0  0  0  0  0  0  0  0  0
  150.5819  145.0844  159.3133 H   0  0  0  0  0  0  0  0  0  0  0  0
  152.1013  144.7185  161.2731 H   0  0  0  0  0  0  0  0  0  0  0  0
  154.9428  139.7746  160.9106 H   0  0  0  0  0  0  0  0  0  0  0  0
  153.8490  140.7503  161.8845 H   0  0  0  0  0  0  0  0  0  0  0  0
  155.1318  141.5246  160.9264 H   0  0  0  0  0  0  0  0  0  0  0  0
  149.1513  140.3591  154.7439 H   0  0  0  0  0  0  0  0  0  0  0  0
  149.2009  139.2896  153.3714 H   0  0  0  0  0  0  0  0  0  0  0  0
  147.8043  138.3080  155.1292 H   0  0  0  0  0  0  0  0  0  0  0  0
  149.0986  138.4129  156.3012 H   0  0  0  0  0  0  0  0  0  0  0  0
  149.1788  136.8372  153.8308 H   0  0  0  0  0  0  0  0  0  0  0  0
  1  2  1  0  0  0  0
  1 24  1  0  0  0  0
  1 25  1  0  0  0  0
  1 26  1  0  0  0  0
  2  3  1  0  0  0  0
  2 27  1  0  0  0  0
  3  4  2  0  0  0  0
  3  5  1  0  0  0  0
  5  6  1  0  0  0  0
  5 28  1  0  0  0  0
  5 29  1  0  0  0  0
  6 23  1  0  0  0  0
  6  7  1  0  0  0  0
  6 47  1  0  0  0  0
  7  8  1  0  0  0  0
  7 30  1  0  0  0  0
  7 31  1  0  0  0  0
  8  9  1  0  0  0  0
  8 32  1  0  0  0  0
  8 33  1  0  0  0  0
  9 10  1  0  0  0  0
  9 22  1  0  0  0  0
  9 34  1  0  0  0  0
 10 11  1  0  0  0  0
 10 35  1  0  0  0  0
 11 12  2  0  0  0  0
 11 13  1  0  0  0  0
 13 14  1  0  0  0  0
 13 36  1  0  0  0  0
 14 19  1  0  0  0  0
 14 15  2  0  0  0  0
 15 16  1  0  0  0  0
 15 37  1  0  0  0  0
 16 17  2  0  0  0  0
 16 38  1  0  0  0  0
 17 18  1  0  0  0  0
 17 39  1  0  0  0  0
 18 19  2  0  0  0  0
 19 20  1  0  0  0  0
 20 21  1  0  0  0  0
 21 40  1  0  0  0  0
 21 41  1  0  0  0  0
 21 42  1  0  0  0  0
 22 23  1  0  0  0  0
 22 43  1  0  0  0  0
 22 44  1  0  0  0  0
 23 45  1  0  0  0  0
 23 46  1  0  0  0  0
M  CHG  1   6   1
M  END
> <s_m_source_file>
AV-unprocessed.smi

> <i_m_source_file_index>
1898

> <i_lp_mmshare_version>
43012

> <i_f3d_flags>
0

> <s_epik_input>
W0NIM11bTkhdQyg9TylbQ0gyXU4xW0NIMl1bQ0gyXVtDSF0oW0NIMl1bQ0gyXTEpW05IXUMoPU8pW05IXWMyW2NIXVtjSF1bY0hdbmMyT1tDSDNd

> <s_epik_cmdline>
J2VwaWtfcHl0aG9uJywgJy1waCcsICc3LjAnLCAnLXRuJywgJzgnLCAnLW1hJywgJzIwMCcsICctbWV0YWxfYmluZGluZycsICctaW1hZScsICc8aW5maWxlLm1hZT4nLCAnLW9tYWUnLCAnPG91dGZpbGUubWFlPic=

> <r_lp_tautomer_probability>
1

> <r_epik_Ionization_Penalty>
0.838943

> <r_epik_Ionization_Penalty_Charging>
0.838844

> <r_epik_Ionization_Penalty_Neutral>
9.87395e-05

> <r_epik_State_Penalty>
0.8734

> <r_epik_Charging_Adjusted_Penalty>
1.71224

> <i_epik_Tot_Q>
1

> <i_epik_Tot_abs_Q>
1

> <r_epik_Metal_State_Penalty>
0.877926

> <b_epik_Metal_Only>
0

> <s_lp_Force_Field>
OPLS_2005

> <r_lp_Energy>
16.0451

> <b_lp_Chiralities_Consistent>
1

> <s_lp_Variant>
AV-unprocessed.smi:1898-3

> <Gold.Version>
5.8.1

> <Gold.Id.Protein>
6NUR|6NUR_protein|mol2

> <Gold.PLP.Fitness>
47.1327

> <Gold.PLP.PLP>
-38.2280

> <Gold.PLP.part.hbond>
-2.6213

> <Gold.PLP.part.metal>
0.0000

> <Gold.PLP.part.buried>
-2.5728

> <Gold.PLP.part.nonpolar>
-32.2782

> <Gold.PLP.part.repulsive>
0.3372

> <Gold.PLP.ligand.clash>
0.0000

> <Gold.PLP.ligand.torsion>
0.0639

> <Gold.PLP.Chemscore.Hbond>
3.0000

> <Gold.PLP.Chemscore.CHOScore>
0.0000

> <Gold.PLP.Chemscore.Metal>
0.0000

> <Gold.Chemscore.Hbonds>
donor molecule, donor type, donor heavy atom, donor atom, acceptor molecule, acceptor atom, score
      L1  H     2    27       P1  7948  0.98
      L1  H     6    47       P1  7948  1.89

> <Gold.PLP.Chemscore.Internal.Correction>
0.0324

> <Gold.Rescore>
     Score         DG    S(hbond)    S(metal)    S(lipo)     H(rot)  DE(clash)    DE(int)     intcor
     13.70     -16.80       1.65        0.00      93.27       2.00       0.55       2.55       ----

> <Gold.Chemscore.Fitness>
13.6978

> <Gold.Chemscore.DG>
-16.7983

> <Gold.Chemscore.ZeroCoef>
-5.4800

> <Gold.Chemscore.Hbond>
1.6515

> <Gold.Chemscore.Metal>
0.0000

> <Gold.Chemscore.Lipo>
93.2736

> <Gold.Chemscore.Internal_Hbond>
0.0000

> <Gold.Chemscore.DEClash>
0.5510

> <Gold.Chemscore.DEInternal>
2.5495

> <Gold.Chemscore.Rot>
1.9963

> <Gold.Chemscore.Internal.Correction>
   9.000000E+99

> <Gold.Chemscore.Hbonds>
donor molecule, donor type, donor heavy atom, donor atom, acceptor molecule, acceptor atom, score
      L1  H     2    27       P1  7948  0.24
      L1  H     6    47       P1  7948  0.89

> <Gold.Chemscore.Hbond.Weighted>
-5.5159

> <Gold.Chemscore.Metal.Weighted>
-0.0000

> <Gold.Chemscore.Lipo.Weighted>
-10.9130

> <Gold.Chemscore.Internal_Hbond.Weighted>
0.0000

> <Gold.Chemscore.DEClash.Weighted>
0.5510

> <Gold.Chemscore.DEInternal.Weighted>
2.5495

> <Gold.Chemscore.Rot.Weighted>
5.1105

> <Gold.Chemscore.Internal.Correction.Weighted>
   9.000000E+99

> <Gold.Protein.RotatedTorsions>
[ 6907 6896 6895 6894 ] final   38.17 input  -60.11 | X-H torsion
[ 7974 7965 7964 7962 ] final -125.32 input  175.53 | X-H torsion
[ 8008 7997 7996 7995 ] final  118.54 input   59.86 | X-H torsion
[ 10167 10162 10161 10158 ] final -111.80 input  -65.29 | X-H torsion
[ 10718 10713 10712 10709 ] final   49.37 input   66.30 | X-H torsion
[ 10763 10752 10751 10750 ] final  107.28 input  -60.55 | X-H torsion
[ 11005 11000 10999 10996 ] final  -49.07 input  -57.11 | X-H torsion

> <Gold.Protein.ActiveResidues>
 VAL166  LYS551  ARG553  GLY616  TRP617  ASP618  TYR619  PRO620  LYS621  CYS622 
 ASP623  PHE694  ASN695  SER759  ASP760  ASP761  ALA762  ILE779  LEU786  VAL792 
 PHE793  MET794  SER795  GLU796  ALA797  LYS798  CYS799  TRP800  GLU811  SER814 

> <Gold.Protein.RotatedAtoms>
  152.1529  134.8973  160.0546 H   0  0  0  0  0  0  0  0  0  0  0  0  # atno 6907 bound_to 6896
  151.9998  133.3816  159.4185 H   0  0  0  0  0  0  0  0  0  0  0  0  # atno 6908 bound_to 6896
  150.6878  134.3768  159.5060 H   0  0  0  0  0  0  0  0  0  0  0  0  # atno 6909 bound_to 6896
  144.9988  140.7801  143.4509 H   0  0  0  0  0  0  0  0  0  0  0  0  # atno 7974 bound_to 7965
  156.2551  140.2872  156.0851 H   0  0  0  0  0  0  0  0  0  0  0  0  # atno 8008 bound_to 7997
  155.1524  140.0398  157.2841 H   0  0  0  0  0  0  0  0  0  0  0  0  # atno 8009 bound_to 7997
  154.6451  140.2531  155.7284 H   0  0  0  0  0  0  0  0  0  0  0  0  # atno 8010 bound_to 7997
  140.1296  143.4372  152.1636 H   0  0  0  0  0  0  0  0  0  0  0  0  # atno 10167 bound_to 10162
  157.4779  130.8297  149.8060 H   0  0  0  0  0  0  0  0  0  0  0  0  # atno 10718 bound_to 10713
  153.4046  135.3849  155.2010 H   0  0  0  0  0  0  0  0  0  0  0  0  # atno 10763 bound_to 10752
  154.8732  135.3779  154.4577 H   0  0  0  0  0  0  0  0  0  0  0  0  # atno 10764 bound_to 10752
  153.5078  135.7087  153.5859 H   0  0  0  0  0  0  0  0  0  0  0  0  # atno 10765 bound_to 10752
  141.0737  133.6671  156.3532 H   0  0  0  0  0  0  0  0  0  0  0  0  # atno 11005 bound_to 11000
  145.2182  139.2172  143.5107 LP  0  0  0  0  0  0  0  0  0  0  0  0  # atno 17320 bound_to 7965
  146.3447  140.2034  142.8589 LP  0  0  0  0  0  0  0  0  0  0  0  0  # atno 17321 bound_to 7965
  139.5526  144.7349  151.4389 LP  0  0  0  0  0  0  0  0  0  0  0  0  # atno 17342 bound_to 10162
  140.6824  143.8050  150.7140 LP  0  0  0  0  0  0  0  0  0  0  0  0  # atno 17343 bound_to 10162
  156.0106  130.3835  150.2277 LP  0  0  0  0  0  0  0  0  0  0  0  0  # atno 17370 bound_to 10713
  157.0462  131.0049  151.3268 LP  0  0  0  0  0  0  0  0  0  0  0  0  # atno 17371 bound_to 10713
  140.5618  134.5927  157.5435 LP  0  0  0  0  0  0  0  0  0  0  0  0  # atno 17394 bound_to 11000
  139.9550  134.7551  156.0362 LP  0  0  0  0  0  0  0  0  0  0  0  0  # atno 17395 bound_to 11000

$$$$
