AV-unprocessed.smi:651|AV-procd|sdf|3186|dock7
  -GOLD-   22720 0113D 1   1.00000     0.00000
 Structure written by MMmdl.
 38 39  0  0  0  0  0  0  0  0  1 V2000
  148.6910  124.2621  150.8961 C   0  0  0  0  0  0  0  0  0  0  0  0
  148.5835  125.6671  151.4509 C   0  0  0  0  0  0  0  0  0  0  0  0
  148.9621  125.9456  152.7810 C   0  0  0  0  0  0  0  0  0  0  0  0
  148.8556  127.2706  153.2452 C   0  0  0  0  0  0  0  0  0  0  0  0
  148.3763  128.2630  152.3655 C   0  0  0  0  0  0  0  0  0  0  0  0
  148.2537  129.7104  152.8136 C   0  0  0  0  0  0  0  0  0  0  0  0
  146.8297  130.2537  152.6432 C   0  0  0  0  0  0  0  0  0  0  0  0
  145.9812  130.1152  153.5260 O   0  0  0  0  0  0  0  0  0  0  0  0
  146.5837  130.8899  151.4881 N   0  0  0  0  0  0  0  0  0  0  0  0
  145.3057  131.5058  151.1267 C   0  0  2  0  0  0  0  0  0  0  0  0
  145.3282  132.0386  149.6817 C   0  0  0  0  0  0  0  0  0  0  0  0
  144.5961  133.3873  149.6942 C   0  0  0  0  0  0  0  0  0  0  0  0
  143.9811  133.5206  151.0904 C   0  0  0  0  0  0  0  0  0  0  0  0
  144.8801  132.6976  152.0249 C   0  0  2  0  0  0  0  0  0  0  0  0
  146.0435  133.5543  152.5708 C   0  0  0  0  0  0  0  0  0  0  0  0
  146.8133  134.1710  151.6707 N   0  0  0  0  0  0  0  0  0  0  0  0
  146.2414  133.6656  153.7796 O   0  0  0  0  0  0  0  0  0  0  0  0
  148.0221  127.8785  151.0545 C   0  0  0  0  0  0  0  0  0  0  0  0
  148.1217  126.6106  150.6005 N   0  0  0  0  0  0  0  0  0  0  0  0
  148.6162  123.5221  151.6935 H   0  0  0  0  0  0  0  0  0  0  0  0
  149.6502  124.1302  150.3951 H   0  0  0  0  0  0  0  0  0  0  0  0
  147.8965  124.0639  150.1759 H   0  0  0  0  0  0  0  0  0  0  0  0
  149.3295  125.1646  153.4305 H   0  0  0  0  0  0  0  0  0  0  0  0
  149.1420  127.5197  154.2565 H   0  0  0  0  0  0  0  0  0  0  0  0
  148.5458  129.7897  153.8617 H   0  0  0  0  0  0  0  0  0  0  0  0
  148.9461  130.3306  152.2429 H   0  0  0  0  0  0  0  0  0  0  0  0
  147.3341  130.9669  150.8167 H   0  0  0  0  0  0  0  0  0  0  0  0
  144.5248  130.7448  151.1851 H   0  0  0  0  0  0  0  0  0  0  0  0
  146.3472  132.1790  149.3179 H   0  0  0  0  0  0  0  0  0  0  0  0
  144.8423  131.3327  149.0070 H   0  0  0  0  0  0  0  0  0  0  0  0
  145.3096  134.1946  149.5246 H   0  0  0  0  0  0  0  0  0  0  0  0
  143.8408  133.4538  148.9106 H   0  0  0  0  0  0  0  0  0  0  0  0
  143.8799  134.5633  151.3950 H   0  0  0  0  0  0  0  0  0  0  0  0
  142.9784  133.0908  151.0889 H   0  0  0  0  0  0  0  0  0  0  0  0
  144.2984  132.3310  152.8725 H   0  0  0  0  0  0  0  0  0  0  0  0
  147.5893  134.7403  151.9759 H   0  0  0  0  0  0  0  0  0  0  0  0
  146.6178  134.0623  150.6862 H   0  0  0  0  0  0  0  0  0  0  0  0
  147.6547  128.6088  150.3485 H   0  0  0  0  0  0  0  0  0  0  0  0
  1  2  1  0  0  0  0
  1 20  1  0  0  0  0
  1 21  1  0  0  0  0
  1 22  1  0  0  0  0
  2 19  1  0  0  0  0
  2  3  2  0  0  0  0
  3  4  1  0  0  0  0
  3 23  1  0  0  0  0
  4  5  2  0  0  0  0
  4 24  1  0  0  0  0
  5  6  1  0  0  0  0
  5 18  1  0  0  0  0
  6  7  1  0  0  0  0
  6 25  1  0  0  0  0
  6 26  1  0  0  0  0
  7  8  2  0  0  0  0
  7  9  1  0  0  0  0
  9 10  1  0  0  0  0
  9 27  1  0  0  0  0
 10 14  1  0  0  0  0
 10 11  1  0  0  0  0
 10 28  1  0  0  0  0
 11 12  1  0  0  0  0
 11 29  1  0  0  0  0
 11 30  1  0  0  0  0
 12 13  1  0  0  0  0
 12 31  1  0  0  0  0
 12 32  1  0  0  0  0
 13 14  1  0  0  0  0
 13 33  1  0  0  0  0
 13 34  1  0  0  0  0
 14 15  1  0  0  0  0
 14 35  1  0  0  0  0
 15 16  1  0  0  0  0
 15 17  2  0  0  0  0
 16 36  1  0  0  0  0
 16 37  1  0  0  0  0
 18 19  2  0  0  0  0
 18 38  1  0  0  0  0
M  END
> <s_m_source_file>
AV-unprocessed.smi

> <i_m_source_file_index>
651

> <i_lp_mmshare_version>
43012

> <i_f3d_flags>
0

> <s_epik_input>
W0NIM11jMVtjSF1bY0hdYyhbY0hdbjEpW0NIMl1DKD1PKVtOSF1bQ0BASF0yW0NIMl1bQ0gyXVtDSDJdW0NASF0yQyg9TylbTkgyXQ==

> <s_epik_cmdline>
J2VwaWtfcHl0aG9uJywgJy1waCcsICc3LjAnLCAnLXRuJywgJzgnLCAnLW1hJywgJzIwMCcsICctbWV0YWxfYmluZGluZycsICctaW1hZScsICc8aW5maWxlLm1hZT4nLCAnLW9tYWUnLCAnPG91dGZpbGUubWFlPic=

> <r_epik_Ionization_Penalty>
0.0159502

> <r_epik_Ionization_Penalty_Charging>
0

> <r_epik_Ionization_Penalty_Neutral>
0.0159502

> <r_epik_State_Penalty>
0.012563

> <r_epik_Charging_Adjusted_Penalty>
0.012563

> <i_epik_Tot_Q>
0

> <i_epik_Tot_abs_Q>
0

> <r_epik_Metal_State_Penalty>
0.0122326

> <b_epik_Metal_Only>
0

> <s_lp_Force_Field>
OPLS_2005

> <r_lp_Energy>
13.1482

> <b_lp_Chiralities_Consistent>
1

> <s_lp_Variant>
AV-unprocessed.smi:651-3

> <Gold.Version>
5.8.1

> <Gold.Id.Protein>
6NUR|6NUR_protein|mol2

> <Gold.PLP.Fitness>
36.4504

> <Gold.PLP.PLP>
-29.1600

> <Gold.PLP.part.hbond>
-2.0000

> <Gold.PLP.part.metal>
0.0000

> <Gold.PLP.part.buried>
-0.6993

> <Gold.PLP.part.nonpolar>
-26.8101

> <Gold.PLP.part.repulsive>
1.3135

> <Gold.PLP.ligand.clash>
0.0000

> <Gold.PLP.ligand.torsion>
0.4264

> <Gold.PLP.Chemscore.Hbond>
2.0000

> <Gold.PLP.Chemscore.CHOScore>
0.7058

> <Gold.PLP.Chemscore.Metal>
0.0000

> <Gold.Chemscore.Hbonds>
donor molecule, donor type, donor heavy atom, donor atom, acceptor molecule, acceptor atom, score
      L1  H     9    27       P1 10747  1.00
      L1  H    16    36       P1  7948  1.00
      L1  C    18    38       P1 10747  0.67

> <Gold.PLP.Chemscore.Internal.Correction>
0.0258

> <Gold.Rescore>
     Score         DG    S(hbond)    S(metal)    S(lipo)     H(rot)  DE(clash)    DE(int)     intcor
     13.84     -15.89       1.77        0.00      81.50       1.97       0.74       1.31       ----

> <Gold.Chemscore.Fitness>
13.8447

> <Gold.Chemscore.DG>
-15.8948

> <Gold.Chemscore.ZeroCoef>
-5.4800

> <Gold.Chemscore.Hbond>
1.7736

> <Gold.Chemscore.Metal>
0.0000

> <Gold.Chemscore.Lipo>
81.4985

> <Gold.Chemscore.Internal_Hbond>
0.0000

> <Gold.Chemscore.DEClash>
0.7351

> <Gold.Chemscore.DEInternal>
1.3150

> <Gold.Chemscore.Rot>
1.9704

> <Gold.Chemscore.Internal.Correction>
   9.000000E+99

> <Gold.Chemscore.Hbonds>
donor molecule, donor type, donor heavy atom, donor atom, acceptor molecule, acceptor atom, score
      L1  H     9    27       P1 10747  0.98
      L1  H    16    36       P1  7948  0.63

> <Gold.Chemscore.Hbond.Weighted>
-5.9237

> <Gold.Chemscore.Metal.Weighted>
-0.0000

> <Gold.Chemscore.Lipo.Weighted>
-9.5353

> <Gold.Chemscore.Internal_Hbond.Weighted>
0.0000

> <Gold.Chemscore.DEClash.Weighted>
0.7351

> <Gold.Chemscore.DEInternal.Weighted>
1.3150

> <Gold.Chemscore.Rot.Weighted>
5.0443

> <Gold.Chemscore.Internal.Correction.Weighted>
   9.000000E+99

> <Gold.Protein.RotatedTorsions>
[ 6907 6896 6895 6894 ] final  -51.23 input  -60.11 | X-H torsion
[ 7974 7965 7964 7962 ] final -137.46 input  175.53 | X-H torsion
[ 8008 7997 7996 7995 ] final -171.50 input   59.86 | X-H torsion
[ 10167 10162 10161 10158 ] final   14.25 input  -65.29 | X-H torsion
[ 10718 10713 10712 10709 ] final -127.06 input   66.30 | X-H torsion
[ 10763 10752 10751 10750 ] final   -0.69 input  -60.55 | X-H torsion
[ 11005 11000 10999 10996 ] final  -46.91 input  -57.11 | X-H torsion

> <Gold.Protein.ActiveResidues>
 VAL166  LYS551  ARG553  GLY616  TRP617  ASP618  TYR619  PRO620  LYS621  CYS622 
 ASP623  PHE694  ASN695  SER759  ASP760  ASP761  ALA762  ILE779  LEU786  VAL792 
 PHE793  MET794  SER795  GLU796  ALA797  LYS798  CYS799  TRP800  GLU811  SER814 

> <Gold.Protein.RotatedAtoms>
  150.8631  134.7987  159.7097 H   0  0  0  0  0  0  0  0  0  0  0  0  # atno 6907 bound_to 6896
  152.4661  134.5068  159.9751 H   0  0  0  0  0  0  0  0  0  0  0  0  # atno 6908 bound_to 6896
  151.5169  133.3436  159.2930 H   0  0  0  0  0  0  0  0  0  0  0  0  # atno 6909 bound_to 6896
  144.8840  140.6548  143.5188 H   0  0  0  0  0  0  0  0  0  0  0  0  # atno 7974 bound_to 7965
  155.9324  140.1093  157.1121 H   0  0  0  0  0  0  0  0  0  0  0  0  # atno 8008 bound_to 7997
  154.4073  140.1235  156.4886 H   0  0  0  0  0  0  0  0  0  0  0  0  # atno 8009 bound_to 7997
  155.7063  140.3471  155.4957 H   0  0  0  0  0  0  0  0  0  0  0  0  # atno 8010 bound_to 7997
  140.5948  143.8723  150.6908 H   0  0  0  0  0  0  0  0  0  0  0  0  # atno 10167 bound_to 10162
  156.1822  130.6739  151.0319 H   0  0  0  0  0  0  0  0  0  0  0  0  # atno 10718 bound_to 10713
  153.3351  135.6977  153.6914 H   0  0  0  0  0  0  0  0  0  0  0  0  # atno 10763 bound_to 10752
  153.5701  135.3518  155.2835 H   0  0  0  0  0  0  0  0  0  0  0  0  # atno 10764 bound_to 10752
  154.8626  135.4270  154.2550 H   0  0  0  0  0  0  0  0  0  0  0  0  # atno 10765 bound_to 10752
  141.0608  133.6710  156.3222 H   0  0  0  0  0  0  0  0  0  0  0  0  # atno 11005 bound_to 11000
  145.3903  139.1618  143.4233 LP  0  0  0  0  0  0  0  0  0  0  0  0  # atno 17320 bound_to 7965
  146.3012  140.3991  142.8703 LP  0  0  0  0  0  0  0  0  0  0  0  0  # atno 17321 bound_to 7965
  140.2254  143.3776  152.1609 LP  0  0  0  0  0  0  0  0  0  0  0  0  # atno 17342 bound_to 10162
  139.5251  144.7092  151.5260 LP  0  0  0  0  0  0  0  0  0  0  0  0  # atno 17343 bound_to 10162
  157.6875  131.0820  150.7201 LP  0  0  0  0  0  0  0  0  0  0  0  0  # atno 17370 bound_to 10713
  156.7258  130.4694  149.5511 LP  0  0  0  0  0  0  0  0  0  0  0  0  # atno 17371 bound_to 10713
  140.5872  134.5687  157.5492 LP  0  0  0  0  0  0  0  0  0  0  0  0  # atno 17394 bound_to 11000
  139.9431  134.7751  156.0629 LP  0  0  0  0  0  0  0  0  0  0  0  0  # atno 17395 bound_to 11000

$$$$
