AV-unprocessed.smi:1718|AV-procd|sdf|6926|dock7
  -GOLD-   22720 8133D 1   1.00000     0.00000
 Structure written by MMmdl.
 39 40  0  0  0  0  0  0  0  0  2 V2000
  149.9729  140.0081  155.5643 C   0  0  0  0  0  0  0  0  0  0  0  0
  149.8694  140.3667  157.0546 C   0  0  2  0  0  0  0  0  0  0  0  0
  151.1966  140.5141  157.5530 O   0  0  0  0  0  0  0  0  0  0  0  0
  151.3115  141.1611  158.8169 C   0  0  0  0  0  0  0  0  0  0  0  0
  152.1268  142.4518  158.6607 C   0  0  2  0  0  0  0  0  0  0  0  0
  152.4550  143.1812  159.9726 C   0  0  0  0  0  0  0  0  0  0  0  0
  152.0537  144.6233  159.7032 C   0  0  0  0  0  0  0  0  0  0  0  0
  151.9204  144.6790  158.1856 C   0  0  0  0  0  0  0  0  0  0  0  0
  151.4212  143.3927  157.8619 O   0  0  0  0  0  0  0  0  0  0  0  0
  149.1153  139.2851  157.8460 C   0  0  0  0  0  0  0  0  0  0  0  0
  147.9856  139.5242  158.2716 O   0  0  0  0  0  0  0  0  0  0  0  0
  149.7703  138.1151  157.9821 N   0  0  0  0  0  0  0  0  0  0  0  0
  149.3701  136.9226  158.6094 C   0  0  0  0  0  0  0  0  0  0  0  0
  148.7746  136.8413  159.8318 C   0  0  0  0  0  0  0  0  0  0  0  0
  148.3872  135.5687  160.4277 C   0  0  0  0  0  0  0  0  0  0  0  0
  147.6302  135.4469  161.7384 C   0  0  0  0  0  0  0  0  0  0  0  0
  147.3960  134.1694  162.0401 F   0  0  0  0  0  0  0  0  0  0  0  0
  148.3455  135.9823  162.7266 F   0  0  0  0  0  0  0  0  0  0  0  0
  146.4616  136.0855  161.6774 F   0  0  0  0  0  0  0  0  0  0  0  0
  148.6871  134.4948  159.6125 C   0  0  0  0  0  0  0  0  0  0  0  0
  149.2987  134.4858  158.4080 N   0  5  0  0  0  0  0  0  0  0  0  0
  149.6547  135.6814  157.8593 C   0  0  0  0  0  0  0  0  0  0  0  0
  150.2058  135.7461  156.7596 O   0  0  0  0  0  0  0  0  0  0  0  0
  148.9868  139.8601  155.1222 H   0  0  0  0  0  0  0  0  0  0  0  0
  150.5516  139.0966  155.4091 H   0  0  0  0  0  0  0  0  0  0  0  0
  150.4655  140.8070  155.0099 H   0  0  0  0  0  0  0  0  0  0  0  0
  149.3446  141.3205  157.1383 H   0  0  0  0  0  0  0  0  0  0  0  0
  150.3185  141.4008  159.1993 H   0  0  0  0  0  0  0  0  0  0  0  0
  151.7956  140.5148  159.5498 H   0  0  0  0  0  0  0  0  0  0  0  0
  153.0597  142.2241  158.1422 H   0  0  0  0  0  0  0  0  0  0  0  0
  151.9112  142.7809  160.8290 H   0  0  0  0  0  0  0  0  0  0  0  0
  153.5202  143.1033  160.1930 H   0  0  0  0  0  0  0  0  0  0  0  0
  151.0862  144.8272  160.1637 H   0  0  0  0  0  0  0  0  0  0  0  0
  152.7722  145.3460  160.0911 H   0  0  0  0  0  0  0  0  0  0  0  0
  151.2488  145.4693  157.8493 H   0  0  0  0  0  0  0  0  0  0  0  0
  152.8926  144.8252  157.7121 H   0  0  0  0  0  0  0  0  0  0  0  0
  150.6727  138.0590  157.5326 H   0  0  0  0  0  0  0  0  0  0  0  0
  148.5793  137.7248  160.4156 H   0  0  0  0  0  0  0  0  0  0  0  0
  148.3844  133.4915  159.9813 H   0  0  0  0  0  0  0  0  0  0  0  0
  1  2  1  0  0  0  0
  1 24  1  0  0  0  0
  1 25  1  0  0  0  0
  1 26  1  0  0  0  0
  2  3  1  0  0  0  0
  2 10  1  0  0  0  0
  2 27  1  0  0  0  0
  3  4  1  0  0  0  0
  4  5  1  0  0  0  0
  4 28  1  0  0  0  0
  4 29  1  0  0  0  0
  5  9  1  0  0  0  0
  5  6  1  0  0  0  0
  5 30  1  0  0  0  0
  6  7  1  0  0  0  0
  6 31  1  0  0  0  0
  6 32  1  0  0  0  0
  7  8  1  0  0  0  0
  7 33  1  0  0  0  0
  7 34  1  0  0  0  0
  8  9  1  0  0  0  0
  8 35  1  0  0  0  0
  8 36  1  0  0  0  0
 10 11  2  0  0  0  0
 10 12  1  0  0  0  0
 12 13  1  0  0  0  0
 12 37  1  0  0  0  0
 13 22  1  0  0  0  0
 13 14  2  0  0  0  0
 14 15  1  0  0  0  0
 14 38  1  0  0  0  0
 15 16  1  0  0  0  0
 15 20  2  0  0  0  0
 16 17  1  0  0  0  0
 16 18  1  0  0  0  0
 16 19  1  0  0  0  0
 20 21  1  0  0  0  0
 20 39  1  0  0  0  0
 21 22  1  0  0  0  0
 22 23  2  0  0  0  0
M  CHG  1  21  -1
M  END
> <s_m_source_file>
AV-unprocessed.smi

> <i_m_source_file_index>
1718

> <i_lp_mmshare_version>
43012

> <i_f3d_flags>
0

> <s_epik_input>
TzFbQ0gyXVtDSDJdW0NIMl1bQ0BIXTFbQ0gyXU9bQ0BASF0oW0NIM10pQyg9TylbTkhdYzJbY0hdYyhDKEYpKEYpRilbY0hdW25IXWMyPU8=

> <s_epik_cmdline>
J2VwaWtfcHl0aG9uJywgJy1waCcsICc3LjAnLCAnLXRuJywgJzgnLCAnLW1hJywgJzIwMCcsICctbWV0YWxfYmluZGluZycsICctaW1hZScsICc8aW5maWxlLm1hZT4nLCAnLW9tYWUnLCAnPG91dGZpbGUubWFlPic=

> <r_epik_Ionization_Penalty>
2.5466

> <r_epik_Ionization_Penalty_Charging>
0.0575837

> <r_epik_Ionization_Penalty_Neutral>
2.48901

> <r_epik_State_Penalty>
2.6532

> <r_epik_Charging_Adjusted_Penalty>
2.71078

> <i_epik_Tot_Q>
-1

> <i_epik_Tot_abs_Q>
1

> <r_epik_Metal_State_Penalty>
0.516196

> <b_epik_Metal_Only>
0

> <s_lp_Force_Field>
OPLS_2005

> <r_lp_Energy>
37.3435

> <b_lp_Chiralities_Consistent>
1

> <s_lp_Variant>
AV-unprocessed.smi:1718-5

> <Gold.Version>
5.8.1

> <Gold.Id.Protein>
6NUR|6NUR_protein|mol2

> <Gold.PLP.Fitness>
45.5789

> <Gold.PLP.PLP>
-41.9528

> <Gold.PLP.part.hbond>
-2.0000

> <Gold.PLP.part.metal>
0.0000

> <Gold.PLP.part.buried>
-3.0129

> <Gold.PLP.part.nonpolar>
-36.0422

> <Gold.PLP.part.repulsive>
0.1903

> <Gold.PLP.ligand.clash>
0.0000

> <Gold.PLP.ligand.torsion>
1.1029

> <Gold.PLP.Chemscore.Hbond>
1.9000

> <Gold.PLP.Chemscore.CHOScore>
0.0000

> <Gold.PLP.Chemscore.Metal>
0.0000

> <Gold.Chemscore.Hbonds>
donor molecule, donor type, donor heavy atom, donor atom, acceptor molecule, acceptor atom, score
      P1  H  6896  6908       L1    21  0.40

> <Gold.PLP.Chemscore.Internal.Correction>
0.1319

> <Gold.Rescore>
     Score         DG    S(hbond)    S(metal)    S(lipo)     H(rot)  DE(clash)    DE(int)     intcor
     10.36     -11.92       0.09        0.00      92.87       1.85       0.13       1.42       ----

> <Gold.Chemscore.Fitness>
10.3601

> <Gold.Chemscore.DG>
-11.9157

> <Gold.Chemscore.ZeroCoef>
-5.4800

> <Gold.Chemscore.Hbond>
0.0883

> <Gold.Chemscore.Metal>
0.0000

> <Gold.Chemscore.Lipo>
92.8669

> <Gold.Chemscore.Internal_Hbond>
0.0000

> <Gold.Chemscore.DEClash>
0.1308

> <Gold.Chemscore.DEInternal>
1.4248

> <Gold.Chemscore.Rot>
1.8455

> <Gold.Chemscore.Internal.Correction>
   9.000000E+99

> <Gold.Chemscore.Hbond.Weighted>
-0.2948

> <Gold.Chemscore.Metal.Weighted>
-0.0000

> <Gold.Chemscore.Lipo.Weighted>
-10.8654

> <Gold.Chemscore.Internal_Hbond.Weighted>
0.0000

> <Gold.Chemscore.DEClash.Weighted>
0.1308

> <Gold.Chemscore.DEInternal.Weighted>
1.4248

> <Gold.Chemscore.Rot.Weighted>
4.7245

> <Gold.Chemscore.Internal.Correction.Weighted>
   9.000000E+99

> <Gold.Protein.RotatedTorsions>
[ 6907 6896 6895 6894 ] final  133.07 input  -60.11 | X-H torsion
[ 7974 7965 7964 7962 ] final   96.27 input  175.53 | X-H torsion
[ 8008 7997 7996 7995 ] final  159.35 input   59.86 | X-H torsion
[ 10167 10162 10161 10158 ] final -104.68 input  -65.29 | X-H torsion
[ 10718 10713 10712 10709 ] final -139.82 input   66.30 | X-H torsion
[ 10763 10752 10751 10750 ] final  -59.23 input  -60.55 | X-H torsion
[ 11005 11000 10999 10996 ] final   52.57 input  -57.11 | X-H torsion

> <Gold.Protein.ActiveResidues>
 VAL166  LYS551  ARG553  GLY616  TRP617  ASP618  TYR619  PRO620  LYS621  CYS622 
 ASP623  PHE694  ASN695  SER759  ASP760  ASP761  ALA762  ILE779  LEU786  VAL792 
 PHE793  MET794  SER795  GLU796  ALA797  LYS798  CYS799  TRP800  GLU811  SER814 

> <Gold.Protein.RotatedAtoms>
  152.3257  133.5903  159.5775 H   0  0  0  0  0  0  0  0  0  0  0  0  # atno 6907 bound_to 6896
  150.7395  133.9943  159.3626 H   0  0  0  0  0  0  0  0  0  0  0  0  # atno 6908 bound_to 6896
  151.7823  135.0759  160.0426 H   0  0  0  0  0  0  0  0  0  0  0  0  # atno 6909 bound_to 6896
  145.4411  139.2301  143.3091 H   0  0  0  0  0  0  0  0  0  0  0  0  # atno 7974 bound_to 7965
  156.2244  140.1833  156.7398 H   0  0  0  0  0  0  0  0  0  0  0  0  # atno 8008 bound_to 7997
  154.5917  140.0649  156.9276 H   0  0  0  0  0  0  0  0  0  0  0  0  # atno 8009 bound_to 7997
  155.2324  140.3316  155.4304 H   0  0  0  0  0  0  0  0  0  0  0  0  # atno 8010 bound_to 7997
  140.2067  143.3777  152.1084 H   0  0  0  0  0  0  0  0  0  0  0  0  # atno 10167 bound_to 10162
  156.3151  130.7503  151.1588 H   0  0  0  0  0  0  0  0  0  0  0  0  # atno 10718 bound_to 10713
  154.2505  135.6327  153.5238 H   0  0  0  0  0  0  0  0  0  0  0  0  # atno 10763 bound_to 10752
  152.9913  135.5563  154.5813 H   0  0  0  0  0  0  0  0  0  0  0  0  # atno 10764 bound_to 10752
  154.5339  135.2890  155.1130 H   0  0  0  0  0  0  0  0  0  0  0  0  # atno 10765 bound_to 10752
  140.0838  134.5302  155.8919 H   0  0  0  0  0  0  0  0  0  0  0  0  # atno 11005 bound_to 11000
  146.2556  140.5159  142.8875 LP  0  0  0  0  0  0  0  0  0  0  0  0  # atno 17320 bound_to 7965
  144.8121  140.6404  143.6408 LP  0  0  0  0  0  0  0  0  0  0  0  0  # atno 17321 bound_to 7965
  139.5196  144.7021  151.5462 LP  0  0  0  0  0  0  0  0  0  0  0  0  # atno 17342 bound_to 10162
  140.6352  143.8998  150.6641 LP  0  0  0  0  0  0  0  0  0  0  0  0  # atno 17343 bound_to 10162
  157.7400  131.0523  150.5197 LP  0  0  0  0  0  0  0  0  0  0  0  0  # atno 17370 bound_to 10713
  156.5342  130.4192  149.6186 LP  0  0  0  0  0  0  0  0  0  0  0  0  # atno 17371 bound_to 10713
  141.2056  133.6648  156.6189 LP  0  0  0  0  0  0  0  0  0  0  0  0  # atno 17394 bound_to 11000
  140.3449  134.7818  157.4425 LP  0  0  0  0  0  0  0  0  0  0  0  0  # atno 17395 bound_to 11000

$$$$
