AV-unprocessed.smi:798|AV-procd|sdf|3776|dock3
  -GOLD-   22720 1213D 1   1.00000     0.00000
 Structure written by MMmdl.
 34 36  0  0  0  0  0  0  0  0  1 V2000
  146.1670  138.2341  154.6366 O   0  0  0  0  0  0  0  0  0  0  0  0
  146.9356  137.7656  153.7964 C   0  0  0  0  0  0  0  0  0  0  0  0
  148.1355  138.2756  153.4675 N   0  0  0  0  0  0  0  0  0  0  0  0
  148.7836  139.4188  154.0058 C   0  0  0  0  0  0  0  0  0  0  0  0
  150.0109  139.3927  154.5488 N   0  0  0  0  0  0  0  0  0  0  0  0
  150.4079  140.6463  154.9962 N   0  0  0  0  0  0  0  0  0  0  0  0
  149.4654  141.5668  154.7740 C   0  0  0  0  0  0  0  0  0  0  0  0
  148.0000  140.9922  153.9978 S   0  0  0  0  0  0  0  0  0  0  0  0
  146.6680  136.6614  153.0858 N   0  0  0  0  0  0  0  0  0  0  0  0
  145.4582  135.8533  153.2233 C   0  0  1  0  0  0  0  0  0  0  0  0
  144.5234  135.9177  151.9890 C   0  0  1  0  0  0  0  0  0  0  0  0
  145.2893  135.6177  150.6825 C   0  0  0  0  0  0  0  0  0  0  0  0
  145.6029  134.1157  150.8133 C   0  0  0  0  0  0  0  0  0  0  0  0
  144.9538  133.7480  152.1619 C   0  0  2  0  0  0  0  0  0  0  0  0
  143.7152  134.6371  152.1544 C   0  0  0  0  0  0  0  0  0  0  0  0
  145.7954  134.3414  153.3157 C   0  0  2  0  0  0  0  0  0  0  0  0
  145.4566  133.7199  154.6840 C   0  0  0  0  0  0  0  0  0  0  0  0
  144.1597  134.1066  155.0872 O   0  0  0  0  0  0  0  0  0  0  0  0
  148.6530  137.7796  152.7571 H   0  0  0  0  0  0  0  0  0  0  0  0
  149.6343  142.5916  155.0695 H   0  0  0  0  0  0  0  0  0  0  0  0
  147.3536  136.3439  152.4163 H   0  0  0  0  0  0  0  0  0  0  0  0
  144.9089  136.1728  154.1114 H   0  0  0  0  0  0  0  0  0  0  0  0
  143.9262  136.8289  151.9421 H   0  0  0  0  0  0  0  0  0  0  0  0
  144.6495  135.7962  149.8173 H   0  0  0  0  0  0  0  0  0  0  0  0
  146.1851  136.2250  150.5527 H   0  0  0  0  0  0  0  0  0  0  0  0
  145.1441  133.5576  149.9961 H   0  0  0  0  0  0  0  0  0  0  0  0
  146.6739  133.9104  150.7962 H   0  0  0  0  0  0  0  0  0  0  0  0
  144.7539  132.6808  152.2642 H   0  0  0  0  0  0  0  0  0  0  0  0
  143.1433  134.6029  153.0828 H   0  0  0  0  0  0  0  0  0  0  0  0
  143.0431  134.4376  151.3178 H   0  0  0  0  0  0  0  0  0  0  0  0
  146.8527  134.1566  153.1152 H   0  0  0  0  0  0  0  0  0  0  0  0
  145.5143  132.6318  154.6554 H   0  0  0  0  0  0  0  0  0  0  0  0
  146.1652  134.0603  155.4394 H   0  0  0  0  0  0  0  0  0  0  0  0
  143.5599  133.4048  154.8846 H   0  0  0  0  0  0  0  0  0  0  0  0
  1  2  2  0  0  0  0
  2  3  1  0  0  0  0
  2  9  1  0  0  0  0
  3  4  1  0  0  0  0
  3 19  1  0  0  0  0
  4  8  1  0  0  0  0
  4  5  2  0  0  0  0
  5  6  1  0  0  0  0
  6  7  2  0  0  0  0
  7  8  1  0  0  0  0
  7 20  1  0  0  0  0
  9 10  1  0  0  0  0
  9 21  1  0  0  0  0
 10 16  1  0  0  0  0
 10 11  1  0  0  0  0
 10 22  1  0  0  0  0
 11 15  1  0  0  0  0
 11 12  1  0  0  0  0
 11 23  1  0  0  0  0
 12 13  1  0  0  0  0
 12 24  1  0  0  0  0
 12 25  1  0  0  0  0
 13 14  1  0  0  0  0
 13 26  1  0  0  0  0
 13 27  1  0  0  0  0
 14 15  1  0  0  0  0
 14 16  1  0  0  0  0
 14 28  1  0  0  0  0
 15 29  1  0  0  0  0
 15 30  1  0  0  0  0
 16 17  1  0  0  0  0
 16 31  1  0  0  0  0
 17 18  1  0  0  0  0
 17 32  1  0  0  0  0
 17 33  1  0  0  0  0
 18 34  1  0  0  0  0
M  END
> <s_m_source_file>
AV-unprocessed.smi

> <i_m_source_file_index>
798

> <i_lp_mmshare_version>
43012

> <i_f3d_flags>
0

> <s_epik_input>
W0NIMl0xW0NIMl1bQ0BASF0oW0NIMl0yKVtDQEBIXShbQ0gyXVtPSF0pW0NAQEhdKFtDQEhdMTIpW05IXUMoPU8pW05IXWMzbm5bY0hdczM=

> <s_epik_cmdline>
J2VwaWtfcHl0aG9uJywgJy1waCcsICc3LjAnLCAnLXRuJywgJzgnLCAnLW1hJywgJzIwMCcsICctbWV0YWxfYmluZGluZycsICctaW1hZScsICc8aW5maWxlLm1hZT4nLCAnLW9tYWUnLCAnPG91dGZpbGUubWFlPic=

> <r_lp_tautomer_probability>
1

> <r_epik_Ionization_Penalty>
0.000329046

> <r_epik_Ionization_Penalty_Charging>
0

> <r_epik_Ionization_Penalty_Neutral>
0.000329046

> <r_epik_State_Penalty>
-0

> <r_epik_Charging_Adjusted_Penalty>
0

> <i_epik_Tot_Q>
0

> <i_epik_Tot_abs_Q>
0

> <r_epik_Metal_State_Penalty>
0.173433

> <b_epik_Metal_Only>
0

> <s_lp_Force_Field>
OPLS_2005

> <r_lp_Energy>
48.2964

> <b_lp_Chiralities_Consistent>
1

> <s_lp_Variant>
AV-unprocessed.smi:798-8

> <Gold.Version>
5.8.1

> <Gold.Id.Protein>
6NUR|6NUR_protein|mol2

> <Gold.PLP.Fitness>
37.5135

> <Gold.PLP.PLP>
-24.8307

> <Gold.PLP.part.hbond>
-4.2204

> <Gold.PLP.part.metal>
0.0000

> <Gold.PLP.part.buried>
-2.6977

> <Gold.PLP.part.nonpolar>
-18.6166

> <Gold.PLP.part.repulsive>
0.3274

> <Gold.PLP.ligand.clash>
0.0000

> <Gold.PLP.ligand.torsion>
0.6803

> <Gold.PLP.Chemscore.Hbond>
3.6752

> <Gold.PLP.Chemscore.CHOScore>
1.0000

> <Gold.PLP.Chemscore.Metal>
0.0000

> <Gold.Chemscore.Hbonds>
donor molecule, donor type, donor heavy atom, donor atom, acceptor molecule, acceptor atom, score
      L1  H     3    19       P1  7948  1.00
      L1  H     9    21       P1  7948  1.00
      L1  H    18    34       P1 10957  1.00
      P1  H  7989  7998       L1     6  0.59
      L1  C     7    20       P1  8028  1.00

> <Gold.PLP.Chemscore.Internal.Correction>
0.0178

> <Gold.Rescore>
     Score         DG    S(hbond)    S(metal)    S(lipo)     H(rot)  DE(clash)    DE(int)     intcor
     14.31     -16.04       2.95        0.00      48.73       1.94       0.03       1.69       ----

> <Gold.Chemscore.Fitness>
14.3129

> <Gold.Chemscore.DG>
-16.0412

> <Gold.Chemscore.ZeroCoef>
-5.4800

> <Gold.Chemscore.Hbond>
2.9451

> <Gold.Chemscore.Metal>
0.0000

> <Gold.Chemscore.Lipo>
48.7325

> <Gold.Chemscore.Internal_Hbond>
0.0000

> <Gold.Chemscore.DEClash>
0.0347

> <Gold.Chemscore.DEInternal>
1.6936

> <Gold.Chemscore.Rot>
1.9442

> <Gold.Chemscore.Internal.Correction>
   9.000000E+99

> <Gold.Chemscore.Hbonds>
donor molecule, donor type, donor heavy atom, donor atom, acceptor molecule, acceptor atom, score
      L1  H     3    19       P1  7948  0.94
      L1  H     9    21       P1  7948  0.97
      L1  H    18    34       P1 10957  1.00
      P1  H  7989  7998       L1     6  0.02

> <Gold.Chemscore.Hbond.Weighted>
-9.8366

> <Gold.Chemscore.Metal.Weighted>
-0.0000

> <Gold.Chemscore.Lipo.Weighted>
-5.7017

> <Gold.Chemscore.Internal_Hbond.Weighted>
0.0000

> <Gold.Chemscore.DEClash.Weighted>
0.0347

> <Gold.Chemscore.DEInternal.Weighted>
1.6936

> <Gold.Chemscore.Rot.Weighted>
4.9771

> <Gold.Chemscore.Internal.Correction.Weighted>
   9.000000E+99

> <Gold.Protein.RotatedTorsions>
[ 6907 6896 6895 6894 ] final   72.78 input  -60.11 | X-H torsion
[ 7974 7965 7964 7962 ] final  -33.59 input  175.53 | X-H torsion
[ 8008 7997 7996 7995 ] final -126.52 input   59.86 | X-H torsion
[ 10167 10162 10161 10158 ] final -136.53 input  -65.29 | X-H torsion
[ 10718 10713 10712 10709 ] final  -67.02 input   66.30 | X-H torsion
[ 10763 10752 10751 10750 ] final  -22.16 input  -60.55 | X-H torsion
[ 11005 11000 10999 10996 ] final   65.10 input  -57.11 | X-H torsion

> <Gold.Protein.ActiveResidues>
 VAL166  LYS551  ARG553  GLY616  TRP617  ASP618  TYR619  PRO620  LYS621  CYS622 
 ASP623  PHE694  ASN695  SER759  ASP760  ASP761  ALA762  ILE779  LEU786  VAL792 
 PHE793  MET794  SER795  GLU796  ALA797  LYS798  CYS799  TRP800  GLU811  SER814 

> <Gold.Protein.RotatedAtoms>
  152.4887  134.4519  159.9577 H   0  0  0  0  0  0  0  0  0  0  0  0  # atno 6907 bound_to 6896
  151.4511  133.3611  159.2803 H   0  0  0  0  0  0  0  0  0  0  0  0  # atno 6908 bound_to 6896
  150.9021  134.8458  159.7427 H   0  0  0  0  0  0  0  0  0  0  0  0  # atno 6909 bound_to 6896
  146.0898  140.5935  142.8869 H   0  0  0  0  0  0  0  0  0  0  0  0  # atno 7974 bound_to 7965
  155.2311  140.0425  157.2962 H   0  0  0  0  0  0  0  0  0  0  0  0  # atno 8008 bound_to 7997
  154.5888  140.2421  155.7920 H   0  0  0  0  0  0  0  0  0  0  0  0  # atno 8009 bound_to 7997
  156.2245  140.2959  156.0041 H   0  0  0  0  0  0  0  0  0  0  0  0  # atno 8010 bound_to 7997
  139.8669  143.7007  152.2644 H   0  0  0  0  0  0  0  0  0  0  0  0  # atno 10167 bound_to 10162
  156.0580  130.4271  150.1793 H   0  0  0  0  0  0  0  0  0  0  0  0  # atno 10718 bound_to 10713
  153.6475  135.6982  153.5220 H   0  0  0  0  0  0  0  0  0  0  0  0  # atno 10763 bound_to 10752
  153.2733  135.4208  155.1008 H   0  0  0  0  0  0  0  0  0  0  0  0  # atno 10764 bound_to 10752
  154.8484  135.3584  154.6020 H   0  0  0  0  0  0  0  0  0  0  0  0  # atno 10765 bound_to 10752
  139.9916  134.6582  156.0081 H   0  0  0  0  0  0  0  0  0  0  0  0  # atno 11005 bound_to 11000
  144.7352  140.4787  143.6909 LP  0  0  0  0  0  0  0  0  0  0  0  0  # atno 17320 bound_to 7965
  145.6060  139.1508  143.3102 LP  0  0  0  0  0  0  0  0  0  0  0  0  # atno 17321 bound_to 7965
  139.7321  144.7580  151.0786 LP  0  0  0  0  0  0  0  0  0  0  0  0  # atno 17342 bound_to 10162
  140.7767  143.5076  150.9693 LP  0  0  0  0  0  0  0  0  0  0  0  0  # atno 17343 bound_to 10162
  156.9866  130.9880  151.3425 LP  0  0  0  0  0  0  0  0  0  0  0  0  # atno 17370 bound_to 10713
  157.5567  130.8218  149.8213 LP  0  0  0  0  0  0  0  0  0  0  0  0  # atno 17371 bound_to 10713
  141.1571  133.6542  156.4195 LP  0  0  0  0  0  0  0  0  0  0  0  0  # atno 17394 bound_to 11000
  140.4897  134.6587  157.5205 LP  0  0  0  0  0  0  0  0  0  0  0  0  # atno 17395 bound_to 11000

$$$$
