AV-unprocessed.smi:1815|AV-procd|sdf|7350|dock2
  -GOLD-   22720 9 13D 1   1.00000     0.00000
 Structure written by MMmdl.
 39 40  0  0  0  0  0  0  0  0  1 V2000
  151.6624  138.2932  154.4913 C   0  0  0  0  0  0  0  0  0  0  0  0
  150.4516  139.1381  154.9013 C   0  0  2  0  0  0  0  0  0  0  0  0
  149.2828  138.9936  153.9099 C   0  0  0  0  0  0  0  0  0  0  0  0
  148.1632  139.8605  154.2550 N   0  0  0  0  0  0  0  0  0  0  0  0
  147.0527  139.6778  153.3213 C   0  0  0  0  0  0  0  0  0  0  0  0
  146.1523  138.4580  153.6051 C   0  0  0  0  0  0  0  0  0  0  0  0
  146.4876  137.3096  152.7688 N   0  0  0  0  0  0  0  0  0  0  0  0
  145.6094  136.4127  152.2987 C   0  0  0  0  0  0  0  0  0  0  0  0
  144.4000  136.4637  152.5257 O   0  0  0  0  0  0  0  0  0  0  0  0
  146.2244  135.4697  151.5636 N   0  0  0  0  0  0  0  0  0  0  0  0
  145.6444  134.3581  150.8982 C   0  0  0  0  0  0  0  0  0  0  0  0
  144.3633  134.2902  150.5173 N   0  0  0  0  0  0  0  0  0  0  0  0
  144.0681  133.0803  149.8838 C   0  0  0  0  0  0  0  0  0  0  0  0
  145.1439  132.2327  149.7904 C   0  0  0  0  0  0  0  0  0  0  0  0
  146.5793  132.9242  150.4986 S   0  0  0  0  0  0  0  0  0  0  0  0
  148.6313  141.2439  154.3012 C   0  0  0  0  0  0  0  0  0  0  0  0
  149.8259  141.4390  155.2563 C   0  0  1  0  0  0  0  0  0  0  0  0
  149.4307  141.3922  156.7422 C   0  0  0  0  0  0  0  0  0  0  0  0
  150.8619  140.5033  154.9537 O   0  0  0  0  0  0  0  0  0  0  0  0
  151.4050  137.2347  154.4450 H   0  0  0  0  0  0  0  0  0  0  0  0
  152.4768  138.4059  155.2074 H   0  0  0  0  0  0  0  0  0  0  0  0
  152.0370  138.5901  153.5112 H   0  0  0  0  0  0  0  0  0  0  0  0
  150.1301  138.8177  155.8928 H   0  0  0  0  0  0  0  0  0  0  0  0
  149.6292  139.2233  152.9008 H   0  0  0  0  0  0  0  0  0  0  0  0
  148.9526  137.9541  153.8961 H   0  0  0  0  0  0  0  0  0  0  0  0
  146.4609  140.5917  153.2487 H   0  0  0  0  0  0  0  0  0  0  0  0
  147.4742  139.5281  152.3264 H   0  0  0  0  0  0  0  0  0  0  0  0
  146.2573  138.1653  154.6512 H   0  0  0  0  0  0  0  0  0  0  0  0
  145.1004  138.7116  153.4697 H   0  0  0  0  0  0  0  0  0  0  0  0
  147.4617  137.1904  152.5330 H   0  0  0  0  0  0  0  0  0  0  0  0
  147.2250  135.5586  151.4662 H   0  0  0  0  0  0  0  0  0  0  0  0
  143.0630  132.9053  149.5291 H   0  0  0  0  0  0  0  0  0  0  0  0
  145.1789  131.2474  149.3498 H   0  0  0  0  0  0  0  0  0  0  0  0
  148.9261  141.5581  153.2985 H   0  0  0  0  0  0  0  0  0  0  0  0
  147.8238  141.9088  154.6064 H   0  0  0  0  0  0  0  0  0  0  0  0
  150.2443  142.4285  155.0704 H   0  0  0  0  0  0  0  0  0  0  0  0
  148.7247  142.1880  156.9801 H   0  0  0  0  0  0  0  0  0  0  0  0
  150.3043  141.5237  157.3809 H   0  0  0  0  0  0  0  0  0  0  0  0
  148.9589  140.4475  157.0118 H   0  0  0  0  0  0  0  0  0  0  0  0
  1  2  1  0  0  0  0
  1 20  1  0  0  0  0
  1 21  1  0  0  0  0
  1 22  1  0  0  0  0
  2 19  1  0  0  0  0
  2  3  1  0  0  0  0
  2 23  1  0  0  0  0
  3  4  1  0  0  0  0
  3 24  1  0  0  0  0
  3 25  1  0  0  0  0
  4  5  1  0  0  0  0
  4 16  1  0  0  0  0
  5  6  1  0  0  0  0
  5 26  1  0  0  0  0
  5 27  1  0  0  0  0
  6  7  1  0  0  0  0
  6 28  1  0  0  0  0
  6 29  1  0  0  0  0
  7  8  1  0  0  0  0
  7 30  1  0  0  0  0
  8  9  2  0  0  0  0
  8 10  1  0  0  0  0
 10 11  1  0  0  0  0
 10 31  1  0  0  0  0
 11 15  1  0  0  0  0
 11 12  2  0  0  0  0
 12 13  1  0  0  0  0
 13 14  2  0  0  0  0
 13 32  1  0  0  0  0
 14 15  1  0  0  0  0
 14 33  1  0  0  0  0
 16 17  1  0  0  0  0
 16 34  1  0  0  0  0
 16 35  1  0  0  0  0
 17 18  1  0  0  0  0
 17 19  1  0  0  0  0
 17 36  1  0  0  0  0
 18 37  1  0  0  0  0
 18 38  1  0  0  0  0
 18 39  1  0  0  0  0
M  END
> <s_m_source_file>
AV-unprocessed.smi

> <i_m_source_file_index>
1815

> <i_lp_mmshare_version>
43012

> <i_f3d_flags>
0

> <s_epik_input>
W0NIM11bQ0BASF0xW0NIMl1OKFtDSDJdW0NASF0oTzEpW0NIM10pW0NIMl1bQ0gyXVtOSF1DKD1PKVtOSF1jMm5bY0hdW2NIXXMy

> <s_epik_cmdline>
J2VwaWtfcHl0aG9uJywgJy1waCcsICc3LjAnLCAnLXRuJywgJzgnLCAnLW1hJywgJzIwMCcsICctbWV0YWxfYmluZGluZycsICctaW1hZScsICc8aW5maWxlLm1hZT4nLCAnLW9tYWUnLCAnPG91dGZpbGUubWFlPic=

> <r_lp_tautomer_probability>
0.999

> <r_epik_Ionization_Penalty>
0.219201

> <r_epik_Ionization_Penalty_Charging>
0

> <r_epik_Ionization_Penalty_Neutral>
0.219201

> <r_epik_State_Penalty>
0.209349

> <r_epik_Charging_Adjusted_Penalty>
0.209349

> <i_epik_Tot_Q>
0

> <i_epik_Tot_abs_Q>
0

> <r_epik_Metal_State_Penalty>
0.247737

> <b_epik_Metal_Only>
0

> <s_lp_Force_Field>
OPLS_2005

> <r_lp_Energy>
26.2235

> <b_lp_Chiralities_Consistent>
1

> <s_lp_Variant>
AV-unprocessed.smi:1815-1

> <Gold.Version>
5.8.1

> <Gold.Id.Protein>
6NUR|6NUR_protein|mol2

> <Gold.PLP.Fitness>
45.5989

> <Gold.PLP.PLP>
-35.1859

> <Gold.PLP.part.hbond>
-3.0000

> <Gold.PLP.part.metal>
0.0000

> <Gold.PLP.part.buried>
-3.4082

> <Gold.PLP.part.nonpolar>
-29.5279

> <Gold.PLP.part.repulsive>
0.6704

> <Gold.PLP.ligand.clash>
0.0000

> <Gold.PLP.ligand.torsion>
0.7954

> <Gold.PLP.Chemscore.Hbond>
3.0000

> <Gold.PLP.Chemscore.CHOScore>
1.0000

> <Gold.PLP.Chemscore.Metal>
0.0000

> <Gold.Chemscore.Hbonds>
donor molecule, donor type, donor heavy atom, donor atom, acceptor molecule, acceptor atom, score
      L1  H     7    30       P1  7948  1.00
      L1  H    10    31       P1  7948  1.00
      P1  H  7989  7998       L1    19  1.00
      L1  C    13    32       P1 10186  0.95

> <Gold.PLP.Chemscore.Internal.Correction>
0.0038

> <Gold.Rescore>
     Score         DG    S(hbond)    S(metal)    S(lipo)     H(rot)  DE(clash)    DE(int)     intcor
     17.30     -19.36       2.51        0.00      82.10       1.60       0.10       1.96       ----

> <Gold.Chemscore.Fitness>
17.3044

> <Gold.Chemscore.DG>
-19.3604

> <Gold.Chemscore.ZeroCoef>
-5.4800

> <Gold.Chemscore.Hbond>
2.5064

> <Gold.Chemscore.Metal>
0.0000

> <Gold.Chemscore.Lipo>
82.0966

> <Gold.Chemscore.Internal_Hbond>
0.0000

> <Gold.Chemscore.DEClash>
0.0998

> <Gold.Chemscore.DEInternal>
1.9562

> <Gold.Chemscore.Rot>
1.6001

> <Gold.Chemscore.Internal.Correction>
   9.000000E+99

> <Gold.Chemscore.Hbonds>
donor molecule, donor type, donor heavy atom, donor atom, acceptor molecule, acceptor atom, score
      L1  H     7    30       P1  7948  0.97
      L1  H    10    31       P1  7948  0.97
      P1  H  7989  7998       L1    19  0.53

> <Gold.Chemscore.Hbond.Weighted>
-8.3714

> <Gold.Chemscore.Metal.Weighted>
-0.0000

> <Gold.Chemscore.Lipo.Weighted>
-9.6053

> <Gold.Chemscore.Internal_Hbond.Weighted>
0.0000

> <Gold.Chemscore.DEClash.Weighted>
0.0998

> <Gold.Chemscore.DEInternal.Weighted>
1.9562

> <Gold.Chemscore.Rot.Weighted>
4.0963

> <Gold.Chemscore.Internal.Correction.Weighted>
   9.000000E+99

> <Gold.Protein.RotatedTorsions>
[ 6907 6896 6895 6894 ] final -149.98 input  -60.11 | X-H torsion
[ 7974 7965 7964 7962 ] final  -53.24 input  175.53 | X-H torsion
[ 8008 7997 7996 7995 ] final   91.85 input   59.86 | X-H torsion
[ 10167 10162 10161 10158 ] final  178.02 input  -65.29 | X-H torsion
[ 10718 10713 10712 10709 ] final   -9.89 input   66.30 | X-H torsion
[ 10763 10752 10751 10750 ] final   99.56 input  -60.55 | X-H torsion
[ 11005 11000 10999 10996 ] final  -94.02 input  -57.11 | X-H torsion

> <Gold.Protein.ActiveResidues>
 VAL166  LYS551  ARG553  GLY616  TRP617  ASP618  TYR619  PRO620  LYS621  CYS622 
 ASP623  PHE694  ASN695  SER759  ASP760  ASP761  ALA762  ILE779  LEU786  VAL792 
 PHE793  MET794  SER795  GLU796  ALA797  LYS798  CYS799  TRP800  GLU811  SER814 

> <Gold.Protein.RotatedAtoms>
  151.1919  133.4662  159.2594 H   0  0  0  0  0  0  0  0  0  0  0  0  # atno 6907 bound_to 6896
  151.1155  135.0050  159.8524 H   0  0  0  0  0  0  0  0  0  0  0  0  # atno 6908 bound_to 6896
  152.5453  134.1834  159.8698 H   0  0  0  0  0  0  0  0  0  0  0  0  # atno 6909 bound_to 6896
  145.8990  140.8009  142.9753 H   0  0  0  0  0  0  0  0  0  0  0  0  # atno 7974 bound_to 7965
  156.0286  140.3332  155.7115 H   0  0  0  0  0  0  0  0  0  0  0  0  # atno 8008 bound_to 7997
  155.5918  140.0647  157.2774 H   0  0  0  0  0  0  0  0  0  0  0  0  # atno 8009 bound_to 7997
  154.4344  140.1826  156.1071 H   0  0  0  0  0  0  0  0  0  0  0  0  # atno 8010 bound_to 7997
  139.5277  144.2730  152.0612 H   0  0  0  0  0  0  0  0  0  0  0  0  # atno 10167 bound_to 10162
  156.6814  130.5038  149.5970 H   0  0  0  0  0  0  0  0  0  0  0  0  # atno 10718 bound_to 10713
  153.3029  135.4109  155.1268 H   0  0  0  0  0  0  0  0  0  0  0  0  # atno 10763 bound_to 10752
  154.8554  135.3546  154.5828 H   0  0  0  0  0  0  0  0  0  0  0  0  # atno 10764 bound_to 10752
  153.6253  135.7063  153.5353 H   0  0  0  0  0  0  0  0  0  0  0  0  # atno 10765 bound_to 10752
  141.1482  133.7927  157.0240 H   0  0  0  0  0  0  0  0  0  0  0  0  # atno 11005 bound_to 11000
  144.6734  140.1648  143.7419 LP  0  0  0  0  0  0  0  0  0  0  0  0  # atno 17320 bound_to 7965
  145.8814  139.2325  143.1603 LP  0  0  0  0  0  0  0  0  0  0  0  0  # atno 17321 bound_to 7965
  140.2189  144.4487  150.6351 LP  0  0  0  0  0  0  0  0  0  0  0  0  # atno 17342 bound_to 10162
  140.6432  143.2208  151.6244 LP  0  0  0  0  0  0  0  0  0  0  0  0  # atno 17343 bound_to 10162
  156.1865  130.6532  151.1012 LP  0  0  0  0  0  0  0  0  0  0  0  0  # atno 17370 bound_to 10713
  157.7042  131.0763  150.6721 LP  0  0  0  0  0  0  0  0  0  0  0  0  # atno 17371 bound_to 10713
  140.0797  134.9655  157.1604 LP  0  0  0  0  0  0  0  0  0  0  0  0  # atno 17394 bound_to 11000
  140.3594  134.2511  155.7189 LP  0  0  0  0  0  0  0  0  0  0  0  0  # atno 17395 bound_to 11000

$$$$
