AV-unprocessed.smi:1798|AV-procd|sdf|7260|dock9
  -GOLD-   22720 8513D 1   1.00000     0.00000
 Structure written by MMmdl.
 40 41  0  0  0  0  0  0  0  0  3 V2000
  144.5969  133.1425  150.3326 C   0  0  0  0  0  0  0  0  0  0  0  0
  144.5627  134.3087  151.3307 C   0  0  2  0  0  0  0  0  0  0  0  0
  145.6036  135.3871  150.9736 C   0  0  0  0  0  0  0  0  0  0  0  0
  145.5768  136.5572  151.9736 C   0  0  0  0  0  0  0  0  0  0  0  0
  145.7589  136.0868  153.4295 C   0  0  2  0  0  0  0  0  0  0  0  0
  147.1314  135.6319  153.6456 N   0  0  0  0  0  0  0  0  0  0  0  0
  147.7055  135.4240  154.8400 C   0  0  0  0  0  0  0  0  0  0  0  0
  147.1178  135.5912  155.9098 O   0  0  0  0  0  0  0  0  0  0  0  0
  149.1600  134.9336  154.8065 C   0  0  0  0  0  0  0  0  0  0  0  0
  150.0846  135.7958  155.5618 N   0  0  0  0  0  0  0  0  0  0  0  0
  150.3502  137.0722  155.0277 C   0  0  0  0  0  0  0  0  0  0  0  0
  151.1840  137.9417  155.6312 C   0  0  0  0  0  0  0  0  0  0  0  0
  151.4480  139.2470  155.0664 N   0  3  0  0  0  0  0  0  0  0  0  0
  152.4501  139.8536  155.4303 O   0  0  0  0  0  0  0  0  0  0  0  0
  150.6641  139.7092  154.2426 O   0  5  0  0  0  0  0  0  0  0  0  0
  151.8128  137.5239  156.8693 C   0  0  0  0  0  0  0  0  0  0  0  0
  151.5662  136.3027  157.3831 C   0  0  0  0  0  0  0  0  0  0  0  0
  150.6613  135.3567  156.7222 C   0  0  0  0  0  0  0  0  0  0  0  0
  150.4360  134.2379  157.1839 O   0  0  0  0  0  0  0  0  0  0  0  0
  144.7365  134.9849  153.7803 C   0  0  0  0  0  0  0  0  0  0  0  0
  144.7692  133.8190  152.7766 C   0  0  0  0  0  0  0  0  0  0  0  0
  145.5636  132.6380  150.3443 H   0  0  0  0  0  0  0  0  0  0  0  0
  144.4148  133.4910  149.3156 H   0  0  0  0  0  0  0  0  0  0  0  0
  143.8324  132.4017  150.5683 H   0  0  0  0  0  0  0  0  0  0  0  0
  143.5732  134.7643  151.2689 H   0  0  0  0  0  0  0  0  0  0  0  0
  146.6006  134.9455  150.9516 H   0  0  0  0  0  0  0  0  0  0  0  0
  145.4160  135.7658  149.9682 H   0  0  0  0  0  0  0  0  0  0  0  0
  146.3430  137.2889  151.7142 H   0  0  0  0  0  0  0  0  0  0  0  0
  144.6218  137.0764  151.8844 H   0  0  0  0  0  0  0  0  0  0  0  0
  145.5825  136.9452  154.0805 H   0  0  0  0  0  0  0  0  0  0  0  0
  147.6867  135.4625  152.8195 H   0  0  0  0  0  0  0  0  0  0  0  0
  149.1840  133.9147  155.1954 H   0  0  0  0  0  0  0  0  0  0  0  0
  149.4874  134.8491  153.7683 H   0  0  0  0  0  0  0  0  0  0  0  0
  149.8386  137.2846  154.1000 H   0  0  0  0  0  0  0  0  0  0  0  0
  152.4867  138.1860  157.3929 H   0  0  0  0  0  0  0  0  0  0  0  0
  152.0462  136.0112  158.3058 H   0  0  0  0  0  0  0  0  0  0  0  0
  144.9060  134.6120  154.7911 H   0  0  0  0  0  0  0  0  0  0  0  0
  143.7356  135.4186  153.7855 H   0  0  0  0  0  0  0  0  0  0  0  0
  143.9968  133.0948  153.0378 H   0  0  0  0  0  0  0  0  0  0  0  0
  145.7214  133.2927  152.8571 H   0  0  0  0  0  0  0  0  0  0  0  0
  1  2  1  0  0  0  0
  1 22  1  0  0  0  0
  1 23  1  0  0  0  0
  1 24  1  0  0  0  0
  2 21  1  0  0  0  0
  2  3  1  0  0  0  0
  2 25  1  0  0  0  0
  3  4  1  0  0  0  0
  3 26  1  0  0  0  0
  3 27  1  0  0  0  0
  4  5  1  0  0  0  0
  4 28  1  0  0  0  0
  4 29  1  0  0  0  0
  5  6  1  0  0  0  0
  5 20  1  0  0  0  0
  5 30  1  0  0  0  0
  6  7  1  0  0  0  0
  6 31  1  0  0  0  0
  7  8  2  0  0  0  0
  7  9  1  0  0  0  0
  9 10  1  0  0  0  0
  9 32  1  0  0  0  0
  9 33  1  0  0  0  0
 10 18  1  0  0  0  0
 10 11  1  0  0  0  0
 11 12  2  0  0  0  0
 11 34  1  0  0  0  0
 12 13  1  0  0  0  0
 12 16  1  0  0  0  0
 13 14  2  0  0  0  0
 13 15  1  0  0  0  0
 16 17  2  0  0  0  0
 16 35  1  0  0  0  0
 17 18  1  0  0  0  0
 17 36  1  0  0  0  0
 18 19  2  0  0  0  0
 20 21  1  0  0  0  0
 20 37  1  0  0  0  0
 20 38  1  0  0  0  0
 21 39  1  0  0  0  0
 21 40  1  0  0  0  0
M  CHG  1  13   1
M  CHG  1  15  -1
M  END
> <s_m_source_file>
AV-unprocessed.smi

> <i_m_source_file_index>
1798

> <i_lp_mmshare_version>
43012

> <i_f3d_flags>
0

> <s_epik_input>
W0NIM11bQ0BASF0xW0NIMl1bQ0gyXVtDQEhdKFtDSDJdW0NIMl0xKVtOSF1DKD1PKVtDSDJdbjJbY0hdYyhbTitdKD1PKVtPLV0pW2NIXVtjSF1jMj1P

> <s_epik_cmdline>
J2VwaWtfcHl0aG9uJywgJy1waCcsICc3LjAnLCAnLXRuJywgJzgnLCAnLW1hJywgJzIwMCcsICctbWV0YWxfYmluZGluZycsICctaW1hZScsICc8aW5maWxlLm1hZT4nLCAnLW9tYWUnLCAnPG91dGZpbGUubWFlPic=

> <r_lp_tautomer_probability>
1

> <r_epik_Ionization_Penalty>
1.91292e-08

> <r_epik_Ionization_Penalty_Charging>
8.23013e-11

> <r_epik_Ionization_Penalty_Neutral>
1.90469e-08

> <r_epik_State_Penalty>
-0

> <r_epik_Charging_Adjusted_Penalty>
8.23013e-11

> <i_epik_Tot_Q>
0

> <i_epik_Tot_abs_Q>
2

> <r_epik_Metal_State_Penalty>
-0

> <b_epik_Metal_Only>
0

> <s_lp_Force_Field>
OPLS_2005

> <r_lp_Energy>
19.5482

> <b_lp_Chiralities_Consistent>
1

> <s_lp_Variant>
AV-unprocessed.smi:1798-2

> <Gold.Version>
5.8.1

> <Gold.Id.Protein>
6NUR|6NUR_protein|mol2

> <Gold.PLP.Fitness>
40.0827

> <Gold.PLP.PLP>
-28.6569

> <Gold.PLP.part.hbond>
-5.0000

> <Gold.PLP.part.metal>
0.0000

> <Gold.PLP.part.buried>
-1.9496

> <Gold.PLP.part.nonpolar>
-21.0377

> <Gold.PLP.part.repulsive>
0.1931

> <Gold.PLP.ligand.clash>
0.0000

> <Gold.PLP.ligand.torsion>
0.4068

> <Gold.PLP.Chemscore.Hbond>
3.0999

> <Gold.PLP.Chemscore.CHOScore>
0.9758

> <Gold.PLP.Chemscore.Metal>
0.0000

> <Gold.Chemscore.Hbonds>
donor molecule, donor type, donor heavy atom, donor atom, acceptor molecule, acceptor atom, score
      L1  H     6    31       P1  7948  0.83
      P1  H  6896  6908       L1    19  0.51
      P1  H  7989  7998       L1    15  1.00
      P1  H  7997  8010       L1    14  0.93
      L1  C    11    34       P1  7948  0.84

> <Gold.PLP.Chemscore.Internal.Correction>
0.0122

> <Gold.Rescore>
     Score         DG    S(hbond)    S(metal)    S(lipo)     H(rot)  DE(clash)    DE(int)     intcor
     19.22     -19.84       3.57        0.00      54.88       1.55       0.17       0.46       ----

> <Gold.Chemscore.Fitness>
19.2152

> <Gold.Chemscore.DG>
-19.8441

> <Gold.Chemscore.ZeroCoef>
-5.4800

> <Gold.Chemscore.Hbond>
3.5667

> <Gold.Chemscore.Metal>
0.0000

> <Gold.Chemscore.Lipo>
54.8769

> <Gold.Chemscore.Internal_Hbond>
0.0000

> <Gold.Chemscore.DEClash>
0.1731

> <Gold.Chemscore.DEInternal>
0.4557

> <Gold.Chemscore.Rot>
1.5505

> <Gold.Chemscore.Internal.Correction>
   9.000000E+99

> <Gold.Chemscore.Hbonds>
donor molecule, donor type, donor heavy atom, donor atom, acceptor molecule, acceptor atom, score
      L1  H     6    31       P1  7948  0.81
      P1  H  6896  6908       L1    19  0.48
      P1  H  7989  7998       L1    15  0.30
      P1  H  7997  8010       L1    14  0.89

> <Gold.Chemscore.Hbond.Weighted>
-11.9126

> <Gold.Chemscore.Metal.Weighted>
-0.0000

> <Gold.Chemscore.Lipo.Weighted>
-6.4206

> <Gold.Chemscore.Internal_Hbond.Weighted>
0.0000

> <Gold.Chemscore.DEClash.Weighted>
0.1731

> <Gold.Chemscore.DEInternal.Weighted>
0.4557

> <Gold.Chemscore.Rot.Weighted>
3.9692

> <Gold.Chemscore.Internal.Correction.Weighted>
   9.000000E+99

> <Gold.Protein.RotatedTorsions>
[ 6907 6896 6895 6894 ] final  121.98 input  -60.11 | X-H torsion
[ 7974 7965 7964 7962 ] final  161.99 input  175.53 | X-H torsion
[ 8008 7997 7996 7995 ] final   98.12 input   59.86 | X-H torsion
[ 10167 10162 10161 10158 ] final  -31.97 input  -65.29 | X-H torsion
[ 10718 10713 10712 10709 ] final  -92.42 input   66.30 | X-H torsion
[ 10763 10752 10751 10750 ] final -123.84 input  -60.55 | X-H torsion
[ 11005 11000 10999 10996 ] final -134.83 input  -57.11 | X-H torsion

> <Gold.Protein.ActiveResidues>
 VAL166  LYS551  ARG553  GLY616  TRP617  ASP618  TYR619  PRO620  LYS621  CYS622 
 ASP623  PHE694  ASN695  SER759  ASP760  ASP761  ALA762  ILE779  LEU786  VAL792 
 PHE793  MET794  SER795  GLU796  ALA797  LYS798  CYS799  TRP800  GLU811  SER814 

> <Gold.Protein.RotatedAtoms>
  152.4279  133.7227  159.6542 H   0  0  0  0  0  0  0  0  0  0  0  0  # atno 6907 bound_to 6896
  150.8156  133.8332  159.3168 H   0  0  0  0  0  0  0  0  0  0  0  0  # atno 6908 bound_to 6896
  151.6029  135.1048  160.0116 H   0  0  0  0  0  0  0  0  0  0  0  0  # atno 6909 bound_to 6896
  144.7658  139.7976  143.6315 H   0  0  0  0  0  0  0  0  0  0  0  0  # atno 7974 bound_to 7965
  156.0971  140.3248  155.7892 H   0  0  0  0  0  0  0  0  0  0  0  0  # atno 8008 bound_to 7997
  155.4899  140.0560  157.2972 H   0  0  0  0  0  0  0  0  0  0  0  0  # atno 8009 bound_to 7997
  154.4673  140.1995  156.0100 H   0  0  0  0  0  0  0  0  0  0  0  0  # atno 8010 bound_to 7997
  140.7228  143.3730  151.1742 H   0  0  0  0  0  0  0  0  0  0  0  0  # atno 10167 bound_to 10162
  156.0002  130.4986  150.5623 H   0  0  0  0  0  0  0  0  0  0  0  0  # atno 10718 bound_to 10713
  154.8714  135.4084  154.3009 H   0  0  0  0  0  0  0  0  0  0  0  0  # atno 10763 bound_to 10752
  153.3868  135.7013  153.6529 H   0  0  0  0  0  0  0  0  0  0  0  0  # atno 10764 bound_to 10752
  153.5329  135.3664  155.2655 H   0  0  0  0  0  0  0  0  0  0  0  0  # atno 10765 bound_to 10752
  140.8954  134.1758  157.4498 H   0  0  0  0  0  0  0  0  0  0  0  0  # atno 11005 bound_to 11000
  146.1764  139.4937  142.9894 LP  0  0  0  0  0  0  0  0  0  0  0  0  # atno 17320 bound_to 7965
  145.6474  141.0271  143.1779 LP  0  0  0  0  0  0  0  0  0  0  0  0  # atno 17321 bound_to 7965
  139.7305  143.9080  152.3018 LP  0  0  0  0  0  0  0  0  0  0  0  0  # atno 17342 bound_to 10162
  139.8867  144.6988  150.8816 LP  0  0  0  0  0  0  0  0  0  0  0  0  # atno 17343 bound_to 10162
  157.3530  131.0737  151.1698 LP  0  0  0  0  0  0  0  0  0  0  0  0  # atno 17370 bound_to 10713
  157.2508  130.6613  149.5930 LP  0  0  0  0  0  0  0  0  0  0  0  0  # atno 17371 bound_to 10713
  139.8735  134.9876  156.5375 LP  0  0  0  0  0  0  0  0  0  0  0  0  # atno 17394 bound_to 11000
  140.8295  133.8290  155.8971 LP  0  0  0  0  0  0  0  0  0  0  0  0  # atno 17395 bound_to 11000

$$$$
