AV-unprocessed.smi:3157|AV-procd|sdf|12038|dock4
  -GOLD-   2272017463D 1   1.00000     0.00000
 Structure written by MMmdl.
 40 41  0  0  0  0  0  0  0  0  2 V2000
  148.4640  140.0363  157.0415 C   0  0  0  0  0  0  0  0  0  0  0  0
  148.4704  141.3272  156.1953 C   0  0  1  0  0  0  0  0  0  0  0  0
  149.1915  142.4015  156.9156 N   0  3  0  0  0  0  0  0  0  0  0  0
  150.5885  142.0881  157.2826 C   0  0  0  0  0  0  0  0  0  0  0  0
  151.0615  142.9576  158.4584 C   0  0  0  0  0  0  0  0  0  0  0  0
  151.2784  144.4330  158.1001 C   0  0  0  0  0  0  0  0  0  0  0  0
  152.2672  144.9736  159.1423 C   0  0  0  0  0  0  0  0  0  0  0  0
  152.8997  143.7483  159.8182 C   0  0  0  0  0  0  0  0  0  0  0  0
  152.4203  142.5347  159.0194 C   0  0  0  0  0  0  0  0  0  0  0  0
  149.0989  141.1264  154.7913 C   0  0  2  0  0  0  0  0  0  0  0  0
  148.0395  140.9982  153.6809 C   0  0  0  0  0  0  0  0  0  0  0  0
  149.9963  139.9779  154.7528 N   0  0  0  0  0  0  0  0  0  0  0  0
  151.1747  139.7767  155.4446 C   0  0  0  0  0  0  0  0  0  0  0  0
  151.6651  138.5586  155.0707 C   0  0  0  0  0  0  0  0  0  0  0  0
  150.7072  138.0820  154.1332 C   0  0  0  0  0  0  0  0  0  0  0  0
  149.7119  138.9332  153.9445 N   0  0  0  0  0  0  0  0  0  0  0  0
  147.8667  139.2508  156.5783 H   0  0  0  0  0  0  0  0  0  0  0  0
  148.0417  140.2010  158.0322 H   0  0  0  0  0  0  0  0  0  0  0  0
  149.4745  139.6477  157.1736 H   0  0  0  0  0  0  0  0  0  0  0  0
  147.4362  141.6455  156.0537 H   0  0  0  0  0  0  0  0  0  0  0  0
  149.1722  143.2401  156.3530 H   0  0  0  0  0  0  0  0  0  0  0  0
  150.6464  141.0350  157.5612 H   0  0  0  0  0  0  0  0  0  0  0  0
  151.2487  142.2269  156.4268 H   0  0  0  0  0  0  0  0  0  0  0  0
  150.3319  142.8982  159.2682 H   0  0  0  0  0  0  0  0  0  0  0  0
  151.7245  144.5142  157.1077 H   0  0  0  0  0  0  0  0  0  0  0  0
  150.3456  144.9975  158.0853 H   0  0  0  0  0  0  0  0  0  0  0  0
  153.0229  145.6008  158.6680 H   0  0  0  0  0  0  0  0  0  0  0  0
  151.7541  145.5879  159.8830 H   0  0  0  0  0  0  0  0  0  0  0  0
  153.9879  143.8096  159.8537 H   0  0  0  0  0  0  0  0  0  0  0  0
  152.5432  143.6751  160.8466 H   0  0  0  0  0  0  0  0  0  0  0  0
  152.3605  141.6325  159.6292 H   0  0  0  0  0  0  0  0  0  0  0  0
  153.1170  142.3374  158.2035 H   0  0  0  0  0  0  0  0  0  0  0  0
  149.6983  142.0114  154.5664 H   0  0  0  0  0  0  0  0  0  0  0  0
  147.4200  141.8925  153.6121 H   0  0  0  0  0  0  0  0  0  0  0  0
  147.3770  140.1496  153.8548 H   0  0  0  0  0  0  0  0  0  0  0  0
  148.5103  140.8569  152.7073 H   0  0  0  0  0  0  0  0  0  0  0  0
  151.5636  140.5093  156.1361 H   0  0  0  0  0  0  0  0  0  0  0  0
  152.5708  138.0805  155.4138 H   0  0  0  0  0  0  0  0  0  0  0  0
  150.7062  137.1502  153.5870 H   0  0  0  0  0  0  0  0  0  0  0  0
  148.6930  142.5830  157.7752 H   0  0  0  0  0  0  0  0  0  0  0  0
  1  2  1  0  0  0  0
  1 17  1  0  0  0  0
  1 18  1  0  0  0  0
  1 19  1  0  0  0  0
  2  3  1  0  0  0  0
  2 10  1  0  0  0  0
  2 20  1  0  0  0  0
  3  4  1  0  0  0  0
  3 21  1  0  0  0  0
  3 40  1  0  0  0  0
  4  5  1  0  0  0  0
  4 22  1  0  0  0  0
  4 23  1  0  0  0  0
  5  9  1  0  0  0  0
  5  6  1  0  0  0  0
  5 24  1  0  0  0  0
  6  7  1  0  0  0  0
  6 25  1  0  0  0  0
  6 26  1  0  0  0  0
  7  8  1  0  0  0  0
  7 27  1  0  0  0  0
  7 28  1  0  0  0  0
  8  9  1  0  0  0  0
  8 29  1  0  0  0  0
  8 30  1  0  0  0  0
  9 31  1  0  0  0  0
  9 32  1  0  0  0  0
 10 11  1  0  0  0  0
 10 12  1  0  0  0  0
 10 33  1  0  0  0  0
 11 34  1  0  0  0  0
 11 35  1  0  0  0  0
 11 36  1  0  0  0  0
 12 16  1  0  0  0  0
 12 13  1  0  0  0  0
 13 14  2  0  0  0  0
 13 37  1  0  0  0  0
 14 15  1  0  0  0  0
 14 38  1  0  0  0  0
 15 16  2  0  0  0  0
 15 39  1  0  0  0  0
M  CHG  1   3   1
M  END
> <s_m_source_file>
AV-unprocessed.smi

> <i_m_source_file_index>
3157

> <i_lp_mmshare_version>
43012

> <i_f3d_flags>
0

> <s_epik_input>
bjFbY0hdW2NIXVtjSF1uMVtDQEBIXShbQ0gzXSlbQ0BIXShbQ0gzXSlbTkhdW0NIMl1bQ0hdMltDSDJdW0NIMl1bQ0gyXVtDSDJdMg==

> <s_epik_cmdline>
J2VwaWtfcHl0aG9uJywgJy1waCcsICc3LjAnLCAnLXRuJywgJzgnLCAnLW1hJywgJzIwMCcsICctbWV0YWxfYmluZGluZycsICctaW1hZScsICc8aW5maWxlLm1hZT4nLCAnLW9tYWUnLCAnPG91dGZpbGUubWFlPic=

> <r_lp_tautomer_probability>
1

> <r_epik_Ionization_Penalty>
0.00132192

> <r_epik_Ionization_Penalty_Charging>
0.0013111

> <r_epik_Ionization_Penalty_Neutral>
1.08112e-05

> <r_epik_State_Penalty>
-0

> <r_epik_Charging_Adjusted_Penalty>
0.0013111

> <i_epik_Tot_Q>
1

> <i_epik_Tot_abs_Q>
1

> <r_epik_Metal_State_Penalty>
-0

> <b_epik_Metal_Only>
0

> <s_lp_Force_Field>
OPLS_2005

> <r_lp_Energy>
32.0676

> <b_lp_Chiralities_Consistent>
1

> <s_lp_Variant>
AV-unprocessed.smi:3157-2

> <Gold.Version>
5.8.1

> <Gold.Id.Protein>
6NUR|6NUR_protein|mol2

> <Gold.PLP.Fitness>
45.1290

> <Gold.PLP.PLP>
-38.5382

> <Gold.PLP.part.hbond>
-1.0000

> <Gold.PLP.part.metal>
0.0000

> <Gold.PLP.part.buried>
-3.1661

> <Gold.PLP.part.nonpolar>
-35.7464

> <Gold.PLP.part.repulsive>
1.2311

> <Gold.PLP.ligand.clash>
0.0000

> <Gold.PLP.ligand.torsion>
1.4237

> <Gold.PLP.Chemscore.Hbond>
2.0000

> <Gold.PLP.Chemscore.CHOScore>
1.1181

> <Gold.PLP.Chemscore.Metal>
0.0000

> <Gold.Chemscore.Hbonds>
donor molecule, donor type, donor heavy atom, donor atom, acceptor molecule, acceptor atom, score
      L1  H     3    21       P1  8028  2.00
      L1  C    15    39       P1  7948  0.39
      L1  C    15    39       P1  7949  0.73

> <Gold.PLP.Chemscore.Internal.Correction>
0.0837

> <Gold.Rescore>
     Score         DG    S(hbond)    S(metal)    S(lipo)     H(rot)  DE(clash)    DE(int)     intcor
     16.27     -17.83       0.99        0.00     110.24       1.50       0.03       1.53       ----

> <Gold.Chemscore.Fitness>
16.2739

> <Gold.Chemscore.DG>
-17.8306

> <Gold.Chemscore.ZeroCoef>
-5.4800

> <Gold.Chemscore.Hbond>
0.9893

> <Gold.Chemscore.Metal>
0.0000

> <Gold.Chemscore.Lipo>
110.2432

> <Gold.Chemscore.Internal_Hbond>
0.0000

> <Gold.Chemscore.DEClash>
0.0301

> <Gold.Chemscore.DEInternal>
1.5266

> <Gold.Chemscore.Rot>
1.5047

> <Gold.Chemscore.Internal.Correction>
   9.000000E+99

> <Gold.Chemscore.Hbonds>
donor molecule, donor type, donor heavy atom, donor atom, acceptor molecule, acceptor atom, score
      L1  H     3    21       P1  8028  1.00

> <Gold.Chemscore.Hbond.Weighted>
-3.3041

> <Gold.Chemscore.Metal.Weighted>
-0.0000

> <Gold.Chemscore.Lipo.Weighted>
-12.8985

> <Gold.Chemscore.Internal_Hbond.Weighted>
0.0000

> <Gold.Chemscore.DEClash.Weighted>
0.0301

> <Gold.Chemscore.DEInternal.Weighted>
1.5266

> <Gold.Chemscore.Rot.Weighted>
3.8520

> <Gold.Chemscore.Internal.Correction.Weighted>
   9.000000E+99

> <Gold.Protein.RotatedTorsions>
[ 6907 6896 6895 6894 ] final   86.62 input  -60.11 | X-H torsion
[ 7974 7965 7964 7962 ] final -109.19 input  175.53 | X-H torsion
[ 8008 7997 7996 7995 ] final -124.90 input   59.86 | X-H torsion
[ 10167 10162 10161 10158 ] final  118.74 input  -65.29 | X-H torsion
[ 10718 10713 10712 10709 ] final  179.09 input   66.30 | X-H torsion
[ 10763 10752 10751 10750 ] final  116.12 input  -60.55 | X-H torsion
[ 11005 11000 10999 10996 ] final   83.89 input  -57.11 | X-H torsion

> <Gold.Protein.ActiveResidues>
 VAL166  LYS551  ARG553  GLY616  TRP617  ASP618  TYR619  PRO620  LYS621  CYS622 
 ASP623  PHE694  ASN695  SER759  ASP760  ASP761  ALA762  ILE779  LEU786  VAL792 
 PHE793  MET794  SER795  GLU796  ALA797  LYS798  CYS799  TRP800  GLU811  SER814 

> <Gold.Protein.RotatedAtoms>
  152.5397  134.2404  159.8859 H   0  0  0  0  0  0  0  0  0  0  0  0  # atno 6907 bound_to 6896
  151.2371  133.4412  159.2613 H   0  0  0  0  0  0  0  0  0  0  0  0  # atno 6908 bound_to 6896
  151.0661  134.9782  159.8341 H   0  0  0  0  0  0  0  0  0  0  0  0  # atno 6909 bound_to 6896
  145.1835  140.8982  143.3466 H   0  0  0  0  0  0  0  0  0  0  0  0  # atno 7974 bound_to 7965
  155.2045  140.0417  157.2923 H   0  0  0  0  0  0  0  0  0  0  0  0  # atno 8008 bound_to 7997
  154.6053  140.2462  155.7711 H   0  0  0  0  0  0  0  0  0  0  0  0  # atno 8009 bound_to 7997
  156.2346  140.2926  156.0288 H   0  0  0  0  0  0  0  0  0  0  0  0  # atno 8010 bound_to 7997
  139.6091  144.7077  151.2884 H   0  0  0  0  0  0  0  0  0  0  0  0  # atno 10167 bound_to 10162
  156.8809  130.9815  151.3062 H   0  0  0  0  0  0  0  0  0  0  0  0  # atno 10718 bound_to 10713
  153.5324  135.3575  155.2681 H   0  0  0  0  0  0  0  0  0  0  0  0  # atno 10763 bound_to 10752
  154.8725  135.4071  154.3137 H   0  0  0  0  0  0  0  0  0  0  0  0  # atno 10764 bound_to 10752
  153.3828  135.7069  153.6620 H   0  0  0  0  0  0  0  0  0  0  0  0  # atno 10765 bound_to 10752
  139.9017  134.8177  156.2370 H   0  0  0  0  0  0  0  0  0  0  0  0  # atno 11005 bound_to 11000
  145.0112  139.3508  143.6119 LP  0  0  0  0  0  0  0  0  0  0  0  0  # atno 17320 bound_to 7965
  146.3449  139.9375  142.8745 LP  0  0  0  0  0  0  0  0  0  0  0  0  # atno 17321 bound_to 7965
  140.7306  143.6874  150.7950 LP  0  0  0  0  0  0  0  0  0  0  0  0  # atno 17342 bound_to 10162
  140.0465  143.5293  152.2693 LP  0  0  0  0  0  0  0  0  0  0  0  0  # atno 17343 bound_to 10162
  157.6141  130.8605  149.8999 LP  0  0  0  0  0  0  0  0  0  0  0  0  # atno 17370 bound_to 10713
  156.0678  130.3689  150.0841 LP  0  0  0  0  0  0  0  0  0  0  0  0  # atno 17371 bound_to 10713
  141.0309  133.6989  156.1428 LP  0  0  0  0  0  0  0  0  0  0  0  0  # atno 17394 bound_to 11000
  140.7098  134.4474  157.5582 LP  0  0  0  0  0  0  0  0  0  0  0  0  # atno 17395 bound_to 11000

$$$$
