AV-unprocessed.smi:1304|AV-procd|sdf|5432|dock4
  -GOLD-   22720 4593D 1   1.00000     0.00000
 Structure written by MMmdl.
 48 49  0  0  0  0  0  0  0  0  2 V2000
  146.4692  134.2798  152.7006 C   0  0  0  0  0  0  0  0  0  0  0  0
  146.7882  134.3258  154.2057 C   0  0  0  0  0  0  0  0  0  0  0  0
  148.2920  134.1540  154.5842 C   0  0  2  0  0  0  0  0  0  0  0  0
  148.9025  133.1354  153.5850 C   0  0  0  0  0  0  0  0  0  0  0  0
  148.4170  133.5760  156.0298 C   0  0  0  0  0  0  0  0  0  0  0  0
  147.6348  134.3121  157.0218 N   0  0  0  0  0  0  0  0  0  0  0  0
  148.1215  134.8897  158.1310 C   0  0  0  0  0  0  0  0  0  0  0  0
  149.3036  134.8199  158.4682 O   0  0  0  0  0  0  0  0  0  0  0  0
  147.1142  135.6668  158.9879 C   0  0  0  0  0  0  0  0  0  0  0  0
  147.2231  135.3350  160.4182 N   0  0  0  0  0  0  0  0  0  0  0  0
  146.4253  134.2770  160.8980 C   0  0  0  0  0  0  0  0  0  0  0  0
  146.4554  133.8922  162.1838 C   0  0  0  0  0  0  0  0  0  0  0  0
  147.3367  134.5943  163.0863 C   0  0  0  0  0  0  0  0  0  0  0  0
  148.1051  135.6070  162.6378 C   0  0  0  0  0  0  0  0  0  0  0  0
  148.0762  136.0307  161.2331 C   0  0  0  0  0  0  0  0  0  0  0  0
  148.7773  136.9525  160.8135 O   0  0  0  0  0  0  0  0  0  0  0  0
  148.9989  135.4828  154.4800 N   0  3  0  0  0  0  0  0  0  0  0  0
  148.3335  136.6281  155.1643 C   0  0  0  0  0  0  0  0  0  0  0  0
  149.0304  137.9496  154.8032 C   0  0  0  0  0  0  0  0  0  0  0  0
  150.4011  137.8791  155.1701 O   0  0  0  0  0  0  0  0  0  0  0  0
  151.0803  136.8455  154.4709 C   0  0  0  0  0  0  0  0  0  0  0  0
  150.4520  135.4832  154.8112 C   0  0  0  0  0  0  0  0  0  0  0  0
  145.3966  134.3869  152.5374 H   0  0  0  0  0  0  0  0  0  0  0  0
  146.7702  133.3343  152.2499 H   0  0  0  0  0  0  0  0  0  0  0  0
  146.9601  135.0855  152.1551 H   0  0  0  0  0  0  0  0  0  0  0  0
  146.3930  135.2520  154.6223 H   0  0  0  0  0  0  0  0  0  0  0  0
  146.1993  133.5419  154.6816 H   0  0  0  0  0  0  0  0  0  0  0  0
  148.2738  132.2507  153.4762 H   0  0  0  0  0  0  0  0  0  0  0  0
  149.8784  132.7761  153.9118 H   0  0  0  0  0  0  0  0  0  0  0  0
  149.0254  133.5646  152.5904 H   0  0  0  0  0  0  0  0  0  0  0  0
  148.0598  132.5472  156.0589 H   0  0  0  0  0  0  0  0  0  0  0  0
  149.4583  133.5366  156.3500 H   0  0  0  0  0  0  0  0  0  0  0  0
  146.6482  134.4171  156.8333 H   0  0  0  0  0  0  0  0  0  0  0  0
  147.2503  136.7410  158.8462 H   0  0  0  0  0  0  0  0  0  0  0  0
  146.1130  135.4521  158.6124 H   0  0  0  0  0  0  0  0  0  0  0  0
  145.7987  133.7989  160.1592 H   0  0  0  0  0  0  0  0  0  0  0  0
  145.8392  133.0767  162.5330 H   0  0  0  0  0  0  0  0  0  0  0  0
  147.3809  134.3056  164.1261 H   0  0  0  0  0  0  0  0  0  0  0  0
  148.7588  136.1203  163.3279 H   0  0  0  0  0  0  0  0  0  0  0  0
  147.2858  136.7098  154.8818 H   0  0  0  0  0  0  0  0  0  0  0  0
  148.3661  136.4961  156.2459 H   0  0  0  0  0  0  0  0  0  0  0  0
  148.9335  138.1652  153.7380 H   0  0  0  0  0  0  0  0  0  0  0  0
  148.5655  138.7769  155.3397 H   0  0  0  0  0  0  0  0  0  0  0  0
  151.0449  137.0322  153.3962 H   0  0  0  0  0  0  0  0  0  0  0  0
  152.1312  136.8569  154.7607 H   0  0  0  0  0  0  0  0  0  0  0  0
  150.5984  135.2674  155.8697 H   0  0  0  0  0  0  0  0  0  0  0  0
  150.9943  134.7247  154.2496 H   0  0  0  0  0  0  0  0  0  0  0  0
  148.9600  135.7065  153.4958 H   0  0  0  0  0  0  0  0  0  0  0  0
  1  2  1  0  0  0  0
  1 23  1  0  0  0  0
  1 24  1  0  0  0  0
  1 25  1  0  0  0  0
  2  3  1  0  0  0  0
  2 26  1  0  0  0  0
  2 27  1  0  0  0  0
  3  4  1  0  0  0  0
  3  5  1  0  0  0  0
  3 17  1  0  0  0  0
  4 28  1  0  0  0  0
  4 29  1  0  0  0  0
  4 30  1  0  0  0  0
  5  6  1  0  0  0  0
  5 31  1  0  0  0  0
  5 32  1  0  0  0  0
  6  7  1  0  0  0  0
  6 33  1  0  0  0  0
  7  8  2  0  0  0  0
  7  9  1  0  0  0  0
  9 10  1  0  0  0  0
  9 34  1  0  0  0  0
  9 35  1  0  0  0  0
 10 15  1  0  0  0  0
 10 11  1  0  0  0  0
 11 12  2  0  0  0  0
 11 36  1  0  0  0  0
 12 13  1  0  0  0  0
 12 37  1  0  0  0  0
 13 14  2  0  0  0  0
 13 38  1  0  0  0  0
 14 15  1  0  0  0  0
 14 39  1  0  0  0  0
 15 16  2  0  0  0  0
 17 22  1  0  0  0  0
 17 18  1  0  0  0  0
 17 48  1  0  0  0  0
 18 19  1  0  0  0  0
 18 40  1  0  0  0  0
 18 41  1  0  0  0  0
 19 20  1  0  0  0  0
 19 42  1  0  0  0  0
 19 43  1  0  0  0  0
 20 21  1  0  0  0  0
 21 22  1  0  0  0  0
 21 44  1  0  0  0  0
 21 45  1  0  0  0  0
 22 46  1  0  0  0  0
 22 47  1  0  0  0  0
M  CHG  1  17   1
M  END
> <s_m_source_file>
AV-unprocessed.smi

> <i_m_source_file_index>
1304

> <i_lp_mmshare_version>
43012

> <i_f3d_flags>
0

> <s_epik_input>
W0NIMl0xW0NIMl1PW0NIMl1bQ0gyXU4xW0NAQF0oW0NIM10pKFtDSDJdW0NIM10pW0NIMl1bTkhdQyg9TylbQ0gyXW4yW2NIXVtjSF1bY0hdW2NIXWMyPU8=

> <s_epik_cmdline>
J2VwaWtfcHl0aG9uJywgJy1waCcsICc3LjAnLCAnLXRuJywgJzgnLCAnLW1hJywgJzIwMCcsICctbWV0YWxfYmluZGluZycsICctaW1hZScsICc8aW5maWxlLm1hZT4nLCAnLW9tYWUnLCAnPG91dGZpbGUubWFlPic=

> <r_lp_tautomer_probability>
1

> <r_epik_Ionization_Penalty>
0.519658

> <r_epik_Ionization_Penalty_Charging>
0.519658

> <r_epik_Ionization_Penalty_Neutral>
8.70177e-08

> <r_epik_State_Penalty>
0.527569

> <r_epik_Charging_Adjusted_Penalty>
1.04723

> <i_epik_Tot_Q>
1

> <i_epik_Tot_abs_Q>
1

> <r_epik_Metal_State_Penalty>
0.527613

> <b_epik_Metal_Only>
0

> <s_lp_Force_Field>
OPLS_2005

> <r_lp_Energy>
37.518

> <b_lp_Chiralities_Consistent>
1

> <s_lp_Variant>
AV-unprocessed.smi:1304-4

> <Gold.Version>
5.8.1

> <Gold.Id.Protein>
6NUR|6NUR_protein|mol2

> <Gold.PLP.Fitness>
44.8058

> <Gold.PLP.PLP>
-33.0823

> <Gold.PLP.part.hbond>
-4.0000

> <Gold.PLP.part.metal>
0.0000

> <Gold.PLP.part.buried>
-2.5781

> <Gold.PLP.part.nonpolar>
-27.5672

> <Gold.PLP.part.repulsive>
0.1228

> <Gold.PLP.ligand.clash>
0.0000

> <Gold.PLP.ligand.torsion>
1.1186

> <Gold.PLP.Chemscore.Hbond>
4.5618

> <Gold.PLP.Chemscore.CHOScore>
0.0000

> <Gold.PLP.Chemscore.Metal>
0.0000

> <Gold.Chemscore.Hbonds>
donor molecule, donor type, donor heavy atom, donor atom, acceptor molecule, acceptor atom, score
      L1  H    17    48       P1  7948  2.00
      P1  H  6896  6909       L1     8  1.00
      P1  H  6931  6943       L1    16  0.91

> <Gold.PLP.Chemscore.Internal.Correction>
0.2751

> <Gold.Rescore>
     Score         DG    S(hbond)    S(metal)    S(lipo)     H(rot)  DE(clash)    DE(int)     intcor
     20.02     -20.97       3.57        0.00      74.95       2.03       0.00       0.94       ----

> <Gold.Chemscore.Fitness>
20.0163

> <Gold.Chemscore.DG>
-20.9657

> <Gold.Chemscore.ZeroCoef>
-5.4800

> <Gold.Chemscore.Hbond>
3.5666

> <Gold.Chemscore.Metal>
0.0000

> <Gold.Chemscore.Lipo>
74.9541

> <Gold.Chemscore.Internal_Hbond>
0.0000

> <Gold.Chemscore.DEClash>
0.0048

> <Gold.Chemscore.DEInternal>
0.9446

> <Gold.Chemscore.Rot>
2.0298

> <Gold.Chemscore.Internal.Correction>
   9.000000E+99

> <Gold.Chemscore.Hbonds>
donor molecule, donor type, donor heavy atom, donor atom, acceptor molecule, acceptor atom, score
      L1  H    17    48       P1  7948  0.88
      P1  H  6896  6909       L1     8  1.00
      P1  H  6931  6943       L1    16  0.83

> <Gold.Chemscore.Hbond.Weighted>
-11.9123

> <Gold.Chemscore.Metal.Weighted>
-0.0000

> <Gold.Chemscore.Lipo.Weighted>
-8.7696

> <Gold.Chemscore.Internal_Hbond.Weighted>
0.0000

> <Gold.Chemscore.DEClash.Weighted>
0.0048

> <Gold.Chemscore.DEInternal.Weighted>
0.9446

> <Gold.Chemscore.Rot.Weighted>
5.1962

> <Gold.Chemscore.Internal.Correction.Weighted>
   9.000000E+99

> <Gold.Protein.RotatedTorsions>
[ 6907 6896 6895 6894 ] final   28.59 input  -60.11 | X-H torsion
[ 7974 7965 7964 7962 ] final -178.48 input  175.53 | X-H torsion
[ 8008 7997 7996 7995 ] final -149.58 input   59.86 | X-H torsion
[ 10167 10162 10161 10158 ] final  155.39 input  -65.29 | X-H torsion
[ 10718 10713 10712 10709 ] final  -80.72 input   66.30 | X-H torsion
[ 10763 10752 10751 10750 ] final  -23.97 input  -60.55 | X-H torsion
[ 11005 11000 10999 10996 ] final  -32.24 input  -57.11 | X-H torsion

> <Gold.Protein.ActiveResidues>
 VAL166  LYS551  ARG553  GLY616  TRP617  ASP618  TYR619  PRO620  LYS621  CYS622 
 ASP623  PHE694  ASN695  SER759  ASP760  ASP761  ALA762  ILE779  LEU786  VAL792 
 PHE793  MET794  SER795  GLU796  ALA797  LYS798  CYS799  TRP800  GLU811  SER814 

> <Gold.Protein.RotatedAtoms>
  152.0192  134.9832  160.0569 H   0  0  0  0  0  0  0  0  0  0  0  0  # atno 6907 bound_to 6896
  152.1354  133.4427  159.4749 H   0  0  0  0  0  0  0  0  0  0  0  0  # atno 6908 bound_to 6896
  150.6860  134.2288  159.4469 H   0  0  0  0  0  0  0  0  0  0  0  0  # atno 6909 bound_to 6896
  144.7131  140.0862  143.6423 H   0  0  0  0  0  0  0  0  0  0  0  0  # atno 7974 bound_to 7965
  155.6100  140.0670  157.2709 H   0  0  0  0  0  0  0  0  0  0  0  0  # atno 8008 bound_to 7997
  154.4256  140.1803  156.1310 H   0  0  0  0  0  0  0  0  0  0  0  0  # atno 8009 bound_to 7997
  156.0092  140.3328  155.6927 H   0  0  0  0  0  0  0  0  0  0  0  0  # atno 8010 bound_to 7997
  139.4821  144.5103  151.8035 H   0  0  0  0  0  0  0  0  0  0  0  0  # atno 10167 bound_to 10162
  156.0064  130.4583  150.3844 H   0  0  0  0  0  0  0  0  0  0  0  0  # atno 10718 bound_to 10713
  153.6763  135.6969  153.5131 H   0  0  0  0  0  0  0  0  0  0  0  0  # atno 10763 bound_to 10752
  153.2519  135.4272  155.0806 H   0  0  0  0  0  0  0  0  0  0  0  0  # atno 10764 bound_to 10752
  154.8413  135.3533  154.6306 H   0  0  0  0  0  0  0  0  0  0  0  0  # atno 10765 bound_to 10752
  140.9536  133.7206  156.1258 H   0  0  0  0  0  0  0  0  0  0  0  0  # atno 11005 bound_to 11000
  145.9659  139.2834  143.1127 LP  0  0  0  0  0  0  0  0  0  0  0  0  # atno 17320 bound_to 7965
  145.9169  140.9142  143.0425 LP  0  0  0  0  0  0  0  0  0  0  0  0  # atno 17321 bound_to 7965
  140.4605  144.1728  150.5906 LP  0  0  0  0  0  0  0  0  0  0  0  0  # atno 17342 bound_to 10162
  140.4489  143.2495  151.9374 LP  0  0  0  0  0  0  0  0  0  0  0  0  # atno 17343 bound_to 10162
  157.1922  131.0418  151.2694 LP  0  0  0  0  0  0  0  0  0  0  0  0  # atno 17370 bound_to 10713
  157.4051  130.7354  149.6796 LP  0  0  0  0  0  0  0  0  0  0  0  0  # atno 17371 bound_to 10713
  140.7568  134.3984  157.5532 LP  0  0  0  0  0  0  0  0  0  0  0  0  # atno 17394 bound_to 11000
  139.8855  134.8935  156.2639 LP  0  0  0  0  0  0  0  0  0  0  0  0  # atno 17395 bound_to 11000

$$$$
