AV-unprocessed.smi:3224|AV-procd|sdf|12309|dock8
  -GOLD-   2272018153D 1   1.00000     0.00000
 Structure written by MMmdl.
 31 32  0  0  0  0  0  0  0  0  1 V2000
  149.1159  140.1211  154.3405 C   0  0  0  0  0  0  0  0  0  0  0  0
  148.1688  141.1980  154.9129 C   0  0  0  0  0  0  0  0  0  0  0  0
  148.9203  142.1167  155.7820 N   0  0  0  0  0  0  0  0  0  0  0  0
  149.7895  141.8187  156.7627 C   0  0  0  0  0  0  0  0  0  0  0  0
  150.0957  140.6714  157.0874 O   0  0  0  0  0  0  0  0  0  0  0  0
  150.2729  142.9376  157.3305 N   0  0  0  0  0  0  0  0  0  0  0  0
  151.1862  143.0501  158.4114 C   0  0  0  0  0  0  0  0  0  0  0  0
  151.4092  142.0884  159.3149 N   0  0  0  0  0  0  0  0  0  0  0  0
  152.3537  142.4742  160.2694 C   0  0  0  0  0  0  0  0  0  0  0  0
  152.8434  143.7419  160.0758 C   0  0  0  0  0  0  0  0  0  0  0  0
  152.1342  144.5058  158.6782 S   0  0  0  0  0  0  0  0  0  0  0  0
  147.4430  141.9515  153.7716 C   0  0  0  0  0  0  0  0  0  0  0  0
  146.3301  142.8713  154.3048 C   0  0  0  0  0  0  0  0  0  0  0  0
  145.3972  142.1113  155.0642 O   0  0  0  0  0  0  0  0  0  0  0  0
  145.9817  141.4990  156.2073 C   0  0  0  0  0  0  0  0  0  0  0  0
  147.0846  140.5144  155.7741 C   0  0  0  0  0  0  0  0  0  0  0  0
  148.5641  139.3766  153.7658 H   0  0  0  0  0  0  0  0  0  0  0  0
  149.6442  139.5939  155.1353 H   0  0  0  0  0  0  0  0  0  0  0  0
  149.8636  140.5466  153.6713 H   0  0  0  0  0  0  0  0  0  0  0  0
  148.7560  143.0980  155.6115 H   0  0  0  0  0  0  0  0  0  0  0  0
  149.9396  143.8121  156.9527 H   0  0  0  0  0  0  0  0  0  0  0  0
  152.6192  141.7823  161.0550 H   0  0  0  0  0  0  0  0  0  0  0  0
  153.5748  144.2703  160.6689 H   0  0  0  0  0  0  0  0  0  0  0  0
  148.1421  142.5267  153.1651 H   0  0  0  0  0  0  0  0  0  0  0  0
  146.9925  141.2268  153.0921 H   0  0  0  0  0  0  0  0  0  0  0  0
  146.7415  143.6787  154.9121 H   0  0  0  0  0  0  0  0  0  0  0  0
  145.8033  143.3394  153.4733 H   0  0  0  0  0  0  0  0  0  0  0  0
  146.3740  142.2621  156.8811 H   0  0  0  0  0  0  0  0  0  0  0  0
  145.2027  140.9681  156.7547 H   0  0  0  0  0  0  0  0  0  0  0  0
  146.6204  139.7070  155.2055 H   0  0  0  0  0  0  0  0  0  0  0  0
  147.5319  140.0468  156.6526 H   0  0  0  0  0  0  0  0  0  0  0  0
  1  2  1  0  0  0  0
  1 17  1  0  0  0  0
  1 18  1  0  0  0  0
  1 19  1  0  0  0  0
  2 16  1  0  0  0  0
  2  3  1  0  0  0  0
  2 12  1  0  0  0  0
  3  4  1  0  0  0  0
  3 20  1  0  0  0  0
  4  5  2  0  0  0  0
  4  6  1  0  0  0  0
  6  7  1  0  0  0  0
  6 21  1  0  0  0  0
  7 11  1  0  0  0  0
  7  8  2  0  0  0  0
  8  9  1  0  0  0  0
  9 10  2  0  0  0  0
  9 22  1  0  0  0  0
 10 11  1  0  0  0  0
 10 23  1  0  0  0  0
 12 13  1  0  0  0  0
 12 24  1  0  0  0  0
 12 25  1  0  0  0  0
 13 14  1  0  0  0  0
 13 26  1  0  0  0  0
 13 27  1  0  0  0  0
 14 15  1  0  0  0  0
 15 16  1  0  0  0  0
 15 28  1  0  0  0  0
 15 29  1  0  0  0  0
 16 30  1  0  0  0  0
 16 31  1  0  0  0  0
M  END
> <s_m_source_file>
AV-unprocessed.smi

> <i_m_source_file_index>
3224

> <i_lp_mmshare_version>
43012

> <i_f3d_flags>
0

> <s_epik_input>
W0NIMl0xW0NIMl1PW0NIMl1bQ0gyXUMxKFtDSDNdKVtOSF1DKD1PKVtOSF1jMm5bY0hdW2NIXXMy

> <s_epik_cmdline>
J2VwaWtfcHl0aG9uJywgJy1waCcsICc3LjAnLCAnLXRuJywgJzgnLCAnLW1hJywgJzIwMCcsICctbWV0YWxfYmluZGluZycsICctaW1hZScsICc8aW5maWxlLm1hZT4nLCAnLW9tYWUnLCAnPG91dGZpbGUubWFlPic=

> <r_lp_tautomer_probability>
1

> <r_epik_Ionization_Penalty>
0.000150899

> <r_epik_Ionization_Penalty_Charging>
0

> <r_epik_Ionization_Penalty_Neutral>
0.000150899

> <r_epik_State_Penalty>
-0

> <r_epik_Charging_Adjusted_Penalty>
0

> <i_epik_Tot_Q>
0

> <i_epik_Tot_abs_Q>
0

> <r_epik_Metal_State_Penalty>
0.0306338

> <b_epik_Metal_Only>
0

> <s_lp_Force_Field>
OPLS_2005

> <r_lp_Energy>
7.54186

> <b_lp_Chiralities_Consistent>
1

> <s_lp_Variant>
AV-unprocessed.smi:3224-1

> <Gold.Version>
5.8.1

> <Gold.Id.Protein>
6NUR|6NUR_protein|mol2

> <Gold.PLP.Fitness>
36.8447

> <Gold.PLP.PLP>
-31.3584

> <Gold.PLP.part.hbond>
-2.2005

> <Gold.PLP.part.metal>
0.0000

> <Gold.PLP.part.buried>
-5.3399

> <Gold.PLP.part.nonpolar>
-24.3387

> <Gold.PLP.part.repulsive>
0.3150

> <Gold.PLP.ligand.clash>
0.0000

> <Gold.PLP.ligand.torsion>
0.2602

> <Gold.PLP.Chemscore.Hbond>
2.0000

> <Gold.PLP.Chemscore.CHOScore>
0.0000

> <Gold.PLP.Chemscore.Metal>
0.0000

> <Gold.Chemscore.Hbonds>
donor molecule, donor type, donor heavy atom, donor atom, acceptor molecule, acceptor atom, score
      L1  H     3    20       P1  8028  1.00
      L1  H     6    21       P1  8028  0.99

> <Gold.PLP.Chemscore.Internal.Correction>
0.0067

> <Gold.Rescore>
     Score         DG    S(hbond)    S(metal)    S(lipo)     H(rot)  DE(clash)    DE(int)     intcor
     15.84     -17.14       1.95        0.00      65.88       1.00       0.00       1.29       ----

> <Gold.Chemscore.Fitness>
15.8446

> <Gold.Chemscore.DG>
-17.1379

> <Gold.Chemscore.ZeroCoef>
-5.4800

> <Gold.Chemscore.Hbond>
1.9491

> <Gold.Chemscore.Metal>
0.0000

> <Gold.Chemscore.Lipo>
65.8786

> <Gold.Chemscore.Internal_Hbond>
0.0000

> <Gold.Chemscore.DEClash>
0.0021

> <Gold.Chemscore.DEInternal>
1.2911

> <Gold.Chemscore.Rot>
1.0000

> <Gold.Chemscore.Internal.Correction>
   9.000000E+99

> <Gold.Chemscore.Hbonds>
donor molecule, donor type, donor heavy atom, donor atom, acceptor molecule, acceptor atom, score
      L1  H     3    20       P1  8028  0.99
      L1  H     6    21       P1  8028  0.92

> <Gold.Chemscore.Hbond.Weighted>
-6.5101

> <Gold.Chemscore.Metal.Weighted>
-0.0000

> <Gold.Chemscore.Lipo.Weighted>
-7.7078

> <Gold.Chemscore.Internal_Hbond.Weighted>
0.0000

> <Gold.Chemscore.DEClash.Weighted>
0.0021

> <Gold.Chemscore.DEInternal.Weighted>
1.2911

> <Gold.Chemscore.Rot.Weighted>
2.5600

> <Gold.Chemscore.Internal.Correction.Weighted>
   9.000000E+99

> <Gold.Protein.RotatedTorsions>
[ 6907 6896 6895 6894 ] final  159.08 input  -60.11 | X-H torsion
[ 7974 7965 7964 7962 ] final  -73.08 input  175.53 | X-H torsion
[ 8008 7997 7996 7995 ] final  148.40 input   59.86 | X-H torsion
[ 10167 10162 10161 10158 ] final -124.91 input  -65.29 | X-H torsion
[ 10718 10713 10712 10709 ] final  -13.92 input   66.30 | X-H torsion
[ 10763 10752 10751 10750 ] final    9.38 input  -60.55 | X-H torsion
[ 11005 11000 10999 10996 ] final   97.89 input  -57.11 | X-H torsion

> <Gold.Protein.ActiveResidues>
 VAL166  LYS551  ARG553  GLY616  TRP617  ASP618  TYR619  PRO620  LYS621  CYS622 
 ASP623  PHE694  ASN695  SER759  ASP760  ASP761  ALA762  ILE779  LEU786  VAL792 
 PHE793  MET794  SER795  GLU796  ALA797  LYS798  CYS799  TRP800  GLU811  SER814 

> <Gold.Protein.RotatedAtoms>
  151.9909  133.3791  159.4143 H   0  0  0  0  0  0  0  0  0  0  0  0  # atno 6907 bound_to 6896
  150.6922  134.3937  159.5097 H   0  0  0  0  0  0  0  0  0  0  0  0  # atno 6908 bound_to 6896
  152.1670  134.8865  160.0588 H   0  0  0  0  0  0  0  0  0  0  0  0  # atno 6909 bound_to 6896
  145.6568  140.9265  143.0955 H   0  0  0  0  0  0  0  0  0  0  0  0  # atno 7974 bound_to 7965
  156.2792  140.2130  156.5692 H   0  0  0  0  0  0  0  0  0  0  0  0  # atno 8008 bound_to 7997
  154.7150  140.0508  157.0609 H   0  0  0  0  0  0  0  0  0  0  0  0  # atno 8009 bound_to 7997
  155.0555  140.3161  155.4681 H   0  0  0  0  0  0  0  0  0  0  0  0  # atno 8010 bound_to 7997
  139.9878  143.5673  152.2354 H   0  0  0  0  0  0  0  0  0  0  0  0  # atno 10167 bound_to 10162
  156.6233  130.4881  149.6156 H   0  0  0  0  0  0  0  0  0  0  0  0  # atno 10718 bound_to 10713
  153.2147  135.6873  153.8072 H   0  0  0  0  0  0  0  0  0  0  0  0  # atno 10763 bound_to 10752
  153.7292  135.3255  155.3283 H   0  0  0  0  0  0  0  0  0  0  0  0  # atno 10764 bound_to 10752
  154.8240  135.4631  154.0969 H   0  0  0  0  0  0  0  0  0  0  0  0  # atno 10765 bound_to 10752
  139.8774  134.9022  156.4374 H   0  0  0  0  0  0  0  0  0  0  0  0  # atno 11005 bound_to 11000
  144.7103  139.8397  143.7416 LP  0  0  0  0  0  0  0  0  0  0  0  0  # atno 17320 bound_to 7965
  146.1159  139.4169  143.0259 LP  0  0  0  0  0  0  0  0  0  0  0  0  # atno 17321 bound_to 7965
  139.6362  144.7650  151.2432 LP  0  0  0  0  0  0  0  0  0  0  0  0  # atno 17342 bound_to 10162
  140.7466  143.6394  150.8349 LP  0  0  0  0  0  0  0  0  0  0  0  0  # atno 17343 bound_to 10162
  156.2294  130.6785  151.1448 LP  0  0  0  0  0  0  0  0  0  0  0  0  # atno 17370 bound_to 10713
  157.7221  131.0674  150.6090 LP  0  0  0  0  0  0  0  0  0  0  0  0  # atno 17371 bound_to 10713
  140.9024  133.7770  155.9695 LP  0  0  0  0  0  0  0  0  0  0  0  0  # atno 17394 bound_to 11000
  140.8637  134.2810  157.5223 LP  0  0  0  0  0  0  0  0  0  0  0  0  # atno 17395 bound_to 11000

$$$$
