AV-unprocessed.smi:2403|AV-procd|sdf|9509|dock2
  -GOLD-   2272013133D 1   1.00000     0.00000
 Structure written by MMmdl.
 47 49  0  0  0  0  0  0  0  0  1 V2000
  147.9634  136.5291  163.1179 C   0  0  0  0  0  0  0  0  0  0  0  0
  147.5343  135.5302  162.0578 C   0  0  0  0  0  0  0  0  0  0  0  0
  146.7317  134.4274  162.4164 C   0  0  0  0  0  0  0  0  0  0  0  0
  146.3499  133.5153  161.4138 C   0  0  0  0  0  0  0  0  0  0  0  0
  146.7194  133.6379  160.1225 N   0  0  0  0  0  0  0  0  0  0  0  0
  147.4861  134.6951  159.7809 C   0  0  0  0  0  0  0  0  0  0  0  0
  147.9161  135.6815  160.7031 C   0  0  0  0  0  0  0  0  0  0  0  0
  148.7446  136.7764  160.3320 N   0  0  0  0  0  0  0  0  0  0  0  0
  148.9873  137.2452  159.0967 C   0  0  0  0  0  0  0  0  0  0  0  0
  148.5092  136.7867  158.0592 O   0  0  0  0  0  0  0  0  0  0  0  0
  149.7973  138.3181  159.1362 N   0  0  0  0  0  0  0  0  0  0  0  0
  150.2675  139.1432  158.0071 C   0  0  0  0  0  0  0  0  0  0  0  0
  151.3672  140.1658  158.4153 C   0  0  0  0  0  0  0  0  0  0  0  0
  152.4992  140.0739  157.9380 O   0  0  0  0  0  0  0  0  0  0  0  0
  151.0478  141.1212  159.3036 N   0  0  0  0  0  0  0  0  0  0  0  0
  151.9515  142.1549  159.7830 C   0  0  0  0  0  0  0  0  0  0  0  0
  151.4097  143.5591  159.6190 C   0  0  0  0  0  0  0  0  0  0  0  0
  151.9861  144.4891  158.5780 C   0  0  0  0  0  0  0  0  0  0  0  0
  152.2211  144.7602  160.0449 C   0  0  0  0  0  0  0  0  0  0  0  0
  150.8489  138.1964  156.9286 C   0  0  0  0  0  0  0  0  0  0  0  0
  150.4652  138.7935  155.5762 C   0  0  0  0  0  0  0  0  0  0  0  0
  149.0795  139.3770  155.8160 C   0  0  0  0  0  0  0  0  0  0  0  0
  149.0754  139.8402  157.2784 C   0  0  0  0  0  0  0  0  0  0  0  0
  147.5409  136.2801  164.0917 H   0  0  0  0  0  0  0  0  0  0  0  0
  147.6296  137.5328  162.8537 H   0  0  0  0  0  0  0  0  0  0  0  0
  149.0493  136.5391  163.2131 H   0  0  0  0  0  0  0  0  0  0  0  0
  146.4127  134.2785  163.4376 H   0  0  0  0  0  0  0  0  0  0  0  0
  145.7357  132.6611  161.6572 H   0  0  0  0  0  0  0  0  0  0  0  0
  147.7748  134.7274  158.7415 H   0  0  0  0  0  0  0  0  0  0  0  0
  149.1231  137.3149  161.0974 H   0  0  0  0  0  0  0  0  0  0  0  0
  150.1215  138.6082  160.0469 H   0  0  0  0  0  0  0  0  0  0  0  0
  150.1022  141.1403  159.6569 H   0  0  0  0  0  0  0  0  0  0  0  0
  152.1804  141.9732  160.8343 H   0  0  0  0  0  0  0  0  0  0  0  0
  152.8933  142.0878  159.2361 H   0  0  0  0  0  0  0  0  0  0  0  0
  150.3331  143.6308  159.7635 H   0  0  0  0  0  0  0  0  0  0  0  0
  152.8307  144.1330  157.9916 H   0  0  0  0  0  0  0  0  0  0  0  0
  151.2945  145.1431  158.0508 H   0  0  0  0  0  0  0  0  0  0  0  0
  151.6849  145.5924  160.4962 H   0  0  0  0  0  0  0  0  0  0  0  0
  153.2224  144.5850  160.4333 H   0  0  0  0  0  0  0  0  0  0  0  0
  151.9276  138.0536  157.0122 H   0  0  0  0  0  0  0  0  0  0  0  0
  150.3992  137.2051  157.0097 H   0  0  0  0  0  0  0  0  0  0  0  0
  151.1616  139.5888  155.3075 H   0  0  0  0  0  0  0  0  0  0  0  0
  150.4765  138.0563  154.7729 H   0  0  0  0  0  0  0  0  0  0  0  0
  148.8426  140.1836  155.1214 H   0  0  0  0  0  0  0  0  0  0  0  0
  148.3298  138.5962  155.6810 H   0  0  0  0  0  0  0  0  0  0  0  0
  148.1087  139.6027  157.7232 H   0  0  0  0  0  0  0  0  0  0  0  0
  149.1559  140.9275  157.3186 H   0  0  0  0  0  0  0  0  0  0  0  0
  1  2  1  0  0  0  0
  1 24  1  0  0  0  0
  1 25  1  0  0  0  0
  1 26  1  0  0  0  0
  2  7  1  0  0  0  0
  2  3  2  0  0  0  0
  3  4  1  0  0  0  0
  3 27  1  0  0  0  0
  4  5  2  0  0  0  0
  4 28  1  0  0  0  0
  5  6  1  0  0  0  0
  6  7  2  0  0  0  0
  6 29  1  0  0  0  0
  7  8  1  0  0  0  0
  8  9  1  0  0  0  0
  8 30  1  0  0  0  0
  9 10  2  0  0  0  0
  9 11  1  0  0  0  0
 11 12  1  0  0  0  0
 11 31  1  0  0  0  0
 12 23  1  0  0  0  0
 12 13  1  0  0  0  0
 12 20  1  0  0  0  0
 13 14  2  0  0  0  0
 13 15  1  0  0  0  0
 15 16  1  0  0  0  0
 15 32  1  0  0  0  0
 16 17  1  0  0  0  0
 16 33  1  0  0  0  0
 16 34  1  0  0  0  0
 17 19  1  0  0  0  0
 17 18  1  0  0  0  0
 17 35  1  0  0  0  0
 18 19  1  0  0  0  0
 18 36  1  0  0  0  0
 18 37  1  0  0  0  0
 19 38  1  0  0  0  0
 19 39  1  0  0  0  0
 20 21  1  0  0  0  0
 20 40  1  0  0  0  0
 20 41  1  0  0  0  0
 21 22  1  0  0  0  0
 21 42  1  0  0  0  0
 21 43  1  0  0  0  0
 22 23  1  0  0  0  0
 22 44  1  0  0  0  0
 22 45  1  0  0  0  0
 23 46  1  0  0  0  0
 23 47  1  0  0  0  0
M  END
> <s_m_source_file>
AV-unprocessed.smi

> <i_m_source_file_index>
2403

> <i_lp_mmshare_version>
43012

> <i_f3d_flags>
0

> <s_epik_input>
W0NIM11jMVtjSF1bY0hdbltjSF1jMVtOSF1DKD1PKVtOSF1DMihbQ0gyXVtDSDJdW0NIMl1bQ0gyXTIpQyg9TylbTkhdW0NIMl1bQ0hdM1tDSDJdW0NIMl0z

> <s_epik_cmdline>
J2VwaWtfcHl0aG9uJywgJy1waCcsICc3LjAnLCAnLXRuJywgJzgnLCAnLW1hJywgJzIwMCcsICctbWV0YWxfYmluZGluZycsICctaW1hZScsICc8aW5maWxlLm1hZT4nLCAnLW9tYWUnLCAnPG91dGZpbGUubWFlPic=

> <r_epik_Ionization_Penalty>
0.0192934

> <r_epik_Ionization_Penalty_Charging>
0

> <r_epik_Ionization_Penalty_Neutral>
0.0192934

> <r_epik_State_Penalty>
0.0153733

> <r_epik_Charging_Adjusted_Penalty>
0.0153733

> <i_epik_Tot_Q>
0

> <i_epik_Tot_abs_Q>
0

> <r_epik_Metal_State_Penalty>
0.014888

> <b_epik_Metal_Only>
0

> <s_lp_Force_Field>
OPLS_2005

> <r_lp_Energy>
32.7874

> <b_lp_Chiralities_Consistent>
1

> <s_lp_Variant>
AV-unprocessed.smi:2403-1

> <Gold.Version>
5.8.1

> <Gold.Id.Protein>
6NUR|6NUR_protein|mol2

> <Gold.PLP.Fitness>
42.2112

> <Gold.PLP.PLP>
-39.6262

> <Gold.PLP.part.hbond>
-1.0000

> <Gold.PLP.part.metal>
0.0000

> <Gold.PLP.part.buried>
-5.0170

> <Gold.PLP.part.nonpolar>
-33.9238

> <Gold.PLP.part.repulsive>
0.6165

> <Gold.PLP.ligand.clash>
0.0000

> <Gold.PLP.ligand.torsion>
0.5306

> <Gold.PLP.Chemscore.Hbond>
1.0000

> <Gold.PLP.Chemscore.CHOScore>
0.0000

> <Gold.PLP.Chemscore.Metal>
0.0000

> <Gold.Chemscore.Hbonds>
donor molecule, donor type, donor heavy atom, donor atom, acceptor molecule, acceptor atom, score
      P1  H  7997  8008       L1    14  0.46

> <Gold.PLP.Chemscore.Internal.Correction>
0.6461

> <Gold.Rescore>
     Score         DG    S(hbond)    S(metal)    S(lipo)     H(rot)  DE(clash)    DE(int)     intcor
     15.47     -18.03       1.00        0.00     113.66       1.59       0.08       2.47       ----

> <Gold.Chemscore.Fitness>
15.4718

> <Gold.Chemscore.DG>
-18.0293

> <Gold.Chemscore.ZeroCoef>
-5.4800

> <Gold.Chemscore.Hbond>
0.9977

> <Gold.Chemscore.Metal>
0.0000

> <Gold.Chemscore.Lipo>
113.6577

> <Gold.Chemscore.Internal_Hbond>
0.0000

> <Gold.Chemscore.DEClash>
0.0841

> <Gold.Chemscore.DEInternal>
2.4734

> <Gold.Chemscore.Rot>
1.5941

> <Gold.Chemscore.Internal.Correction>
   9.000000E+99

> <Gold.Chemscore.Hbonds>
donor molecule, donor type, donor heavy atom, donor atom, acceptor molecule, acceptor atom, score
      P1  H  7997  8008       L1    14  0.44

> <Gold.Chemscore.Hbond.Weighted>
-3.3323

> <Gold.Chemscore.Metal.Weighted>
-0.0000

> <Gold.Chemscore.Lipo.Weighted>
-13.2980

> <Gold.Chemscore.Internal_Hbond.Weighted>
0.0000

> <Gold.Chemscore.DEClash.Weighted>
0.0841

> <Gold.Chemscore.DEInternal.Weighted>
2.4734

> <Gold.Chemscore.Rot.Weighted>
4.0809

> <Gold.Chemscore.Internal.Correction.Weighted>
   9.000000E+99

> <Gold.Protein.RotatedTorsions>
[ 6907 6896 6895 6894 ] final -164.32 input  -60.11 | X-H torsion
[ 7974 7965 7964 7962 ] final    4.59 input  175.53 | X-H torsion
[ 8008 7997 7996 7995 ] final  -77.12 input   59.86 | X-H torsion
[ 10167 10162 10161 10158 ] final  130.24 input  -65.29 | X-H torsion
[ 10718 10713 10712 10709 ] final    8.42 input   66.30 | X-H torsion
[ 10763 10752 10751 10750 ] final  -76.81 input  -60.55 | X-H torsion
[ 11005 11000 10999 10996 ] final -129.34 input  -57.11 | X-H torsion

> <Gold.Protein.ActiveResidues>
 VAL166  LYS551  ARG553  GLY616  TRP617  ASP618  TYR619  PRO620  LYS621  CYS622 
 ASP623  PHE694  ASN695  SER759  ASP760  ASP761  ALA762  ILE779  LEU786  VAL792 
 PHE793  MET794  SER795  GLU796  ALA797  LYS798  CYS799  TRP800  GLU811  SER814 

> <Gold.Protein.RotatedAtoms>
  151.4100  133.3730  159.2742 H   0  0  0  0  0  0  0  0  0  0  0  0  # atno 6907 bound_to 6896
  150.9370  134.8783  159.7599 H   0  0  0  0  0  0  0  0  0  0  0  0  # atno 6908 bound_to 6896
  152.5054  134.4048  159.9481 H   0  0  0  0  0  0  0  0  0  0  0  0  # atno 6909 bound_to 6896
  146.2443  140.0512  142.8375 H   0  0  0  0  0  0  0  0  0  0  0  0  # atno 7974 bound_to 7965
  154.5567  140.0716  156.8754 H   0  0  0  0  0  0  0  0  0  0  0  0  # atno 8008 bound_to 7997
  155.2889  140.3376  155.4235 H   0  0  0  0  0  0  0  0  0  0  0  0  # atno 8009 bound_to 7997
  156.2008  140.1721  156.7889 H   0  0  0  0  0  0  0  0  0  0  0  0  # atno 8010 bound_to 7997
  139.5439  144.6756  151.4535 H   0  0  0  0  0  0  0  0  0  0  0  0  # atno 10167 bound_to 10162
  156.9514  130.5898  149.5657 H   0  0  0  0  0  0  0  0  0  0  0  0  # atno 10718 bound_to 10713
  154.5048  135.5785  153.6558 H   0  0  0  0  0  0  0  0  0  0  0  0  # atno 10763 bound_to 10752
  152.9885  135.6144  154.2956 H   0  0  0  0  0  0  0  0  0  0  0  0  # atno 10764 bound_to 10752
  154.2866  135.2849  155.2653 H   0  0  0  0  0  0  0  0  0  0  0  0  # atno 10765 bound_to 10752
  140.9440  134.1155  157.4125 H   0  0  0  0  0  0  0  0  0  0  0  0  # atno 11005 bound_to 11000
  145.0983  140.9329  143.4728 LP  0  0  0  0  0  0  0  0  0  0  0  0  # atno 17320 bound_to 7965
  145.0699  139.3039  143.5837 LP  0  0  0  0  0  0  0  0  0  0  0  0  # atno 17321 bound_to 7965
  140.6680  143.8356  150.6965 LP  0  0  0  0  0  0  0  0  0  0  0  0  # atno 17342 bound_to 10162
  140.1771  143.4146  152.1959 LP  0  0  0  0  0  0  0  0  0  0  0  0  # atno 17343 bound_to 10162
  156.0361  130.5448  150.8657 LP  0  0  0  0  0  0  0  0  0  0  0  0  # atno 17370 bound_to 10713
  157.5719  131.0946  150.9404 LP  0  0  0  0  0  0  0  0  0  0  0  0  # atno 17371 bound_to 10713
  139.8828  135.0045  156.6256 LP  0  0  0  0  0  0  0  0  0  0  0  0  # atno 17394 bound_to 11000
  140.7695  133.8750  155.8481 LP  0  0  0  0  0  0  0  0  0  0  0  0  # atno 17395 bound_to 11000

$$$$
