AV-unprocessed.smi:1015|AV-procd|sdf|4435|dock7
  -GOLD-   22720 2393D 1   1.00000     0.00000
 Structure written by MMmdl.
 43 44  0  0  0  0  0  0  0  0  2 V2000
  151.8472  145.1512  160.0383 C   0  0  0  0  0  0  0  0  0  0  0  0
  152.6712  144.0545  159.6835 O   0  0  0  0  0  0  0  0  0  0  0  0
  151.9479  143.0137  159.0479 C   0  0  0  0  0  0  0  0  0  0  0  0
  151.2758  143.5750  157.7851 C   0  0  0  0  0  0  0  0  0  0  0  0
  150.3960  142.5811  157.1187 N   0  3  2  0  0  0  0  0  0  0  0  0
  149.3993  141.9985  158.0538 C   0  0  0  0  0  0  0  0  0  0  0  0
  148.4142  141.0696  157.3194 C   0  0  0  0  0  0  0  0  0  0  0  0
  149.1341  139.9558  156.5363 C   0  0  2  0  0  0  0  0  0  0  0  0
  149.6907  138.8547  157.4700 C   0  0  0  0  0  0  0  0  0  0  0  0
  148.6240  138.0568  158.0654 N   0  0  0  0  0  0  0  0  0  0  0  0
  148.8006  137.0235  158.9044 C   0  0  0  0  0  0  0  0  0  0  0  0
  149.8999  136.6742  159.3333 O   0  0  0  0  0  0  0  0  0  0  0  0
  147.5471  136.2387  159.2886 C   0  0  0  0  0  0  0  0  0  0  0  0
  147.4771  136.0712  160.7281 N   0  0  0  0  0  0  0  0  0  0  0  0
  147.3745  134.9728  161.4798 C   0  0  0  0  0  0  0  0  0  0  0  0
  147.3760  135.2629  162.7717 N   0  0  0  0  0  0  0  0  0  0  0  0
  147.4846  136.6434  162.7843 N   0  0  0  0  0  0  0  0  0  0  0  0
  147.5463  137.1288  161.5748 N   0  0  0  0  0  0  0  0  0  0  0  0
  150.1861  140.6061  155.6126 C   0  0  0  0  0  0  0  0  0  0  0  0
  151.1454  141.5252  156.3875 C   0  0  0  0  0  0  0  0  0  0  0  0
  152.4499  145.9223  160.5178 H   0  0  0  0  0  0  0  0  0  0  0  0
  151.0685  144.8484  160.7395 H   0  0  0  0  0  0  0  0  0  0  0  0
  151.3750  145.5913  159.1590 H   0  0  0  0  0  0  0  0  0  0  0  0
  152.6027  142.1737  158.8155 H   0  0  0  0  0  0  0  0  0  0  0  0
  151.1812  142.6390  159.7279 H   0  0  0  0  0  0  0  0  0  0  0  0
  150.7009  144.4708  158.0240 H   0  0  0  0  0  0  0  0  0  0  0  0
  152.0624  143.8904  157.0982 H   0  0  0  0  0  0  0  0  0  0  0  0
  149.9149  141.4611  158.8507 H   0  0  0  0  0  0  0  0  0  0  0  0
  148.8363  142.8004  158.5328 H   0  0  0  0  0  0  0  0  0  0  0  0
  147.7076  140.6376  158.0290 H   0  0  0  0  0  0  0  0  0  0  0  0
  147.8180  141.6654  156.6267 H   0  0  0  0  0  0  0  0  0  0  0  0
  148.3922  139.4753  155.8967 H   0  0  0  0  0  0  0  0  0  0  0  0
  150.4075  138.2204  156.9478 H   0  0  0  0  0  0  0  0  0  0  0  0
  150.2450  139.3173  158.2870 H   0  0  0  0  0  0  0  0  0  0  0  0
  147.6811  138.2749  157.7766 H   0  0  0  0  0  0  0  0  0  0  0  0
  146.6529  136.7599  158.9427 H   0  0  0  0  0  0  0  0  0  0  0  0
  147.5546  135.2562  158.8150 H   0  0  0  0  0  0  0  0  0  0  0  0
  147.3105  133.9696  161.0844 H   0  0  0  0  0  0  0  0  0  0  0  0
  150.7492  139.8530  155.0616 H   0  0  0  0  0  0  0  0  0  0  0  0
  149.6732  141.1975  154.8529 H   0  0  0  0  0  0  0  0  0  0  0  0
  151.8411  141.9747  155.6803 H   0  0  0  0  0  0  0  0  0  0  0  0
  151.7467  140.9465  157.0896 H   0  0  0  0  0  0  0  0  0  0  0  0
  149.8647  143.0942  156.4294 H   0  0  0  0  0  0  0  0  0  0  0  0
  1  2  1  0  0  0  0
  1 21  1  0  0  0  0
  1 22  1  0  0  0  0
  1 23  1  0  0  0  0
  2  3  1  0  0  0  0
  3  4  1  0  0  0  0
  3 24  1  0  0  0  0
  3 25  1  0  0  0  0
  4  5  1  0  0  0  0
  4 26  1  0  0  0  0
  4 27  1  0  0  0  0
  5 20  1  0  0  0  0
  5  6  1  0  0  0  0
  5 43  1  0  0  0  0
  6  7  1  0  0  0  0
  6 28  1  0  0  0  0
  6 29  1  0  0  0  0
  7  8  1  0  0  0  0
  7 30  1  0  0  0  0
  7 31  1  0  0  0  0
  8  9  1  0  0  0  0
  8 19  1  0  0  0  0
  8 32  1  0  0  0  0
  9 10  1  0  0  0  0
  9 33  1  0  0  0  0
  9 34  1  0  0  0  0
 10 11  1  0  0  0  0
 10 35  1  0  0  0  0
 11 12  2  0  0  0  0
 11 13  1  0  0  0  0
 13 14  1  0  0  0  0
 13 36  1  0  0  0  0
 13 37  1  0  0  0  0
 14 18  1  0  0  0  0
 14 15  1  0  0  0  0
 15 16  2  0  0  0  0
 15 38  1  0  0  0  0
 16 17  1  0  0  0  0
 17 18  2  0  0  0  0
 19 20  1  0  0  0  0
 19 39  1  0  0  0  0
 19 40  1  0  0  0  0
 20 41  1  0  0  0  0
 20 42  1  0  0  0  0
M  CHG  1   5   1
M  END
> <s_m_source_file>
AV-unprocessed.smi

> <i_m_source_file_index>
1015

> <i_lp_mmshare_version>
43012

> <i_f3d_flags>
0

> <s_epik_input>
W0NIM11PW0NIMl1bQ0gyXU4xW0NIMl1bQ0gyXVtDSF0oW0NIMl1bQ0gyXTEpW0NIMl1bTkhdQyg9TylbQ0gyXW4yW2NIXW5ubjI=

> <s_epik_cmdline>
J2VwaWtfcHl0aG9uJywgJy1waCcsICc3LjAnLCAnLXRuJywgJzgnLCAnLW1hJywgJzIwMCcsICctbWV0YWxfYmluZGluZycsICctaW1hZScsICc8aW5maWxlLm1hZT4nLCAnLW9tYWUnLCAnPG91dGZpbGUubWFlPic=

> <r_lp_tautomer_probability>
1

> <r_epik_Ionization_Penalty>
0.0104119

> <r_epik_Ionization_Penalty_Charging>
0.0104107

> <r_epik_Ionization_Penalty_Neutral>
1.19574e-06

> <r_epik_State_Penalty>
0.00795975

> <r_epik_Charging_Adjusted_Penalty>
0.0183705

> <i_epik_Tot_Q>
1

> <i_epik_Tot_abs_Q>
1

> <r_epik_Metal_State_Penalty>
0.00795975

> <b_epik_Metal_Only>
0

> <s_lp_Force_Field>
OPLS_2005

> <r_lp_Energy>
22.9597

> <b_lp_Chiralities_Consistent>
1

> <s_lp_Variant>
AV-unprocessed.smi:1015-2

> <Gold.Version>
5.8.1

> <Gold.Id.Protein>
6NUR|6NUR_protein|mol2

> <Gold.PLP.Fitness>
47.5865

> <Gold.PLP.PLP>
-34.3454

> <Gold.PLP.part.hbond>
-4.6675

> <Gold.PLP.part.metal>
0.0000

> <Gold.PLP.part.buried>
-7.8470

> <Gold.PLP.part.nonpolar>
-22.8634

> <Gold.PLP.part.repulsive>
0.1467

> <Gold.PLP.ligand.clash>
0.0000

> <Gold.PLP.ligand.torsion>
0.2643

> <Gold.PLP.Chemscore.Hbond>
4.5700

> <Gold.PLP.Chemscore.CHOScore>
0.0000

> <Gold.PLP.Chemscore.Metal>
0.0000

> <Gold.Chemscore.Hbonds>
donor molecule, donor type, donor heavy atom, donor atom, acceptor molecule, acceptor atom, score
      L1  H     5    43       P1  8028  1.92
      P1  H  6896  6908       L1    12  0.96
      P1  H  6931  6943       L1    18  0.74
      P1  H  6934  6947       L1    18  0.82

> <Gold.PLP.Chemscore.Internal.Correction>
0.0597

> <Gold.Rescore>
     Score         DG    S(hbond)    S(metal)    S(lipo)     H(rot)  DE(clash)    DE(int)     intcor
     13.92     -14.10       2.86        0.00      62.00       3.19       0.02       0.16       ----

> <Gold.Chemscore.Fitness>
13.9178

> <Gold.Chemscore.DG>
-14.1002

> <Gold.Chemscore.ZeroCoef>
-5.4800

> <Gold.Chemscore.Hbond>
2.8563

> <Gold.Chemscore.Metal>
0.0000

> <Gold.Chemscore.Lipo>
61.9983

> <Gold.Chemscore.Internal_Hbond>
0.0000

> <Gold.Chemscore.DEClash>
0.0234

> <Gold.Chemscore.DEInternal>
0.1590

> <Gold.Chemscore.Rot>
3.1928

> <Gold.Chemscore.Internal.Correction>
   9.000000E+99

> <Gold.Chemscore.Hbonds>
donor molecule, donor type, donor heavy atom, donor atom, acceptor molecule, acceptor atom, score
      L1  H     5    43       P1  8028  0.89
      P1  H  6896  6908       L1    12  0.91
      P1  H  6931  6943       L1    18  0.09
      P1  H  6934  6947       L1    18  0.75

> <Gold.Chemscore.Hbond.Weighted>
-9.5401

> <Gold.Chemscore.Metal.Weighted>
-0.0000

> <Gold.Chemscore.Lipo.Weighted>
-7.2538

> <Gold.Chemscore.Internal_Hbond.Weighted>
0.0000

> <Gold.Chemscore.DEClash.Weighted>
0.0234

> <Gold.Chemscore.DEInternal.Weighted>
0.1590

> <Gold.Chemscore.Rot.Weighted>
8.1737

> <Gold.Chemscore.Internal.Correction.Weighted>
   9.000000E+99

> <Gold.Protein.RotatedTorsions>
[ 6907 6896 6895 6894 ] final -162.00 input  -60.11 | X-H torsion
[ 7974 7965 7964 7962 ] final  -56.90 input  175.53 | X-H torsion
[ 8008 7997 7996 7995 ] final   45.89 input   59.86 | X-H torsion
[ 10167 10162 10161 10158 ] final  -34.56 input  -65.29 | X-H torsion
[ 10718 10713 10712 10709 ] final  111.74 input   66.30 | X-H torsion
[ 10763 10752 10751 10750 ] final  165.36 input  -60.55 | X-H torsion
[ 11005 11000 10999 10996 ] final -127.04 input  -57.11 | X-H torsion

> <Gold.Protein.ActiveResidues>
 VAL166  LYS551  ARG553  GLY616  TRP617  ASP618  TYR619  PRO620  LYS621  CYS622 
 ASP623  PHE694  ASN695  SER759  ASP760  ASP761  ALA762  ILE779  LEU786  VAL792 
 PHE793  MET794  SER795  GLU796  ALA797  LYS798  CYS799  TRP800  GLU811  SER814 

> <Gold.Protein.RotatedAtoms>
  151.3735  133.3846  159.2701 H   0  0  0  0  0  0  0  0  0  0  0  0  # atno 6907 bound_to 6896
  150.9632  134.9018  159.7754 H   0  0  0  0  0  0  0  0  0  0  0  0  # atno 6908 bound_to 6896
  152.5157  134.3695  159.9365 H   0  0  0  0  0  0  0  0  0  0  0  0  # atno 6909 bound_to 6896
  145.8573  140.8310  142.9955 H   0  0  0  0  0  0  0  0  0  0  0  0  # atno 7974 bound_to 7965
  155.3433  140.3409  155.4239 H   0  0  0  0  0  0  0  0  0  0  0  0  # atno 8008 bound_to 7997
  156.1802  140.1661  156.8325 H   0  0  0  0  0  0  0  0  0  0  0  0  # atno 8009 bound_to 7997
  154.5325  140.0742  156.8352 H   0  0  0  0  0  0  0  0  0  0  0  0  # atno 8010 bound_to 7997
  140.7183  143.3539  151.2098 H   0  0  0  0  0  0  0  0  0  0  0  0  # atno 10167 bound_to 10162
  157.6429  131.0956  150.6793 H   0  0  0  0  0  0  0  0  0  0  0  0  # atno 10718 bound_to 10713
  154.3228  135.2755  155.2511 H   0  0  0  0  0  0  0  0  0  0  0  0  # atno 10763 bound_to 10752
  154.4857  135.5847  153.6425 H   0  0  0  0  0  0  0  0  0  0  0  0  # atno 10764 bound_to 10752
  152.9875  135.6122  154.3414 H   0  0  0  0  0  0  0  0  0  0  0  0  # atno 10765 bound_to 10752
  140.9632  134.0907  157.3947 H   0  0  0  0  0  0  0  0  0  0  0  0  # atno 11005 bound_to 11000
  144.6727  140.1042  143.7459 LP  0  0  0  0  0  0  0  0  0  0  0  0  # atno 17320 bound_to 7965
  145.9289  139.2593  143.1337 LP  0  0  0  0  0  0  0  0  0  0  0  0  # atno 17321 bound_to 7965
  139.7077  143.9429  152.2934 LP  0  0  0  0  0  0  0  0  0  0  0  0  # atno 17342 bound_to 10162
  139.9143  144.6838  150.8529 LP  0  0  0  0  0  0  0  0  0  0  0  0  # atno 17343 bound_to 10162
  156.7114  130.4653  149.5546 LP  0  0  0  0  0  0  0  0  0  0  0  0  # atno 17370 bound_to 10713
  156.1727  130.6447  151.0857 LP  0  0  0  0  0  0  0  0  0  0  0  0  # atno 17371 bound_to 10713
  139.8885  135.0098  156.6626 LP  0  0  0  0  0  0  0  0  0  0  0  0  # atno 17394 bound_to 11000
  140.7437  133.8956  155.8296 LP  0  0  0  0  0  0  0  0  0  0  0  0  # atno 17395 bound_to 11000

$$$$
