AV-unprocessed.smi:604|AV-procd|sdf|3037|dock6
  -GOLD-   2262023553D 1   1.00000     0.00000
 Structure written by MMmdl.
 49 51  0  0  0  0  0  0  0  0  2 V2000
  149.7503  139.8884  156.8115 O   0  0  0  0  0  0  0  0  0  0  0  0
  149.1570  140.9103  156.4679 C   0  0  0  0  0  0  0  0  0  0  0  0
  149.4682  142.1591  156.8554 N   0  0  0  0  0  0  0  0  0  0  0  0
  150.5179  142.5800  157.7160 C   0  0  0  0  0  0  0  0  0  0  0  0
  151.5422  141.6566  158.0100 C   0  0  0  0  0  0  0  0  0  0  0  0
  152.5867  142.0410  158.8718 C   0  0  0  0  0  0  0  0  0  0  0  0
  152.5608  143.3389  159.4173 C   0  0  0  0  0  0  0  0  0  0  0  0
  151.5801  144.2300  159.1607 N   0  0  0  0  0  0  0  0  0  0  0  0
  150.5820  143.8551  158.3314 C   0  0  0  0  0  0  0  0  0  0  0  0
  148.0868  140.9049  155.6599 N   0  0  0  0  0  0  0  0  0  0  0  0
  147.4661  139.7090  155.0973 C   0  0  2  0  0  0  0  0  0  0  0  0
  147.4138  139.7819  153.5602 C   0  0  0  0  0  0  0  0  0  0  0  0
  146.6725  138.5696  152.9708 C   0  0  0  0  0  0  0  0  0  0  0  0
  145.3049  138.4460  153.5390 N   0  3  1  0  0  0  0  0  0  0  0  0
  144.5051  137.3718  152.8951 C   0  0  0  0  0  0  0  0  0  0  0  0
  143.1486  137.1663  153.5957 C   0  0  0  0  0  0  0  0  0  0  0  0
  142.5333  135.7731  153.4317 C   0  0  0  0  0  0  0  0  0  0  0  0
  141.0453  135.9545  153.7477 C   0  0  0  0  0  0  0  0  0  0  0  0
  140.7304  137.4356  153.4917 C   0  0  0  0  0  0  0  0  0  0  0  0
  142.0485  138.0859  153.0580 C   0  0  0  0  0  0  0  0  0  0  0  0
  145.3378  138.3360  155.0211 C   0  0  0  0  0  0  0  0  0  0  0  0
  146.0416  139.5489  155.6514 C   0  0  0  0  0  0  0  0  0  0  0  0
  148.8388  142.8884  156.5540 H   0  0  0  0  0  0  0  0  0  0  0  0
  151.5335  140.6666  157.5772 H   0  0  0  0  0  0  0  0  0  0  0  0
  153.3879  141.3572  159.1099 H   0  0  0  0  0  0  0  0  0  0  0  0
  153.3456  143.6680  160.0824 H   0  0  0  0  0  0  0  0  0  0  0  0
  149.8151  144.5995  158.1855 H   0  0  0  0  0  0  0  0  0  0  0  0
  147.6605  141.7912  155.4317 H   0  0  0  0  0  0  0  0  0  0  0  0
  148.0483  138.8336  155.3933 H   0  0  0  0  0  0  0  0  0  0  0  0
  146.9123  140.6995  153.2487 H   0  0  0  0  0  0  0  0  0  0  0  0
  148.4229  139.8271  153.1489 H   0  0  0  0  0  0  0  0  0  0  0  0
  146.6113  138.6830  151.8876 H   0  0  0  0  0  0  0  0  0  0  0  0
  147.2329  137.6533  153.1645 H   0  0  0  0  0  0  0  0  0  0  0  0
  144.3025  137.6407  151.8572 H   0  0  0  0  0  0  0  0  0  0  0  0
  145.0708  136.4396  152.8499 H   0  0  0  0  0  0  0  0  0  0  0  0
  143.2633  137.3713  154.6616 H   0  0  0  0  0  0  0  0  0  0  0  0
  142.6432  135.4364  152.3997 H   0  0  0  0  0  0  0  0  0  0  0  0
  143.0009  135.0285  154.0766 H   0  0  0  0  0  0  0  0  0  0  0  0
  140.4252  135.2930  153.1420 H   0  0  0  0  0  0  0  0  0  0  0  0
  140.8524  135.7143  154.7940 H   0  0  0  0  0  0  0  0  0  0  0  0
  139.9573  137.5625  152.7331 H   0  0  0  0  0  0  0  0  0  0  0  0
  140.3653  137.8990  154.4091 H   0  0  0  0  0  0  0  0  0  0  0  0
  142.1443  139.1094  153.4218 H   0  0  0  0  0  0  0  0  0  0  0  0
  142.0925  138.1198  151.9681 H   0  0  0  0  0  0  0  0  0  0  0  0
  144.3250  138.2642  155.4160 H   0  0  0  0  0  0  0  0  0  0  0  0
  145.8513  137.4166  155.3077 H   0  0  0  0  0  0  0  0  0  0  0  0
  146.0726  139.4333  156.7355 H   0  0  0  0  0  0  0  0  0  0  0  0
  145.4592  140.4500  155.4521 H   0  0  0  0  0  0  0  0  0  0  0  0
  144.8352  139.3128  153.3194 H   0  0  0  0  0  0  0  0  0  0  0  0
  1  2  2  0  0  0  0
  2  3  1  0  0  0  0
  2 10  1  0  0  0  0
  3  4  1  0  0  0  0
  3 23  1  0  0  0  0
  4  9  1  0  0  0  0
  4  5  2  0  0  0  0
  5  6  1  0  0  0  0
  5 24  1  0  0  0  0
  6  7  2  0  0  0  0
  6 25  1  0  0  0  0
  7  8  1  0  0  0  0
  7 26  1  0  0  0  0
  8  9  2  0  0  0  0
  9 27  1  0  0  0  0
 10 11  1  0  0  0  0
 10 28  1  0  0  0  0
 11 22  1  0  0  0  0
 11 12  1  0  0  0  0
 11 29  1  0  0  0  0
 12 13  1  0  0  0  0
 12 30  1  0  0  0  0
 12 31  1  0  0  0  0
 13 14  1  0  0  0  0
 13 32  1  0  0  0  0
 13 33  1  0  0  0  0
 14 15  1  0  0  0  0
 14 21  1  0  0  0  0
 14 49  1  0  0  0  0
 15 16  1  0  0  0  0
 15 34  1  0  0  0  0
 15 35  1  0  0  0  0
 16 20  1  0  0  0  0
 16 17  1  0  0  0  0
 16 36  1  0  0  0  0
 17 18  1  0  0  0  0
 17 37  1  0  0  0  0
 17 38  1  0  0  0  0
 18 19  1  0  0  0  0
 18 39  1  0  0  0  0
 18 40  1  0  0  0  0
 19 20  1  0  0  0  0
 19 41  1  0  0  0  0
 19 42  1  0  0  0  0
 20 43  1  0  0  0  0
 20 44  1  0  0  0  0
 21 22  1  0  0  0  0
 21 45  1  0  0  0  0
 21 46  1  0  0  0  0
 22 47  1  0  0  0  0
 22 48  1  0  0  0  0
M  CHG  1  14   1
M  END
> <s_m_source_file>
AV-unprocessed.smi

> <i_m_source_file_index>
604

> <i_lp_mmshare_version>
43012

> <i_f3d_flags>
0

> <s_epik_input>
W2NIXTFuW2NIXVtjSF1bY0hdYzFbTkhdQyg9TylbTkhdW0NIXTJbQ0gyXVtDSDJdTihbQ0gyXVtDSDJdMilbQ0gyXVtDSF0zW0NIMl1bQ0gyXVtDSDJdW0NIMl0z

> <s_epik_cmdline>
J2VwaWtfcHl0aG9uJywgJy1waCcsICc3LjAnLCAnLXRuJywgJzgnLCAnLW1hJywgJzIwMCcsICctbWV0YWxfYmluZGluZycsICctaW1hZScsICc8aW5maWxlLm1hZT4nLCAnLW9tYWUnLCAnPG91dGZpbGUubWFlPic=

> <r_lp_tautomer_probability>
1

> <r_epik_Ionization_Penalty>
0.00608112

> <r_epik_Ionization_Penalty_Charging>
0.00207989

> <r_epik_Ionization_Penalty_Neutral>
0.00400122

> <r_epik_State_Penalty>
-0

> <r_epik_Charging_Adjusted_Penalty>
0.00207989

> <i_epik_Tot_Q>
1

> <i_epik_Tot_abs_Q>
1

> <r_epik_Metal_State_Penalty>
-0

> <b_epik_Metal_Only>
0

> <s_lp_Force_Field>
OPLS_2005

> <r_lp_Energy>
41.6956

> <b_lp_Chiralities_Consistent>
1

> <s_lp_Variant>
AV-unprocessed.smi:604-1

> <Gold.Version>
5.8.1

> <Gold.Id.Protein>
6NUR|6NUR_protein|mol2

> <Gold.PLP.Fitness>
42.0886

> <Gold.PLP.PLP>
-31.4183

> <Gold.PLP.part.hbond>
-2.0000

> <Gold.PLP.part.metal>
0.0000

> <Gold.PLP.part.buried>
-3.0445

> <Gold.PLP.part.nonpolar>
-26.6714

> <Gold.PLP.part.repulsive>
0.0843

> <Gold.PLP.ligand.clash>
0.0000

> <Gold.PLP.ligand.torsion>
0.4207

> <Gold.PLP.Chemscore.Hbond>
2.8160

> <Gold.PLP.Chemscore.CHOScore>
1.0127

> <Gold.PLP.Chemscore.Metal>
0.0000

> <Gold.Chemscore.Hbonds>
donor molecule, donor type, donor heavy atom, donor atom, acceptor molecule, acceptor atom, score
      L1  H     3    23       P1  8028  0.81
      L1  H    14    49       P1 10175  2.00
      L1  C     9    27       P1  8028  0.22
      L1  C     9    27       P1  8029  0.80

> <Gold.PLP.Chemscore.Internal.Correction>
0.0256

> <Gold.Rescore>
     Score         DG    S(hbond)    S(metal)    S(lipo)     H(rot)  DE(clash)    DE(int)     intcor
     17.00     -19.35       1.91        0.00      93.52       1.35       0.39       1.96       ----

> <Gold.Chemscore.Fitness>
16.9991

> <Gold.Chemscore.DG>
-19.3497

> <Gold.Chemscore.ZeroCoef>
-5.4800

> <Gold.Chemscore.Hbond>
1.9077

> <Gold.Chemscore.Metal>
0.0000

> <Gold.Chemscore.Lipo>
93.5243

> <Gold.Chemscore.Internal_Hbond>
0.0000

> <Gold.Chemscore.DEClash>
0.3917

> <Gold.Chemscore.DEInternal>
1.9589

> <Gold.Chemscore.Rot>
1.3455

> <Gold.Chemscore.Internal.Correction>
   9.000000E+99

> <Gold.Chemscore.Hbonds>
donor molecule, donor type, donor heavy atom, donor atom, acceptor molecule, acceptor atom, score
      L1  H     3    23       P1  8028  0.73
      L1  H    14    49       P1 10175  0.99

> <Gold.Chemscore.Hbond.Weighted>
-6.3718

> <Gold.Chemscore.Metal.Weighted>
-0.0000

> <Gold.Chemscore.Lipo.Weighted>
-10.9423

> <Gold.Chemscore.Internal_Hbond.Weighted>
0.0000

> <Gold.Chemscore.DEClash.Weighted>
0.3917

> <Gold.Chemscore.DEInternal.Weighted>
1.9589

> <Gold.Chemscore.Rot.Weighted>
3.4445

> <Gold.Chemscore.Internal.Correction.Weighted>
   9.000000E+99

> <Gold.Protein.RotatedTorsions>
[ 6907 6896 6895 6894 ] final  -50.50 input  -60.11 | X-H torsion
[ 7974 7965 7964 7962 ] final  155.02 input  175.53 | X-H torsion
[ 8008 7997 7996 7995 ] final   25.21 input   59.86 | X-H torsion
[ 10167 10162 10161 10158 ] final  -58.58 input  -65.29 | X-H torsion
[ 10718 10713 10712 10709 ] final   38.22 input   66.30 | X-H torsion
[ 10763 10752 10751 10750 ] final  130.12 input  -60.55 | X-H torsion
[ 11005 11000 10999 10996 ] final -145.44 input  -57.11 | X-H torsion

> <Gold.Protein.ActiveResidues>
 VAL166  LYS551  ARG553  GLY616  TRP617  ASP618  TYR619  PRO620  LYS621  CYS622 
 ASP623  PHE694  ASN695  SER759  ASP760  ASP761  ALA762  ILE779  LEU786  VAL792 
 PHE793  MET794  SER795  GLU796  ALA797  LYS798  CYS799  TRP800  GLU811  SER814 

> <Gold.Protein.RotatedAtoms>
  150.8701  134.8073  159.7148 H   0  0  0  0  0  0  0  0  0  0  0  0  # atno 6907 bound_to 6896
  152.4709  134.4960  159.9720 H   0  0  0  0  0  0  0  0  0  0  0  0  # atno 6908 bound_to 6896
  151.5050  133.3458  159.2911 H   0  0  0  0  0  0  0  0  0  0  0  0  # atno 6909 bound_to 6896
  144.8051  139.7012  143.6165 H   0  0  0  0  0  0  0  0  0  0  0  0  # atno 7974 bound_to 7965
  155.0082  140.3133  155.4840 H   0  0  0  0  0  0  0  0  0  0  0  0  # atno 8008 bound_to 7997
  156.2914  140.2219  156.5136 H   0  0  0  0  0  0  0  0  0  0  0  0  # atno 8009 bound_to 7997
  154.7558  140.0463  157.0920 H   0  0  0  0  0  0  0  0  0  0  0  0  # atno 8010 bound_to 7997
  140.6189  143.2412  151.5530 H   0  0  0  0  0  0  0  0  0  0  0  0  # atno 10167 bound_to 10162
  157.3562  130.7625  149.7014 H   0  0  0  0  0  0  0  0  0  0  0  0  # atno 10718 bound_to 10713
  153.7529  135.3207  155.3324 H   0  0  0  0  0  0  0  0  0  0  0  0  # atno 10763 bound_to 10752
  154.8257  135.4571  154.0914 H   0  0  0  0  0  0  0  0  0  0  0  0  # atno 10764 bound_to 10752
  153.2122  135.6937  153.8183 H   0  0  0  0  0  0  0  0  0  0  0  0  # atno 10765 bound_to 10752
  140.7923  134.2954  157.5009 H   0  0  0  0  0  0  0  0  0  0  0  0  # atno 11005 bound_to 11000
  146.2341  139.5870  142.9536 LP  0  0  0  0  0  0  0  0  0  0  0  0  # atno 17320 bound_to 7965
  145.5458  141.0417  143.2305 LP  0  0  0  0  0  0  0  0  0  0  0  0  # atno 17321 bound_to 7965
  139.5421  144.2618  152.1372 LP  0  0  0  0  0  0  0  0  0  0  0  0  # atno 17342 bound_to 10162
  140.1834  144.4822  150.6516 LP  0  0  0  0  0  0  0  0  0  0  0  0  # atno 17343 bound_to 10162
  155.9729  130.4126  150.4042 LP  0  0  0  0  0  0  0  0  0  0  0  0  # atno 17370 bound_to 10713
  157.2113  131.0461  151.2598 LP  0  0  0  0  0  0  0  0  0  0  0  0  # atno 17371 bound_to 10713
  139.8730  134.9381  156.3706 LP  0  0  0  0  0  0  0  0  0  0  0  0  # atno 17394 bound_to 11000
  140.9377  133.7535  156.0106 LP  0  0  0  0  0  0  0  0  0  0  0  0  # atno 17395 bound_to 11000

$$$$
