AV-unprocessed.smi:1824|AV-procd|sdf|7398|dock7
  -GOLD-   22720 9 73D 1   1.00000     0.00000
 Structure written by MMmdl.
 44 46  0  0  0  0  0  0  0  0  1 V2000
  144.5381  139.4299  157.2500 C   0  0  0  0  0  0  0  0  0  0  0  0
  145.1603  139.3974  155.8503 C   0  0  1  0  0  0  0  0  0  0  0  0
  146.4392  140.2494  155.7648 C   0  0  0  0  0  0  0  0  0  0  0  0
  147.0730  140.1543  154.4558 N   0  0  0  0  0  0  0  0  0  0  0  0
  148.2581  141.0108  154.3855 C   0  0  0  0  0  0  0  0  0  0  0  0
  149.5258  140.4520  155.0631 C   0  0  1  0  0  0  0  0  0  0  0  0
  150.2686  139.7202  154.1067 O   0  0  0  0  0  0  0  0  0  0  0  0
  150.4071  141.5810  155.6301 C   0  0  0  0  0  0  0  0  0  0  0  0
  151.2014  141.1466  156.7656 N   0  0  0  0  0  0  0  0  0  0  0  0
  151.8074  139.9548  156.9281 C   0  0  0  0  0  0  0  0  0  0  0  0
  152.4881  139.7661  158.0551 N   0  0  0  0  0  0  0  0  0  0  0  0
  152.3029  140.9771  158.6998 C   0  0  0  0  0  0  0  0  0  0  0  0
  152.7705  141.4300  159.9542 C   0  0  0  0  0  0  0  0  0  0  0  0
  152.4503  142.7253  160.4113 C   0  0  0  0  0  0  0  0  0  0  0  0
  152.9065  143.1434  161.6158 F   0  0  0  0  0  0  0  0  0  0  0  0
  151.6590  143.5863  159.6221 C   0  0  0  0  0  0  0  0  0  0  0  0
  151.3565  144.8283  160.0687 F   0  0  0  0  0  0  0  0  0  0  0  0
  151.1816  143.1571  158.3689 C   0  0  0  0  0  0  0  0  0  0  0  0
  151.5034  141.8640  157.9175 C   0  0  0  0  0  0  0  0  0  0  0  0
  147.3710  138.7505  154.1755 C   0  0  0  0  0  0  0  0  0  0  0  0
  146.1279  137.8441  154.2819 C   0  0  2  0  0  0  0  0  0  0  0  0
  145.1564  138.0041  153.1003 C   0  0  0  0  0  0  0  0  0  0  0  0
  145.4743  138.0420  155.5364 O   0  0  0  0  0  0  0  0  0  0  0  0
  144.2655  140.4463  157.5347 H   0  0  0  0  0  0  0  0  0  0  0  0
  145.2314  139.0462  157.9991 H   0  0  0  0  0  0  0  0  0  0  0  0
  143.6348  138.8205  157.2887 H   0  0  0  0  0  0  0  0  0  0  0  0
  144.4240  139.7729  155.1391 H   0  0  0  0  0  0  0  0  0  0  0  0
  146.1888  141.2894  155.9780 H   0  0  0  0  0  0  0  0  0  0  0  0
  147.1415  139.9336  156.5384 H   0  0  0  0  0  0  0  0  0  0  0  0
  148.4968  141.2099  153.3394 H   0  0  0  0  0  0  0  0  0  0  0  0
  148.0180  141.9820  154.8209 H   0  0  0  0  0  0  0  0  0  0  0  0
  149.2647  139.7809  155.8800 H   0  0  0  0  0  0  0  0  0  0  0  0
  149.7568  139.6533  153.3154 H   0  0  0  0  0  0  0  0  0  0  0  0
  151.0764  141.9691  154.8608 H   0  0  0  0  0  0  0  0  0  0  0  0
  149.7856  142.4169  155.9533 H   0  0  0  0  0  0  0  0  0  0  0  0
  151.7425  139.1806  156.1774 H   0  0  0  0  0  0  0  0  0  0  0  0
  153.3768  140.7798  160.5669 H   0  0  0  0  0  0  0  0  0  0  0  0
  150.5748  143.8128  157.7628 H   0  0  0  0  0  0  0  0  0  0  0  0
  147.7995  138.6364  153.1809 H   0  0  0  0  0  0  0  0  0  0  0  0
  148.1262  138.3946  154.8781 H   0  0  0  0  0  0  0  0  0  0  0  0
  146.4679  136.8081  154.2750 H   0  0  0  0  0  0  0  0  0  0  0  0
  145.6409  137.7350  152.1615 H   0  0  0  0  0  0  0  0  0  0  0  0
  144.7988  139.0285  152.9988 H   0  0  0  0  0  0  0  0  0  0  0  0
  144.2876  137.3565  153.2208 H   0  0  0  0  0  0  0  0  0  0  0  0
  1  2  1  0  0  0  0
  1 24  1  0  0  0  0
  1 25  1  0  0  0  0
  1 26  1  0  0  0  0
  2 23  1  0  0  0  0
  2  3  1  0  0  0  0
  2 27  1  0  0  0  0
  3  4  1  0  0  0  0
  3 28  1  0  0  0  0
  3 29  1  0  0  0  0
  4  5  1  0  0  0  0
  4 20  1  0  0  0  0
  5  6  1  0  0  0  0
  5 30  1  0  0  0  0
  5 31  1  0  0  0  0
  6  7  1  0  0  0  0
  6  8  1  0  0  0  0
  6 32  1  0  0  0  0
  7 33  1  0  0  0  0
  8  9  1  0  0  0  0
  8 34  1  0  0  0  0
  8 35  1  0  0  0  0
  9 19  1  0  0  0  0
  9 10  1  0  0  0  0
 10 11  2  0  0  0  0
 10 36  1  0  0  0  0
 11 12  1  0  0  0  0
 12 19  2  0  0  0  0
 12 13  1  0  0  0  0
 13 14  2  0  0  0  0
 13 37  1  0  0  0  0
 14 15  1  0  0  0  0
 14 16  1  0  0  0  0
 16 17  1  0  0  0  0
 16 18  2  0  0  0  0
 18 19  1  0  0  0  0
 18 38  1  0  0  0  0
 20 21  1  0  0  0  0
 20 39  1  0  0  0  0
 20 40  1  0  0  0  0
 21 22  1  0  0  0  0
 21 23  1  0  0  0  0
 21 41  1  0  0  0  0
 22 42  1  0  0  0  0
 22 43  1  0  0  0  0
 22 44  1  0  0  0  0
M  END
> <s_m_source_file>
AV-unprocessed.smi

> <i_m_source_file_index>
1824

> <i_lp_mmshare_version>
43012

> <i_f3d_flags>
0

> <s_epik_input>
W0NIM11bQ0BASF0xW0NIMl1OKFtDSDJdW0NASF0oTzEpW0NIM10pW0NIMl1bQ0BIXShbT0hdKVtDSDJdbihbY0hdbjIpYyhjMjMpW2NIXWMoRiljKEYpW2NIXTM=

> <s_epik_cmdline>
J2VwaWtfcHl0aG9uJywgJy1waCcsICc3LjAnLCAnLXRuJywgJzgnLCAnLW1hJywgJzIwMCcsICctbWV0YWxfYmluZGluZycsICctaW1hZScsICc8aW5maWxlLm1hZT4nLCAnLW9tYWUnLCAnPG91dGZpbGUubWFlPic=

> <r_epik_Ionization_Penalty>
0.273778

> <r_epik_Ionization_Penalty_Charging>
0

> <r_epik_Ionization_Penalty_Neutral>
0.273778

> <r_epik_State_Penalty>
0.246794

> <r_epik_Charging_Adjusted_Penalty>
0.246794

> <i_epik_Tot_Q>
0

> <i_epik_Tot_abs_Q>
0

> <r_epik_Metal_State_Penalty>
0.238234

> <b_epik_Metal_Only>
0

> <s_lp_Force_Field>
OPLS_2005

> <r_lp_Energy>
30.0542

> <b_lp_Chiralities_Consistent>
1

> <s_lp_Variant>
AV-unprocessed.smi:1824-6

> <Gold.Version>
5.8.1

> <Gold.Id.Protein>
6NUR|6NUR_protein|mol2

> <Gold.PLP.Fitness>
45.9672

> <Gold.PLP.PLP>
-39.3849

> <Gold.PLP.part.hbond>
-2.7472

> <Gold.PLP.part.metal>
0.0000

> <Gold.PLP.part.buried>
-3.1074

> <Gold.PLP.part.nonpolar>
-31.3418

> <Gold.PLP.part.repulsive>
0.1343

> <Gold.PLP.ligand.clash>
0.0000

> <Gold.PLP.ligand.torsion>
1.1791

> <Gold.PLP.Chemscore.Hbond>
2.9760

> <Gold.PLP.Chemscore.CHOScore>
0.0000

> <Gold.PLP.Chemscore.Metal>
0.0000

> <Gold.Chemscore.Hbonds>
donor molecule, donor type, donor heavy atom, donor atom, acceptor molecule, acceptor atom, score
      L1  H     7    33       P1  7957  0.57
      P1  H  7989  7998       L1     7  0.90
      P1  H  7997  8009       L1    11  0.13

> <Gold.PLP.Chemscore.Internal.Correction>
0.0126

> <Gold.Rescore>
     Score         DG    S(hbond)    S(metal)    S(lipo)     H(rot)  DE(clash)    DE(int)     intcor
     15.59     -17.00       2.13        0.00      87.12       2.26       0.26       1.15       ----

> <Gold.Chemscore.Fitness>
15.5918

> <Gold.Chemscore.DG>
-17.0042

> <Gold.Chemscore.ZeroCoef>
-5.4800

> <Gold.Chemscore.Hbond>
2.1324

> <Gold.Chemscore.Metal>
0.0000

> <Gold.Chemscore.Lipo>
87.1150

> <Gold.Chemscore.Internal_Hbond>
0.0000

> <Gold.Chemscore.DEClash>
0.2598

> <Gold.Chemscore.DEInternal>
1.1527

> <Gold.Chemscore.Rot>
2.2619

> <Gold.Chemscore.Internal.Correction>
   9.000000E+99

> <Gold.Chemscore.Hbonds>
donor molecule, donor type, donor heavy atom, donor atom, acceptor molecule, acceptor atom, score
      L1  H     7    33       P1  7957  0.56
      P1  H  7989  7998       L1     7  0.11

> <Gold.Chemscore.Hbond.Weighted>
-7.1222

> <Gold.Chemscore.Metal.Weighted>
-0.0000

> <Gold.Chemscore.Lipo.Weighted>
-10.1925

> <Gold.Chemscore.Internal_Hbond.Weighted>
0.0000

> <Gold.Chemscore.DEClash.Weighted>
0.2598

> <Gold.Chemscore.DEInternal.Weighted>
1.1527

> <Gold.Chemscore.Rot.Weighted>
5.7904

> <Gold.Chemscore.Internal.Correction.Weighted>
   9.000000E+99

> <Gold.Protein.RotatedTorsions>
[ 6907 6896 6895 6894 ] final  -42.66 input  -60.11 | X-H torsion
[ 7974 7965 7964 7962 ] final   48.05 input  175.53 | X-H torsion
[ 8008 7997 7996 7995 ] final  161.96 input   59.86 | X-H torsion
[ 10167 10162 10161 10158 ] final -117.64 input  -65.29 | X-H torsion
[ 10718 10713 10712 10709 ] final  -86.78 input   66.30 | X-H torsion
[ 10763 10752 10751 10750 ] final  105.80 input  -60.55 | X-H torsion
[ 11005 11000 10999 10996 ] final  138.80 input  -57.11 | X-H torsion

> <Gold.Protein.ActiveResidues>
 VAL166  LYS551  ARG553  GLY616  TRP617  ASP618  TYR619  PRO620  LYS621  CYS622 
 ASP623  PHE694  ASN695  SER759  ASP760  ASP761  ALA762  ILE779  LEU786  VAL792 
 PHE793  MET794  SER795  GLU796  ALA797  LYS798  CYS799  TRP800  GLU811  SER814 

> <Gold.Protein.RotatedAtoms>
  150.9527  134.8925  159.7681 H   0  0  0  0  0  0  0  0  0  0  0  0  # atno 6907 bound_to 6896
  152.5126  134.3784  159.9352 H   0  0  0  0  0  0  0  0  0  0  0  0  # atno 6908 bound_to 6896
  151.3799  133.3784  159.2743 H   0  0  0  0  0  0  0  0  0  0  0  0  # atno 6909 bound_to 6896
  146.0240  139.4685  142.9879 H   0  0  0  0  0  0  0  0  0  0  0  0  # atno 7974 bound_to 7965
  156.2066  140.1763  156.7787 H   0  0  0  0  0  0  0  0  0  0  0  0  # atno 8008 bound_to 7997
  154.5663  140.0690  156.8927 H   0  0  0  0  0  0  0  0  0  0  0  0  # atno 8009 bound_to 7997
  155.2754  140.3345  155.4264 H   0  0  0  0  0  0  0  0  0  0  0  0  # atno 8010 bound_to 7997
  140.0661  143.4921  152.2005 H   0  0  0  0  0  0  0  0  0  0  0  0  # atno 10167 bound_to 10162
  155.9988  130.4777  150.4766 H   0  0  0  0  0  0  0  0  0  0  0  0  # atno 10718 bound_to 10713
  153.3842  135.3898  155.1878 H   0  0  0  0  0  0  0  0  0  0  0  0  # atno 10763 bound_to 10752
  154.8711  135.3733  154.4818 H   0  0  0  0  0  0  0  0  0  0  0  0  # atno 10764 bound_to 10752
  153.5298  135.7086  153.5750 H   0  0  0  0  0  0  0  0  0  0  0  0  # atno 10765 bound_to 10752
  140.0209  134.9397  157.0473 H   0  0  0  0  0  0  0  0  0  0  0  0  # atno 11005 bound_to 11000
  145.7147  141.0094  143.1434 LP  0  0  0  0  0  0  0  0  0  0  0  0  # atno 17320 bound_to 7965
  144.7002  139.8799  143.7446 LP  0  0  0  0  0  0  0  0  0  0  0  0  # atno 17321 bound_to 7965
  139.5864  144.7533  151.3509 LP  0  0  0  0  0  0  0  0  0  0  0  0  # atno 17342 bound_to 10162
  140.7148  143.7294  150.7635 LP  0  0  0  0  0  0  0  0  0  0  0  0  # atno 17343 bound_to 10162
  157.2776  131.0600  151.2219 LP  0  0  0  0  0  0  0  0  0  0  0  0  # atno 17370 bound_to 10713
  157.3277  130.6969  149.6306 LP  0  0  0  0  0  0  0  0  0  0  0  0  # atno 17371 bound_to 10713
  140.4388  134.1703  155.7172 LP  0  0  0  0  0  0  0  0  0  0  0  0  # atno 17394 bound_to 11000
  141.1773  133.8487  157.1377 LP  0  0  0  0  0  0  0  0  0  0  0  0  # atno 17395 bound_to 11000

$$$$
