AV-unprocessed.smi:1389|AV-procd|sdf|5648|dock5
  -GOLD-   22720 5263D 1   1.00000     0.00000
 Structure written by MMmdl.
 52 54  0  0  0  0  0  0  0  0  2 V2000
  152.5010  144.9432  157.9898 C   0  0  0  0  0  0  0  0  0  0  0  0
  151.1853  144.2482  158.4177 C   0  0  2  0  0  0  0  0  0  0  0  0
  150.6077  144.9339  159.6835 C   0  0  0  0  0  0  0  0  0  0  0  0
  149.1608  145.1163  159.6228 N   0  0  0  0  0  0  0  0  0  0  0  0
  148.2851  144.5804  160.4839 C   0  0  0  0  0  0  0  0  0  0  0  0
  148.6170  143.8712  161.4336 O   0  0  0  0  0  0  0  0  0  0  0  0
  147.0259  144.9303  160.1735 N   0  0  0  0  0  0  0  0  0  0  0  0
  145.8261  144.6496  160.8872 C   0  0  0  0  0  0  0  0  0  0  0  0
  145.8060  143.7756  162.0020 C   0  0  0  0  0  0  0  0  0  0  0  0
  144.5820  143.4840  162.6283 C   0  0  0  0  0  0  0  0  0  0  0  0
  143.4139  144.0646  162.1079 C   0  0  0  0  0  0  0  0  0  0  0  0
  143.4134  144.8860  161.0394 N   0  0  0  0  0  0  0  0  0  0  0  0
  144.5877  145.1886  160.4330 C   0  0  0  0  0  0  0  0  0  0  0  0
  144.5275  146.0664  159.3263 N   0  0  0  0  0  0  0  0  0  0  0  0
  144.8087  145.5802  157.9799 C   0  0  0  0  0  0  0  0  0  0  0  0
  144.2843  146.6708  157.0508 C   0  0  0  0  0  0  0  0  0  0  0  0
  143.0449  147.1623  157.7926 C   0  0  0  0  0  0  0  0  0  0  0  0
  143.4260  147.0233  159.2706 C   0  0  0  0  0  0  0  0  0  0  0  0
  151.3340  142.7746  158.6529 N   0  3  0  0  0  0  0  0  0  0  0  0
  151.2751  141.9882  157.3907 C   0  0  0  0  0  0  0  0  0  0  0  0
  151.3268  140.4787  157.6769 C   0  0  0  0  0  0  0  0  0  0  0  0
  152.5154  140.1740  158.3916 O   0  0  0  0  0  0  0  0  0  0  0  0
  152.5523  140.8358  159.6474 C   0  0  0  0  0  0  0  0  0  0  0  0
  152.5290  142.3603  159.4389 C   0  0  0  0  0  0  0  0  0  0  0  0
  152.3639  146.0151  157.8483 H   0  0  0  0  0  0  0  0  0  0  0  0
  152.8714  144.5674  157.0360 H   0  0  0  0  0  0  0  0  0  0  0  0
  153.2835  144.8111  158.7378 H   0  0  0  0  0  0  0  0  0  0  0  0
  150.4815  144.3789  157.5937 H   0  0  0  0  0  0  0  0  0  0  0  0
  150.8423  144.3804  160.5921 H   0  0  0  0  0  0  0  0  0  0  0  0
  151.0622  145.9175  159.8077 H   0  0  0  0  0  0  0  0  0  0  0  0
  148.8024  145.6902  158.8733 H   0  0  0  0  0  0  0  0  0  0  0  0
  146.9229  145.5749  159.4032 H   0  0  0  0  0  0  0  0  0  0  0  0
  146.7026  143.3048  162.3740 H   0  0  0  0  0  0  0  0  0  0  0  0
  144.5390  142.8207  163.4795 H   0  0  0  0  0  0  0  0  0  0  0  0
  142.4532  143.8600  162.5568 H   0  0  0  0  0  0  0  0  0  0  0  0
  145.8746  145.4016  157.8358 H   0  0  0  0  0  0  0  0  0  0  0  0
  144.2744  144.6497  157.7840 H   0  0  0  0  0  0  0  0  0  0  0  0
  145.0149  147.4771  156.9702 H   0  0  0  0  0  0  0  0  0  0  0  0
  144.0670  146.3054  156.0467 H   0  0  0  0  0  0  0  0  0  0  0  0
  142.7620  148.1798  157.5222 H   0  0  0  0  0  0  0  0  0  0  0  0
  142.2013  146.5080  157.5677 H   0  0  0  0  0  0  0  0  0  0  0  0
  142.5738  146.7053  159.8734 H   0  0  0  0  0  0  0  0  0  0  0  0
  143.7737  147.9825  159.6546 H   0  0  0  0  0  0  0  0  0  0  0  0
  150.3662  142.2042  156.8323 H   0  0  0  0  0  0  0  0  0  0  0  0
  152.1115  142.2684  156.7480 H   0  0  0  0  0  0  0  0  0  0  0  0
  150.4500  140.1563  158.2413 H   0  0  0  0  0  0  0  0  0  0  0  0
  151.3259  139.9191  156.7413 H   0  0  0  0  0  0  0  0  0  0  0  0
  151.7123  140.5144  160.2655 H   0  0  0  0  0  0  0  0  0  0  0  0
  153.4617  140.5435  160.1727 H   0  0  0  0  0  0  0  0  0  0  0  0
  153.4365  142.6830  158.9259 H   0  0  0  0  0  0  0  0  0  0  0  0
  152.5258  142.8236  160.4251 H   0  0  0  0  0  0  0  0  0  0  0  0
  150.5365  142.4982  159.2075 H   0  0  0  0  0  0  0  0  0  0  0  0
  1  2  1  0  0  0  0
  1 25  1  0  0  0  0
  1 26  1  0  0  0  0
  1 27  1  0  0  0  0
  2  3  1  0  0  0  0
  2 19  1  0  0  0  0
  2 28  1  0  0  0  0
  3  4  1  0  0  0  0
  3 29  1  0  0  0  0
  3 30  1  0  0  0  0
  4  5  1  0  0  0  0
  4 31  1  0  0  0  0
  5  6  2  0  0  0  0
  5  7  1  0  0  0  0
  7  8  1  0  0  0  0
  7 32  1  0  0  0  0
  8 13  1  0  0  0  0
  8  9  2  0  0  0  0
  9 10  1  0  0  0  0
  9 33  1  0  0  0  0
 10 11  2  0  0  0  0
 10 34  1  0  0  0  0
 11 12  1  0  0  0  0
 11 35  1  0  0  0  0
 12 13  2  0  0  0  0
 13 14  1  0  0  0  0
 14 18  1  0  0  0  0
 14 15  1  0  0  0  0
 15 16  1  0  0  0  0
 15 36  1  0  0  0  0
 15 37  1  0  0  0  0
 16 17  1  0  0  0  0
 16 38  1  0  0  0  0
 16 39  1  0  0  0  0
 17 18  1  0  0  0  0
 17 40  1  0  0  0  0
 17 41  1  0  0  0  0
 18 42  1  0  0  0  0
 18 43  1  0  0  0  0
 19 24  1  0  0  0  0
 19 20  1  0  0  0  0
 19 52  1  0  0  0  0
 20 21  1  0  0  0  0
 20 44  1  0  0  0  0
 20 45  1  0  0  0  0
 21 22  1  0  0  0  0
 21 46  1  0  0  0  0
 21 47  1  0  0  0  0
 22 23  1  0  0  0  0
 23 24  1  0  0  0  0
 23 48  1  0  0  0  0
 23 49  1  0  0  0  0
 24 50  1  0  0  0  0
 24 51  1  0  0  0  0
M  CHG  1  19   1
M  END
> <s_m_source_file>
AV-unprocessed.smi

> <i_m_source_file_index>
1389

> <i_lp_mmshare_version>
43012

> <i_f3d_flags>
0

> <s_epik_input>
W0NIMl0xW0NIMl1PW0NIMl1bQ0gyXU4xW0NASF0oW0NIM10pW0NIMl1bTkhdQyg9TylbTkhdYzJbY0hdW2NIXVtjSF1uYzJOM1tDSDJdW0NIMl1bQ0gyXVtDSDJdMw==

> <s_epik_cmdline>
J2VwaWtfcHl0aG9uJywgJy1waCcsICc3LjAnLCAnLXRuJywgJzgnLCAnLW1hJywgJzIwMCcsICctbWV0YWxfYmluZGluZycsICctaW1hZScsICc8aW5maWxlLm1hZT4nLCAnLW9tYWUnLCAnPG91dGZpbGUubWFlPic=

> <r_lp_tautomer_probability>
1

> <r_epik_Ionization_Penalty>
0.686

> <r_epik_Ionization_Penalty_Charging>
0.602531

> <r_epik_Ionization_Penalty_Neutral>
0.08347

> <r_epik_State_Penalty>
0.679975

> <r_epik_Charging_Adjusted_Penalty>
1.28251

> <i_epik_Tot_Q>
1

> <i_epik_Tot_abs_Q>
1

> <r_epik_Metal_State_Penalty>
0.679055

> <b_epik_Metal_Only>
0

> <s_lp_Force_Field>
OPLS_2005

> <r_lp_Energy>
48.7477

> <b_lp_Chiralities_Consistent>
1

> <s_lp_Variant>
AV-unprocessed.smi:1389-3

> <Gold.Version>
5.8.1

> <Gold.Id.Protein>
6NUR|6NUR_protein|mol2

> <Gold.PLP.Fitness>
52.4119

> <Gold.PLP.PLP>
-46.8603

> <Gold.PLP.part.hbond>
-3.0000

> <Gold.PLP.part.metal>
0.0000

> <Gold.PLP.part.buried>
-8.9409

> <Gold.PLP.part.nonpolar>
-35.2932

> <Gold.PLP.part.repulsive>
0.7499

> <Gold.PLP.ligand.clash>
0.0000

> <Gold.PLP.ligand.torsion>
1.4025

> <Gold.PLP.Chemscore.Hbond>
2.6612

> <Gold.PLP.Chemscore.CHOScore>
0.0000

> <Gold.PLP.Chemscore.Metal>
0.0000

> <Gold.Chemscore.Hbonds>
donor molecule, donor type, donor heavy atom, donor atom, acceptor molecule, acceptor atom, score
      L1  H     4    31       P1  8029  1.00
      L1  H     7    32       P1  8029  0.17
      P1  H  6933  6944       L1     6  0.70

> <Gold.PLP.Chemscore.Internal.Correction>
0.3730

> <Gold.Rescore>
     Score         DG    S(hbond)    S(metal)    S(lipo)     H(rot)  DE(clash)    DE(int)     intcor
     18.85     -22.31       2.72        0.00     101.90       1.63       0.10       3.36       ----

> <Gold.Chemscore.Fitness>
18.8503

> <Gold.Chemscore.DG>
-22.3103

> <Gold.Chemscore.ZeroCoef>
-5.4800

> <Gold.Chemscore.Hbond>
2.7193

> <Gold.Chemscore.Metal>
0.0000

> <Gold.Chemscore.Lipo>
101.8991

> <Gold.Chemscore.Internal_Hbond>
0.0000

> <Gold.Chemscore.DEClash>
0.0978

> <Gold.Chemscore.DEInternal>
3.3622

> <Gold.Chemscore.Rot>
1.6307

> <Gold.Chemscore.Internal.Correction>
   9.000000E+99

> <Gold.Chemscore.Hbonds>
donor molecule, donor type, donor heavy atom, donor atom, acceptor molecule, acceptor atom, score
      L1  H     4    31       P1  8029  0.98
      L1  H     7    32       P1  8029  0.18
      P1  H  6933  6944       L1     6  0.66

> <Gold.Chemscore.Hbond.Weighted>
-9.0826

> <Gold.Chemscore.Metal.Weighted>
-0.0000

> <Gold.Chemscore.Lipo.Weighted>
-11.9222

> <Gold.Chemscore.Internal_Hbond.Weighted>
0.0000

> <Gold.Chemscore.DEClash.Weighted>
0.0978

> <Gold.Chemscore.DEInternal.Weighted>
3.3622

> <Gold.Chemscore.Rot.Weighted>
4.1746

> <Gold.Chemscore.Internal.Correction.Weighted>
   9.000000E+99

> <Gold.Protein.RotatedTorsions>
[ 6907 6896 6895 6894 ] final   26.04 input  -60.11 | X-H torsion
[ 7974 7965 7964 7962 ] final -113.32 input  175.53 | X-H torsion
[ 8008 7997 7996 7995 ] final   -0.07 input   59.86 | X-H torsion
[ 10167 10162 10161 10158 ] final   50.03 input  -65.29 | X-H torsion
[ 10718 10713 10712 10709 ] final -102.10 input   66.30 | X-H torsion
[ 10763 10752 10751 10750 ] final -101.72 input  -60.55 | X-H torsion
[ 11005 11000 10999 10996 ] final   90.13 input  -57.11 | X-H torsion

> <Gold.Protein.ActiveResidues>
 VAL166  LYS551  ARG553  GLY616  TRP617  ASP618  TYR619  PRO620  LYS621  CYS622 
 ASP623  PHE694  ASN695  SER759  ASP760  ASP761  ALA762  ILE779  LEU786  VAL792 
 PHE793  MET794  SER795  GLU796  ALA797  LYS798  CYS799  TRP800  GLU811  SER814 

> <Gold.Protein.RotatedAtoms>
  151.9816  135.0026  160.0557 H   0  0  0  0  0  0  0  0  0  0  0  0  # atno 6907 bound_to 6896
  152.1691  133.4627  159.4908 H   0  0  0  0  0  0  0  0  0  0  0  0  # atno 6908 bound_to 6896
  150.6899  134.1893  159.4322 H   0  0  0  0  0  0  0  0  0  0  0  0  # atno 6909 bound_to 6896
  145.1335  140.8738  143.3744 H   0  0  0  0  0  0  0  0  0  0  0  0  # atno 7974 bound_to 7965
  154.6623  140.2593  155.7096 H   0  0  0  0  0  0  0  0  0  0  0  0  # atno 8008 bound_to 7997
  156.2623  140.2846  156.1021 H   0  0  0  0  0  0  0  0  0  0  0  0  # atno 8009 bound_to 7997
  155.1290  140.0378  157.2760 H   0  0  0  0  0  0  0  0  0  0  0  0  # atno 8010 bound_to 7997
  140.2767  144.3203  150.6275 H   0  0  0  0  0  0  0  0  0  0  0  0  # atno 10167 bound_to 10162
  156.0217  130.5404  150.7059 H   0  0  0  0  0  0  0  0  0  0  0  0  # atno 10718 bound_to 10713
  154.7679  135.4887  153.9591 H   0  0  0  0  0  0  0  0  0  0  0  0  # atno 10763 bound_to 10752
  153.1331  135.6757  153.9154 H   0  0  0  0  0  0  0  0  0  0  0  0  # atno 10764 bound_to 10752
  153.8852  135.3127  155.3425 H   0  0  0  0  0  0  0  0  0  0  0  0  # atno 10765 bound_to 10752
  139.8862  134.8594  156.3241 H   0  0  0  0  0  0  0  0  0  0  0  0  # atno 11005 bound_to 11000
  145.0610  139.3106  143.5880 LP  0  0  0  0  0  0  0  0  0  0  0  0  # atno 17320 bound_to 7965
  146.3512  140.0052  142.8672 LP  0  0  0  0  0  0  0  0  0  0  0  0  # atno 17321 bound_to 7965
  140.5845  143.2171  151.7367 LP  0  0  0  0  0  0  0  0  0  0  0  0  # atno 17342 bound_to 10162
  139.4974  144.4031  152.0160 LP  0  0  0  0  0  0  0  0  0  0  0  0  # atno 17343 bound_to 10162
  157.4708  131.0893  151.0644 LP  0  0  0  0  0  0  0  0  0  0  0  0  # atno 17370 bound_to 10713
  157.1105  130.6019  149.5481 LP  0  0  0  0  0  0  0  0  0  0  0  0  # atno 17371 bound_to 10713
  140.9767  133.7293  156.0613 LP  0  0  0  0  0  0  0  0  0  0  0  0  # atno 17394 bound_to 11000
  140.7802  134.3734  157.5489 LP  0  0  0  0  0  0  0  0  0  0  0  0  # atno 17395 bound_to 11000

$$$$
