AV-unprocessed.smi:1642|AV-procd|sdf|6570|dock2
  -GOLD-   22720 7253D 1   1.00000     0.00000
 Structure written by MMmdl.
 35 36  0  0  0  0  0  0  0  0  2 V2000
  151.1052  142.3204  156.6731 C   0  0  0  0  0  0  0  0  0  0  0  0
  150.7621  141.2326  155.7134 C   0  0  0  0  0  0  0  0  0  0  0  0
  151.6658  140.3568  155.2573 N   0  0  0  0  0  0  0  0  0  0  0  0
  151.1108  139.4380  154.3778 N   0  0  0  0  0  0  0  0  0  0  0  0
  149.7997  139.6480  154.1971 C   0  0  0  0  0  0  0  0  0  0  0  0
  148.9832  138.8541  153.3481 N   0  0  0  0  0  0  0  0  0  0  0  0
  147.6819  139.0205  153.0519 C   0  0  0  0  0  0  0  0  0  0  0  0
  146.9606  139.9198  153.4842 O   0  0  0  0  0  0  0  0  0  0  0  0
  147.2462  138.0720  152.2115 N   0  0  0  0  0  0  0  0  0  0  0  0
  145.8793  137.9917  151.7148 C   0  0  0  0  0  0  0  0  0  0  0  0
  145.2670  136.6159  152.0178 C   0  0  0  0  0  0  0  0  0  0  0  0
  146.3056  135.5674  152.1476 N   0  3  0  0  0  0  0  0  0  0  0  0
  146.4544  134.9867  153.5046 C   0  0  0  0  0  0  0  0  0  0  0  0
  146.6354  133.4729  153.3252 C   0  0  0  0  0  0  0  0  0  0  0  0
  146.9237  133.2914  151.8383 C   0  0  0  0  0  0  0  0  0  0  0  0
  146.1559  134.4443  151.2010 C   0  0  0  0  0  0  0  0  0  0  0  0
  149.1307  140.9985  155.0972 S   0  0  0  0  0  0  0  0  0  0  0  0
  152.1820  142.4927  156.6890 H   0  0  0  0  0  0  0  0  0  0  0  0
  150.7789  142.0472  157.6765 H   0  0  0  0  0  0  0  0  0  0  0  0
  150.6090  143.2465  156.3825 H   0  0  0  0  0  0  0  0  0  0  0  0
  149.4458  138.0671  152.9177 H   0  0  0  0  0  0  0  0  0  0  0  0
  147.8977  137.3668  151.8991 H   0  0  0  0  0  0  0  0  0  0  0  0
  145.2804  138.7772  152.1789 H   0  0  0  0  0  0  0  0  0  0  0  0
  145.8830  138.1819  150.6404 H   0  0  0  0  0  0  0  0  0  0  0  0
  144.6630  136.6521  152.9260 H   0  0  0  0  0  0  0  0  0  0  0  0
  144.5945  136.3398  151.2040 H   0  0  0  0  0  0  0  0  0  0  0  0
  147.3250  135.4342  153.9853 H   0  0  0  0  0  0  0  0  0  0  0  0
  145.5875  135.1911  154.1352 H   0  0  0  0  0  0  0  0  0  0  0  0
  147.4247  133.0651  153.9575 H   0  0  0  0  0  0  0  0  0  0  0  0
  145.7076  132.9602  153.5821 H   0  0  0  0  0  0  0  0  0  0  0  0
  147.9920  133.4066  151.6495 H   0  0  0  0  0  0  0  0  0  0  0  0
  146.6166  132.3155  151.4610 H   0  0  0  0  0  0  0  0  0  0  0  0
  145.1017  134.1760  151.1090 H   0  0  0  0  0  0  0  0  0  0  0  0
  146.5289  134.7001  150.2088 H   0  0  0  0  0  0  0  0  0  0  0  0
  147.1930  135.9961  151.9256 H   0  0  0  0  0  0  0  0  0  0  0  0
  1  2  1  0  0  0  0
  1 18  1  0  0  0  0
  1 19  1  0  0  0  0
  1 20  1  0  0  0  0
  2 17  1  0  0  0  0
  2  3  2  0  0  0  0
  3  4  1  0  0  0  0
  4  5  2  0  0  0  0
  5  6  1  0  0  0  0
  5 17  1  0  0  0  0
  6  7  1  0  0  0  0
  6 21  1  0  0  0  0
  7  8  2  0  0  0  0
  7  9  1  0  0  0  0
  9 10  1  0  0  0  0
  9 22  1  0  0  0  0
 10 11  1  0  0  0  0
 10 23  1  0  0  0  0
 10 24  1  0  0  0  0
 11 12  1  0  0  0  0
 11 25  1  0  0  0  0
 11 26  1  0  0  0  0
 12 16  1  0  0  0  0
 12 13  1  0  0  0  0
 12 35  1  0  0  0  0
 13 14  1  0  0  0  0
 13 27  1  0  0  0  0
 13 28  1  0  0  0  0
 14 15  1  0  0  0  0
 14 29  1  0  0  0  0
 14 30  1  0  0  0  0
 15 16  1  0  0  0  0
 15 31  1  0  0  0  0
 15 32  1  0  0  0  0
 16 33  1  0  0  0  0
 16 34  1  0  0  0  0
M  CHG  1  12   1
M  END
> <s_m_source_file>
AV-unprocessed.smi

> <i_m_source_file_index>
1642

> <i_lp_mmshare_version>
43012

> <i_f3d_flags>
0

> <s_epik_input>
W0NIM11jMW5uYyhzMSlbTkhdQyg9TylbTkhdW0NIMl1bQ0gyXU4yW0NIMl1bQ0gyXVtDSDJdW0NIMl0y

> <s_epik_cmdline>
J2VwaWtfcHl0aG9uJywgJy1waCcsICc3LjAnLCAnLXRuJywgJzgnLCAnLW1hJywgJzIwMCcsICctbWV0YWxfYmluZGluZycsICctaW1hZScsICc8aW5maWxlLm1hZT4nLCAnLW9tYWUnLCAnPG91dGZpbGUubWFlPic=

> <r_lp_tautomer_probability>
1

> <r_epik_Ionization_Penalty>
0.00661496

> <r_epik_Ionization_Penalty_Charging>
0.0023443

> <r_epik_Ionization_Penalty_Neutral>
0.00427066

> <r_epik_State_Penalty>
0.00184107

> <r_epik_Charging_Adjusted_Penalty>
0.00418537

> <i_epik_Tot_Q>
1

> <i_epik_Tot_abs_Q>
1

> <r_epik_Metal_State_Penalty>
0.375387

> <b_epik_Metal_Only>
0

> <s_lp_Force_Field>
OPLS_2005

> <r_lp_Energy>
26.1101

> <b_lp_Chiralities_Consistent>
1

> <s_lp_Variant>
AV-unprocessed.smi:1642-1

> <Gold.Version>
5.8.1

> <Gold.Id.Protein>
6NUR|6NUR_protein|mol2

> <Gold.PLP.Fitness>
37.4055

> <Gold.PLP.PLP>
-28.5204

> <Gold.PLP.part.hbond>
-6.2452

> <Gold.PLP.part.metal>
0.0000

> <Gold.PLP.part.buried>
0.0885

> <Gold.PLP.part.nonpolar>
-22.8377

> <Gold.PLP.part.repulsive>
0.4980

> <Gold.PLP.ligand.clash>
0.0000

> <Gold.PLP.ligand.torsion>
0.9794

> <Gold.PLP.Chemscore.Hbond>
3.6100

> <Gold.PLP.Chemscore.CHOScore>
0.0000

> <Gold.PLP.Chemscore.Metal>
0.0000

> <Gold.Chemscore.Hbonds>
donor molecule, donor type, donor heavy atom, donor atom, acceptor molecule, acceptor atom, score
      L1  H     6    21       P1  7948  0.61
      L1  H     9    22       P1  7948  0.99
      L1  H    12    35       P1  7948  2.00

> <Gold.PLP.Chemscore.Internal.Correction>
0.0140

> <Gold.Rescore>
     Score         DG    S(hbond)    S(metal)    S(lipo)     H(rot)  DE(clash)    DE(int)     intcor
     13.84     -16.21       2.81        0.00      47.21       1.63       0.14       2.23       ----

> <Gold.Chemscore.Fitness>
13.8405

> <Gold.Chemscore.DG>
-16.2073

> <Gold.Chemscore.ZeroCoef>
-5.4800

> <Gold.Chemscore.Hbond>
2.8070

> <Gold.Chemscore.Metal>
0.0000

> <Gold.Chemscore.Lipo>
47.2126

> <Gold.Chemscore.Internal_Hbond>
0.0000

> <Gold.Chemscore.DEClash>
0.1410

> <Gold.Chemscore.DEInternal>
2.2258

> <Gold.Chemscore.Rot>
1.6297

> <Gold.Chemscore.Internal.Correction>
   9.000000E+99

> <Gold.Chemscore.Hbonds>
donor molecule, donor type, donor heavy atom, donor atom, acceptor molecule, acceptor atom, score
      L1  H     6    21       P1  7948  0.52
      L1  H     9    22       P1  7948  0.92
      L1  H    12    35       P1  7948  0.99

> <Gold.Chemscore.Hbond.Weighted>
-9.3754

> <Gold.Chemscore.Metal.Weighted>
-0.0000

> <Gold.Chemscore.Lipo.Weighted>
-5.5239

> <Gold.Chemscore.Internal_Hbond.Weighted>
0.0000

> <Gold.Chemscore.DEClash.Weighted>
0.1410

> <Gold.Chemscore.DEInternal.Weighted>
2.2258

> <Gold.Chemscore.Rot.Weighted>
4.1720

> <Gold.Chemscore.Internal.Correction.Weighted>
   9.000000E+99

> <Gold.Protein.RotatedTorsions>
[ 6907 6896 6895 6894 ] final -159.84 input  -60.11 | X-H torsion
[ 7974 7965 7964 7962 ] final  149.18 input  175.53 | X-H torsion
[ 8008 7997 7996 7995 ] final  -49.86 input   59.86 | X-H torsion
[ 10167 10162 10161 10158 ] final  132.54 input  -65.29 | X-H torsion
[ 10718 10713 10712 10709 ] final   43.36 input   66.30 | X-H torsion
[ 10763 10752 10751 10750 ] final   23.80 input  -60.55 | X-H torsion
[ 11005 11000 10999 10996 ] final -109.09 input  -57.11 | X-H torsion

> <Gold.Protein.ActiveResidues>
 VAL166  LYS551  ARG553  GLY616  TRP617  ASP618  TYR619  PRO620  LYS621  CYS622 
 ASP623  PHE694  ASN695  SER759  ASP760  ASP761  ALA762  ILE779  LEU786  VAL792 
 PHE793  MET794  SER795  GLU796  ALA797  LYS798  CYS799  TRP800  GLU811  SER814 

> <Gold.Protein.RotatedAtoms>
  151.3399  133.3967  159.2669 H   0  0  0  0  0  0  0  0  0  0  0  0  # atno 6907 bound_to 6896
  150.9887  134.9227  159.7897 H   0  0  0  0  0  0  0  0  0  0  0  0  # atno 6908 bound_to 6896
  152.5240  134.3363  159.9253 H   0  0  0  0  0  0  0  0  0  0  0  0  # atno 6909 bound_to 6896
  144.8457  139.6248  143.5996 H   0  0  0  0  0  0  0  0  0  0  0  0  # atno 7974 bound_to 7965
  154.4051  140.1286  156.4571 H   0  0  0  0  0  0  0  0  0  0  0  0  # atno 8008 bound_to 7997
  155.7309  140.3491  155.5039 H   0  0  0  0  0  0  0  0  0  0  0  0  # atno 8009 bound_to 7997
  155.9128  140.1039  157.1256 H   0  0  0  0  0  0  0  0  0  0  0  0  # atno 8010 bound_to 7997
  139.5335  144.6657  151.4866 H   0  0  0  0  0  0  0  0  0  0  0  0  # atno 10167 bound_to 10162
  157.4151  130.7936  149.7465 H   0  0  0  0  0  0  0  0  0  0  0  0  # atno 10718 bound_to 10713
  153.0811  135.6619  154.0044 H   0  0  0  0  0  0  0  0  0  0  0  0  # atno 10763 bound_to 10752
  153.9665  135.2969  155.3431 H   0  0  0  0  0  0  0  0  0  0  0  0  # atno 10764 bound_to 10752
  154.7210  135.5164  153.8884 H   0  0  0  0  0  0  0  0  0  0  0  0  # atno 10765 bound_to 10752
  141.0866  133.9127  157.2170 H   0  0  0  0  0  0  0  0  0  0  0  0  # atno 11005 bound_to 11000
  146.2742  139.6711  142.9275 LP  0  0  0  0  0  0  0  0  0  0  0  0  # atno 17320 bound_to 7965
  145.4602  141.0432  143.2756 LP  0  0  0  0  0  0  0  0  0  0  0  0  # atno 17321 bound_to 7965
  140.6528  143.8661  150.6803 LP  0  0  0  0  0  0  0  0  0  0  0  0  # atno 17342 bound_to 10162
  140.2031  143.3943  152.1776 LP  0  0  0  0  0  0  0  0  0  0  0  0  # atno 17343 bound_to 10162
  155.9862  130.3976  150.3222 LP  0  0  0  0  0  0  0  0  0  0  0  0  # atno 17370 bound_to 10713
  157.1364  131.0285  151.2947 LP  0  0  0  0  0  0  0  0  0  0  0  0  # atno 17371 bound_to 10713
  139.9686  135.0135  156.9452 LP  0  0  0  0  0  0  0  0  0  0  0  0  # atno 17394 bound_to 11000
  140.5348  134.0778  155.7325 LP  0  0  0  0  0  0  0  0  0  0  0  0  # atno 17395 bound_to 11000

$$$$
