AV-unprocessed.smi:3268|AV-procd|sdf|12509|dock9
  -GOLD-   2272018413D 1   1.00000     0.00000
 Structure written by MMmdl.
 40 41  0  0  0  0  0  0  0  0  2 V2000
  151.6149  136.0956  156.9914 C   0  0  0  0  0  0  0  0  0  0  0  0
  151.0112  136.1565  155.5733 C   0  0  1  0  0  0  0  0  0  0  0  0
  149.7012  135.3593  155.4423 C   0  0  0  0  0  0  0  0  0  0  0  0
  148.7534  135.5723  156.1997 O   0  0  0  0  0  0  0  0  0  0  0  0
  149.6609  134.4302  154.4732 N   0  0  0  0  0  0  0  0  0  0  0  0
  148.5036  133.5995  154.1629 C   0  0  0  0  0  0  0  0  0  0  0  0
  148.8743  132.4403  153.2176 C   0  0  0  0  0  0  0  0  0  0  0  0
  147.7195  131.9731  152.4090 N   0  3  0  0  0  0  0  0  0  0  0  0
  146.9537  133.1044  151.8222 C   0  0  0  0  0  0  0  0  0  0  0  0
  145.8520  132.6013  150.8742 C   0  0  0  0  0  0  0  0  0  0  0  0
  144.9131  131.6232  151.5916 C   0  0  0  0  0  0  0  0  0  0  0  0
  145.7260  130.4829  152.2172 C   0  0  0  0  0  0  0  0  0  0  0  0
  146.8275  131.0322  153.1395 C   0  0  0  0  0  0  0  0  0  0  0  0
  150.8239  137.5322  155.1274 N   0  0  0  0  0  0  0  0  0  0  0  0
  151.6845  138.5521  155.1030 C   0  0  0  0  0  0  0  0  0  0  0  0
  151.1827  139.6685  154.5944 N   0  0  0  0  0  0  0  0  0  0  0  0
  149.9198  139.2381  154.3012 C   0  0  0  0  0  0  0  0  0  0  0  0
  149.6549  137.9646  154.5921 N   0  0  0  0  0  0  0  0  0  0  0  0
  151.8249  135.0674  157.2879 H   0  0  0  0  0  0  0  0  0  0  0  0
  150.9465  136.5256  157.7386 H   0  0  0  0  0  0  0  0  0  0  0  0
  152.5554  136.6455  157.0365 H   0  0  0  0  0  0  0  0  0  0  0  0
  151.7307  135.6947  154.8952 H   0  0  0  0  0  0  0  0  0  0  0  0
  150.4796  134.3120  153.8940 H   0  0  0  0  0  0  0  0  0  0  0  0
  148.0619  133.2160  155.0843 H   0  0  0  0  0  0  0  0  0  0  0  0
  147.7571  134.2495  153.7085 H   0  0  0  0  0  0  0  0  0  0  0  0
  149.6969  132.7242  152.5594 H   0  0  0  0  0  0  0  0  0  0  0  0
  149.2376  131.6083  153.8228 H   0  0  0  0  0  0  0  0  0  0  0  0
  146.5170  133.7033  152.6231 H   0  0  0  0  0  0  0  0  0  0  0  0
  147.6270  133.7596  151.2677 H   0  0  0  0  0  0  0  0  0  0  0  0
  145.2822  133.4449  150.4830 H   0  0  0  0  0  0  0  0  0  0  0  0
  146.3063  132.1088  150.0135 H   0  0  0  0  0  0  0  0  0  0  0  0
  144.3553  132.1484  152.3680 H   0  0  0  0  0  0  0  0  0  0  0  0
  144.1774  131.2236  150.8929 H   0  0  0  0  0  0  0  0  0  0  0  0
  145.0663  129.8196  152.7774 H   0  0  0  0  0  0  0  0  0  0  0  0
  146.1761  129.8778  151.4290 H   0  0  0  0  0  0  0  0  0  0  0  0
  147.3984  130.1942  153.5368 H   0  0  0  0  0  0  0  0  0  0  0  0
  146.3806  131.5425  153.9942 H   0  0  0  0  0  0  0  0  0  0  0  0
  152.7007  138.4757  155.4611 H   0  0  0  0  0  0  0  0  0  0  0  0
  149.1758  139.8811  153.8546 H   0  0  0  0  0  0  0  0  0  0  0  0
  148.1076  131.4641  151.6275 H   0  0  0  0  0  0  0  0  0  0  0  0
  1  2  1  0  0  0  0
  1 19  1  0  0  0  0
  1 20  1  0  0  0  0
  1 21  1  0  0  0  0
  2  3  1  0  0  0  0
  2 14  1  0  0  0  0
  2 22  1  0  0  0  0
  3  4  2  0  0  0  0
  3  5  1  0  0  0  0
  5  6  1  0  0  0  0
  5 23  1  0  0  0  0
  6  7  1  0  0  0  0
  6 24  1  0  0  0  0
  6 25  1  0  0  0  0
  7  8  1  0  0  0  0
  7 26  1  0  0  0  0
  7 27  1  0  0  0  0
  8 13  1  0  0  0  0
  8  9  1  0  0  0  0
  8 40  1  0  0  0  0
  9 10  1  0  0  0  0
  9 28  1  0  0  0  0
  9 29  1  0  0  0  0
 10 11  1  0  0  0  0
 10 30  1  0  0  0  0
 10 31  1  0  0  0  0
 11 12  1  0  0  0  0
 11 32  1  0  0  0  0
 11 33  1  0  0  0  0
 12 13  1  0  0  0  0
 12 34  1  0  0  0  0
 12 35  1  0  0  0  0
 13 36  1  0  0  0  0
 13 37  1  0  0  0  0
 14 18  1  0  0  0  0
 14 15  1  0  0  0  0
 15 16  2  0  0  0  0
 15 38  1  0  0  0  0
 16 17  1  0  0  0  0
 17 18  2  0  0  0  0
 17 39  1  0  0  0  0
M  CHG  1   8   1
M  END
> <s_m_source_file>
AV-unprocessed.smi

> <i_m_source_file_index>
3268

> <i_lp_mmshare_version>
43012

> <i_f3d_flags>
0

> <s_epik_input>
bjFbY0hdbltjSF1uMVtDQEhdKFtDSDNdKUMoPU8pW05IXVtDSDJdW0NIMl1OMltDSDJdW0NIMl1bQ0gyXVtDSDJdW0NIMl0y

> <s_epik_cmdline>
J2VwaWtfcHl0aG9uJywgJy1waCcsICc3LjAnLCAnLXRuJywgJzgnLCAnLW1hJywgJzIwMCcsICctbWV0YWxfYmluZGluZycsICctaW1hZScsICc8aW5maWxlLm1hZT4nLCAnLW9tYWUnLCAnPG91dGZpbGUubWFlPic=

> <r_lp_tautomer_probability>
1

> <r_epik_Ionization_Penalty>
0.00266407

> <r_epik_Ionization_Penalty_Charging>
0.00265606

> <r_epik_Ionization_Penalty_Neutral>
8.01095e-06

> <r_epik_State_Penalty>
0.00184955

> <r_epik_Charging_Adjusted_Penalty>
0.00450561

> <i_epik_Tot_Q>
1

> <i_epik_Tot_abs_Q>
1

> <r_epik_Metal_State_Penalty>
-0

> <b_epik_Metal_Only>
0

> <s_lp_Force_Field>
OPLS_2005

> <r_lp_Energy>
21.812

> <b_lp_Chiralities_Consistent>
1

> <s_lp_Variant>
AV-unprocessed.smi:3268-2

> <Gold.Version>
5.8.1

> <Gold.Id.Protein>
6NUR|6NUR_protein|mol2

> <Gold.PLP.Fitness>
38.2653

> <Gold.PLP.PLP>
-31.1232

> <Gold.PLP.part.hbond>
-2.8789

> <Gold.PLP.part.metal>
0.0000

> <Gold.PLP.part.buried>
-3.8772

> <Gold.PLP.part.nonpolar>
-24.7061

> <Gold.PLP.part.repulsive>
0.3766

> <Gold.PLP.ligand.clash>
0.0000

> <Gold.PLP.ligand.torsion>
0.6227

> <Gold.PLP.Chemscore.Hbond>
2.0000

> <Gold.PLP.Chemscore.CHOScore>
0.7516

> <Gold.PLP.Chemscore.Metal>
0.0000

> <Gold.Chemscore.Hbonds>
donor molecule, donor type, donor heavy atom, donor atom, acceptor molecule, acceptor atom, score
      L1  H     8    40       P1 10747  1.00
      P1  H  7989  7998       L1    16  1.00
      L1  C    17    39       P1  7957  0.29

> <Gold.PLP.Chemscore.Internal.Correction>
0.1328

> <Gold.Rescore>
     Score         DG    S(hbond)    S(metal)    S(lipo)     H(rot)  DE(clash)    DE(int)     intcor
     10.67     -12.25       1.95        0.00      58.43       2.57       0.20       1.38       ----

> <Gold.Chemscore.Fitness>
10.6738

> <Gold.Chemscore.DG>
-12.2529

> <Gold.Chemscore.ZeroCoef>
-5.4800

> <Gold.Chemscore.Hbond>
1.9501

> <Gold.Chemscore.Metal>
0.0000

> <Gold.Chemscore.Lipo>
58.4288

> <Gold.Chemscore.Internal_Hbond>
0.0000

> <Gold.Chemscore.DEClash>
0.1991

> <Gold.Chemscore.DEInternal>
1.3800

> <Gold.Chemscore.Rot>
2.5690

> <Gold.Chemscore.Internal.Correction>
   9.000000E+99

> <Gold.Chemscore.Hbonds>
donor molecule, donor type, donor heavy atom, donor atom, acceptor molecule, acceptor atom, score
      L1  H     8    40       P1 10747  1.00
      P1  H  7989  7998       L1    16  0.74

> <Gold.Chemscore.Hbond.Weighted>
-6.5133

> <Gold.Chemscore.Metal.Weighted>
-0.0000

> <Gold.Chemscore.Lipo.Weighted>
-6.8362

> <Gold.Chemscore.Internal_Hbond.Weighted>
0.0000

> <Gold.Chemscore.DEClash.Weighted>
0.1991

> <Gold.Chemscore.DEInternal.Weighted>
1.3800

> <Gold.Chemscore.Rot.Weighted>
6.5766

> <Gold.Chemscore.Internal.Correction.Weighted>
   9.000000E+99

> <Gold.Protein.RotatedTorsions>
[ 6907 6896 6895 6894 ] final -166.14 input  -60.11 | X-H torsion
[ 7974 7965 7964 7962 ] final   86.37 input  175.53 | X-H torsion
[ 8008 7997 7996 7995 ] final   41.56 input   59.86 | X-H torsion
[ 10167 10162 10161 10158 ] final   39.33 input  -65.29 | X-H torsion
[ 10718 10713 10712 10709 ] final   56.40 input   66.30 | X-H torsion
[ 10763 10752 10751 10750 ] final -107.46 input  -60.55 | X-H torsion
[ 11005 11000 10999 10996 ] final  103.43 input  -57.11 | X-H torsion

> <Gold.Protein.ActiveResidues>
 VAL166  LYS551  ARG553  GLY616  TRP617  ASP618  TYR619  PRO620  LYS621  CYS622 
 ASP623  PHE694  ASN695  SER759  ASP760  ASP761  ALA762  ILE779  LEU786  VAL792 
 PHE793  MET794  SER795  GLU796  ALA797  LYS798  CYS799  TRP800  GLU811  SER814 

> <Gold.Protein.RotatedAtoms>
  151.4389  133.3649  159.2778 H   0  0  0  0  0  0  0  0  0  0  0  0  # atno 6907 bound_to 6896
  150.9172  134.8591  159.7475 H   0  0  0  0  0  0  0  0  0  0  0  0  # atno 6908 bound_to 6896
  152.4963  134.4323  159.9568 H   0  0  0  0  0  0  0  0  0  0  0  0  # atno 6909 bound_to 6896
  145.5731  139.2316  143.2395 H   0  0  0  0  0  0  0  0  0  0  0  0  # atno 7974 bound_to 7965
  155.2717  140.3366  155.4265 H   0  0  0  0  0  0  0  0  0  0  0  0  # atno 8008 bound_to 7997
  156.2130  140.1777  156.7695 H   0  0  0  0  0  0  0  0  0  0  0  0  # atno 8009 bound_to 7997
  154.5713  140.0669  156.8952 H   0  0  0  0  0  0  0  0  0  0  0  0  # atno 8010 bound_to 7997
  140.3850  144.1929  150.6130 H   0  0  0  0  0  0  0  0  0  0  0  0  # atno 10167 bound_to 10162
  157.5428  130.8709  149.8847 H   0  0  0  0  0  0  0  0  0  0  0  0  # atno 10718 bound_to 10713
  154.8076  135.4674  154.0433 H   0  0  0  0  0  0  0  0  0  0  0  0  # atno 10763 bound_to 10752
  153.1889  135.6852  153.8385 H   0  0  0  0  0  0  0  0  0  0  0  0  # atno 10764 bound_to 10752
  153.7910  135.3243  155.3356 H   0  0  0  0  0  0  0  0  0  0  0  0  # atno 10765 bound_to 10752
  139.8784  134.9262  156.5208 H   0  0  0  0  0  0  0  0  0  0  0  0  # atno 11005 bound_to 11000
  146.1770  140.6557  142.9207 LP  0  0  0  0  0  0  0  0  0  0  0  0  # atno 17320 bound_to 7965
  144.7428  140.4989  143.6857 LP  0  0  0  0  0  0  0  0  0  0  0  0  # atno 17321 bound_to 7965
  140.4899  143.2351  151.8834 LP  0  0  0  0  0  0  0  0  0  0  0  0  # atno 17342 bound_to 10162
  139.4792  144.5178  151.8844 LP  0  0  0  0  0  0  0  0  0  0  0  0  # atno 17343 bound_to 10162
  156.0511  130.3717  150.1200 LP  0  0  0  0  0  0  0  0  0  0  0  0  # atno 17370 bound_to 10713
  156.9379  130.9735  151.3521 LP  0  0  0  0  0  0  0  0  0  0  0  0  # atno 17371 bound_to 10713
  140.8452  133.8174  155.9114 LP  0  0  0  0  0  0  0  0  0  0  0  0  # atno 17394 bound_to 11000
  140.9198  134.2155  157.4933 LP  0  0  0  0  0  0  0  0  0  0  0  0  # atno 17395 bound_to 11000

$$$$
