AV-unprocessed.smi:1772|AV-procd|sdf|7160|dock1
  -GOLD-   22720 8393D 1   1.00000     0.00000
 Structure written by MMmdl.
 33 34  0  0  0  0  0  0  0  0  1 V2000
  144.4823  136.6666  151.9801 O   0  0  0  0  0  0  0  0  0  0  0  0
  145.6911  136.4578  151.8831 C   0  0  0  0  0  0  0  0  0  0  0  0
  146.6232  137.3404  152.2696 N   0  0  0  0  0  0  0  0  0  0  0  0
  146.3463  138.6570  152.8347 C   0  0  0  0  0  0  0  0  0  0  0  0
  147.6379  139.4316  153.1611 C   0  0  1  0  0  0  0  0  0  0  0  0
  147.3529  140.8378  153.7234 C   0  0  0  0  0  0  0  0  0  0  0  0
  148.6618  141.4141  154.2696 C   0  0  0  0  0  0  0  0  0  0  0  0
  149.5529  139.9886  154.9930 S   0  0  0  0  0  0  0  0  0  0  0  0
  150.9300  139.9672  154.4773 O   0  0  0  0  0  0  0  0  0  0  0  0
  149.2842  139.9286  156.4377 O   0  0  0  0  0  0  0  0  0  0  0  0
  148.5571  138.6972  154.1544 C   0  0  0  0  0  0  0  0  0  0  0  0
  146.2573  135.3390  151.3975 N   0  0  0  0  0  0  0  0  0  0  0  0
  145.6357  134.1621  150.8966 C   0  0  0  0  0  0  0  0  0  0  0  0
  146.4762  133.1007  150.5019 C   0  0  0  0  0  0  0  0  0  0  0  0
  145.8928  131.9244  149.9905 C   0  0  0  0  0  0  0  0  0  0  0  0
  144.5611  131.7579  149.8496 N   0  0  0  0  0  0  0  0  0  0  0  0
  143.7578  132.7785  150.2165 C   0  0  0  0  0  0  0  0  0  0  0  0
  144.2379  133.9967  150.7384 C   0  0  0  0  0  0  0  0  0  0  0  0
  147.5945  137.0869  152.1614 H   0  0  0  0  0  0  0  0  0  0  0  0
  145.7221  139.2317  152.1484 H   0  0  0  0  0  0  0  0  0  0  0  0
  145.7562  138.5164  153.7407 H   0  0  0  0  0  0  0  0  0  0  0  0
  148.2029  139.5713  152.2381 H   0  0  0  0  0  0  0  0  0  0  0  0
  146.9126  141.4927  152.9709 H   0  0  0  0  0  0  0  0  0  0  0  0
  146.6335  140.7612  154.5399 H   0  0  0  0  0  0  0  0  0  0  0  0
  149.2717  141.8185  153.4613 H   0  0  0  0  0  0  0  0  0  0  0  0
  148.5127  142.1905  155.0199 H   0  0  0  0  0  0  0  0  0  0  0  0
  147.9797  138.1761  154.9184 H   0  0  0  0  0  0  0  0  0  0  0  0
  149.2146  137.9774  153.6662 H   0  0  0  0  0  0  0  0  0  0  0  0
  147.2652  135.3054  151.4369 H   0  0  0  0  0  0  0  0  0  0  0  0
  147.5500  133.1788  150.5913 H   0  0  0  0  0  0  0  0  0  0  0  0
  146.5139  131.0954  149.6854 H   0  0  0  0  0  0  0  0  0  0  0  0
  142.6974  132.6219  150.0852 H   0  0  0  0  0  0  0  0  0  0  0  0
  143.5296  134.7696  150.9915 H   0  0  0  0  0  0  0  0  0  0  0  0
  1  2  2  0  0  0  0
  2  3  1  0  0  0  0
  2 12  1  0  0  0  0
  3  4  1  0  0  0  0
  3 19  1  0  0  0  0
  4  5  1  0  0  0  0
  4 20  1  0  0  0  0
  4 21  1  0  0  0  0
  5 11  1  0  0  0  0
  5  6  1  0  0  0  0
  5 22  1  0  0  0  0
  6  7  1  0  0  0  0
  6 23  1  0  0  0  0
  6 24  1  0  0  0  0
  7  8  1  0  0  0  0
  7 25  1  0  0  0  0
  7 26  1  0  0  0  0
  8  9  2  0  0  0  0
  8 10  2  0  0  0  0
  8 11  1  0  0  0  0
 11 27  1  0  0  0  0
 11 28  1  0  0  0  0
 12 13  1  0  0  0  0
 12 29  1  0  0  0  0
 13 18  1  0  0  0  0
 13 14  2  0  0  0  0
 14 15  1  0  0  0  0
 14 30  1  0  0  0  0
 15 16  2  0  0  0  0
 15 31  1  0  0  0  0
 16 17  1  0  0  0  0
 17 18  2  0  0  0  0
 17 32  1  0  0  0  0
 18 33  1  0  0  0  0
M  END
> <s_m_source_file>
AV-unprocessed.smi

> <i_m_source_file_index>
1772

> <i_lp_mmshare_version>
43012

> <i_f3d_flags>
0

> <s_epik_input>
W2NIXTFbY0hdbltjSF1bY0hdYzFbTkhdQyg9TylbTkhdW0NIMl1bQ0BASF0oW0NIMl0yKVtDSDJdW0NIMl1TMig9Tyk9Tw==

> <s_epik_cmdline>
J2VwaWtfcHl0aG9uJywgJy1waCcsICc3LjAnLCAnLXRuJywgJzgnLCAnLW1hJywgJzIwMCcsICctbWV0YWxfYmluZGluZycsICctaW1hZScsICc8aW5maWxlLm1hZT4nLCAnLW9tYWUnLCAnPG91dGZpbGUubWFlPic=

> <r_epik_Ionization_Penalty>
0.110577

> <r_epik_Ionization_Penalty_Charging>
0

> <r_epik_Ionization_Penalty_Neutral>
0.110577

> <r_epik_State_Penalty>
0.100289

> <r_epik_Charging_Adjusted_Penalty>
0.100289

> <i_epik_Tot_Q>
0

> <i_epik_Tot_abs_Q>
0

> <r_epik_Metal_State_Penalty>
0.0843891

> <b_epik_Metal_Only>
0

> <s_lp_Force_Field>
OPLS_2005

> <r_lp_Energy>
7.83536

> <b_lp_Chiralities_Consistent>
1

> <s_lp_Variant>
AV-unprocessed.smi:1772-2

> <Gold.Version>
5.8.1

> <Gold.Id.Protein>
6NUR|6NUR_protein|mol2

> <Gold.PLP.Fitness>
47.1898

> <Gold.PLP.PLP>
-32.5344

> <Gold.PLP.part.hbond>
-3.8738

> <Gold.PLP.part.metal>
0.0000

> <Gold.PLP.part.buried>
-3.4459

> <Gold.PLP.part.nonpolar>
-27.3712

> <Gold.PLP.part.repulsive>
1.5188

> <Gold.PLP.ligand.clash>
0.0000

> <Gold.PLP.ligand.torsion>
0.0044

> <Gold.PLP.Chemscore.Hbond>
3.0669

> <Gold.PLP.Chemscore.CHOScore>
1.8200

> <Gold.PLP.Chemscore.Metal>
0.0000

> <Gold.Chemscore.Hbonds>
donor molecule, donor type, donor heavy atom, donor atom, acceptor molecule, acceptor atom, score
      L1  H     3    19       P1  7948  1.00
      L1  H    12    29       P1  7948  0.99
      P1  H  7989  7998       L1     9  0.94
      P1  H 10785 10796       L1    16  0.07
      L1  C    15    31       P1 10747  0.90
      L1  C    17    32       P1 10186  0.92

> <Gold.PLP.Chemscore.Internal.Correction>
0.0037

> <Gold.Rescore>
     Score         DG    S(hbond)    S(metal)    S(lipo)     H(rot)  DE(clash)    DE(int)     intcor
     19.07     -20.31       2.96        0.00      70.78       1.30       0.06       1.18       ----

> <Gold.Chemscore.Fitness>
19.0722

> <Gold.Chemscore.DG>
-20.3084

> <Gold.Chemscore.ZeroCoef>
-5.4800

> <Gold.Chemscore.Hbond>
2.9559

> <Gold.Chemscore.Metal>
0.0000

> <Gold.Chemscore.Lipo>
70.7836

> <Gold.Chemscore.Internal_Hbond>
0.0000

> <Gold.Chemscore.DEClash>
0.0611

> <Gold.Chemscore.DEInternal>
1.1751

> <Gold.Chemscore.Rot>
1.2992

> <Gold.Chemscore.Internal.Correction>
   9.000000E+99

> <Gold.Chemscore.Hbonds>
donor molecule, donor type, donor heavy atom, donor atom, acceptor molecule, acceptor atom, score
      L1  H     3    19       P1  7948  0.99
      L1  H    12    29       P1  7948  0.82
      P1  H  7989  7998       L1     9  0.90
      P1  H 10785 10796       L1    16  0.05

> <Gold.Chemscore.Hbond.Weighted>
-9.8726

> <Gold.Chemscore.Metal.Weighted>
-0.0000

> <Gold.Chemscore.Lipo.Weighted>
-8.2817

> <Gold.Chemscore.Internal_Hbond.Weighted>
0.0000

> <Gold.Chemscore.DEClash.Weighted>
0.0611

> <Gold.Chemscore.DEInternal.Weighted>
1.1751

> <Gold.Chemscore.Rot.Weighted>
3.3259

> <Gold.Chemscore.Internal.Correction.Weighted>
   9.000000E+99

> <Gold.Protein.RotatedTorsions>
[ 6907 6896 6895 6894 ] final   -4.44 input  -60.11 | X-H torsion
[ 7974 7965 7964 7962 ] final   93.15 input  175.53 | X-H torsion
[ 8008 7997 7996 7995 ] final  117.00 input   59.86 | X-H torsion
[ 10167 10162 10161 10158 ] final  -73.61 input  -65.29 | X-H torsion
[ 10718 10713 10712 10709 ] final -148.28 input   66.30 | X-H torsion
[ 10763 10752 10751 10750 ] final  168.40 input  -60.55 | X-H torsion
[ 11005 11000 10999 10996 ] final   82.59 input  -57.11 | X-H torsion

> <Gold.Protein.ActiveResidues>
 VAL166  LYS551  ARG553  GLY616  TRP617  ASP618  TYR619  PRO620  LYS621  CYS622 
 ASP623  PHE694  ASN695  SER759  ASP760  ASP761  ALA762  ILE779  LEU786  VAL792 
 PHE793  MET794  SER795  GLU796  ALA797  LYS798  CYS799  TRP800  GLU811  SER814 

> <Gold.Protein.RotatedAtoms>
  151.4975  135.1060  159.9819 H   0  0  0  0  0  0  0  0  0  0  0  0  # atno 6907 bound_to 6896
  152.4715  133.8037  159.6977 H   0  0  0  0  0  0  0  0  0  0  0  0  # atno 6908 bound_to 6896
  150.8727  133.7419  159.2982 H   0  0  0  0  0  0  0  0  0  0  0  0  # atno 6909 bound_to 6896
  145.4828  139.2278  143.2873 H   0  0  0  0  0  0  0  0  0  0  0  0  # atno 7974 bound_to 7965
  156.2470  140.2905  156.0610 H   0  0  0  0  0  0  0  0  0  0  0  0  # atno 8008 bound_to 7997
  155.1776  140.0403  157.2893 H   0  0  0  0  0  0  0  0  0  0  0  0  # atno 8009 bound_to 7997
  154.6282  140.2493  155.7473 H   0  0  0  0  0  0  0  0  0  0  0  0  # atno 8010 bound_to 7997
  140.5096  143.2347  151.7616 H   0  0  0  0  0  0  0  0  0  0  0  0  # atno 10167 bound_to 10162
  156.4183  130.8016  151.2237 H   0  0  0  0  0  0  0  0  0  0  0  0  # atno 10718 bound_to 10713
  154.3680  135.2753  155.2282 H   0  0  0  0  0  0  0  0  0  0  0  0  # atno 10763 bound_to 10752
  154.4442  135.5947  153.6153 H   0  0  0  0  0  0  0  0  0  0  0  0  # atno 10764 bound_to 10752
  152.9840  135.6026  154.3908 H   0  0  0  0  0  0  0  0  0  0  0  0  # atno 10765 bound_to 10752
  139.9058  134.8083  156.2195 H   0  0  0  0  0  0  0  0  0  0  0  0  # atno 11005 bound_to 11000
  146.2331  140.5616  142.8967 LP  0  0  0  0  0  0  0  0  0  0  0  0  # atno 17320 bound_to 7965
  144.7879  140.5973  143.6561 LP  0  0  0  0  0  0  0  0  0  0  0  0  # atno 17321 bound_to 7965
  139.4892  144.4409  151.9765 LP  0  0  0  0  0  0  0  0  0  0  0  0  # atno 17342 bound_to 10162
  140.3501  144.3099  150.5951 LP  0  0  0  0  0  0  0  0  0  0  0  0  # atno 17343 bound_to 10162
  157.7508  131.0236  150.3841 LP  0  0  0  0  0  0  0  0  0  0  0  0  # atno 17370 bound_to 10713
  156.4154  130.3942  149.6862 LP  0  0  0  0  0  0  0  0  0  0  0  0  # atno 17371 bound_to 10713
  141.0414  133.6935  156.1605 LP  0  0  0  0  0  0  0  0  0  0  0  0  # atno 17394 bound_to 11000
  140.6949  134.4626  157.5588 LP  0  0  0  0  0  0  0  0  0  0  0  0  # atno 17395 bound_to 11000

$$$$
