AV-unprocessed.smi:1403|AV-procd|sdf|5699|dock6
  -GOLD-   22720 5333D 1   1.00000     0.00000
 Structure written by MMmdl.
 36 37  0  0  0  0  0  0  0  0  1 V2000
  153.4071  140.3348  159.9526 C   0  0  0  0  0  0  0  0  0  0  0  0
  152.2982  141.2428  159.4016 C   0  0  2  0  0  0  0  0  0  0  0  0
  152.1463  140.9822  157.9711 N   0  0  0  0  0  0  0  0  0  0  0  0
  151.8198  139.8062  157.4122 C   0  0  0  0  0  0  0  0  0  0  0  0
  151.5856  138.7878  158.0641 O   0  0  0  0  0  0  0  0  0  0  0  0
  151.7143  139.7961  155.8806 C   0  0  0  0  0  0  0  0  0  0  0  0
  150.4568  140.3764  155.3875 N   0  0  0  0  0  0  0  0  0  0  0  0
  149.6067  139.6286  154.5852 C   0  0  0  0  0  0  0  0  0  0  0  0
  148.4393  140.1037  154.0901 C   0  0  0  0  0  0  0  0  0  0  0  0
  148.0106  141.4660  154.3878 C   0  0  0  0  0  0  0  0  0  0  0  0
  146.9712  141.9859  153.9885 O   0  0  0  0  0  0  0  0  0  0  0  0
  148.8939  142.1870  155.1955 N   0  0  0  0  0  0  0  0  0  0  0  0
  150.0993  141.7043  155.7075 C   0  0  0  0  0  0  0  0  0  0  0  0
  150.8072  142.4266  156.4084 O   0  0  0  0  0  0  0  0  0  0  0  0
  152.6017  142.7352  159.6475 C   0  0  1  0  0  0  0  0  0  0  0  0
  151.6013  143.7096  159.0255 C   0  0  0  0  0  0  0  0  0  0  0  0
  151.8476  144.9600  159.8389 C   0  0  0  0  0  0  0  0  0  0  0  0
  152.1469  144.3972  161.2278 C   0  0  0  0  0  0  0  0  0  0  0  0
  152.5405  143.0397  161.0371 O   0  0  0  0  0  0  0  0  0  0  0  0
  148.6402  143.1365  155.4265 H   0  0  0  0  0  0  0  0  0  0  0  0
  153.5282  140.4685  161.0279 H   0  0  0  0  0  0  0  0  0  0  0  0
  154.3673  140.5474  159.4812 H   0  0  0  0  0  0  0  0  0  0  0  0
  153.1756  139.2835  159.7788 H   0  0  0  0  0  0  0  0  0  0  0  0
  151.3754  140.9873  159.9256 H   0  0  0  0  0  0  0  0  0  0  0  0
  152.3098  141.7636  157.3530 H   0  0  0  0  0  0  0  0  0  0  0  0
  152.5672  140.3464  155.4811 H   0  0  0  0  0  0  0  0  0  0  0  0
  151.8292  138.7769  155.5059 H   0  0  0  0  0  0  0  0  0  0  0  0
  149.8856  138.6150  154.3348 H   0  0  0  0  0  0  0  0  0  0  0  0
  147.8196  139.4726  153.4696 H   0  0  0  0  0  0  0  0  0  0  0  0
  153.6052  142.9792  159.2931 H   0  0  0  0  0  0  0  0  0  0  0  0
  151.7574  143.8600  157.9570 H   0  0  0  0  0  0  0  0  0  0  0  0
  150.5793  143.3592  159.1777 H   0  0  0  0  0  0  0  0  0  0  0  0
  152.7214  145.4865  159.4533 H   0  0  0  0  0  0  0  0  0  0  0  0
  151.0031  145.6497  159.8309 H   0  0  0  0  0  0  0  0  0  0  0  0
  152.9295  144.9640  161.7327 H   0  0  0  0  0  0  0  0  0  0  0  0
  151.2562  144.4163  161.8566 H   0  0  0  0  0  0  0  0  0  0  0  0
  1  2  1  0  0  0  0
  1 21  1  0  0  0  0
  1 22  1  0  0  0  0
  1 23  1  0  0  0  0
  2  3  1  0  0  0  0
  2 15  1  0  0  0  0
  2 24  1  0  0  0  0
  3  4  1  0  0  0  0
  3 25  1  0  0  0  0
  4  5  2  0  0  0  0
  4  6  1  0  0  0  0
  6  7  1  0  0  0  0
  6 26  1  0  0  0  0
  6 27  1  0  0  0  0
  7 13  1  0  0  0  0
  7  8  1  0  0  0  0
  8  9  2  0  0  0  0
  8 28  1  0  0  0  0
  9 10  1  0  0  0  0
  9 29  1  0  0  0  0
 10 11  2  0  0  0  0
 10 12  1  0  0  0  0
 12 20  1  0  0  0  0
 12 13  1  0  0  0  0
 13 14  2  0  0  0  0
 15 19  1  0  0  0  0
 15 16  1  0  0  0  0
 15 30  1  0  0  0  0
 16 17  1  0  0  0  0
 16 31  1  0  0  0  0
 16 32  1  0  0  0  0
 17 18  1  0  0  0  0
 17 33  1  0  0  0  0
 17 34  1  0  0  0  0
 18 19  1  0  0  0  0
 18 35  1  0  0  0  0
 18 36  1  0  0  0  0
M  END
> <s_m_source_file>
AV-unprocessed.smi

> <i_m_source_file_index>
1403

> <i_lp_mmshare_version>
43012

> <i_f3d_flags>
0

> <s_epik_input>
TzFbQ0gyXVtDSDJdW0NIMl1bQ0BIXTFbQ0BIXShbQ0gzXSlbTkhdQyg9TylbQ0gyXW4yW2NIXVtjSF1jKD1PKVtuSF1jMj1P

> <s_epik_cmdline>
J2VwaWtfcHl0aG9uJywgJy1waCcsICc3LjAnLCAnLXRuJywgJzgnLCAnLW1hJywgJzIwMCcsICctbWV0YWxfYmluZGluZycsICctaW1hZScsICc8aW5maWxlLm1hZT4nLCAnLW9tYWUnLCAnPG91dGZpbGUubWFlPic=

> <r_lp_tautomer_probability>
0.999537

> <r_epik_Ionization_Penalty>
0.00331407

> <r_epik_Ionization_Penalty_Charging>
0.00331405

> <r_epik_Ionization_Penalty_Neutral>
2.30132e-08

> <r_epik_State_Penalty>
0.00234266

> <r_epik_Charging_Adjusted_Penalty>
0.00565671

> <i_epik_Tot_Q>
0

> <i_epik_Tot_abs_Q>
0

> <r_epik_Metal_State_Penalty>
0.365604

> <b_epik_Metal_Only>
0

> <s_lp_Force_Field>
OPLS_2005

> <r_lp_Energy>
18.4227

> <b_lp_Chiralities_Consistent>
1

> <s_lp_Variant>
AV-unprocessed.smi:1403-3

> <Gold.Version>
5.8.1

> <Gold.Id.Protein>
6NUR|6NUR_protein|mol2

> <Gold.PLP.Fitness>
42.0856

> <Gold.PLP.PLP>
-39.7241

> <Gold.PLP.part.hbond>
-1.0000

> <Gold.PLP.part.metal>
0.0000

> <Gold.PLP.part.buried>
-6.3141

> <Gold.PLP.part.nonpolar>
-33.7809

> <Gold.PLP.part.repulsive>
0.7810

> <Gold.PLP.ligand.clash>
0.0000

> <Gold.PLP.ligand.torsion>
0.3273

> <Gold.PLP.Chemscore.Hbond>
1.0000

> <Gold.PLP.Chemscore.CHOScore>
0.0000

> <Gold.PLP.Chemscore.Metal>
0.0000

> <Gold.Chemscore.Hbonds>
donor molecule, donor type, donor heavy atom, donor atom, acceptor molecule, acceptor atom, score
      L1  H    12    20       P1  8028  1.00

> <Gold.PLP.Chemscore.Internal.Correction>
0.0160

> <Gold.Rescore>
     Score         DG    S(hbond)    S(metal)    S(lipo)     H(rot)  DE(clash)    DE(int)     intcor
     11.14     -13.18       1.00        0.00      82.02       2.04       0.14       1.90       ----

> <Gold.Chemscore.Fitness>
11.1395

> <Gold.Chemscore.DG>
-13.1805

> <Gold.Chemscore.ZeroCoef>
-5.4800

> <Gold.Chemscore.Hbond>
0.9957

> <Gold.Chemscore.Metal>
0.0000

> <Gold.Chemscore.Lipo>
82.0182

> <Gold.Chemscore.Internal_Hbond>
0.0000

> <Gold.Chemscore.DEClash>
0.1417

> <Gold.Chemscore.DEInternal>
1.8994

> <Gold.Chemscore.Rot>
2.0395

> <Gold.Chemscore.Internal.Correction>
   9.000000E+99

> <Gold.Chemscore.Hbonds>
donor molecule, donor type, donor heavy atom, donor atom, acceptor molecule, acceptor atom, score
      L1  H    12    20       P1  8028  0.98

> <Gold.Chemscore.Hbond.Weighted>
-3.3255

> <Gold.Chemscore.Metal.Weighted>
-0.0000

> <Gold.Chemscore.Lipo.Weighted>
-9.5961

> <Gold.Chemscore.Internal_Hbond.Weighted>
0.0000

> <Gold.Chemscore.DEClash.Weighted>
0.1417

> <Gold.Chemscore.DEInternal.Weighted>
1.8994

> <Gold.Chemscore.Rot.Weighted>
5.2211

> <Gold.Chemscore.Internal.Correction.Weighted>
   9.000000E+99

> <Gold.Protein.RotatedTorsions>
[ 6907 6896 6895 6894 ] final   19.46 input  -60.11 | X-H torsion
[ 7974 7965 7964 7962 ] final -173.98 input  175.53 | X-H torsion
[ 8008 7997 7996 7995 ] final -139.44 input   59.86 | X-H torsion
[ 10167 10162 10161 10158 ] final  158.83 input  -65.29 | X-H torsion
[ 10718 10713 10712 10709 ] final  -39.24 input   66.30 | X-H torsion
[ 10763 10752 10751 10750 ] final   86.85 input  -60.55 | X-H torsion
[ 11005 11000 10999 10996 ] final -134.68 input  -57.11 | X-H torsion

> <Gold.Protein.ActiveResidues>
 VAL166  LYS551  ARG553  GLY616  TRP617  ASP618  TYR619  PRO620  LYS621  CYS622 
 ASP623  PHE694  ASN695  SER759  ASP760  ASP761  ALA762  ILE779  LEU786  VAL792 
 PHE793  MET794  SER795  GLU796  ALA797  LYS798  CYS799  TRP800  GLU811  SER814 

> <Gold.Protein.RotatedAtoms>
  151.8812  135.0452  160.0488 H   0  0  0  0  0  0  0  0  0  0  0  0  # atno 6907 bound_to 6896
  152.2511  133.5211  159.5334 H   0  0  0  0  0  0  0  0  0  0  0  0  # atno 6908 bound_to 6896
  150.7084  134.0875  159.3962 H   0  0  0  0  0  0  0  0  0  0  0  0  # atno 6909 bound_to 6896
  144.7134  140.1540  143.6382 H   0  0  0  0  0  0  0  0  0  0  0  0  # atno 7974 bound_to 7965
  155.4448  140.0534  157.3007 H   0  0  0  0  0  0  0  0  0  0  0  0  # atno 8008 bound_to 7997
  154.4802  140.2078  155.9738 H   0  0  0  0  0  0  0  0  0  0  0  0  # atno 8009 bound_to 7997
  156.1194  140.3191  155.8191 H   0  0  0  0  0  0  0  0  0  0  0  0  # atno 8010 bound_to 7997
  139.4829  144.4788  151.8474 H   0  0  0  0  0  0  0  0  0  0  0  0  # atno 10167 bound_to 10162
  156.2946  130.4232  149.8203 H   0  0  0  0  0  0  0  0  0  0  0  0  # atno 10718 bound_to 10713
  153.1610  135.4565  154.9772 H   0  0  0  0  0  0  0  0  0  0  0  0  # atno 10763 bound_to 10752
  154.7898  135.3216  154.7807 H   0  0  0  0  0  0  0  0  0  0  0  0  # atno 10764 bound_to 10752
  153.8296  135.6939  153.4871 H   0  0  0  0  0  0  0  0  0  0  0  0  # atno 10765 bound_to 10752
  140.8967  134.1742  157.4489 H   0  0  0  0  0  0  0  0  0  0  0  0  # atno 11005 bound_to 11000
  145.9090  139.2476  143.1448 LP  0  0  0  0  0  0  0  0  0  0  0  0  # atno 17320 bound_to 7965
  145.9735  140.8741  143.0151 LP  0  0  0  0  0  0  0  0  0  0  0  0  # atno 17321 bound_to 7965
  140.4262  144.2177  150.5887 LP  0  0  0  0  0  0  0  0  0  0  0  0  # atno 17342 bound_to 10162
  140.4825  143.2374  151.8935 LP  0  0  0  0  0  0  0  0  0  0  0  0  # atno 17343 bound_to 10162
  156.5604  130.8381  151.3327 LP  0  0  0  0  0  0  0  0  0  0  0  0  # atno 17370 bound_to 10713
  157.7352  130.9758  150.2068 LP  0  0  0  0  0  0  0  0  0  0  0  0  # atno 17371 bound_to 10713
  139.8736  134.9881  156.5398 LP  0  0  0  0  0  0  0  0  0  0  0  0  # atno 17394 bound_to 11000
  140.8280  133.8301  155.8957 LP  0  0  0  0  0  0  0  0  0  0  0  0  # atno 17395 bound_to 11000

$$$$
