AV-unprocessed.smi:707|AV-procd|sdf|3456|dock2
  -GOLD-   22720 0443D 1   1.00000     0.00000
 Structure written by MMmdl.
 44 45  0  0  0  0  0  0  0  0  1 V2000
  145.5211  136.6274  162.2275 C   0  0  0  0  0  0  0  0  0  0  0  0
  146.1473  135.2709  162.2580 C   0  0  0  0  0  0  0  0  0  0  0  0
  145.5234  134.1723  162.6998 N   0  0  0  0  0  0  0  0  0  0  0  0
  146.4373  133.1460  162.5620 N   0  0  0  0  0  0  0  0  0  0  0  0
  147.5212  133.7283  162.0504 C   0  0  0  0  0  0  0  0  0  0  0  0
  147.4086  135.0481  161.8364 N   0  0  0  0  0  0  0  0  0  0  0  0
  148.3978  135.9636  161.2996 C   0  0  0  0  0  0  0  0  0  0  0  0
  148.7199  135.6460  159.8299 C   0  0  0  0  0  0  0  0  0  0  0  0
  149.2864  136.7997  159.1420 N   0  0  0  0  0  0  0  0  0  0  0  0
  150.3113  136.7545  158.2770 C   0  0  0  0  0  0  0  0  0  0  0  0
  150.8901  135.7146  157.9633 O   0  0  0  0  0  0  0  0  0  0  0  0
  150.7427  138.0853  157.6671 C   0  0  0  0  0  0  0  0  0  0  0  0
  150.2391  138.1553  156.3409 O   0  0  0  0  0  0  0  0  0  0  0  0
  150.9935  138.9755  155.4547 C   0  0  1  0  0  0  0  0  0  0  0  0
  150.1137  139.2616  154.2249 C   0  0  0  0  0  0  0  0  0  0  0  0
  148.9115  140.1535  154.5784 C   0  0  0  0  0  0  0  0  0  0  0  0
  149.3612  141.4601  155.2517 C   0  0  0  0  0  0  0  0  0  0  0  0
  150.2301  141.1869  156.4945 C   0  0  2  0  0  0  0  0  0  0  0  0
  150.6840  142.4934  157.1610 C   0  0  0  0  0  0  0  0  0  0  0  0
  151.4329  140.2973  156.1226 C   0  0  0  0  0  0  0  0  0  0  0  0
  144.5202  136.5957  162.6589 H   0  0  0  0  0  0  0  0  0  0  0  0
  145.4428  136.9818  161.1997 H   0  0  0  0  0  0  0  0  0  0  0  0
  146.1223  137.3336  162.8003 H   0  0  0  0  0  0  0  0  0  0  0  0
  148.4232  133.1772  161.8269 H   0  0  0  0  0  0  0  0  0  0  0  0
  148.0105  136.9784  161.3985 H   0  0  0  0  0  0  0  0  0  0  0  0
  149.2989  135.9116  161.9113 H   0  0  0  0  0  0  0  0  0  0  0  0
  149.4428  134.8313  159.7736 H   0  0  0  0  0  0  0  0  0  0  0  0
  147.8259  135.3030  159.3061 H   0  0  0  0  0  0  0  0  0  0  0  0
  148.8759  137.7003  159.3422 H   0  0  0  0  0  0  0  0  0  0  0  0
  150.3606  138.9015  158.2799 H   0  0  0  0  0  0  0  0  0  0  0  0
  151.8319  138.1461  157.6702 H   0  0  0  0  0  0  0  0  0  0  0  0
  151.8739  138.4234  155.1218 H   0  0  0  0  0  0  0  0  0  0  0  0
  150.7134  139.7551  153.4591 H   0  0  0  0  0  0  0  0  0  0  0  0
  149.7673  138.3252  153.7865 H   0  0  0  0  0  0  0  0  0  0  0  0
  148.3394  140.3781  153.6780 H   0  0  0  0  0  0  0  0  0  0  0  0
  148.2369  139.6134  155.2437 H   0  0  0  0  0  0  0  0  0  0  0  0
  149.9216  142.0628  154.5355 H   0  0  0  0  0  0  0  0  0  0  0  0
  148.4853  142.0474  155.5299 H   0  0  0  0  0  0  0  0  0  0  0  0
  149.6209  140.6455  157.2198 H   0  0  0  0  0  0  0  0  0  0  0  0
  151.3023  143.0883  156.4882 H   0  0  0  0  0  0  0  0  0  0  0  0
  151.2677  142.2922  158.0597 H   0  0  0  0  0  0  0  0  0  0  0  0
  149.8286  143.1027  157.4541 H   0  0  0  0  0  0  0  0  0  0  0  0
  152.0444  140.1028  157.0030 H   0  0  0  0  0  0  0  0  0  0  0  0
  152.0794  140.8414  155.4326 H   0  0  0  0  0  0  0  0  0  0  0  0
  1  2  1  0  0  0  0
  1 21  1  0  0  0  0
  1 22  1  0  0  0  0
  1 23  1  0  0  0  0
  2  6  1  0  0  0  0
  2  3  2  0  0  0  0
  3  4  1  0  0  0  0
  4  5  2  0  0  0  0
  5  6  1  0  0  0  0
  5 24  1  0  0  0  0
  6  7  1  0  0  0  0
  7  8  1  0  0  0  0
  7 25  1  0  0  0  0
  7 26  1  0  0  0  0
  8  9  1  0  0  0  0
  8 27  1  0  0  0  0
  8 28  1  0  0  0  0
  9 10  1  0  0  0  0
  9 29  1  0  0  0  0
 10 11  2  0  0  0  0
 10 12  1  0  0  0  0
 12 13  1  0  0  0  0
 12 30  1  0  0  0  0
 12 31  1  0  0  0  0
 13 14  1  0  0  0  0
 14 20  1  0  0  0  0
 14 15  1  0  0  0  0
 14 32  1  0  0  0  0
 15 16  1  0  0  0  0
 15 33  1  0  0  0  0
 15 34  1  0  0  0  0
 16 17  1  0  0  0  0
 16 35  1  0  0  0  0
 16 36  1  0  0  0  0
 17 18  1  0  0  0  0
 17 37  1  0  0  0  0
 17 38  1  0  0  0  0
 18 19  1  0  0  0  0
 18 20  1  0  0  0  0
 18 39  1  0  0  0  0
 19 40  1  0  0  0  0
 19 41  1  0  0  0  0
 19 42  1  0  0  0  0
 20 43  1  0  0  0  0
 20 44  1  0  0  0  0
M  END
> <s_m_source_file>
AV-unprocessed.smi

> <i_m_source_file_index>
707

> <i_lp_mmshare_version>
43012

> <i_f3d_flags>
0

> <s_epik_input>
W0NIM11jMW5uW2NIXW4xW0NIMl1bQ0gyXVtOSF1DKD1PKVtDSDJdT1tDQEBIXTJbQ0gyXVtDSDJdW0NIMl1bQ0BASF0oW0NIM10pW0NIMl0y

> <s_epik_cmdline>
J2VwaWtfcHl0aG9uJywgJy1waCcsICc3LjAnLCAnLXRuJywgJzgnLCAnLW1hJywgJzIwMCcsICctbWV0YWxfYmluZGluZycsICctaW1hZScsICc8aW5maWxlLm1hZT4nLCAnLW9tYWUnLCAnPG91dGZpbGUubWFlPic=

> <r_lp_tautomer_probability>
1

> <r_epik_Ionization_Penalty>
0.000271783

> <r_epik_Ionization_Penalty_Charging>
0

> <r_epik_Ionization_Penalty_Neutral>
0.000271783

> <r_epik_State_Penalty>
-0

> <r_epik_Charging_Adjusted_Penalty>
0

> <i_epik_Tot_Q>
0

> <i_epik_Tot_abs_Q>
0

> <r_epik_Metal_State_Penalty>
-0

> <b_epik_Metal_Only>
0

> <s_lp_Force_Field>
OPLS_2005

> <r_lp_Energy>
13.3948

> <b_lp_Chiralities_Consistent>
1

> <s_lp_Variant>
AV-unprocessed.smi:707-4

> <Gold.Version>
5.8.1

> <Gold.Id.Protein>
6NUR|6NUR_protein|mol2

> <Gold.PLP.Fitness>
38.4783

> <Gold.PLP.PLP>
-38.0855

> <Gold.PLP.part.hbond>
-1.5231

> <Gold.PLP.part.metal>
0.0000

> <Gold.PLP.part.buried>
-2.8550

> <Gold.PLP.part.nonpolar>
-33.4464

> <Gold.PLP.part.repulsive>
0.2605

> <Gold.PLP.ligand.clash>
0.0000

> <Gold.PLP.ligand.torsion>
0.7881

> <Gold.PLP.Chemscore.Hbond>
0.6240

> <Gold.PLP.Chemscore.CHOScore>
0.0000

> <Gold.PLP.Chemscore.Metal>
0.0000

> <Gold.Chemscore.Hbonds>
donor molecule, donor type, donor heavy atom, donor atom, acceptor molecule, acceptor atom, score
      P1  H  6896  6908       L1    11  0.45

> <Gold.PLP.Chemscore.Internal.Correction>
0.0970

> <Gold.Rescore>
     Score         DG    S(hbond)    S(metal)    S(lipo)     H(rot)  DE(clash)    DE(int)     intcor
      8.74      -9.52       0.51        0.00      73.01       2.42       0.03       0.74       ----

> <Gold.Chemscore.Fitness>
8.7434

> <Gold.Chemscore.DG>
-9.5199

> <Gold.Chemscore.ZeroCoef>
-5.4800

> <Gold.Chemscore.Hbond>
0.5061

> <Gold.Chemscore.Metal>
0.0000

> <Gold.Chemscore.Lipo>
73.0133

> <Gold.Chemscore.Internal_Hbond>
0.0000

> <Gold.Chemscore.DEClash>
0.0348

> <Gold.Chemscore.DEInternal>
0.7417

> <Gold.Chemscore.Rot>
2.4191

> <Gold.Chemscore.Internal.Correction>
   9.000000E+99

> <Gold.Chemscore.Hbonds>
donor molecule, donor type, donor heavy atom, donor atom, acceptor molecule, acceptor atom, score
      P1  H  6896  6908       L1    11  0.13

> <Gold.Chemscore.Hbond.Weighted>
-1.6903

> <Gold.Chemscore.Metal.Weighted>
-0.0000

> <Gold.Chemscore.Lipo.Weighted>
-8.5426

> <Gold.Chemscore.Internal_Hbond.Weighted>
0.0000

> <Gold.Chemscore.DEClash.Weighted>
0.0348

> <Gold.Chemscore.DEInternal.Weighted>
0.7417

> <Gold.Chemscore.Rot.Weighted>
6.1929

> <Gold.Chemscore.Internal.Correction.Weighted>
   9.000000E+99

> <Gold.Protein.RotatedTorsions>
[ 6907 6896 6895 6894 ] final -178.20 input  -60.11 | X-H torsion
[ 7974 7965 7964 7962 ] final -157.64 input  175.53 | X-H torsion
[ 8008 7997 7996 7995 ] final -158.28 input   59.86 | X-H torsion
[ 10167 10162 10161 10158 ] final   45.12 input  -65.29 | X-H torsion
[ 10718 10713 10712 10709 ] final   36.90 input   66.30 | X-H torsion
[ 10763 10752 10751 10750 ] final  -34.96 input  -60.55 | X-H torsion
[ 11005 11000 10999 10996 ] final   -1.63 input  -57.11 | X-H torsion

> <Gold.Protein.ActiveResidues>
 VAL166  LYS551  ARG553  GLY616  TRP617  ASP618  TYR619  PRO620  LYS621  CYS622 
 ASP623  PHE694  ASN695  SER759  ASP760  ASP761  ALA762  ILE779  LEU786  VAL792 
 PHE793  MET794  SER795  GLU796  ALA797  LYS798  CYS799  TRP800  GLU811  SER814 

> <Gold.Protein.RotatedAtoms>
  151.6333  133.3330  159.3113 H   0  0  0  0  0  0  0  0  0  0  0  0  # atno 6907 bound_to 6896
  150.8045  134.7165  159.6643 H   0  0  0  0  0  0  0  0  0  0  0  0  # atno 6908 bound_to 6896
  152.4140  134.6080  160.0069 H   0  0  0  0  0  0  0  0  0  0  0  0  # atno 6909 bound_to 6896
  144.7539  140.3940  143.6027 H   0  0  0  0  0  0  0  0  0  0  0  0  # atno 7974 bound_to 7965
  155.7452  140.0819  157.2227 H   0  0  0  0  0  0  0  0  0  0  0  0  # atno 8008 bound_to 7997
  154.4017  140.1570  156.2717 H   0  0  0  0  0  0  0  0  0  0  0  0  # atno 8009 bound_to 7997
  155.8983  140.3411  155.6010 H   0  0  0  0  0  0  0  0  0  0  0  0  # atno 8010 bound_to 7997
  140.3273  144.2632  150.6173 H   0  0  0  0  0  0  0  0  0  0  0  0  # atno 10167 bound_to 10162
  157.3405  130.7545  149.6908 H   0  0  0  0  0  0  0  0  0  0  0  0  # atno 10718 bound_to 10713
  153.8554  135.6845  153.4788 H   0  0  0  0  0  0  0  0  0  0  0  0  # atno 10763 bound_to 10752
  153.1373  135.4672  154.9440 H   0  0  0  0  0  0  0  0  0  0  0  0  # atno 10764 bound_to 10752
  154.7783  135.3260  154.7993 H   0  0  0  0  0  0  0  0  0  0  0  0  # atno 10765 bound_to 10752
  140.6494  133.9418  155.8371 H   0  0  0  0  0  0  0  0  0  0  0  0  # atno 11005 bound_to 11000
  145.6845  139.1625  143.2682 LP  0  0  0  0  0  0  0  0  0  0  0  0  # atno 17320 bound_to 7965
  146.1526  140.6904  142.9315 LP  0  0  0  0  0  0  0  0  0  0  0  0  # atno 17321 bound_to 7965
  140.5429  143.2220  151.8055 LP  0  0  0  0  0  0  0  0  0  0  0  0  # atno 17342 bound_to 10162
  139.4863  144.4577  151.9579 LP  0  0  0  0  0  0  0  0  0  0  0  0  # atno 17343 bound_to 10162
  155.9707  130.4169  150.4253 LP  0  0  0  0  0  0  0  0  0  0  0  0  # atno 17370 bound_to 10713
  157.2300  131.0502  151.2497 LP  0  0  0  0  0  0  0  0  0  0  0  0  # atno 17371 bound_to 10713
  141.0548  134.0433  157.3737 LP  0  0  0  0  0  0  0  0  0  0  0  0  # atno 17394 bound_to 11000
  139.9051  135.0177  156.7449 LP  0  0  0  0  0  0  0  0  0  0  0  0  # atno 17395 bound_to 11000

$$$$
