AV-unprocessed.smi:1434|AV-procd|sdf|5852|dock6
  -GOLD-   22720 5523D 1   1.00000     0.00000
 Structure written by MMmdl.
 45 46  0  0  0  0  0  0  0  0  2 V2000
  152.7931  137.6537  157.7248 C   0  0  0  0  0  0  0  0  0  0  0  0
  152.0748  138.0297  156.0759 S   0  0  0  0  0  0  0  0  0  0  0  0
  152.5695  139.3386  155.6236 O   0  0  0  0  0  0  0  0  0  0  0  0
  152.2294  136.8443  155.2190 O   0  0  0  0  0  0  0  0  0  0  0  0
  150.3968  138.2062  156.4331 N   0  0  0  0  0  0  0  0  0  0  0  0
  149.7909  139.5318  156.3004 C   0  0  1  0  0  0  0  0  0  0  0  0
  150.5845  140.5699  157.1220 C   0  0  0  0  0  0  0  0  0  0  0  0
  150.0954  142.0055  156.8499 C   0  0  0  0  0  0  0  0  0  0  0  0
  150.0212  142.2880  155.3379 C   0  0  0  0  0  0  0  0  0  0  0  0
  149.1525  141.2769  154.7103 N   0  0  0  0  0  0  0  0  0  0  0  0
  147.8681  141.4635  154.3149 C   0  0  0  0  0  0  0  0  0  0  0  0
  147.1093  140.5384  154.0222 O   0  0  0  0  0  0  0  0  0  0  0  0
  147.4915  142.7488  154.2165 N   0  0  0  0  0  0  0  0  0  0  0  0
  146.1708  143.1915  153.7919 C   0  0  0  0  0  0  0  0  0  0  0  0
  145.1686  143.0996  154.9502 C   0  0  0  0  0  0  0  0  0  0  0  0
  144.3238  144.3526  155.0744 C   0  0  0  0  0  0  0  0  0  0  0  0
  144.4163  145.2133  156.1899 C   0  0  0  0  0  0  0  0  0  0  0  0
  143.6091  146.3692  156.2369 C   0  0  0  0  0  0  0  0  0  0  0  0
  142.7284  146.6401  155.1691 C   0  0  0  0  0  0  0  0  0  0  0  0
  142.6776  145.7474  154.0793 C   0  0  0  0  0  0  0  0  0  0  0  0
  143.4671  144.6507  154.0708 N   0  3  0  0  0  0  0  0  0  0  0  0
  149.7399  139.9355  154.8143 C   0  0  0  0  0  0  0  0  0  0  0  0
  153.8678  137.5021  157.6247 H   0  0  0  0  0  0  0  0  0  0  0  0
  152.3360  136.7482  158.1231 H   0  0  0  0  0  0  0  0  0  0  0  0
  152.6062  138.4852  158.4037 H   0  0  0  0  0  0  0  0  0  0  0  0
  150.1698  137.7904  157.3362 H   0  0  0  0  0  0  0  0  0  0  0  0
  148.7675  139.4849  156.6767 H   0  0  0  0  0  0  0  0  0  0  0  0
  150.5166  140.3488  158.1875 H   0  0  0  0  0  0  0  0  0  0  0  0
  151.6419  140.5045  156.8614 H   0  0  0  0  0  0  0  0  0  0  0  0
  149.1090  142.1450  157.2942 H   0  0  0  0  0  0  0  0  0  0  0  0
  150.7579  142.7229  157.3352 H   0  0  0  0  0  0  0  0  0  0  0  0
  149.6978  143.3151  155.1698 H   0  0  0  0  0  0  0  0  0  0  0  0
  151.0184  142.2250  154.8998 H   0  0  0  0  0  0  0  0  0  0  0  0
  148.1660  143.4614  154.4543 H   0  0  0  0  0  0  0  0  0  0  0  0
  146.2274  144.2205  153.4323 H   0  0  0  0  0  0  0  0  0  0  0  0
  145.8414  142.5738  152.9550 H   0  0  0  0  0  0  0  0  0  0  0  0
  144.5102  142.2409  154.8107 H   0  0  0  0  0  0  0  0  0  0  0  0
  145.6982  142.9327  155.8894 H   0  0  0  0  0  0  0  0  0  0  0  0
  145.0984  144.9945  156.9987 H   0  0  0  0  0  0  0  0  0  0  0  0
  143.6662  147.0405  157.0813 H   0  0  0  0  0  0  0  0  0  0  0  0
  142.1027  147.5206  155.1858 H   0  0  0  0  0  0  0  0  0  0  0  0
  142.0354  145.8764  153.2203 H   0  0  0  0  0  0  0  0  0  0  0  0
  150.7446  139.9486  154.3885 H   0  0  0  0  0  0  0  0  0  0  0  0
  149.1857  139.1933  154.2373 H   0  0  0  0  0  0  0  0  0  0  0  0
  143.4151  144.0198  153.2706 H   0  0  0  0  0  0  0  0  0  0  0  0
  1  2  1  0  0  0  0
  1 23  1  0  0  0  0
  1 24  1  0  0  0  0
  1 25  1  0  0  0  0
  2  3  2  0  0  0  0
  2  4  2  0  0  0  0
  2  5  1  0  0  0  0
  5  6  1  0  0  0  0
  5 26  1  0  0  0  0
  6 22  1  0  0  0  0
  6  7  1  0  0  0  0
  6 27  1  0  0  0  0
  7  8  1  0  0  0  0
  7 28  1  0  0  0  0
  7 29  1  0  0  0  0
  8  9  1  0  0  0  0
  8 30  1  0  0  0  0
  8 31  1  0  0  0  0
  9 10  1  0  0  0  0
  9 32  1  0  0  0  0
  9 33  1  0  0  0  0
 10 11  1  0  0  0  0
 10 22  1  0  0  0  0
 11 12  2  0  0  0  0
 11 13  1  0  0  0  0
 13 14  1  0  0  0  0
 13 34  1  0  0  0  0
 14 15  1  0  0  0  0
 14 35  1  0  0  0  0
 14 36  1  0  0  0  0
 15 16  1  0  0  0  0
 15 37  1  0  0  0  0
 15 38  1  0  0  0  0
 16 21  1  0  0  0  0
 16 17  2  0  0  0  0
 17 18  1  0  0  0  0
 17 39  1  0  0  0  0
 18 19  2  0  0  0  0
 18 40  1  0  0  0  0
 19 20  1  0  0  0  0
 19 41  1  0  0  0  0
 20 21  2  0  0  0  0
 20 42  1  0  0  0  0
 21 45  1  0  0  0  0
 22 43  1  0  0  0  0
 22 44  1  0  0  0  0
M  CHG  1  21   1
M  END
> <s_m_source_file>
AV-unprocessed.smi

> <i_m_source_file_index>
1434

> <i_lp_mmshare_version>
43012

> <i_f3d_flags>
0

> <s_epik_input>
W0NIM11TKD1PKSg9TylbTkhdW0NAQEhdMVtDSDJdW0NIMl1bQ0gyXU4oW0NIMl0xKUMoPU8pW05IXVtDSDJdW0NIMl1jMltjSF1bY0hdW2NIXVtjSF1uMg==

> <s_epik_cmdline>
J2VwaWtfcHl0aG9uJywgJy1waCcsICc3LjAnLCAnLXRuJywgJzgnLCAnLW1hJywgJzIwMCcsICctbWV0YWxfYmluZGluZycsICctaW1hZScsICc8aW5maWxlLm1hZT4nLCAnLW9tYWUnLCAnPG91dGZpbGUubWFlPic=

> <r_epik_Ionization_Penalty>
1.55113

> <r_epik_Ionization_Penalty_Charging>
1.55107

> <r_epik_Ionization_Penalty_Neutral>
6.01346e-05

> <r_epik_State_Penalty>
1.64529

> <r_epik_Charging_Adjusted_Penalty>
3.19637

> <i_epik_Tot_Q>
1

> <i_epik_Tot_abs_Q>
1

> <r_epik_Metal_State_Penalty>
1.69621

> <b_epik_Metal_Only>
0

> <s_lp_Force_Field>
OPLS_2005

> <r_lp_Energy>
28.1725

> <b_lp_Chiralities_Consistent>
1

> <s_lp_Variant>
AV-unprocessed.smi:1434-4

> <Gold.Version>
5.8.1

> <Gold.Id.Protein>
6NUR|6NUR_protein|mol2

> <Gold.PLP.Fitness>
46.2378

> <Gold.PLP.PLP>
-32.7187

> <Gold.PLP.part.hbond>
-3.7041

> <Gold.PLP.part.metal>
0.0000

> <Gold.PLP.part.buried>
-2.7342

> <Gold.PLP.part.nonpolar>
-26.0753

> <Gold.PLP.part.repulsive>
0.4649

> <Gold.PLP.ligand.clash>
0.0000

> <Gold.PLP.ligand.torsion>
0.6928

> <Gold.PLP.Chemscore.Hbond>
4.9120

> <Gold.PLP.Chemscore.CHOScore>
0.0000

> <Gold.PLP.Chemscore.Metal>
0.0000

> <Gold.Chemscore.Hbonds>
donor molecule, donor type, donor heavy atom, donor atom, acceptor molecule, acceptor atom, score
      L1  H    13    34       P1  8028  1.00
      L1  H    21    45       P1 10174  1.98
      P1  H  7997  8008       L1     3  0.99
      P1  H 10752 10764       L1     4  0.91

> <Gold.PLP.Chemscore.Internal.Correction>
0.1687

> <Gold.Rescore>
     Score         DG    S(hbond)    S(metal)    S(lipo)     H(rot)  DE(clash)    DE(int)     intcor
     17.62     -20.67       3.73        0.00      70.00       2.13       0.70       2.34       ----

> <Gold.Chemscore.Fitness>
17.6248

> <Gold.Chemscore.DG>
-20.6650

> <Gold.Chemscore.ZeroCoef>
-5.4800

> <Gold.Chemscore.Hbond>
3.7289

> <Gold.Chemscore.Metal>
0.0000

> <Gold.Chemscore.Lipo>
69.9988

> <Gold.Chemscore.Internal_Hbond>
0.0000

> <Gold.Chemscore.DEClash>
0.7045

> <Gold.Chemscore.DEInternal>
2.3358

> <Gold.Chemscore.Rot>
2.1326

> <Gold.Chemscore.Internal.Correction>
   9.000000E+99

> <Gold.Chemscore.Hbonds>
donor molecule, donor type, donor heavy atom, donor atom, acceptor molecule, acceptor atom, score
      L1  H    13    34       P1  8028  0.89
      L1  H    21    45       P1 10174  0.91
      P1  H  7997  8008       L1     3  0.92
      P1  H 10752 10764       L1     4  0.85

> <Gold.Chemscore.Hbond.Weighted>
-12.4547

> <Gold.Chemscore.Metal.Weighted>
-0.0000

> <Gold.Chemscore.Lipo.Weighted>
-8.1899

> <Gold.Chemscore.Internal_Hbond.Weighted>
0.0000

> <Gold.Chemscore.DEClash.Weighted>
0.7045

> <Gold.Chemscore.DEInternal.Weighted>
2.3358

> <Gold.Chemscore.Rot.Weighted>
5.4595

> <Gold.Chemscore.Internal.Correction.Weighted>
   9.000000E+99

> <Gold.Protein.RotatedTorsions>
[ 6907 6896 6895 6894 ] final -179.02 input  -60.11 | X-H torsion
[ 7974 7965 7964 7962 ] final  115.22 input  175.53 | X-H torsion
[ 8008 7997 7996 7995 ] final  -30.29 input   59.86 | X-H torsion
[ 10167 10162 10161 10158 ] final  -34.63 input  -65.29 | X-H torsion
[ 10718 10713 10712 10709 ] final -140.74 input   66.30 | X-H torsion
[ 10763 10752 10751 10750 ] final  -49.92 input  -60.55 | X-H torsion
[ 11005 11000 10999 10996 ] final -138.89 input  -57.11 | X-H torsion

> <Gold.Protein.ActiveResidues>
 VAL166  LYS551  ARG553  GLY616  TRP617  ASP618  TYR619  PRO620  LYS621  CYS622 
 ASP623  PHE694  ASN695  SER759  ASP760  ASP761  ALA762  ILE779  LEU786  VAL792 
 PHE793  MET794  SER795  GLU796  ALA797  LYS798  CYS799  TRP800  GLU811  SER814 

> <Gold.Protein.RotatedAtoms>
  151.6466  133.3323  159.3142 H   0  0  0  0  0  0  0  0  0  0  0  0  # atno 6907 bound_to 6896
  150.7981  134.7059  159.6586 H   0  0  0  0  0  0  0  0  0  0  0  0  # atno 6908 bound_to 6896
  152.4070  134.6193  160.0098 H   0  0  0  0  0  0  0  0  0  0  0  0  # atno 6909 bound_to 6896
  145.1947  139.2982  143.4349 H   0  0  0  0  0  0  0  0  0  0  0  0  # atno 7974 bound_to 7965
  154.4256  140.1795  156.1384 H   0  0  0  0  0  0  0  0  0  0  0  0  # atno 8008 bound_to 7997
  156.0011  140.3360  155.6822 H   0  0  0  0  0  0  0  0  0  0  0  0  # atno 8009 bound_to 7997
  155.6241  140.0663  157.2660 H   0  0  0  0  0  0  0  0  0  0  0  0  # atno 8010 bound_to 7997
  140.7182  143.3534  151.2109 H   0  0  0  0  0  0  0  0  0  0  0  0  # atno 10167 bound_to 10162
  156.3259  130.7559  151.1667 H   0  0  0  0  0  0  0  0  0  0  0  0  # atno 10718 bound_to 10713
  154.1019  135.6562  153.4870 H   0  0  0  0  0  0  0  0  0  0  0  0  # atno 10763 bound_to 10752
  153.0286  135.5227  154.7278 H   0  0  0  0  0  0  0  0  0  0  0  0  # atno 10764 bound_to 10752
  154.6432  135.2991  155.0047 H   0  0  0  0  0  0  0  0  0  0  0  0  # atno 10765 bound_to 10752
  140.8572  134.2213  157.4728 H   0  0  0  0  0  0  0  0  0  0  0  0  # atno 11005 bound_to 11000
  146.3429  140.2172  142.8591 LP  0  0  0  0  0  0  0  0  0  0  0  0  # atno 17320 bound_to 7965
  145.0006  140.8628  143.5284 LP  0  0  0  0  0  0  0  0  0  0  0  0  # atno 17321 bound_to 7965
  139.7070  143.9439  152.2931 LP  0  0  0  0  0  0  0  0  0  0  0  0  # atno 17342 bound_to 10162
  139.9151  144.6833  150.8521 LP  0  0  0  0  0  0  0  0  0  0  0  0  # atno 17343 bound_to 10162
  157.7421  131.0495  150.5049 LP  0  0  0  0  0  0  0  0  0  0  0  0  # atno 17370 bound_to 10713
  156.5208  130.4161  149.6251 LP  0  0  0  0  0  0  0  0  0  0  0  0  # atno 17371 bound_to 10713
  139.8705  134.9712  156.4729 LP  0  0  0  0  0  0  0  0  0  0  0  0  # atno 17394 bound_to 11000
  140.8724  133.7979  155.9378 LP  0  0  0  0  0  0  0  0  0  0  0  0  # atno 17395 bound_to 11000

$$$$
