AV-unprocessed.smi:1512|AV-procd|sdf|6100|dock4
  -GOLD-   22720 6233D 1   1.00000     0.00000
 Structure written by MMmdl.
 44 46  0  0  0  0  0  0  0  0  3 V2000
  150.2628  141.2551  156.7198 C   0  0  0  0  0  0  0  0  0  0  0  0
  151.3826  141.3728  157.7670 C   0  0  2  0  0  0  0  0  0  0  0  0
  151.4131  140.1339  158.5433 N   0  0  0  0  0  0  0  0  0  0  0  0
  152.4043  139.2287  158.5472 C   0  0  0  0  0  0  0  0  0  0  0  0
  153.4409  139.3540  157.8937 O   0  0  0  0  0  0  0  0  0  0  0  0
  152.1907  138.0077  159.4531 C   0  0  0  0  0  0  0  0  0  0  0  0
  153.2575  137.8323  160.4539 N   0  0  0  0  0  0  0  0  0  0  0  0
  153.5294  138.9290  161.2930 C   0  0  0  0  0  0  0  0  0  0  0  0
  154.4812  138.8812  162.2357 C   0  0  0  0  0  0  0  0  0  0  0  0
  155.2428  137.6640  162.3758 C   0  0  0  0  0  0  0  0  0  0  0  0
  155.0039  136.5985  161.5770 C   0  0  0  0  0  0  0  0  0  0  0  0
  155.8104  135.4141  161.7635 N   0  3  0  0  0  0  0  0  0  0  0  0
  156.6941  135.4262  162.6150 O   0  0  0  0  0  0  0  0  0  0  0  0
  155.5738  134.4294  161.0702 O   0  5  0  0  0  0  0  0  0  0  0  0
  153.9458  136.6519  160.5466 C   0  0  0  0  0  0  0  0  0  0  0  0
  153.6790  135.6988  159.8118 O   0  0  0  0  0  0  0  0  0  0  0  0
  151.1882  142.5925  158.7027 C   0  0  2  0  0  0  0  0  0  0  0  0
  151.2996  143.9532  157.9717 C   0  0  0  0  0  0  0  0  0  0  0  0
  152.3637  144.7099  158.7858 C   0  0  1  0  0  0  0  0  0  0  0  0
  151.7911  145.0792  160.1659 C   0  0  0  0  0  0  0  0  0  0  0  0
  151.7443  143.7190  160.8856 C   0  0  0  0  0  0  0  0  0  0  0  0
  152.2644  142.7461  159.8097 C   0  0  2  0  0  0  0  0  0  0  0  0
  153.3372  143.5911  159.1311 C   0  0  0  0  0  0  0  0  0  0  0  0
  150.2217  142.1312  156.0731 H   0  0  0  0  0  0  0  0  0  0  0  0
  149.2862  141.1468  157.1928 H   0  0  0  0  0  0  0  0  0  0  0  0
  150.4184  140.3875  156.0779 H   0  0  0  0  0  0  0  0  0  0  0  0
  152.3226  141.4960  157.2270 H   0  0  0  0  0  0  0  0  0  0  0  0
  150.6061  139.9458  159.1201 H   0  0  0  0  0  0  0  0  0  0  0  0
  151.2206  138.1144  159.9406 H   0  0  0  0  0  0  0  0  0  0  0  0
  152.1016  137.1102  158.8378 H   0  0  0  0  0  0  0  0  0  0  0  0
  152.9229  139.8058  161.1180 H   0  0  0  0  0  0  0  0  0  0  0  0
  154.6782  139.7343  162.8686 H   0  0  0  0  0  0  0  0  0  0  0  0
  156.0204  137.6211  163.1247 H   0  0  0  0  0  0  0  0  0  0  0  0
  150.2051  142.5050  159.1681 H   0  0  0  0  0  0  0  0  0  0  0  0
  151.6459  143.8298  156.9449 H   0  0  0  0  0  0  0  0  0  0  0  0
  150.3475  144.4841  157.9363 H   0  0  0  0  0  0  0  0  0  0  0  0
  152.8021  145.5544  158.2534 H   0  0  0  0  0  0  0  0  0  0  0  0
  152.4540  145.7680  160.6912 H   0  0  0  0  0  0  0  0  0  0  0  0
  150.8087  145.5475  160.0938 H   0  0  0  0  0  0  0  0  0  0  0  0
  152.4057  143.7234  161.7529 H   0  0  0  0  0  0  0  0  0  0  0  0
  150.7426  143.4634  161.2329 H   0  0  0  0  0  0  0  0  0  0  0  0
  152.6244  141.8089  160.2329 H   0  0  0  0  0  0  0  0  0  0  0  0
  153.7800  143.1135  158.2558 H   0  0  0  0  0  0  0  0  0  0  0  0
  154.1344  143.9043  159.8076 H   0  0  0  0  0  0  0  0  0  0  0  0
  1  2  1  0  0  0  0
  1 24  1  0  0  0  0
  1 25  1  0  0  0  0
  1 26  1  0  0  0  0
  2  3  1  0  0  0  0
  2 17  1  0  0  0  0
  2 27  1  0  0  0  0
  3  4  1  0  0  0  0
  3 28  1  0  0  0  0
  4  5  2  0  0  0  0
  4  6  1  0  0  0  0
  6  7  1  0  0  0  0
  6 29  1  0  0  0  0
  6 30  1  0  0  0  0
  7 15  1  0  0  0  0
  7  8  1  0  0  0  0
  8  9  2  0  0  0  0
  8 31  1  0  0  0  0
  9 10  1  0  0  0  0
  9 32  1  0  0  0  0
 10 11  2  0  0  0  0
 10 33  1  0  0  0  0
 11 12  1  0  0  0  0
 11 15  1  0  0  0  0
 12 13  2  0  0  0  0
 12 14  1  0  0  0  0
 15 16  2  0  0  0  0
 17 22  1  0  0  0  0
 17 18  1  0  0  0  0
 17 34  1  0  0  0  0
 18 19  1  0  0  0  0
 18 35  1  0  0  0  0
 18 36  1  0  0  0  0
 19 23  1  0  0  0  0
 19 20  1  0  0  0  0
 19 37  1  0  0  0  0
 20 21  1  0  0  0  0
 20 38  1  0  0  0  0
 20 39  1  0  0  0  0
 21 22  1  0  0  0  0
 21 40  1  0  0  0  0
 21 41  1  0  0  0  0
 22 23  1  0  0  0  0
 22 42  1  0  0  0  0
 23 43  1  0  0  0  0
 23 44  1  0  0  0  0
M  CHG  1  12   1
M  CHG  1  14  -1
M  END
> <s_m_source_file>
AV-unprocessed.smi

> <i_m_source_file_index>
1512

> <i_lp_mmshare_version>
43012

> <i_f3d_flags>
0

> <s_epik_input>
W0NIMl0xW0NIMl1bQ0BIXShbQ0gyXTIpW0NAQEhdKFtDSDJdW0NAQEhdMTIpW0NASF0oW0NIM10pW05IXUMoPU8pW0NIMl1uM1tjSF1bY0hdW2NIXWMoW04rXSg9TylbTy1dKWMzPU8=

> <s_epik_cmdline>
J2VwaWtfcHl0aG9uJywgJy1waCcsICc3LjAnLCAnLXRuJywgJzgnLCAnLW1hJywgJzIwMCcsICctbWV0YWxfYmluZGluZycsICctaW1hZScsICc8aW5maWxlLm1hZT4nLCAnLW9tYWUnLCAnPG91dGZpbGUubWFlPic=

> <r_lp_tautomer_probability>
1

> <r_epik_Ionization_Penalty>
2.17697e-08

> <r_epik_Ionization_Penalty_Charging>
1.42735e-10

> <r_epik_Ionization_Penalty_Neutral>
2.16269e-08

> <r_epik_State_Penalty>
-0

> <r_epik_Charging_Adjusted_Penalty>
1.42735e-10

> <i_epik_Tot_Q>
0

> <i_epik_Tot_abs_Q>
2

> <r_epik_Metal_State_Penalty>
-0

> <b_epik_Metal_Only>
0

> <s_lp_Force_Field>
OPLS_2005

> <r_lp_Energy>
64.3974

> <b_lp_Chiralities_Consistent>
1

> <s_lp_Variant>
AV-unprocessed.smi:1512-1

> <Gold.Version>
5.8.1

> <Gold.Id.Protein>
6NUR|6NUR_protein|mol2

> <Gold.PLP.Fitness>
47.1584

> <Gold.PLP.PLP>
-41.2623

> <Gold.PLP.part.hbond>
-2.0000

> <Gold.PLP.part.metal>
0.0000

> <Gold.PLP.part.buried>
-5.4192

> <Gold.PLP.part.nonpolar>
-34.6171

> <Gold.PLP.part.repulsive>
0.1408

> <Gold.PLP.ligand.clash>
0.0000

> <Gold.PLP.ligand.torsion>
0.0868

> <Gold.PLP.Chemscore.Hbond>
2.0000

> <Gold.PLP.Chemscore.CHOScore>
0.0000

> <Gold.PLP.Chemscore.Metal>
0.0000

> <Gold.Chemscore.Hbonds>
donor molecule, donor type, donor heavy atom, donor atom, acceptor molecule, acceptor atom, score
      P1  H  6896  6907       L1    16  1.00
      P1  H  7997  8008       L1     5  1.00

> <Gold.PLP.Chemscore.Internal.Correction>
0.0697

> <Gold.Rescore>
     Score         DG    S(hbond)    S(metal)    S(lipo)     H(rot)  DE(clash)    DE(int)     intcor
     20.53     -22.31       1.99        0.00     125.36       1.75       0.04       1.73       ----

> <Gold.Chemscore.Fitness>
20.5339

> <Gold.Chemscore.DG>
-22.3076

> <Gold.Chemscore.ZeroCoef>
-5.4800

> <Gold.Chemscore.Hbond>
1.9863

> <Gold.Chemscore.Metal>
0.0000

> <Gold.Chemscore.Lipo>
125.3552

> <Gold.Chemscore.Internal_Hbond>
0.0000

> <Gold.Chemscore.DEClash>
0.0406

> <Gold.Chemscore.DEInternal>
1.7331

> <Gold.Chemscore.Rot>
1.7474

> <Gold.Chemscore.Internal.Correction>
   9.000000E+99

> <Gold.Chemscore.Hbonds>
donor molecule, donor type, donor heavy atom, donor atom, acceptor molecule, acceptor atom, score
      P1  H  6896  6907       L1    16  0.97
      P1  H  7997  8008       L1     5  0.98

> <Gold.Chemscore.Hbond.Weighted>
-6.6344

> <Gold.Chemscore.Metal.Weighted>
-0.0000

> <Gold.Chemscore.Lipo.Weighted>
-14.6666

> <Gold.Chemscore.Internal_Hbond.Weighted>
0.0000

> <Gold.Chemscore.DEClash.Weighted>
0.0406

> <Gold.Chemscore.DEInternal.Weighted>
1.7331

> <Gold.Chemscore.Rot.Weighted>
4.4733

> <Gold.Chemscore.Internal.Correction.Weighted>
   9.000000E+99

> <Gold.Protein.RotatedTorsions>
[ 6907 6896 6895 6894 ] final   47.25 input  -60.11 | X-H torsion
[ 7974 7965 7964 7962 ] final  -23.24 input  175.53 | X-H torsion
[ 8008 7997 7996 7995 ] final  -82.16 input   59.86 | X-H torsion
[ 10167 10162 10161 10158 ] final -104.19 input  -65.29 | X-H torsion
[ 10718 10713 10712 10709 ] final  166.76 input   66.30 | X-H torsion
[ 10763 10752 10751 10750 ] final    6.32 input  -60.55 | X-H torsion
[ 11005 11000 10999 10996 ] final   73.81 input  -57.11 | X-H torsion

> <Gold.Protein.ActiveResidues>
 VAL166  LYS551  ARG553  GLY616  TRP617  ASP618  TYR619  PRO620  LYS621  CYS622 
 ASP623  PHE694  ASN695  SER759  ASP760  ASP761  ALA762  ILE779  LEU786  VAL792 
 PHE793  MET794  SER795  GLU796  ALA797  LYS798  CYS799  TRP800  GLU811  SER814 

> <Gold.Protein.RotatedAtoms>
  152.2659  134.7985  160.0422 H   0  0  0  0  0  0  0  0  0  0  0  0  # atno 6907 bound_to 6896
  151.8614  133.3453  159.3713 H   0  0  0  0  0  0  0  0  0  0  0  0  # atno 6908 bound_to 6896
  150.7133  134.5130  159.5660 H   0  0  0  0  0  0  0  0  0  0  0  0  # atno 6909 bound_to 6896
  146.1628  140.4589  142.8564 H   0  0  0  0  0  0  0  0  0  0  0  0  # atno 7974 bound_to 7965
  154.6057  140.0637  156.9428 H   0  0  0  0  0  0  0  0  0  0  0  0  # atno 8008 bound_to 7997
  155.2057  140.3318  155.4318 H   0  0  0  0  0  0  0  0  0  0  0  0  # atno 8009 bound_to 7997
  156.2346  140.1857  156.7137 H   0  0  0  0  0  0  0  0  0  0  0  0  # atno 8010 bound_to 7997
  140.2120  143.3740  152.1043 H   0  0  0  0  0  0  0  0  0  0  0  0  # atno 10167 bound_to 10162
  157.0613  131.0340  151.2646 H   0  0  0  0  0  0  0  0  0  0  0  0  # atno 10718 bound_to 10713
  153.2491  135.6911  153.7699 H   0  0  0  0  0  0  0  0  0  0  0  0  # atno 10763 bound_to 10752
  153.6800  135.3330  155.3176 H   0  0  0  0  0  0  0  0  0  0  0  0  # atno 10764 bound_to 10752
  154.8387  135.4520  154.1441 H   0  0  0  0  0  0  0  0  0  0  0  0  # atno 10765 bound_to 10752
  139.9421  134.7379  156.1072 H   0  0  0  0  0  0  0  0  0  0  0  0  # atno 11005 bound_to 11000
  144.8050  140.6283  143.6453 LP  0  0  0  0  0  0  0  0  0  0  0  0  # atno 17320 bound_to 7965
  145.4545  139.1519  143.3900 LP  0  0  0  0  0  0  0  0  0  0  0  0  # atno 17321 bound_to 7965
  139.5176  144.6994  151.5536 LP  0  0  0  0  0  0  0  0  0  0  0  0  # atno 17342 bound_to 10162
  140.6317  143.9063  150.6611 LP  0  0  0  0  0  0  0  0  0  0  0  0  # atno 17343 bound_to 10162
  157.4953  130.7846  149.7548 LP  0  0  0  0  0  0  0  0  0  0  0  0  # atno 17370 bound_to 10713
  155.9978  130.3898  150.2728 LP  0  0  0  0  0  0  0  0  0  0  0  0  # atno 17371 bound_to 10713
  141.1060  133.6660  156.2864 LP  0  0  0  0  0  0  0  0  0  0  0  0  # atno 17394 bound_to 11000
  140.5925  134.5636  157.5502 LP  0  0  0  0  0  0  0  0  0  0  0  0  # atno 17395 bound_to 11000

$$$$
