AV-unprocessed.smi:285|AV-procd|sdf|2172|dock5
  -GOLD-   2262021533D 1   1.00000     0.00000
 Structure written by MMmdl.
 31 33  0  0  0  0  0  0  0  0  1 V2000
  142.7263  135.2339  152.3482 N   0  0  0  0  0  0  0  0  0  0  0  0
  143.8676  135.8531  152.0149 C   0  0  0  0  0  0  0  0  0  0  0  0
  144.4158  135.5841  150.8069 N   0  0  0  0  0  0  0  0  0  0  0  0
  145.5552  136.1863  150.4509 C   0  0  0  0  0  0  0  0  0  0  0  0
  146.2867  137.0659  151.1402 N   0  0  0  0  0  0  0  0  0  0  0  0
  145.7324  137.3396  152.3580 C   0  0  0  0  0  0  0  0  0  0  0  0
  144.5268  136.7739  152.8682 C   0  0  0  0  0  0  0  0  0  0  0  0
  144.2628  137.2719  154.1381 N   0  0  0  0  0  0  0  0  0  0  0  0
  145.2654  138.0796  154.3439 C   0  0  0  0  0  0  0  0  0  0  0  0
  145.4092  139.0355  155.9853 Br  0  0  0  0  0  0  0  0  0  0  0  0
  146.2000  138.1921  153.3390 N   0  0  0  0  0  0  0  0  0  0  0  0
  147.4377  139.0309  153.2928 C   0  0  1  0  0  0  0  0  0  0  0  0
  147.0994  140.5150  153.4238 C   0  0  0  0  0  0  0  0  0  0  0  0
  148.3187  141.0327  154.1562 C   0  0  2  0  0  0  0  0  0  0  0  0
  149.3680  141.3126  153.2463 O   0  0  0  0  0  0  0  0  0  0  0  0
  148.6480  139.8581  155.0928 C   0  0  2  0  0  0  0  0  0  0  0  0
  150.1160  139.7655  155.5463 C   0  0  0  0  0  0  0  0  0  0  0  0
  150.9717  139.6990  154.4255 O   0  0  0  0  0  0  0  0  0  0  0  0
  148.2575  138.6896  154.3698 O   0  0  0  0  0  0  0  0  0  0  0  0
  142.2980  135.4166  153.2444 H   0  0  0  0  0  0  0  0  0  0  0  0
  142.2970  134.5867  151.7029 H   0  0  0  0  0  0  0  0  0  0  0  0
  145.9364  135.9259  149.4745 H   0  0  0  0  0  0  0  0  0  0  0  0
  147.9412  138.7829  152.3588 H   0  0  0  0  0  0  0  0  0  0  0  0
  146.9239  140.9736  152.4498 H   0  0  0  0  0  0  0  0  0  0  0  0
  146.2098  140.6424  154.0421 H   0  0  0  0  0  0  0  0  0  0  0  0
  148.0983  141.9431  154.7143 H   0  0  0  0  0  0  0  0  0  0  0  0
  149.4367  140.5949  152.6354 H   0  0  0  0  0  0  0  0  0  0  0  0
  147.9954  139.9405  155.9639 H   0  0  0  0  0  0  0  0  0  0  0  0
  150.3891  140.6081  156.1825 H   0  0  0  0  0  0  0  0  0  0  0  0
  150.2737  138.8553  156.1256 H   0  0  0  0  0  0  0  0  0  0  0  0
  151.6159  139.0245  154.5779 H   0  0  0  0  0  0  0  0  0  0  0  0
  1  2  1  0  0  0  0
  1 20  1  0  0  0  0
  1 21  1  0  0  0  0
  2  7  1  0  0  0  0
  2  3  2  0  0  0  0
  3  4  1  0  0  0  0
  4  5  2  0  0  0  0
  4 22  1  0  0  0  0
  5  6  1  0  0  0  0
  6 11  1  0  0  0  0
  6  7  2  0  0  0  0
  7  8  1  0  0  0  0
  8  9  2  0  0  0  0
  9 10  1  0  0  0  0
  9 11  1  0  0  0  0
 11 12  1  0  0  0  0
 12 19  1  0  0  0  0
 12 13  1  0  0  0  0
 12 23  1  0  0  0  0
 13 14  1  0  0  0  0
 13 24  1  0  0  0  0
 13 25  1  0  0  0  0
 14 15  1  0  0  0  0
 14 16  1  0  0  0  0
 14 26  1  0  0  0  0
 15 27  1  0  0  0  0
 16 17  1  0  0  0  0
 16 19  1  0  0  0  0
 16 28  1  0  0  0  0
 17 18  1  0  0  0  0
 17 29  1  0  0  0  0
 17 30  1  0  0  0  0
 18 31  1  0  0  0  0
M  END
> <s_m_source_file>
AV-unprocessed.smi

> <i_m_source_file_index>
285

> <i_lp_mmshare_version>
43012

> <i_f3d_flags>
0

> <s_epik_input>
bjFbY0hdbmMoW05IMl0pYyhjMTIpbmMoQnIpbjJbQ0BASF0zW0NIMl1bQ0BASF0oW09IXSlbQ0BIXShPMylbQ0gyXVtPSF0=

> <s_epik_cmdline>
J2VwaWtfcHl0aG9uJywgJy1waCcsICc3LjAnLCAnLXRuJywgJzgnLCAnLW1hJywgJzIwMCcsICctbWV0YWxfYmluZGluZycsICctaW1hZScsICc8aW5maWxlLm1hZT4nLCAnLW9tYWUnLCAnPG91dGZpbGUubWFlPic=

> <r_lp_tautomer_probability>
1

> <r_epik_Ionization_Penalty>
0.000103242

> <r_epik_Ionization_Penalty_Charging>
0

> <r_epik_Ionization_Penalty_Neutral>
0.000103242

> <r_epik_State_Penalty>
-0

> <r_epik_Charging_Adjusted_Penalty>
0

> <i_epik_Tot_Q>
0

> <i_epik_Tot_abs_Q>
0

> <r_epik_Metal_State_Penalty>
-0

> <b_epik_Metal_Only>
0

> <s_epik_Chemistry_Notes>
This compound contains an acetal/aminal-like group ( X-CH(R)-Y where X, Y are N, S, or O) that may be acid/base labile, releasing an aldehyde.

> <s_lp_Force_Field>
OPLS_2005

> <r_lp_Energy>
37.1806

> <b_lp_Chiralities_Consistent>
1

> <s_lp_Variant>
AV-unprocessed.smi:285-8

> <Gold.Version>
5.8.1

> <Gold.Id.Protein>
6NUR|6NUR_protein|mol2

> <Gold.PLP.Fitness>
33.0994

> <Gold.PLP.PLP>
-21.2606

> <Gold.PLP.part.hbond>
-3.3707

> <Gold.PLP.part.metal>
0.0000

> <Gold.PLP.part.buried>
-2.6219

> <Gold.PLP.part.nonpolar>
-17.1636

> <Gold.PLP.part.repulsive>
2.9677

> <Gold.PLP.ligand.clash>
0.0000

> <Gold.PLP.ligand.torsion>
0.0087

> <Gold.PLP.Chemscore.Hbond>
2.9510

> <Gold.PLP.Chemscore.CHOScore>
1.0000

> <Gold.PLP.Chemscore.Metal>
0.0000

> <Gold.Chemscore.Hbonds>
donor molecule, donor type, donor heavy atom, donor atom, acceptor molecule, acceptor atom, score
      L1  H    15    27       P1  7957  1.00
      P1  H  7954  7966       L1     5  0.11
      P1  H  7989  7998       L1    18  1.00
      P1  H  8011  8017       L1    15  0.82
      L1  C     4    22       P1  7921  1.00

> <Gold.PLP.Chemscore.Internal.Correction>
0.0032

> <Gold.Rescore>
     Score         DG    S(hbond)    S(metal)    S(lipo)     H(rot)  DE(clash)    DE(int)     intcor
      7.35      -9.63       2.57        0.00      29.09       3.06       2.27       0.01       ----

> <Gold.Chemscore.Fitness>
7.3516

> <Gold.Chemscore.DG>
-9.6319

> <Gold.Chemscore.ZeroCoef>
-5.4800

> <Gold.Chemscore.Hbond>
2.5698

> <Gold.Chemscore.Metal>
0.0000

> <Gold.Chemscore.Lipo>
29.0943

> <Gold.Chemscore.Internal_Hbond>
0.0000

> <Gold.Chemscore.DEClash>
2.2700

> <Gold.Chemscore.DEInternal>
0.0104

> <Gold.Chemscore.Rot>
3.0607

> <Gold.Chemscore.Internal.Correction>
   9.000000E+99

> <Gold.Chemscore.Hbonds>
donor molecule, donor type, donor heavy atom, donor atom, acceptor molecule, acceptor atom, score
      L1  H    15    27       P1  7957  0.92
      P1  H  7954  7966       L1     5  0.12
      P1  H  7989  7998       L1    18  0.70
      P1  H  8011  8017       L1    15  0.15

> <Gold.Chemscore.Hbond.Weighted>
-8.5832

> <Gold.Chemscore.Metal.Weighted>
-0.0000

> <Gold.Chemscore.Lipo.Weighted>
-3.4040

> <Gold.Chemscore.Internal_Hbond.Weighted>
0.0000

> <Gold.Chemscore.DEClash.Weighted>
2.2700

> <Gold.Chemscore.DEInternal.Weighted>
0.0104

> <Gold.Chemscore.Rot.Weighted>
7.8354

> <Gold.Chemscore.Internal.Correction.Weighted>
   9.000000E+99

> <Gold.Protein.RotatedTorsions>
[ 6907 6896 6895 6894 ] final -123.09 input  -60.11 | X-H torsion
[ 7974 7965 7964 7962 ] final  171.97 input  175.53 | X-H torsion
[ 8008 7997 7996 7995 ] final  135.16 input   59.86 | X-H torsion
[ 10167 10162 10161 10158 ] final  -69.84 input  -65.29 | X-H torsion
[ 10718 10713 10712 10709 ] final -160.75 input   66.30 | X-H torsion
[ 10763 10752 10751 10750 ] final    6.96 input  -60.55 | X-H torsion
[ 11005 11000 10999 10996 ] final -148.52 input  -57.11 | X-H torsion

> <Gold.Protein.ActiveResidues>
 VAL166  LYS551  ARG553  GLY616  TRP617  ASP618  TYR619  PRO620  LYS621  CYS622 
 ASP623  PHE694  ASN695  SER759  ASP760  ASP761  ALA762  ILE779  LEU786  VAL792 
 PHE793  MET794  SER795  GLU796  ALA797  LYS798  CYS799  TRP800  GLU811  SER814 

> <Gold.Protein.RotatedAtoms>
  150.8637  133.7606  159.2983 H   0  0  0  0  0  0  0  0  0  0  0  0  # atno 6907 bound_to 6896
  151.5240  135.1066  159.9895 H   0  0  0  0  0  0  0  0  0  0  0  0  # atno 6908 bound_to 6896
  152.4645  133.7849  159.6926 H   0  0  0  0  0  0  0  0  0  0  0  0  # atno 6909 bound_to 6896
  144.7280  139.9429  143.6429 H   0  0  0  0  0  0  0  0  0  0  0  0  # atno 7974 bound_to 7965
  156.3002  140.2478  156.3536 H   0  0  0  0  0  0  0  0  0  0  0  0  # atno 8008 bound_to 7997
  154.8943  140.0408  157.1876 H   0  0  0  0  0  0  0  0  0  0  0  0  # atno 8009 bound_to 7997
  154.8566  140.2914  155.5569 H   0  0  0  0  0  0  0  0  0  0  0  0  # atno 8010 bound_to 7997
  140.5400  143.2315  151.7107 H   0  0  0  0  0  0  0  0  0  0  0  0  # atno 10167 bound_to 10162
  156.5865  130.8752  151.2878 H   0  0  0  0  0  0  0  0  0  0  0  0  # atno 10718 bound_to 10713
  153.2417  135.6904  153.7776 H   0  0  0  0  0  0  0  0  0  0  0  0  # atno 10763 bound_to 10752
  153.6903  135.3314  155.3201 H   0  0  0  0  0  0  0  0  0  0  0  0  # atno 10764 bound_to 10752
  154.8358  135.4543  154.1341 H   0  0  0  0  0  0  0  0  0  0  0  0  # atno 10765 bound_to 10752
  140.7604  134.3305  157.5103 H   0  0  0  0  0  0  0  0  0  0  0  0  # atno 11005 bound_to 11000
  146.0771  139.3759  143.0487 LP  0  0  0  0  0  0  0  0  0  0  0  0  # atno 17320 bound_to 7965
  145.7891  140.9822  143.1058 LP  0  0  0  0  0  0  0  0  0  0  0  0  # atno 17321 bound_to 7965
  139.4985  144.3984  152.0207 LP  0  0  0  0  0  0  0  0  0  0  0  0  # atno 17342 bound_to 10162
  140.3092  144.3557  150.6038 LP  0  0  0  0  0  0  0  0  0  0  0  0  # atno 17343 bound_to 10162
  157.7314  130.9699  150.1878 LP  0  0  0  0  0  0  0  0  0  0  0  0  # atno 17370 bound_to 10713
  156.2586  130.3708  149.8155 LP  0  0  0  0  0  0  0  0  0  0  0  0  # atno 17371 bound_to 10713
  139.8772  134.9198  156.3236 LP  0  0  0  0  0  0  0  0  0  0  0  0  # atno 17394 bound_to 11000
  140.9668  133.7353  156.0478 LP  0  0  0  0  0  0  0  0  0  0  0  0  # atno 17395 bound_to 11000

$$$$
