AV-unprocessed.smi:2253|AV-procd|sdf|9120|dock8
  -GOLD-   2272012323D 1   1.00000     0.00000
 Structure written by MMmdl.
 51 53  0  0  0  0  0  0  0  0  2 V2000
  143.0337  135.3506  154.3614 C   0  0  0  0  0  0  0  0  0  0  0  0
  143.9489  134.4164  155.0515 N   0  3  2  0  0  0  0  0  0  0  0  0
  144.0288  134.6799  156.5096 C   0  0  0  0  0  0  0  0  0  0  0  0
  144.9299  133.6487  157.2128 C   0  0  0  0  0  0  0  0  0  0  0  0
  146.3610  133.6298  156.6163 C   0  0  2  0  0  0  0  0  0  0  0  0
  147.1400  134.8600  156.8889 N   0  0  0  0  0  0  0  0  0  0  0  0
  148.4960  134.7751  156.3203 C   0  0  0  0  0  0  0  0  0  0  0  0
  149.2814  136.0830  156.5175 C   0  0  0  0  0  0  0  0  0  0  0  0
  149.4100  136.4283  158.0054 C   0  0  0  0  0  0  0  0  0  0  0  0
  150.0507  137.7271  158.1905 N   0  0  0  0  0  0  0  0  0  0  0  0
  151.1667  137.9422  158.9022 C   0  0  0  0  0  0  0  0  0  0  0  0
  151.7816  137.0459  159.4787 O   0  0  0  0  0  0  0  0  0  0  0  0
  151.4999  139.2449  158.8944 N   0  0  0  0  0  0  0  0  0  0  0  0
  152.5819  139.9126  159.5347 C   0  0  0  0  0  0  0  0  0  0  0  0
  153.6745  139.2663  160.1643 C   0  0  0  0  0  0  0  0  0  0  0  0
  154.6780  140.0589  160.7575 C   0  0  0  0  0  0  0  0  0  0  0  0
  154.6592  141.4083  160.7570 N   0  0  0  0  0  0  0  0  0  0  0  0
  153.6206  142.0215  160.1518 C   0  0  0  0  0  0  0  0  0  0  0  0
  152.5658  141.3240  159.5299 C   0  0  0  0  0  0  0  0  0  0  0  0
  151.5530  142.0041  158.9397 F   0  0  0  0  0  0  0  0  0  0  0  0
  148.0059  136.4404  158.6145 C   0  0  0  0  0  0  0  0  0  0  0  0
  147.2669  135.1202  158.3330 C   0  0  0  0  0  0  0  0  0  0  0  0
  146.1932  133.3289  155.1046 C   0  0  0  0  0  0  0  0  0  0  0  0
  145.2869  134.3629  154.4124 C   0  0  0  0  0  0  0  0  0  0  0  0
  143.3983  136.3765  154.4288 H   0  0  0  0  0  0  0  0  0  0  0  0
  142.0379  135.3120  154.8039 H   0  0  0  0  0  0  0  0  0  0  0  0
  142.9394  135.0894  153.3070 H   0  0  0  0  0  0  0  0  0  0  0  0
  144.4054  135.6894  156.6819 H   0  0  0  0  0  0  0  0  0  0  0  0
  143.0268  134.6386  156.9385 H   0  0  0  0  0  0  0  0  0  0  0  0
  144.9159  133.7909  158.2912 H   0  0  0  0  0  0  0  0  0  0  0  0
  144.4875  132.6610  157.0743 H   0  0  0  0  0  0  0  0  0  0  0  0
  146.9036  132.7990  157.0705 H   0  0  0  0  0  0  0  0  0  0  0  0
  149.0364  133.9379  156.7650 H   0  0  0  0  0  0  0  0  0  0  0  0
  148.4647  134.6016  155.2481 H   0  0  0  0  0  0  0  0  0  0  0  0
  150.2701  135.9855  156.0679 H   0  0  0  0  0  0  0  0  0  0  0  0
  148.7788  136.8924  155.9856 H   0  0  0  0  0  0  0  0  0  0  0  0
  149.9991  135.6576  158.5065 H   0  0  0  0  0  0  0  0  0  0  0  0
  149.6073  138.5194  157.7495 H   0  0  0  0  0  0  0  0  0  0  0  0
  150.8751  139.8513  158.3835 H   0  0  0  0  0  0  0  0  0  0  0  0
  153.7743  138.1937  160.2056 H   0  0  0  0  0  0  0  0  0  0  0  0
  155.5218  139.5934  161.2448 H   0  0  0  0  0  0  0  0  0  0  0  0
  153.6299  143.1013  160.1631 H   0  0  0  0  0  0  0  0  0  0  0  0
  148.0687  136.6027  159.6912 H   0  0  0  0  0  0  0  0  0  0  0  0
  147.4271  137.2723  158.2096 H   0  0  0  0  0  0  0  0  0  0  0  0
  146.2906  135.2184  158.8005 H   0  0  0  0  0  0  0  0  0  0  0  0
  147.7763  134.2874  158.8206 H   0  0  0  0  0  0  0  0  0  0  0  0
  147.1391  133.2301  154.5769 H   0  0  0  0  0  0  0  0  0  0  0  0
  145.7309  132.3463  154.9989 H   0  0  0  0  0  0  0  0  0  0  0  0
  145.1732  134.0987  153.3605 H   0  0  0  0  0  0  0  0  0  0  0  0
  145.7502  135.3505  154.4416 H   0  0  0  0  0  0  0  0  0  0  0  0
  143.5479  133.4948  154.9503 H   0  0  0  0  0  0  0  0  0  0  0  0
  1  2  1  0  0  0  0
  1 25  1  0  0  0  0
  1 26  1  0  0  0  0
  1 27  1  0  0  0  0
  2 24  1  0  0  0  0
  2  3  1  0  0  0  0
  2 51  1  0  0  0  0
  3  4  1  0  0  0  0
  3 28  1  0  0  0  0
  3 29  1  0  0  0  0
  4  5  1  0  0  0  0
  4 30  1  0  0  0  0
  4 31  1  0  0  0  0
  5  6  1  0  0  0  0
  5 23  1  0  0  0  0
  5 32  1  0  0  0  0
  6 22  1  0  0  0  0
  6  7  1  0  0  0  0
  7  8  1  0  0  0  0
  7 33  1  0  0  0  0
  7 34  1  0  0  0  0
  8  9  1  0  0  0  0
  8 35  1  0  0  0  0
  8 36  1  0  0  0  0
  9 10  1  0  0  0  0
  9 21  1  0  0  0  0
  9 37  1  0  0  0  0
 10 11  1  0  0  0  0
 10 38  1  0  0  0  0
 11 12  2  0  0  0  0
 11 13  1  0  0  0  0
 13 14  1  0  0  0  0
 13 39  1  0  0  0  0
 14 19  1  0  0  0  0
 14 15  2  0  0  0  0
 15 16  1  0  0  0  0
 15 40  1  0  0  0  0
 16 17  2  0  0  0  0
 16 41  1  0  0  0  0
 17 18  1  0  0  0  0
 18 19  2  0  0  0  0
 18 42  1  0  0  0  0
 19 20  1  0  0  0  0
 21 22  1  0  0  0  0
 21 43  1  0  0  0  0
 21 44  1  0  0  0  0
 22 45  1  0  0  0  0
 22 46  1  0  0  0  0
 23 24  1  0  0  0  0
 23 47  1  0  0  0  0
 23 48  1  0  0  0  0
 24 49  1  0  0  0  0
 24 50  1  0  0  0  0
M  CHG  1   2   1
M  END
> <s_m_source_file>
AV-unprocessed.smi

> <i_m_source_file_index>
2253

> <i_lp_mmshare_version>
43012

> <i_f3d_flags>
0

> <s_epik_input>
W0NIM11OMVtDSDJdW0NIMl1bQ0hdKFtDSDJdW0NIMl0xKU4yW0NIMl1bQ0gyXVtDSF0oW0NIMl1bQ0gyXTIpW05IXUMoPU8pW05IXWMzW2NIXVtjSF1uW2NIXWMzRg==

> <s_epik_cmdline>
J2VwaWtfcHl0aG9uJywgJy1waCcsICc3LjAnLCAnLXRuJywgJzgnLCAnLW1hJywgJzIwMCcsICctbWV0YWxfYmluZGluZycsICctaW1hZScsICc8aW5maWxlLm1hZT4nLCAnLW9tYWUnLCAnPG91dGZpbGUubWFlPic=

> <r_epik_Ionization_Penalty>
1.01315

> <r_epik_Ionization_Penalty_Charging>
0.000974969

> <r_epik_Ionization_Penalty_Neutral>
1.01217

> <r_epik_State_Penalty>
1.10286

> <r_epik_Charging_Adjusted_Penalty>
1.10383

> <i_epik_Tot_Q>
1

> <i_epik_Tot_abs_Q>
1

> <r_epik_Metal_State_Penalty>
1.10232

> <b_epik_Metal_Only>
0

> <s_lp_Force_Field>
OPLS_2005

> <r_lp_Energy>
40.3277

> <b_lp_Chiralities_Consistent>
1

> <s_lp_Variant>
AV-unprocessed.smi:2253-6

> <Gold.Version>
5.8.1

> <Gold.Id.Protein>
6NUR|6NUR_protein|mol2

> <Gold.PLP.Fitness>
34.6915

> <Gold.PLP.PLP>
-25.7555

> <Gold.PLP.part.hbond>
-3.0000

> <Gold.PLP.part.metal>
0.0000

> <Gold.PLP.part.buried>
-4.8760

> <Gold.PLP.part.nonpolar>
-17.3350

> <Gold.PLP.part.repulsive>
0.2418

> <Gold.PLP.ligand.clash>
0.0000

> <Gold.PLP.ligand.torsion>
0.0329

> <Gold.PLP.Chemscore.Hbond>
3.0000

> <Gold.PLP.Chemscore.CHOScore>
0.0000

> <Gold.PLP.Chemscore.Metal>
0.0000

> <Gold.Chemscore.Hbonds>
donor molecule, donor type, donor heavy atom, donor atom, acceptor molecule, acceptor atom, score
      L1  H     2    51       P1 10957  2.00
      P1  H  6896  6909       L1    12  1.00

> <Gold.PLP.Chemscore.Internal.Correction>
0.0018

> <Gold.Rescore>
     Score         DG    S(hbond)    S(metal)    S(lipo)     H(rot)  DE(clash)    DE(int)     intcor
     14.96     -16.12       1.99        0.00      61.49       1.24       0.07       1.10       ----

> <Gold.Chemscore.Fitness>
14.9574

> <Gold.Chemscore.DG>
-16.1240

> <Gold.Chemscore.ZeroCoef>
-5.4800

> <Gold.Chemscore.Hbond>
1.9862

> <Gold.Chemscore.Metal>
0.0000

> <Gold.Chemscore.Lipo>
61.4937

> <Gold.Chemscore.Internal_Hbond>
0.0000

> <Gold.Chemscore.DEClash>
0.0650

> <Gold.Chemscore.DEInternal>
1.1015

> <Gold.Chemscore.Rot>
1.2440

> <Gold.Chemscore.Internal.Correction>
   9.000000E+99

> <Gold.Chemscore.Hbonds>
donor molecule, donor type, donor heavy atom, donor atom, acceptor molecule, acceptor atom, score
      L1  H     2    51       P1 10957  0.99
      P1  H  6896  6909       L1    12  0.95

> <Gold.Chemscore.Hbond.Weighted>
-6.6339

> <Gold.Chemscore.Metal.Weighted>
-0.0000

> <Gold.Chemscore.Lipo.Weighted>
-7.1948

> <Gold.Chemscore.Internal_Hbond.Weighted>
0.0000

> <Gold.Chemscore.DEClash.Weighted>
0.0650

> <Gold.Chemscore.DEInternal.Weighted>
1.1015

> <Gold.Chemscore.Rot.Weighted>
3.1847

> <Gold.Chemscore.Internal.Correction.Weighted>
   9.000000E+99

> <Gold.Protein.RotatedTorsions>
[ 6907 6896 6895 6894 ] final  107.64 input  -60.11 | X-H torsion
[ 7974 7965 7964 7962 ] final  -52.44 input  175.53 | X-H torsion
[ 8008 7997 7996 7995 ] final  177.15 input   59.86 | X-H torsion
[ 10167 10162 10161 10158 ] final   37.18 input  -65.29 | X-H torsion
[ 10718 10713 10712 10709 ] final    7.12 input   66.30 | X-H torsion
[ 10763 10752 10751 10750 ] final -156.19 input  -60.55 | X-H torsion
[ 11005 11000 10999 10996 ] final  -17.96 input  -57.11 | X-H torsion

> <Gold.Protein.ActiveResidues>
 VAL166  LYS551  ARG553  GLY616  TRP617  ASP618  TYR619  PRO620  LYS621  CYS622 
 ASP623  PHE694  ASN695  SER759  ASP760  ASP761  ALA762  ILE779  LEU786  VAL792 
 PHE793  MET794  SER795  GLU796  ALA797  LYS798  CYS799  TRP800  GLU811  SER814 

> <Gold.Protein.RotatedAtoms>
  152.5146  133.9204  159.7531 H   0  0  0  0  0  0  0  0  0  0  0  0  # atno 6907 bound_to 6896
  150.9577  133.6471  159.2767 H   0  0  0  0  0  0  0  0  0  0  0  0  # atno 6908 bound_to 6896
  151.3726  135.0930  159.9523 H   0  0  0  0  0  0  0  0  0  0  0  0  # atno 6909 bound_to 6896
  145.9079  140.7940  142.9710 H   0  0  0  0  0  0  0  0  0  0  0  0  # atno 7974 bound_to 7965
  156.0688  140.1366  156.9853 H   0  0  0  0  0  0  0  0  0  0  0  0  # atno 8008 bound_to 7997
  154.4520  140.0976  156.6699 H   0  0  0  0  0  0  0  0  0  0  0  0  # atno 8009 bound_to 7997
  155.5261  140.3457  155.4419 H   0  0  0  0  0  0  0  0  0  0  0  0  # atno 8010 bound_to 7997
  140.4057  144.1662  150.6136 H   0  0  0  0  0  0  0  0  0  0  0  0  # atno 10167 bound_to 10162
  156.9322  130.5830  149.5650 H   0  0  0  0  0  0  0  0  0  0  0  0  # atno 10718 bound_to 10713
  154.7731  135.3151  154.8148 H   0  0  0  0  0  0  0  0  0  0  0  0  # atno 10763 bound_to 10752
  153.8878  135.6828  153.4767 H   0  0  0  0  0  0  0  0  0  0  0  0  # atno 10764 bound_to 10752
  153.1349  135.4764  154.9342 H   0  0  0  0  0  0  0  0  0  0  0  0  # atno 10765 bound_to 10752
  140.8220  133.8061  155.9669 H   0  0  0  0  0  0  0  0  0  0  0  0  # atno 11005 bound_to 11000
  144.6741  140.1779  143.7408 LP  0  0  0  0  0  0  0  0  0  0  0  0  # atno 17320 bound_to 7965
  145.8709  139.2271  143.1661 LP  0  0  0  0  0  0  0  0  0  0  0  0  # atno 17321 bound_to 7965
  140.4692  143.2419  151.9113 LP  0  0  0  0  0  0  0  0  0  0  0  0  # atno 17342 bound_to 10162
  139.4783  144.5387  151.8560 LP  0  0  0  0  0  0  0  0  0  0  0  0  # atno 17343 bound_to 10162
  156.0442  130.5521  150.8842 LP  0  0  0  0  0  0  0  0  0  0  0  0  # atno 17370 bound_to 10713
  157.5839  131.0946  150.9227 LP  0  0  0  0  0  0  0  0  0  0  0  0  # atno 17371 bound_to 10713
  140.9089  134.2286  157.4998 LP  0  0  0  0  0  0  0  0  0  0  0  0  # atno 17394 bound_to 11000
  139.8708  134.9741  156.4833 LP  0  0  0  0  0  0  0  0  0  0  0  0  # atno 17395 bound_to 11000

$$$$
