AV-unprocessed.smi:446|AV-procd|sdf|2596|dock1
  -GOLD-   2262022593D 1   1.00000     0.00000
 Structure written by MMmdl.
 36 38  0  0  0  0  0  0  0  0  2 V2000
  152.0833  138.2705  154.4368 C   0  0  0  0  0  0  0  0  0  0  0  0
  150.7785  138.9821  154.3075 C   0  0  0  0  0  0  0  0  0  0  0  0
  149.7295  138.5993  153.5262 N   0  3  0  0  0  0  0  0  0  0  0  0
  148.6794  139.5078  153.6674 C   0  0  0  0  0  0  0  0  0  0  0  0
  147.4178  139.5395  153.0812 C   0  0  0  0  0  0  0  0  0  0  0  0
  146.5787  140.6139  153.4428 C   0  0  0  0  0  0  0  0  0  0  0  0
  147.0045  141.6040  154.3518 C   0  0  0  0  0  0  0  0  0  0  0  0
  148.2864  141.5619  154.9387 C   0  0  0  0  0  0  0  0  0  0  0  0
  149.1094  140.4946  154.5788 C   0  0  0  0  0  0  0  0  0  0  0  0
  150.4104  140.1289  154.9463 N   0  0  0  0  0  0  0  0  0  0  0  0
  151.1612  140.9586  155.9025 C   0  0  0  0  0  0  0  0  0  0  0  0
  150.5977  140.8866  157.3360 C   0  0  1  0  0  0  0  0  0  0  0  0
  151.0570  139.7158  157.9839 O   0  0  0  0  0  0  0  0  0  0  0  0
  150.9308  142.1462  158.1197 C   0  0  0  0  0  0  0  0  0  0  0  0
  149.9025  142.9667  158.6347 C   0  0  0  0  0  0  0  0  0  0  0  0
  150.2199  144.1257  159.3693 C   0  0  0  0  0  0  0  0  0  0  0  0
  151.5662  144.4705  159.5952 C   0  0  0  0  0  0  0  0  0  0  0  0
  151.8708  145.5846  160.3018 F   0  0  0  0  0  0  0  0  0  0  0  0
  152.5953  143.6547  159.0874 C   0  0  0  0  0  0  0  0  0  0  0  0
  152.2787  142.4954  158.3525 C   0  0  0  0  0  0  0  0  0  0  0  0
  152.1034  137.3863  153.7993 H   0  0  0  0  0  0  0  0  0  0  0  0
  152.2390  137.9568  155.4692 H   0  0  0  0  0  0  0  0  0  0  0  0
  152.9023  138.9277  154.1444 H   0  0  0  0  0  0  0  0  0  0  0  0
  147.0901  138.7831  152.3832 H   0  0  0  0  0  0  0  0  0  0  0  0
  145.5894  140.6802  153.0136 H   0  0  0  0  0  0  0  0  0  0  0  0
  146.3351  142.4137  154.6039 H   0  0  0  0  0  0  0  0  0  0  0  0
  148.6036  142.3302  155.6280 H   0  0  0  0  0  0  0  0  0  0  0  0
  152.2140  140.6773  155.8754 H   0  0  0  0  0  0  0  0  0  0  0  0
  151.1157  141.9861  155.5400 H   0  0  0  0  0  0  0  0  0  0  0  0
  149.5119  140.8002  157.2797 H   0  0  0  0  0  0  0  0  0  0  0  0
  150.7760  138.9666  157.4807 H   0  0  0  0  0  0  0  0  0  0  0  0
  148.8662  142.7091  158.4711 H   0  0  0  0  0  0  0  0  0  0  0  0
  149.4302  144.7495  159.7613 H   0  0  0  0  0  0  0  0  0  0  0  0
  153.6281  143.9173  159.2629 H   0  0  0  0  0  0  0  0  0  0  0  0
  153.0759  141.8746  157.9704 H   0  0  0  0  0  0  0  0  0  0  0  0
  149.7339  137.7748  152.9396 H   0  0  0  0  0  0  0  0  0  0  0  0
  1  2  1  0  0  0  0
  1 21  1  0  0  0  0
  1 22  1  0  0  0  0
  1 23  1  0  0  0  0
  2 10  1  0  0  0  0
  2  3  2  0  0  0  0
  3  4  1  0  0  0  0
  3 36  1  0  0  0  0
  4  9  2  0  0  0  0
  4  5  1  0  0  0  0
  5  6  2  0  0  0  0
  5 24  1  0  0  0  0
  6  7  1  0  0  0  0
  6 25  1  0  0  0  0
  7  8  2  0  0  0  0
  7 26  1  0  0  0  0
  8  9  1  0  0  0  0
  8 27  1  0  0  0  0
  9 10  1  0  0  0  0
 10 11  1  0  0  0  0
 11 12  1  0  0  0  0
 11 28  1  0  0  0  0
 11 29  1  0  0  0  0
 12 13  1  0  0  0  0
 12 14  1  0  0  0  0
 12 30  1  0  0  0  0
 13 31  1  0  0  0  0
 14 20  1  0  0  0  0
 14 15  2  0  0  0  0
 15 16  1  0  0  0  0
 15 32  1  0  0  0  0
 16 17  2  0  0  0  0
 16 33  1  0  0  0  0
 17 18  1  0  0  0  0
 17 19  1  0  0  0  0
 19 20  2  0  0  0  0
 19 34  1  0  0  0  0
 20 35  1  0  0  0  0
M  CHG  1   3   1
M  END
> <s_m_source_file>
AV-unprocessed.smi

> <i_m_source_file_index>
446

> <i_lp_mmshare_version>
43012

> <i_f3d_flags>
0

> <s_epik_input>
W2NIXTFbY0hdW2NIXVtjSF1jKGMxMiluKGMobjIpW0NIM10pW0NIMl1bQ0BIXShbT0hdKWMzW2NIXVtjSF1jKEYpW2NIXVtjSF0z

> <s_epik_cmdline>
J2VwaWtfcHl0aG9uJywgJy1waCcsICc3LjAnLCAnLXRuJywgJzgnLCAnLW1hJywgJzIwMCcsICctbWV0YWxfYmluZGluZycsICctaW1hZScsICc8aW5maWxlLm1hZT4nLCAnLW9tYWUnLCAnPG91dGZpbGUubWFlPic=

> <r_epik_Ionization_Penalty>
0.963869

> <r_epik_Ionization_Penalty_Charging>
0.963868

> <r_epik_Ionization_Penalty_Neutral>
1.79538e-06

> <r_epik_State_Penalty>
1.00924

> <r_epik_Charging_Adjusted_Penalty>
1.9731

> <i_epik_Tot_Q>
1

> <i_epik_Tot_abs_Q>
1

> <r_epik_Metal_State_Penalty>
4.98304

> <b_epik_Metal_Only>
0

> <s_lp_Force_Field>
OPLS_2005

> <r_lp_Energy>
14.9475

> <b_lp_Chiralities_Consistent>
1

> <s_lp_Variant>
AV-unprocessed.smi:446-4

> <Gold.Version>
5.8.1

> <Gold.Id.Protein>
6NUR|6NUR_protein|mol2

> <Gold.PLP.Fitness>
51.8735

> <Gold.PLP.PLP>
-46.5397

> <Gold.PLP.part.hbond>
-2.0000

> <Gold.PLP.part.metal>
0.0000

> <Gold.PLP.part.buried>
3.7015

> <Gold.PLP.part.nonpolar>
-47.0000

> <Gold.PLP.part.repulsive>
0.0796

> <Gold.PLP.ligand.clash>
0.0000

> <Gold.PLP.ligand.torsion>
0.3469

> <Gold.PLP.Chemscore.Hbond>
2.0000

> <Gold.PLP.Chemscore.CHOScore>
0.0000

> <Gold.PLP.Chemscore.Metal>
0.0000

> <Gold.Chemscore.Hbonds>
donor molecule, donor type, donor heavy atom, donor atom, acceptor molecule, acceptor atom, score
      L1  H     3    36       P1  7948  2.00

> <Gold.PLP.Chemscore.Internal.Correction>
0.0277

> <Gold.Rescore>
     Score         DG    S(hbond)    S(metal)    S(lipo)     H(rot)  DE(clash)    DE(int)     intcor
     15.19     -17.10       1.00        0.00     111.14       1.85       1.61       0.29       ----

> <Gold.Chemscore.Fitness>
15.1937

> <Gold.Chemscore.DG>
-17.0964

> <Gold.Chemscore.ZeroCoef>
-5.4800

> <Gold.Chemscore.Hbond>
0.9999

> <Gold.Chemscore.Metal>
0.0000

> <Gold.Chemscore.Lipo>
111.1433

> <Gold.Chemscore.Internal_Hbond>
0.0000

> <Gold.Chemscore.DEClash>
1.6095

> <Gold.Chemscore.DEInternal>
0.2932

> <Gold.Chemscore.Rot>
1.8465

> <Gold.Chemscore.Internal.Correction>
   9.000000E+99

> <Gold.Chemscore.Hbonds>
donor molecule, donor type, donor heavy atom, donor atom, acceptor molecule, acceptor atom, score
      L1  H     3    36       P1  7948  0.53

> <Gold.Chemscore.Hbond.Weighted>
-3.3397

> <Gold.Chemscore.Metal.Weighted>
-0.0000

> <Gold.Chemscore.Lipo.Weighted>
-13.0038

> <Gold.Chemscore.Internal_Hbond.Weighted>
0.0000

> <Gold.Chemscore.DEClash.Weighted>
1.6095

> <Gold.Chemscore.DEInternal.Weighted>
0.2932

> <Gold.Chemscore.Rot.Weighted>
4.7270

> <Gold.Chemscore.Internal.Correction.Weighted>
   9.000000E+99

> <Gold.Protein.RotatedTorsions>
[ 6907 6896 6895 6894 ] final  -98.26 input  -60.11 | X-H torsion
[ 7974 7965 7964 7962 ] final   24.24 input  175.53 | X-H torsion
[ 8008 7997 7996 7995 ] final  135.16 input   59.86 | X-H torsion
[ 10167 10162 10161 10158 ] final  -55.62 input  -65.29 | X-H torsion
[ 10718 10713 10712 10709 ] final  -45.57 input   66.30 | X-H torsion
[ 10763 10752 10751 10750 ] final   96.52 input  -60.55 | X-H torsion
[ 11005 11000 10999 10996 ] final  100.73 input  -57.11 | X-H torsion

> <Gold.Protein.ActiveResidues>
 VAL166  LYS551  ARG553  GLY616  TRP617  ASP618  TYR619  PRO620  LYS621  CYS622 
 ASP623  PHE694  ASN695  SER759  ASP760  ASP761  ALA762  ILE779  LEU786  VAL792 
 PHE793  MET794  SER795  GLU796  ALA797  LYS798  CYS799  TRP800  GLU811  SER814 

> <Gold.Protein.RotatedAtoms>
  150.7041  134.1222  159.4038 H   0  0  0  0  0  0  0  0  0  0  0  0  # atno 6907 bound_to 6896
  151.9208  135.0296  160.0531 H   0  0  0  0  0  0  0  0  0  0  0  0  # atno 6908 bound_to 6896
  152.2257  133.4983  159.5224 H   0  0  0  0  0  0  0  0  0  0  0  0  # atno 6909 bound_to 6896
  146.1947  139.7632  142.8806 H   0  0  0  0  0  0  0  0  0  0  0  0  # atno 7974 bound_to 7965
  156.3002  140.2478  156.3535 H   0  0  0  0  0  0  0  0  0  0  0  0  # atno 8008 bound_to 7997
  154.8943  140.0408  157.1876 H   0  0  0  0  0  0  0  0  0  0  0  0  # atno 8009 bound_to 7997
  154.8565  140.2914  155.5569 H   0  0  0  0  0  0  0  0  0  0  0  0  # atno 8010 bound_to 7997
  140.6364  143.2484  151.5106 H   0  0  0  0  0  0  0  0  0  0  0  0  # atno 10167 bound_to 10162
  156.2270  130.4170  149.8921 H   0  0  0  0  0  0  0  0  0  0  0  0  # atno 10718 bound_to 10713
  153.2659  135.4215  155.0940 H   0  0  0  0  0  0  0  0  0  0  0  0  # atno 10763 bound_to 10752
  154.8438  135.3460  154.6312 H   0  0  0  0  0  0  0  0  0  0  0  0  # atno 10764 bound_to 10752
  153.6732  135.7042  153.5198 H   0  0  0  0  0  0  0  0  0  0  0  0  # atno 10765 bound_to 10752
  139.8771  134.9153  156.4800 H   0  0  0  0  0  0  0  0  0  0  0  0  # atno 11005 bound_to 11000
  145.3682  141.0338  143.3246 LP  0  0  0  0  0  0  0  0  0  0  0  0  # atno 17320 bound_to 7965
  144.8556  139.5255  143.6836 LP  0  0  0  0  0  0  0  0  0  0  0  0  # atno 17321 bound_to 7965
  139.5575  144.2240  152.1636 LP  0  0  0  0  0  0  0  0  0  0  0  0  # atno 17342 bound_to 10162
  140.1498  144.5125  150.6694 LP  0  0  0  0  0  0  0  0  0  0  0  0  # atno 17343 bound_to 10162
  156.6548  130.8758  151.3537 LP  0  0  0  0  0  0  0  0  0  0  0  0  # atno 17370 bound_to 10713
  157.7115  130.9446  150.1106 LP  0  0  0  0  0  0  0  0  0  0  0  0  # atno 17371 bound_to 10713
  140.8734  133.7971  155.9388 LP  0  0  0  0  0  0  0  0  0  0  0  0  # atno 17394 bound_to 11000
  140.8929  134.2473  157.5084 LP  0  0  0  0  0  0  0  0  0  0  0  0  # atno 17395 bound_to 11000

$$$$
