AV-unprocessed.smi:2531|AV-procd|sdf|9967|dock3
  -GOLD-   2272014 13D 1   1.00000     0.00000
 Structure written by MMmdl.
 46 48  0  0  0  0  0  0  0  0  3 V2000
  146.8609  137.5839  160.4369 O   0  0  0  0  0  0  0  0  0  0  0  0
  147.5684  136.6256  160.1226 C   0  0  0  0  0  0  0  0  0  0  0  0
  148.1680  135.7033  161.2039 C   0  0  0  0  0  0  0  0  0  0  0  0
  147.7898  134.2183  160.9947 C   0  0  0  0  0  0  0  0  0  0  0  0
  146.8879  133.8115  162.1699 C   0  0  0  0  0  0  0  0  0  0  0  0
  146.4562  135.1170  162.8354 C   0  0  0  0  0  0  0  0  0  0  0  0
  147.6355  136.0597  162.6031 C   0  0  0  0  0  0  0  0  0  0  0  0
  147.9301  136.3918  158.7924 N   0  0  0  0  0  0  0  0  0  0  0  0
  147.9245  137.4710  157.8152 C   0  0  0  0  0  0  0  0  0  0  0  0
  149.0409  136.6924  157.1099 C   0  0  0  0  0  0  0  0  0  0  0  0
  150.4501  137.7685  156.5866 S   0  0  0  0  0  0  0  0  0  0  0  0
  151.5955  137.3564  157.4142 O   0  0  0  0  0  0  0  0  0  0  0  0
  150.5939  137.6080  155.1303 O   0  0  0  0  0  0  0  0  0  0  0  0
  149.8759  139.2292  156.9996 N   0  5  0  0  0  0  0  0  0  0  0  0
  150.1999  140.3961  156.1950 C   0  0  0  0  0  0  0  0  0  0  0  0
  149.7073  141.6941  156.8739 C   0  0  0  0  0  0  0  0  0  0  0  0
  150.8018  142.4616  157.6032 C   0  0  0  0  0  0  0  0  0  0  0  0
  151.5553  141.8822  158.6495 C   0  0  0  0  0  0  0  0  0  0  0  0
  152.5494  142.6488  159.2926 C   0  0  0  0  0  0  0  0  0  0  0  0
  152.7687  143.9800  158.8819 C   0  0  0  0  0  0  0  0  0  0  0  0
  151.9867  144.5125  157.8371 C   0  0  0  0  0  0  0  0  0  0  0  0
  151.0441  143.7466  157.2454 N   0  3  0  0  0  0  0  0  0  0  0  0
  149.2651  135.9387  158.4280 C   0  0  0  0  0  0  0  0  0  0  0  0
  149.2544  135.7963  161.1893 H   0  0  0  0  0  0  0  0  0  0  0  0
  147.2734  134.0525  160.0480 H   0  0  0  0  0  0  0  0  0  0  0  0
  148.6822  133.5918  160.9696 H   0  0  0  0  0  0  0  0  0  0  0  0
  146.0360  133.2092  161.8522 H   0  0  0  0  0  0  0  0  0  0  0  0
  147.4634  133.2156  162.8797 H   0  0  0  0  0  0  0  0  0  0  0  0
  145.5663  135.5085  162.3407 H   0  0  0  0  0  0  0  0  0  0  0  0
  146.2211  134.9912  163.8926 H   0  0  0  0  0  0  0  0  0  0  0  0
  148.4107  135.8706  163.3465 H   0  0  0  0  0  0  0  0  0  0  0  0
  147.3423  137.1060  162.7045 H   0  0  0  0  0  0  0  0  0  0  0  0
  146.9979  137.5502  157.2463 H   0  0  0  0  0  0  0  0  0  0  0  0
  148.2506  138.4301  158.2232 H   0  0  0  0  0  0  0  0  0  0  0  0
  148.6789  136.0696  156.2905 H   0  0  0  0  0  0  0  0  0  0  0  0
  151.2777  140.4739  156.0489 H   0  0  0  0  0  0  0  0  0  0  0  0
  149.7753  140.3299  155.1927 H   0  0  0  0  0  0  0  0  0  0  0  0
  149.2686  142.3660  156.1364 H   0  0  0  0  0  0  0  0  0  0  0  0
  148.9117  141.4627  157.5836 H   0  0  0  0  0  0  0  0  0  0  0  0
  151.3752  140.8611  158.9533 H   0  0  0  0  0  0  0  0  0  0  0  0
  153.1358  142.2206  160.0922 H   0  0  0  0  0  0  0  0  0  0  0  0
  153.5254  144.5835  159.3619 H   0  0  0  0  0  0  0  0  0  0  0  0
  152.0847  145.5196  157.4591 H   0  0  0  0  0  0  0  0  0  0  0  0
  150.0526  136.3532  159.0585 H   0  0  0  0  0  0  0  0  0  0  0  0
  149.3496  134.8576  158.3152 H   0  0  0  0  0  0  0  0  0  0  0  0
  150.4892  144.1518  156.4907 H   0  0  0  0  0  0  0  0  0  0  0  0
  1  2  2  0  0  0  0
  2  3  1  0  0  0  0
  2  8  1  0  0  0  0
  3  7  1  0  0  0  0
  3  4  1  0  0  0  0
  3 24  1  0  0  0  0
  4  5  1  0  0  0  0
  4 25  1  0  0  0  0
  4 26  1  0  0  0  0
  5  6  1  0  0  0  0
  5 27  1  0  0  0  0
  5 28  1  0  0  0  0
  6  7  1  0  0  0  0
  6 29  1  0  0  0  0
  6 30  1  0  0  0  0
  7 31  1  0  0  0  0
  7 32  1  0  0  0  0
  8 23  1  0  0  0  0
  8  9  1  0  0  0  0
  9 10  1  0  0  0  0
  9 33  1  0  0  0  0
  9 34  1  0  0  0  0
 10 11  1  0  0  0  0
 10 23  1  0  0  0  0
 10 35  1  0  0  0  0
 11 12  2  0  0  0  0
 11 13  2  0  0  0  0
 11 14  1  0  0  0  0
 14 15  1  0  0  0  0
 15 16  1  0  0  0  0
 15 36  1  0  0  0  0
 15 37  1  0  0  0  0
 16 17  1  0  0  0  0
 16 38  1  0  0  0  0
 16 39  1  0  0  0  0
 17 22  1  0  0  0  0
 17 18  2  0  0  0  0
 18 19  1  0  0  0  0
 18 40  1  0  0  0  0
 19 20  2  0  0  0  0
 19 41  1  0  0  0  0
 20 21  1  0  0  0  0
 20 42  1  0  0  0  0
 21 22  2  0  0  0  0
 21 43  1  0  0  0  0
 22 46  1  0  0  0  0
 23 44  1  0  0  0  0
 23 45  1  0  0  0  0
M  CHG  1  14  -1
M  CHG  1  22   1
M  END
> <s_m_source_file>
AV-unprocessed.smi

> <i_m_source_file_index>
2531

> <i_lp_mmshare_version>
43012

> <i_f3d_flags>
0

> <s_epik_input>
W0NIMl0xW0NIMl1bQ0gyXVtDSDJdW0NIXTFDKD1PKU4yW0NIMl1bQ0hdKFtDSDJdMilTKD1PKSg9TylbTkhdW0NIMl1bQ0gyXWMzW2NIXVtjSF1bY0hdW2NIXW4z

> <s_epik_cmdline>
J2VwaWtfcHl0aG9uJywgJy1waCcsICc3LjAnLCAnLXRuJywgJzgnLCAnLW1hJywgJzIwMCcsICctbWV0YWxfYmluZGluZycsICctaW1hZScsICc8aW5maWxlLm1hZT4nLCAnLW9tYWUnLCAnPG91dGZpbGUubWFlPic=

> <r_epik_Ionization_Penalty>
6.66855

> <r_epik_Ionization_Penalty_Charging>
6.66855

> <r_epik_Ionization_Penalty_Neutral>
2.37876e-07

> <r_epik_State_Penalty>
7.51815

> <r_epik_Charging_Adjusted_Penalty>
14.1867

> <i_epik_Tot_Q>
0

> <i_epik_Tot_abs_Q>
2

> <r_epik_Metal_State_Penalty>
3.5378

> <b_epik_Metal_Only>
1

> <s_lp_Force_Field>
OPLS_2005

> <r_lp_Energy>
33.2094

> <b_lp_Chiralities_Consistent>
1

> <s_lp_Variant>
AV-unprocessed.smi:2531-4

> <Gold.Version>
5.8.1

> <Gold.Id.Protein>
6NUR|6NUR_protein|mol2

> <Gold.PLP.Fitness>
50.0925

> <Gold.PLP.PLP>
-41.9558

> <Gold.PLP.part.hbond>
-1.9965

> <Gold.PLP.part.metal>
0.0000

> <Gold.PLP.part.buried>
-6.1145

> <Gold.PLP.part.nonpolar>
-35.4399

> <Gold.PLP.part.repulsive>
0.1306

> <Gold.PLP.ligand.clash>
0.0000

> <Gold.PLP.ligand.torsion>
1.7160

> <Gold.PLP.Chemscore.Hbond>
3.0000

> <Gold.PLP.Chemscore.CHOScore>
0.0000

> <Gold.PLP.Chemscore.Metal>
0.0000

> <Gold.Chemscore.Hbonds>
donor molecule, donor type, donor heavy atom, donor atom, acceptor molecule, acceptor atom, score
      L1  H    22    46       P1  8028  2.00
      P1  H  6934  6947       L1     1  1.00

> <Gold.PLP.Chemscore.Internal.Correction>
2.5687

> <Gold.Rescore>
     Score         DG    S(hbond)    S(metal)    S(lipo)     H(rot)  DE(clash)    DE(int)     intcor
     19.21     -20.94       1.98        0.00     113.07       1.72       0.02       1.70       ----

> <Gold.Chemscore.Fitness>
19.2142

> <Gold.Chemscore.DG>
-20.9407

> <Gold.Chemscore.ZeroCoef>
-5.4800

> <Gold.Chemscore.Hbond>
1.9831

> <Gold.Chemscore.Metal>
0.0000

> <Gold.Chemscore.Lipo>
113.0727

> <Gold.Chemscore.Internal_Hbond>
0.0000

> <Gold.Chemscore.DEClash>
0.0230

> <Gold.Chemscore.DEInternal>
1.7035

> <Gold.Chemscore.Rot>
1.7158

> <Gold.Chemscore.Internal.Correction>
   9.000000E+99

> <Gold.Chemscore.Hbonds>
donor molecule, donor type, donor heavy atom, donor atom, acceptor molecule, acceptor atom, score
      L1  H    22    46       P1  8028  0.98
      P1  H  6934  6947       L1     1  0.95

> <Gold.Chemscore.Hbond.Weighted>
-6.6236

> <Gold.Chemscore.Metal.Weighted>
-0.0000

> <Gold.Chemscore.Lipo.Weighted>
-13.2295

> <Gold.Chemscore.Internal_Hbond.Weighted>
0.0000

> <Gold.Chemscore.DEClash.Weighted>
0.0230

> <Gold.Chemscore.DEInternal.Weighted>
1.7035

> <Gold.Chemscore.Rot.Weighted>
4.3924

> <Gold.Chemscore.Internal.Correction.Weighted>
   9.000000E+99

> <Gold.Protein.RotatedTorsions>
[ 6907 6896 6895 6894 ] final -120.32 input  -60.11 | X-H torsion
[ 7974 7965 7964 7962 ] final  -46.84 input  175.53 | X-H torsion
[ 8008 7997 7996 7995 ] final  160.53 input   59.86 | X-H torsion
[ 10167 10162 10161 10158 ] final   61.73 input  -65.29 | X-H torsion
[ 10718 10713 10712 10709 ] final  -56.46 input   66.30 | X-H torsion
[ 10763 10752 10751 10750 ] final   21.79 input  -60.55 | X-H torsion
[ 11005 11000 10999 10996 ] final   79.92 input  -57.11 | X-H torsion

> <Gold.Protein.ActiveResidues>
 VAL166  LYS551  ARG553  GLY616  TRP617  ASP618  TYR619  PRO620  LYS621  CYS622 
 ASP623  PHE694  ASN695  SER759  ASP760  ASP761  ALA762  ILE779  LEU786  VAL792 
 PHE793  MET794  SER795  GLU796  ALA797  LYS798  CYS799  TRP800  GLU811  SER814 

> <Gold.Protein.RotatedAtoms>
  150.8383  133.7977  159.3070 H   0  0  0  0  0  0  0  0  0  0  0  0  # atno 6907 bound_to 6896
  151.5687  135.1061  159.9999 H   0  0  0  0  0  0  0  0  0  0  0  0  # atno 6908 bound_to 6896
  152.4451  133.7479  159.6734 H   0  0  0  0  0  0  0  0  0  0  0  0  # atno 6909 bound_to 6896
  145.9677  140.7415  142.9426 H   0  0  0  0  0  0  0  0  0  0  0  0  # atno 7974 bound_to 7965
  156.2166  140.1802  156.7575 H   0  0  0  0  0  0  0  0  0  0  0  0  # atno 8008 bound_to 7997
  154.5801  140.0667  156.9120 H   0  0  0  0  0  0  0  0  0  0  0  0  # atno 8009 bound_to 7997
  155.2518  140.3329  155.4284 H   0  0  0  0  0  0  0  0  0  0  0  0  # atno 8010 bound_to 7997
  140.1515  144.4457  150.6756 H   0  0  0  0  0  0  0  0  0  0  0  0  # atno 10167 bound_to 10162
  156.1287  130.4161  150.0307 H   0  0  0  0  0  0  0  0  0  0  0  0  # atno 10718 bound_to 10713
  153.0966  135.6661  153.9751 H   0  0  0  0  0  0  0  0  0  0  0  0  # atno 10763 bound_to 10752
  153.9333  135.3002  155.3446 H   0  0  0  0  0  0  0  0  0  0  0  0  # atno 10764 bound_to 10752
  154.7385  135.5090  153.9157 H   0  0  0  0  0  0  0  0  0  0  0  0  # atno 10765 bound_to 10752
  139.9154  134.7880  156.1842 H   0  0  0  0  0  0  0  0  0  0  0  0  # atno 11005 bound_to 11000
  144.6829  140.2697  143.7307 LP  0  0  0  0  0  0  0  0  0  0  0  0  # atno 17320 bound_to 7965
  145.7950  139.1941  143.2081 LP  0  0  0  0  0  0  0  0  0  0  0  0  # atno 17321 bound_to 7965
  140.6699  143.2282  151.5651 LP  0  0  0  0  0  0  0  0  0  0  0  0  # atno 17342 bound_to 10162
  139.5423  144.2614  152.1375 LP  0  0  0  0  0  0  0  0  0  0  0  0  # atno 17343 bound_to 10162
  156.8226  130.9364  151.3640 LP  0  0  0  0  0  0  0  0  0  0  0  0  # atno 17370 bound_to 10713
  157.6467  130.8850  149.9552 LP  0  0  0  0  0  0  0  0  0  0  0  0  # atno 17371 bound_to 10713
  141.0623  133.6835  156.1977 LP  0  0  0  0  0  0  0  0  0  0  0  0  # atno 17394 bound_to 11000
  140.6640  134.4937  157.5584 LP  0  0  0  0  0  0  0  0  0  0  0  0  # atno 17395 bound_to 11000

$$$$
