AV-unprocessed.smi:1458|AV-procd|sdf|5922|dock2
  -GOLD-   22720 6 03D 1   1.00000     0.00000
 Structure written by MMmdl.
 46 47  0  0  0  0  0  0  0  0  1 V2000
  145.0979  135.2124  150.8089 C   0  0  0  0  0  0  0  0  0  0  0  0
  145.8994  135.6631  151.8866 O   0  0  0  0  0  0  0  0  0  0  0  0
  145.5227  136.9518  152.3442 C   0  0  0  0  0  0  0  0  0  0  0  0
  146.2675  138.0145  151.5285 C   0  0  0  0  0  0  0  0  0  0  0  0
  147.5626  138.3080  152.1272 N   0  0  0  0  0  0  0  0  0  0  0  0
  147.7390  139.0600  153.2209 C   0  0  0  0  0  0  0  0  0  0  0  0
  146.8113  139.5748  153.8447 O   0  0  0  0  0  0  0  0  0  0  0  0
  149.0439  139.1816  153.5193 N   0  0  0  0  0  0  0  0  0  0  0  0
  149.6494  139.9198  154.5721 C   0  0  0  0  0  0  0  0  0  0  0  0
  150.9463  139.5490  154.9757 C   0  0  0  0  0  0  0  0  0  0  0  0
  151.5716  140.2545  156.0205 C   0  0  0  0  0  0  0  0  0  0  0  0
  150.8799  141.3182  156.6456 C   0  0  0  0  0  0  0  0  0  0  0  0
  151.4928  142.0485  157.6869 N   0  0  0  0  0  0  0  0  0  0  0  0
  150.7135  143.1639  158.2179 C   0  0  0  0  0  0  0  0  0  0  0  0
  151.5857  144.0805  159.0981 C   0  0  2  0  0  0  0  0  0  0  0  0
  152.5377  144.9804  158.2903 C   0  0  0  0  0  0  0  0  0  0  0  0
  152.2760  143.3097  160.0840 O   0  0  0  0  0  0  0  0  0  0  0  0
  153.0801  142.2534  159.5608 C   0  0  1  0  0  0  0  0  0  0  0  0
  153.7376  141.5306  160.7410 C   0  0  0  0  0  0  0  0  0  0  0  0
  152.2056  141.3044  158.7217 C   0  0  0  0  0  0  0  0  0  0  0  0
  149.6218  141.6591  156.2732 N   0  0  0  0  0  0  0  0  0  0  0  0
  149.0254  140.9808  155.2698 C   0  0  0  0  0  0  0  0  0  0  0  0
  145.4268  134.2208  150.4981 H   0  0  0  0  0  0  0  0  0  0  0  0
  145.1814  135.8789  149.9497 H   0  0  0  0  0  0  0  0  0  0  0  0
  144.0488  135.1438  151.0993 H   0  0  0  0  0  0  0  0  0  0  0  0
  144.4468  137.0846  152.2213 H   0  0  0  0  0  0  0  0  0  0  0  0
  145.7461  137.0619  153.4068 H   0  0  0  0  0  0  0  0  0  0  0  0
  146.3951  137.6738  150.4998 H   0  0  0  0  0  0  0  0  0  0  0  0
  145.6796  138.9327  151.4929 H   0  0  0  0  0  0  0  0  0  0  0  0
  148.3765  137.9278  151.6666 H   0  0  0  0  0  0  0  0  0  0  0  0
  149.6859  138.7481  152.8723 H   0  0  0  0  0  0  0  0  0  0  0  0
  151.4627  138.7342  154.4893 H   0  0  0  0  0  0  0  0  0  0  0  0
  152.5630  139.9655  156.3354 H   0  0  0  0  0  0  0  0  0  0  0  0
  150.2516  143.7559  157.4291 H   0  0  0  0  0  0  0  0  0  0  0  0
  149.8984  142.7534  158.8152 H   0  0  0  0  0  0  0  0  0  0  0  0
  150.9173  144.7444  159.6470 H   0  0  0  0  0  0  0  0  0  0  0  0
  151.9749  145.6527  157.6424 H   0  0  0  0  0  0  0  0  0  0  0  0
  153.2094  144.4065  157.6525 H   0  0  0  0  0  0  0  0  0  0  0  0
  153.1472  145.5952  158.9528 H   0  0  0  0  0  0  0  0  0  0  0  0
  153.8715  142.6686  158.9367 H   0  0  0  0  0  0  0  0  0  0  0  0
  154.3728  140.7142  160.3970 H   0  0  0  0  0  0  0  0  0  0  0  0
  152.9885  141.1118  161.4137 H   0  0  0  0  0  0  0  0  0  0  0  0
  154.3589  142.2147  161.3196 H   0  0  0  0  0  0  0  0  0  0  0  0
  151.4812  140.7951  159.3593 H   0  0  0  0  0  0  0  0  0  0  0  0
  152.8376  140.5389  158.2694 H   0  0  0  0  0  0  0  0  0  0  0  0
  148.0193  141.3005  155.0495 H   0  0  0  0  0  0  0  0  0  0  0  0
  1  2  1  0  0  0  0
  1 23  1  0  0  0  0
  1 24  1  0  0  0  0
  1 25  1  0  0  0  0
  2  3  1  0  0  0  0
  3  4  1  0  0  0  0
  3 26  1  0  0  0  0
  3 27  1  0  0  0  0
  4  5  1  0  0  0  0
  4 28  1  0  0  0  0
  4 29  1  0  0  0  0
  5  6  1  0  0  0  0
  5 30  1  0  0  0  0
  6  7  2  0  0  0  0
  6  8  1  0  0  0  0
  8  9  1  0  0  0  0
  8 31  1  0  0  0  0
  9 22  1  0  0  0  0
  9 10  2  0  0  0  0
 10 11  1  0  0  0  0
 10 32  1  0  0  0  0
 11 12  2  0  0  0  0
 11 33  1  0  0  0  0
 12 13  1  0  0  0  0
 12 21  1  0  0  0  0
 13 20  1  0  0  0  0
 13 14  1  0  0  0  0
 14 15  1  0  0  0  0
 14 34  1  0  0  0  0
 14 35  1  0  0  0  0
 15 16  1  0  0  0  0
 15 17  1  0  0  0  0
 15 36  1  0  0  0  0
 16 37  1  0  0  0  0
 16 38  1  0  0  0  0
 16 39  1  0  0  0  0
 17 18  1  0  0  0  0
 18 19  1  0  0  0  0
 18 20  1  0  0  0  0
 18 40  1  0  0  0  0
 19 41  1  0  0  0  0
 19 42  1  0  0  0  0
 19 43  1  0  0  0  0
 20 44  1  0  0  0  0
 20 45  1  0  0  0  0
 21 22  2  0  0  0  0
 22 46  1  0  0  0  0
M  END
> <s_m_source_file>
AV-unprocessed.smi

> <i_m_source_file_index>
1458

> <i_lp_mmshare_version>
43012

> <i_f3d_flags>
0

> <s_epik_input>
W0NIM11PW0NIMl1bQ0gyXVtOSF1DKD1PKVtOSF1jMVtjSF1bY0hdYyhuW2NIXTEpTjJbQ0gyXVtDQEBIXShbQ0gzXSlPW0NAQEhdKFtDSDNdKVtDSDJdMg==

> <s_epik_cmdline>
J2VwaWtfcHl0aG9uJywgJy1waCcsICc3LjAnLCAnLXRuJywgJzgnLCAnLW1hJywgJzIwMCcsICctbWV0YWxfYmluZGluZycsICctaW1hZScsICc8aW5maWxlLm1hZT4nLCAnLW9tYWUnLCAnPG91dGZpbGUubWFlPic=

> <r_lp_tautomer_probability>
1

> <r_epik_Ionization_Penalty>
0.00266072

> <r_epik_Ionization_Penalty_Charging>
0

> <r_epik_Ionization_Penalty_Neutral>
0.00266072

> <r_epik_State_Penalty>
0.00182795

> <r_epik_Charging_Adjusted_Penalty>
0.00182795

> <i_epik_Tot_Q>
0

> <i_epik_Tot_abs_Q>
0

> <r_epik_Metal_State_Penalty>
-0

> <b_epik_Metal_Only>
0

> <s_lp_Force_Field>
OPLS_2005

> <r_lp_Energy>
22.687

> <b_lp_Chiralities_Consistent>
1

> <s_lp_Variant>
AV-unprocessed.smi:1458-2

> <Gold.Version>
5.8.1

> <Gold.Id.Protein>
6NUR|6NUR_protein|mol2

> <Gold.PLP.Fitness>
47.3871

> <Gold.PLP.PLP>
-46.4730

> <Gold.PLP.part.hbond>
-3.0000

> <Gold.PLP.part.metal>
0.0000

> <Gold.PLP.part.buried>
-3.2240

> <Gold.PLP.part.nonpolar>
-41.3256

> <Gold.PLP.part.repulsive>
0.7552

> <Gold.PLP.ligand.clash>
0.0000

> <Gold.PLP.ligand.torsion>
0.7338

> <Gold.PLP.Chemscore.Hbond>
0.6762

> <Gold.PLP.Chemscore.CHOScore>
0.0000

> <Gold.PLP.Chemscore.Metal>
0.0000

> <Gold.Chemscore.Hbonds>
donor molecule, donor type, donor heavy atom, donor atom, acceptor molecule, acceptor atom, score
      L1  H     5    30       P1  7948  0.53
      L1  H     8    31       P1  7957  0.06

> <Gold.PLP.Chemscore.Internal.Correction>
0.3530

> <Gold.Rescore>
     Score         DG    S(hbond)    S(metal)    S(lipo)     H(rot)  DE(clash)    DE(int)     intcor
     15.21     -17.14       0.98        0.00     107.02       1.62       0.04       1.89       ----

> <Gold.Chemscore.Fitness>
15.2131

> <Gold.Chemscore.DG>
-17.1385

> <Gold.Chemscore.ZeroCoef>
-5.4800

> <Gold.Chemscore.Hbond>
0.9838

> <Gold.Chemscore.Metal>
0.0000

> <Gold.Chemscore.Lipo>
107.0198

> <Gold.Chemscore.Internal_Hbond>
0.0000

> <Gold.Chemscore.DEClash>
0.0387

> <Gold.Chemscore.DEInternal>
1.8866

> <Gold.Chemscore.Rot>
1.6206

> <Gold.Chemscore.Internal.Correction>
   9.000000E+99

> <Gold.Chemscore.Hbonds>
donor molecule, donor type, donor heavy atom, donor atom, acceptor molecule, acceptor atom, score
      L1  H     5    30       P1  7948  0.52
      L1  H     8    31       P1  7957  0.06

> <Gold.Chemscore.Hbond.Weighted>
-3.2858

> <Gold.Chemscore.Metal.Weighted>
-0.0000

> <Gold.Chemscore.Lipo.Weighted>
-12.5213

> <Gold.Chemscore.Internal_Hbond.Weighted>
0.0000

> <Gold.Chemscore.DEClash.Weighted>
0.0387

> <Gold.Chemscore.DEInternal.Weighted>
1.8866

> <Gold.Chemscore.Rot.Weighted>
4.1486

> <Gold.Chemscore.Internal.Correction.Weighted>
   9.000000E+99

> <Gold.Protein.RotatedTorsions>
[ 6907 6896 6895 6894 ] final -122.30 input  -60.11 | X-H torsion
[ 7974 7965 7964 7962 ] final  -49.83 input  175.53 | X-H torsion
[ 8008 7997 7996 7995 ] final   24.36 input   59.86 | X-H torsion
[ 10167 10162 10161 10158 ] final  158.81 input  -65.29 | X-H torsion
[ 10718 10713 10712 10709 ] final  137.27 input   66.30 | X-H torsion
[ 10763 10752 10751 10750 ] final   11.66 input  -60.55 | X-H torsion
[ 11005 11000 10999 10996 ] final  -43.61 input  -57.11 | X-H torsion

> <Gold.Protein.ActiveResidues>
 VAL166  LYS551  ARG553  GLY616  TRP617  ASP618  TYR619  PRO620  LYS621  CYS622 
 ASP623  PHE694  ASN695  SER759  ASP760  ASP761  ALA762  ILE779  LEU786  VAL792 
 PHE793  MET794  SER795  GLU796  ALA797  LYS798  CYS799  TRP800  GLU811  SER814 

> <Gold.Protein.RotatedAtoms>
  150.8563  133.7711  159.3007 H   0  0  0  0  0  0  0  0  0  0  0  0  # atno 6907 bound_to 6896
  151.5367  135.1067  159.9925 H   0  0  0  0  0  0  0  0  0  0  0  0  # atno 6908 bound_to 6896
  152.4592  133.7743  159.6872 H   0  0  0  0  0  0  0  0  0  0  0  0  # atno 6909 bound_to 6896
  145.9363  140.7703  142.9574 H   0  0  0  0  0  0  0  0  0  0  0  0  # atno 7974 bound_to 7965
  154.9951  140.3118  155.4890 H   0  0  0  0  0  0  0  0  0  0  0  0  # atno 8008 bound_to 7997
  156.2934  140.2242  156.4998 H   0  0  0  0  0  0  0  0  0  0  0  0  # atno 8009 bound_to 7997
  154.7668  140.0455  157.1007 H   0  0  0  0  0  0  0  0  0  0  0  0  # atno 8010 bound_to 7997
  139.4829  144.4790  151.8471 H   0  0  0  0  0  0  0  0  0  0  0  0  # atno 10167 bound_to 10162
  157.4379  131.1055  151.0177 H   0  0  0  0  0  0  0  0  0  0  0  0  # atno 10718 bound_to 10713
  153.1902  135.6841  153.8362 H   0  0  0  0  0  0  0  0  0  0  0  0  # atno 10763 bound_to 10752
  153.7664  135.3202  155.3346 H   0  0  0  0  0  0  0  0  0  0  0  0  # atno 10764 bound_to 10752
  154.8113  135.4715  154.0622 H   0  0  0  0  0  0  0  0  0  0  0  0  # atno 10765 bound_to 10752
  141.0395  133.6786  156.2757 H   0  0  0  0  0  0  0  0  0  0  0  0  # atno 11005 bound_to 11000
  144.6772  140.2208  143.7366 LP  0  0  0  0  0  0  0  0  0  0  0  0  # atno 17320 bound_to 7965
  145.8359  139.2107  143.1856 LP  0  0  0  0  0  0  0  0  0  0  0  0  # atno 17321 bound_to 7965
  140.4264  144.2174  150.5887 LP  0  0  0  0  0  0  0  0  0  0  0  0  # atno 17342 bound_to 10162
  140.4823  143.2375  151.8938 LP  0  0  0  0  0  0  0  0  0  0  0  0  # atno 17343 bound_to 10162
  157.1050  130.5998  149.5469 LP  0  0  0  0  0  0  0  0  0  0  0  0  # atno 17370 bound_to 10713
  155.9937  130.4999  150.7392 LP  0  0  0  0  0  0  0  0  0  0  0  0  # atno 17371 bound_to 10713
  140.6260  134.5313  157.5553 LP  0  0  0  0  0  0  0  0  0  0  0  0  # atno 17394 bound_to 11000
  139.9265  134.8045  156.1053 LP  0  0  0  0  0  0  0  0  0  0  0  0  # atno 17395 bound_to 11000

$$$$
