AV-unprocessed.smi:2389|AV-procd|sdf|9472|dock6
  -GOLD-   2272013103D 1   1.00000     0.00000
 Structure written by MMmdl.
 34 35  0  0  0  0  0  0  0  0  1 V2000
  154.0843  140.9091  161.9102 C   0  0  0  0  0  0  0  0  0  0  0  0
  154.7983  140.8733  160.5569 C   0  0  0  0  0  0  0  0  0  0  0  0
  153.8206  140.7743  159.5252 O   0  0  0  0  0  0  0  0  0  0  0  0
  153.0480  141.8824  159.2435 C   0  0  0  0  0  0  0  0  0  0  0  0
  153.2565  143.0592  159.9872 C   0  0  0  0  0  0  0  0  0  0  0  0
  152.4634  144.1843  159.6995 C   0  0  0  0  0  0  0  0  0  0  0  0
  151.4947  144.0913  158.6822 C   0  0  0  0  0  0  0  0  0  0  0  0
  151.3442  142.8766  157.9772 C   0  0  0  0  0  0  0  0  0  0  0  0
  150.3420  142.8814  156.9706 N   0  0  0  0  0  0  0  0  0  0  0  0
  149.9230  141.8530  156.2118 C   0  0  0  0  0  0  0  0  0  0  0  0
  150.3539  140.7008  156.2729 O   0  0  0  0  0  0  0  0  0  0  0  0
  148.9620  142.2383  155.3602 N   0  0  0  0  0  0  0  0  0  0  0  0
  148.2990  141.3651  154.4005 C   0  0  0  0  0  0  0  0  0  0  0  0
  146.7832  141.4083  154.4349 C   0  0  0  0  0  0  0  0  0  0  0  0
  146.0274  142.6645  154.0667 C   0  0  0  0  0  0  0  0  0  0  0  0
  146.0686  142.2030  155.5028 C   0  0  0  0  0  0  0  0  0  0  0  0
  152.1149  141.7989  158.2637 N   0  0  0  0  0  0  0  0  0  0  0  0
  154.8021  140.9892  162.7267 H   0  0  0  0  0  0  0  0  0  0  0  0
  153.4991  140.0030  162.0676 H   0  0  0  0  0  0  0  0  0  0  0  0
  153.4076  141.7615  161.9740 H   0  0  0  0  0  0  0  0  0  0  0  0
  155.3929  141.7797  160.4315 H   0  0  0  0  0  0  0  0  0  0  0  0
  155.4755  140.0181  160.5249 H   0  0  0  0  0  0  0  0  0  0  0  0
  154.0075  143.0970  160.7625 H   0  0  0  0  0  0  0  0  0  0  0  0
  152.5948  145.1038  160.2505 H   0  0  0  0  0  0  0  0  0  0  0  0
  150.8768  144.9462  158.4489 H   0  0  0  0  0  0  0  0  0  0  0  0
  149.8963  143.7716  156.8058 H   0  0  0  0  0  0  0  0  0  0  0  0
  148.6681  143.2039  155.3761 H   0  0  0  0  0  0  0  0  0  0  0  0
  148.6231  141.6673  153.4045 H   0  0  0  0  0  0  0  0  0  0  0  0
  148.6409  140.3372  154.5334 H   0  0  0  0  0  0  0  0  0  0  0  0
  146.3119  140.4652  154.1638 H   0  0  0  0  0  0  0  0  0  0  0  0
  146.6075  143.5475  153.8054 H   0  0  0  0  0  0  0  0  0  0  0  0
  145.0918  142.5452  153.5244 H   0  0  0  0  0  0  0  0  0  0  0  0
  145.1584  141.7780  155.9208 H   0  0  0  0  0  0  0  0  0  0  0  0
  146.6754  142.7809  156.1973 H   0  0  0  0  0  0  0  0  0  0  0  0
  1  2  1  0  0  0  0
  1 18  1  0  0  0  0
  1 19  1  0  0  0  0
  1 20  1  0  0  0  0
  2  3  1  0  0  0  0
  2 21  1  0  0  0  0
  2 22  1  0  0  0  0
  3  4  1  0  0  0  0
  4 17  1  0  0  0  0
  4  5  2  0  0  0  0
  5  6  1  0  0  0  0
  5 23  1  0  0  0  0
  6  7  2  0  0  0  0
  6 24  1  0  0  0  0
  7  8  1  0  0  0  0
  7 25  1  0  0  0  0
  8  9  1  0  0  0  0
  8 17  2  0  0  0  0
  9 10  1  0  0  0  0
  9 26  1  0  0  0  0
 10 11  2  0  0  0  0
 10 12  1  0  0  0  0
 12 13  1  0  0  0  0
 12 27  1  0  0  0  0
 13 14  1  0  0  0  0
 13 28  1  0  0  0  0
 13 29  1  0  0  0  0
 14 16  1  0  0  0  0
 14 15  1  0  0  0  0
 14 30  1  0  0  0  0
 15 16  1  0  0  0  0
 15 31  1  0  0  0  0
 15 32  1  0  0  0  0
 16 33  1  0  0  0  0
 16 34  1  0  0  0  0
M  END
> <s_m_source_file>
AV-unprocessed.smi

> <i_m_source_file_index>
2389

> <i_lp_mmshare_version>
43012

> <i_f3d_flags>
0

> <s_epik_input>
W0NIM11bQ0gyXU9jMVtjSF1bY0hdW2NIXWMobjEpW05IXUMoPU8pW05IXVtDSDJdW0NIXTJbQ0gyXVtDSDJdMg==

> <s_epik_cmdline>
J2VwaWtfcHl0aG9uJywgJy1waCcsICc3LjAnLCAnLXRuJywgJzgnLCAnLW1hJywgJzIwMCcsICctbWV0YWxfYmluZGluZycsICctaW1hZScsICc8aW5maWxlLm1hZT4nLCAnLW9tYWUnLCAnPG91dGZpbGUubWFlPic=

> <r_lp_tautomer_probability>
1

> <r_epik_Ionization_Penalty>
4.07356e-05

> <r_epik_Ionization_Penalty_Charging>
0

> <r_epik_Ionization_Penalty_Neutral>
4.07356e-05

> <r_epik_State_Penalty>
-0

> <r_epik_Charging_Adjusted_Penalty>
0

> <i_epik_Tot_Q>
0

> <i_epik_Tot_abs_Q>
0

> <r_epik_Metal_State_Penalty>
-0

> <b_epik_Metal_Only>
0

> <s_lp_Force_Field>
OPLS_2005

> <r_lp_Energy>
13.6513

> <b_lp_Chiralities_Consistent>
1

> <s_lp_Variant>
AV-unprocessed.smi:2389-1

> <Gold.Version>
5.8.1

> <Gold.Id.Protein>
6NUR|6NUR_protein|mol2

> <Gold.PLP.Fitness>
43.8383

> <Gold.PLP.PLP>
-38.8426

> <Gold.PLP.part.hbond>
-1.9252

> <Gold.PLP.part.metal>
0.0000

> <Gold.PLP.part.buried>
-3.7893

> <Gold.PLP.part.nonpolar>
-33.1974

> <Gold.PLP.part.repulsive>
0.2652

> <Gold.PLP.ligand.clash>
0.5477

> <Gold.PLP.ligand.torsion>
0.4527

> <Gold.PLP.Chemscore.Hbond>
1.9600

> <Gold.PLP.Chemscore.CHOScore>
0.0000

> <Gold.PLP.Chemscore.Metal>
0.0000

> <Gold.Chemscore.Hbonds>
donor molecule, donor type, donor heavy atom, donor atom, acceptor molecule, acceptor atom, score
      L1  H     9    26       P1  8028  0.93
      L1  H    12    27       P1  8028  1.00

> <Gold.PLP.Chemscore.Internal.Correction>
0.5687

> <Gold.Rescore>
     Score         DG    S(hbond)    S(metal)    S(lipo)     H(rot)  DE(clash)    DE(int)     intcor
     15.53     -17.30       1.97        0.00      80.16       1.62       0.01       1.76       ----

> <Gold.Chemscore.Fitness>
15.5261

> <Gold.Chemscore.DG>
-17.2976

> <Gold.Chemscore.ZeroCoef>
-5.4800

> <Gold.Chemscore.Hbond>
1.9742

> <Gold.Chemscore.Metal>
0.0000

> <Gold.Chemscore.Lipo>
80.1564

> <Gold.Chemscore.Internal_Hbond>
0.0000

> <Gold.Chemscore.DEClash>
0.0106

> <Gold.Chemscore.DEInternal>
1.7609

> <Gold.Chemscore.Rot>
1.6228

> <Gold.Chemscore.Internal.Correction>
   9.000000E+99

> <Gold.Chemscore.Hbonds>
donor molecule, donor type, donor heavy atom, donor atom, acceptor molecule, acceptor atom, score
      L1  H     9    26       P1  8028  0.89
      L1  H    12    27       P1  8028  0.93

> <Gold.Chemscore.Hbond.Weighted>
-6.5938

> <Gold.Chemscore.Metal.Weighted>
-0.0000

> <Gold.Chemscore.Lipo.Weighted>
-9.3783

> <Gold.Chemscore.Internal_Hbond.Weighted>
0.0000

> <Gold.Chemscore.DEClash.Weighted>
0.0106

> <Gold.Chemscore.DEInternal.Weighted>
1.7609

> <Gold.Chemscore.Rot.Weighted>
4.1545

> <Gold.Chemscore.Internal.Correction.Weighted>
   9.000000E+99

> <Gold.Protein.RotatedTorsions>
[ 6907 6896 6895 6894 ] final   67.88 input  -60.11 | X-H torsion
[ 7974 7965 7964 7962 ] final   61.63 input  175.53 | X-H torsion
[ 8008 7997 7996 7995 ] final  -93.14 input   59.86 | X-H torsion
[ 10167 10162 10161 10158 ] final  -36.21 input  -65.29 | X-H torsion
[ 10718 10713 10712 10709 ] final -134.52 input   66.30 | X-H torsion
[ 10763 10752 10751 10750 ] final   56.81 input  -60.55 | X-H torsion
[ 11005 11000 10999 10996 ] final  106.11 input  -57.11 | X-H torsion

> <Gold.Protein.ActiveResidues>
 VAL166  LYS551  ARG553  GLY616  TRP617  ASP618  TYR619  PRO620  LYS621  CYS622 
 ASP623  PHE694  ASN695  SER759  ASP760  ASP761  ALA762  ILE779  LEU786  VAL792 
 PHE793  MET794  SER795  GLU796  ALA797  LYS798  CYS799  TRP800  GLU811  SER814 

> <Gold.Protein.RotatedAtoms>
  152.4582  134.5243  159.9791 H   0  0  0  0  0  0  0  0  0  0  0  0  # atno 6907 bound_to 6896
  151.5299  133.3445  159.2924 H   0  0  0  0  0  0  0  0  0  0  0  0  # atno 6908 bound_to 6896
  150.8535  134.7896  159.7089 H   0  0  0  0  0  0  0  0  0  0  0  0  # atno 6909 bound_to 6896
  145.8825  139.3454  143.0697 H   0  0  0  0  0  0  0  0  0  0  0  0  # atno 7974 bound_to 7965
  154.7319  140.0502  157.0734 H   0  0  0  0  0  0  0  0  0  0  0  0  # atno 8008 bound_to 7997
  155.0291  140.3156  155.4746 H   0  0  0  0  0  0  0  0  0  0  0  0  # atno 8009 bound_to 7997
  156.2843  140.2153  156.5412 H   0  0  0  0  0  0  0  0  0  0  0  0  # atno 8010 bound_to 7997
  140.7148  143.3424  151.2329 H   0  0  0  0  0  0  0  0  0  0  0  0  # atno 10167 bound_to 10162
  156.2563  130.7183  151.1101 H   0  0  0  0  0  0  0  0  0  0  0  0  # atno 10718 bound_to 10713
  152.9838  135.5663  154.5289 H   0  0  0  0  0  0  0  0  0  0  0  0  # atno 10763 bound_to 10752
  154.4764  135.2787  155.1606 H   0  0  0  0  0  0  0  0  0  0  0  0  # atno 10764 bound_to 10752
  154.3132  135.6284  153.5528 H   0  0  0  0  0  0  0  0  0  0  0  0  # atno 10765 bound_to 10752
  139.8810  134.9358  156.5617 H   0  0  0  0  0  0  0  0  0  0  0  0  # atno 11005 bound_to 11000
  145.9006  140.9245  143.0505 LP  0  0  0  0  0  0  0  0  0  0  0  0  # atno 17320 bound_to 7965
  144.6727  140.1027  143.7459 LP  0  0  0  0  0  0  0  0  0  0  0  0  # atno 17321 bound_to 7965
  139.6935  143.9652  152.2871 LP  0  0  0  0  0  0  0  0  0  0  0  0  # atno 17342 bound_to 10162
  139.9322  144.6734  150.8351 LP  0  0  0  0  0  0  0  0  0  0  0  0  # atno 17343 bound_to 10162
  157.7234  131.0666  150.6039 LP  0  0  0  0  0  0  0  0  0  0  0  0  # atno 17370 bound_to 10713
  156.6123  130.4383  149.5854 LP  0  0  0  0  0  0  0  0  0  0  0  0  # atno 17371 bound_to 10713
  140.8165  133.8388  155.8856 LP  0  0  0  0  0  0  0  0  0  0  0  0  # atno 17394 bound_to 11000
  140.9458  134.1842  157.4764 LP  0  0  0  0  0  0  0  0  0  0  0  0  # atno 17395 bound_to 11000

$$$$
