AV-unprocessed.smi:919|AV-procd|sdf|4167|dock4
  -GOLD-   22720 2 73D 1   1.00000     0.00000
 Structure written by MMmdl.
 43 45  0  0  0  0  0  0  0  0  1 V2000
  150.2135  137.8822  154.6258 C   0  0  0  0  0  0  0  0  0  0  0  0
  149.5967  139.2425  154.4691 C   0  0  0  0  0  0  0  0  0  0  0  0
  150.3753  140.3047  154.3472 N   0  0  0  0  0  0  0  0  0  0  0  0
  149.5131  141.3987  154.2235 O   0  0  0  0  0  0  0  0  0  0  0  0
  148.2342  140.9465  154.2755 C   0  0  0  0  0  0  0  0  0  0  0  0
  147.1595  141.9741  154.1634 C   0  0  0  0  0  0  0  0  0  0  0  0
  148.2158  139.5873  154.4263 C   0  0  0  0  0  0  0  0  0  0  0  0
  147.0334  138.6634  154.5302 C   0  0  0  0  0  0  0  0  0  0  0  0
  146.2748  138.5728  153.1968 C   0  0  0  0  0  0  0  0  0  0  0  0
  146.6014  137.3468  152.4796 N   0  0  0  0  0  0  0  0  0  0  0  0
  145.7028  136.4551  152.0285 C   0  0  0  0  0  0  0  0  0  0  0  0
  144.4879  136.5894  152.1633 O   0  0  0  0  0  0  0  0  0  0  0  0
  146.2348  135.3857  151.4108 N   0  0  0  0  0  0  0  0  0  0  0  0
  145.5295  134.2489  150.8147 C   0  0  1  0  0  0  0  0  0  0  0  0
  146.4656  133.0635  150.4789 C   0  0  0  0  0  0  0  0  0  0  0  0
  145.8547  131.9039  151.2870 C   0  0  2  0  0  0  0  0  0  0  0  0
  144.4971  131.5074  150.6748 C   0  0  0  0  0  0  0  0  0  0  0  0
  143.5857  132.6860  151.0704 C   0  0  0  0  0  0  0  0  0  0  0  0
  144.5510  133.6166  151.8283 C   0  0  1  0  0  0  0  0  0  0  0  0
  145.4291  132.6103  152.5667 C   0  0  0  0  0  0  0  0  0  0  0  0
  149.6341  137.2661  155.3141 H   0  0  0  0  0  0  0  0  0  0  0  0
  151.2300  137.9437  155.0161 H   0  0  0  0  0  0  0  0  0  0  0  0
  150.2544  137.3616  153.6691 H   0  0  0  0  0  0  0  0  0  0  0  0
  146.1938  141.5654  154.4614 H   0  0  0  0  0  0  0  0  0  0  0  0
  147.0740  142.3319  153.1374 H   0  0  0  0  0  0  0  0  0  0  0  0
  147.3738  142.8297  154.8042 H   0  0  0  0  0  0  0  0  0  0  0  0
  147.3513  137.6651  154.8334 H   0  0  0  0  0  0  0  0  0  0  0  0
  146.3558  139.0043  155.3138 H   0  0  0  0  0  0  0  0  0  0  0  0
  145.1977  138.6324  153.3634 H   0  0  0  0  0  0  0  0  0  0  0  0
  146.5372  139.4189  152.5609 H   0  0  0  0  0  0  0  0  0  0  0  0
  147.5801  137.1555  152.3224 H   0  0  0  0  0  0  0  0  0  0  0  0
  147.2417  135.3639  151.3359 H   0  0  0  0  0  0  0  0  0  0  0  0
  144.9847  134.5887  149.9319 H   0  0  0  0  0  0  0  0  0  0  0  0
  146.4954  132.8507  149.4095 H   0  0  0  0  0  0  0  0  0  0  0  0
  147.4890  133.2539  150.8059 H   0  0  0  0  0  0  0  0  0  0  0  0
  146.5348  131.0634  151.4286 H   0  0  0  0  0  0  0  0  0  0  0  0
  144.5565  131.3709  149.5943 H   0  0  0  0  0  0  0  0  0  0  0  0
  144.1300  130.5770  151.1101 H   0  0  0  0  0  0  0  0  0  0  0  0
  143.1284  133.1695  150.2065 H   0  0  0  0  0  0  0  0  0  0  0  0
  142.7829  132.3453  151.7255 H   0  0  0  0  0  0  0  0  0  0  0  0
  144.0403  134.3396  152.4656 H   0  0  0  0  0  0  0  0  0  0  0  0
  144.8718  131.9686  153.2516 H   0  0  0  0  0  0  0  0  0  0  0  0
  146.2601  133.0704  153.1043 H   0  0  0  0  0  0  0  0  0  0  0  0
  1  2  1  0  0  0  0
  1 21  1  0  0  0  0
  1 22  1  0  0  0  0
  1 23  1  0  0  0  0
  2  7  1  0  0  0  0
  2  3  2  0  0  0  0
  3  4  1  0  0  0  0
  4  5  1  0  0  0  0
  5  6  1  0  0  0  0
  5  7  2  0  0  0  0
  6 24  1  0  0  0  0
  6 25  1  0  0  0  0
  6 26  1  0  0  0  0
  7  8  1  0  0  0  0
  8  9  1  0  0  0  0
  8 27  1  0  0  0  0
  8 28  1  0  0  0  0
  9 10  1  0  0  0  0
  9 29  1  0  0  0  0
  9 30  1  0  0  0  0
 10 11  1  0  0  0  0
 10 31  1  0  0  0  0
 11 12  2  0  0  0  0
 11 13  1  0  0  0  0
 13 14  1  0  0  0  0
 13 32  1  0  0  0  0
 14 19  1  0  0  0  0
 14 15  1  0  0  0  0
 14 33  1  0  0  0  0
 15 16  1  0  0  0  0
 15 34  1  0  0  0  0
 15 35  1  0  0  0  0
 16 20  1  0  0  0  0
 16 17  1  0  0  0  0
 16 36  1  0  0  0  0
 17 18  1  0  0  0  0
 17 37  1  0  0  0  0
 17 38  1  0  0  0  0
 18 19  1  0  0  0  0
 18 39  1  0  0  0  0
 18 40  1  0  0  0  0
 19 20  1  0  0  0  0
 19 41  1  0  0  0  0
 20 42  1  0  0  0  0
 20 43  1  0  0  0  0
M  END
> <s_m_source_file>
AV-unprocessed.smi

> <i_m_source_file_index>
919

> <i_lp_mmshare_version>
43012

> <i_f3d_flags>
0

> <s_epik_input>
W0NIM11jMW5vYyhbQ0gzXSljMVtDSDJdW0NIMl1bTkhdQyg9TylbTkhdW0NASF0oW0NIMl1bQ0BASF0yMylbQ0BASF0oW0NIMl0zKVtDSDJdW0NIMl0y

> <s_epik_cmdline>
J2VwaWtfcHl0aG9uJywgJy1waCcsICc3LjAnLCAnLXRuJywgJzgnLCAnLW1hJywgJzIwMCcsICctbWV0YWxfYmluZGluZycsICctaW1hZScsICc8aW5maWxlLm1hZT4nLCAnLW9tYWUnLCAnPG91dGZpbGUubWFlPic=

> <r_lp_tautomer_probability>
1

> <r_epik_Ionization_Penalty>
6.40771e-05

> <r_epik_Ionization_Penalty_Charging>
0

> <r_epik_Ionization_Penalty_Neutral>
6.40771e-05

> <r_epik_State_Penalty>
-0

> <r_epik_Charging_Adjusted_Penalty>
0

> <i_epik_Tot_Q>
0

> <i_epik_Tot_abs_Q>
0

> <r_epik_Metal_State_Penalty>
-0

> <b_epik_Metal_Only>
0

> <s_lp_Force_Field>
OPLS_2005

> <r_lp_Energy>
47.296

> <b_lp_Chiralities_Consistent>
1

> <s_lp_Variant>
AV-unprocessed.smi:919-4

> <Gold.Version>
5.8.1

> <Gold.Id.Protein>
6NUR|6NUR_protein|mol2

> <Gold.PLP.Fitness>
48.4245

> <Gold.PLP.PLP>
-38.5037

> <Gold.PLP.part.hbond>
-4.8769

> <Gold.PLP.part.metal>
0.0000

> <Gold.PLP.part.buried>
-5.9904

> <Gold.PLP.part.nonpolar>
-28.8457

> <Gold.PLP.part.repulsive>
1.1637

> <Gold.PLP.ligand.clash>
0.0000

> <Gold.PLP.ligand.torsion>
0.4872

> <Gold.PLP.Chemscore.Hbond>
3.6240

> <Gold.PLP.Chemscore.CHOScore>
0.0000

> <Gold.PLP.Chemscore.Metal>
0.0000

> <Gold.Chemscore.Hbonds>
donor molecule, donor type, donor heavy atom, donor atom, acceptor molecule, acceptor atom, score
      L1  H    10    31       P1  7948  1.00
      L1  H    13    32       P1  7948  0.96
      P1  H  7989  7998       L1     3  0.90
      P1  H  8011  8017       L1     4  0.44

> <Gold.PLP.Chemscore.Internal.Correction>
0.0232

> <Gold.Rescore>
     Score         DG    S(hbond)    S(metal)    S(lipo)     H(rot)  DE(clash)    DE(int)     intcor
     20.15     -21.50       2.76        0.00      91.44       1.52       0.20       1.15       ----

> <Gold.Chemscore.Fitness>
20.1467

> <Gold.Chemscore.DG>
-21.5047

> <Gold.Chemscore.ZeroCoef>
-5.4800

> <Gold.Chemscore.Hbond>
2.7568

> <Gold.Chemscore.Metal>
0.0000

> <Gold.Chemscore.Lipo>
91.4386

> <Gold.Chemscore.Internal_Hbond>
0.0000

> <Gold.Chemscore.DEClash>
0.2049

> <Gold.Chemscore.DEInternal>
1.1531

> <Gold.Chemscore.Rot>
1.5161

> <Gold.Chemscore.Internal.Correction>
   9.000000E+99

> <Gold.Chemscore.Hbonds>
donor molecule, donor type, donor heavy atom, donor atom, acceptor molecule, acceptor atom, score
      L1  H    10    31       P1  7948  0.99
      L1  H    13    32       P1  7948  0.81
      P1  H  7989  7998       L1     3  0.17
      P1  H  8011  8017       L1     4  0.24

> <Gold.Chemscore.Hbond.Weighted>
-9.2077

> <Gold.Chemscore.Metal.Weighted>
-0.0000

> <Gold.Chemscore.Lipo.Weighted>
-10.6983

> <Gold.Chemscore.Internal_Hbond.Weighted>
0.0000

> <Gold.Chemscore.DEClash.Weighted>
0.2049

> <Gold.Chemscore.DEInternal.Weighted>
1.1531

> <Gold.Chemscore.Rot.Weighted>
3.8813

> <Gold.Chemscore.Internal.Correction.Weighted>
   9.000000E+99

> <Gold.Protein.RotatedTorsions>
[ 6907 6896 6895 6894 ] final  -43.69 input  -60.11 | X-H torsion
[ 7974 7965 7964 7962 ] final   95.19 input  175.53 | X-H torsion
[ 8008 7997 7996 7995 ] final  -51.87 input   59.86 | X-H torsion
[ 10167 10162 10161 10158 ] final -167.12 input  -65.29 | X-H torsion
[ 10718 10713 10712 10709 ] final  -93.67 input   66.30 | X-H torsion
[ 10763 10752 10751 10750 ] final  -23.26 input  -60.55 | X-H torsion
[ 11005 11000 10999 10996 ] final -116.85 input  -57.11 | X-H torsion

> <Gold.Protein.ActiveResidues>
 VAL166  LYS551  ARG553  GLY616  TRP617  ASP618  TYR619  PRO620  LYS621  CYS622 
 ASP623  PHE694  ASN695  SER759  ASP760  ASP761  ALA762  ILE779  LEU786  VAL792 
 PHE793  MET794  SER795  GLU796  ALA797  LYS798  CYS799  TRP800  GLU811  SER814 

> <Gold.Protein.RotatedAtoms>
  150.9411  134.8820  159.7612 H   0  0  0  0  0  0  0  0  0  0  0  0  # atno 6907 bound_to 6896
  152.5080  134.3940  159.9404 H   0  0  0  0  0  0  0  0  0  0  0  0  # atno 6908 bound_to 6896
  151.3961  133.3732  159.2761 H   0  0  0  0  0  0  0  0  0  0  0  0  # atno 6909 bound_to 6896
  145.4554  139.2290  143.3016 H   0  0  0  0  0  0  0  0  0  0  0  0  # atno 7974 bound_to 7965
  154.4093  140.1237  156.4899 H   0  0  0  0  0  0  0  0  0  0  0  0  # atno 8008 bound_to 7997
  155.7000  140.3495  155.4909 H   0  0  0  0  0  0  0  0  0  0  0  0  # atno 8009 bound_to 7997
  155.9393  140.1084  157.1058 H   0  0  0  0  0  0  0  0  0  0  0  0  # atno 8010 bound_to 7997
  139.6070  144.0893  152.1803 H   0  0  0  0  0  0  0  0  0  0  0  0  # atno 10167 bound_to 10162
  156.0016  130.5036  150.5811 H   0  0  0  0  0  0  0  0  0  0  0  0  # atno 10718 bound_to 10713
  153.6650  135.6974  153.5165 H   0  0  0  0  0  0  0  0  0  0  0  0  # atno 10763 bound_to 10752
  153.2602  135.4247  155.0885 H   0  0  0  0  0  0  0  0  0  0  0  0  # atno 10764 bound_to 10752
  154.8442  135.3553  154.6195 H   0  0  0  0  0  0  0  0  0  0  0  0  # atno 10765 bound_to 10752
  141.0395  133.9858  157.3018 H   0  0  0  0  0  0  0  0  0  0  0  0  # atno 11005 bound_to 11000
  146.2481  140.5318  142.8905 LP  0  0  0  0  0  0  0  0  0  0  0  0  # atno 17320 bound_to 7965
  144.8035  140.6257  143.6462 LP  0  0  0  0  0  0  0  0  0  0  0  0  # atno 17321 bound_to 7965
  140.0502  144.5938  150.7342 LP  0  0  0  0  0  0  0  0  0  0  0  0  # atno 17342 bound_to 10162
  140.7292  143.2670  151.4013 LP  0  0  0  0  0  0  0  0  0  0  0  0  # atno 17343 bound_to 10162
  157.3691  131.0762  151.1572 LP  0  0  0  0  0  0  0  0  0  0  0  0  # atno 17370 bound_to 10713
  157.2332  130.6535  149.5858 LP  0  0  0  0  0  0  0  0  0  0  0  0  # atno 17371 bound_to 10713
  139.9265  135.0201  156.8252 LP  0  0  0  0  0  0  0  0  0  0  0  0  # atno 17394 bound_to 11000
  140.6261  133.9949  155.7640 LP  0  0  0  0  0  0  0  0  0  0  0  0  # atno 17395 bound_to 11000

$$$$
