AV-unprocessed.smi:55|AV-procd|sdf|575|dock2
  -GOLD-   2262016473D 1   1.00000     0.00000
 Structure written by MMmdl.
 30 31  0  0  0  0  0  0  0  0  2 V2000
  150.4507  142.5981  158.9520 C   0  0  0  0  0  0  0  0  0  0  0  0
  150.8267  141.7181  157.7726 C   0  0  0  0  0  0  0  0  0  0  0  0
  150.0948  141.6829  156.6365 C   0  0  0  0  0  0  0  0  0  0  0  0
  150.4428  140.8792  155.5634 N   0  0  0  0  0  0  0  0  0  0  0  0
  149.6197  140.8451  154.2913 C   0  0  2  0  0  0  0  0  0  0  0  0
  148.4000  141.7715  154.4123 C   0  0  0  0  0  0  0  0  0  0  0  0
  147.2682  140.8814  153.9364 C   0  0  2  0  0  0  0  0  0  0  0  0
  146.0431  141.2546  154.5337 O   0  0  0  0  0  0  0  0  0  0  0  0
  147.7400  139.4977  154.3821 C   0  0  1  0  0  0  0  0  0  0  0  0
  147.0776  138.3442  153.6135 C   0  0  0  0  0  0  0  0  0  0  0  0
  147.3479  138.4605  152.2329 O   0  0  0  0  0  0  0  0  0  0  0  0
  149.1299  139.5523  154.0734 O   0  0  0  0  0  0  0  0  0  0  0  0
  151.6004  140.0620  155.6479 C   0  0  0  0  0  0  0  0  0  0  0  0
  151.8847  139.3609  154.6762 O   0  0  0  0  0  0  0  0  0  0  0  0
  152.3437  140.0899  156.7905 N   0  5  0  0  0  0  0  0  0  0  0  0
  152.0239  140.8732  157.8600 C   0  0  0  0  0  0  0  0  0  0  0  0
  152.7054  140.8901  158.8848 O   0  0  0  0  0  0  0  0  0  0  0  0
  150.3048  141.1079  153.4835 H   0  0  0  0  0  0  0  0  0  0  0  0
  147.1876  140.9278  152.8494 H   0  0  0  0  0  0  0  0  0  0  0  0
  147.6009  139.3901  155.4598 H   0  0  0  0  0  0  0  0  0  0  0  0
  149.5442  143.1689  158.7481 H   0  0  0  0  0  0  0  0  0  0  0  0
  151.2523  143.3040  159.1708 H   0  0  0  0  0  0  0  0  0  0  0  0
  150.2745  141.9900  159.8397 H   0  0  0  0  0  0  0  0  0  0  0  0
  149.2154  142.3053  156.5786 H   0  0  0  0  0  0  0  0  0  0  0  0
  148.2586  142.0598  155.4557 H   0  0  0  0  0  0  0  0  0  0  0  0
  148.5280  142.6721  153.8111 H   0  0  0  0  0  0  0  0  0  0  0  0
  145.3382  140.9801  153.9673 H   0  0  0  0  0  0  0  0  0  0  0  0
  147.4858  137.3893  153.9459 H   0  0  0  0  0  0  0  0  0  0  0  0
  146.0020  138.3158  153.7901 H   0  0  0  0  0  0  0  0  0  0  0  0
  147.6447  137.6222  151.9134 H   0  0  0  0  0  0  0  0  0  0  0  0
  1  2  1  0  0  0  0
  1 21  1  0  0  0  0
  1 22  1  0  0  0  0
  1 23  1  0  0  0  0
  2 16  1  0  0  0  0
  2  3  2  0  0  0  0
  3  4  1  0  0  0  0
  3 24  1  0  0  0  0
  4  5  1  0  0  0  0
  4 13  1  0  0  0  0
  5 18  1  0  0  0  0
  5 12  1  0  0  0  0
  5  6  1  0  0  0  0
  6  7  1  0  0  0  0
  6 25  1  0  0  0  0
  6 26  1  0  0  0  0
  7 19  1  0  0  0  0
  7  8  1  0  0  0  0
  7  9  1  0  0  0  0
  8 27  1  0  0  0  0
  9 20  1  0  0  0  0
  9 10  1  0  0  0  0
  9 12  1  0  0  0  0
 10 11  1  0  0  0  0
 10 28  1  0  0  0  0
 10 29  1  0  0  0  0
 11 30  1  0  0  0  0
 13 14  2  0  0  0  0
 13 15  1  0  0  0  0
 15 16  1  0  0  0  0
 16 17  2  0  0  0  0
M  CHG  1  15  -1
M  END
> <s_m_source_file>
AV-unprocessed.smi

> <i_m_source_file_index>
55

> <i_lp_mmshare_version>
43012

> <i_f3d_flags>
0

> <s_epik_input>
Tz1jMVtuSF1jKD1PKW4oW2NIXWMxW0NIM10pW0NAQEhdMltDSDJdW0NAQEhdKFtPSF0pW0NAQEhdKE8yKVtDSDJdW09IXQ==

> <s_epik_cmdline>
J2VwaWtfcHl0aG9uJywgJy1waCcsICc3LjAnLCAnLXRuJywgJzgnLCAnLW1hJywgJzIwMCcsICctbWV0YWxfYmluZGluZycsICctaW1hZScsICc8aW5maWxlLm1hZT4nLCAnLW9tYWUnLCAnPG91dGZpbGUubWFlPic=

> <r_lp_tautomer_probability>
0.999537

> <r_epik_Ionization_Penalty>
3.66603

> <r_epik_Ionization_Penalty_Charging>
1.09773e-07

> <r_epik_Ionization_Penalty_Neutral>
3.66603

> <r_epik_State_Penalty>
3.66562

> <r_epik_Charging_Adjusted_Penalty>
3.66562

> <i_epik_Tot_Q>
-1

> <i_epik_Tot_abs_Q>
1

> <r_epik_Metal_State_Penalty>
0.234536

> <b_epik_Metal_Only>
1

> <s_epik_Chemistry_Notes>
This compound contains an acetal/aminal-like group ( X-CH(R)-Y where X, Y are N, S, or O) that may be acid/base labile, releasing an aldehyde.

> <s_lp_Force_Field>
OPLS_2005

> <r_lp_Energy>
36.1714

> <b_lp_Chiralities_Consistent>
1

> <s_lp_Variant>
AV-unprocessed.smi:55-15

> <Gold.Version>
5.8.1

> <Gold.Id.Protein>
6NUR|6NUR_protein|mol2

> <Gold.PLP.Fitness>
41.3029

> <Gold.PLP.PLP>
-26.2897

> <Gold.PLP.part.hbond>
-4.5107

> <Gold.PLP.part.metal>
0.0000

> <Gold.PLP.part.buried>
-0.0823

> <Gold.PLP.part.nonpolar>
-21.7775

> <Gold.PLP.part.repulsive>
0.9098

> <Gold.PLP.ligand.clash>
0.0000

> <Gold.PLP.ligand.torsion>
0.0118

> <Gold.PLP.Chemscore.Hbond>
4.0068

> <Gold.PLP.Chemscore.CHOScore>
1.0000

> <Gold.PLP.Chemscore.Metal>
0.0000

> <Gold.Chemscore.Hbonds>
donor molecule, donor type, donor heavy atom, donor atom, acceptor molecule, acceptor atom, score
      L1  H     8    27       P1 10175  0.39
      L1  H    11    30       P1  7948  1.00
      P1  H  7989  7998       L1    14  0.54
      P1  H  7997  8009       L1    15  2.00
      L1  C     3    24       P1  8028  0.82

> <Gold.PLP.Chemscore.Internal.Correction>
0.0163

> <Gold.Rescore>
     Score         DG    S(hbond)    S(metal)    S(lipo)     H(rot)  DE(clash)    DE(int)     intcor
      9.37     -10.79       2.32        0.00      37.97       2.69       0.10       1.32       ----

> <Gold.Chemscore.Fitness>
9.3700

> <Gold.Chemscore.DG>
-10.7912

> <Gold.Chemscore.ZeroCoef>
-5.4800

> <Gold.Chemscore.Hbond>
2.3199

> <Gold.Chemscore.Metal>
0.0000

> <Gold.Chemscore.Lipo>
37.9655

> <Gold.Chemscore.Internal_Hbond>
0.0000

> <Gold.Chemscore.DEClash>
0.1024

> <Gold.Chemscore.DEInternal>
1.3189

> <Gold.Chemscore.Rot>
2.6871

> <Gold.Chemscore.Internal.Correction>
   9.000000E+99

> <Gold.Chemscore.Hbonds>
donor molecule, donor type, donor heavy atom, donor atom, acceptor molecule, acceptor atom, score
      L1  H     8    27       P1 10175  0.34
      L1  H    11    30       P1  7948  0.95
      P1  H  7989  7998       L1    14  0.03
      P1  H  7997  8009       L1    15  0.61

> <Gold.Chemscore.Hbond.Weighted>
-7.7483

> <Gold.Chemscore.Metal.Weighted>
-0.0000

> <Gold.Chemscore.Lipo.Weighted>
-4.4420

> <Gold.Chemscore.Internal_Hbond.Weighted>
0.0000

> <Gold.Chemscore.DEClash.Weighted>
0.1024

> <Gold.Chemscore.DEInternal.Weighted>
1.3189

> <Gold.Chemscore.Rot.Weighted>
6.8791

> <Gold.Chemscore.Internal.Correction.Weighted>
   9.000000E+99

> <Gold.Protein.RotatedTorsions>
[ 6907 6896 6895 6894 ] final -161.76 input  -60.11 | X-H torsion
[ 7974 7965 7964 7962 ] final  153.03 input  175.53 | X-H torsion
[ 8008 7997 7996 7995 ] final -173.42 input   59.86 | X-H torsion
[ 10167 10162 10161 10158 ] final  133.24 input  -65.29 | X-H torsion
[ 10718 10713 10712 10709 ] final -122.96 input   66.30 | X-H torsion
[ 10763 10752 10751 10750 ] final   85.89 input  -60.55 | X-H torsion
[ 11005 11000 10999 10996 ] final  114.52 input  -57.11 | X-H torsion

> <Gold.Protein.ActiveResidues>
 VAL166  LYS551  ARG553  GLY616  TRP617  ASP618  TYR619  PRO620  LYS621  CYS622 
 ASP623  PHE694  ASN695  SER759  ASP760  ASP761  ALA762  ILE779  LEU786  VAL792 
 PHE793  MET794  SER795  GLU796  ALA797  LYS798  CYS799  TRP800  GLU811  SER814 

> <Gold.Protein.RotatedAtoms>
  151.3696  133.3859  159.2698 H   0  0  0  0  0  0  0  0  0  0  0  0  # atno 6907 bound_to 6896
  150.9661  134.9042  159.7770 H   0  0  0  0  0  0  0  0  0  0  0  0  # atno 6908 bound_to 6896
  152.5167  134.3657  159.9352 H   0  0  0  0  0  0  0  0  0  0  0  0  # atno 6909 bound_to 6896
  144.8182  139.6747  143.6112 H   0  0  0  0  0  0  0  0  0  0  0  0  # atno 7974 bound_to 7965
  155.9572  140.1137  157.0927 H   0  0  0  0  0  0  0  0  0  0  0  0  # atno 8008 bound_to 7997
  154.4123  140.1189  156.5197 H   0  0  0  0  0  0  0  0  0  0  0  0  # atno 8009 bound_to 7997
  155.6767  140.3473  155.4841 H   0  0  0  0  0  0  0  0  0  0  0  0  # atno 8010 bound_to 7997
  139.5305  144.6625  151.4967 H   0  0  0  0  0  0  0  0  0  0  0  0  # atno 10167 bound_to 10162
  156.1462  130.6502  150.9846 H   0  0  0  0  0  0  0  0  0  0  0  0  # atno 10718 bound_to 10713
  153.1518  135.4600  154.9647 H   0  0  0  0  0  0  0  0  0  0  0  0  # atno 10763 bound_to 10752
  154.7830  135.3195  154.7949 H   0  0  0  0  0  0  0  0  0  0  0  0  # atno 10764 bound_to 10752
  153.8453  135.6926  153.4852 H   0  0  0  0  0  0  0  0  0  0  0  0  # atno 10765 bound_to 10752
  139.8983  134.9569  156.6904 H   0  0  0  0  0  0  0  0  0  0  0  0  # atno 11005 bound_to 11000
  146.2486  139.6151  142.9442 LP  0  0  0  0  0  0  0  0  0  0  0  0  # atno 17320 bound_to 7965
  145.5166  141.0433  143.2458 LP  0  0  0  0  0  0  0  0  0  0  0  0  # atno 17321 bound_to 7965
  140.6480  143.8754  150.6757 LP  0  0  0  0  0  0  0  0  0  0  0  0  # atno 17342 bound_to 10162
  140.2110  143.3883  152.1718 LP  0  0  0  0  0  0  0  0  0  0  0  0  # atno 17343 bound_to 10162
  157.6619  131.0879  150.7819 LP  0  0  0  0  0  0  0  0  0  0  0  0  # atno 17370 bound_to 10713
  156.7891  130.4884  149.5388 LP  0  0  0  0  0  0  0  0  0  0  0  0  # atno 17371 bound_to 10713
  140.7229  133.9125  155.8159 LP  0  0  0  0  0  0  0  0  0  0  0  0  # atno 17394 bound_to 11000
  141.0213  134.0885  157.4117 LP  0  0  0  0  0  0  0  0  0  0  0  0  # atno 17395 bound_to 11000

$$$$
