AV-unprocessed.smi:1934|AV-procd|sdf|7824|dock8
  -GOLD-   22720 9573D 1   1.00000     0.00000
 Structure written by MMmdl.
 46 47  0  0  0  0  0  0  0  0  2 V2000
  153.1653  141.0224  160.6633 C   0  0  0  0  0  0  0  0  0  0  0  0
  152.3864  141.7169  159.5853 C   0  0  0  0  0  0  0  0  0  0  0  0
  151.5659  141.1312  158.5772 C   0  0  0  0  0  0  0  0  0  0  0  0
  151.1128  142.2221  157.8870 C   0  0  0  0  0  0  0  0  0  0  0  0
  150.2783  142.2701  156.8147 N   0  0  0  0  0  0  0  0  0  0  0  0
  149.8418  141.2593  156.0432 C   0  0  0  0  0  0  0  0  0  0  0  0
  150.1426  140.0731  156.1788 O   0  0  0  0  0  0  0  0  0  0  0  0
  149.0248  141.7045  155.0776 N   0  0  0  0  0  0  0  0  0  0  0  0
  148.3823  140.8648  154.0732 C   0  0  0  0  0  0  0  0  0  0  0  0
  146.8820  141.1908  153.9396 C   0  0  0  0  0  0  0  0  0  0  0  0
  146.0208  140.0171  154.2314 N   0  3  2  0  0  0  0  0  0  0  0  0
  145.5004  140.0334  155.6232 C   0  0  0  0  0  0  0  0  0  0  0  0
  144.4901  138.8979  155.8511 C   0  0  0  0  0  0  0  0  0  0  0  0
  145.1075  137.5345  155.5103 C   0  0  0  0  0  0  0  0  0  0  0  0
  145.7030  137.5305  154.0901 C   0  0  1  0  0  0  0  0  0  0  0  0
  144.6271  137.4819  152.9909 C   0  0  0  0  0  0  0  0  0  0  0  0
  146.6705  138.7180  153.9058 C   0  0  0  0  0  0  0  0  0  0  0  0
  151.6370  143.3599  158.4588 N   0  0  0  0  0  0  0  0  0  0  0  0
  151.4480  144.7489  158.0889 C   0  0  0  0  0  0  0  0  0  0  0  0
  152.4240  143.0423  159.5093 N   0  0  0  0  0  0  0  0  0  0  0  0
  153.0393  139.9411  160.6068 H   0  0  0  0  0  0  0  0  0  0  0  0
  152.8382  141.3430  161.6526 H   0  0  0  0  0  0  0  0  0  0  0  0
  154.2309  141.2371  160.5780 H   0  0  0  0  0  0  0  0  0  0  0  0
  151.3571  140.0854  158.4101 H   0  0  0  0  0  0  0  0  0  0  0  0
  149.9523  143.1926  156.5666 H   0  0  0  0  0  0  0  0  0  0  0  0
  148.8285  142.6943  155.0387 H   0  0  0  0  0  0  0  0  0  0  0  0
  148.8860  140.9815  153.1119 H   0  0  0  0  0  0  0  0  0  0  0  0
  148.5310  139.8296  154.3769 H   0  0  0  0  0  0  0  0  0  0  0  0
  146.6056  142.0245  154.5871 H   0  0  0  0  0  0  0  0  0  0  0  0
  146.6943  141.5222  152.9173 H   0  0  0  0  0  0  0  0  0  0  0  0
  146.3315  139.9470  156.3250 H   0  0  0  0  0  0  0  0  0  0  0  0
  145.0117  140.9874  155.8253 H   0  0  0  0  0  0  0  0  0  0  0  0
  144.1552  138.9033  156.8888 H   0  0  0  0  0  0  0  0  0  0  0  0
  143.6009  139.0678  155.2435 H   0  0  0  0  0  0  0  0  0  0  0  0
  145.8962  137.3122  156.2302 H   0  0  0  0  0  0  0  0  0  0  0  0
  144.3646  136.7433  155.6181 H   0  0  0  0  0  0  0  0  0  0  0  0
  146.2870  136.6149  153.9871 H   0  0  0  0  0  0  0  0  0  0  0  0
  144.0042  138.3765  152.9892 H   0  0  0  0  0  0  0  0  0  0  0  0
  143.9710  136.6212  153.1233 H   0  0  0  0  0  0  0  0  0  0  0  0
  145.0818  137.3967  152.0037 H   0  0  0  0  0  0  0  0  0  0  0  0
  147.0434  138.7195  152.8822 H   0  0  0  0  0  0  0  0  0  0  0  0
  147.5412  138.5860  154.5503 H   0  0  0  0  0  0  0  0  0  0  0  0
  151.5982  144.8684  157.0156 H   0  0  0  0  0  0  0  0  0  0  0  0
  152.1595  145.3863  158.6158 H   0  0  0  0  0  0  0  0  0  0  0  0
  150.4349  145.0597  158.3447 H   0  0  0  0  0  0  0  0  0  0  0  0
  145.2129  140.1019  153.6313 H   0  0  0  0  0  0  0  0  0  0  0  0
  1  2  1  0  0  0  0
  1 21  1  0  0  0  0
  1 22  1  0  0  0  0
  1 23  1  0  0  0  0
  2 20  2  0  0  0  0
  2  3  1  0  0  0  0
  3  4  2  0  0  0  0
  3 24  1  0  0  0  0
  4  5  1  0  0  0  0
  4 18  1  0  0  0  0
  5  6  1  0  0  0  0
  5 25  1  0  0  0  0
  6  7  2  0  0  0  0
  6  8  1  0  0  0  0
  8  9  1  0  0  0  0
  8 26  1  0  0  0  0
  9 10  1  0  0  0  0
  9 27  1  0  0  0  0
  9 28  1  0  0  0  0
 10 11  1  0  0  0  0
 10 29  1  0  0  0  0
 10 30  1  0  0  0  0
 11 17  1  0  0  0  0
 11 12  1  0  0  0  0
 11 46  1  0  0  0  0
 12 13  1  0  0  0  0
 12 31  1  0  0  0  0
 12 32  1  0  0  0  0
 13 14  1  0  0  0  0
 13 33  1  0  0  0  0
 13 34  1  0  0  0  0
 14 15  1  0  0  0  0
 14 35  1  0  0  0  0
 14 36  1  0  0  0  0
 15 16  1  0  0  0  0
 15 17  1  0  0  0  0
 15 37  1  0  0  0  0
 16 38  1  0  0  0  0
 16 39  1  0  0  0  0
 16 40  1  0  0  0  0
 17 41  1  0  0  0  0
 17 42  1  0  0  0  0
 18 19  1  0  0  0  0
 18 20  1  0  0  0  0
 19 43  1  0  0  0  0
 19 44  1  0  0  0  0
 19 45  1  0  0  0  0
M  CHG  1  11   1
M  END
> <s_m_source_file>
AV-unprocessed.smi

> <i_m_source_file_index>
1934

> <i_lp_mmshare_version>
43012

> <i_f3d_flags>
0

> <s_epik_input>
W0NIM11jMVtjSF1jKG4objEpW0NIM10pW05IXUMoPU8pW05IXVtDSDJdW0NIMl1OMltDSDJdW0NIMl1bQ0gyXVtDQEBIXShbQ0gzXSlbQ0gyXTI=

> <s_epik_cmdline>
J2VwaWtfcHl0aG9uJywgJy1waCcsICc3LjAnLCAnLXRuJywgJzgnLCAnLW1hJywgJzIwMCcsICctbWV0YWxfYmluZGluZycsICctaW1hZScsICc8aW5maWxlLm1hZT4nLCAnLW9tYWUnLCAnPG91dGZpbGUubWFlPic=

> <r_lp_tautomer_probability>
1

> <r_epik_Ionization_Penalty>
0.00202955

> <r_epik_Ionization_Penalty_Charging>
0.00195276

> <r_epik_Ionization_Penalty_Neutral>
7.67968e-05

> <r_epik_State_Penalty>
0.00133177

> <r_epik_Charging_Adjusted_Penalty>
0.00328452

> <i_epik_Tot_Q>
1

> <i_epik_Tot_abs_Q>
1

> <r_epik_Metal_State_Penalty>
-0

> <b_epik_Metal_Only>
0

> <s_lp_Force_Field>
OPLS_2005

> <r_lp_Energy>
20.6023

> <b_lp_Chiralities_Consistent>
1

> <s_lp_Variant>
AV-unprocessed.smi:1934-2

> <Gold.Version>
5.8.1

> <Gold.Id.Protein>
6NUR|6NUR_protein|mol2

> <Gold.PLP.Fitness>
43.9296

> <Gold.PLP.PLP>
-33.7364

> <Gold.PLP.part.hbond>
-2.9889

> <Gold.PLP.part.metal>
0.0000

> <Gold.PLP.part.buried>
-4.9641

> <Gold.PLP.part.nonpolar>
-26.5174

> <Gold.PLP.part.repulsive>
0.2943

> <Gold.PLP.ligand.clash>
0.0000

> <Gold.PLP.ligand.torsion>
0.9245

> <Gold.PLP.Chemscore.Hbond>
4.0000

> <Gold.PLP.Chemscore.CHOScore>
0.0000

> <Gold.PLP.Chemscore.Metal>
0.0000

> <Gold.Chemscore.Hbonds>
donor molecule, donor type, donor heavy atom, donor atom, acceptor molecule, acceptor atom, score
      L1  H     5    25       P1  8028  0.91
      L1  H     8    26       P1  8028  0.81
      L1  H    11    46       P1 10175  2.00

> <Gold.PLP.Chemscore.Internal.Correction>
0.0423

> <Gold.Rescore>
     Score         DG    S(hbond)    S(metal)    S(lipo)     H(rot)  DE(clash)    DE(int)     intcor
     17.50     -19.56       2.96        0.00      68.35       1.48       0.11       1.96       ----

> <Gold.Chemscore.Fitness>
17.4975

> <Gold.Chemscore.DG>
-19.5613

> <Gold.Chemscore.ZeroCoef>
-5.4800

> <Gold.Chemscore.Hbond>
2.9590

> <Gold.Chemscore.Metal>
0.0000

> <Gold.Chemscore.Lipo>
68.3473

> <Gold.Chemscore.Internal_Hbond>
0.0000

> <Gold.Chemscore.DEClash>
0.1071

> <Gold.Chemscore.DEInternal>
1.9567

> <Gold.Chemscore.Rot>
1.4838

> <Gold.Chemscore.Internal.Correction>
   9.000000E+99

> <Gold.Chemscore.Hbonds>
donor molecule, donor type, donor heavy atom, donor atom, acceptor molecule, acceptor atom, score
      L1  H     5    25       P1  8028  0.87
      L1  H     8    26       P1  8028  0.80
      L1  H    11    46       P1 10175  0.99

> <Gold.Chemscore.Hbond.Weighted>
-9.8832

> <Gold.Chemscore.Metal.Weighted>
-0.0000

> <Gold.Chemscore.Lipo.Weighted>
-7.9966

> <Gold.Chemscore.Internal_Hbond.Weighted>
0.0000

> <Gold.Chemscore.DEClash.Weighted>
0.1071

> <Gold.Chemscore.DEInternal.Weighted>
1.9567

> <Gold.Chemscore.Rot.Weighted>
3.7985

> <Gold.Chemscore.Internal.Correction.Weighted>
   9.000000E+99

> <Gold.Protein.RotatedTorsions>
[ 6907 6896 6895 6894 ] final   66.00 input  -60.11 | X-H torsion
[ 7974 7965 7964 7962 ] final   -4.06 input  175.53 | X-H torsion
[ 8008 7997 7996 7995 ] final  -36.91 input   59.86 | X-H torsion
[ 10167 10162 10161 10158 ] final  -58.00 input  -65.29 | X-H torsion
[ 10718 10713 10712 10709 ] final -178.43 input   66.30 | X-H torsion
[ 10763 10752 10751 10750 ] final  163.42 input  -60.55 | X-H torsion
[ 11005 11000 10999 10996 ] final -163.03 input  -57.11 | X-H torsion

> <Gold.Protein.ActiveResidues>
 VAL166  LYS551  ARG553  GLY616  TRP617  ASP618  TYR619  PRO620  LYS621  CYS622 
 ASP623  PHE694  ASN695  SER759  ASP760  ASP761  ALA762  ILE779  LEU786  VAL792 
 PHE793  MET794  SER795  GLU796  ALA797  LYS798  CYS799  TRP800  GLU811  SER814 

> <Gold.Protein.RotatedAtoms>
  152.4449  134.5516  159.9868 H   0  0  0  0  0  0  0  0  0  0  0  0  # atno 6907 bound_to 6896
  151.5604  133.3398  159.2978 H   0  0  0  0  0  0  0  0  0  0  0  0  # atno 6908 bound_to 6896
  150.8362  134.7670  159.6959 H   0  0  0  0  0  0  0  0  0  0  0  0  # atno 6909 bound_to 6896
  146.2379  140.1815  142.8332 H   0  0  0  0  0  0  0  0  0  0  0  0  # atno 7974 bound_to 7965
  154.4063  140.1618  156.2450 H   0  0  0  0  0  0  0  0  0  0  0  0  # atno 8008 bound_to 7997
  155.9168  140.3424  155.6119 H   0  0  0  0  0  0  0  0  0  0  0  0  # atno 8009 bound_to 7997
  155.7270  140.0775  157.2296 H   0  0  0  0  0  0  0  0  0  0  0  0  # atno 8010 bound_to 7997
  140.6224  143.2424  151.5448 H   0  0  0  0  0  0  0  0  0  0  0  0  # atno 10167 bound_to 10162
  156.8442  130.9697  151.3097 H   0  0  0  0  0  0  0  0  0  0  0  0  # atno 10718 bound_to 10713
  154.2934  135.2760  155.2644 H   0  0  0  0  0  0  0  0  0  0  0  0  # atno 10763 bound_to 10752
  154.5113  135.5781  153.6611 H   0  0  0  0  0  0  0  0  0  0  0  0  # atno 10764 bound_to 10752
  152.9911  135.6182  154.3100 H   0  0  0  0  0  0  0  0  0  0  0  0  # atno 10765 bound_to 10752
  140.6027  134.4931  157.5207 H   0  0  0  0  0  0  0  0  0  0  0  0  # atno 11005 bound_to 11000
  144.9931  140.8564  143.5327 LP  0  0  0  0  0  0  0  0  0  0  0  0  # atno 17320 bound_to 7965
  145.1823  139.2345  143.5286 LP  0  0  0  0  0  0  0  0  0  0  0  0  # atno 17321 bound_to 7965
  139.5450  144.2546  152.1424 LP  0  0  0  0  0  0  0  0  0  0  0  0  # atno 17342 bound_to 10162
  140.1769  144.4882  150.6549 LP  0  0  0  0  0  0  0  0  0  0  0  0  # atno 17343 bound_to 10162
  157.6339  130.8751  149.9323 LP  0  0  0  0  0  0  0  0  0  0  0  0  # atno 17370 bound_to 10713
  156.0864  130.3667  150.0480 LP  0  0  0  0  0  0  0  0  0  0  0  0  # atno 17371 bound_to 10713
  139.9225  134.8120  156.1166 LP  0  0  0  0  0  0  0  0  0  0  0  0  # atno 17394 bound_to 11000
  141.0861  133.6733  156.2440 LP  0  0  0  0  0  0  0  0  0  0  0  0  # atno 17395 bound_to 11000

$$$$
