AV-unprocessed.smi:1258|AV-procd|sdf|5287|dock5
  -GOLD-   22720 4403D 1   1.00000     0.00000
 Structure written by MMmdl.
 33 34  0  0  0  0  0  0  0  0  1 V2000
  151.8776  145.5220  159.4216 C   0  0  0  0  0  0  0  0  0  0  0  0
  152.2788  144.1425  159.9626 C   0  0  2  0  0  0  0  0  0  0  0  0
  152.6032  144.2003  161.4678 C   0  0  0  0  0  0  0  0  0  0  0  0
  153.0133  142.8232  162.0140 C   0  0  0  0  0  0  0  0  0  0  0  0
  154.1918  142.2310  161.2202 C   0  0  0  0  0  0  0  0  0  0  0  0
  153.8975  142.1660  159.7093 C   0  0  1  0  0  0  0  0  0  0  0  0
  152.8690  141.1628  159.4479 N   0  0  0  0  0  0  0  0  0  0  0  0
  153.0844  139.9022  159.0401 C   0  0  0  0  0  0  0  0  0  0  0  0
  154.2053  139.4068  158.9312 O   0  0  0  0  0  0  0  0  0  0  0  0
  151.8444  139.0763  158.6889 C   0  0  0  0  0  0  0  0  0  0  0  0
  151.9565  138.4888  157.3648 N   0  0  0  0  0  0  0  0  0  0  0  0
  152.1311  139.0532  156.1679 C   0  0  0  0  0  0  0  0  0  0  0  0
  152.2130  138.1467  155.2065 N   0  0  0  0  0  0  0  0  0  0  0  0
  152.0724  136.9503  155.8898 N   0  0  0  0  0  0  0  0  0  0  0  0
  151.9188  137.1468  157.1706 N   0  0  0  0  0  0  0  0  0  0  0  0
  153.4711  143.5534  159.1788 C   0  0  0  0  0  0  0  0  0  0  0  0
  152.6909  146.2413  159.5240 H   0  0  0  0  0  0  0  0  0  0  0  0
  151.0141  145.9173  159.9573 H   0  0  0  0  0  0  0  0  0  0  0  0
  151.6124  145.4672  158.3654 H   0  0  0  0  0  0  0  0  0  0  0  0
  151.4207  143.4822  159.8274 H   0  0  0  0  0  0  0  0  0  0  0  0
  153.4096  144.9138  161.6434 H   0  0  0  0  0  0  0  0  0  0  0  0
  151.7395  144.5694  162.0220 H   0  0  0  0  0  0  0  0  0  0  0  0
  153.2839  142.9094  163.0666 H   0  0  0  0  0  0  0  0  0  0  0  0
  152.1599  142.1451  161.9727 H   0  0  0  0  0  0  0  0  0  0  0  0
  155.0771  142.8464  161.3858 H   0  0  0  0  0  0  0  0  0  0  0  0
  154.4374  141.2387  161.6005 H   0  0  0  0  0  0  0  0  0  0  0  0
  154.8111  141.8573  159.1982 H   0  0  0  0  0  0  0  0  0  0  0  0
  151.9121  141.4761  159.5193 H   0  0  0  0  0  0  0  0  0  0  0  0
  151.7005  138.2797  159.4204 H   0  0  0  0  0  0  0  0  0  0  0  0
  150.9591  139.7122  158.7215 H   0  0  0  0  0  0  0  0  0  0  0  0
  152.2083  140.1180  156.0048 H   0  0  0  0  0  0  0  0  0  0  0  0
  153.2275  143.4932  158.1173 H   0  0  0  0  0  0  0  0  0  0  0  0
  154.3198  144.2350  159.2506 H   0  0  0  0  0  0  0  0  0  0  0  0
  1  2  1  0  0  0  0
  1 17  1  0  0  0  0
  1 18  1  0  0  0  0
  1 19  1  0  0  0  0
  2 16  1  0  0  0  0
  2  3  1  0  0  0  0
  2 20  1  0  0  0  0
  3  4  1  0  0  0  0
  3 21  1  0  0  0  0
  3 22  1  0  0  0  0
  4  5  1  0  0  0  0
  4 23  1  0  0  0  0
  4 24  1  0  0  0  0
  5  6  1  0  0  0  0
  5 25  1  0  0  0  0
  5 26  1  0  0  0  0
  6  7  1  0  0  0  0
  6 16  1  0  0  0  0
  6 27  1  0  0  0  0
  7  8  1  0  0  0  0
  7 28  1  0  0  0  0
  8  9  2  0  0  0  0
  8 10  1  0  0  0  0
 10 11  1  0  0  0  0
 10 29  1  0  0  0  0
 10 30  1  0  0  0  0
 11 15  1  0  0  0  0
 11 12  1  0  0  0  0
 12 13  2  0  0  0  0
 12 31  1  0  0  0  0
 13 14  1  0  0  0  0
 14 15  2  0  0  0  0
 16 32  1  0  0  0  0
 16 33  1  0  0  0  0
M  END
> <s_m_source_file>
AV-unprocessed.smi

> <i_m_source_file_index>
1258

> <i_lp_mmshare_version>
43012

> <i_f3d_flags>
0

> <s_epik_input>
W0NIM11bQ0BASF0xW0NIMl1bQ0gyXVtDSDJdW0NASF0oW0NIMl0xKVtOSF1DKD1PKVtDSDJdbjJbY0hdbm5uMg==

> <s_epik_cmdline>
J2VwaWtfcHl0aG9uJywgJy1waCcsICc3LjAnLCAnLXRuJywgJzgnLCAnLW1hJywgJzIwMCcsICctbWV0YWxfYmluZGluZycsICctaW1hZScsICc8aW5maWxlLm1hZT4nLCAnLW9tYWUnLCAnPG91dGZpbGUubWFlPic=

> <r_lp_tautomer_probability>
1

> <r_epik_Ionization_Penalty>
5.03816e-07

> <r_epik_Ionization_Penalty_Charging>
0

> <r_epik_Ionization_Penalty_Neutral>
5.03816e-07

> <r_epik_State_Penalty>
-0

> <r_epik_Charging_Adjusted_Penalty>
0

> <i_epik_Tot_Q>
0

> <i_epik_Tot_abs_Q>
0

> <r_epik_Metal_State_Penalty>
-0

> <b_epik_Metal_Only>
0

> <s_lp_Force_Field>
OPLS_2005

> <r_lp_Energy>
9.71314

> <b_lp_Chiralities_Consistent>
1

> <s_lp_Variant>
AV-unprocessed.smi:1258-1

> <Gold.Version>
5.8.1

> <Gold.Id.Protein>
6NUR|6NUR_protein|mol2

> <Gold.PLP.Fitness>
42.8893

> <Gold.PLP.PLP>
-38.0068

> <Gold.PLP.part.hbond>
-2.0000

> <Gold.PLP.part.metal>
0.0000

> <Gold.PLP.part.buried>
-5.0097

> <Gold.PLP.part.nonpolar>
-31.0745

> <Gold.PLP.part.repulsive>
0.2377

> <Gold.PLP.ligand.clash>
0.0000

> <Gold.PLP.ligand.torsion>
0.3462

> <Gold.PLP.Chemscore.Hbond>
1.8560

> <Gold.PLP.Chemscore.CHOScore>
0.0000

> <Gold.PLP.Chemscore.Metal>
0.0000

> <Gold.Chemscore.Hbonds>
donor molecule, donor type, donor heavy atom, donor atom, acceptor molecule, acceptor atom, score
      P1  H  7997  8008       L1     9  1.00
      P1  H 10752 10763       L1    14  0.93

> <Gold.PLP.Chemscore.Internal.Correction>
0.0070

> <Gold.Rescore>
     Score         DG    S(hbond)    S(metal)    S(lipo)     H(rot)  DE(clash)    DE(int)     intcor
     16.18     -16.52       1.85        0.00      83.47       1.92       0.00       0.34       ----

> <Gold.Chemscore.Fitness>
16.1801

> <Gold.Chemscore.DG>
-16.5232

> <Gold.Chemscore.ZeroCoef>
-5.4800

> <Gold.Chemscore.Hbond>
1.8518

> <Gold.Chemscore.Metal>
0.0000

> <Gold.Chemscore.Lipo>
83.4652

> <Gold.Chemscore.Internal_Hbond>
0.0000

> <Gold.Chemscore.DEClash>
0.0000

> <Gold.Chemscore.DEInternal>
0.3432

> <Gold.Chemscore.Rot>
1.9169

> <Gold.Chemscore.Internal.Correction>
   9.000000E+99

> <Gold.Chemscore.Hbonds>
donor molecule, donor type, donor heavy atom, donor atom, acceptor molecule, acceptor atom, score
      P1  H  7997  8008       L1     9  0.83
      P1  H 10752 10763       L1    14  0.43

> <Gold.Chemscore.Hbond.Weighted>
-6.1851

> <Gold.Chemscore.Metal.Weighted>
-0.0000

> <Gold.Chemscore.Lipo.Weighted>
-9.7654

> <Gold.Chemscore.Internal_Hbond.Weighted>
0.0000

> <Gold.Chemscore.DEClash.Weighted>
0.0000

> <Gold.Chemscore.DEInternal.Weighted>
0.3432

> <Gold.Chemscore.Rot.Weighted>
4.9073

> <Gold.Chemscore.Internal.Correction.Weighted>
   9.000000E+99

> <Gold.Protein.RotatedTorsions>
[ 6907 6896 6895 6894 ] final   53.24 input  -60.11 | X-H torsion
[ 7974 7965 7964 7962 ] final  103.33 input  175.53 | X-H torsion
[ 8008 7997 7996 7995 ] final -124.81 input   59.86 | X-H torsion
[ 10167 10162 10161 10158 ] final  -60.80 input  -65.29 | X-H torsion
[ 10718 10713 10712 10709 ] final  171.18 input   66.30 | X-H torsion
[ 10763 10752 10751 10750 ] final   66.79 input  -60.55 | X-H torsion
[ 11005 11000 10999 10996 ] final   13.33 input  -57.11 | X-H torsion

> <Gold.Protein.ActiveResidues>
 VAL166  LYS551  ARG553  GLY616  TRP617  ASP618  TYR619  PRO620  LYS621  CYS622 
 ASP623  PHE694  ASN695  SER759  ASP760  ASP761  ALA762  ILE779  LEU786  VAL792 
 PHE793  MET794  SER795  GLU796  ALA797  LYS798  CYS799  TRP800  GLU811  SER814 

> <Gold.Protein.RotatedAtoms>
  152.3317  134.7251  160.0287 H   0  0  0  0  0  0  0  0  0  0  0  0  # atno 6907 bound_to 6896
  151.7665  133.3332  159.3440 H   0  0  0  0  0  0  0  0  0  0  0  0  # atno 6908 bound_to 6896
  150.7427  134.5989  159.6071 H   0  0  0  0  0  0  0  0  0  0  0  0  # atno 6909 bound_to 6896
  145.3474  139.2447  143.3577 H   0  0  0  0  0  0  0  0  0  0  0  0  # atno 7974 bound_to 7965
  155.2029  140.0416  157.2920 H   0  0  0  0  0  0  0  0  0  0  0  0  # atno 8008 bound_to 7997
  154.6062  140.2465  155.7699 H   0  0  0  0  0  0  0  0  0  0  0  0  # atno 8009 bound_to 7997
  156.2352  140.2924  156.0302 H   0  0  0  0  0  0  0  0  0  0  0  0  # atno 8010 bound_to 7997
  140.6048  143.2370  151.5847 H   0  0  0  0  0  0  0  0  0  0  0  0  # atno 10167 bound_to 10162
  156.9973  131.0166  151.2840 H   0  0  0  0  0  0  0  0  0  0  0  0  # atno 10718 bound_to 10713
  153.0156  135.5308  154.6878 H   0  0  0  0  0  0  0  0  0  0  0  0  # atno 10763 bound_to 10752
  154.6021  135.2869  155.0526 H   0  0  0  0  0  0  0  0  0  0  0  0  # atno 10764 bound_to 10752
  154.1580  135.6552  153.5031 H   0  0  0  0  0  0  0  0  0  0  0  0  # atno 10765 bound_to 10752
  140.4820  134.0926  155.7753 H   0  0  0  0  0  0  0  0  0  0  0  0  # atno 11005 bound_to 11000
  146.2982  140.4083  142.8714 LP  0  0  0  0  0  0  0  0  0  0  0  0  # atno 17320 bound_to 7965
  144.8744  140.7316  143.6026 LP  0  0  0  0  0  0  0  0  0  0  0  0  # atno 17321 bound_to 7965
  139.5317  144.2898  152.1162 LP  0  0  0  0  0  0  0  0  0  0  0  0  # atno 17342 bound_to 10162
  140.2085  144.4586  150.6397 LP  0  0  0  0  0  0  0  0  0  0  0  0  # atno 17343 bound_to 10162
  157.5415  130.8123  149.8035 LP  0  0  0  0  0  0  0  0  0  0  0  0  # atno 17370 bound_to 10713
  156.0184  130.3805  150.2038 LP  0  0  0  0  0  0  0  0  0  0  0  0  # atno 17371 bound_to 10713
  141.1526  133.8940  157.2058 LP  0  0  0  0  0  0  0  0  0  0  0  0  # atno 17394 bound_to 11000
  139.9821  135.0095  156.9774 LP  0  0  0  0  0  0  0  0  0  0  0  0  # atno 17395 bound_to 11000

$$$$
