AV-unprocessed.smi:2202|AV-procd|sdf|8934|dock7
  -GOLD-   2272012153D 1   1.00000     0.00000
 Structure written by MMmdl.
 43 45  0  0  0  0  0  0  0  0  2 V2000
  151.8446  136.5743  156.1646 O   0  0  0  0  0  0  0  0  0  0  0  0
  151.1595  137.2177  155.3676 C   0  0  0  0  0  0  0  0  0  0  0  0
  151.6218  138.5866  154.8480 C   0  0  0  0  0  0  0  0  0  0  0  0
  151.6189  139.6337  155.8775 N   0  0  0  0  0  0  0  0  0  0  0  0
  150.9385  140.7929  155.7798 C   0  0  0  0  0  0  0  0  0  0  0  0
  150.1660  141.1292  154.8830 O   0  0  0  0  0  0  0  0  0  0  0  0
  151.3291  141.6937  156.9418 C   0  0  1  0  0  0  0  0  0  0  0  0
  150.3394  142.6476  157.6216 C   0  0  0  0  0  0  0  0  0  0  0  0
  150.9987  143.1869  158.8954 C   0  0  0  0  0  0  0  0  0  0  0  0
  152.0975  142.6345  159.4660 C   0  0  0  0  0  0  0  0  0  0  0  0
  152.7925  141.3775  158.9320 C   0  0  0  0  0  0  0  0  0  0  0  0
  151.8354  140.6854  157.9540 C   0  0  2  0  0  0  0  0  0  0  0  0
  152.2658  139.5357  157.0559 C   0  0  0  0  0  0  0  0  0  0  0  0
  153.0298  138.6391  157.4121 O   0  0  0  0  0  0  0  0  0  0  0  0
  149.9777  136.7845  154.9035 N   0  0  0  0  0  0  0  0  0  0  0  0
  149.3554  135.5158  155.2630 C   0  0  0  0  0  0  0  0  0  0  0  0
  149.9878  134.3393  154.5003 C   0  0  0  0  0  0  0  0  0  0  0  0
  148.9448  133.3851  153.9530 C   0  0  0  0  0  0  0  0  0  0  0  0
  148.8165  132.0597  154.4220 C   0  0  0  0  0  0  0  0  0  0  0  0
  147.8272  131.2241  153.8623 C   0  0  0  0  0  0  0  0  0  0  0  0
  146.9896  131.7303  152.8466 C   0  0  0  0  0  0  0  0  0  0  0  0
  147.1630  133.0611  152.4149 C   0  0  0  0  0  0  0  0  0  0  0  0
  148.1218  133.8303  152.9758 N   0  3  0  0  0  0  0  0  0  0  0  0
  152.6251  138.4883  154.4292 H   0  0  0  0  0  0  0  0  0  0  0  0
  150.9788  138.8759  154.0147 H   0  0  0  0  0  0  0  0  0  0  0  0
  152.1667  142.2920  156.5749 H   0  0  0  0  0  0  0  0  0  0  0  0
  150.1001  143.4789  156.9579 H   0  0  0  0  0  0  0  0  0  0  0  0
  149.4043  142.1467  157.8747 H   0  0  0  0  0  0  0  0  0  0  0  0
  150.5462  144.0598  159.3426 H   0  0  0  0  0  0  0  0  0  0  0  0
  152.5234  143.0837  160.3511 H   0  0  0  0  0  0  0  0  0  0  0  0
  153.7321  141.6524  158.4517 H   0  0  0  0  0  0  0  0  0  0  0  0
  153.0279  140.7125  159.7634 H   0  0  0  0  0  0  0  0  0  0  0  0
  150.9936  140.2986  158.5336 H   0  0  0  0  0  0  0  0  0  0  0  0
  149.4759  137.3753  154.2560 H   0  0  0  0  0  0  0  0  0  0  0  0
  149.4283  135.3601  156.3411 H   0  0  0  0  0  0  0  0  0  0  0  0
  148.2920  135.5803  155.0302 H   0  0  0  0  0  0  0  0  0  0  0  0
  150.5990  134.7133  153.6775 H   0  0  0  0  0  0  0  0  0  0  0  0
  150.6605  133.7804  155.1526 H   0  0  0  0  0  0  0  0  0  0  0  0
  149.4672  131.6861  155.1995 H   0  0  0  0  0  0  0  0  0  0  0  0
  147.7124  130.2069  154.2075 H   0  0  0  0  0  0  0  0  0  0  0  0
  146.2261  131.1065  152.4049 H   0  0  0  0  0  0  0  0  0  0  0  0
  146.5691  133.5300  151.6440 H   0  0  0  0  0  0  0  0  0  0  0  0
  148.2300  134.7907  152.6483 H   0  0  0  0  0  0  0  0  0  0  0  0
  1  2  2  0  0  0  0
  2  3  1  0  0  0  0
  2 15  1  0  0  0  0
  3  4  1  0  0  0  0
  3 24  1  0  0  0  0
  3 25  1  0  0  0  0
  4 13  1  0  0  0  0
  4  5  1  0  0  0  0
  5  6  2  0  0  0  0
  5  7  1  0  0  0  0
  7 12  1  0  0  0  0
  7  8  1  0  0  0  0
  7 26  1  0  0  0  0
  8  9  1  0  0  0  0
  8 27  1  0  0  0  0
  8 28  1  0  0  0  0
  9 10  2  0  0  0  0
  9 29  1  0  0  0  0
 10 11  1  0  0  0  0
 10 30  1  0  0  0  0
 11 12  1  0  0  0  0
 11 31  1  0  0  0  0
 11 32  1  0  0  0  0
 12 13  1  0  0  0  0
 12 33  1  0  0  0  0
 13 14  2  0  0  0  0
 15 16  1  0  0  0  0
 15 34  1  0  0  0  0
 16 17  1  0  0  0  0
 16 35  1  0  0  0  0
 16 36  1  0  0  0  0
 17 18  1  0  0  0  0
 17 37  1  0  0  0  0
 17 38  1  0  0  0  0
 18 23  1  0  0  0  0
 18 19  2  0  0  0  0
 19 20  1  0  0  0  0
 19 39  1  0  0  0  0
 20 21  2  0  0  0  0
 20 40  1  0  0  0  0
 21 22  1  0  0  0  0
 21 41  1  0  0  0  0
 22 23  2  0  0  0  0
 22 42  1  0  0  0  0
 23 43  1  0  0  0  0
M  CHG  1  23   1
M  END
> <s_m_source_file>
AV-unprocessed.smi

> <i_m_source_file_index>
2202

> <i_lp_mmshare_version>
43012

> <i_f3d_flags>
0

> <s_epik_input>
W0NIMl0xW0NIXT1bQ0hdW0NIMl1bQ0BIXShbQ0BIXTEyKUMoPU8pTihDMj1PKVtDSDJdQyg9TylbTkhdW0NIMl1bQ0gyXWMzW2NIXVtjSF1bY0hdW2NIXW4z

> <s_epik_cmdline>
J2VwaWtfcHl0aG9uJywgJy1waCcsICc3LjAnLCAnLXRuJywgJzgnLCAnLW1hJywgJzIwMCcsICctbWV0YWxfYmluZGluZycsICctaW1hZScsICc8aW5maWxlLm1hZT4nLCAnLW9tYWUnLCAnPG91dGZpbGUubWFlPic=

> <r_lp_tautomer_probability>
1

> <r_epik_Ionization_Penalty>
1.90039

> <r_epik_Ionization_Penalty_Charging>
1.90039

> <r_epik_Ionization_Penalty_Neutral>
1.50224e-07

> <r_epik_State_Penalty>
2.02162

> <r_epik_Charging_Adjusted_Penalty>
3.922

> <i_epik_Tot_Q>
1

> <i_epik_Tot_abs_Q>
1

> <r_epik_Metal_State_Penalty>
2.04542

> <b_epik_Metal_Only>
0

> <s_lp_Force_Field>
OPLS_2005

> <r_lp_Energy>
26.7025

> <b_lp_Chiralities_Consistent>
1

> <s_lp_Variant>
AV-unprocessed.smi:2202-6

> <Gold.Version>
5.8.1

> <Gold.Id.Protein>
6NUR|6NUR_protein|mol2

> <Gold.PLP.Fitness>
52.2943

> <Gold.PLP.PLP>
-42.2553

> <Gold.PLP.part.hbond>
-4.3110

> <Gold.PLP.part.metal>
0.0000

> <Gold.PLP.part.buried>
-2.6685

> <Gold.PLP.part.nonpolar>
-34.2351

> <Gold.PLP.part.repulsive>
0.1726

> <Gold.PLP.ligand.clash>
0.0000

> <Gold.PLP.ligand.torsion>
0.5777

> <Gold.PLP.Chemscore.Hbond>
3.7140

> <Gold.PLP.Chemscore.CHOScore>
0.0000

> <Gold.PLP.Chemscore.Metal>
0.0000

> <Gold.Chemscore.Hbonds>
donor molecule, donor type, donor heavy atom, donor atom, acceptor molecule, acceptor atom, score
      L1  H    23    43       P1  7948  2.00
      P1  H  7989  7998       L1     6  0.34
      P1  H  7997  8009       L1    14  0.27
      P1  H 10752 10764       L1     1  0.89

> <Gold.PLP.Chemscore.Internal.Correction>
0.0525

> <Gold.Rescore>
     Score         DG    S(hbond)    S(metal)    S(lipo)     H(rot)  DE(clash)    DE(int)     intcor
     15.36     -17.55       1.94        0.00      90.82       1.96       0.06       2.12       ----

> <Gold.Chemscore.Fitness>
15.3631

> <Gold.Chemscore.DG>
-17.5458

> <Gold.Chemscore.ZeroCoef>
-5.4800

> <Gold.Chemscore.Hbond>
1.9353

> <Gold.Chemscore.Metal>
0.0000

> <Gold.Chemscore.Lipo>
90.8197

> <Gold.Chemscore.Internal_Hbond>
0.0000

> <Gold.Chemscore.DEClash>
0.0602

> <Gold.Chemscore.DEInternal>
2.1226

> <Gold.Chemscore.Rot>
1.9625

> <Gold.Chemscore.Internal.Correction>
   9.000000E+99

> <Gold.Chemscore.Hbonds>
donor molecule, donor type, donor heavy atom, donor atom, acceptor molecule, acceptor atom, score
      L1  H    23    43       P1  7948  0.55
      P1  H  7989  7998       L1     6  0.02
      P1  H  7997  8009       L1    14  0.01
      P1  H 10752 10764       L1     1  0.67

> <Gold.Chemscore.Hbond.Weighted>
-6.4639

> <Gold.Chemscore.Metal.Weighted>
-0.0000

> <Gold.Chemscore.Lipo.Weighted>
-10.6259

> <Gold.Chemscore.Internal_Hbond.Weighted>
0.0000

> <Gold.Chemscore.DEClash.Weighted>
0.0602

> <Gold.Chemscore.DEInternal.Weighted>
2.1226

> <Gold.Chemscore.Rot.Weighted>
5.0240

> <Gold.Chemscore.Internal.Correction.Weighted>
   9.000000E+99

> <Gold.Protein.RotatedTorsions>
[ 6907 6896 6895 6894 ] final  -90.67 input  -60.11 | X-H torsion
[ 7974 7965 7964 7962 ] final  150.32 input  175.53 | X-H torsion
[ 8008 7997 7996 7995 ] final  146.05 input   59.86 | X-H torsion
[ 10167 10162 10161 10158 ] final -118.24 input  -65.29 | X-H torsion
[ 10718 10713 10712 10709 ] final  172.74 input   66.30 | X-H torsion
[ 10763 10752 10751 10750 ] final  -18.37 input  -60.55 | X-H torsion
[ 11005 11000 10999 10996 ] final  -38.00 input  -57.11 | X-H torsion

> <Gold.Protein.ActiveResidues>
 VAL166  LYS551  ARG553  GLY616  TRP617  ASP618  TYR619  PRO620  LYS621  CYS622 
 ASP623  PHE694  ASN695  SER759  ASP760  ASP761  ALA762  ILE779  LEU786  VAL792 
 PHE793  MET794  SER795  GLU796  ALA797  LYS798  CYS799  TRP800  GLU811  SER814 

> <Gold.Protein.RotatedAtoms>
  150.6884  134.2395  159.4466 H   0  0  0  0  0  0  0  0  0  0  0  0  # atno 6907 bound_to 6896
  152.0340  134.9748  160.0582 H   0  0  0  0  0  0  0  0  0  0  0  0  # atno 6908 bound_to 6896
  152.1276  133.4354  159.4742 H   0  0  0  0  0  0  0  0  0  0  0  0  # atno 6909 bound_to 6896
  144.8372  139.6394  143.6032 H   0  0  0  0  0  0  0  0  0  0  0  0  # atno 7974 bound_to 7965
  156.2866  140.2193  156.5314 H   0  0  0  0  0  0  0  0  0  0  0  0  # atno 8008 bound_to 7997
  154.7446  140.0485  157.0863 H   0  0  0  0  0  0  0  0  0  0  0  0  # atno 8009 bound_to 7997
  155.0187  140.3121  155.4805 H   0  0  0  0  0  0  0  0  0  0  0  0  # atno 8010 bound_to 7997
  140.0596  143.4980  152.2039 H   0  0  0  0  0  0  0  0  0  0  0  0  # atno 10167 bound_to 10162
  156.9745  131.0100  151.2897 H   0  0  0  0  0  0  0  0  0  0  0  0  # atno 10718 bound_to 10713
  153.5883  135.7003  153.5434 H   0  0  0  0  0  0  0  0  0  0  0  0  # atno 10763 bound_to 10752
  153.3201  135.4076  155.1409 H   0  0  0  0  0  0  0  0  0  0  0  0  # atno 10764 bound_to 10752
  154.8605  135.3693  154.5414 H   0  0  0  0  0  0  0  0  0  0  0  0  # atno 10765 bound_to 10752
  140.9994  133.6963  156.1995 H   0  0  0  0  0  0  0  0  0  0  0  0  # atno 11005 bound_to 11000
  146.2670  139.6543  142.9323 LP  0  0  0  0  0  0  0  0  0  0  0  0  # atno 17320 bound_to 7965
  145.4769  141.0437  143.2667 LP  0  0  0  0  0  0  0  0  0  0  0  0  # atno 17321 bound_to 7965
  139.5902  144.7547  151.3420 LP  0  0  0  0  0  0  0  0  0  0  0  0  # atno 17342 bound_to 10162
  140.7178  143.7219  150.7689 LP  0  0  0  0  0  0  0  0  0  0  0  0  # atno 17343 bound_to 10162
  157.5569  130.8220  149.8216 LP  0  0  0  0  0  0  0  0  0  0  0  0  # atno 17370 bound_to 10713
  156.0269  130.3776  150.1797 LP  0  0  0  0  0  0  0  0  0  0  0  0  # atno 17371 bound_to 10713
  140.6913  134.4663  157.5588 LP  0  0  0  0  0  0  0  0  0  0  0  0  # atno 17394 bound_to 11000
  139.9031  134.8510  156.1814 LP  0  0  0  0  0  0  0  0  0  0  0  0  # atno 17395 bound_to 11000

$$$$
