AV-unprocessed.smi:1677|AV-procd|sdf|6723|dock2
  -GOLD-   22720 7463D 1   1.00000     0.00000
 Structure written by MMmdl.
 37 38  0  0  0  0  0  0  0  0  2 V2000
  148.3469  138.2819  156.2012 C   0  0  0  0  0  0  0  0  0  0  0  0
  149.7026  138.9147  155.8475 C   0  0  1  0  0  0  0  0  0  0  0  0
  149.7161  139.5851  154.4567 C   0  0  0  0  0  0  0  0  0  0  0  0
  148.4914  140.3412  154.1774 N   0  0  0  0  0  0  0  0  0  0  0  0
  148.2779  141.6788  154.3915 C   0  0  0  0  0  0  0  0  0  0  0  0
  146.9948  141.9398  153.9846 C   0  0  0  0  0  0  0  0  0  0  0  0
  146.4787  140.7508  153.5429 N   0  3  0  0  0  0  0  0  0  0  0  0
  147.3891  139.7791  153.6642 C   0  0  0  0  0  0  0  0  0  0  0  0
  150.0592  139.8851  156.8780 N   0  0  0  0  0  0  0  0  0  0  0  0
  151.2752  140.4286  157.0468 C   0  0  0  0  0  0  0  0  0  0  0  0
  152.2345  140.1743  156.3178 O   0  0  0  0  0  0  0  0  0  0  0  0
  151.4281  141.4100  158.2163 C   0  0  1  0  0  0  0  0  0  0  0  0
  152.5721  140.9748  159.1601 C   0  0  0  0  0  0  0  0  0  0  0  0
  152.9061  142.0446  160.1845 C   0  0  0  0  0  0  0  0  0  0  0  0
  152.5138  143.3251  160.0699 C   0  0  0  0  0  0  0  0  0  0  0  0
  151.6979  143.8480  158.9004 C   0  0  0  0  0  0  0  0  0  0  0  0
  151.6581  142.8533  157.7243 C   0  0  0  0  0  0  0  0  0  0  0  0
  148.0796  137.4884  155.5032 H   0  0  0  0  0  0  0  0  0  0  0  0
  147.5474  139.0236  156.1865 H   0  0  0  0  0  0  0  0  0  0  0  0
  148.3710  137.8391  157.1978 H   0  0  0  0  0  0  0  0  0  0  0  0
  150.4453  138.1145  155.8550 H   0  0  0  0  0  0  0  0  0  0  0  0
  150.5679  140.2608  154.3632 H   0  0  0  0  0  0  0  0  0  0  0  0
  149.8194  138.8375  153.6690 H   0  0  0  0  0  0  0  0  0  0  0  0
  149.0362  142.3282  154.8052 H   0  0  0  0  0  0  0  0  0  0  0  0
  146.4252  142.8578  153.9773 H   0  0  0  0  0  0  0  0  0  0  0  0
  147.2599  138.7457  153.3953 H   0  0  0  0  0  0  0  0  0  0  0  0
  149.3303  140.1537  157.5236 H   0  0  0  0  0  0  0  0  0  0  0  0
  150.4977  141.4038  158.7878 H   0  0  0  0  0  0  0  0  0  0  0  0
  152.2879  140.0642  159.6887 H   0  0  0  0  0  0  0  0  0  0  0  0
  153.4821  140.7472  158.6025 H   0  0  0  0  0  0  0  0  0  0  0  0
  153.4994  141.7382  161.0336 H   0  0  0  0  0  0  0  0  0  0  0  0
  152.7715  144.0363  160.8409 H   0  0  0  0  0  0  0  0  0  0  0  0
  150.6878  144.0498  159.2576 H   0  0  0  0  0  0  0  0  0  0  0  0
  152.1137  144.7995  158.5683 H   0  0  0  0  0  0  0  0  0  0  0  0
  152.6039  142.9068  157.1823 H   0  0  0  0  0  0  0  0  0  0  0  0
  150.8824  143.1515  157.0175 H   0  0  0  0  0  0  0  0  0  0  0  0
  145.5431  140.6226  153.1776 H   0  0  0  0  0  0  0  0  0  0  0  0
  1  2  1  0  0  0  0
  1 18  1  0  0  0  0
  1 19  1  0  0  0  0
  1 20  1  0  0  0  0
  2  3  1  0  0  0  0
  2  9  1  0  0  0  0
  2 21  1  0  0  0  0
  3  4  1  0  0  0  0
  3 22  1  0  0  0  0
  3 23  1  0  0  0  0
  4  8  1  0  0  0  0
  4  5  1  0  0  0  0
  5  6  2  0  0  0  0
  5 24  1  0  0  0  0
  6  7  1  0  0  0  0
  6 25  1  0  0  0  0
  7  8  2  0  0  0  0
  7 37  1  0  0  0  0
  8 26  1  0  0  0  0
  9 10  1  0  0  0  0
  9 27  1  0  0  0  0
 10 11  2  0  0  0  0
 10 12  1  0  0  0  0
 12 17  1  0  0  0  0
 12 13  1  0  0  0  0
 12 28  1  0  0  0  0
 13 14  1  0  0  0  0
 13 29  1  0  0  0  0
 13 30  1  0  0  0  0
 14 15  2  0  0  0  0
 14 31  1  0  0  0  0
 15 16  1  0  0  0  0
 15 32  1  0  0  0  0
 16 17  1  0  0  0  0
 16 33  1  0  0  0  0
 16 34  1  0  0  0  0
 17 35  1  0  0  0  0
 17 36  1  0  0  0  0
M  CHG  1   7   1
M  END
> <s_m_source_file>
AV-unprocessed.smi

> <i_m_source_file_index>
1677

> <i_lp_mmshare_version>
43012

> <i_f3d_flags>
0

> <s_epik_input>
W2NIXTFuW2NIXVtjSF1uMVtDSDJdW0NAQEhdKFtDSDNdKVtOSF1DKD1PKVtDQEBIXTJbQ0gyXVtDSF09W0NIXVtDSDJdW0NIMl0y

> <s_epik_cmdline>
J2VwaWtfcHl0aG9uJywgJy1waCcsICc3LjAnLCAnLXRuJywgJzgnLCAnLW1hJywgJzIwMCcsICctbWV0YWxfYmluZGluZycsICctaW1hZScsICc8aW5maWxlLm1hZT4nLCAnLW9tYWUnLCAnPG91dGZpbGUubWFlPic=

> <r_lp_tautomer_probability>
1

> <r_epik_Ionization_Penalty>
0.245541

> <r_epik_Ionization_Penalty_Charging>
0

> <r_epik_Ionization_Penalty_Neutral>
0.245541

> <r_epik_State_Penalty>
0.236686

> <r_epik_Charging_Adjusted_Penalty>
0.236686

> <i_epik_Tot_Q>
1

> <i_epik_Tot_abs_Q>
1

> <r_epik_Metal_State_Penalty>
0.529594

> <b_epik_Metal_Only>
0

> <s_lp_Force_Field>
OPLS_2005

> <r_lp_Energy>
11.602

> <b_lp_Chiralities_Consistent>
1

> <s_lp_Variant>
AV-unprocessed.smi:1677-4

> <Gold.Version>
5.8.1

> <Gold.Id.Protein>
6NUR|6NUR_protein|mol2

> <Gold.PLP.Fitness>
45.1524

> <Gold.PLP.PLP>
-34.8659

> <Gold.PLP.part.hbond>
-2.0000

> <Gold.PLP.part.metal>
0.0000

> <Gold.PLP.part.buried>
-2.5750

> <Gold.PLP.part.nonpolar>
-30.0395

> <Gold.PLP.part.repulsive>
0.0332

> <Gold.PLP.ligand.clash>
0.0000

> <Gold.PLP.ligand.torsion>
0.7509

> <Gold.PLP.Chemscore.Hbond>
2.9100

> <Gold.PLP.Chemscore.CHOScore>
1.0000

> <Gold.PLP.Chemscore.Metal>
0.0000

> <Gold.Chemscore.Hbonds>
donor molecule, donor type, donor heavy atom, donor atom, acceptor molecule, acceptor atom, score
      L1  H     7    37       P1 10175  2.00
      P1  H  7997  8008       L1    11  0.83
      L1  C     5    24       P1  8028  1.00

> <Gold.PLP.Chemscore.Internal.Correction>
0.0583

> <Gold.Rescore>
     Score         DG    S(hbond)    S(metal)    S(lipo)     H(rot)  DE(clash)    DE(int)     intcor
     16.36     -17.32       1.88        0.00      87.20       1.81       0.18       0.78       ----

> <Gold.Chemscore.Fitness>
16.3617

> <Gold.Chemscore.DG>
-17.3190

> <Gold.Chemscore.ZeroCoef>
-5.4800

> <Gold.Chemscore.Hbond>
1.8808

> <Gold.Chemscore.Metal>
0.0000

> <Gold.Chemscore.Lipo>
87.2013

> <Gold.Chemscore.Internal_Hbond>
0.0000

> <Gold.Chemscore.DEClash>
0.1753

> <Gold.Chemscore.DEInternal>
0.7820

> <Gold.Chemscore.Rot>
1.8147

> <Gold.Chemscore.Internal.Correction>
   9.000000E+99

> <Gold.Chemscore.Hbonds>
donor molecule, donor type, donor heavy atom, donor atom, acceptor molecule, acceptor atom, score
      L1  H     7    37       P1 10175  0.83
      P1  H  7997  8008       L1    11  0.81

> <Gold.Chemscore.Hbond.Weighted>
-6.2820

> <Gold.Chemscore.Metal.Weighted>
-0.0000

> <Gold.Chemscore.Lipo.Weighted>
-10.2026

> <Gold.Chemscore.Internal_Hbond.Weighted>
0.0000

> <Gold.Chemscore.DEClash.Weighted>
0.1753

> <Gold.Chemscore.DEInternal.Weighted>
0.7820

> <Gold.Chemscore.Rot.Weighted>
4.6456

> <Gold.Chemscore.Internal.Correction.Weighted>
   9.000000E+99

> <Gold.Protein.RotatedTorsions>
[ 6907 6896 6895 6894 ] final   14.32 input  -60.11 | X-H torsion
[ 7974 7965 7964 7962 ] final  163.59 input  175.53 | X-H torsion
[ 8008 7997 7996 7995 ] final  -41.89 input   59.86 | X-H torsion
[ 10167 10162 10161 10158 ] final  -94.37 input  -65.29 | X-H torsion
[ 10718 10713 10712 10709 ] final -158.49 input   66.30 | X-H torsion
[ 10763 10752 10751 10750 ] final   12.57 input  -60.55 | X-H torsion
[ 11005 11000 10999 10996 ] final  133.95 input  -57.11 | X-H torsion

> <Gold.Protein.ActiveResidues>
 VAL166  LYS551  ARG553  GLY616  TRP617  ASP618  TYR619  PRO620  LYS621  CYS622 
 ASP623  PHE694  ASN695  SER759  ASP760  ASP761  ALA762  ILE779  LEU786  VAL792 
 PHE793  MET794  SER795  GLU796  ALA797  LYS798  CYS799  TRP800  GLU811  SER814 

> <Gold.Protein.RotatedAtoms>
  151.8003  135.0710  160.0399 H   0  0  0  0  0  0  0  0  0  0  0  0  # atno 6907 bound_to 6896
  152.3093  133.5732  159.5679 H   0  0  0  0  0  0  0  0  0  0  0  0  # atno 6908 bound_to 6896
  150.7312  134.0091  159.3706 H   0  0  0  0  0  0  0  0  0  0  0  0  # atno 6909 bound_to 6896
  144.7583  139.8205  143.6342 H   0  0  0  0  0  0  0  0  0  0  0  0  # atno 7974 bound_to 7965
  154.4001  140.1487  156.3265 H   0  0  0  0  0  0  0  0  0  0  0  0  # atno 8008 bound_to 7997
  155.8482  140.3459  155.5655 H   0  0  0  0  0  0  0  0  0  0  0  0  # atno 8009 bound_to 7997
  155.8013  140.0870  157.1946 H   0  0  0  0  0  0  0  0  0  0  0  0  # atno 8010 bound_to 7997
  140.3151  143.3082  152.0106 H   0  0  0  0  0  0  0  0  0  0  0  0  # atno 10167 bound_to 10162
  156.5549  130.8621  151.2791 H   0  0  0  0  0  0  0  0  0  0  0  0  # atno 10718 bound_to 10713
  153.1809  135.6827  153.8479 H   0  0  0  0  0  0  0  0  0  0  0  0  # atno 10763 bound_to 10752
  153.7812  135.3182  155.3367 H   0  0  0  0  0  0  0  0  0  0  0  0  # atno 10764 bound_to 10752
  154.8059  135.4749  154.0486 H   0  0  0  0  0  0  0  0  0  0  0  0  # atno 10765 bound_to 10752
  139.9884  134.9524  156.9797 H   0  0  0  0  0  0  0  0  0  0  0  0  # atno 11005 bound_to 11000
  146.1618  139.4735  142.9983 LP  0  0  0  0  0  0  0  0  0  0  0  0  # atno 17320 bound_to 7965
  145.6705  141.0217  143.1660 LP  0  0  0  0  0  0  0  0  0  0  0  0  # atno 17321 bound_to 7965
  139.4885  144.6354  151.6986 LP  0  0  0  0  0  0  0  0  0  0  0  0  # atno 17342 bound_to 10162
  140.5533  144.0389  150.6136 LP  0  0  0  0  0  0  0  0  0  0  0  0  # atno 17343 bound_to 10162
  157.7380  130.9806  150.2227 LP  0  0  0  0  0  0  0  0  0  0  0  0  # atno 17370 bound_to 10713
  156.2851  130.3738  149.7896 LP  0  0  0  0  0  0  0  0  0  0  0  0  # atno 17371 bound_to 10713
  140.4957  134.1148  155.7241 LP  0  0  0  0  0  0  0  0  0  0  0  0  # atno 17394 bound_to 11000
  141.1544  133.8909  157.2014 LP  0  0  0  0  0  0  0  0  0  0  0  0  # atno 17395 bound_to 11000

$$$$
