AV-unprocessed.smi:320|AV-procd|sdf|2332|dock2
  -GOLD-   2262022233D 1   1.00000     0.00000
 Structure written by MMmdl.
 49 52  0  0  0  0  0  0  0  0  1 V2000
  147.0591  138.0206  157.0101 C   0  0  0  0  0  0  0  0  0  0  0  0
  148.4861  137.6283  157.4446 C   0  0  2  0  0  0  0  0  0  0  0  0
  148.4891  137.4147  158.8927 N   0  0  0  0  0  0  0  0  0  0  0  0
  148.7711  136.2618  159.5183 C   0  0  0  0  0  0  0  0  0  0  0  0
  149.0833  135.2285  158.9246 O   0  0  0  0  0  0  0  0  0  0  0  0
  148.6971  136.3005  161.0516 C   0  0  0  0  0  0  0  0  0  0  0  0
  147.4777  135.6796  161.5954 N   0  0  0  0  0  0  0  0  0  0  0  0
  147.5758  134.3387  162.0172 C   0  0  0  0  0  0  0  0  0  0  0  0
  146.5243  133.6744  162.5222 C   0  0  0  0  0  0  0  0  0  0  0  0
  145.2642  134.3708  162.6288 C   0  0  0  0  0  0  0  0  0  0  0  0
  145.1582  135.6524  162.2246 C   0  0  0  0  0  0  0  0  0  0  0  0
  146.3046  136.3816  161.6694 C   0  0  0  0  0  0  0  0  0  0  0  0
  146.2156  137.5509  161.2936 O   0  0  0  0  0  0  0  0  0  0  0  0
  149.6114  138.6275  157.0256 C   0  0  0  0  0  0  0  0  0  0  0  0
  150.9915  138.0887  157.5072 C   0  0  0  0  0  0  0  0  0  0  0  0
  152.1331  139.0394  157.0914 C   0  0  2  0  0  0  0  0  0  0  0  0
  151.8985  140.4283  157.7197 C   0  0  0  0  0  0  0  0  0  0  0  0
  150.5515  140.9894  157.2200 C   0  0  1  0  0  0  0  0  0  0  0  0
  150.5836  141.1168  155.6830 C   0  0  0  0  0  0  0  0  0  0  0  0
  150.8224  139.7243  155.0635 C   0  0  1  0  0  0  0  0  0  0  0  0
  152.1699  139.1608  155.5553 C   0  0  0  0  0  0  0  0  0  0  0  0
  149.6792  138.7733  155.4779 C   0  0  0  0  0  0  0  0  0  0  0  0
  149.4053  140.0429  157.6396 C   0  0  0  0  0  0  0  0  0  0  0  0
  146.9627  138.0783  155.9268 H   0  0  0  0  0  0  0  0  0  0  0  0
  146.7532  138.9786  157.4292 H   0  0  0  0  0  0  0  0  0  0  0  0
  146.3353  137.2771  157.3458 H   0  0  0  0  0  0  0  0  0  0  0  0
  148.7121  136.6791  156.9549 H   0  0  0  0  0  0  0  0  0  0  0  0
  148.2497  138.2117  159.4645 H   0  0  0  0  0  0  0  0  0  0  0  0
  149.5859  135.8071  161.4476 H   0  0  0  0  0  0  0  0  0  0  0  0
  148.7723  137.3363  161.3889 H   0  0  0  0  0  0  0  0  0  0  0  0
  148.5505  133.8885  161.8970 H   0  0  0  0  0  0  0  0  0  0  0  0
  146.6178  132.6451  162.8361 H   0  0  0  0  0  0  0  0  0  0  0  0
  144.4020  133.8616  163.0336 H   0  0  0  0  0  0  0  0  0  0  0  0
  144.2068  136.1568  162.3101 H   0  0  0  0  0  0  0  0  0  0  0  0
  151.0080  137.9722  158.5913 H   0  0  0  0  0  0  0  0  0  0  0  0
  151.1721  137.0952  157.0947 H   0  0  0  0  0  0  0  0  0  0  0  0
  153.0841  138.6389  157.4442 H   0  0  0  0  0  0  0  0  0  0  0  0
  151.8979  140.3562  158.8080 H   0  0  0  0  0  0  0  0  0  0  0  0
  152.7122  141.1050  157.4554 H   0  0  0  0  0  0  0  0  0  0  0  0
  150.3857  141.9733  157.6599 H   0  0  0  0  0  0  0  0  0  0  0  0
  149.6459  141.5382  155.3185 H   0  0  0  0  0  0  0  0  0  0  0  0
  151.3713  141.8066  155.3774 H   0  0  0  0  0  0  0  0  0  0  0  0
  150.8434  139.8119  153.9767 H   0  0  0  0  0  0  0  0  0  0  0  0
  152.9886  139.8119  155.2462 H   0  0  0  0  0  0  0  0  0  0  0  0
  152.3609  138.1870  155.1021 H   0  0  0  0  0  0  0  0  0  0  0  0
  149.8204  137.7972  155.0117 H   0  0  0  0  0  0  0  0  0  0  0  0
  148.7436  139.1685  155.0833 H   0  0  0  0  0  0  0  0  0  0  0  0
  148.4548  140.4675  157.3162 H   0  0  0  0  0  0  0  0  0  0  0  0
  149.3612  139.9914  158.7281 H   0  0  0  0  0  0  0  0  0  0  0  0
  1  2  1  0  0  0  0
  1 24  1  0  0  0  0
  1 25  1  0  0  0  0
  1 26  1  0  0  0  0
  2  3  1  0  0  0  0
  2 14  1  0  0  0  0
  2 27  1  0  0  0  0
  3  4  1  0  0  0  0
  3 28  1  0  0  0  0
  4  5  2  0  0  0  0
  4  6  1  0  0  0  0
  6  7  1  0  0  0  0
  6 29  1  0  0  0  0
  6 30  1  0  0  0  0
  7 12  1  0  0  0  0
  7  8  1  0  0  0  0
  8  9  2  0  0  0  0
  8 31  1  0  0  0  0
  9 10  1  0  0  0  0
  9 32  1  0  0  0  0
 10 11  2  0  0  0  0
 10 33  1  0  0  0  0
 11 12  1  0  0  0  0
 11 34  1  0  0  0  0
 12 13  2  0  0  0  0
 14 22  1  0  0  0  0
 14 23  1  0  0  0  0
 14 15  1  0  0  0  0
 15 16  1  0  0  0  0
 15 35  1  0  0  0  0
 15 36  1  0  0  0  0
 16 21  1  0  0  0  0
 16 17  1  0  0  0  0
 16 37  1  0  0  0  0
 17 18  1  0  0  0  0
 17 38  1  0  0  0  0
 17 39  1  0  0  0  0
 18 19  1  0  0  0  0
 18 23  1  0  0  0  0
 18 40  1  0  0  0  0
 19 20  1  0  0  0  0
 19 41  1  0  0  0  0
 19 42  1  0  0  0  0
 20 21  1  0  0  0  0
 20 22  1  0  0  0  0
 20 43  1  0  0  0  0
 21 44  1  0  0  0  0
 21 45  1  0  0  0  0
 22 46  1  0  0  0  0
 22 47  1  0  0  0  0
 23 48  1  0  0  0  0
 23 49  1  0  0  0  0
M  END
> <s_m_source_file>
AV-unprocessed.smi

> <i_m_source_file_index>
320

> <i_lp_mmshare_version>
43012

> <i_f3d_flags>
0

> <s_epik_input>
W0NIMl0xW0NAQEhdKFtDSDJdMilbQ0gyXVtDQEBIXShbQ0gyXTMpW0NIMl1bQ0BIXTFbQ0gyXUMyM1tDQEhdKFtDSDNdKVtOSF1DKD1PKVtDSDJdbjRbY0hdW2NIXVtjSF1bY0hdYzQ9Tw==

> <s_epik_cmdline>
J2VwaWtfcHl0aG9uJywgJy1waCcsICc3LjAnLCAnLXRuJywgJzgnLCAnLW1hJywgJzIwMCcsICctbWV0YWxfYmluZGluZycsICctaW1hZScsICc8aW5maWxlLm1hZT4nLCAnLW9tYWUnLCAnPG91dGZpbGUubWFlPic=

> <r_lp_tautomer_probability>
1

> <r_epik_Ionization_Penalty>
4.15949e-07

> <r_epik_Ionization_Penalty_Charging>
3.97363e-07

> <r_epik_Ionization_Penalty_Neutral>
1.85865e-08

> <r_epik_State_Penalty>
-0

> <r_epik_Charging_Adjusted_Penalty>
3.97363e-07

> <i_epik_Tot_Q>
0

> <i_epik_Tot_abs_Q>
0

> <r_epik_Metal_State_Penalty>
-0

> <b_epik_Metal_Only>
0

> <s_lp_Force_Field>
OPLS_2005

> <r_lp_Energy>
45.4177

> <b_lp_Chiralities_Consistent>
1

> <s_lp_Variant>
AV-unprocessed.smi:320-1

> <Gold.Version>
5.8.1

> <Gold.Id.Protein>
6NUR|6NUR_protein|mol2

> <Gold.PLP.Fitness>
42.0523

> <Gold.PLP.PLP>
-37.1973

> <Gold.PLP.part.hbond>
-2.0000

> <Gold.PLP.part.metal>
0.0000

> <Gold.PLP.part.buried>
-3.9367

> <Gold.PLP.part.nonpolar>
-31.3369

> <Gold.PLP.part.repulsive>
0.1949

> <Gold.PLP.ligand.clash>
0.0000

> <Gold.PLP.ligand.torsion>
0.5886

> <Gold.PLP.Chemscore.Hbond>
1.9920

> <Gold.PLP.Chemscore.CHOScore>
0.0000

> <Gold.PLP.Chemscore.Metal>
0.0000

> <Gold.Chemscore.Hbonds>
donor molecule, donor type, donor heavy atom, donor atom, acceptor molecule, acceptor atom, score
      P1  H  6896  6909       L1     5  1.00
      P1  H  6934  6947       L1    13  1.00

> <Gold.PLP.Chemscore.Internal.Correction>
0.0561

> <Gold.Rescore>
     Score         DG    S(hbond)    S(metal)    S(lipo)     H(rot)  DE(clash)    DE(int)     intcor
     17.62     -18.55       1.99        0.00      88.30       1.52       0.39       0.54       ----

> <Gold.Chemscore.Fitness>
17.6152

> <Gold.Chemscore.DG>
-18.5531

> <Gold.Chemscore.ZeroCoef>
-5.4800

> <Gold.Chemscore.Hbond>
1.9861

> <Gold.Chemscore.Metal>
0.0000

> <Gold.Chemscore.Lipo>
88.2999

> <Gold.Chemscore.Internal_Hbond>
0.0000

> <Gold.Chemscore.DEClash>
0.3932

> <Gold.Chemscore.DEInternal>
0.5446

> <Gold.Chemscore.Rot>
1.5202

> <Gold.Chemscore.Internal.Correction>
   9.000000E+99

> <Gold.Chemscore.Hbonds>
donor molecule, donor type, donor heavy atom, donor atom, acceptor molecule, acceptor atom, score
      P1  H  6896  6909       L1     5  0.91
      P1  H  6934  6947       L1    13  0.99

> <Gold.Chemscore.Hbond.Weighted>
-6.6336

> <Gold.Chemscore.Metal.Weighted>
-0.0000

> <Gold.Chemscore.Lipo.Weighted>
-10.3311

> <Gold.Chemscore.Internal_Hbond.Weighted>
0.0000

> <Gold.Chemscore.DEClash.Weighted>
0.3932

> <Gold.Chemscore.DEInternal.Weighted>
0.5446

> <Gold.Chemscore.Rot.Weighted>
3.8916

> <Gold.Chemscore.Internal.Correction.Weighted>
   9.000000E+99

> <Gold.Protein.RotatedTorsions>
[ 6907 6896 6895 6894 ] final   41.30 input  -60.11 | X-H torsion
[ 7974 7965 7964 7962 ] final   58.39 input  175.53 | X-H torsion
[ 8008 7997 7996 7995 ] final -175.31 input   59.86 | X-H torsion
[ 10167 10162 10161 10158 ] final -135.68 input  -65.29 | X-H torsion
[ 10718 10713 10712 10709 ] final   23.81 input   66.30 | X-H torsion
[ 10763 10752 10751 10750 ] final   53.38 input  -60.55 | X-H torsion
[ 11005 11000 10999 10996 ] final  -62.65 input  -57.11 | X-H torsion

> <Gold.Protein.ActiveResidues>
 VAL166  LYS551  ARG553  GLY616  TRP617  ASP618  TYR619  PRO620  LYS621  CYS622 
 ASP623  PHE694  ASN695  SER759  ASP760  ASP761  ALA762  ILE779  LEU786  VAL792 
 PHE793  MET794  SER795  GLU796  ALA797  LYS798  CYS799  TRP800  GLU811  SER814 

> <Gold.Protein.RotatedAtoms>
  152.1935  134.8651  160.0514 H   0  0  0  0  0  0  0  0  0  0  0  0  # atno 6907 bound_to 6896
  151.9531  133.3667  159.4015 H   0  0  0  0  0  0  0  0  0  0  0  0  # atno 6908 bound_to 6896
  150.6940  134.4243  159.5263 H   0  0  0  0  0  0  0  0  0  0  0  0  # atno 6909 bound_to 6896
  145.9186  139.3711  143.0492 H   0  0  0  0  0  0  0  0  0  0  0  0  # atno 7974 bound_to 7965
  155.9809  140.1181  157.0727 H   0  0  0  0  0  0  0  0  0  0  0  0  # atno 8008 bound_to 7997
  154.4183  140.1144  156.5502 H   0  0  0  0  0  0  0  0  0  0  0  0  # atno 8009 bound_to 7997
  155.6471  140.3473  155.4737 H   0  0  0  0  0  0  0  0  0  0  0  0  # atno 8010 bound_to 7997
  139.8754  143.6905  152.2634 H   0  0  0  0  0  0  0  0  0  0  0  0  # atno 10167 bound_to 10162
  157.1712  130.6760  149.6078 H   0  0  0  0  0  0  0  0  0  0  0  0  # atno 10718 bound_to 10713
  152.9795  135.5781  154.4731 H   0  0  0  0  0  0  0  0  0  0  0  0  # atno 10763 bound_to 10752
  154.4291  135.2773  155.1926 H   0  0  0  0  0  0  0  0  0  0  0  0  # atno 10764 bound_to 10752
  154.3642  135.6182  153.5760 H   0  0  0  0  0  0  0  0  0  0  0  0  # atno 10765 bound_to 10752
  141.1367  133.6642  156.5559 H   0  0  0  0  0  0  0  0  0  0  0  0  # atno 11005 bound_to 11000
  145.8579  140.9492  143.0715 LP  0  0  0  0  0  0  0  0  0  0  0  0  # atno 17320 bound_to 7965
  144.6750  140.0492  143.7479 LP  0  0  0  0  0  0  0  0  0  0  0  0  # atno 17321 bound_to 7965
  139.7245  144.7596  151.0901 LP  0  0  0  0  0  0  0  0  0  0  0  0  # atno 17342 bound_to 10162
  140.7754  143.5166  150.9588 LP  0  0  0  0  0  0  0  0  0  0  0  0  # atno 17343 bound_to 10162
  155.9738  130.4678  150.6339 LP  0  0  0  0  0  0  0  0  0  0  0  0  # atno 17370 bound_to 10713
  157.4042  131.0814  151.1281 LP  0  0  0  0  0  0  0  0  0  0  0  0  # atno 17371 bound_to 10713
  140.4026  134.7343  157.4789 LP  0  0  0  0  0  0  0  0  0  0  0  0  # atno 17394 bound_to 11000
  140.0485  134.6165  155.8891 LP  0  0  0  0  0  0  0  0  0  0  0  0  # atno 17395 bound_to 11000

$$$$
