AV-unprocessed.smi:1812|AV-procd|sdf|7339|dock5
  -GOLD-   22720 9 03D 1   1.00000     0.00000
 Structure written by MMmdl.
 33 35  0  0  0  0  0  0  0  0  2 V2000
  154.6428  139.6348  159.1933 O   0  0  0  0  0  0  0  0  0  0  0  0
  153.4300  139.5977  158.9734 C   0  0  0  0  0  0  0  0  0  0  0  0
  152.6219  140.5305  159.4959 N   0  0  0  0  0  0  0  0  0  0  0  0
  153.0223  141.6386  160.3561 C   0  0  0  0  0  0  0  0  0  0  0  0
  152.1373  142.8643  160.0918 C   0  0  1  0  0  0  0  0  0  0  0  0
  152.0879  143.8566  161.2522 C   0  0  0  0  0  0  0  0  0  0  0  0
  151.7575  145.1801  160.5781 C   0  0  0  0  0  0  0  0  0  0  0  0
  151.9946  144.9119  159.0888 C   0  0  0  0  0  0  0  0  0  0  0  0
  152.6631  143.6599  159.0411 O   0  0  0  0  0  0  0  0  0  0  0  0
  152.7801  138.6744  158.2288 N   0  5  0  0  0  0  0  0  0  0  0  0
  152.0658  139.0553  157.1570 C   0  0  0  0  0  0  0  0  0  0  0  0
  152.6130  139.7081  156.1219 N   0  0  0  0  0  0  0  0  0  0  0  0
  151.6969  140.0153  155.1264 N   0  0  0  0  0  0  0  0  0  0  0  0
  150.4658  139.5957  155.4277 C   0  0  0  0  0  0  0  0  0  0  0  0
  149.3029  139.8102  154.5181 C   0  0  0  0  0  0  0  0  0  0  0  0
  148.8217  141.2004  154.1627 C   0  0  0  0  0  0  0  0  0  0  0  0
  147.9845  140.3189  155.0542 C   0  0  0  0  0  0  0  0  0  0  0  0
  150.3328  138.7831  156.9791 S   0  0  0  0  0  0  0  0  0  0  0  0
  151.6379  140.4592  159.2819 H   0  0  0  0  0  0  0  0  0  0  0  0
  152.9428  141.3646  161.4093 H   0  0  0  0  0  0  0  0  0  0  0  0
  154.0704  141.8731  160.1665 H   0  0  0  0  0  0  0  0  0  0  0  0
  151.1239  142.5523  159.8308 H   0  0  0  0  0  0  0  0  0  0  0  0
  151.3604  143.5742  162.0137 H   0  0  0  0  0  0  0  0  0  0  0  0
  153.0657  143.9262  161.7307 H   0  0  0  0  0  0  0  0  0  0  0  0
  150.7230  145.4751  160.7569 H   0  0  0  0  0  0  0  0  0  0  0  0
  152.4029  145.9760  160.9508 H   0  0  0  0  0  0  0  0  0  0  0  0
  151.0447  144.8306  158.5582 H   0  0  0  0  0  0  0  0  0  0  0  0
  152.5862  145.6925  158.6102 H   0  0  0  0  0  0  0  0  0  0  0  0
  149.2792  139.0502  153.7396 H   0  0  0  0  0  0  0  0  0  0  0  0
  149.3147  142.0516  154.6283 H   0  0  0  0  0  0  0  0  0  0  0  0
  148.4718  141.3641  153.1456 H   0  0  0  0  0  0  0  0  0  0  0  0
  147.0753  139.8947  154.6331 H   0  0  0  0  0  0  0  0  0  0  0  0
  147.9343  140.5768  156.1103 H   0  0  0  0  0  0  0  0  0  0  0  0
  1  2  2  0  0  0  0
  2  3  1  0  0  0  0
  2 10  1  0  0  0  0
  3  4  1  0  0  0  0
  3 19  1  0  0  0  0
  4  5  1  0  0  0  0
  4 20  1  0  0  0  0
  4 21  1  0  0  0  0
  5  9  1  0  0  0  0
  5  6  1  0  0  0  0
  5 22  1  0  0  0  0
  6  7  1  0  0  0  0
  6 23  1  0  0  0  0
  6 24  1  0  0  0  0
  7  8  1  0  0  0  0
  7 25  1  0  0  0  0
  7 26  1  0  0  0  0
  8  9  1  0  0  0  0
  8 27  1  0  0  0  0
  8 28  1  0  0  0  0
 10 11  1  0  0  0  0
 11 18  1  0  0  0  0
 11 12  2  0  0  0  0
 12 13  1  0  0  0  0
 13 14  2  0  0  0  0
 14 15  1  0  0  0  0
 14 18  1  0  0  0  0
 15 17  1  0  0  0  0
 15 16  1  0  0  0  0
 15 29  1  0  0  0  0
 16 17  1  0  0  0  0
 16 30  1  0  0  0  0
 16 31  1  0  0  0  0
 17 32  1  0  0  0  0
 17 33  1  0  0  0  0
M  CHG  1  10  -1
M  END
> <s_m_source_file>
AV-unprocessed.smi

> <i_m_source_file_index>
1812

> <i_lp_mmshare_version>
43012

> <i_f3d_flags>
0

> <s_epik_input>
TzFbQ0gyXVtDSDJdW0NIMl1bQ0BIXTFbQ0gyXVtOSF1DKD1PKVtOSF1jMm5uYyhzMilbQ0hdM1tDSDJdW0NIMl0z

> <s_epik_cmdline>
J2VwaWtfcHl0aG9uJywgJy1waCcsICc3LjAnLCAnLXRuJywgJzgnLCAnLW1hJywgJzIwMCcsICctbWV0YWxfYmluZGluZycsICctaW1hZScsICc8aW5maWxlLm1hZT4nLCAnLW9tYWUnLCAnPG91dGZpbGUubWFlPic=

> <r_lp_tautomer_probability>
1

> <r_epik_Ionization_Penalty>
4.72991

> <r_epik_Ionization_Penalty_Charging>
4.58249

> <r_epik_Ionization_Penalty_Neutral>
0.147417

> <r_epik_State_Penalty>
4.58223

> <r_epik_Charging_Adjusted_Penalty>
9.16473

> <i_epik_Tot_Q>
-1

> <i_epik_Tot_abs_Q>
1

> <r_epik_Metal_State_Penalty>
0.861876

> <b_epik_Metal_Only>
1

> <s_lp_Force_Field>
OPLS_2005

> <r_lp_Energy>
14.1682

> <b_lp_Chiralities_Consistent>
1

> <s_lp_Variant>
AV-unprocessed.smi:1812-4

> <Gold.Version>
5.8.1

> <Gold.Id.Protein>
6NUR|6NUR_protein|mol2

> <Gold.PLP.Fitness>
43.0006

> <Gold.PLP.PLP>
-37.5065

> <Gold.PLP.part.hbond>
-3.0000

> <Gold.PLP.part.metal>
0.0000

> <Gold.PLP.part.buried>
-5.0443

> <Gold.PLP.part.nonpolar>
-29.4145

> <Gold.PLP.part.repulsive>
0.1585

> <Gold.PLP.ligand.clash>
0.0000

> <Gold.PLP.ligand.torsion>
1.7570

> <Gold.PLP.Chemscore.Hbond>
2.9440

> <Gold.PLP.Chemscore.CHOScore>
0.0000

> <Gold.PLP.Chemscore.Metal>
0.0000

> <Gold.Chemscore.Hbonds>
donor molecule, donor type, donor heavy atom, donor atom, acceptor molecule, acceptor atom, score
      P1  H  7989  7998       L1    13  0.99
      P1  H  7997  8008       L1    12  0.93
      P1  H  7997  8010       L1     1  0.98

> <Gold.PLP.Chemscore.Internal.Correction>
0.1760

> <Gold.Rescore>
     Score         DG    S(hbond)    S(metal)    S(lipo)     H(rot)  DE(clash)    DE(int)     intcor
     18.30     -20.03       2.49        0.00      85.02       1.45       0.25       1.48       ----

> <Gold.Chemscore.Fitness>
18.2993

> <Gold.Chemscore.DG>
-20.0339

> <Gold.Chemscore.ZeroCoef>
-5.4800

> <Gold.Chemscore.Hbond>
2.4869

> <Gold.Chemscore.Metal>
0.0000

> <Gold.Chemscore.Lipo>
85.0190

> <Gold.Chemscore.Internal_Hbond>
0.0000

> <Gold.Chemscore.DEClash>
0.2506

> <Gold.Chemscore.DEInternal>
1.4840

> <Gold.Chemscore.Rot>
1.4451

> <Gold.Chemscore.Internal.Correction>
   9.000000E+99

> <Gold.Chemscore.Hbonds>
donor molecule, donor type, donor heavy atom, donor atom, acceptor molecule, acceptor atom, score
      P1  H  7989  7998       L1    13  0.65
      P1  H  7997  8008       L1    12  0.89
      P1  H  7997  8010       L1     1  0.31

> <Gold.Chemscore.Hbond.Weighted>
-8.3062

> <Gold.Chemscore.Metal.Weighted>
-0.0000

> <Gold.Chemscore.Lipo.Weighted>
-9.9472

> <Gold.Chemscore.Internal_Hbond.Weighted>
0.0000

> <Gold.Chemscore.DEClash.Weighted>
0.2506

> <Gold.Chemscore.DEInternal.Weighted>
1.4840

> <Gold.Chemscore.Rot.Weighted>
3.6995

> <Gold.Chemscore.Internal.Correction.Weighted>
   9.000000E+99

> <Gold.Protein.RotatedTorsions>
[ 6907 6896 6895 6894 ] final  -46.89 input  -60.11 | X-H torsion
[ 7974 7965 7964 7962 ] final -162.74 input  175.53 | X-H torsion
[ 8008 7997 7996 7995 ] final  -17.80 input   59.86 | X-H torsion
[ 10167 10162 10161 10158 ] final  -10.82 input  -65.29 | X-H torsion
[ 10718 10713 10712 10709 ] final  -37.90 input   66.30 | X-H torsion
[ 10763 10752 10751 10750 ] final   59.48 input  -60.55 | X-H torsion
[ 11005 11000 10999 10996 ] final -118.00 input  -57.11 | X-H torsion

> <Gold.Protein.ActiveResidues>
 VAL166  LYS551  ARG553  GLY616  TRP617  ASP618  TYR619  PRO620  LYS621  CYS622 
 ASP623  PHE694  ASN695  SER759  ASP760  ASP761  ALA762  ILE779  LEU786  VAL792 
 PHE793  MET794  SER795  GLU796  ALA797  LYS798  CYS799  TRP800  GLU811  SER814 

> <Gold.Protein.RotatedAtoms>
  150.9065  134.8480  159.7395 H   0  0  0  0  0  0  0  0  0  0  0  0  # atno 6907 bound_to 6896
  152.4921  134.4424  159.9558 H   0  0  0  0  0  0  0  0  0  0  0  0  # atno 6908 bound_to 6896
  151.4471  133.3588  159.2825 H   0  0  0  0  0  0  0  0  0  0  0  0  # atno 6909 bound_to 6896
  144.7348  140.3209  143.6171 H   0  0  0  0  0  0  0  0  0  0  0  0  # atno 7974 bound_to 7965
  154.4952  140.2133  155.9462 H   0  0  0  0  0  0  0  0  0  0  0  0  # atno 8008 bound_to 7997
  156.1360  140.3188  155.8390 H   0  0  0  0  0  0  0  0  0  0  0  0  # atno 8009 bound_to 7997
  155.4208  140.0497  157.3016 H   0  0  0  0  0  0  0  0  0  0  0  0  # atno 8010 bound_to 7997
  140.7123  143.5706  150.9096 H   0  0  0  0  0  0  0  0  0  0  0  0  # atno 10167 bound_to 10162
  156.3100  130.4251  149.8060 H   0  0  0  0  0  0  0  0  0  0  0  0  # atno 10718 bound_to 10713
  152.9896  135.5570  154.5720 H   0  0  0  0  0  0  0  0  0  0  0  0  # atno 10763 bound_to 10752
  154.5118  135.2803  155.1338 H   0  0  0  0  0  0  0  0  0  0  0  0  # atno 10764 bound_to 10752
  154.2727  135.6360  153.5369 H   0  0  0  0  0  0  0  0  0  0  0  0  # atno 10765 bound_to 10752
  141.0316  133.9972  157.3134 H   0  0  0  0  0  0  0  0  0  0  0  0  # atno 11005 bound_to 11000
  145.7570  139.1812  143.2289 LP  0  0  0  0  0  0  0  0  0  0  0  0  # atno 17320 bound_to 7965
  146.1016  140.7536  142.9546 LP  0  0  0  0  0  0  0  0  0  0  0  0  # atno 17321 bound_to 7965
  139.9432  143.6357  152.3048 LP  0  0  0  0  0  0  0  0  0  0  0  0  # atno 17342 bound_to 10162
  139.6849  144.7652  151.1541 LP  0  0  0  0  0  0  0  0  0  0  0  0  # atno 17343 bound_to 10162
  156.5407  130.8298  151.3268 LP  0  0  0  0  0  0  0  0  0  0  0  0  # atno 17370 bound_to 10713
  157.7388  130.9821  150.2278 LP  0  0  0  0  0  0  0  0  0  0  0  0  # atno 17371 bound_to 10713
  139.9212  135.0200  156.8070 LP  0  0  0  0  0  0  0  0  0  0  0  0  # atno 17394 bound_to 11000
  140.6396  133.9830  155.7701 LP  0  0  0  0  0  0  0  0  0  0  0  0  # atno 17395 bound_to 11000

$$$$
