AV-unprocessed.smi:1047|AV-procd|sdf|4574|dock6
  -GOLD-   22720 3 33D 1   1.00000     0.00000
 Structure written by MMmdl.
 56 58  0  0  0  0  0  0  0  0  2 V2000
  154.9916  129.1482  166.5234 C   0  0  0  0  0  0  0  0  0  0  0  0
  155.3791  130.6223  166.3418 C   0  0  0  0  0  0  0  0  0  0  0  0
  155.6705  130.9621  164.9238 N   0  3  1  0  0  0  0  0  0  0  0  0
  154.5654  130.6714  163.9751 C   0  0  0  0  0  0  0  0  0  0  0  0
  153.4669  131.7490  164.0422 C   0  0  0  0  0  0  0  0  0  0  0  0
  154.0419  133.0319  163.8270 O   0  0  0  0  0  0  0  0  0  0  0  0
  155.0084  133.3718  164.8169 C   0  0  2  0  0  0  0  0  0  0  0  0
  155.4925  134.8015  164.5340 C   0  0  0  0  0  0  0  0  0  0  0  0
  154.4000  135.7582  164.6740 N   0  0  0  0  0  0  0  0  0  0  0  0
  154.8099  137.1443  164.4689 C   0  0  0  0  0  0  0  0  0  0  0  0
  154.5700  137.5840  163.0112 C   0  0  2  0  0  0  0  0  0  0  0  0
  155.0530  136.5733  162.1499 O   0  0  0  0  0  0  0  0  0  0  0  0
  155.2984  138.8880  162.6314 C   0  0  0  0  0  0  0  0  0  0  0  0
  154.8134  139.4647  161.3907 N   0  0  0  0  0  0  0  0  0  0  0  0
  154.9534  138.9541  160.1521 C   0  0  0  0  0  0  0  0  0  0  0  0
  154.4368  139.6510  159.1442 N   0  0  0  0  0  0  0  0  0  0  0  0
  153.9045  140.7445  159.8054 C   0  0  0  0  0  0  0  0  0  0  0  0
  153.2159  141.8713  159.3053 C   0  0  0  0  0  0  0  0  0  0  0  0
  152.7557  142.8848  160.1760 C   0  0  0  0  0  0  0  0  0  0  0  0
  152.0248  144.0825  159.5947 C   0  0  0  0  0  0  0  0  0  0  0  0
  152.9794  142.7775  161.5721 C   0  0  0  0  0  0  0  0  0  0  0  0
  152.4914  143.8522  162.5272 C   0  0  0  0  0  0  0  0  0  0  0  0
  153.6654  141.6585  162.0885 C   0  0  0  0  0  0  0  0  0  0  0  0
  154.1224  140.6585  161.2117 C   0  0  0  0  0  0  0  0  0  0  0  0
  156.1621  132.3498  164.7361 C   0  0  0  0  0  0  0  0  0  0  0  0
  154.8903  128.9072  167.5818 H   0  0  0  0  0  0  0  0  0  0  0  0
  155.7515  128.4864  166.1067 H   0  0  0  0  0  0  0  0  0  0  0  0
  154.0403  128.9121  166.0477 H   0  0  0  0  0  0  0  0  0  0  0  0
  154.6034  131.2716  166.7478 H   0  0  0  0  0  0  0  0  0  0  0  0
  156.2729  130.8032  166.9401 H   0  0  0  0  0  0  0  0  0  0  0  0
  154.9824  130.6519  162.9674 H   0  0  0  0  0  0  0  0  0  0  0  0
  154.1444  129.6816  164.1461 H   0  0  0  0  0  0  0  0  0  0  0  0
  152.7192  131.5672  163.2703 H   0  0  0  0  0  0  0  0  0  0  0  0
  152.9412  131.7270  164.9975 H   0  0  0  0  0  0  0  0  0  0  0  0
  154.5547  133.3375  165.8093 H   0  0  0  0  0  0  0  0  0  0  0  0
  156.2887  135.0614  165.2328 H   0  0  0  0  0  0  0  0  0  0  0  0
  155.9250  134.8553  163.5341 H   0  0  0  0  0  0  0  0  0  0  0  0
  153.6610  135.5247  164.0185 H   0  0  0  0  0  0  0  0  0  0  0  0
  154.2371  137.7784  165.1458 H   0  0  0  0  0  0  0  0  0  0  0  0
  155.8593  137.2808  164.7343 H   0  0  0  0  0  0  0  0  0  0  0  0
  153.5012  137.7127  162.8323 H   0  0  0  0  0  0  0  0  0  0  0  0
  155.9415  136.7845  161.9082 H   0  0  0  0  0  0  0  0  0  0  0  0
  155.1907  139.6275  163.4257 H   0  0  0  0  0  0  0  0  0  0  0  0
  156.3682  138.7046  162.5224 H   0  0  0  0  0  0  0  0  0  0  0  0
  155.4628  138.0168  159.9819 H   0  0  0  0  0  0  0  0  0  0  0  0
  153.0458  141.9524  158.2418 H   0  0  0  0  0  0  0  0  0  0  0  0
  152.5650  145.0036  159.8156 H   0  0  0  0  0  0  0  0  0  0  0  0
  151.0213  144.1591  160.0142 H   0  0  0  0  0  0  0  0  0  0  0  0
  151.9286  144.0032  158.5115 H   0  0  0  0  0  0  0  0  0  0  0  0
  152.7467  143.6125  163.5598 H   0  0  0  0  0  0  0  0  0  0  0  0
  151.4076  143.9542  162.4658 H   0  0  0  0  0  0  0  0  0  0  0  0
  152.9445  144.8135  162.2848 H   0  0  0  0  0  0  0  0  0  0  0  0
  153.8421  141.5659  163.1499 H   0  0  0  0  0  0  0  0  0  0  0  0
  156.9385  132.5798  165.4669 H   0  0  0  0  0  0  0  0  0  0  0  0
  156.6373  132.4142  163.7562 H   0  0  0  0  0  0  0  0  0  0  0  0
  156.4391  130.3605  164.6631 H   0  0  0  0  0  0  0  0  0  0  0  0
  1  2  1  0  0  0  0
  1 26  1  0  0  0  0
  1 27  1  0  0  0  0
  1 28  1  0  0  0  0
  2  3  1  0  0  0  0
  2 29  1  0  0  0  0
  2 30  1  0  0  0  0
  3 25  1  0  0  0  0
  3  4  1  0  0  0  0
  3 56  1  0  0  0  0
  4  5  1  0  0  0  0
  4 31  1  0  0  0  0
  4 32  1  0  0  0  0
  5  6  1  0  0  0  0
  5 33  1  0  0  0  0
  5 34  1  0  0  0  0
  6  7  1  0  0  0  0
  7  8  1  0  0  0  0
  7 25  1  0  0  0  0
  7 35  1  0  0  0  0
  8  9  1  0  0  0  0
  8 36  1  0  0  0  0
  8 37  1  0  0  0  0
  9 10  1  0  0  0  0
  9 38  1  0  0  0  0
 10 11  1  0  0  0  0
 10 39  1  0  0  0  0
 10 40  1  0  0  0  0
 11 12  1  0  0  0  0
 11 13  1  0  0  0  0
 11 41  1  0  0  0  0
 12 42  1  0  0  0  0
 13 14  1  0  0  0  0
 13 43  1  0  0  0  0
 13 44  1  0  0  0  0
 14 24  1  0  0  0  0
 14 15  1  0  0  0  0
 15 16  2  0  0  0  0
 15 45  1  0  0  0  0
 16 17  1  0  0  0  0
 17 24  2  0  0  0  0
 17 18  1  0  0  0  0
 18 19  2  0  0  0  0
 18 46  1  0  0  0  0
 19 20  1  0  0  0  0
 19 21  1  0  0  0  0
 20 47  1  0  0  0  0
 20 48  1  0  0  0  0
 20 49  1  0  0  0  0
 21 22  1  0  0  0  0
 21 23  2  0  0  0  0
 22 50  1  0  0  0  0
 22 51  1  0  0  0  0
 22 52  1  0  0  0  0
 23 24  1  0  0  0  0
 23 53  1  0  0  0  0
 25 54  1  0  0  0  0
 25 55  1  0  0  0  0
M  CHG  1   3   1
M  END
> <s_m_source_file>
AV-unprocessed.smi

> <i_m_source_file_index>
1047

> <i_lp_mmshare_version>
43012

> <i_f3d_flags>
0

> <s_epik_input>
W0NIM11bQ0gyXU4xW0NIMl1bQ0gyXU9bQ0BIXShbQ0gyXTEpW0NIMl1bTkhdW0NIMl1bQ0BIXShbT0hdKVtDSDJdbihbY0hdbjIpYyhjMjMpW2NIXWMoW0NIM10pYyhbY0hdMylbQ0gzXQ==

> <s_epik_cmdline>
J2VwaWtfcHl0aG9uJywgJy1waCcsICc3LjAnLCAnLXRuJywgJzgnLCAnLW1hJywgJzIwMCcsICctbWV0YWxfYmluZGluZycsICctaW1hZScsICc8aW5maWxlLm1hZT4nLCAnLW9tYWUnLCAnPG91dGZpbGUubWFlPic=

> <r_epik_Ionization_Penalty>
1.19246

> <r_epik_Ionization_Penalty_Charging>
0.210041

> <r_epik_Ionization_Penalty_Neutral>
0.982415

> <r_epik_State_Penalty>
1.57595

> <r_epik_Charging_Adjusted_Penalty>
1.78599

> <i_epik_Tot_Q>
1

> <i_epik_Tot_abs_Q>
1

> <r_epik_Metal_State_Penalty>
1.46172

> <b_epik_Metal_Only>
0

> <s_lp_Force_Field>
OPLS_2005

> <r_lp_Energy>
32.9743

> <b_lp_Chiralities_Consistent>
1

> <s_lp_Variant>
AV-unprocessed.smi:1047-15

> <Gold.Version>
5.8.1

> <Gold.Id.Protein>
6NUR|6NUR_protein|mol2

> <Gold.PLP.Fitness>
52.3951

> <Gold.PLP.PLP>
-50.3562

> <Gold.PLP.part.hbond>
-2.0000

> <Gold.PLP.part.metal>
0.0000

> <Gold.PLP.part.buried>
-4.8995

> <Gold.PLP.part.nonpolar>
-43.3072

> <Gold.PLP.part.repulsive>
0.0145

> <Gold.PLP.ligand.clash>
0.0000

> <Gold.PLP.ligand.torsion>
0.5055

> <Gold.PLP.Chemscore.Hbond>
1.0000

> <Gold.PLP.Chemscore.CHOScore>
0.0000

> <Gold.PLP.Chemscore.Metal>
0.0000

> <Gold.Chemscore.Hbonds>
donor molecule, donor type, donor heavy atom, donor atom, acceptor molecule, acceptor atom, score
      P1  H  7997  8010       L1    16  1.00

> <Gold.PLP.Chemscore.Internal.Correction>
0.0498

> <Gold.Rescore>
     Score         DG    S(hbond)    S(metal)    S(lipo)     H(rot)  DE(clash)    DE(int)     intcor
     18.24     -19.19       0.96        0.00     147.23       2.62       0.36       0.59       ----

> <Gold.Chemscore.Fitness>
18.2384

> <Gold.Chemscore.DG>
-19.1903

> <Gold.Chemscore.ZeroCoef>
-5.4800

> <Gold.Chemscore.Hbond>
0.9562

> <Gold.Chemscore.Metal>
0.0000

> <Gold.Chemscore.Lipo>
147.2328

> <Gold.Chemscore.Internal_Hbond>
0.0000

> <Gold.Chemscore.DEClash>
0.3590

> <Gold.Chemscore.DEInternal>
0.5930

> <Gold.Chemscore.Rot>
2.6209

> <Gold.Chemscore.Internal.Correction>
   9.000000E+99

> <Gold.Chemscore.Hbonds>
donor molecule, donor type, donor heavy atom, donor atom, acceptor molecule, acceptor atom, score
      P1  H  7997  8010       L1    16  0.89

> <Gold.Chemscore.Hbond.Weighted>
-3.1937

> <Gold.Chemscore.Metal.Weighted>
-0.0000

> <Gold.Chemscore.Lipo.Weighted>
-17.2262

> <Gold.Chemscore.Internal_Hbond.Weighted>
0.0000

> <Gold.Chemscore.DEClash.Weighted>
0.3590

> <Gold.Chemscore.DEInternal.Weighted>
0.5930

> <Gold.Chemscore.Rot.Weighted>
6.7096

> <Gold.Chemscore.Internal.Correction.Weighted>
   9.000000E+99

> <Gold.Protein.RotatedTorsions>
[ 6907 6896 6895 6894 ] final   85.90 input  -60.11 | X-H torsion
[ 7974 7965 7964 7962 ] final  -57.94 input  175.53 | X-H torsion
[ 8008 7997 7996 7995 ] final   -0.61 input   59.86 | X-H torsion
[ 10167 10162 10161 10158 ] final  128.69 input  -65.29 | X-H torsion
[ 10718 10713 10712 10709 ] final   87.68 input   66.30 | X-H torsion
[ 10763 10752 10751 10750 ] final   70.44 input  -60.55 | X-H torsion
[ 11005 11000 10999 10996 ] final  176.82 input  -57.11 | X-H torsion

> <Gold.Protein.ActiveResidues>
 VAL166  LYS551  ARG553  GLY616  TRP617  ASP618  TYR619  PRO620  LYS621  CYS622 
 ASP623  PHE694  ASN695  SER759  ASP760  ASP761  ALA762  ILE779  LEU786  VAL792 
 PHE793  MET794  SER795  GLU796  ALA797  LYS798  CYS799  TRP800  GLU811  SER814 

> <Gold.Protein.RotatedAtoms>
  152.5384  134.2515  159.8900 H   0  0  0  0  0  0  0  0  0  0  0  0  # atno 6907 bound_to 6896
  151.2478  133.4359  159.2617 H   0  0  0  0  0  0  0  0  0  0  0  0  # atno 6908 bound_to 6896
  151.0567  134.9723  159.8295 H   0  0  0  0  0  0  0  0  0  0  0  0  # atno 6909 bound_to 6896
  145.8452  140.8390  143.0014 H   0  0  0  0  0  0  0  0  0  0  0  0  # atno 7974 bound_to 7965
  154.6561  140.2580  155.7160 H   0  0  0  0  0  0  0  0  0  0  0  0  # atno 8008 bound_to 7997
  156.2597  140.2858  156.0936 H   0  0  0  0  0  0  0  0  0  0  0  0  # atno 8009 bound_to 7997
  155.1377  140.0379  157.2781 H   0  0  0  0  0  0  0  0  0  0  0  0  # atno 8010 bound_to 7997
  139.5515  144.6816  151.4311 H   0  0  0  0  0  0  0  0  0  0  0  0  # atno 10167 bound_to 10162
  157.6942  131.0265  150.3160 H   0  0  0  0  0  0  0  0  0  0  0  0  # atno 10718 bound_to 10713
  153.0342  135.5174  154.7441 H   0  0  0  0  0  0  0  0  0  0  0  0  # atno 10763 bound_to 10752
  154.6432  135.2915  155.0081 H   0  0  0  0  0  0  0  0  0  0  0  0  # atno 10764 bound_to 10752
  154.0991  135.6639  153.4918 H   0  0  0  0  0  0  0  0  0  0  0  0  # atno 10765 bound_to 10752
  140.3774  134.6977  157.4430 H   0  0  0  0  0  0  0  0  0  0  0  0  # atno 11005 bound_to 11000
  144.6731  140.0871  143.7467 LP  0  0  0  0  0  0  0  0  0  0  0  0  # atno 17320 bound_to 7965
  145.9420  139.2675  143.1263 LP  0  0  0  0  0  0  0  0  0  0  0  0  # atno 17321 bound_to 7965
  140.6778  143.8150  150.7081 LP  0  0  0  0  0  0  0  0  0  0  0  0  # atno 17342 bound_to 10162
  140.1594  143.4288  152.2077 LP  0  0  0  0  0  0  0  0  0  0  0  0  # atno 17343 bound_to 10162
  156.3654  130.3854  149.7217 LP  0  0  0  0  0  0  0  0  0  0  0  0  # atno 17370 bound_to 10713
  156.4650  130.7969  151.2989 LP  0  0  0  0  0  0  0  0  0  0  0  0  # atno 17371 bound_to 10713
  140.0505  134.6137  155.8868 LP  0  0  0  0  0  0  0  0  0  0  0  0  # atno 17394 bound_to 11000
  141.1935  133.6579  156.5550 LP  0  0  0  0  0  0  0  0  0  0  0  0  # atno 17395 bound_to 11000

$$$$
