AV-unprocessed.smi:943|AV-procd|sdf|4230|dock1
  -GOLD-   22720 2133D 1   1.00000     0.00000
 Structure written by MMmdl.
 43 44  0  0  0  0  0  0  0  0  1 V2000
  150.2748  141.8993  155.7124 C   0  0  0  0  0  0  0  0  0  0  0  0
  151.3842  140.8955  156.0700 C   0  0  1  0  0  0  0  0  0  0  0  0
  151.5676  140.8044  157.6045 C   0  0  0  0  0  0  0  0  0  0  0  0
  152.3326  141.9693  158.2783 C   0  0  0  0  0  0  0  0  0  0  0  0
  152.2522  141.8463  159.8143 C   0  0  0  0  0  0  0  0  0  0  0  0
  153.0102  142.9807  160.5221 C   0  0  0  0  0  0  0  0  0  0  0  0
  152.5009  144.3564  160.0681 C   0  0  0  0  0  0  0  0  0  0  0  0
  152.5812  144.4957  158.5409 C   0  0  0  0  0  0  0  0  0  0  0  0
  151.8246  143.3591  157.8339 C   0  0  0  0  0  0  0  0  0  0  0  0
  151.0783  139.5282  155.4410 C   0  0  0  0  0  0  0  0  0  0  0  0
  150.6931  139.4528  154.2738 O   0  0  0  0  0  0  0  0  0  0  0  0
  151.2450  138.4573  156.2298 N   0  0  0  0  0  0  0  0  0  0  0  0
  150.9866  137.0846  155.8195 C   0  0  0  0  0  0  0  0  0  0  0  0
  149.9572  136.4276  156.7488 C   0  0  0  0  0  0  0  0  0  0  0  0
  149.6104  135.0347  156.3167 C   0  0  0  0  0  0  0  0  0  0  0  0
  149.1482  134.6474  155.0816 C   0  0  0  0  0  0  0  0  0  0  0  0
  148.8733  132.9277  154.9945 S   0  0  0  0  0  0  0  0  0  0  0  0
  149.4061  132.8066  156.6628 C   0  0  0  0  0  0  0  0  0  0  0  0
  149.7536  133.9703  157.2136 N   0  0  0  0  0  0  0  0  0  0  0  0
  150.1351  141.9699  154.6329 H   0  0  0  0  0  0  0  0  0  0  0  0
  150.5219  142.8978  156.0740 H   0  0  0  0  0  0  0  0  0  0  0  0
  149.3185  141.6167  156.1543 H   0  0  0  0  0  0  0  0  0  0  0  0
  152.3075  141.2766  155.6325 H   0  0  0  0  0  0  0  0  0  0  0  0
  150.5837  140.7201  158.0680 H   0  0  0  0  0  0  0  0  0  0  0  0
  152.0791  139.8694  157.8388 H   0  0  0  0  0  0  0  0  0  0  0  0
  153.3865  141.8948  158.0079 H   0  0  0  0  0  0  0  0  0  0  0  0
  151.2084  141.8559  160.1310 H   0  0  0  0  0  0  0  0  0  0  0  0
  152.6604  140.8866  160.1331 H   0  0  0  0  0  0  0  0  0  0  0  0
  152.9010  142.8823  161.6026 H   0  0  0  0  0  0  0  0  0  0  0  0
  154.0767  142.8964  160.3100 H   0  0  0  0  0  0  0  0  0  0  0  0
  151.4688  144.4911  160.3943 H   0  0  0  0  0  0  0  0  0  0  0  0
  153.0828  145.1451  160.5457 H   0  0  0  0  0  0  0  0  0  0  0  0
  152.1752  145.4600  158.2341 H   0  0  0  0  0  0  0  0  0  0  0  0
  153.6262  144.4876  158.2283 H   0  0  0  0  0  0  0  0  0  0  0  0
  151.9414  143.4816  156.7574 H   0  0  0  0  0  0  0  0  0  0  0  0
  150.7572  143.4462  158.0417 H   0  0  0  0  0  0  0  0  0  0  0  0
  151.5652  138.6042  157.1760 H   0  0  0  0  0  0  0  0  0  0  0  0
  150.6195  137.0779  154.7918 H   0  0  0  0  0  0  0  0  0  0  0  0
  151.9211  136.5212  155.8340 H   0  0  0  0  0  0  0  0  0  0  0  0
  150.3449  136.4124  157.7684 H   0  0  0  0  0  0  0  0  0  0  0  0
  149.0553  137.0404  156.7814 H   0  0  0  0  0  0  0  0  0  0  0  0
  148.9553  135.2682  154.2191 H   0  0  0  0  0  0  0  0  0  0  0  0
  149.4625  131.8895  157.2304 H   0  0  0  0  0  0  0  0  0  0  0  0
  1  2  1  0  0  0  0
  1 20  1  0  0  0  0
  1 21  1  0  0  0  0
  1 22  1  0  0  0  0
  2  3  1  0  0  0  0
  2 10  1  0  0  0  0
  2 23  1  0  0  0  0
  3  4  1  0  0  0  0
  3 24  1  0  0  0  0
  3 25  1  0  0  0  0
  4  9  1  0  0  0  0
  4  5  1  0  0  0  0
  4 26  1  0  0  0  0
  5  6  1  0  0  0  0
  5 27  1  0  0  0  0
  5 28  1  0  0  0  0
  6  7  1  0  0  0  0
  6 29  1  0  0  0  0
  6 30  1  0  0  0  0
  7  8  1  0  0  0  0
  7 31  1  0  0  0  0
  7 32  1  0  0  0  0
  8  9  1  0  0  0  0
  8 33  1  0  0  0  0
  8 34  1  0  0  0  0
  9 35  1  0  0  0  0
  9 36  1  0  0  0  0
 10 11  2  0  0  0  0
 10 12  1  0  0  0  0
 12 13  1  0  0  0  0
 12 37  1  0  0  0  0
 13 14  1  0  0  0  0
 13 38  1  0  0  0  0
 13 39  1  0  0  0  0
 14 15  1  0  0  0  0
 14 40  1  0  0  0  0
 14 41  1  0  0  0  0
 15 19  1  0  0  0  0
 15 16  2  0  0  0  0
 16 17  1  0  0  0  0
 16 42  1  0  0  0  0
 17 18  1  0  0  0  0
 18 19  2  0  0  0  0
 18 43  1  0  0  0  0
M  END
> <s_m_source_file>
AV-unprocessed.smi

> <i_m_source_file_index>
943

> <i_lp_mmshare_version>
43012

> <i_f3d_flags>
0

> <s_epik_input>
W0NIMl0xW0NIMl1bQ0gyXVtDSDJdW0NIMl1bQ0hdMVtDSDJdW0NAQEhdKFtDSDNdKUMoPU8pW05IXVtDSDJdW0NIMl1jMltjSF1zW2NIXW4y

> <s_epik_cmdline>
J2VwaWtfcHl0aG9uJywgJy1waCcsICc3LjAnLCAnLXRuJywgJzgnLCAnLW1hJywgJzIwMCcsICctbWV0YWxfYmluZGluZycsICctaW1hZScsICc8aW5maWxlLm1hZT4nLCAnLW9tYWUnLCAnPG91dGZpbGUubWFlPic=

> <r_lp_tautomer_probability>
1

> <r_epik_Ionization_Penalty>
0.000194757

> <r_epik_Ionization_Penalty_Charging>
0

> <r_epik_Ionization_Penalty_Neutral>
0.000194757

> <r_epik_State_Penalty>
-0

> <r_epik_Charging_Adjusted_Penalty>
0

> <i_epik_Tot_Q>
0

> <i_epik_Tot_abs_Q>
0

> <r_epik_Metal_State_Penalty>
-0

> <b_epik_Metal_Only>
0

> <s_lp_Force_Field>
OPLS_2005

> <r_lp_Energy>
6.44142

> <b_lp_Chiralities_Consistent>
1

> <s_lp_Variant>
AV-unprocessed.smi:943-2

> <Gold.Version>
5.8.1

> <Gold.Id.Protein>
6NUR|6NUR_protein|mol2

> <Gold.PLP.Fitness>
46.8562

> <Gold.PLP.PLP>
-40.8291

> <Gold.PLP.part.hbond>
-1.9306

> <Gold.PLP.part.metal>
0.0000

> <Gold.PLP.part.buried>
-4.5660

> <Gold.PLP.part.nonpolar>
-34.9190

> <Gold.PLP.part.repulsive>
0.2406

> <Gold.PLP.ligand.clash>
0.3948

> <Gold.PLP.ligand.torsion>
0.5611

> <Gold.PLP.Chemscore.Hbond>
1.4204

> <Gold.PLP.Chemscore.CHOScore>
1.0000

> <Gold.PLP.Chemscore.Metal>
0.0000

> <Gold.Chemscore.Hbonds>
donor molecule, donor type, donor heavy atom, donor atom, acceptor molecule, acceptor atom, score
      P1  H  6896  6908       L1    19  0.28
      P1  H  7989  7998       L1    11  1.00
      L1  C    16    42       P1  7948  1.00

> <Gold.PLP.Chemscore.Internal.Correction>
0.2830

> <Gold.Rescore>
     Score         DG    S(hbond)    S(metal)    S(lipo)     H(rot)  DE(clash)    DE(int)     intcor
     19.97     -20.76       1.75        0.00     115.02       1.58       0.04       0.75       ----

> <Gold.Chemscore.Fitness>
19.9671

> <Gold.Chemscore.DG>
-20.7550

> <Gold.Chemscore.ZeroCoef>
-5.4800

> <Gold.Chemscore.Hbond>
1.7542

> <Gold.Chemscore.Metal>
0.0000

> <Gold.Chemscore.Lipo>
115.0239

> <Gold.Chemscore.Internal_Hbond>
0.0000

> <Gold.Chemscore.DEClash>
0.0408

> <Gold.Chemscore.DEInternal>
0.7471

> <Gold.Chemscore.Rot>
1.5789

> <Gold.Chemscore.Internal.Correction>
   9.000000E+99

> <Gold.Chemscore.Hbonds>
donor molecule, donor type, donor heavy atom, donor atom, acceptor molecule, acceptor atom, score
      P1  H  6896  6908       L1    19  0.23
      P1  H  7989  7998       L1    11  0.35

> <Gold.Chemscore.Hbond.Weighted>
-5.8591

> <Gold.Chemscore.Metal.Weighted>
-0.0000

> <Gold.Chemscore.Lipo.Weighted>
-13.4578

> <Gold.Chemscore.Internal_Hbond.Weighted>
0.0000

> <Gold.Chemscore.DEClash.Weighted>
0.0408

> <Gold.Chemscore.DEInternal.Weighted>
0.7471

> <Gold.Chemscore.Rot.Weighted>
4.0419

> <Gold.Chemscore.Internal.Correction.Weighted>
   9.000000E+99

> <Gold.Protein.RotatedTorsions>
[ 6907 6896 6895 6894 ] final  112.74 input  -60.11 | X-H torsion
[ 7974 7965 7964 7962 ] final  152.10 input  175.53 | X-H torsion
[ 8008 7997 7996 7995 ] final -126.32 input   59.86 | X-H torsion
[ 10167 10162 10161 10158 ] final   -9.22 input  -65.29 | X-H torsion
[ 10718 10713 10712 10709 ] final   17.04 input   66.30 | X-H torsion
[ 10763 10752 10751 10750 ] final   70.74 input  -60.55 | X-H torsion
[ 11005 11000 10999 10996 ] final   30.65 input  -57.11 | X-H torsion

> <Gold.Protein.ActiveResidues>
 VAL166  LYS551  ARG553  GLY616  TRP617  ASP618  TYR619  PRO620  LYS621  CYS622 
 ASP623  PHE694  ASN695  SER759  ASP760  ASP761  ALA762  ILE779  LEU786  VAL792 
 PHE793  MET794  SER795  GLU796  ALA797  LYS798  CYS799  TRP800  GLU811  SER814 

> <Gold.Protein.RotatedAtoms>
  152.4900  133.8473  159.7183 H   0  0  0  0  0  0  0  0  0  0  0  0  # atno 6907 bound_to 6896
  150.9020  133.7097  159.2883 H   0  0  0  0  0  0  0  0  0  0  0  0  # atno 6908 bound_to 6896
  151.4535  135.1036  159.9757 H   0  0  0  0  0  0  0  0  0  0  0  0  # atno 6909 bound_to 6896
  144.8246  139.6624  143.6085 H   0  0  0  0  0  0  0  0  0  0  0  0  # atno 7974 bound_to 7965
  155.2278  140.0424  157.2958 H   0  0  0  0  0  0  0  0  0  0  0  0  # atno 8008 bound_to 7997
  154.5908  140.2426  155.7894 H   0  0  0  0  0  0  0  0  0  0  0  0  # atno 8009 bound_to 7997
  156.2258  140.2955  156.0071 H   0  0  0  0  0  0  0  0  0  0  0  0  # atno 8010 bound_to 7997
  140.7081  143.5882  150.8921 H   0  0  0  0  0  0  0  0  0  0  0  0  # atno 10167 bound_to 10162
  157.0765  130.6370  149.5817 H   0  0  0  0  0  0  0  0  0  0  0  0  # atno 10718 bound_to 10713
  153.0358  135.5163  154.7487 H   0  0  0  0  0  0  0  0  0  0  0  0  # atno 10763 bound_to 10752
  154.6464  135.2919  155.0043 H   0  0  0  0  0  0  0  0  0  0  0  0  # atno 10764 bound_to 10752
  154.0943  135.6645  153.4910 H   0  0  0  0  0  0  0  0  0  0  0  0  # atno 10765 bound_to 10752
  140.2921  134.2852  155.7773 H   0  0  0  0  0  0  0  0  0  0  0  0  # atno 11005 bound_to 11000
  146.2551  139.6285  142.9400 LP  0  0  0  0  0  0  0  0  0  0  0  0  # atno 17320 bound_to 7965
  145.5029  141.0437  143.2531 LP  0  0  0  0  0  0  0  0  0  0  0  0  # atno 17321 bound_to 7965
  139.9607  143.6167  152.3003 LP  0  0  0  0  0  0  0  0  0  0  0  0  # atno 17342 bound_to 10162
  139.6718  144.7660  151.1768 LP  0  0  0  0  0  0  0  0  0  0  0  0  # atno 17343 bound_to 10162
  155.9935  130.4997  150.7385 LP  0  0  0  0  0  0  0  0  0  0  0  0  # atno 17370 bound_to 10713
  157.4835  131.0904  151.0509 LP  0  0  0  0  0  0  0  0  0  0  0  0  # atno 17371 bound_to 10713
  141.2144  133.7592  156.9641 LP  0  0  0  0  0  0  0  0  0  0  0  0  # atno 17394 bound_to 11000
  140.1185  134.9432  157.2170 LP  0  0  0  0  0  0  0  0  0  0  0  0  # atno 17395 bound_to 11000

$$$$
