AV-unprocessed.smi:525|AV-procd|sdf|2809|dock10
  -GOLD-   2262023283D 1   1.00000     0.00000
 Structure written by MMmdl.
 44 46  0  0  0  0  0  0  0  0  2 V2000
  140.3737  137.9427  153.6150 C   0  0  0  0  0  0  0  0  0  0  0  0
  141.1015  136.8161  154.0721 O   0  0  0  0  0  0  0  0  0  0  0  0
  142.3970  136.7401  153.5036 C   0  0  0  0  0  0  0  0  0  0  0  0
  142.9319  135.3145  153.6852 C   0  0  0  0  0  0  0  0  0  0  0  0
  144.2302  135.1303  153.0244 N   0  0  0  0  0  0  0  0  0  0  0  0
  145.3692  135.8745  153.0903 C   0  0  0  0  0  0  0  0  0  0  0  0
  145.5955  137.3462  154.0400 S   0  0  0  0  0  0  0  0  0  0  0  0
  147.3744  137.7421  153.9726 C   0  0  2  0  0  0  0  0  0  0  0  0
  148.1982  137.0546  155.0695 C   0  0  0  0  0  0  0  0  0  0  0  0
  149.1285  136.1701  154.6969 N   0  0  0  0  0  0  0  0  0  0  0  0
  147.9874  137.3161  156.2518 O   0  0  0  0  0  0  0  0  0  0  0  0
  147.6002  139.2517  154.0040 C   0  0  0  0  0  0  0  0  0  0  0  0
  148.9028  139.8006  153.9563 C   0  0  0  0  0  0  0  0  0  0  0  0
  149.0896  141.1955  154.0000 C   0  0  0  0  0  0  0  0  0  0  0  0
  147.9771  142.0533  154.0899 C   0  0  0  0  0  0  0  0  0  0  0  0
  146.6771  141.5150  154.1335 C   0  0  0  0  0  0  0  0  0  0  0  0
  146.4898  140.1201  154.0903 C   0  0  0  0  0  0  0  0  0  0  0  0
  146.2943  135.2823  152.2848 N   0  3  0  0  0  0  0  0  0  0  0  0
  145.7379  134.1511  151.6870 C   0  0  0  0  0  0  0  0  0  0  0  0
  146.2795  133.2342  150.7916 C   0  0  0  0  0  0  0  0  0  0  0  0
  145.4335  132.1880  150.3685 C   0  0  0  0  0  0  0  0  0  0  0  0
  144.1063  132.0827  150.8333 C   0  0  0  0  0  0  0  0  0  0  0  0
  143.5680  133.0179  151.7419 C   0  0  0  0  0  0  0  0  0  0  0  0
  144.4113  134.0483  152.1561 C   0  0  0  0  0  0  0  0  0  0  0  0
  139.3897  137.9580  154.0833 H   0  0  0  0  0  0  0  0  0  0  0  0
  140.2313  137.9074  152.5341 H   0  0  0  0  0  0  0  0  0  0  0  0
  140.8829  138.8726  153.8713 H   0  0  0  0  0  0  0  0  0  0  0  0
  142.3552  136.9962  152.4437 H   0  0  0  0  0  0  0  0  0  0  0  0
  143.0619  137.4552  153.9912 H   0  0  0  0  0  0  0  0  0  0  0  0
  143.0603  135.0922  154.7449 H   0  0  0  0  0  0  0  0  0  0  0  0
  142.2285  134.5769  153.2977 H   0  0  0  0  0  0  0  0  0  0  0  0
  147.7324  137.3576  153.0163 H   0  0  0  0  0  0  0  0  0  0  0  0
  149.6862  135.6994  155.3947 H   0  0  0  0  0  0  0  0  0  0  0  0
  149.2692  135.9744  153.7162 H   0  0  0  0  0  0  0  0  0  0  0  0
  149.7661  139.1552  153.8863 H   0  0  0  0  0  0  0  0  0  0  0  0
  150.0873  141.6078  153.9638 H   0  0  0  0  0  0  0  0  0  0  0  0
  148.1204  143.1233  154.1228 H   0  0  0  0  0  0  0  0  0  0  0  0
  145.8230  142.1730  154.1988 H   0  0  0  0  0  0  0  0  0  0  0  0
  145.4872  139.7194  154.1230 H   0  0  0  0  0  0  0  0  0  0  0  0
  147.2954  133.3141  150.4328 H   0  0  0  0  0  0  0  0  0  0  0  0
  145.8095  131.4520  149.6725 H   0  0  0  0  0  0  0  0  0  0  0  0
  143.4878  131.2681  150.4853 H   0  0  0  0  0  0  0  0  0  0  0  0
  142.5494  132.9300  152.0901 H   0  0  0  0  0  0  0  0  0  0  0  0
  147.2325  135.6351  152.1468 H   0  0  0  0  0  0  0  0  0  0  0  0
  1  2  1  0  0  0  0
  1 25  1  0  0  0  0
  1 26  1  0  0  0  0
  1 27  1  0  0  0  0
  2  3  1  0  0  0  0
  3  4  1  0  0  0  0
  3 28  1  0  0  0  0
  3 29  1  0  0  0  0
  4  5  1  0  0  0  0
  4 30  1  0  0  0  0
  4 31  1  0  0  0  0
  5 24  1  0  0  0  0
  5  6  1  0  0  0  0
  6  7  1  0  0  0  0
  6 18  2  0  0  0  0
  7  8  1  0  0  0  0
  8  9  1  0  0  0  0
  8 12  1  0  0  0  0
  8 32  1  0  0  0  0
  9 10  1  0  0  0  0
  9 11  2  0  0  0  0
 10 33  1  0  0  0  0
 10 34  1  0  0  0  0
 12 17  1  0  0  0  0
 12 13  2  0  0  0  0
 13 14  1  0  0  0  0
 13 35  1  0  0  0  0
 14 15  2  0  0  0  0
 14 36  1  0  0  0  0
 15 16  1  0  0  0  0
 15 37  1  0  0  0  0
 16 17  2  0  0  0  0
 16 38  1  0  0  0  0
 17 39  1  0  0  0  0
 18 19  1  0  0  0  0
 18 44  1  0  0  0  0
 19 24  2  0  0  0  0
 19 20  1  0  0  0  0
 20 21  2  0  0  0  0
 20 40  1  0  0  0  0
 21 22  1  0  0  0  0
 21 41  1  0  0  0  0
 22 23  2  0  0  0  0
 22 42  1  0  0  0  0
 23 24  1  0  0  0  0
 23 43  1  0  0  0  0
M  CHG  1  18   1
M  END
> <s_m_source_file>
AV-unprocessed.smi

> <i_m_source_file_index>
525

> <i_lp_mmshare_version>
43012

> <i_f3d_flags>
0

> <s_epik_input>
W2NIXTFbY0hdW2NIXVtjSF1jKGMxMiluKFtDSDJdW0NIMl1PW0NIM10pYyhuMilTW0NASF0oQyg9TylbTkgyXSljM1tjSF1bY0hdW2NIXVtjSF1bY0hdMw==

> <s_epik_cmdline>
J2VwaWtfcHl0aG9uJywgJy1waCcsICc3LjAnLCAnLXRuJywgJzgnLCAnLW1hJywgJzIwMCcsICctbWV0YWxfYmluZGluZycsICctaW1hZScsICc8aW5maWxlLm1hZT4nLCAnLW9tYWUnLCAnPG91dGZpbGUubWFlPic=

> <r_epik_Ionization_Penalty>
1.29485

> <r_epik_Ionization_Penalty_Charging>
1.29485

> <r_epik_Ionization_Penalty_Neutral>
1.02965e-06

> <r_epik_State_Penalty>
1.36828

> <r_epik_Charging_Adjusted_Penalty>
2.66313

> <i_epik_Tot_Q>
1

> <i_epik_Tot_abs_Q>
1

> <r_epik_Metal_State_Penalty>
1.43316

> <b_epik_Metal_Only>
0

> <s_lp_Force_Field>
OPLS_2005

> <r_lp_Energy>
14.4741

> <b_lp_Chiralities_Consistent>
1

> <s_lp_Variant>
AV-unprocessed.smi:525-3

> <Gold.Version>
5.8.1

> <Gold.Id.Protein>
6NUR|6NUR_protein|mol2

> <Gold.PLP.Fitness>
46.9368

> <Gold.PLP.PLP>
-39.1247

> <Gold.PLP.part.hbond>
-2.0000

> <Gold.PLP.part.metal>
0.0000

> <Gold.PLP.part.buried>
-3.1775

> <Gold.PLP.part.nonpolar>
-33.4546

> <Gold.PLP.part.repulsive>
0.1517

> <Gold.PLP.ligand.clash>
0.0000

> <Gold.PLP.ligand.torsion>
0.6936

> <Gold.PLP.Chemscore.Hbond>
3.0000

> <Gold.PLP.Chemscore.CHOScore>
0.0000

> <Gold.PLP.Chemscore.Metal>
0.0000

> <Gold.Chemscore.Hbonds>
donor molecule, donor type, donor heavy atom, donor atom, acceptor molecule, acceptor atom, score
      L1  H    10    34       P1  7948  1.00
      L1  H    18    44       P1  7948  2.00

> <Gold.PLP.Chemscore.Internal.Correction>
0.1993

> <Gold.Rescore>
     Score         DG    S(hbond)    S(metal)    S(lipo)     H(rot)  DE(clash)    DE(int)     intcor
     16.56     -17.54       1.92        0.00     103.16       2.51       0.38       0.61       ----

> <Gold.Chemscore.Fitness>
16.5558

> <Gold.Chemscore.DG>
-17.5387

> <Gold.Chemscore.ZeroCoef>
-5.4800

> <Gold.Chemscore.Hbond>
1.9238

> <Gold.Chemscore.Metal>
0.0000

> <Gold.Chemscore.Lipo>
103.1641

> <Gold.Chemscore.Internal_Hbond>
0.0000

> <Gold.Chemscore.DEClash>
0.3760

> <Gold.Chemscore.DEInternal>
0.6069

> <Gold.Chemscore.Rot>
2.5145

> <Gold.Chemscore.Internal.Correction>
   9.000000E+99

> <Gold.Chemscore.Hbonds>
donor molecule, donor type, donor heavy atom, donor atom, acceptor molecule, acceptor atom, score
      L1  H    10    34       P1  7948  0.77
      L1  H    18    44       P1  7948  1.00

> <Gold.Chemscore.Hbond.Weighted>
-6.4256

> <Gold.Chemscore.Metal.Weighted>
-0.0000

> <Gold.Chemscore.Lipo.Weighted>
-12.0702

> <Gold.Chemscore.Internal_Hbond.Weighted>
0.0000

> <Gold.Chemscore.DEClash.Weighted>
0.3760

> <Gold.Chemscore.DEInternal.Weighted>
0.6069

> <Gold.Chemscore.Rot.Weighted>
6.4372

> <Gold.Chemscore.Internal.Correction.Weighted>
   9.000000E+99

> <Gold.Protein.RotatedTorsions>
[ 6907 6896 6895 6894 ] final  176.02 input  -60.11 | X-H torsion
[ 7974 7965 7964 7962 ] final   81.74 input  175.53 | X-H torsion
[ 8008 7997 7996 7995 ] final -169.02 input   59.86 | X-H torsion
[ 10167 10162 10161 10158 ] final  -26.05 input  -65.29 | X-H torsion
[ 10718 10713 10712 10709 ] final   54.68 input   66.30 | X-H torsion
[ 10763 10752 10751 10750 ] final   36.53 input  -60.55 | X-H torsion
[ 11005 11000 10999 10996 ] final -120.59 input  -57.11 | X-H torsion

> <Gold.Protein.ActiveResidues>
 VAL166  LYS551  ARG553  GLY616  TRP617  ASP618  TYR619  PRO620  LYS621  CYS622 
 ASP623  PHE694  ASN695  SER759  ASP760  ASP761  ALA762  ILE779  LEU786  VAL792 
 PHE793  MET794  SER795  GLU796  ALA797  LYS798  CYS799  TRP800  GLU811  SER814 

> <Gold.Protein.RotatedAtoms>
  151.7269  133.3316  159.3329 H   0  0  0  0  0  0  0  0  0  0  0  0  # atno 6907 bound_to 6896
  150.7629  134.6398  159.6240 H   0  0  0  0  0  0  0  0  0  0  0  0  # atno 6908 bound_to 6896
  152.3617  134.6865  160.0257 H   0  0  0  0  0  0  0  0  0  0  0  0  # atno 6909 bound_to 6896
  145.6342  139.2411  143.2067 H   0  0  0  0  0  0  0  0  0  0  0  0  # atno 7974 bound_to 7965
  155.8993  140.1038  157.1362 H   0  0  0  0  0  0  0  0  0  0  0  0  # atno 8008 bound_to 7997
  154.4024  140.1296  156.4479 H   0  0  0  0  0  0  0  0  0  0  0  0  # atno 8009 bound_to 7997
  155.7442  140.3466  155.5121 H   0  0  0  0  0  0  0  0  0  0  0  0  # atno 8010 bound_to 7997
  140.7284  143.4212  151.0949 H   0  0  0  0  0  0  0  0  0  0  0  0  # atno 10167 bound_to 10162
  157.5278  130.8609  149.8646 H   0  0  0  0  0  0  0  0  0  0  0  0  # atno 10718 bound_to 10713
  153.0073  135.6303  154.2000 H   0  0  0  0  0  0  0  0  0  0  0  0  # atno 10763 bound_to 10752
  154.1743  135.2816  155.3073 H   0  0  0  0  0  0  0  0  0  0  0  0  # atno 10764 bound_to 10752
  154.5884  135.5625  153.7314 H   0  0  0  0  0  0  0  0  0  0  0  0  # atno 10765 bound_to 10752
  141.0132  134.0233  157.3385 H   0  0  0  0  0  0  0  0  0  0  0  0  # atno 11005 bound_to 11000
  146.1332  140.7157  142.9402 LP  0  0  0  0  0  0  0  0  0  0  0  0  # atno 17320 bound_to 7965
  144.7182  140.4282  143.7028 LP  0  0  0  0  0  0  0  0  0  0  0  0  # atno 17321 bound_to 7965
  139.7857  143.8290  152.3144 LP  0  0  0  0  0  0  0  0  0  0  0  0  # atno 17342 bound_to 10162
  139.8257  144.7276  150.9515 LP  0  0  0  0  0  0  0  0  0  0  0  0  # atno 17343 bound_to 10162
  156.0400  130.3741  150.1460 LP  0  0  0  0  0  0  0  0  0  0  0  0  # atno 17370 bound_to 10713
  156.9646  130.9815  151.3472 LP  0  0  0  0  0  0  0  0  0  0  0  0  # atno 17371 bound_to 10713
  139.9102  135.0188  156.7659 LP  0  0  0  0  0  0  0  0  0  0  0  0  # atno 17394 bound_to 11000
  140.6698  133.9570  155.7850 LP  0  0  0  0  0  0  0  0  0  0  0  0  # atno 17395 bound_to 11000

$$$$
