AV-unprocessed.smi:2438|AV-procd|sdf|9598|dock7
  -GOLD-   2272013233D 1   1.00000     0.00000
 Structure written by MMmdl.
 43 44  0  0  0  0  0  0  0  0  1 V2000
  142.9749  135.9903  154.9269 C   0  0  0  0  0  0  0  0  0  0  0  0
  143.1023  136.9017  153.7979 N   0  0  0  0  0  0  0  0  0  0  0  0
  141.9279  137.7081  153.4888 C   0  0  0  0  0  0  0  0  0  0  0  0
  143.7784  136.3354  152.6985 C   0  0  0  0  0  0  0  0  0  0  0  0
  143.1680  135.3289  152.0269 N   0  0  0  0  0  0  0  0  0  0  0  0
  143.8231  134.7850  151.0002 C   0  0  0  0  0  0  0  0  0  0  0  0
  145.0286  135.1324  150.5503 N   0  0  0  0  0  0  0  0  0  0  0  0
  145.6546  136.1338  151.2024 C   0  0  0  0  0  0  0  0  0  0  0  0
  145.0700  136.7844  152.3170 C   0  0  0  0  0  0  0  0  0  0  0  0
  145.6833  137.8723  152.9978 N   0  0  0  0  0  0  0  0  0  0  0  0
  146.6285  138.7060  152.5356 C   0  0  0  0  0  0  0  0  0  0  0  0
  147.0820  138.7017  151.3914 O   0  0  0  0  0  0  0  0  0  0  0  0
  147.0461  139.5410  153.4969 N   0  0  0  0  0  0  0  0  0  0  0  0
  148.1125  140.5314  153.3573 C   0  0  1  0  0  0  0  0  0  0  0  0
  147.8694  141.7142  154.3139 C   0  0  0  0  0  0  0  0  0  0  0  0
  148.0867  141.3231  155.7859 C   0  0  0  0  0  0  0  0  0  0  0  0
  149.4771  140.7050  156.0036 C   0  0  0  0  0  0  0  0  0  0  0  0
  149.7137  139.4921  155.0791 C   0  0  2  0  0  0  0  0  0  0  0  0
  151.0972  138.8499  155.3062 C   0  0  0  0  0  0  0  0  0  0  0  0
  151.1680  138.2894  156.5138 F   0  0  0  0  0  0  0  0  0  0  0  0
  151.3226  137.9149  154.3830 F   0  0  0  0  0  0  0  0  0  0  0  0
  152.0525  139.7739  155.2027 F   0  0  0  0  0  0  0  0  0  0  0  0
  149.5024  139.9039  153.6047 C   0  0  0  0  0  0  0  0  0  0  0  0
  143.9422  135.6020  155.2453 H   0  0  0  0  0  0  0  0  0  0  0  0
  142.3383  135.1449  154.6634 H   0  0  0  0  0  0  0  0  0  0  0  0
  142.5251  136.5013  155.7787 H   0  0  0  0  0  0  0  0  0  0  0  0
  142.1285  138.3866  152.6587 H   0  0  0  0  0  0  0  0  0  0  0  0
  141.6472  138.3111  154.3524 H   0  0  0  0  0  0  0  0  0  0  0  0
  141.0794  137.0761  153.2245 H   0  0  0  0  0  0  0  0  0  0  0  0
  143.3230  133.9838  150.4765 H   0  0  0  0  0  0  0  0  0  0  0  0
  146.6144  136.4216  150.8019 H   0  0  0  0  0  0  0  0  0  0  0  0
  145.4662  137.9436  153.9814 H   0  0  0  0  0  0  0  0  0  0  0  0
  146.6120  139.4703  154.4055 H   0  0  0  0  0  0  0  0  0  0  0  0
  148.0803  140.9157  152.3361 H   0  0  0  0  0  0  0  0  0  0  0  0
  148.5526  142.5252  154.0583 H   0  0  0  0  0  0  0  0  0  0  0  0
  146.8632  142.1121  154.1767 H   0  0  0  0  0  0  0  0  0  0  0  0
  147.9689  142.2008  156.4221 H   0  0  0  0  0  0  0  0  0  0  0  0
  147.3187  140.6142  156.0976 H   0  0  0  0  0  0  0  0  0  0  0  0
  150.2417  141.4617  155.8236 H   0  0  0  0  0  0  0  0  0  0  0  0
  149.5797  140.4076  157.0475 H   0  0  0  0  0  0  0  0  0  0  0  0
  148.9671  138.7360  155.3270 H   0  0  0  0  0  0  0  0  0  0  0  0
  149.6470  139.0446  152.9491 H   0  0  0  0  0  0  0  0  0  0  0  0
  150.2694  140.6253  153.3205 H   0  0  0  0  0  0  0  0  0  0  0  0
  1  2  1  0  0  0  0
  1 24  1  0  0  0  0
  1 25  1  0  0  0  0
  1 26  1  0  0  0  0
  2  3  1  0  0  0  0
  2  4  1  0  0  0  0
  3 27  1  0  0  0  0
  3 28  1  0  0  0  0
  3 29  1  0  0  0  0
  4  9  1  0  0  0  0
  4  5  2  0  0  0  0
  5  6  1  0  0  0  0
  6  7  2  0  0  0  0
  6 30  1  0  0  0  0
  7  8  1  0  0  0  0
  8  9  2  0  0  0  0
  8 31  1  0  0  0  0
  9 10  1  0  0  0  0
 10 11  1  0  0  0  0
 10 32  1  0  0  0  0
 11 12  2  0  0  0  0
 11 13  1  0  0  0  0
 13 14  1  0  0  0  0
 13 33  1  0  0  0  0
 14 23  1  0  0  0  0
 14 15  1  0  0  0  0
 14 34  1  0  0  0  0
 15 16  1  0  0  0  0
 15 35  1  0  0  0  0
 15 36  1  0  0  0  0
 16 17  1  0  0  0  0
 16 37  1  0  0  0  0
 16 38  1  0  0  0  0
 17 18  1  0  0  0  0
 17 39  1  0  0  0  0
 17 40  1  0  0  0  0
 18 19  1  0  0  0  0
 18 23  1  0  0  0  0
 18 41  1  0  0  0  0
 19 20  1  0  0  0  0
 19 21  1  0  0  0  0
 19 22  1  0  0  0  0
 23 42  1  0  0  0  0
 23 43  1  0  0  0  0
M  END
> <s_m_source_file>
AV-unprocessed.smi

> <i_m_source_file_index>
2438

> <i_lp_mmshare_version>
43012

> <i_f3d_flags>
0

> <s_epik_input>
W0NIM11OKFtDSDNdKWMxbltjSF1uW2NIXWMxW05IXUMoPU8pW05IXVtDQEBIXTJbQ0gyXVtDSDJdW0NIMl1bQ0BASF0oQyhGKShGKUYpW0NIMl0y

> <s_epik_cmdline>
J2VwaWtfcHl0aG9uJywgJy1waCcsICc3LjAnLCAnLXRuJywgJzgnLCAnLW1hJywgJzIwMCcsICctbWV0YWxfYmluZGluZycsICctaW1hZScsICc8aW5maWxlLm1hZT4nLCAnLW9tYWUnLCAnPG91dGZpbGUubWFlPic=

> <r_lp_tautomer_probability>
1

> <r_epik_Ionization_Penalty>
0.01759

> <r_epik_Ionization_Penalty_Charging>
0

> <r_epik_Ionization_Penalty_Neutral>
0.01759

> <r_epik_State_Penalty>
0.0133536

> <r_epik_Charging_Adjusted_Penalty>
0.0133536

> <i_epik_Tot_Q>
0

> <i_epik_Tot_abs_Q>
0

> <r_epik_Metal_State_Penalty>
0.0129828

> <b_epik_Metal_Only>
0

> <s_lp_Force_Field>
OPLS_2005

> <r_lp_Energy>
8.79066

> <b_lp_Chiralities_Consistent>
1

> <s_lp_Variant>
AV-unprocessed.smi:2438-4

> <Gold.Version>
5.8.1

> <Gold.Id.Protein>
6NUR|6NUR_protein|mol2

> <Gold.PLP.Fitness>
36.0783

> <Gold.PLP.PLP>
-29.0125

> <Gold.PLP.part.hbond>
-1.1190

> <Gold.PLP.part.metal>
0.0000

> <Gold.PLP.part.buried>
3.9333

> <Gold.PLP.part.nonpolar>
-35.7255

> <Gold.PLP.part.repulsive>
3.1326

> <Gold.PLP.ligand.clash>
0.0000

> <Gold.PLP.ligand.torsion>
0.7655

> <Gold.PLP.Chemscore.Hbond>
1.0000

> <Gold.PLP.Chemscore.CHOScore>
1.7499

> <Gold.PLP.Chemscore.Metal>
0.0000

> <Gold.Chemscore.Hbonds>
donor molecule, donor type, donor heavy atom, donor atom, acceptor molecule, acceptor atom, score
      P1  H  7954  7966       L1    12  1.00
      L1  C     6    30       P1 10186  0.76
      L1  C     8    31       P1  7948  1.00

> <Gold.PLP.Chemscore.Internal.Correction>
0.3471

> <Gold.Rescore>
     Score         DG    S(hbond)    S(metal)    S(lipo)     H(rot)  DE(clash)    DE(int)     intcor
      6.09     -12.38       0.93        0.00      60.74       1.30       4.14       2.15       ----

> <Gold.Chemscore.Fitness>
6.0865

> <Gold.Chemscore.DG>
-12.3804

> <Gold.Chemscore.ZeroCoef>
-5.4800

> <Gold.Chemscore.Hbond>
0.9336

> <Gold.Chemscore.Metal>
0.0000

> <Gold.Chemscore.Lipo>
60.7416

> <Gold.Chemscore.Internal_Hbond>
0.0000

> <Gold.Chemscore.DEClash>
4.1431

> <Gold.Chemscore.DEInternal>
2.1508

> <Gold.Chemscore.Rot>
1.2987

> <Gold.Chemscore.Internal.Correction>
   9.000000E+99

> <Gold.Chemscore.Hbonds>
donor molecule, donor type, donor heavy atom, donor atom, acceptor molecule, acceptor atom, score
      P1  H  7954  7966       L1    12  0.90

> <Gold.Chemscore.Hbond.Weighted>
-3.1182

> <Gold.Chemscore.Metal.Weighted>
-0.0000

> <Gold.Chemscore.Lipo.Weighted>
-7.1068

> <Gold.Chemscore.Internal_Hbond.Weighted>
0.0000

> <Gold.Chemscore.DEClash.Weighted>
4.1431

> <Gold.Chemscore.DEInternal.Weighted>
2.1508

> <Gold.Chemscore.Rot.Weighted>
3.3246

> <Gold.Chemscore.Internal.Correction.Weighted>
   9.000000E+99

> <Gold.Protein.RotatedTorsions>
[ 6907 6896 6895 6894 ] final -123.42 input  -60.11 | X-H torsion
[ 7974 7965 7964 7962 ] final  -19.98 input  175.53 | X-H torsion
[ 8008 7997 7996 7995 ] final  125.10 input   59.86 | X-H torsion
[ 10167 10162 10161 10158 ] final  159.62 input  -65.29 | X-H torsion
[ 10718 10713 10712 10709 ] final   32.76 input   66.30 | X-H torsion
[ 10763 10752 10751 10750 ] final -163.73 input  -60.55 | X-H torsion
[ 11005 11000 10999 10996 ] final  139.16 input  -57.11 | X-H torsion

> <Gold.Protein.ActiveResidues>
 VAL166  LYS551  ARG553  GLY616  TRP617  ASP618  TYR619  PRO620  LYS621  CYS622 
 ASP623  PHE694  ASN695  SER759  ASP760  ASP761  ALA762  ILE779  LEU786  VAL792 
 PHE793  MET794  SER795  GLU796  ALA797  LYS798  CYS799  TRP800  GLU811  SER814 

> <Gold.Protein.RotatedAtoms>
  150.8669  133.7561  159.2973 H   0  0  0  0  0  0  0  0  0  0  0  0  # atno 6907 bound_to 6896
  151.5186  135.1065  159.9882 H   0  0  0  0  0  0  0  0  0  0  0  0  # atno 6908 bound_to 6896
  152.4667  133.7895  159.6950 H   0  0  0  0  0  0  0  0  0  0  0  0  # atno 6909 bound_to 6896
  146.1812  140.4138  142.8493 H   0  0  0  0  0  0  0  0  0  0  0  0  # atno 7974 bound_to 7965
  156.2823  140.2724  156.1895 H   0  0  0  0  0  0  0  0  0  0  0  0  # atno 8008 bound_to 7997
  155.0473  140.0386  157.2549 H   0  0  0  0  0  0  0  0  0  0  0  0  # atno 8009 bound_to 7997
  154.7224  140.2690  155.6534 H   0  0  0  0  0  0  0  0  0  0  0  0  # atno 8010 bound_to 7997
  139.4833  144.4713  151.8572 H   0  0  0  0  0  0  0  0  0  0  0  0  # atno 10167 bound_to 10162
  157.2894  130.7295  149.6602 H   0  0  0  0  0  0  0  0  0  0  0  0  # atno 10718 bound_to 10713
  154.7095  135.3003  154.9219 H   0  0  0  0  0  0  0  0  0  0  0  0  # atno 10763 bound_to 10752
  154.0125  135.6693  153.4770 H   0  0  0  0  0  0  0  0  0  0  0  0  # atno 10764 bound_to 10752
  153.0744  135.5043  154.8285 H   0  0  0  0  0  0  0  0  0  0  0  0  # atno 10765 bound_to 10752
  140.0235  134.9386  157.0521 H   0  0  0  0  0  0  0  0  0  0  0  0  # atno 11005 bound_to 11000
  144.8319  140.6721  143.6285 LP  0  0  0  0  0  0  0  0  0  0  0  0  # atno 17320 bound_to 7965
  145.4069  139.1587  143.4147 LP  0  0  0  0  0  0  0  0  0  0  0  0  # atno 17321 bound_to 7965
  140.4182  144.2279  150.5887 LP  0  0  0  0  0  0  0  0  0  0  0  0  # atno 17342 bound_to 10162
  140.4900  143.2350  151.8832 LP  0  0  0  0  0  0  0  0  0  0  0  0  # atno 17343 bound_to 10162
  155.9666  130.4313  150.4916 LP  0  0  0  0  0  0  0  0  0  0  0  0  # atno 17370 bound_to 10713
  157.2876  131.0619  151.2156 LP  0  0  0  0  0  0  0  0  0  0  0  0  # atno 17371 bound_to 10713
  140.4347  134.1744  155.7170 LP  0  0  0  0  0  0  0  0  0  0  0  0  # atno 17394 bound_to 11000
  141.1788  133.8457  157.1329 LP  0  0  0  0  0  0  0  0  0  0  0  0  # atno 17395 bound_to 11000

$$$$
