AV-unprocessed.smi:1879|AV-procd|sdf|7631|dock1
  -GOLD-   22720 9353D 1   1.00000     0.00000
 Structure written by MMmdl.
 46 48  0  0  0  0  0  0  0  0  1 V2000
  146.0081  133.7728  154.0967 O   0  0  0  0  0  0  0  0  0  0  0  0
  146.8761  134.4599  153.5587 C   0  0  0  0  0  0  0  0  0  0  0  0
  147.7287  135.2752  154.2018 N   0  0  0  0  0  0  0  0  0  0  0  0
  147.8633  135.4944  155.6025 C   0  0  0  0  0  0  0  0  0  0  0  0
  147.1333  134.7615  156.5701 C   0  0  0  0  0  0  0  0  0  0  0  0
  147.3494  135.0233  157.9353 C   0  0  0  0  0  0  0  0  0  0  0  0
  148.2936  136.0044  158.2870 C   0  0  0  0  0  0  0  0  0  0  0  0
  149.0069  136.7011  157.3791 N   0  0  0  0  0  0  0  0  0  0  0  0
  148.8032  136.4524  156.0621 C   0  0  0  0  0  0  0  0  0  0  0  0
  149.5629  137.1880  155.1345 N   0  0  0  0  0  0  0  0  0  0  0  0
  149.3725  138.6286  155.1698 C   0  0  0  0  0  0  0  0  0  0  0  0
  150.5413  139.2122  154.3727 C   0  0  0  0  0  0  0  0  0  0  0  0
  151.6226  138.1251  154.4056 C   0  0  0  0  0  0  0  0  0  0  0  0
  150.9987  136.9694  155.1932 C   0  0  0  0  0  0  0  0  0  0  0  0
  147.0785  134.5038  152.2341 N   0  0  0  0  0  0  0  0  0  0  0  0
  146.3358  133.7506  151.2271 C   0  0  2  0  0  0  0  0  0  0  0  0
  145.0117  134.4752  150.9168 C   0  0  0  0  0  0  0  0  0  0  0  0
  144.1456  133.6725  149.9329 C   0  0  0  0  0  0  0  0  0  0  0  0
  143.8852  132.2513  150.4603 C   0  0  1  0  0  0  0  0  0  0  0  0
  143.1374  131.5236  149.5092 O   0  0  0  0  0  0  0  0  0  0  0  0
  145.2071  131.5189  150.7476 C   0  0  0  0  0  0  0  0  0  0  0  0
  146.0792  132.3165  151.7311 C   0  0  0  0  0  0  0  0  0  0  0  0
  148.3138  135.8564  153.6193 H   0  0  0  0  0  0  0  0  0  0  0  0
  146.4267  133.9946  156.2927 H   0  0  0  0  0  0  0  0  0  0  0  0
  146.8077  134.4804  158.6954 H   0  0  0  0  0  0  0  0  0  0  0  0
  148.4864  136.2314  159.3249 H   0  0  0  0  0  0  0  0  0  0  0  0
  148.4115  138.9087  154.7375 H   0  0  0  0  0  0  0  0  0  0  0  0
  149.4002  138.9962  156.1966 H   0  0  0  0  0  0  0  0  0  0  0  0
  150.2388  139.4024  153.3421 H   0  0  0  0  0  0  0  0  0  0  0  0
  150.8862  140.1557  154.7968 H   0  0  0  0  0  0  0  0  0  0  0  0
  151.8621  137.8089  153.3897 H   0  0  0  0  0  0  0  0  0  0  0  0
  152.5450  138.4728  154.8717 H   0  0  0  0  0  0  0  0  0  0  0  0
  151.3480  136.9881  156.2265 H   0  0  0  0  0  0  0  0  0  0  0  0
  151.2648  136.0026  154.7649 H   0  0  0  0  0  0  0  0  0  0  0  0
  147.8118  135.1075  151.8919 H   0  0  0  0  0  0  0  0  0  0  0  0
  146.9093  133.6898  150.3003 H   0  0  0  0  0  0  0  0  0  0  0  0
  144.4519  134.6362  151.8394 H   0  0  0  0  0  0  0  0  0  0  0  0
  145.2156  135.4637  150.5033 H   0  0  0  0  0  0  0  0  0  0  0  0
  143.2007  134.1911  149.7661 H   0  0  0  0  0  0  0  0  0  0  0  0
  144.6479  133.6245  148.9657 H   0  0  0  0  0  0  0  0  0  0  0  0
  143.2962  132.3081  151.3769 H   0  0  0  0  0  0  0  0  0  0  0  0
  142.2308  131.5236  149.7760 H   0  0  0  0  0  0  0  0  0  0  0  0
  145.0061  130.5268  151.1539 H   0  0  0  0  0  0  0  0  0  0  0  0
  145.7577  131.3673  149.8178 H   0  0  0  0  0  0  0  0  0  0  0  0
  147.0271  131.7988  151.8832 H   0  0  0  0  0  0  0  0  0  0  0  0
  145.5855  132.3485  152.7036 H   0  0  0  0  0  0  0  0  0  0  0  0
  1  2  2  0  0  0  0
  2  3  1  0  0  0  0
  2 15  1  0  0  0  0
  3  4  1  0  0  0  0
  3 23  1  0  0  0  0
  4  9  1  0  0  0  0
  4  5  2  0  0  0  0
  5  6  1  0  0  0  0
  5 24  1  0  0  0  0
  6  7  2  0  0  0  0
  6 25  1  0  0  0  0
  7  8  1  0  0  0  0
  7 26  1  0  0  0  0
  8  9  2  0  0  0  0
  9 10  1  0  0  0  0
 10 14  1  0  0  0  0
 10 11  1  0  0  0  0
 11 12  1  0  0  0  0
 11 27  1  0  0  0  0
 11 28  1  0  0  0  0
 12 13  1  0  0  0  0
 12 29  1  0  0  0  0
 12 30  1  0  0  0  0
 13 14  1  0  0  0  0
 13 31  1  0  0  0  0
 13 32  1  0  0  0  0
 14 33  1  0  0  0  0
 14 34  1  0  0  0  0
 15 16  1  0  0  0  0
 15 35  1  0  0  0  0
 16 22  1  0  0  0  0
 16 17  1  0  0  0  0
 16 36  1  0  0  0  0
 17 18  1  0  0  0  0
 17 37  1  0  0  0  0
 17 38  1  0  0  0  0
 18 19  1  0  0  0  0
 18 39  1  0  0  0  0
 18 40  1  0  0  0  0
 19 20  1  0  0  0  0
 19 21  1  0  0  0  0
 19 41  1  0  0  0  0
 20 42  1  0  0  0  0
 21 22  1  0  0  0  0
 21 43  1  0  0  0  0
 21 44  1  0  0  0  0
 22 45  1  0  0  0  0
 22 46  1  0  0  0  0
M  END
> <s_m_source_file>
AV-unprocessed.smi

> <i_m_source_file_index>
1879

> <i_lp_mmshare_version>
43012

> <i_f3d_flags>
0

> <s_epik_input>
W0NIMl0xW0NIMl1bQ0BIXShbT0hdKVtDSDJdW0NIMl1bQ0BIXTFbTkhdQyg9TylbTkhdYzJbY0hdW2NIXVtjSF1uYzJOM1tDSDJdW0NIMl1bQ0gyXVtDSDJdMw==

> <s_epik_cmdline>
J2VwaWtfcHl0aG9uJywgJy1waCcsICc3LjAnLCAnLXRuJywgJzgnLCAnLW1hJywgJzIwMCcsICctbWV0YWxfYmluZGluZycsICctaW1hZScsICc8aW5maWxlLm1hZT4nLCAnLW9tYWUnLCAnPG91dGZpbGUubWFlPic=

> <r_lp_tautomer_probability>
1

> <r_epik_Ionization_Penalty>
0.104121

> <r_epik_Ionization_Penalty_Charging>
0

> <r_epik_Ionization_Penalty_Neutral>
0.104121

> <r_epik_State_Penalty>
0.0934704

> <r_epik_Charging_Adjusted_Penalty>
0.0934704

> <i_epik_Tot_Q>
0

> <i_epik_Tot_abs_Q>
0

> <r_epik_Metal_State_Penalty>
0.0794466

> <b_epik_Metal_Only>
0

> <s_lp_Force_Field>
OPLS_2005

> <r_lp_Energy>
38.1849

> <b_lp_Chiralities_Consistent>
1

> <s_lp_Variant>
AV-unprocessed.smi:1879-1

> <Gold.Version>
5.8.1

> <Gold.Id.Protein>
6NUR|6NUR_protein|mol2

> <Gold.PLP.Fitness>
41.4679

> <Gold.PLP.PLP>
-31.0501

> <Gold.PLP.part.hbond>
-4.0000

> <Gold.PLP.part.metal>
0.0000

> <Gold.PLP.part.buried>
-4.0074

> <Gold.PLP.part.nonpolar>
-23.4356

> <Gold.PLP.part.repulsive>
0.2359

> <Gold.PLP.ligand.clash>
0.0000

> <Gold.PLP.ligand.torsion>
0.3035

> <Gold.PLP.Chemscore.Hbond>
3.6640

> <Gold.PLP.Chemscore.CHOScore>
0.0000

> <Gold.PLP.Chemscore.Metal>
0.0000

> <Gold.Chemscore.Hbonds>
donor molecule, donor type, donor heavy atom, donor atom, acceptor molecule, acceptor atom, score
      L1  H     3    23       P1  7948  0.94
      L1  H    15    35       P1  7948  1.00
      L1  H    20    42       P1 10952  0.70
      P1  H 10785 10796       L1    20  1.00

> <Gold.PLP.Chemscore.Internal.Correction>
0.0329

> <Gold.Rescore>
     Score         DG    S(hbond)    S(metal)    S(lipo)     H(rot)  DE(clash)    DE(int)     intcor
     17.59     -20.75       3.02        0.00      80.87       1.67       0.11       3.04       ----

> <Gold.Chemscore.Fitness>
17.5949

> <Gold.Chemscore.DG>
-20.7490

> <Gold.Chemscore.ZeroCoef>
-5.4800

> <Gold.Chemscore.Hbond>
3.0204

> <Gold.Chemscore.Metal>
0.0000

> <Gold.Chemscore.Lipo>
80.8707

> <Gold.Chemscore.Internal_Hbond>
0.0000

> <Gold.Chemscore.DEClash>
0.1135

> <Gold.Chemscore.DEInternal>
3.0405

> <Gold.Chemscore.Rot>
1.6723

> <Gold.Chemscore.Internal.Correction>
   9.000000E+99

> <Gold.Chemscore.Hbonds>
donor molecule, donor type, donor heavy atom, donor atom, acceptor molecule, acceptor atom, score
      L1  H     3    23       P1  7948  0.91
      L1  H    15    35       P1  7948  0.71
      L1  H    20    42       P1 10952  0.69
      P1  H 10785 10796       L1    20  0.25

> <Gold.Chemscore.Hbond.Weighted>
-10.0883

> <Gold.Chemscore.Metal.Weighted>
-0.0000

> <Gold.Chemscore.Lipo.Weighted>
-9.4619

> <Gold.Chemscore.Internal_Hbond.Weighted>
0.0000

> <Gold.Chemscore.DEClash.Weighted>
0.1135

> <Gold.Chemscore.DEInternal.Weighted>
3.0405

> <Gold.Chemscore.Rot.Weighted>
4.2812

> <Gold.Chemscore.Internal.Correction.Weighted>
   9.000000E+99

> <Gold.Protein.RotatedTorsions>
[ 6907 6896 6895 6894 ] final -159.34 input  -60.11 | X-H torsion
[ 7974 7965 7964 7962 ] final -112.26 input  175.53 | X-H torsion
[ 8008 7997 7996 7995 ] final  176.64 input   59.86 | X-H torsion
[ 10167 10162 10161 10158 ] final   74.73 input  -65.29 | X-H torsion
[ 10718 10713 10712 10709 ] final  -44.33 input   66.30 | X-H torsion
[ 10763 10752 10751 10750 ] final  164.94 input  -60.55 | X-H torsion
[ 11005 11000 10999 10996 ] final -102.07 input  -57.11 | X-H torsion

> <Gold.Protein.ActiveResidues>
 VAL166  LYS551  ARG553  GLY616  TRP617  ASP618  TYR619  PRO620  LYS621  CYS622 
 ASP623  PHE694  ASN695  SER759  ASP760  ASP761  ALA762  ILE779  LEU786  VAL792 
 PHE793  MET794  SER795  GLU796  ALA797  LYS798  CYS799  TRP800  GLU811  SER814 

> <Gold.Protein.RotatedAtoms>
  151.3321  133.3996  159.2663 H   0  0  0  0  0  0  0  0  0  0  0  0  # atno 6907 bound_to 6896
  150.9947  134.9274  159.7930 H   0  0  0  0  0  0  0  0  0  0  0  0  # atno 6908 bound_to 6896
  152.5258  134.3286  159.9227 H   0  0  0  0  0  0  0  0  0  0  0  0  # atno 6909 bound_to 6896
  145.1462  140.8804  143.3673 H   0  0  0  0  0  0  0  0  0  0  0  0  # atno 7974 bound_to 7965
  156.0743  140.1378  156.9790 H   0  0  0  0  0  0  0  0  0  0  0  0  # atno 8008 bound_to 7997
  154.4549  140.0965  156.6779 H   0  0  0  0  0  0  0  0  0  0  0  0  # atno 8009 bound_to 7997
  155.5177  140.3455  155.4403 H   0  0  0  0  0  0  0  0  0  0  0  0  # atno 8010 bound_to 7997
  140.0106  144.5617  150.7662 H   0  0  0  0  0  0  0  0  0  0  0  0  # atno 10167 bound_to 10162
  156.2397  130.4179  149.8775 H   0  0  0  0  0  0  0  0  0  0  0  0  # atno 10718 bound_to 10713
  154.3165  135.2756  155.2541 H   0  0  0  0  0  0  0  0  0  0  0  0  # atno 10763 bound_to 10752
  154.4913  135.5833  153.6465 H   0  0  0  0  0  0  0  0  0  0  0  0  # atno 10764 bound_to 10752
  152.9881  135.6135  154.3346 H   0  0  0  0  0  0  0  0  0  0  0  0  # atno 10765 bound_to 10752
  141.1204  133.8529  157.1313 H   0  0  0  0  0  0  0  0  0  0  0  0  # atno 11005 bound_to 11000
  145.0479  139.3205  143.5943 LP  0  0  0  0  0  0  0  0  0  0  0  0  # atno 17320 bound_to 7965
  146.3500  139.9877  142.8689 LP  0  0  0  0  0  0  0  0  0  0  0  0  # atno 17321 bound_to 7965
  140.7383  143.2776  151.3694 LP  0  0  0  0  0  0  0  0  0  0  0  0  # atno 17342 bound_to 10162
  139.6208  144.0912  152.2389 LP  0  0  0  0  0  0  0  0  0  0  0  0  # atno 17343 bound_to 10162
  156.6361  130.8685  151.3505 LP  0  0  0  0  0  0  0  0  0  0  0  0  # atno 17370 bound_to 10713
  157.7170  130.9509  150.1292 LP  0  0  0  0  0  0  0  0  0  0  0  0  # atno 17371 bound_to 10713
  140.0158  134.9968  157.0489 LP  0  0  0  0  0  0  0  0  0  0  0  0  # atno 17394 bound_to 11000
  140.4523  134.1570  155.7183 LP  0  0  0  0  0  0  0  0  0  0  0  0  # atno 17395 bound_to 11000

$$$$
