AV-unprocessed.smi:1860|AV-procd|sdf|7547|dock7
  -GOLD-   22720 9263D 1   1.00000     0.00000
 Structure written by MMmdl.
 31 32  0  0  0  0  0  0  0  0  1 V2000
  151.6860  145.3048  159.6040 C   0  0  0  0  0  0  0  0  0  0  0  0
  150.4801  144.3838  159.3764 C   0  0  0  0  0  0  0  0  0  0  0  0
  149.2221  145.1058  159.5221 N   0  0  0  0  0  0  0  0  0  0  0  0
  148.3452  144.9352  160.5240 C   0  0  0  0  0  0  0  0  0  0  0  0
  148.5050  144.1226  161.4347 O   0  0  0  0  0  0  0  0  0  0  0  0
  147.0981  145.8198  160.4979 C   0  0  0  0  0  0  0  0  0  0  0  0
  145.8705  144.9885  160.7331 C   0  0  0  0  0  0  0  0  0  0  0  0
  145.7373  143.9476  161.6197 C   0  0  0  0  0  0  0  0  0  0  0  0
  144.1421  143.2490  161.5733 S   0  0  0  0  0  0  0  0  0  0  0  0
  143.7001  144.4251  160.3322 C   0  0  0  0  0  0  0  0  0  0  0  0
  142.4304  144.5446  159.6930 N   0  0  0  0  0  0  0  0  0  0  0  0
  142.1885  145.5327  158.6464 C   0  0  0  0  0  0  0  0  0  0  0  0
  140.7294  145.3089  158.2619 C   0  0  0  0  0  0  0  0  0  0  0  0
  140.3464  144.2282  159.1393 N   0  0  0  0  0  0  0  0  0  0  0  0
  141.3275  143.8110  159.9426 C   0  0  0  0  0  0  0  0  0  0  0  0
  141.2044  142.9031  160.7627 O   0  0  0  0  0  0  0  0  0  0  0  0
  144.7014  145.2515  160.0113 N   0  0  0  0  0  0  0  0  0  0  0  0
  152.6201  144.7615  159.4600 H   0  0  0  0  0  0  0  0  0  0  0  0
  151.6917  145.7094  160.6165 H   0  0  0  0  0  0  0  0  0  0  0  0
  151.6788  146.1438  158.9078 H   0  0  0  0  0  0  0  0  0  0  0  0
  150.5194  143.9692  158.3691 H   0  0  0  0  0  0  0  0  0  0  0  0
  150.5135  143.5362  160.0626 H   0  0  0  0  0  0  0  0  0  0  0  0
  149.0082  145.7962  158.8171 H   0  0  0  0  0  0  0  0  0  0  0  0
  147.1863  146.5999  161.2551 H   0  0  0  0  0  0  0  0  0  0  0  0
  147.0430  146.3316  159.5361 H   0  0  0  0  0  0  0  0  0  0  0  0
  146.4809  143.5471  162.2925 H   0  0  0  0  0  0  0  0  0  0  0  0
  142.3504  146.5430  159.0246 H   0  0  0  0  0  0  0  0  0  0  0  0
  142.8541  145.3669  157.7981 H   0  0  0  0  0  0  0  0  0  0  0  0
  140.1158  146.1909  158.4487 H   0  0  0  0  0  0  0  0  0  0  0  0
  140.6205  145.0133  157.2179 H   0  0  0  0  0  0  0  0  0  0  0  0
  139.4172  143.8329  159.1365 H   0  0  0  0  0  0  0  0  0  0  0  0
  1  2  1  0  0  0  0
  1 18  1  0  0  0  0
  1 19  1  0  0  0  0
  1 20  1  0  0  0  0
  2  3  1  0  0  0  0
  2 21  1  0  0  0  0
  2 22  1  0  0  0  0
  3  4  1  0  0  0  0
  3 23  1  0  0  0  0
  4  5  2  0  0  0  0
  4  6  1  0  0  0  0
  6  7  1  0  0  0  0
  6 24  1  0  0  0  0
  6 25  1  0  0  0  0
  7 17  1  0  0  0  0
  7  8  2  0  0  0  0
  8  9  1  0  0  0  0
  8 26  1  0  0  0  0
  9 10  1  0  0  0  0
 10 11  1  0  0  0  0
 10 17  2  0  0  0  0
 11 15  1  0  0  0  0
 11 12  1  0  0  0  0
 12 13  1  0  0  0  0
 12 27  1  0  0  0  0
 12 28  1  0  0  0  0
 13 14  1  0  0  0  0
 13 29  1  0  0  0  0
 13 30  1  0  0  0  0
 14 15  1  0  0  0  0
 14 31  1  0  0  0  0
 15 16  2  0  0  0  0
M  END
> <s_m_source_file>
AV-unprocessed.smi

> <i_m_source_file_index>
1860

> <i_lp_mmshare_version>
43012

> <i_f3d_flags>
0

> <s_epik_input>
W0NIM11bQ0gyXVtOSF1DKD1PKVtDSDJdYzFbY0hdc2MobjEpTjJbQ0gyXVtDSDJdW05IXUMyPU8=

> <s_epik_cmdline>
J2VwaWtfcHl0aG9uJywgJy1waCcsICc3LjAnLCAnLXRuJywgJzgnLCAnLW1hJywgJzIwMCcsICctbWV0YWxfYmluZGluZycsICctaW1hZScsICc8aW5maWxlLm1hZT4nLCAnLW9tYWUnLCAnPG91dGZpbGUubWFlPic=

> <r_lp_tautomer_probability>
1

> <r_epik_Ionization_Penalty>
0.000119829

> <r_epik_Ionization_Penalty_Charging>
0

> <r_epik_Ionization_Penalty_Neutral>
0.000119829

> <r_epik_State_Penalty>
-0

> <r_epik_Charging_Adjusted_Penalty>
0

> <i_epik_Tot_Q>
0

> <i_epik_Tot_abs_Q>
0

> <r_epik_Metal_State_Penalty>
-0

> <b_epik_Metal_Only>
0

> <s_lp_Force_Field>
OPLS_2005

> <r_lp_Energy>
29.5586

> <b_lp_Chiralities_Consistent>
1

> <s_lp_Variant>
AV-unprocessed.smi:1860-1

> <Gold.Version>
5.8.1

> <Gold.Id.Protein>
6NUR|6NUR_protein|mol2

> <Gold.PLP.Fitness>
33.5533

> <Gold.PLP.PLP>
-29.2769

> <Gold.PLP.part.hbond>
-3.0000

> <Gold.PLP.part.metal>
0.0000

> <Gold.PLP.part.buried>
-7.0115

> <Gold.PLP.part.nonpolar>
-20.5599

> <Gold.PLP.part.repulsive>
0.5961

> <Gold.PLP.ligand.clash>
0.0000

> <Gold.PLP.ligand.torsion>
0.4672

> <Gold.PLP.Chemscore.Hbond>
1.7360

> <Gold.PLP.Chemscore.CHOScore>
0.0000

> <Gold.PLP.Chemscore.Metal>
0.0000

> <Gold.Chemscore.Hbonds>
donor molecule, donor type, donor heavy atom, donor atom, acceptor molecule, acceptor atom, score
      L1  H     3    23       P1  8029  0.78
      P1  H  6933  6944       L1     5  0.83

> <Gold.PLP.Chemscore.Internal.Correction>
0.0029

> <Gold.Rescore>
     Score         DG    S(hbond)    S(metal)    S(lipo)     H(rot)  DE(clash)    DE(int)     intcor
     10.79     -13.36       1.84        0.00      50.32       1.62       0.10       2.46       ----

> <Gold.Chemscore.Fitness>
10.7935

> <Gold.Chemscore.DG>
-13.3551

> <Gold.Chemscore.ZeroCoef>
-5.4800

> <Gold.Chemscore.Hbond>
1.8393

> <Gold.Chemscore.Metal>
0.0000

> <Gold.Chemscore.Lipo>
50.3181

> <Gold.Chemscore.Internal_Hbond>
0.0000

> <Gold.Chemscore.DEClash>
0.0998

> <Gold.Chemscore.DEInternal>
2.4618

> <Gold.Chemscore.Rot>
1.6231

> <Gold.Chemscore.Internal.Correction>
   9.000000E+99

> <Gold.Chemscore.Hbonds>
donor molecule, donor type, donor heavy atom, donor atom, acceptor molecule, acceptor atom, score
      L1  H     3    23       P1  8029  0.78
      P1  H  6933  6944       L1     5  0.81

> <Gold.Chemscore.Hbond.Weighted>
-6.1432

> <Gold.Chemscore.Metal.Weighted>
-0.0000

> <Gold.Chemscore.Lipo.Weighted>
-5.8872

> <Gold.Chemscore.Internal_Hbond.Weighted>
0.0000

> <Gold.Chemscore.DEClash.Weighted>
0.0998

> <Gold.Chemscore.DEInternal.Weighted>
2.4618

> <Gold.Chemscore.Rot.Weighted>
4.1553

> <Gold.Chemscore.Internal.Correction.Weighted>
   9.000000E+99

> <Gold.Protein.RotatedTorsions>
[ 6907 6896 6895 6894 ] final   67.47 input  -60.11 | X-H torsion
[ 7974 7965 7964 7962 ] final -122.25 input  175.53 | X-H torsion
[ 8008 7997 7996 7995 ] final  128.70 input   59.86 | X-H torsion
[ 10167 10162 10161 10158 ] final  -15.17 input  -65.29 | X-H torsion
[ 10718 10713 10712 10709 ] final  -84.86 input   66.30 | X-H torsion
[ 10763 10752 10751 10750 ] final -167.98 input  -60.55 | X-H torsion
[ 11005 11000 10999 10996 ] final  115.03 input  -57.11 | X-H torsion

> <Gold.Protein.ActiveResidues>
 VAL166  LYS551  ARG553  GLY616  TRP617  ASP618  TYR619  PRO620  LYS621  CYS622 
 ASP623  PHE694  ASN695  SER759  ASP760  ASP761  ALA762  ILE779  LEU786  VAL792 
 PHE793  MET794  SER795  GLU796  ALA797  LYS798  CYS799  TRP800  GLU811  SER814 

> <Gold.Protein.RotatedAtoms>
  152.4554  134.5303  159.9808 H   0  0  0  0  0  0  0  0  0  0  0  0  # atno 6907 bound_to 6896
  151.5365  133.3434  159.2935 H   0  0  0  0  0  0  0  0  0  0  0  0  # atno 6908 bound_to 6896
  150.8496  134.7847  159.7061 H   0  0  0  0  0  0  0  0  0  0  0  0  # atno 6909 bound_to 6896
  145.0315  140.8071  143.4321 H   0  0  0  0  0  0  0  0  0  0  0  0  # atno 7974 bound_to 7965
  156.2920  140.2638  156.2479 H   0  0  0  0  0  0  0  0  0  0  0  0  # atno 8008 bound_to 7997
  154.9912  140.0388  157.2339 H   0  0  0  0  0  0  0  0  0  0  0  0  # atno 8009 bound_to 7997
  154.7684  140.2773  155.6162 H   0  0  0  0  0  0  0  0  0  0  0  0  # atno 8010 bound_to 7997
  140.7214  143.5245  150.9593 H   0  0  0  0  0  0  0  0  0  0  0  0  # atno 10167 bound_to 10162
  156.0002  130.4712  150.4475 H   0  0  0  0  0  0  0  0  0  0  0  0  # atno 10718 bound_to 10713
  154.6676  135.2934  154.9785 H   0  0  0  0  0  0  0  0  0  0  0  0  # atno 10763 bound_to 10752
  154.0823  135.6602  153.4844 H   0  0  0  0  0  0  0  0  0  0  0  0  # atno 10764 bound_to 10752
  153.0467  135.5200  154.7656 H   0  0  0  0  0  0  0  0  0  0  0  0  # atno 10765 bound_to 10752
  139.8998  134.9577  156.6983 H   0  0  0  0  0  0  0  0  0  0  0  0  # atno 11005 bound_to 11000
  145.1765  139.2375  143.5315 LP  0  0  0  0  0  0  0  0  0  0  0  0  # atno 17320 bound_to 7965
  146.3499  140.1528  142.8592 LP  0  0  0  0  0  0  0  0  0  0  0  0  # atno 17321 bound_to 7965
  139.8964  143.6890  152.3138 LP  0  0  0  0  0  0  0  0  0  0  0  0  # atno 17342 bound_to 10162
  139.7224  144.7600  151.0934 LP  0  0  0  0  0  0  0  0  0  0  0  0  # atno 17343 bound_to 10162
  157.2511  131.0546  151.2379 LP  0  0  0  0  0  0  0  0  0  0  0  0  # atno 17370 bound_to 10713
  157.3528  130.7091  149.6451 LP  0  0  0  0  0  0  0  0  0  0  0  0  # atno 17371 bound_to 10713
  140.7170  133.9173  155.8122 LP  0  0  0  0  0  0  0  0  0  0  0  0  # atno 17394 bound_to 11000
  141.0256  134.0827  157.4072 LP  0  0  0  0  0  0  0  0  0  0  0  0  # atno 17395 bound_to 11000

$$$$
