AV-unprocessed.smi:2021|AV-procd|sdf|8181|dock2
  -GOLD-   2272010433D 1   1.00000     0.00000
 Structure written by MMmdl.
 41 42  0  0  0  0  0  0  0  0  3 V2000
  152.9442  143.4416  160.4080 C   0  0  0  0  0  0  0  0  0  0  0  0
  151.9304  143.3461  159.2581 C   0  0  0  0  0  0  0  0  0  0  0  0
  150.9548  144.5339  159.3022 C   0  0  0  0  0  0  0  0  0  0  0  0
  151.1897  141.9919  159.2994 C   0  0  0  0  0  0  0  0  0  0  0  0
  150.2630  141.7946  158.1554 N   0  3  1  0  0  0  0  0  0  0  0  0
  150.8989  142.0095  156.8319 C   0  0  0  0  0  0  0  0  0  0  0  0
  149.8732  141.8110  155.7049 C   0  0  0  0  0  0  0  0  0  0  0  0
  149.3038  140.5147  155.8124 O   0  0  0  0  0  0  0  0  0  0  0  0
  148.5911  140.3335  157.0318 C   0  0  1  0  0  0  0  0  0  0  0  0
  147.9180  138.9498  157.0175 C   0  0  0  0  0  0  0  0  0  0  0  0
  147.1525  138.7138  158.2370 N   0  0  0  0  0  0  0  0  0  0  0  0
  147.4098  137.7766  159.1602 C   0  0  0  0  0  0  0  0  0  0  0  0
  148.3875  137.0363  159.0321 O   0  0  0  0  0  0  0  0  0  0  0  0
  146.5141  137.7533  160.1722 N   0  5  0  0  0  0  0  0  0  0  0  0
  145.9182  136.5989  160.5143 C   0  0  0  0  0  0  0  0  0  0  0  0
  145.7629  135.5859  159.6466 N   0  0  0  0  0  0  0  0  0  0  0  0
  145.1200  134.4870  160.2001 N   0  0  0  0  0  0  0  0  0  0  0  0
  144.7976  134.7040  161.4750 C   0  0  0  0  0  0  0  0  0  0  0  0
  145.2486  136.2702  162.1148 S   0  0  0  0  0  0  0  0  0  0  0  0
  149.5895  140.4743  158.1973 C   0  0  0  0  0  0  0  0  0  0  0  0
  152.4512  143.3836  161.3791 H   0  0  0  0  0  0  0  0  0  0  0  0
  153.4945  144.3822  160.3706 H   0  0  0  0  0  0  0  0  0  0  0  0
  153.6747  142.6335  160.3568 H   0  0  0  0  0  0  0  0  0  0  0  0
  152.5024  143.4152  158.3334 H   0  0  0  0  0  0  0  0  0  0  0  0
  150.3505  144.5177  160.2099 H   0  0  0  0  0  0  0  0  0  0  0  0
  150.2758  144.5258  158.4493 H   0  0  0  0  0  0  0  0  0  0  0  0
  151.4917  145.4826  159.2789 H   0  0  0  0  0  0  0  0  0  0  0  0
  151.9010  141.1649  159.3280 H   0  0  0  0  0  0  0  0  0  0  0  0
  150.6277  141.9392  160.2335 H   0  0  0  0  0  0  0  0  0  0  0  0
  151.3144  143.0138  156.7629 H   0  0  0  0  0  0  0  0  0  0  0  0
  151.7268  141.3102  156.7054 H   0  0  0  0  0  0  0  0  0  0  0  0
  149.0924  142.5722  155.7456 H   0  0  0  0  0  0  0  0  0  0  0  0
  150.3585  141.9037  154.7332 H   0  0  0  0  0  0  0  0  0  0  0  0
  147.8194  141.1007  157.1213 H   0  0  0  0  0  0  0  0  0  0  0  0
  147.2915  138.8303  156.1317 H   0  0  0  0  0  0  0  0  0  0  0  0
  148.6801  138.1722  156.9609 H   0  0  0  0  0  0  0  0  0  0  0  0
  146.3462  139.3013  158.3913 H   0  0  0  0  0  0  0  0  0  0  0  0
  144.2889  133.9384  162.0412 H   0  0  0  0  0  0  0  0  0  0  0  0
  150.3381  139.6813  158.1518 H   0  0  0  0  0  0  0  0  0  0  0  0
  149.0615  140.3638  159.1455 H   0  0  0  0  0  0  0  0  0  0  0  0
  149.5328  142.4862  158.2504 H   0  0  0  0  0  0  0  0  0  0  0  0
  1  2  1  0  0  0  0
  1 21  1  0  0  0  0
  1 22  1  0  0  0  0
  1 23  1  0  0  0  0
  2  3  1  0  0  0  0
  2  4  1  0  0  0  0
  2 24  1  0  0  0  0
  3 25  1  0  0  0  0
  3 26  1  0  0  0  0
  3 27  1  0  0  0  0
  4  5  1  0  0  0  0
  4 28  1  0  0  0  0
  4 29  1  0  0  0  0
  5 20  1  0  0  0  0
  5  6  1  0  0  0  0
  5 41  1  0  0  0  0
  6  7  1  0  0  0  0
  6 30  1  0  0  0  0
  6 31  1  0  0  0  0
  7  8  1  0  0  0  0
  7 32  1  0  0  0  0
  7 33  1  0  0  0  0
  8  9  1  0  0  0  0
  9 10  1  0  0  0  0
  9 20  1  0  0  0  0
  9 34  1  0  0  0  0
 10 11  1  0  0  0  0
 10 35  1  0  0  0  0
 10 36  1  0  0  0  0
 11 12  1  0  0  0  0
 11 37  1  0  0  0  0
 12 13  2  0  0  0  0
 12 14  1  0  0  0  0
 14 15  1  0  0  0  0
 15 19  1  0  0  0  0
 15 16  2  0  0  0  0
 16 17  1  0  0  0  0
 17 18  2  0  0  0  0
 18 19  1  0  0  0  0
 18 38  1  0  0  0  0
 20 39  1  0  0  0  0
 20 40  1  0  0  0  0
M  CHG  1   5   1
M  CHG  1  14  -1
M  END
> <s_m_source_file>
AV-unprocessed.smi

> <i_m_source_file_index>
2021

> <i_lp_mmshare_version>
43012

> <i_f3d_flags>
0

> <s_epik_input>
W0NIM11bQ0hdKFtDSDNdKVtDSDJdTjFbQ0gyXVtDSDJdT1tDQEhdKFtDSDJdMSlbQ0gyXVtOSF1DKD1PKVtOSF1jMm5uW2NIXXMy

> <s_epik_cmdline>
J2VwaWtfcHl0aG9uJywgJy1waCcsICc3LjAnLCAnLXRuJywgJzgnLCAnLW1hJywgJzIwMCcsICctbWV0YWxfYmluZGluZycsICctaW1hZScsICc8aW5maWxlLm1hZT4nLCAnLW9tYWUnLCAnPG91dGZpbGUubWFlPic=

> <r_lp_tautomer_probability>
1

> <r_epik_Ionization_Penalty>
3.15762

> <r_epik_Ionization_Penalty_Charging>
3.12229

> <r_epik_Ionization_Penalty_Neutral>
0.0353298

> <r_epik_State_Penalty>
3.11266

> <r_epik_Charging_Adjusted_Penalty>
6.23495

> <i_epik_Tot_Q>
0

> <i_epik_Tot_abs_Q>
2

> <r_epik_Metal_State_Penalty>
0.541462

> <b_epik_Metal_Only>
1

> <s_lp_Force_Field>
OPLS_2005

> <r_lp_Energy>
10.0285

> <b_lp_Chiralities_Consistent>
1

> <s_lp_Variant>
AV-unprocessed.smi:2021-7

> <Gold.Version>
5.8.1

> <Gold.Id.Protein>
6NUR|6NUR_protein|mol2

> <Gold.PLP.Fitness>
47.0168

> <Gold.PLP.PLP>
-36.0164

> <Gold.PLP.part.hbond>
-2.7572

> <Gold.PLP.part.metal>
0.0000

> <Gold.PLP.part.buried>
-5.6046

> <Gold.PLP.part.nonpolar>
-27.1767

> <Gold.PLP.part.repulsive>
0.2272

> <Gold.PLP.ligand.clash>
0.0000

> <Gold.PLP.ligand.torsion>
0.6269

> <Gold.PLP.Chemscore.Hbond>
4.0378

> <Gold.PLP.Chemscore.CHOScore>
0.0000

> <Gold.PLP.Chemscore.Metal>
0.0000

> <Gold.Chemscore.Hbonds>
donor molecule, donor type, donor heavy atom, donor atom, acceptor molecule, acceptor atom, score
      P1  H  6934  6947       L1    14  1.40

> <Gold.PLP.Chemscore.Internal.Correction>
0.1409

> <Gold.Rescore>
     Score         DG    S(hbond)    S(metal)    S(lipo)     H(rot)  DE(clash)    DE(int)     intcor
     15.01     -16.10       1.88        0.00      77.60       1.85       0.01       1.08       ----

> <Gold.Chemscore.Fitness>
15.0112

> <Gold.Chemscore.DG>
-16.1031

> <Gold.Chemscore.ZeroCoef>
-5.4800

> <Gold.Chemscore.Hbond>
1.8776

> <Gold.Chemscore.Metal>
0.0000

> <Gold.Chemscore.Lipo>
77.5983

> <Gold.Chemscore.Internal_Hbond>
0.0000

> <Gold.Chemscore.DEClash>
0.0089

> <Gold.Chemscore.DEInternal>
1.0830

> <Gold.Chemscore.Rot>
1.8466

> <Gold.Chemscore.Internal.Correction>
   9.000000E+99

> <Gold.Chemscore.Hbonds>
donor molecule, donor type, donor heavy atom, donor atom, acceptor molecule, acceptor atom, score
      P1  H  6934  6947       L1    14  0.07

> <Gold.Chemscore.Hbond.Weighted>
-6.2713

> <Gold.Chemscore.Metal.Weighted>
-0.0000

> <Gold.Chemscore.Lipo.Weighted>
-9.0790

> <Gold.Chemscore.Internal_Hbond.Weighted>
0.0000

> <Gold.Chemscore.DEClash.Weighted>
0.0089

> <Gold.Chemscore.DEInternal.Weighted>
1.0830

> <Gold.Chemscore.Rot.Weighted>
4.7272

> <Gold.Chemscore.Internal.Correction.Weighted>
   9.000000E+99

> <Gold.Protein.RotatedTorsions>
[ 6907 6896 6895 6894 ] final   74.24 input  -60.11 | X-H torsion
[ 7974 7965 7964 7962 ] final  179.72 input  175.53 | X-H torsion
[ 8008 7997 7996 7995 ] final  -32.48 input   59.86 | X-H torsion
[ 10167 10162 10161 10158 ] final -117.34 input  -65.29 | X-H torsion
[ 10718 10713 10712 10709 ] final   32.78 input   66.30 | X-H torsion
[ 10763 10752 10751 10750 ] final  156.04 input  -60.55 | X-H torsion
[ 11005 11000 10999 10996 ] final  152.11 input  -57.11 | X-H torsion

> <Gold.Protein.ActiveResidues>
 VAL166  LYS551  ARG553  GLY616  TRP617  ASP618  TYR619  PRO620  LYS621  CYS622 
 ASP623  PHE694  ASN695  SER759  ASP760  ASP761  ALA762  ILE779  LEU786  VAL792 
 PHE793  MET794  SER795  GLU796  ALA797  LYS798  CYS799  TRP800  GLU811  SER814 

> <Gold.Protein.RotatedAtoms>
  152.4965  134.4301  159.9509 H   0  0  0  0  0  0  0  0  0  0  0  0  # atno 6907 bound_to 6896
  151.4279  133.3672  159.2772 H   0  0  0  0  0  0  0  0  0  0  0  0  # atno 6908 bound_to 6896
  150.9175  134.8616  159.7527 H   0  0  0  0  0  0  0  0  0  0  0  0  # atno 6909 bound_to 6896
  144.7143  140.0591  143.6433 H   0  0  0  0  0  0  0  0  0  0  0  0  # atno 7974 bound_to 7965
  154.4179  140.1736  156.1733 H   0  0  0  0  0  0  0  0  0  0  0  0  # atno 8008 bound_to 7997
  155.9742  140.3383  155.6579 H   0  0  0  0  0  0  0  0  0  0  0  0  # atno 8009 bound_to 7997
  155.6585  140.0698  157.2553 H   0  0  0  0  0  0  0  0  0  0  0  0  # atno 8010 bound_to 7997
  140.0694  143.4891  152.1988 H   0  0  0  0  0  0  0  0  0  0  0  0  # atno 10167 bound_to 10162
  157.2896  130.7296  149.6603 H   0  0  0  0  0  0  0  0  0  0  0  0  # atno 10718 bound_to 10713
  154.1780  135.2801  155.3061 H   0  0  0  0  0  0  0  0  0  0  0  0  # atno 10763 bound_to 10752
  154.6024  135.5525  153.7391 H   0  0  0  0  0  0  0  0  0  0  0  0  # atno 10764 bound_to 10752
  153.0146  135.6395  154.1919 H   0  0  0  0  0  0  0  0  0  0  0  0  # atno 10765 bound_to 10752
  140.1279  134.8821  157.2163 H   0  0  0  0  0  0  0  0  0  0  0  0  # atno 11005 bound_to 11000
  145.9879  139.2992  143.1002 LP  0  0  0  0  0  0  0  0  0  0  0  0  # atno 17320 bound_to 7965
  145.8936  140.9288  143.0539 LP  0  0  0  0  0  0  0  0  0  0  0  0  # atno 17321 bound_to 7965
  139.5845  144.7525  151.3556 LP  0  0  0  0  0  0  0  0  0  0  0  0  # atno 17342 bound_to 10162
  140.7133  143.7334  150.7607 LP  0  0  0  0  0  0  0  0  0  0  0  0  # atno 17343 bound_to 10162
  155.9666  130.4313  150.4914 LP  0  0  0  0  0  0  0  0  0  0  0  0  # atno 17370 bound_to 10713
  157.2874  131.0619  151.2157 LP  0  0  0  0  0  0  0  0  0  0  0  0  # atno 17371 bound_to 10713
  140.2880  134.3273  155.7323 LP  0  0  0  0  0  0  0  0  0  0  0  0  # atno 17394 bound_to 11000
  141.2164  133.7518  156.9461 LP  0  0  0  0  0  0  0  0  0  0  0  0  # atno 17395 bound_to 11000

$$$$
