AV-unprocessed.smi:1880|AV-procd|sdf|7638|dock7
  -GOLD-   22720 9363D 1   1.00000     0.00000
 Structure written by MMmdl.
 37 39  0  0  0  0  0  0  0  0  2 V2000
  153.7214  138.5197  155.6071 O   0  0  0  0  0  0  0  0  0  0  0  0
  152.4471  138.9947  155.2190 C   0  0  1  0  0  0  0  0  0  0  0  0
  151.7734  137.9238  154.3475 C   0  0  0  0  0  0  0  0  0  0  0  0
  151.7664  136.6984  155.0598 O   0  0  0  0  0  0  0  0  0  0  0  0
  150.4571  136.2173  155.3191 C   0  0  0  0  0  0  0  0  0  0  0  0
  150.5350  134.7290  155.4413 C   0  0  0  0  0  0  0  0  0  0  0  0
  150.0608  133.7049  154.6681 C   0  0  0  0  0  0  0  0  0  0  0  0
  150.4689  132.4985  155.3014 C   0  0  0  0  0  0  0  0  0  0  0  0
  151.1701  132.8746  156.4112 C   0  0  0  0  0  0  0  0  0  0  0  0
  151.2231  134.2307  156.5098 O   0  0  0  0  0  0  0  0  0  0  0  0
  151.6275  139.3100  156.4859 C   0  0  0  0  0  0  0  0  0  0  0  0
  151.2235  140.7203  156.5642 N   0  0  0  0  0  0  0  0  0  0  0  0
  150.5170  141.4778  155.6818 C   0  0  0  0  0  0  0  0  0  0  0  0
  150.3937  142.7241  156.2173 N   0  3  0  0  0  0  0  0  0  0  0  0
  151.0306  142.7629  157.4600 C   0  0  0  0  0  0  0  0  0  0  0  0
  151.1752  143.7963  158.3800 C   0  0  0  0  0  0  0  0  0  0  0  0
  151.8864  143.5002  159.5616 C   0  0  0  0  0  0  0  0  0  0  0  0
  152.0564  144.4704  160.4906 F   0  0  0  0  0  0  0  0  0  0  0  0
  152.4226  142.2156  159.7934 C   0  0  0  0  0  0  0  0  0  0  0  0
  153.0979  141.9737  160.9417 F   0  0  0  0  0  0  0  0  0  0  0  0
  152.2694  141.1753  158.8531 C   0  0  0  0  0  0  0  0  0  0  0  0
  151.5660  141.4781  157.6885 C   0  0  0  0  0  0  0  0  0  0  0  0
  153.9858  137.8464  154.9981 H   0  0  0  0  0  0  0  0  0  0  0  0
  152.5742  139.9090  154.6381 H   0  0  0  0  0  0  0  0  0  0  0  0
  150.7651  138.2260  154.0583 H   0  0  0  0  0  0  0  0  0  0  0  0
  152.3453  137.7815  153.4290 H   0  0  0  0  0  0  0  0  0  0  0  0
  150.0679  136.6503  156.2416 H   0  0  0  0  0  0  0  0  0  0  0  0
  149.7814  136.4896  154.5074 H   0  0  0  0  0  0  0  0  0  0  0  0
  149.4878  133.8114  153.7588 H   0  0  0  0  0  0  0  0  0  0  0  0
  150.2766  131.4843  154.9838 H   0  0  0  0  0  0  0  0  0  0  0  0
  151.6755  132.3351  157.1986 H   0  0  0  0  0  0  0  0  0  0  0  0
  150.7308  138.6913  156.5378 H   0  0  0  0  0  0  0  0  0  0  0  0
  152.2103  139.0861  157.3807 H   0  0  0  0  0  0  0  0  0  0  0  0
  150.1205  141.1473  154.7325 H   0  0  0  0  0  0  0  0  0  0  0  0
  150.7658  144.7806  158.2073 H   0  0  0  0  0  0  0  0  0  0  0  0
  152.6819  140.1950  159.0403 H   0  0  0  0  0  0  0  0  0  0  0  0
  149.9071  143.4882  155.7661 H   0  0  0  0  0  0  0  0  0  0  0  0
  1  2  1  0  0  0  0
  1 23  1  0  0  0  0
  2  3  1  0  0  0  0
  2 11  1  0  0  0  0
  2 24  1  0  0  0  0
  3  4  1  0  0  0  0
  3 25  1  0  0  0  0
  3 26  1  0  0  0  0
  4  5  1  0  0  0  0
  5  6  1  0  0  0  0
  5 27  1  0  0  0  0
  5 28  1  0  0  0  0
  6 10  1  0  0  0  0
  6  7  2  0  0  0  0
  7  8  1  0  0  0  0
  7 29  1  0  0  0  0
  8  9  2  0  0  0  0
  8 30  1  0  0  0  0
  9 10  1  0  0  0  0
  9 31  1  0  0  0  0
 11 12  1  0  0  0  0
 11 32  1  0  0  0  0
 11 33  1  0  0  0  0
 12 22  1  0  0  0  0
 12 13  1  0  0  0  0
 13 14  2  0  0  0  0
 13 34  1  0  0  0  0
 14 15  1  0  0  0  0
 14 37  1  0  0  0  0
 15 22  2  0  0  0  0
 15 16  1  0  0  0  0
 16 17  2  0  0  0  0
 16 35  1  0  0  0  0
 17 18  1  0  0  0  0
 17 19  1  0  0  0  0
 19 20  1  0  0  0  0
 19 21  2  0  0  0  0
 21 22  1  0  0  0  0
 21 36  1  0  0  0  0
M  CHG  1  14   1
M  END
> <s_m_source_file>
AV-unprocessed.smi

> <i_m_source_file_index>
1880

> <i_lp_mmshare_version>
43012

> <i_f3d_flags>
0

> <s_epik_input>
W2NIXTFjKEYpYyhGKVtjSF1jKGMxMiluKFtjSF1uMilbQ0gyXVtDQEhdKFtPSF0pW0NIMl1PW0NIMl1jM1tjSF1bY0hdW2NIXW8z

> <s_epik_cmdline>
J2VwaWtfcHl0aG9uJywgJy1waCcsICc3LjAnLCAnLXRuJywgJzgnLCAnLW1hJywgJzIwMCcsICctbWV0YWxfYmluZGluZycsICctaW1hZScsICc8aW5maWxlLm1hZT4nLCAnLW9tYWUnLCAnPG91dGZpbGUubWFlPic=

> <r_epik_Ionization_Penalty>
2.17656

> <r_epik_Ionization_Penalty_Charging>
2.17656

> <r_epik_Ionization_Penalty_Neutral>
9.34185e-07

> <r_epik_State_Penalty>
2.31826

> <r_epik_Charging_Adjusted_Penalty>
4.49482

> <i_epik_Tot_Q>
1

> <i_epik_Tot_abs_Q>
1

> <r_epik_Metal_State_Penalty>
6.39906

> <b_epik_Metal_Only>
0

> <s_lp_Force_Field>
OPLS_2005

> <r_lp_Energy>
11.8532

> <b_lp_Chiralities_Consistent>
1

> <s_lp_Variant>
AV-unprocessed.smi:1880-4

> <Gold.Version>
5.8.1

> <Gold.Id.Protein>
6NUR|6NUR_protein|mol2

> <Gold.PLP.Fitness>
60.6644

> <Gold.PLP.PLP>
-52.3661

> <Gold.PLP.part.hbond>
-3.4274

> <Gold.PLP.part.metal>
0.0000

> <Gold.PLP.part.buried>
-7.6716

> <Gold.PLP.part.nonpolar>
-42.2752

> <Gold.PLP.part.repulsive>
0.2169

> <Gold.PLP.ligand.clash>
0.0000

> <Gold.PLP.ligand.torsion>
1.3644

> <Gold.PLP.Chemscore.Hbond>
3.6560

> <Gold.PLP.Chemscore.CHOScore>
0.0000

> <Gold.PLP.Chemscore.Metal>
0.0000

> <Gold.Chemscore.Hbonds>
donor molecule, donor type, donor heavy atom, donor atom, acceptor molecule, acceptor atom, score
      L1  H    14    37       P1  8028  2.00
      P1  H  7997  8010       L1     1  0.58
      P1  H 10752 10765       L1     4  1.00

> <Gold.PLP.Chemscore.Internal.Correction>
0.0591

> <Gold.Rescore>
     Score         DG    S(hbond)    S(metal)    S(lipo)     H(rot)  DE(clash)    DE(int)     intcor
     17.39     -18.83       2.55        0.00     105.58       2.94       0.16       1.28       ----

> <Gold.Chemscore.Fitness>
17.3940

> <Gold.Chemscore.DG>
-18.8331

> <Gold.Chemscore.ZeroCoef>
-5.4800

> <Gold.Chemscore.Hbond>
2.5506

> <Gold.Chemscore.Metal>
0.0000

> <Gold.Chemscore.Lipo>
105.5789

> <Gold.Chemscore.Internal_Hbond>
0.0000

> <Gold.Chemscore.DEClash>
0.1624

> <Gold.Chemscore.DEInternal>
1.2768

> <Gold.Chemscore.Rot>
2.9369

> <Gold.Chemscore.Internal.Correction>
   9.000000E+99

> <Gold.Chemscore.Hbonds>
donor molecule, donor type, donor heavy atom, donor atom, acceptor molecule, acceptor atom, score
      L1  H    14    37       P1  8028  0.98
      P1  H  7997  8010       L1     1  0.11
      P1  H 10752 10765       L1     4  0.89

> <Gold.Chemscore.Hbond.Weighted>
-8.5189

> <Gold.Chemscore.Metal.Weighted>
-0.0000

> <Gold.Chemscore.Lipo.Weighted>
-12.3527

> <Gold.Chemscore.Internal_Hbond.Weighted>
0.0000

> <Gold.Chemscore.DEClash.Weighted>
0.1624

> <Gold.Chemscore.DEInternal.Weighted>
1.2768

> <Gold.Chemscore.Rot.Weighted>
7.5185

> <Gold.Chemscore.Internal.Correction.Weighted>
   9.000000E+99

> <Gold.Protein.RotatedTorsions>
[ 6907 6896 6895 6894 ] final -125.68 input  -60.11 | X-H torsion
[ 7974 7965 7964 7962 ] final  117.14 input  175.53 | X-H torsion
[ 8008 7997 7996 7995 ] final   76.11 input   59.86 | X-H torsion
[ 10167 10162 10161 10158 ] final   82.13 input  -65.29 | X-H torsion
[ 10718 10713 10712 10709 ] final   35.87 input   66.30 | X-H torsion
[ 10763 10752 10751 10750 ] final -176.58 input  -60.55 | X-H torsion
[ 11005 11000 10999 10996 ] final  -35.41 input  -57.11 | X-H torsion

> <Gold.Protein.ActiveResidues>
 VAL166  LYS551  ARG553  GLY616  TRP617  ASP618  TYR619  PRO620  LYS621  CYS622 
 ASP623  PHE694  ASN695  SER759  ASP760  ASP761  ALA762  ILE779  LEU786  VAL792 
 PHE793  MET794  SER795  GLU796  ALA797  LYS798  CYS799  TRP800  GLU811  SER814 

> <Gold.Protein.RotatedAtoms>
  150.8892  133.7267  159.2909 H   0  0  0  0  0  0  0  0  0  0  0  0  # atno 6907 bound_to 6896
  151.4822  135.1051  159.9790 H   0  0  0  0  0  0  0  0  0  0  0  0  # atno 6908 bound_to 6896
  152.4809  133.8205  159.7106 H   0  0  0  0  0  0  0  0  0  0  0  0  # atno 6909 bound_to 6896
  145.1710  139.3102  143.4468 H   0  0  0  0  0  0  0  0  0  0  0  0  # atno 7974 bound_to 7965
  155.8226  140.3469  155.5523 H   0  0  0  0  0  0  0  0  0  0  0  0  # atno 8008 bound_to 7997
  155.8326  140.0929  157.1803 H   0  0  0  0  0  0  0  0  0  0  0  0  # atno 8009 bound_to 7997
  154.4004  140.1409  156.3619 H   0  0  0  0  0  0  0  0  0  0  0  0  # atno 8010 bound_to 7997
  139.9320  144.6146  150.8336 H   0  0  0  0  0  0  0  0  0  0  0  0  # atno 10167 bound_to 10162
  157.3279  130.7482  149.6828 H   0  0  0  0  0  0  0  0  0  0  0  0  # atno 10718 bound_to 10713
  154.5706  135.2827  155.0831 H   0  0  0  0  0  0  0  0  0  0  0  0  # atno 10763 bound_to 10752
  154.2205  135.6392  153.5147 H   0  0  0  0  0  0  0  0  0  0  0  0  # atno 10764 bound_to 10752
  153.0056  135.5513  154.6328 H   0  0  0  0  0  0  0  0  0  0  0  0  # atno 10765 bound_to 10752
  140.9794  133.7065  156.1657 H   0  0  0  0  0  0  0  0  0  0  0  0  # atno 11005 bound_to 11000
  146.3468  140.1855  142.8589 LP  0  0  0  0  0  0  0  0  0  0  0  0  # atno 17320 bound_to 7965
  145.0233  140.8812  143.5153 LP  0  0  0  0  0  0  0  0  0  0  0  0  # atno 17321 bound_to 7965
  140.7635  143.3224  151.2592 LP  0  0  0  0  0  0  0  0  0  0  0  0  # atno 17342 bound_to 10162
  139.6775  143.9913  152.2789 LP  0  0  0  0  0  0  0  0  0  0  0  0  # atno 17343 bound_to 10162
  155.9692  130.4204  150.4420 LP  0  0  0  0  0  0  0  0  0  0  0  0  # atno 17370 bound_to 10713
  157.2446  131.0533  151.2416 LP  0  0  0  0  0  0  0  0  0  0  0  0  # atno 17371 bound_to 10713
  140.7210  134.4358  157.5575 LP  0  0  0  0  0  0  0  0  0  0  0  0  # atno 17394 bound_to 11000
  139.8944  134.8708  156.2180 LP  0  0  0  0  0  0  0  0  0  0  0  0  # atno 17395 bound_to 11000

$$$$
