AV-unprocessed.smi:1473|AV-procd|sdf|5972|dock6
  -GOLD-   22720 6 63D 1   1.00000     0.00000
 Structure written by MMmdl.
 33 34  0  0  0  0  0  0  0  0  4 V2000
  153.5527  138.5955  157.9047 N   0  5  0  0  0  0  0  0  0  0  0  0
  153.4215  137.5170  156.7039 S   0  0  0  0  0  0  0  0  0  0  0  0
  154.2812  137.9229  155.5823 O   0  0  0  0  0  0  0  0  0  0  0  0
  153.6327  136.1433  157.1937 O   0  0  0  0  0  0  0  0  0  0  0  0
  151.8598  137.8389  156.3481 N   0  5  0  0  0  0  0  0  0  0  0  0
  151.4496  138.5567  155.1420 C   0  0  0  0  0  0  0  0  0  0  0  0
  150.8007  139.8988  155.4535 C   0  0  0  0  0  0  0  0  0  0  0  0
  149.7094  140.3702  154.6857 C   0  0  0  0  0  0  0  0  0  0  0  0
  149.1666  141.6391  154.9697 C   0  0  0  0  0  0  0  0  0  0  0  0
  149.6913  142.3905  155.9617 N   0  3  0  0  0  0  0  0  0  0  0  0
  150.7303  141.9845  156.7240 C   0  0  0  0  0  0  0  0  0  0  0  0
  151.2040  142.8766  157.6941 N   0  0  0  0  0  0  0  0  0  0  0  0
  151.8926  144.0371  157.1435 C   0  0  0  0  0  0  0  0  0  0  0  0
  152.4583  144.8994  158.2847 C   0  0  0  0  0  0  0  0  0  0  0  0
  151.4036  145.2692  159.1684 O   0  0  0  0  0  0  0  0  0  0  0  0
  150.7729  144.1349  159.7570 C   0  0  0  0  0  0  0  0  0  0  0  0
  150.1720  143.2463  158.6542 C   0  0  0  0  0  0  0  0  0  0  0  0
  151.3047  140.7144  156.4939 C   0  0  0  0  0  0  0  0  0  0  0  0
  153.9229  138.1146  158.7329 H   0  0  0  0  0  0  0  0  0  0  0  0
  152.3037  138.7491  154.4916 H   0  0  0  0  0  0  0  0  0  0  0  0
  150.7598  137.9703  154.5338 H   0  0  0  0  0  0  0  0  0  0  0  0
  149.2975  139.7861  153.8738 H   0  0  0  0  0  0  0  0  0  0  0  0
  148.3432  142.0782  154.4261 H   0  0  0  0  0  0  0  0  0  0  0  0
  152.6980  143.7101  156.4847 H   0  0  0  0  0  0  0  0  0  0  0  0
  151.2037  144.6322  156.5428 H   0  0  0  0  0  0  0  0  0  0  0  0
  153.2344  144.3620  158.8321 H   0  0  0  0  0  0  0  0  0  0  0  0
  152.9181  145.8021  157.8822 H   0  0  0  0  0  0  0  0  0  0  0  0
  151.4934  143.5763  160.3567 H   0  0  0  0  0  0  0  0  0  0  0  0
  149.9896  144.4748  160.4346 H   0  0  0  0  0  0  0  0  0  0  0  0
  149.3679  143.7794  158.1443 H   0  0  0  0  0  0  0  0  0  0  0  0
  149.7345  142.3485  159.0930 H   0  0  0  0  0  0  0  0  0  0  0  0
  152.1505  140.3943  157.0876 H   0  0  0  0  0  0  0  0  0  0  0  0
  149.2918  143.3126  156.1359 H   0  0  0  0  0  0  0  0  0  0  0  0
  1  2  1  0  0  0  0
  1 19  1  0  0  0  0
  2  3  2  0  0  0  0
  2  4  2  0  0  0  0
  2  5  1  0  0  0  0
  5  6  1  0  0  0  0
  6  7  1  0  0  0  0
  6 20  1  0  0  0  0
  6 21  1  0  0  0  0
  7 18  1  0  0  0  0
  7  8  2  0  0  0  0
  8  9  1  0  0  0  0
  8 22  1  0  0  0  0
  9 10  2  0  0  0  0
  9 23  1  0  0  0  0
 10 11  1  0  0  0  0
 10 33  1  0  0  0  0
 11 12  1  0  0  0  0
 11 18  2  0  0  0  0
 12 17  1  0  0  0  0
 12 13  1  0  0  0  0
 13 14  1  0  0  0  0
 13 24  1  0  0  0  0
 13 25  1  0  0  0  0
 14 15  1  0  0  0  0
 14 26  1  0  0  0  0
 14 27  1  0  0  0  0
 15 16  1  0  0  0  0
 16 17  1  0  0  0  0
 16 28  1  0  0  0  0
 16 29  1  0  0  0  0
 17 30  1  0  0  0  0
 17 31  1  0  0  0  0
 18 32  1  0  0  0  0
M  CHG  1   1  -1
M  CHG  1   5  -1
M  CHG  1  10   1
M  END
> <s_m_source_file>
AV-unprocessed.smi

> <i_m_source_file_index>
1473

> <i_lp_mmshare_version>
43012

> <i_f3d_flags>
0

> <s_epik_input>
W05IMl1TKD1PKSg9TylbTkhdW0NIMl1jMVtjSF1bY0hdbmMoW2NIXTEpTjJbQ0gyXVtDSDJdT1tDSDJdW0NIMl0y

> <s_epik_cmdline>
J2VwaWtfcHl0aG9uJywgJy1waCcsICc3LjAnLCAnLXRuJywgJzgnLCAnLW1hJywgJzIwMCcsICctbWV0YWxfYmluZGluZycsICctaW1hZScsICc8aW5maWxlLm1hZT4nLCAnLW9tYWUnLCAnPG91dGZpbGUubWFlPic=

> <r_epik_Ionization_Penalty>
8.27174

> <r_epik_Ionization_Penalty_Charging>
8.27174

> <r_epik_Ionization_Penalty_Neutral>
3.18726e-12

> <r_epik_State_Penalty>
4.90783

> <r_epik_Charging_Adjusted_Penalty>
13.1796

> <i_epik_Tot_Q>
-1

> <i_epik_Tot_abs_Q>
3

> <r_epik_Metal_State_Penalty>
1.75942

> <b_epik_Metal_Only>
1

> <s_lp_Force_Field>
OPLS_2005

> <r_lp_Energy>
13.3583

> <b_lp_Chiralities_Consistent>
1

> <s_lp_Variant>
AV-unprocessed.smi:1473-7

> <Gold.Version>
5.8.1

> <Gold.Id.Protein>
6NUR|6NUR_protein|mol2

> <Gold.PLP.Fitness>
49.0629

> <Gold.PLP.PLP>
-34.4528

> <Gold.PLP.part.hbond>
-4.6645

> <Gold.PLP.part.metal>
0.0000

> <Gold.PLP.part.buried>
-3.3841

> <Gold.PLP.part.nonpolar>
-26.2482

> <Gold.PLP.part.repulsive>
0.3591

> <Gold.PLP.ligand.clash>
0.0000

> <Gold.PLP.ligand.torsion>
0.9601

> <Gold.PLP.Chemscore.Hbond>
5.1404

> <Gold.PLP.Chemscore.CHOScore>
0.0000

> <Gold.PLP.Chemscore.Metal>
0.0000

> <Gold.Chemscore.Hbonds>
donor molecule, donor type, donor heavy atom, donor atom, acceptor molecule, acceptor atom, score
      L1  H    10    33       P1  8028  2.00
      P1  H  7997  8008       L1     1  2.00
      P1  H  7997  8009       L1     3  0.02
      P1  H 10752 10765       L1     4  0.73

> <Gold.PLP.Chemscore.Internal.Correction>
1.1092

> <Gold.Rescore>
     Score         DG    S(hbond)    S(metal)    S(lipo)     H(rot)  DE(clash)    DE(int)     intcor
     16.30     -17.37       2.24        0.00      79.17       1.89       0.18       0.89       ----

> <Gold.Chemscore.Fitness>
16.3031

> <Gold.Chemscore.DG>
-17.3686

> <Gold.Chemscore.ZeroCoef>
-5.4800

> <Gold.Chemscore.Hbond>
2.2364

> <Gold.Chemscore.Metal>
0.0000

> <Gold.Chemscore.Lipo>
79.1714

> <Gold.Chemscore.Internal_Hbond>
0.0000

> <Gold.Chemscore.DEClash>
0.1752

> <Gold.Chemscore.DEInternal>
0.8902

> <Gold.Chemscore.Rot>
1.8922

> <Gold.Chemscore.Internal.Correction>
   9.000000E+99

> <Gold.Chemscore.Hbonds>
donor molecule, donor type, donor heavy atom, donor atom, acceptor molecule, acceptor atom, score
      L1  H    10    33       P1  8028  0.90
      P1  H  7997  8008       L1     1  0.37
      P1  H  7997  8009       L1     3  0.02
      P1  H 10752 10765       L1     4  0.12

> <Gold.Chemscore.Hbond.Weighted>
-7.4696

> <Gold.Chemscore.Metal.Weighted>
-0.0000

> <Gold.Chemscore.Lipo.Weighted>
-9.2631

> <Gold.Chemscore.Internal_Hbond.Weighted>
0.0000

> <Gold.Chemscore.DEClash.Weighted>
0.1752

> <Gold.Chemscore.DEInternal.Weighted>
0.8902

> <Gold.Chemscore.Rot.Weighted>
4.8441

> <Gold.Chemscore.Internal.Correction.Weighted>
   9.000000E+99

> <Gold.Protein.RotatedTorsions>
[ 6907 6896 6895 6894 ] final  124.43 input  -60.11 | X-H torsion
[ 7974 7965 7964 7962 ] final  121.92 input  175.53 | X-H torsion
[ 8008 7997 7996 7995 ] final -103.03 input   59.86 | X-H torsion
[ 10167 10162 10161 10158 ] final -141.14 input  -65.29 | X-H torsion
[ 10718 10713 10712 10709 ] final  137.25 input   66.30 | X-H torsion
[ 10763 10752 10751 10750 ] final  -85.63 input  -60.55 | X-H torsion
[ 11005 11000 10999 10996 ] final -101.49 input  -57.11 | X-H torsion

> <Gold.Protein.ActiveResidues>
 VAL166  LYS551  ARG553  GLY616  TRP617  ASP618  TYR619  PRO620  LYS621  CYS622 
 ASP623  PHE694  ASN695  SER759  ASP760  ASP761  ALA762  ILE779  LEU786  VAL792 
 PHE793  MET794  SER795  GLU796  ALA797  LYS798  CYS799  TRP800  GLU811  SER814 

> <Gold.Protein.RotatedAtoms>
  152.4078  133.6916  159.6371 H   0  0  0  0  0  0  0  0  0  0  0  0  # atno 6907 bound_to 6896
  150.7961  133.8678  159.3259 H   0  0  0  0  0  0  0  0  0  0  0  0  # atno 6908 bound_to 6896
  151.6428  135.1012  160.0196 H   0  0  0  0  0  0  0  0  0  0  0  0  # atno 6909 bound_to 6896
  145.1136  139.3436  143.4750 H   0  0  0  0  0  0  0  0  0  0  0  0  # atno 7974 bound_to 7965
  154.8651  140.0425  157.1689 H   0  0  0  0  0  0  0  0  0  0  0  0  # atno 8008 bound_to 7997
  154.8799  140.2971  155.5411 H   0  0  0  0  0  0  0  0  0  0  0  0  # atno 8009 bound_to 7997
  156.2999  140.2413  156.3800 H   0  0  0  0  0  0  0  0  0  0  0  0  # atno 8010 bound_to 7997
  139.8214  143.7569  152.2666 H   0  0  0  0  0  0  0  0  0  0  0  0  # atno 10167 bound_to 10162
  157.4381  131.1055  151.0174 H   0  0  0  0  0  0  0  0  0  0  0  0  # atno 10718 bound_to 10713
  154.6133  135.5478  153.7496 H   0  0  0  0  0  0  0  0  0  0  0  0  # atno 10763 bound_to 10752
  153.0205  135.6395  154.1546 H   0  0  0  0  0  0  0  0  0  0  0  0  # atno 10764 bound_to 10752
  154.1483  135.2904  155.3122 H   0  0  0  0  0  0  0  0  0  0  0  0  # atno 10765 bound_to 10752
  141.1228  133.8482  157.1239 H   0  0  0  0  0  0  0  0  0  0  0  0  # atno 11005 bound_to 11000
  146.3525  140.1066  142.8605 LP  0  0  0  0  0  0  0  0  0  0  0  0  # atno 17320 bound_to 7965
  145.0819  140.9226  143.4820 LP  0  0  0  0  0  0  0  0  0  0  0  0  # atno 17321 bound_to 7965
  139.7748  144.7464  151.0172 LP  0  0  0  0  0  0  0  0  0  0  0  0  # atno 17342 bound_to 10162
  140.7813  143.4605  151.0284 LP  0  0  0  0  0  0  0  0  0  0  0  0  # atno 17343 bound_to 10162
  157.1047  130.5996  149.5468 LP  0  0  0  0  0  0  0  0  0  0  0  0  # atno 17370 bound_to 10713
  155.9938  130.5000  150.7395 LP  0  0  0  0  0  0  0  0  0  0  0  0  # atno 17371 bound_to 10713
  140.0200  134.9950  157.0573 LP  0  0  0  0  0  0  0  0  0  0  0  0  # atno 17394 bound_to 11000
  140.4455  134.1636  155.7177 LP  0  0  0  0  0  0  0  0  0  0  0  0  # atno 17395 bound_to 11000

$$$$
