AV-unprocessed.smi:1033|AV-procd|sdf|4496|dock6
  -GOLD-   22720 2483D 1   1.00000     0.00000
 Structure written by MMmdl.
 56 58  0  0  0  0  0  0  0  0  2 V2000
  153.0608  143.2437  161.4949 C   0  0  0  0  0  0  0  0  0  0  0  0
  152.4051  142.7172  160.2306 C   0  0  0  0  0  0  0  0  0  0  0  0
  152.8483  141.4910  159.6855 C   0  0  0  0  0  0  0  0  0  0  0  0
  152.2684  140.9697  158.5083 C   0  0  0  0  0  0  0  0  0  0  0  0
  152.5441  139.8069  157.8101 N   0  0  0  0  0  0  0  0  0  0  0  0
  151.6760  139.8855  156.8059 C   0  0  0  0  0  0  0  0  0  0  0  0
  150.8737  140.9670  156.7653 N   0  0  0  0  0  0  0  0  0  0  0  0
  149.8605  141.2716  155.7671 C   0  0  0  0  0  0  0  0  0  0  0  0
  149.6980  140.1759  154.6883 C   0  0  2  0  0  0  0  0  0  0  0  0
  149.8682  140.7546  153.4104 O   0  0  0  0  0  0  0  0  0  0  0  0
  148.3266  139.4654  154.6929 C   0  0  0  0  0  0  0  0  0  0  0  0
  147.2796  140.1097  153.8923 N   0  0  0  0  0  0  0  0  0  0  0  0
  146.7462  139.2351  152.8489 C   0  0  0  0  0  0  0  0  0  0  0  0
  145.8545  138.1030  153.3997 C   0  0  0  0  0  0  0  0  0  0  0  0
  144.7337  138.6699  154.1970 N   0  3  0  0  0  0  0  0  0  0  0  0
  143.7918  137.6466  154.7187 C   0  0  0  0  0  0  0  0  0  0  0  0
  142.9143  137.0253  153.6138 C   0  0  1  0  0  0  0  0  0  0  0  0
  141.9173  136.0038  154.1766 C   0  0  0  0  0  0  0  0  0  0  0  0
  142.1800  138.0474  152.9701 O   0  0  0  0  0  0  0  0  0  0  0  0
  145.2516  139.5609  155.2675 C   0  0  0  0  0  0  0  0  0  0  0  0
  146.1603  140.6511  154.6656 C   0  0  0  0  0  0  0  0  0  0  0  0
  151.2235  141.7136  157.8862 C   0  0  0  0  0  0  0  0  0  0  0  0
  150.7683  142.9301  158.4249 C   0  0  0  0  0  0  0  0  0  0  0  0
  151.3613  143.4392  159.5985 C   0  0  0  0  0  0  0  0  0  0  0  0
  150.8684  144.7593  160.1633 C   0  0  0  0  0  0  0  0  0  0  0  0
  153.8437  142.5715  161.8469 H   0  0  0  0  0  0  0  0  0  0  0  0
  152.3249  143.3474  162.2924 H   0  0  0  0  0  0  0  0  0  0  0  0
  153.5146  144.2179  161.3123 H   0  0  0  0  0  0  0  0  0  0  0  0
  153.6418  140.9393  160.1676 H   0  0  0  0  0  0  0  0  0  0  0  0
  151.6244  139.1150  156.0507 H   0  0  0  0  0  0  0  0  0  0  0  0
  148.9126  141.4443  156.2785 H   0  0  0  0  0  0  0  0  0  0  0  0
  150.1225  142.2177  155.2926 H   0  0  0  0  0  0  0  0  0  0  0  0
  150.4988  139.4462  154.8013 H   0  0  0  0  0  0  0  0  0  0  0  0
  149.6359  140.1135  152.7559 H   0  0  0  0  0  0  0  0  0  0  0  0
  148.4701  138.4471  154.3288 H   0  0  0  0  0  0  0  0  0  0  0  0
  147.9919  139.3546  155.7240 H   0  0  0  0  0  0  0  0  0  0  0  0
  146.1633  139.8343  152.1478 H   0  0  0  0  0  0  0  0  0  0  0  0
  147.5653  138.8128  152.2652 H   0  0  0  0  0  0  0  0  0  0  0  0
  145.4674  137.5239  152.5625 H   0  0  0  0  0  0  0  0  0  0  0  0
  146.4377  137.4136  154.0116 H   0  0  0  0  0  0  0  0  0  0  0  0
  144.3571  136.8721  155.2393 H   0  0  0  0  0  0  0  0  0  0  0  0
  143.1378  138.0984  155.4668 H   0  0  0  0  0  0  0  0  0  0  0  0
  143.5304  136.5250  152.8675 H   0  0  0  0  0  0  0  0  0  0  0  0
  142.4370  135.1799  154.6668 H   0  0  0  0  0  0  0  0  0  0  0  0
  141.3009  135.5770  153.3844 H   0  0  0  0  0  0  0  0  0  0  0  0
  141.2496  136.4585  154.9093 H   0  0  0  0  0  0  0  0  0  0  0  0
  142.7836  138.6179  152.5183 H   0  0  0  0  0  0  0  0  0  0  0  0
  144.4152  140.0378  155.7798 H   0  0  0  0  0  0  0  0  0  0  0  0
  145.7858  138.9752  156.0167 H   0  0  0  0  0  0  0  0  0  0  0  0
  146.5216  141.3132  155.4514 H   0  0  0  0  0  0  0  0  0  0  0  0
  145.5573  141.2836  154.0125 H   0  0  0  0  0  0  0  0  0  0  0  0
  149.9726  143.4710  157.9351 H   0  0  0  0  0  0  0  0  0  0  0  0
  150.0656  145.1771  159.5549 H   0  0  0  0  0  0  0  0  0  0  0  0
  151.6789  145.4877  160.1926 H   0  0  0  0  0  0  0  0  0  0  0  0
  150.4859  144.6235  161.1750 H   0  0  0  0  0  0  0  0  0  0  0  0
  144.1995  139.2597  153.5747 H   0  0  0  0  0  0  0  0  0  0  0  0
  1  2  1  0  0  0  0
  1 26  1  0  0  0  0
  1 27  1  0  0  0  0
  1 28  1  0  0  0  0
  2 24  1  0  0  0  0
  2  3  2  0  0  0  0
  3  4  1  0  0  0  0
  3 29  1  0  0  0  0
  4 22  2  0  0  0  0
  4  5  1  0  0  0  0
  5  6  2  0  0  0  0
  6  7  1  0  0  0  0
  6 30  1  0  0  0  0
  7  8  1  0  0  0  0
  7 22  1  0  0  0  0
  8  9  1  0  0  0  0
  8 31  1  0  0  0  0
  8 32  1  0  0  0  0
  9 10  1  0  0  0  0
  9 11  1  0  0  0  0
  9 33  1  0  0  0  0
 10 34  1  0  0  0  0
 11 12  1  0  0  0  0
 11 35  1  0  0  0  0
 11 36  1  0  0  0  0
 12 21  1  0  0  0  0
 12 13  1  0  0  0  0
 13 14  1  0  0  0  0
 13 37  1  0  0  0  0
 13 38  1  0  0  0  0
 14 15  1  0  0  0  0
 14 39  1  0  0  0  0
 14 40  1  0  0  0  0
 15 16  1  0  0  0  0
 15 20  1  0  0  0  0
 15 56  1  0  0  0  0
 16 17  1  0  0  0  0
 16 41  1  0  0  0  0
 16 42  1  0  0  0  0
 17 18  1  0  0  0  0
 17 19  1  0  0  0  0
 17 43  1  0  0  0  0
 18 44  1  0  0  0  0
 18 45  1  0  0  0  0
 18 46  1  0  0  0  0
 19 47  1  0  0  0  0
 20 21  1  0  0  0  0
 20 48  1  0  0  0  0
 20 49  1  0  0  0  0
 21 50  1  0  0  0  0
 21 51  1  0  0  0  0
 22 23  1  0  0  0  0
 23 24  2  0  0  0  0
 23 52  1  0  0  0  0
 24 25  1  0  0  0  0
 25 53  1  0  0  0  0
 25 54  1  0  0  0  0
 25 55  1  0  0  0  0
M  CHG  1  15   1
M  END
> <s_m_source_file>
AV-unprocessed.smi

> <i_m_source_file_index>
1033

> <i_lp_mmshare_version>
43012

> <i_f3d_flags>
0

> <s_epik_input>
W0NIM11jKFtjSF0xKWMoW0NIM10pW2NIXWMoYzEyKW4oW2NIXW4yKVtDSDJdW0NASF0oW09IXSlbQ0gyXU4zW0NIMl1bQ0gyXU4oW0NIMl1bQ0gyXTMpW0NIMl1bQ0BIXShbQ0gzXSlbT0hd

> <s_epik_cmdline>
J2VwaWtfcHl0aG9uJywgJy1waCcsICc3LjAnLCAnLXRuJywgJzgnLCAnLW1hJywgJzIwMCcsICctbWV0YWxfYmluZGluZycsICctaW1hZScsICc8aW5maWxlLm1hZT4nLCAnLW9tYWUnLCAnPG91dGZpbGUubWFlPic=

> <r_epik_Ionization_Penalty>
0.129152

> <r_epik_Ionization_Penalty_Charging>
0.00083231

> <r_epik_Ionization_Penalty_Neutral>
0.128319

> <r_epik_State_Penalty>
0.556973

> <r_epik_Charging_Adjusted_Penalty>
0.557805

> <i_epik_Tot_Q>
1

> <i_epik_Tot_abs_Q>
1

> <r_epik_Metal_State_Penalty>
0.490047

> <b_epik_Metal_Only>
0

> <s_lp_Force_Field>
OPLS_2005

> <r_lp_Energy>
31.9095

> <b_lp_Chiralities_Consistent>
1

> <s_lp_Variant>
AV-unprocessed.smi:1033-7

> <Gold.Version>
5.8.1

> <Gold.Id.Protein>
6NUR|6NUR_protein|mol2

> <Gold.PLP.Fitness>
56.8828

> <Gold.PLP.PLP>
-42.8245

> <Gold.PLP.part.hbond>
-4.6746

> <Gold.PLP.part.metal>
0.0000

> <Gold.PLP.part.buried>
-4.5118

> <Gold.PLP.part.nonpolar>
-33.8245

> <Gold.PLP.part.repulsive>
0.1496

> <Gold.PLP.ligand.clash>
0.0000

> <Gold.PLP.ligand.torsion>
1.9156

> <Gold.PLP.Chemscore.Hbond>
5.8744

> <Gold.PLP.Chemscore.CHOScore>
0.0000

> <Gold.PLP.Chemscore.Metal>
0.0000

> <Gold.Chemscore.Hbonds>
donor molecule, donor type, donor heavy atom, donor atom, acceptor molecule, acceptor atom, score
      L1  H    10    34       P1  7957  0.72
      L1  H    15    56       P1 10175  2.00
      L1  H    19    47       P1 10175  0.91
      P1  H  7989  7998       L1    10  0.30
      P1  H  7997  8010       L1     5  0.65
      P1  H  8011  8017       L1    10  1.00

> <Gold.PLP.Chemscore.Internal.Correction>
0.2664

> <Gold.Rescore>
     Score         DG    S(hbond)    S(metal)    S(lipo)     H(rot)  DE(clash)    DE(int)     intcor
     20.08     -22.35       3.17        0.00     120.80       3.07       0.53       1.74       ----

> <Gold.Chemscore.Fitness>
20.0819

> <Gold.Chemscore.DG>
-22.3466

> <Gold.Chemscore.ZeroCoef>
-5.4800

> <Gold.Chemscore.Hbond>
3.1676

> <Gold.Chemscore.Metal>
0.0000

> <Gold.Chemscore.Lipo>
120.7966

> <Gold.Chemscore.Internal_Hbond>
0.0000

> <Gold.Chemscore.DEClash>
0.5263

> <Gold.Chemscore.DEInternal>
1.7384

> <Gold.Chemscore.Rot>
3.0650

> <Gold.Chemscore.Internal.Correction>
   9.000000E+99

> <Gold.Chemscore.Hbonds>
donor molecule, donor type, donor heavy atom, donor atom, acceptor molecule, acceptor atom, score
      L1  H    10    34       P1  7957  0.71
      L1  H    15    56       P1 10175  1.00
      L1  H    19    47       P1 10175  0.87
      P1  H  7989  7998       L1    10  0.04
      P1  H  7997  8010       L1     5  0.21
      P1  H  8011  8017       L1    10  0.25

> <Gold.Chemscore.Hbond.Weighted>
-10.5799

> <Gold.Chemscore.Metal.Weighted>
-0.0000

> <Gold.Chemscore.Lipo.Weighted>
-14.1332

> <Gold.Chemscore.Internal_Hbond.Weighted>
0.0000

> <Gold.Chemscore.DEClash.Weighted>
0.5263

> <Gold.Chemscore.DEInternal.Weighted>
1.7384

> <Gold.Chemscore.Rot.Weighted>
7.8465

> <Gold.Chemscore.Internal.Correction.Weighted>
   9.000000E+99

> <Gold.Protein.RotatedTorsions>
[ 6907 6896 6895 6894 ] final  114.11 input  -60.11 | X-H torsion
[ 7974 7965 7964 7962 ] final   53.35 input  175.53 | X-H torsion
[ 8008 7997 7996 7995 ] final   41.11 input   59.86 | X-H torsion
[ 10167 10162 10161 10158 ] final   51.90 input  -65.29 | X-H torsion
[ 10718 10713 10712 10709 ] final  176.07 input   66.30 | X-H torsion
[ 10763 10752 10751 10750 ] final -132.25 input  -60.55 | X-H torsion
[ 11005 11000 10999 10996 ] final   22.85 input  -57.11 | X-H torsion

> <Gold.Protein.ActiveResidues>
 VAL166  LYS551  ARG553  GLY616  TRP617  ASP618  TYR619  PRO620  LYS621  CYS622 
 ASP623  PHE694  ASN695  SER759  ASP760  ASP761  ALA762  ILE779  LEU786  VAL792 
 PHE793  MET794  SER795  GLU796  ALA797  LYS798  CYS799  TRP800  GLU811  SER814 

> <Gold.Protein.RotatedAtoms>
  152.4822  133.8282  159.7089 H   0  0  0  0  0  0  0  0  0  0  0  0  # atno 6907 bound_to 6896
  150.8880  133.7272  159.2919 H   0  0  0  0  0  0  0  0  0  0  0  0  # atno 6908 bound_to 6896
  151.4754  135.1052  159.9815 H   0  0  0  0  0  0  0  0  0  0  0  0  # atno 6909 bound_to 6896
  145.9721  139.4159  143.0184 H   0  0  0  0  0  0  0  0  0  0  0  0  # atno 7974 bound_to 7965
  155.2643  140.3361  155.4270 H   0  0  0  0  0  0  0  0  0  0  0  0  # atno 8008 bound_to 7997
  156.2161  140.1789  156.7628 H   0  0  0  0  0  0  0  0  0  0  0  0  # atno 8009 bound_to 7997
  154.5755  140.0662  156.9013 H   0  0  0  0  0  0  0  0  0  0  0  0  # atno 8010 bound_to 7997
  140.2571  144.3415  150.6329 H   0  0  0  0  0  0  0  0  0  0  0  0  # atno 10167 bound_to 10162
  156.9255  130.9954  151.2997 H   0  0  0  0  0  0  0  0  0  0  0  0  # atno 10718 bound_to 10713
  154.8744  135.3804  154.4378 H   0  0  0  0  0  0  0  0  0  0  0  0  # atno 10763 bound_to 10752
  153.5066  135.7030  153.5808 H   0  0  0  0  0  0  0  0  0  0  0  0  # atno 10764 bound_to 10752
  153.4116  135.3923  155.2020 H   0  0  0  0  0  0  0  0  0  0  0  0  # atno 10765 bound_to 10752
  140.3761  134.1971  155.7665 H   0  0  0  0  0  0  0  0  0  0  0  0  # atno 11005 bound_to 11000
  145.7891  140.9822  143.1058 LP  0  0  0  0  0  0  0  0  0  0  0  0  # atno 17320 bound_to 7965
  144.6839  139.9660  143.7481 LP  0  0  0  0  0  0  0  0  0  0  0  0  # atno 17321 bound_to 7965
  140.5995  143.2167  151.7099 LP  0  0  0  0  0  0  0  0  0  0  0  0  # atno 17342 bound_to 10162
  139.5028  144.3815  152.0371 LP  0  0  0  0  0  0  0  0  0  0  0  0  # atno 17343 bound_to 10162
  157.5880  130.8423  149.8618 LP  0  0  0  0  0  0  0  0  0  0  0  0  # atno 17370 bound_to 10713
  156.0471  130.3725  150.1291 LP  0  0  0  0  0  0  0  0  0  0  0  0  # atno 17371 bound_to 10713
  141.1939  133.8141  157.0780 LP  0  0  0  0  0  0  0  0  0  0  0  0  # atno 17394 bound_to 11000
  140.0514  134.9803  157.1144 LP  0  0  0  0  0  0  0  0  0  0  0  0  # atno 17395 bound_to 11000

$$$$
