AV-unprocessed.smi:1703|AV-procd|sdf|6871|dock8
  -GOLD-   22720 8 73D 1   1.00000     0.00000
 Structure written by MMmdl.
 49 51  0  0  0  0  0  0  0  0  2 V2000
  144.8792  137.0149  158.8494 C   0  0  0  0  0  0  0  0  0  0  0  0
  146.2355  136.3153  158.7129 C   0  0  1  0  0  0  0  0  0  0  0  0
  147.4065  137.3135  158.7378 C   0  0  0  0  0  0  0  0  0  0  0  0
  148.6970  136.6386  158.6855 N   0  0  0  0  0  0  0  0  0  0  0  0
  149.7962  137.6026  158.6594 C   0  0  0  0  0  0  0  0  0  0  0  0
  149.9564  138.3728  157.3315 C   0  0  2  0  0  0  0  0  0  0  0  0
  150.0511  137.4466  156.2665 O   0  0  0  0  0  0  0  0  0  0  0  0
  151.2128  139.2661  157.3295 C   0  0  0  0  0  0  0  0  0  0  0  0
  150.8984  140.6894  157.1212 N   0  0  0  0  0  0  0  0  0  0  0  0
  150.0882  141.2759  156.1934 C   0  0  0  0  0  0  0  0  0  0  0  0
  149.3019  140.5765  155.1301 C   0  0  0  0  0  0  0  0  0  0  0  0
  149.6418  140.9877  153.8224 O   0  0  0  0  0  0  0  0  0  0  0  0
  150.1322  142.6208  156.4143 N   0  3  0  0  0  0  0  0  0  0  0  0
  150.9757  142.8978  157.4897 C   0  0  0  0  0  0  0  0  0  0  0  0
  151.3313  144.1073  158.0790 C   0  0  0  0  0  0  0  0  0  0  0  0
  152.2247  144.0419  159.1678 C   0  0  0  0  0  0  0  0  0  0  0  0
  152.7297  142.8092  159.6295 C   0  0  0  0  0  0  0  0  0  0  0  0
  152.3611  141.5893  159.0245 C   0  0  0  0  0  0  0  0  0  0  0  0
  151.4745  141.6613  157.9495 C   0  0  0  0  0  0  0  0  0  0  0  0
  148.7927  135.7083  159.8082 C   0  0  0  0  0  0  0  0  0  0  0  0
  147.6220  134.7060  159.8531 C   0  0  2  0  0  0  0  0  0  0  0  0
  147.7177  133.6109  158.7770 C   0  0  0  0  0  0  0  0  0  0  0  0
  146.3733  135.3978  159.7964 O   0  0  0  0  0  0  0  0  0  0  0  0
  144.7195  137.7235  158.0362 H   0  0  0  0  0  0  0  0  0  0  0  0
  144.8105  137.5629  159.7895 H   0  0  0  0  0  0  0  0  0  0  0  0
  144.0639  136.2917  158.8243 H   0  0  0  0  0  0  0  0  0  0  0  0
  146.2446  135.7670  157.7705 H   0  0  0  0  0  0  0  0  0  0  0  0
  147.3122  137.9949  157.8914 H   0  0  0  0  0  0  0  0  0  0  0  0
  147.3465  137.9262  159.6390 H   0  0  0  0  0  0  0  0  0  0  0  0
  149.6036  138.3378  159.4421 H   0  0  0  0  0  0  0  0  0  0  0  0
  150.7348  137.1224  158.9421 H   0  0  0  0  0  0  0  0  0  0  0  0
  149.0821  139.0033  157.1650 H   0  0  0  0  0  0  0  0  0  0  0  0
  149.4244  137.6880  155.6020 H   0  0  0  0  0  0  0  0  0  0  0  0
  151.7212  139.1913  158.2914 H   0  0  0  0  0  0  0  0  0  0  0  0
  151.9349  138.9360  156.5827 H   0  0  0  0  0  0  0  0  0  0  0  0
  149.4643  139.5019  155.2138 H   0  0  0  0  0  0  0  0  0  0  0  0
  148.2391  140.7588  155.2907 H   0  0  0  0  0  0  0  0  0  0  0  0
  149.1975  140.4256  153.2057 H   0  0  0  0  0  0  0  0  0  0  0  0
  150.9471  145.0527  157.7251 H   0  0  0  0  0  0  0  0  0  0  0  0
  152.5299  144.9553  159.6577 H   0  0  0  0  0  0  0  0  0  0  0  0
  153.4152  142.7987  160.4648 H   0  0  0  0  0  0  0  0  0  0  0  0
  152.7594  140.6534  159.3863 H   0  0  0  0  0  0  0  0  0  0  0  0
  149.7303  135.1544  159.7658 H   0  0  0  0  0  0  0  0  0  0  0  0
  148.8104  136.2712  160.7427 H   0  0  0  0  0  0  0  0  0  0  0  0
  147.6494  134.2027  160.8199 H   0  0  0  0  0  0  0  0  0  0  0  0
  148.6242  133.0192  158.9072 H   0  0  0  0  0  0  0  0  0  0  0  0
  147.7426  134.0258  157.7694 H   0  0  0  0  0  0  0  0  0  0  0  0
  146.8680  132.9309  158.8380 H   0  0  0  0  0  0  0  0  0  0  0  0
  149.6186  143.2955  155.8619 H   0  0  0  0  0  0  0  0  0  0  0  0
  1  2  1  0  0  0  0
  1 24  1  0  0  0  0
  1 25  1  0  0  0  0
  1 26  1  0  0  0  0
  2 23  1  0  0  0  0
  2  3  1  0  0  0  0
  2 27  1  0  0  0  0
  3  4  1  0  0  0  0
  3 28  1  0  0  0  0
  3 29  1  0  0  0  0
  4  5  1  0  0  0  0
  4 20  1  0  0  0  0
  5  6  1  0  0  0  0
  5 30  1  0  0  0  0
  5 31  1  0  0  0  0
  6  7  1  0  0  0  0
  6  8  1  0  0  0  0
  6 32  1  0  0  0  0
  7 33  1  0  0  0  0
  8  9  1  0  0  0  0
  8 34  1  0  0  0  0
  8 35  1  0  0  0  0
  9 19  1  0  0  0  0
  9 10  1  0  0  0  0
 10 11  1  0  0  0  0
 10 13  2  0  0  0  0
 11 12  1  0  0  0  0
 11 36  1  0  0  0  0
 11 37  1  0  0  0  0
 12 38  1  0  0  0  0
 13 14  1  0  0  0  0
 13 49  1  0  0  0  0
 14 19  2  0  0  0  0
 14 15  1  0  0  0  0
 15 16  2  0  0  0  0
 15 39  1  0  0  0  0
 16 17  1  0  0  0  0
 16 40  1  0  0  0  0
 17 18  2  0  0  0  0
 17 41  1  0  0  0  0
 18 19  1  0  0  0  0
 18 42  1  0  0  0  0
 20 21  1  0  0  0  0
 20 43  1  0  0  0  0
 20 44  1  0  0  0  0
 21 22  1  0  0  0  0
 21 23  1  0  0  0  0
 21 45  1  0  0  0  0
 22 46  1  0  0  0  0
 22 47  1  0  0  0  0
 22 48  1  0  0  0  0
M  CHG  1  13   1
M  END
> <s_m_source_file>
AV-unprocessed.smi

> <i_m_source_file_index>
1703

> <i_lp_mmshare_version>
43012

> <i_f3d_flags>
0

> <s_epik_input>
W0NIM11bQ0BASF0xW0NIMl1OKFtDSDJdW0NASF0oTzEpW0NIM10pW0NIMl1bQ0BIXShbT0hdKVtDSDJdbihjKG4yKVtDSDJdW09IXSljKGMyMylbY0hdW2NIXVtjSF1bY0hdMw==

> <s_epik_cmdline>
J2VwaWtfcHl0aG9uJywgJy1waCcsICc3LjAnLCAnLXRuJywgJzgnLCAnLW1hJywgJzIwMCcsICctbWV0YWxfYmluZGluZycsICctaW1hZScsICc8aW5maWxlLm1hZT4nLCAnLW9tYWUnLCAnPG91dGZpbGUubWFlPic=

> <r_epik_Ionization_Penalty>
1.7682

> <r_epik_Ionization_Penalty_Charging>
1.55298

> <r_epik_Ionization_Penalty_Neutral>
0.215215

> <r_epik_State_Penalty>
1.83821

> <r_epik_Charging_Adjusted_Penalty>
3.39119

> <i_epik_Tot_Q>
1

> <i_epik_Tot_abs_Q>
1

> <r_epik_Metal_State_Penalty>
5.89206

> <b_epik_Metal_Only>
0

> <s_lp_Force_Field>
OPLS_2005

> <r_lp_Energy>
35.0588

> <b_lp_Chiralities_Consistent>
1

> <s_lp_Variant>
AV-unprocessed.smi:1703-19

> <Gold.Version>
5.8.1

> <Gold.Id.Protein>
6NUR|6NUR_protein|mol2

> <Gold.PLP.Fitness>
45.3583

> <Gold.PLP.PLP>
-37.3784

> <Gold.PLP.part.hbond>
-3.8490

> <Gold.PLP.part.metal>
0.0000

> <Gold.PLP.part.buried>
-4.9241

> <Gold.PLP.part.nonpolar>
-29.9830

> <Gold.PLP.part.repulsive>
0.1004

> <Gold.PLP.ligand.clash>
0.0000

> <Gold.PLP.ligand.torsion>
0.9982

> <Gold.PLP.Chemscore.Hbond>
3.3190

> <Gold.PLP.Chemscore.CHOScore>
0.0000

> <Gold.PLP.Chemscore.Metal>
0.0000

> <Gold.Chemscore.Hbonds>
donor molecule, donor type, donor heavy atom, donor atom, acceptor molecule, acceptor atom, score
      L1  H    12    38       P1  7957  0.46
      L1  H    13    49       P1  8028  2.00
      P1  H  7989  7998       L1    12  0.38
      P1  H  8011  8017       L1    12  0.39

> <Gold.PLP.Chemscore.Internal.Correction>
0.0192

> <Gold.Rescore>
     Score         DG    S(hbond)    S(metal)    S(lipo)     H(rot)  DE(clash)    DE(int)     intcor
     14.20     -15.33       1.94        0.00      93.58       2.96       0.08       1.04       ----

> <Gold.Chemscore.Fitness>
14.2044

> <Gold.Chemscore.DG>
-15.3266

> <Gold.Chemscore.ZeroCoef>
-5.4800

> <Gold.Chemscore.Hbond>
1.9351

> <Gold.Chemscore.Metal>
0.0000

> <Gold.Chemscore.Lipo>
93.5844

> <Gold.Chemscore.Internal_Hbond>
0.0000

> <Gold.Chemscore.DEClash>
0.0810

> <Gold.Chemscore.DEInternal>
1.0413

> <Gold.Chemscore.Rot>
2.9555

> <Gold.Chemscore.Internal.Correction>
   9.000000E+99

> <Gold.Chemscore.Hbonds>
donor molecule, donor type, donor heavy atom, donor atom, acceptor molecule, acceptor atom, score
      L1  H    12    38       P1  7957  0.46
      L1  H    13    49       P1  8028  0.96
      P1  H  7989  7998       L1    12  0.22
      P1  H  8011  8017       L1    12  0.01

> <Gold.Chemscore.Hbond.Weighted>
-6.4633

> <Gold.Chemscore.Metal.Weighted>
-0.0000

> <Gold.Chemscore.Lipo.Weighted>
-10.9494

> <Gold.Chemscore.Internal_Hbond.Weighted>
0.0000

> <Gold.Chemscore.DEClash.Weighted>
0.0810

> <Gold.Chemscore.DEInternal.Weighted>
1.0413

> <Gold.Chemscore.Rot.Weighted>
7.5660

> <Gold.Chemscore.Internal.Correction.Weighted>
   9.000000E+99

> <Gold.Protein.RotatedTorsions>
[ 6907 6896 6895 6894 ] final  166.37 input  -60.11 | X-H torsion
[ 7974 7965 7964 7962 ] final  167.05 input  175.53 | X-H torsion
[ 8008 7997 7996 7995 ] final -122.75 input   59.86 | X-H torsion
[ 10167 10162 10161 10158 ] final  -47.19 input  -65.29 | X-H torsion
[ 10718 10713 10712 10709 ] final  -83.23 input   66.30 | X-H torsion
[ 10763 10752 10751 10750 ] final  -62.51 input  -60.55 | X-H torsion
[ 11005 11000 10999 10996 ] final   52.32 input  -57.11 | X-H torsion

> <Gold.Protein.ActiveResidues>
 VAL166  LYS551  ARG553  GLY616  TRP617  ASP618  TYR619  PRO620  LYS621  CYS622 
 ASP623  PHE694  ASN695  SER759  ASP760  ASP761  ALA762  ILE779  LEU786  VAL792 
 PHE793  MET794  SER795  GLU796  ALA797  LYS798  CYS799  TRP800  GLU811  SER814 

> <Gold.Protein.RotatedAtoms>
  151.8799  133.3493  159.3762 H   0  0  0  0  0  0  0  0  0  0  0  0  # atno 6907 bound_to 6896
  150.7130  134.5029  159.5579 H   0  0  0  0  0  0  0  0  0  0  0  0  # atno 6908 bound_to 6896
  152.2578  134.8066  160.0486 H   0  0  0  0  0  0  0  0  0  0  0  0  # atno 6909 bound_to 6896
  144.7439  139.8704  143.6388 H   0  0  0  0  0  0  0  0  0  0  0  0  # atno 7974 bound_to 7965
  155.1693  140.0408  157.2859 H   0  0  0  0  0  0  0  0  0  0  0  0  # atno 8008 bound_to 7997
  154.6280  140.2517  155.7440 H   0  0  0  0  0  0  0  0  0  0  0  0  # atno 8009 bound_to 7997
  156.2470  140.2881  156.0619 H   0  0  0  0  0  0  0  0  0  0  0  0  # atno 8010 bound_to 7997
  140.6785  143.2796  151.3891 H   0  0  0  0  0  0  0  0  0  0  0  0  # atno 10167 bound_to 10162
  156.0021  130.4659  150.4226 H   0  0  0  0  0  0  0  0  0  0  0  0  # atno 10718 bound_to 10713
  154.3010  135.6234  153.5425 H   0  0  0  0  0  0  0  0  0  0  0  0  # atno 10763 bound_to 10752
  152.9840  135.5678  154.5283 H   0  0  0  0  0  0  0  0  0  0  0  0  # atno 10764 bound_to 10752
  154.4914  135.2867  155.1470 H   0  0  0  0  0  0  0  0  0  0  0  0  # atno 10765 bound_to 10752
  140.0859  134.5275  155.8899 H   0  0  0  0  0  0  0  0  0  0  0  0  # atno 11005 bound_to 11000
  146.1284  139.4315  143.0184 LP  0  0  0  0  0  0  0  0  0  0  0  0  # atno 17320 bound_to 7965
  145.7200  141.0078  143.1407 LP  0  0  0  0  0  0  0  0  0  0  0  0  # atno 17321 bound_to 7965
  139.6093  144.1132  152.2282 LP  0  0  0  0  0  0  0  0  0  0  0  0  # atno 17342 bound_to 10162
  140.0541  144.5909  150.7313 LP  0  0  0  0  0  0  0  0  0  0  0  0  # atno 17343 bound_to 10162
  157.2281  131.0498  151.2508 LP  0  0  0  0  0  0  0  0  0  0  0  0  # atno 17370 bound_to 10713
  157.3737  130.7194  149.6582 LP  0  0  0  0  0  0  0  0  0  0  0  0  # atno 17371 bound_to 10713
  141.2062  133.6653  156.6230 LP  0  0  0  0  0  0  0  0  0  0  0  0  # atno 17394 bound_to 11000
  140.3421  134.7840  157.4405 LP  0  0  0  0  0  0  0  0  0  0  0  0  # atno 17395 bound_to 11000

$$$$
