AV-unprocessed.smi:148|AV-procd|sdf|1231|dock9
  -GOLD-   2262018433D 1   1.00000     0.00000
 Structure written by MMmdl.
 63 67  0  0  0  0  0  0  0  0  1 V2000
  146.9353  135.7402  152.4259 O   0  0  0  0  0  0  0  0  0  0  0  0
  146.0249  134.7760  152.9143 C   0  0  0  0  0  0  0  0  0  0  0  0
  146.3508  133.3600  152.3691 C   0  0  1  0  0  0  0  0  0  0  0  0
  147.3959  132.6284  153.2552 C   0  0  0  0  0  0  0  0  0  0  0  0
  147.1460  132.7589  154.6798 N   0  0  0  0  0  0  0  0  0  0  0  0
  145.9352  132.6296  155.3210 C   0  0  0  0  0  0  0  0  0  0  0  0
  145.9728  132.7946  156.6149 N   0  0  0  0  0  0  0  0  0  0  0  0
  147.3107  133.0573  156.8863 C   0  0  0  0  0  0  0  0  0  0  0  0
  148.0530  133.3425  158.0683 C   0  0  0  0  0  0  0  0  0  0  0  0
  147.5330  133.4241  159.3157 N   0  0  0  0  0  0  0  0  0  0  0  0
  147.5704  134.8174  159.7637 C   0  0  0  0  0  0  0  0  0  0  0  0
  146.7735  135.0191  161.0592 C   0  0  0  0  0  0  0  0  0  0  0  0
  147.2627  134.0520  162.1414 C   0  0  0  0  0  0  0  0  0  0  0  0
  147.1700  132.6115  161.6236 C   0  0  0  0  0  0  0  0  0  0  0  0
  147.9717  132.4241  160.3087 C   0  0  1  0  0  0  0  0  0  0  0  0
  147.9419  130.9532  159.7783 C   0  0  1  0  0  0  0  0  0  0  0  0
  149.0776  130.6062  158.7967 C   0  0  0  0  0  0  0  0  0  0  0  0
  149.3552  129.1029  158.9606 C   0  0  0  0  0  0  0  0  0  0  0  0
  148.3470  128.5904  159.9928 C   0  0  0  0  0  0  0  0  0  0  0  0
  147.9872  129.8232  160.8214 C   0  0  2  0  0  0  0  0  0  0  0  0
  146.7538  129.6400  161.4834 O   0  0  0  0  0  0  0  0  0  0  0  0
  149.3913  133.5259  157.9482 N   0  0  0  0  0  0  0  0  0  0  0  0
  149.9706  133.4626  156.7456 C   0  0  0  0  0  0  0  0  0  0  0  0
  149.4076  133.2249  155.5590 N   0  0  0  0  0  0  0  0  0  0  0  0
  148.0641  133.0244  155.6795 C   0  0  0  0  0  0  0  0  0  0  0  0
  145.0759  132.4915  152.1344 C   0  0  1  0  0  0  0  0  0  0  0  0
  144.0127  133.1406  151.2537 C   0  0  0  0  0  0  0  0  0  0  0  0
  144.4819  132.8247  149.8335 C   0  0  0  0  0  0  0  0  0  0  0  0
  145.2997  131.6646  149.9435 O   0  0  0  0  0  0  0  0  0  0  0  0
  145.3165  131.2278  151.2959 C   0  0  0  0  0  0  0  0  0  0  0  0
  147.7896  135.3406  152.3624 H   0  0  0  0  0  0  0  0  0  0  0  0
  146.0366  134.8022  154.0018 H   0  0  0  0  0  0  0  0  0  0  0  0
  145.0155  135.0821  152.6398 H   0  0  0  0  0  0  0  0  0  0  0  0
  146.8214  133.5136  151.3971 H   0  0  0  0  0  0  0  0  0  0  0  0
  147.4186  131.5666  153.0065 H   0  0  0  0  0  0  0  0  0  0  0  0
  148.3998  133.0095  153.0769 H   0  0  0  0  0  0  0  0  0  0  0  0
  145.0165  132.4146  154.7948 H   0  0  0  0  0  0  0  0  0  0  0  0
  148.6087  135.1142  159.9209 H   0  0  0  0  0  0  0  0  0  0  0  0
  147.1681  135.4737  158.9900 H   0  0  0  0  0  0  0  0  0  0  0  0
  146.8717  136.0493  161.4024 H   0  0  0  0  0  0  0  0  0  0  0  0
  145.7125  134.8532  160.8677 H   0  0  0  0  0  0  0  0  0  0  0  0
  148.2933  134.2847  162.4120 H   0  0  0  0  0  0  0  0  0  0  0  0
  146.6652  134.1671  163.0461 H   0  0  0  0  0  0  0  0  0  0  0  0
  147.5217  131.9348  162.4006 H   0  0  0  0  0  0  0  0  0  0  0  0
  146.1176  132.3784  161.4639 H   0  0  0  0  0  0  0  0  0  0  0  0
  149.0101  132.6562  160.5450 H   0  0  0  0  0  0  0  0  0  0  0  0
  147.0340  130.8000  159.1944 H   0  0  0  0  0  0  0  0  0  0  0  0
  148.7898  130.8491  157.7731 H   0  0  0  0  0  0  0  0  0  0  0  0
  149.9889  131.1646  159.0049 H   0  0  0  0  0  0  0  0  0  0  0  0
  149.2713  128.5641  158.0163 H   0  0  0  0  0  0  0  0  0  0  0  0
  150.3711  128.9569  159.3299 H   0  0  0  0  0  0  0  0  0  0  0  0
  147.4619  128.2165  159.4752 H   0  0  0  0  0  0  0  0  0  0  0  0
  148.7434  127.7761  160.6001 H   0  0  0  0  0  0  0  0  0  0  0  0
  148.7730  129.9894  161.5569 H   0  0  0  0  0  0  0  0  0  0  0  0
  146.8016  128.8452  161.9934 H   0  0  0  0  0  0  0  0  0  0  0  0
  151.0377  133.6280  156.7317 H   0  0  0  0  0  0  0  0  0  0  0  0
  144.6521  132.2208  153.1024 H   0  0  0  0  0  0  0  0  0  0  0  0
  143.0557  132.6469  151.4306 H   0  0  0  0  0  0  0  0  0  0  0  0
  143.8477  134.2031  151.4184 H   0  0  0  0  0  0  0  0  0  0  0  0
  143.6446  132.6551  149.1559 H   0  0  0  0  0  0  0  0  0  0  0  0
  145.0844  133.6399  149.4313 H   0  0  0  0  0  0  0  0  0  0  0  0
  146.2286  130.6825  151.5284 H   0  0  0  0  0  0  0  0  0  0  0  0
  144.4899  130.5292  151.4359 H   0  0  0  0  0  0  0  0  0  0  0  0
  1  2  1  0  0  0  0
  1 31  1  0  0  0  0
  2  3  1  0  0  0  0
  2 32  1  0  0  0  0
  2 33  1  0  0  0  0
  3  4  1  0  0  0  0
  3 26  1  0  0  0  0
  3 34  1  0  0  0  0
  4  5  1  0  0  0  0
  4 35  1  0  0  0  0
  4 36  1  0  0  0  0
  5 25  1  0  0  0  0
  5  6  1  0  0  0  0
  6  7  2  0  0  0  0
  6 37  1  0  0  0  0
  7  8  1  0  0  0  0
  8 25  2  0  0  0  0
  8  9  1  0  0  0  0
  9 10  1  0  0  0  0
  9 22  2  0  0  0  0
 10 15  1  0  0  0  0
 10 11  1  0  0  0  0
 11 12  1  0  0  0  0
 11 38  1  0  0  0  0
 11 39  1  0  0  0  0
 12 13  1  0  0  0  0
 12 40  1  0  0  0  0
 12 41  1  0  0  0  0
 13 14  1  0  0  0  0
 13 42  1  0  0  0  0
 13 43  1  0  0  0  0
 14 15  1  0  0  0  0
 14 44  1  0  0  0  0
 14 45  1  0  0  0  0
 15 16  1  0  0  0  0
 15 46  1  0  0  0  0
 16 20  1  0  0  0  0
 16 17  1  0  0  0  0
 16 47  1  0  0  0  0
 17 18  1  0  0  0  0
 17 48  1  0  0  0  0
 17 49  1  0  0  0  0
 18 19  1  0  0  0  0
 18 50  1  0  0  0  0
 18 51  1  0  0  0  0
 19 20  1  0  0  0  0
 19 52  1  0  0  0  0
 19 53  1  0  0  0  0
 20 21  1  0  0  0  0
 20 54  1  0  0  0  0
 21 55  1  0  0  0  0
 22 23  1  0  0  0  0
 23 24  2  0  0  0  0
 23 56  1  0  0  0  0
 24 25  1  0  0  0  0
 26 30  1  0  0  0  0
 26 27  1  0  0  0  0
 26 57  1  0  0  0  0
 27 28  1  0  0  0  0
 27 58  1  0  0  0  0
 27 59  1  0  0  0  0
 28 29  1  0  0  0  0
 28 60  1  0  0  0  0
 28 61  1  0  0  0  0
 29 30  1  0  0  0  0
 30 62  1  0  0  0  0
 30 63  1  0  0  0  0
M  END
> <s_m_source_file>
AV-unprocessed.smi

> <i_m_source_file_index>
148

> <i_lp_mmshare_version>
43012

> <i_f3d_flags>
0

> <s_epik_input>
W0NIMl0xT1tDSDJdW0NIMl1bQ0BIXTFbQ0BIXShbQ0gyXVtPSF0pW0NIMl1uKFtjSF1uMiljKGMyMyluW2NIXW5jM040W0NIMl1bQ0gyXVtDSDJdW0NIMl1bQ0BIXTRbQ0BASF01W0NIMl1bQ0gyXVtDSDJdW0NASF01W09IXQ==

> <s_epik_cmdline>
J2VwaWtfcHl0aG9uJywgJy1waCcsICc3LjAnLCAnLXRuJywgJzgnLCAnLW1hJywgJzIwMCcsICctbWV0YWxfYmluZGluZycsICctaW1hZScsICc8aW5maWxlLm1hZT4nLCAnLW9tYWUnLCAnPG91dGZpbGUubWFlPic=

> <r_lp_tautomer_probability>
1

> <r_epik_Ionization_Penalty>
0.00556303

> <r_epik_Ionization_Penalty_Charging>
0

> <r_epik_Ionization_Penalty_Neutral>
0.00556303

> <r_epik_State_Penalty>
0.00401767

> <r_epik_Charging_Adjusted_Penalty>
0.00401767

> <i_epik_Tot_Q>
0

> <i_epik_Tot_abs_Q>
0

> <r_epik_Metal_State_Penalty>
-0

> <b_epik_Metal_Only>
0

> <s_lp_Force_Field>
OPLS_2005

> <r_lp_Energy>
69.9352

> <b_lp_Chiralities_Consistent>
1

> <s_lp_Variant>
AV-unprocessed.smi:148-30

> <Gold.Version>
5.8.1

> <Gold.Id.Protein>
6NUR|6NUR_protein|mol2

> <Gold.PLP.Fitness>
39.3964

> <Gold.PLP.PLP>
-32.5013

> <Gold.PLP.part.hbond>
-2.0000

> <Gold.PLP.part.metal>
0.0000

> <Gold.PLP.part.buried>
-6.9367

> <Gold.PLP.part.nonpolar>
-24.4943

> <Gold.PLP.part.repulsive>
0.2433

> <Gold.PLP.ligand.clash>
0.0000

> <Gold.PLP.ligand.torsion>
1.2868

> <Gold.PLP.Chemscore.Hbond>
2.0000

> <Gold.PLP.Chemscore.CHOScore>
0.9998

> <Gold.PLP.Chemscore.Metal>
0.0000

> <Gold.Chemscore.Hbonds>
donor molecule, donor type, donor heavy atom, donor atom, acceptor molecule, acceptor atom, score
      L1  H     1    31       P1  7948  0.36
      P1  H  6896  6908       L1    22  1.00
      L1  C     6    37       P1 10957  1.00

> <Gold.PLP.Chemscore.Internal.Correction>
0.4693

> <Gold.Rescore>
     Score         DG    S(hbond)    S(metal)    S(lipo)     H(rot)  DE(clash)    DE(int)     intcor
     10.68     -13.25       1.90        0.00      84.92       3.32       0.00       2.57       ----

> <Gold.Chemscore.Fitness>
10.6814

> <Gold.Chemscore.DG>
-13.2512

> <Gold.Chemscore.ZeroCoef>
-5.4800

> <Gold.Chemscore.Hbond>
1.8967

> <Gold.Chemscore.Metal>
0.0000

> <Gold.Chemscore.Lipo>
84.9243

> <Gold.Chemscore.Internal_Hbond>
0.0000

> <Gold.Chemscore.DEClash>
0.0000

> <Gold.Chemscore.DEInternal>
2.5698

> <Gold.Chemscore.Rot>
3.3203

> <Gold.Chemscore.Internal.Correction>
   9.000000E+99

> <Gold.Chemscore.Hbonds>
donor molecule, donor type, donor heavy atom, donor atom, acceptor molecule, acceptor atom, score
      L1  H     1    31       P1  7948  0.33
      P1  H  6896  6908       L1    22  0.70

> <Gold.Chemscore.Hbond.Weighted>
-6.3351

> <Gold.Chemscore.Metal.Weighted>
-0.0000

> <Gold.Chemscore.Lipo.Weighted>
-9.9361

> <Gold.Chemscore.Internal_Hbond.Weighted>
0.0000

> <Gold.Chemscore.DEClash.Weighted>
0.0000

> <Gold.Chemscore.DEInternal.Weighted>
2.5698

> <Gold.Chemscore.Rot.Weighted>
8.5000

> <Gold.Chemscore.Internal.Correction.Weighted>
   9.000000E+99

> <Gold.Protein.RotatedTorsions>
[ 6907 6896 6895 6894 ] final  123.48 input  -60.11 | X-H torsion
[ 7974 7965 7964 7962 ] final   68.42 input  175.53 | X-H torsion
[ 8008 7997 7996 7995 ] final  -76.07 input   59.86 | X-H torsion
[ 10167 10162 10161 10158 ] final  -27.67 input  -65.29 | X-H torsion
[ 10718 10713 10712 10709 ] final -145.16 input   66.30 | X-H torsion
[ 10763 10752 10751 10750 ] final  176.62 input  -60.55 | X-H torsion
[ 11005 11000 10999 10996 ] final   65.64 input  -57.11 | X-H torsion

> <Gold.Protein.ActiveResidues>
 VAL166  LYS551  ARG553  GLY616  TRP617  ASP618  TYR619  PRO620  LYS621  CYS622 
 ASP623  PHE694  ASN695  SER759  ASP760  ASP761  ALA762  ILE779  LEU786  VAL792 
 PHE793  MET794  SER795  GLU796  ALA797  LYS798  CYS799  TRP800  GLU811  SER814 

> <Gold.Protein.RotatedAtoms>
  152.4158  133.7036  159.6437 H   0  0  0  0  0  0  0  0  0  0  0  0  # atno 6907 bound_to 6896
  150.8036  133.8542  159.3222 H   0  0  0  0  0  0  0  0  0  0  0  0  # atno 6908 bound_to 6896
  151.6272  135.1028  160.0165 H   0  0  0  0  0  0  0  0  0  0  0  0  # atno 6909 bound_to 6896
  145.8028  139.2991  143.1145 H   0  0  0  0  0  0  0  0  0  0  0  0  # atno 7974 bound_to 7965
  154.5472  140.0733  156.8609 H   0  0  0  0  0  0  0  0  0  0  0  0  # atno 8008 bound_to 7997
  155.3063  140.3387  155.4227 H   0  0  0  0  0  0  0  0  0  0  0  0  # atno 8009 bound_to 7997
  156.1929  140.1693  156.8042 H   0  0  0  0  0  0  0  0  0  0  0  0  # atno 8010 bound_to 7997
  140.7275  143.4074  151.1163 H   0  0  0  0  0  0  0  0  0  0  0  0  # atno 10167 bound_to 10162
  156.3790  130.7827  151.2017 H   0  0  0  0  0  0  0  0  0  0  0  0  # atno 10718 bound_to 10713
  154.4835  135.2776  155.1552 H   0  0  0  0  0  0  0  0  0  0  0  0  # atno 10763 bound_to 10752
  154.3252  135.6201  153.5529 H   0  0  0  0  0  0  0  0  0  0  0  0  # atno 10764 bound_to 10752
  152.9878  135.5752  154.5241 H   0  0  0  0  0  0  0  0  0  0  0  0  # atno 10765 bound_to 10752
  139.9882  134.6634  156.0138 H   0  0  0  0  0  0  0  0  0  0  0  0  # atno 11005 bound_to 11000
  145.9860  140.8643  143.0090 LP  0  0  0  0  0  0  0  0  0  0  0  0  # atno 17320 bound_to 7965
  144.6766  140.2147  143.7373 LP  0  0  0  0  0  0  0  0  0  0  0  0  # atno 17321 bound_to 7965
  139.7702  143.8505  152.3119 LP  0  0  0  0  0  0  0  0  0  0  0  0  # atno 17342 bound_to 10162
  139.8421  144.7205  150.9318 LP  0  0  0  0  0  0  0  0  0  0  0  0  # atno 17343 bound_to 10162
  157.7491  131.0350  150.4342 LP  0  0  0  0  0  0  0  0  0  0  0  0  # atno 17370 bound_to 10713
  156.4582  130.4026  149.6593 LP  0  0  0  0  0  0  0  0  0  0  0  0  # atno 17371 bound_to 10713
  141.1543  133.6544  156.4111 LP  0  0  0  0  0  0  0  0  0  0  0  0  # atno 17394 bound_to 11000
  140.4961  134.6530  157.5230 LP  0  0  0  0  0  0  0  0  0  0  0  0  # atno 17395 bound_to 11000

$$$$
