AV-unprocessed.smi:1202|AV-procd|sdf|5031|dock5
  -GOLD-   22720 4 53D 1   1.00000     0.00000
 Structure written by MMmdl.
 44 45  0  0  0  0  0  0  0  0  3 V2000
  146.9161  132.4440  151.4322 C   0  0  0  0  0  0  0  0  0  0  0  0
  147.8868  132.6250  152.5049 N   0  5  0  0  0  0  0  0  0  0  0  0
  147.6391  133.3547  153.6256 C   0  0  0  0  0  0  0  0  0  0  0  0
  146.6245  133.9617  153.9848 O   0  0  0  0  0  0  0  0  0  0  0  0
  148.8735  133.4105  154.5329 C   0  0  0  0  0  0  0  0  0  0  0  0
  149.3501  134.8103  154.6590 N   0  3  2  0  0  0  0  0  0  0  0  0
  150.7089  134.9168  155.2563 C   0  0  0  0  0  0  0  0  0  0  0  0
  151.2100  136.3702  155.2414 C   0  0  0  0  0  0  0  0  0  0  0  0
  150.2244  137.3064  155.9639 C   0  0  1  0  0  0  0  0  0  0  0  0
  150.6552  138.6970  155.8577 N   0  0  0  0  0  0  0  0  0  0  0  0
  150.9927  139.4835  156.8910 C   0  0  0  0  0  0  0  0  0  0  0  0
  150.9909  139.0975  158.0607 O   0  0  0  0  0  0  0  0  0  0  0  0
  151.4150  140.9164  156.5360 C   0  0  0  0  0  0  0  0  0  0  0  0
  151.7823  141.7229  157.7119 N   0  0  0  0  0  0  0  0  0  0  0  0
  151.1696  142.9853  157.8420 C   0  0  0  0  0  0  0  0  0  0  0  0
  151.4350  143.8001  158.8752 C   0  0  0  0  0  0  0  0  0  0  0  0
  152.3781  143.3529  159.8727 C   0  0  0  0  0  0  0  0  0  0  0  0
  152.9727  142.1488  159.7562 C   0  0  0  0  0  0  0  0  0  0  0  0
  152.6873  141.2558  158.6270 C   0  0  0  0  0  0  0  0  0  0  0  0
  153.2283  140.1557  158.5103 O   0  0  0  0  0  0  0  0  0  0  0  0
  148.8231  137.1468  155.3534 C   0  0  0  0  0  0  0  0  0  0  0  0
  148.3740  135.6762  155.3674 C   0  0  0  0  0  0  0  0  0  0  0  0
  147.3057  131.8101  150.6358 H   0  0  0  0  0  0  0  0  0  0  0  0
  146.6340  133.3879  150.9646 H   0  0  0  0  0  0  0  0  0  0  0  0
  145.9946  131.9747  151.7783 H   0  0  0  0  0  0  0  0  0  0  0  0
  148.5639  133.0324  155.5082 H   0  0  0  0  0  0  0  0  0  0  0  0
  149.6823  132.7590  154.1937 H   0  0  0  0  0  0  0  0  0  0  0  0
  150.6886  134.5375  156.2791 H   0  0  0  0  0  0  0  0  0  0  0  0
  151.4151  134.2953  154.7052 H   0  0  0  0  0  0  0  0  0  0  0  0
  152.1931  136.4215  155.7109 H   0  0  0  0  0  0  0  0  0  0  0  0
  151.3433  136.6957  154.2085 H   0  0  0  0  0  0  0  0  0  0  0  0
  150.1725  137.0258  157.0179 H   0  0  0  0  0  0  0  0  0  0  0  0
  150.6904  139.0951  154.9303 H   0  0  0  0  0  0  0  0  0  0  0  0
  152.2482  140.8601  155.8341 H   0  0  0  0  0  0  0  0  0  0  0  0
  150.6107  141.4072  155.9844 H   0  0  0  0  0  0  0  0  0  0  0  0
  150.4827  143.2483  157.0507 H   0  0  0  0  0  0  0  0  0  0  0  0
  150.9590  144.7663  158.9561 H   0  0  0  0  0  0  0  0  0  0  0  0
  152.6093  143.9877  160.7155 H   0  0  0  0  0  0  0  0  0  0  0  0
  153.6769  141.8320  160.5115 H   0  0  0  0  0  0  0  0  0  0  0  0
  148.1042  137.7560  155.9029 H   0  0  0  0  0  0  0  0  0  0  0  0
  148.8200  137.5152  154.3261 H   0  0  0  0  0  0  0  0  0  0  0  0
  147.3964  135.5975  154.8899 H   0  0  0  0  0  0  0  0  0  0  0  0
  148.2552  135.3271  156.3944 H   0  0  0  0  0  0  0  0  0  0  0  0
  149.4143  135.1633  153.7147 H   0  0  0  0  0  0  0  0  0  0  0  0
  1  2  1  0  0  0  0
  1 23  1  0  0  0  0
  1 24  1  0  0  0  0
  1 25  1  0  0  0  0
  2  3  1  0  0  0  0
  3  4  2  0  0  0  0
  3  5  1  0  0  0  0
  5  6  1  0  0  0  0
  5 26  1  0  0  0  0
  5 27  1  0  0  0  0
  6 22  1  0  0  0  0
  6  7  1  0  0  0  0
  6 44  1  0  0  0  0
  7  8  1  0  0  0  0
  7 28  1  0  0  0  0
  7 29  1  0  0  0  0
  8  9  1  0  0  0  0
  8 30  1  0  0  0  0
  8 31  1  0  0  0  0
  9 10  1  0  0  0  0
  9 21  1  0  0  0  0
  9 32  1  0  0  0  0
 10 11  1  0  0  0  0
 10 33  1  0  0  0  0
 11 12  2  0  0  0  0
 11 13  1  0  0  0  0
 13 14  1  0  0  0  0
 13 34  1  0  0  0  0
 13 35  1  0  0  0  0
 14 19  1  0  0  0  0
 14 15  1  0  0  0  0
 15 16  2  0  0  0  0
 15 36  1  0  0  0  0
 16 17  1  0  0  0  0
 16 37  1  0  0  0  0
 17 18  2  0  0  0  0
 17 38  1  0  0  0  0
 18 19  1  0  0  0  0
 18 39  1  0  0  0  0
 19 20  2  0  0  0  0
 21 22  1  0  0  0  0
 21 40  1  0  0  0  0
 21 41  1  0  0  0  0
 22 42  1  0  0  0  0
 22 43  1  0  0  0  0
M  CHG  1   2  -1
M  CHG  1   6   1
M  END
> <s_m_source_file>
AV-unprocessed.smi

> <i_m_source_file_index>
1202

> <i_lp_mmshare_version>
43012

> <i_f3d_flags>
0

> <s_epik_input>
W0NIM11bTkhdQyg9TylbQ0gyXU4xW0NIMl1bQ0gyXVtDSF0oW0NIMl1bQ0gyXTEpW05IXUMoPU8pW0NIMl1uMltjSF1bY0hdW2NIXVtjSF1jMj1P

> <s_epik_cmdline>
J2VwaWtfcHl0aG9uJywgJy1waCcsICc3LjAnLCAnLXRuJywgJzgnLCAnLW1hJywgJzIwMCcsICctbWV0YWxfYmluZGluZycsICctaW1hZScsICc8aW5maWxlLm1hZT4nLCAnLW9tYWUnLCAnPG91dGZpbGUubWFlPic=

> <r_lp_tautomer_probability>
1

> <r_epik_Ionization_Penalty>
6.12124

> <r_epik_Ionization_Penalty_Charging>
6.12124

> <r_epik_Ionization_Penalty_Neutral>
4.50226e-08

> <r_epik_State_Penalty>
7.08052

> <r_epik_Charging_Adjusted_Penalty>
13.2018

> <i_epik_Tot_Q>
0

> <i_epik_Tot_abs_Q>
2

> <r_epik_Metal_State_Penalty>
3.01282

> <b_epik_Metal_Only>
1

> <s_lp_Force_Field>
OPLS_2005

> <r_lp_Energy>
18.7723

> <b_lp_Chiralities_Consistent>
1

> <s_lp_Variant>
AV-unprocessed.smi:1202-4

> <Gold.Version>
5.8.1

> <Gold.Id.Protein>
6NUR|6NUR_protein|mol2

> <Gold.PLP.Fitness>
45.1143

> <Gold.PLP.PLP>
-33.4291

> <Gold.PLP.part.hbond>
-2.0000

> <Gold.PLP.part.metal>
0.0000

> <Gold.PLP.part.buried>
-4.2451

> <Gold.PLP.part.nonpolar>
-27.0258

> <Gold.PLP.part.repulsive>
0.3274

> <Gold.PLP.ligand.clash>
0.0000

> <Gold.PLP.ligand.torsion>
0.1412

> <Gold.PLP.Chemscore.Hbond>
2.9760

> <Gold.PLP.Chemscore.CHOScore>
1.0000

> <Gold.PLP.Chemscore.Metal>
0.0000

> <Gold.Chemscore.Hbonds>
donor molecule, donor type, donor heavy atom, donor atom, acceptor molecule, acceptor atom, score
      L1  H     6    44       P1  7948  1.22
      P1  H  7997  8010       L1    20  0.96
      L1  C    15    36       P1  8028  0.90

> <Gold.PLP.Chemscore.Internal.Correction>
0.0396

> <Gold.Rescore>
     Score         DG    S(hbond)    S(metal)    S(lipo)     H(rot)  DE(clash)    DE(int)     intcor
      9.60     -15.44       1.81        0.00      80.64       2.15       0.11       5.73       ----

> <Gold.Chemscore.Fitness>
9.6035

> <Gold.Chemscore.DG>
-15.4430

> <Gold.Chemscore.ZeroCoef>
-5.4800

> <Gold.Chemscore.Hbond>
1.8069

> <Gold.Chemscore.Metal>
0.0000

> <Gold.Chemscore.Lipo>
80.6377

> <Gold.Chemscore.Internal_Hbond>
0.0000

> <Gold.Chemscore.DEClash>
0.1096

> <Gold.Chemscore.DEInternal>
5.7300

> <Gold.Chemscore.Rot>
2.1510

> <Gold.Chemscore.Internal.Correction>
   9.000000E+99

> <Gold.Chemscore.Hbonds>
donor molecule, donor type, donor heavy atom, donor atom, acceptor molecule, acceptor atom, score
      L1  H     6    44       P1  7948  0.10
      P1  H  7997  8010       L1    20  0.77

> <Gold.Chemscore.Hbond.Weighted>
-6.0349

> <Gold.Chemscore.Metal.Weighted>
-0.0000

> <Gold.Chemscore.Lipo.Weighted>
-9.4346

> <Gold.Chemscore.Internal_Hbond.Weighted>
0.0000

> <Gold.Chemscore.DEClash.Weighted>
0.1096

> <Gold.Chemscore.DEInternal.Weighted>
5.7300

> <Gold.Chemscore.Rot.Weighted>
5.5065

> <Gold.Chemscore.Internal.Correction.Weighted>
   9.000000E+99

> <Gold.Protein.RotatedTorsions>
[ 6907 6896 6895 6894 ] final  -86.69 input  -60.11 | X-H torsion
[ 7974 7965 7964 7962 ] final   13.71 input  175.53 | X-H torsion
[ 8008 7997 7996 7995 ] final   37.27 input   59.86 | X-H torsion
[ 10167 10162 10161 10158 ] final  -89.15 input  -65.29 | X-H torsion
[ 10718 10713 10712 10709 ] final   20.11 input   66.30 | X-H torsion
[ 10763 10752 10751 10750 ] final  -70.82 input  -60.55 | X-H torsion
[ 11005 11000 10999 10996 ] final -158.84 input  -57.11 | X-H torsion

> <Gold.Protein.ActiveResidues>
 VAL166  LYS551  ARG553  GLY616  TRP617  ASP618  TYR619  PRO620  LYS621  CYS622 
 ASP623  PHE694  ASN695  SER759  ASP760  ASP761  ALA762  ILE779  LEU786  VAL792 
 PHE793  MET794  SER795  GLU796  ALA797  LYS798  CYS799  TRP800  GLU811  SER814 

> <Gold.Protein.RotatedAtoms>
  150.6866  134.3011  159.4706 H   0  0  0  0  0  0  0  0  0  0  0  0  # atno 6907 bound_to 6896
  152.0907  134.9406  160.0581 H   0  0  0  0  0  0  0  0  0  0  0  0  # atno 6908 bound_to 6896
  152.0723  133.4078  159.4502 H   0  0  0  0  0  0  0  0  0  0  0  0  # atno 6909 bound_to 6896
  146.2323  139.9148  142.8519 H   0  0  0  0  0  0  0  0  0  0  0  0  # atno 7974 bound_to 7965
  155.2010  140.3316  155.4343 H   0  0  0  0  0  0  0  0  0  0  0  0  # atno 8008 bound_to 7997
  156.2407  140.1893  156.7047 H   0  0  0  0  0  0  0  0  0  0  0  0  # atno 8009 bound_to 7997
  154.6141  140.0604  156.9517 H   0  0  0  0  0  0  0  0  0  0  0  0  # atno 8010 bound_to 7997
  140.3677  143.2810  151.9538 H   0  0  0  0  0  0  0  0  0  0  0  0  # atno 10167 bound_to 10162
  157.1198  130.6545  149.5921 H   0  0  0  0  0  0  0  0  0  0  0  0  # atno 10718 bound_to 10713
  154.4231  135.5982  153.6022 H   0  0  0  0  0  0  0  0  0  0  0  0  # atno 10763 bound_to 10752
  152.9795  135.5957  154.3931 H   0  0  0  0  0  0  0  0  0  0  0  0  # atno 10764 bound_to 10752
  154.3759  135.2841  155.2218 H   0  0  0  0  0  0  0  0  0  0  0  0  # atno 10765 bound_to 10752
  140.6491  134.4469  157.5235 H   0  0  0  0  0  0  0  0  0  0  0  0  # atno 11005 bound_to 11000
  145.2194  140.9929  143.4054 LP  0  0  0  0  0  0  0  0  0  0  0  0  # atno 17320 bound_to 7965
  144.9623  139.3967  143.6350 LP  0  0  0  0  0  0  0  0  0  0  0  0  # atno 17321 bound_to 7965
  139.4807  144.5935  151.7730 LP  0  0  0  0  0  0  0  0  0  0  0  0  # atno 17342 bound_to 10162
  140.5064  144.1091  150.5984 LP  0  0  0  0  0  0  0  0  0  0  0  0  # atno 17343 bound_to 10162
  155.9831  130.4848  150.6916 LP  0  0  0  0  0  0  0  0  0  0  0  0  # atno 17370 bound_to 10713
  157.4486  131.0870  151.0869 LP  0  0  0  0  0  0  0  0  0  0  0  0  # atno 17371 bound_to 10713
  139.9052  134.8465  156.1735 LP  0  0  0  0  0  0  0  0  0  0  0  0  # atno 17394 bound_to 11000
  141.0550  133.6870  156.1843 LP  0  0  0  0  0  0  0  0  0  0  0  0  # atno 17395 bound_to 11000

$$$$
