AV-unprocessed.smi:2060|AV-procd|sdf|8359|dock9
  -GOLD-   2272011 33D 1   1.00000     0.00000
 Structure written by MMmdl.
 45 46  0  0  0  0  0  0  0  0  3 V2000
  148.0457  140.3950  154.1892 C   0  0  0  0  0  0  0  0  0  0  0  0
  148.1919  138.8797  153.9249 C   0  0  0  0  0  0  0  0  0  0  0  0
  149.1917  138.0653  154.8232 C   0  0  2  0  0  0  0  0  0  0  0  0
  148.9380  138.4762  156.3100 C   0  0  0  0  0  0  0  0  0  0  0  0
  150.6920  138.3963  154.4755 C   0  0  0  0  0  0  0  0  0  0  0  0
  150.9678  139.8304  154.6254 N   0  5  0  0  0  0  0  0  0  0  0  0
  151.6272  140.3867  155.6778 C   0  0  0  0  0  0  0  0  0  0  0  0
  152.6894  140.0082  156.1850 O   0  0  0  0  0  0  0  0  0  0  0  0
  150.9850  141.4628  156.1680 N   0  0  0  0  0  0  0  0  0  0  0  0
  151.3501  142.2960  157.2586 C   0  0  0  0  0  0  0  0  0  0  0  0
  150.9848  143.6687  157.2752 C   0  0  0  0  0  0  0  0  0  0  0  0
  151.5048  144.1129  158.4582 C   0  0  0  0  0  0  0  0  0  0  0  0
  151.5064  145.4429  159.1303 C   0  0  0  0  0  0  0  0  0  0  0  0
  152.1339  143.0980  159.1100 O   0  0  0  0  0  0  0  0  0  0  0  0
  152.0305  141.9357  158.3367 N   0  0  0  0  0  0  0  0  0  0  0  0
  148.9711  136.5763  154.6167 N   0  3  0  0  0  0  0  0  0  0  0  0
  149.9953  135.6552  155.1898 C   0  0  0  0  0  0  0  0  0  0  0  0
  149.7558  134.2109  154.7148 C   0  0  0  0  0  0  0  0  0  0  0  0
  148.4429  133.7898  155.0551 O   0  0  0  0  0  0  0  0  0  0  0  0
  147.4584  134.6040  154.4350 C   0  0  0  0  0  0  0  0  0  0  0  0
  147.6093  136.0458  154.9404 C   0  0  0  0  0  0  0  0  0  0  0  0
  147.3471  140.8350  153.4774 H   0  0  0  0  0  0  0  0  0  0  0  0
  148.9898  140.9286  154.0805 H   0  0  0  0  0  0  0  0  0  0  0  0
  147.6528  140.5997  155.1846 H   0  0  0  0  0  0  0  0  0  0  0  0
  147.1967  138.4481  154.0397 H   0  0  0  0  0  0  0  0  0  0  0  0
  148.4308  138.7603  152.8661 H   0  0  0  0  0  0  0  0  0  0  0  0
  149.2115  139.5120  156.5226 H   0  0  0  0  0  0  0  0  0  0  0  0
  149.4953  137.8613  157.0199 H   0  0  0  0  0  0  0  0  0  0  0  0
  147.8825  138.3931  156.5709 H   0  0  0  0  0  0  0  0  0  0  0  0
  151.3353  137.7964  155.1202 H   0  0  0  0  0  0  0  0  0  0  0  0
  150.9120  138.0578  153.4630 H   0  0  0  0  0  0  0  0  0  0  0  0
  150.1297  141.7148  155.6961 H   0  0  0  0  0  0  0  0  0  0  0  0
  150.4328  144.2361  156.5407 H   0  0  0  0  0  0  0  0  0  0  0  0
  150.8778  146.1523  158.5919 H   0  0  0  0  0  0  0  0  0  0  0  0
  152.5162  145.8512  159.1743 H   0  0  0  0  0  0  0  0  0  0  0  0
  151.1281  145.3619  160.1494 H   0  0  0  0  0  0  0  0  0  0  0  0
  151.0034  135.9173  154.8754 H   0  0  0  0  0  0  0  0  0  0  0  0
  149.9698  135.7059  156.2790 H   0  0  0  0  0  0  0  0  0  0  0  0
  149.9066  134.1285  153.6371 H   0  0  0  0  0  0  0  0  0  0  0  0
  150.4733  133.5390  155.1862 H   0  0  0  0  0  0  0  0  0  0  0  0
  147.5489  134.5561  153.3484 H   0  0  0  0  0  0  0  0  0  0  0  0
  146.4717  134.2177  154.6910 H   0  0  0  0  0  0  0  0  0  0  0  0
  147.4454  136.0599  156.0184 H   0  0  0  0  0  0  0  0  0  0  0  0
  146.8221  136.6511  154.4923 H   0  0  0  0  0  0  0  0  0  0  0  0
  149.0678  136.4750  153.6150 H   0  0  0  0  0  0  0  0  0  0  0  0
  1  2  1  0  0  0  0
  1 22  1  0  0  0  0
  1 23  1  0  0  0  0
  1 24  1  0  0  0  0
  2  3  1  0  0  0  0
  2 25  1  0  0  0  0
  2 26  1  0  0  0  0
  3  4  1  0  0  0  0
  3  5  1  0  0  0  0
  3 16  1  0  0  0  0
  4 27  1  0  0  0  0
  4 28  1  0  0  0  0
  4 29  1  0  0  0  0
  5  6  1  0  0  0  0
  5 30  1  0  0  0  0
  5 31  1  0  0  0  0
  6  7  1  0  0  0  0
  7  8  2  0  0  0  0
  7  9  1  0  0  0  0
  9 10  1  0  0  0  0
  9 32  1  0  0  0  0
 10 15  2  0  0  0  0
 10 11  1  0  0  0  0
 11 12  2  0  0  0  0
 11 33  1  0  0  0  0
 12 13  1  0  0  0  0
 12 14  1  0  0  0  0
 13 34  1  0  0  0  0
 13 35  1  0  0  0  0
 13 36  1  0  0  0  0
 14 15  1  0  0  0  0
 16 21  1  0  0  0  0
 16 17  1  0  0  0  0
 16 45  1  0  0  0  0
 17 18  1  0  0  0  0
 17 37  1  0  0  0  0
 17 38  1  0  0  0  0
 18 19  1  0  0  0  0
 18 39  1  0  0  0  0
 18 40  1  0  0  0  0
 19 20  1  0  0  0  0
 20 21  1  0  0  0  0
 20 41  1  0  0  0  0
 20 42  1  0  0  0  0
 21 43  1  0  0  0  0
 21 44  1  0  0  0  0
M  CHG  1   6  -1
M  CHG  1  16   1
M  END
> <s_m_source_file>
AV-unprocessed.smi

> <i_m_source_file_index>
2060

> <i_lp_mmshare_version>
43012

> <i_f3d_flags>
0

> <s_epik_input>
W0NIMl0xW0NIMl1PW0NIMl1bQ0gyXU4xW0NAQF0oW0NIM10pKFtDSDJdW0NIM10pW0NIMl1bTkhdQyg9TylbTkhdYzJbY0hdYyhbQ0gzXSlvbjI=

> <s_epik_cmdline>
J2VwaWtfcHl0aG9uJywgJy1waCcsICc3LjAnLCAnLXRuJywgJzgnLCAnLW1hJywgJzIwMCcsICctbWV0YWxfYmluZGluZycsICctaW1hZScsICc8aW5maWxlLm1hZT4nLCAnLW9tYWUnLCAnPG91dGZpbGUubWFlPic=

> <r_epik_Ionization_Penalty>
6.79469

> <r_epik_Ionization_Penalty_Charging>
6.79469

> <r_epik_Ionization_Penalty_Neutral>
5.68576e-06

> <r_epik_State_Penalty>
7.33145

> <r_epik_Charging_Adjusted_Penalty>
14.1261

> <i_epik_Tot_Q>
0

> <i_epik_Tot_abs_Q>
2

> <r_epik_Metal_State_Penalty>
3.24803

> <b_epik_Metal_Only>
1

> <s_lp_Force_Field>
OPLS_2005

> <r_lp_Energy>
28.6548

> <b_lp_Chiralities_Consistent>
1

> <s_lp_Variant>
AV-unprocessed.smi:2060-6

> <Gold.Version>
5.8.1

> <Gold.Id.Protein>
6NUR|6NUR_protein|mol2

> <Gold.PLP.Fitness>
44.2326

> <Gold.PLP.PLP>
-33.8227

> <Gold.PLP.part.hbond>
-3.0000

> <Gold.PLP.part.metal>
0.0000

> <Gold.PLP.part.buried>
-3.8977

> <Gold.PLP.part.nonpolar>
-26.5986

> <Gold.PLP.part.repulsive>
0.2472

> <Gold.PLP.ligand.clash>
0.0000

> <Gold.PLP.ligand.torsion>
0.9428

> <Gold.PLP.Chemscore.Hbond>
4.0000

> <Gold.PLP.Chemscore.CHOScore>
0.0000

> <Gold.PLP.Chemscore.Metal>
0.0000

> <Gold.Chemscore.Hbonds>
donor molecule, donor type, donor heavy atom, donor atom, acceptor molecule, acceptor atom, score
      L1  H    16    45       P1  7948  2.00
      P1  H  7989  7998       L1     6  0.70
      P1  H  7997  8009       L1     8  1.00

> <Gold.PLP.Chemscore.Internal.Correction>
0.2956

> <Gold.Rescore>
     Score         DG    S(hbond)    S(metal)    S(lipo)     H(rot)  DE(clash)    DE(int)     intcor
     16.02     -18.62       2.74        0.00      71.76       1.73       0.14       2.45       ----

> <Gold.Chemscore.Fitness>
16.0225

> <Gold.Chemscore.DG>
-18.6158

> <Gold.Chemscore.ZeroCoef>
-5.4800

> <Gold.Chemscore.Hbond>
2.7447

> <Gold.Chemscore.Metal>
0.0000

> <Gold.Chemscore.Lipo>
71.7589

> <Gold.Chemscore.Internal_Hbond>
0.0000

> <Gold.Chemscore.DEClash>
0.1410

> <Gold.Chemscore.DEInternal>
2.4522

> <Gold.Chemscore.Rot>
1.7294

> <Gold.Chemscore.Internal.Correction>
   9.000000E+99

> <Gold.Chemscore.Hbonds>
donor molecule, donor type, donor heavy atom, donor atom, acceptor molecule, acceptor atom, score
      L1  H    16    45       P1  7948  0.99
      P1  H  7989  7998       L1     6  0.07
      P1  H  7997  8009       L1     8  0.99

> <Gold.Chemscore.Hbond.Weighted>
-9.1672

> <Gold.Chemscore.Metal.Weighted>
-0.0000

> <Gold.Chemscore.Lipo.Weighted>
-8.3958

> <Gold.Chemscore.Internal_Hbond.Weighted>
0.0000

> <Gold.Chemscore.DEClash.Weighted>
0.1410

> <Gold.Chemscore.DEInternal.Weighted>
2.4522

> <Gold.Chemscore.Rot.Weighted>
4.4272

> <Gold.Chemscore.Internal.Correction.Weighted>
   9.000000E+99

> <Gold.Protein.RotatedTorsions>
[ 6907 6896 6895 6894 ] final  -73.86 input  -60.11 | X-H torsion
[ 7974 7965 7964 7962 ] final  -28.24 input  175.53 | X-H torsion
[ 8008 7997 7996 7995 ] final -153.11 input   59.86 | X-H torsion
[ 10167 10162 10161 10158 ] final   63.17 input  -65.29 | X-H torsion
[ 10718 10713 10712 10709 ] final   -3.97 input   66.30 | X-H torsion
[ 10763 10752 10751 10750 ] final   -3.20 input  -60.55 | X-H torsion
[ 11005 11000 10999 10996 ] final  -11.50 input  -57.11 | X-H torsion

> <Gold.Protein.ActiveResidues>
 VAL166  LYS551  ARG553  GLY616  TRP617  ASP618  TYR619  PRO620  LYS621  CYS622 
 ASP623  PHE694  ASN695  SER759  ASP760  ASP761  ALA762  ILE779  LEU786  VAL792 
 PHE793  MET794  SER795  GLU796  ALA797  LYS798  CYS799  TRP800  GLU811  SER814 

> <Gold.Protein.RotatedAtoms>
  150.7114  134.4954  159.5535 H   0  0  0  0  0  0  0  0  0  0  0  0  # atno 6907 bound_to 6896
  152.2563  134.8078  160.0447 H   0  0  0  0  0  0  0  0  0  0  0  0  # atno 6908 bound_to 6896
  151.8807  133.3459  159.3802 H   0  0  0  0  0  0  0  0  0  0  0  0  # atno 6909 bound_to 6896
  146.1302  140.5256  142.8697 H   0  0  0  0  0  0  0  0  0  0  0  0  # atno 7974 bound_to 7965
  155.6657  140.0727  157.2538 H   0  0  0  0  0  0  0  0  0  0  0  0  # atno 8008 bound_to 7997
  154.4133  140.1708  156.1875 H   0  0  0  0  0  0  0  0  0  0  0  0  # atno 8009 bound_to 7997
  155.9659  140.3366  155.6535 H   0  0  0  0  0  0  0  0  0  0  0  0  # atno 8010 bound_to 7997
  140.1360  144.4599  150.6838 H   0  0  0  0  0  0  0  0  0  0  0  0  # atno 10167 bound_to 10162
  156.7682  130.5291  149.5772 H   0  0  0  0  0  0  0  0  0  0  0  0  # atno 10718 bound_to 10713
  153.3682  135.6993  153.6659 H   0  0  0  0  0  0  0  0  0  0  0  0  # atno 10763 bound_to 10752
  153.5320  135.3590  155.2680 H   0  0  0  0  0  0  0  0  0  0  0  0  # atno 10764 bound_to 10752
  154.8677  135.4183  154.2954 H   0  0  0  0  0  0  0  0  0  0  0  0  # atno 10765 bound_to 10752
  140.7560  133.8554  155.9084 H   0  0  0  0  0  0  0  0  0  0  0  0  # atno 11005 bound_to 11000
  144.7683  140.5580  143.6688 LP  0  0  0  0  0  0  0  0  0  0  0  0  # atno 17320 bound_to 7965
  145.5277  139.1475  143.3517 LP  0  0  0  0  0  0  0  0  0  0  0  0  # atno 17321 bound_to 7965
  140.6789  143.2317  151.5436 LP  0  0  0  0  0  0  0  0  0  0  0  0  # atno 17342 bound_to 10162
  139.5496  144.2431  152.1506 LP  0  0  0  0  0  0  0  0  0  0  0  0  # atno 17343 bound_to 10162
  156.1295  130.6168  151.0313 LP  0  0  0  0  0  0  0  0  0  0  0  0  # atno 17370 bound_to 10713
  157.6703  131.0863  150.7628 LP  0  0  0  0  0  0  0  0  0  0  0  0  # atno 17371 bound_to 10713
  140.9707  134.1534  157.4578 LP  0  0  0  0  0  0  0  0  0  0  0  0  # atno 17394 bound_to 11000
  139.8779  134.9977  156.5864 LP  0  0  0  0  0  0  0  0  0  0  0  0  # atno 17395 bound_to 11000

$$$$
