AV-unprocessed.smi:600|AV-procd|sdf|3030|dock10
  -GOLD-   2262023543D 1   1.00000     0.00000
 Structure written by MMmdl.
 33 34  0  0  0  0  0  0  0  0  1 V2000
  152.0273  144.0887  158.1735 C   0  0  0  0  0  0  0  0  0  0  0  0
  151.0740  143.1912  157.6337 O   0  0  0  0  0  0  0  0  0  0  0  0
  151.3439  141.8421  157.9771 C   0  0  0  0  0  0  0  0  0  0  0  0
  150.2628  140.9244  157.3836 C   0  0  0  0  0  0  0  0  0  0  0  0
  150.5967  139.5065  157.5602 N   0  0  0  0  0  0  0  0  0  0  0  0
  149.6947  138.8131  158.3496 N   0  0  0  0  0  0  0  0  0  0  0  0
  149.8766  137.5590  158.6076 C   0  0  0  0  0  0  0  0  0  0  0  0
  148.8953  136.8328  159.4718 C   0  0  0  0  0  0  0  0  0  0  0  0
  148.2120  137.4936  160.2621 O   0  0  0  0  0  0  0  0  0  0  0  0
  148.8665  135.4507  159.2827 N   0  0  0  0  0  0  0  0  0  0  0  0
  148.1748  134.6638  160.0518 C   0  0  0  0  0  0  0  0  0  0  0  0
  147.3723  134.9916  161.1401 N   0  0  0  0  0  0  0  0  0  0  0  0
  146.9890  133.9170  162.0372 C   0  0  0  0  0  0  0  0  0  0  0  0
  146.8981  132.6405  161.2058 C   0  0  0  0  0  0  0  0  0  0  0  0
  148.0912  132.8617  159.8741 S   0  0  0  0  0  0  0  0  0  0  0  0
  151.0310  136.8529  158.0623 C   0  0  0  0  0  0  0  0  0  0  0  0
  151.9024  137.5439  157.2955 C   0  0  0  0  0  0  0  0  0  0  0  0
  151.7201  138.9652  157.0007 C   0  0  0  0  0  0  0  0  0  0  0  0
  152.5084  139.6146  156.3142 O   0  0  0  0  0  0  0  0  0  0  0  0
  151.7736  145.1091  157.8866 H   0  0  0  0  0  0  0  0  0  0  0  0
  153.0283  143.8728  157.7978 H   0  0  0  0  0  0  0  0  0  0  0  0
  152.0437  144.0387  159.2629 H   0  0  0  0  0  0  0  0  0  0  0  0
  152.3320  141.5473  157.6198 H   0  0  0  0  0  0  0  0  0  0  0  0
  151.3493  141.7407  159.0632 H   0  0  0  0  0  0  0  0  0  0  0  0
  149.3135  141.1266  157.8825 H   0  0  0  0  0  0  0  0  0  0  0  0
  150.0913  141.1728  156.3350 H   0  0  0  0  0  0  0  0  0  0  0  0
  147.7544  133.8186  162.8075 H   0  0  0  0  0  0  0  0  0  0  0  0
  146.0436  134.1404  162.5321 H   0  0  0  0  0  0  0  0  0  0  0  0
  147.1030  131.7433  161.7899 H   0  0  0  0  0  0  0  0  0  0  0  0
  145.9056  132.5433  160.7650 H   0  0  0  0  0  0  0  0  0  0  0  0
  151.2075  135.8043  158.2503 H   0  0  0  0  0  0  0  0  0  0  0  0
  152.7612  137.0330  156.8859 H   0  0  0  0  0  0  0  0  0  0  0  0
  147.2538  135.9363  161.4777 H   0  0  0  0  0  0  0  0  0  0  0  0
  1  2  1  0  0  0  0
  1 20  1  0  0  0  0
  1 21  1  0  0  0  0
  1 22  1  0  0  0  0
  2  3  1  0  0  0  0
  3  4  1  0  0  0  0
  3 23  1  0  0  0  0
  3 24  1  0  0  0  0
  4  5  1  0  0  0  0
  4 25  1  0  0  0  0
  4 26  1  0  0  0  0
  5 18  1  0  0  0  0
  5  6  1  0  0  0  0
  6  7  2  0  0  0  0
  7  8  1  0  0  0  0
  7 16  1  0  0  0  0
  8  9  2  0  0  0  0
  8 10  1  0  0  0  0
 10 11  2  0  0  0  0
 11 15  1  0  0  0  0
 11 12  1  0  0  0  0
 12 13  1  0  0  0  0
 12 33  1  0  0  0  0
 13 14  1  0  0  0  0
 13 27  1  0  0  0  0
 13 28  1  0  0  0  0
 14 15  1  0  0  0  0
 14 29  1  0  0  0  0
 14 30  1  0  0  0  0
 16 17  2  0  0  0  0
 16 31  1  0  0  0  0
 17 18  1  0  0  0  0
 17 32  1  0  0  0  0
 18 19  2  0  0  0  0
M  END
> <s_m_source_file>
AV-unprocessed.smi

> <i_m_source_file_index>
600

> <i_lp_mmshare_version>
43012

> <i_f3d_flags>
0

> <s_epik_input>
W0NIM11PW0NIMl1bQ0gyXW4xbmMoW2NIXVtjSF1jMT1PKUMoPU8pW05IXUMyPU5bQ0gyXVtDSDJdUzI=

> <s_epik_cmdline>
J2VwaWtfcHl0aG9uJywgJy1waCcsICc3LjAnLCAnLXRuJywgJzgnLCAnLW1hJywgJzIwMCcsICctbWV0YWxfYmluZGluZycsICctaW1hZScsICc8aW5maWxlLm1hZT4nLCAnLW9tYWUnLCAnPG91dGZpbGUubWFlPic=

> <r_epik_Ionization_Penalty>
0.0115713

> <r_epik_Ionization_Penalty_Charging>
8.15052e-11

> <r_epik_Ionization_Penalty_Neutral>
0.0115713

> <r_epik_State_Penalty>
0.0066973

> <r_epik_Charging_Adjusted_Penalty>
0.0066973

> <i_epik_Tot_Q>
0

> <i_epik_Tot_abs_Q>
0

> <r_epik_Metal_State_Penalty>
-0

> <b_epik_Metal_Only>
0

> <s_epik_Chemistry_Notes>
This compound has an imine and may undergo hydrolysis.

> <s_lp_Force_Field>
OPLS_2005

> <r_lp_Energy>
40.8102

> <b_lp_Chiralities_Consistent>
1

> <s_lp_Variant>
AV-unprocessed.smi:600-1

> <Gold.Version>
5.8.1

> <Gold.Id.Protein>
6NUR|6NUR_protein|mol2

> <Gold.PLP.Fitness>
35.1765

> <Gold.PLP.PLP>
-26.3918

> <Gold.PLP.part.hbond>
-4.0000

> <Gold.PLP.part.metal>
0.0000

> <Gold.PLP.part.buried>
-3.6649

> <Gold.PLP.part.nonpolar>
-19.7694

> <Gold.PLP.part.repulsive>
0.1774

> <Gold.PLP.ligand.clash>
0.0000

> <Gold.PLP.ligand.torsion>
0.2738

> <Gold.PLP.Chemscore.Hbond>
3.1040

> <Gold.PLP.Chemscore.CHOScore>
0.0000

> <Gold.PLP.Chemscore.Metal>
0.0000

> <Gold.Chemscore.Hbonds>
donor molecule, donor type, donor heavy atom, donor atom, acceptor molecule, acceptor atom, score
      P1  H  6896  6907       L1    10  0.99
      P1  H  6931  6943       L1     9  0.54
      P1  H  6934  6947       L1     9  0.58
      P1  H  7997  8009       L1    19  1.00

> <Gold.PLP.Chemscore.Internal.Correction>
0.0202

> <Gold.Rescore>
     Score         DG    S(hbond)    S(metal)    S(lipo)     H(rot)  DE(clash)    DE(int)     intcor
     16.12     -16.97       2.68        0.00      55.46       1.54       0.45       0.40       ----

> <Gold.Chemscore.Fitness>
16.1194

> <Gold.Chemscore.DG>
-16.9660

> <Gold.Chemscore.ZeroCoef>
-5.4800

> <Gold.Chemscore.Hbond>
2.6785

> <Gold.Chemscore.Metal>
0.0000

> <Gold.Chemscore.Lipo>
55.4581

> <Gold.Chemscore.Internal_Hbond>
0.0000

> <Gold.Chemscore.DEClash>
0.4463

> <Gold.Chemscore.DEInternal>
0.4004

> <Gold.Chemscore.Rot>
1.5425

> <Gold.Chemscore.Internal.Correction>
   9.000000E+99

> <Gold.Chemscore.Hbonds>
donor molecule, donor type, donor heavy atom, donor atom, acceptor molecule, acceptor atom, score
      P1  H  6896  6907       L1    10  0.16
      P1  H  6931  6943       L1     9  0.52
      P1  H  6934  6947       L1     9  0.55
      P1  H  7997  8009       L1    19  1.00

> <Gold.Chemscore.Hbond.Weighted>
-8.9463

> <Gold.Chemscore.Metal.Weighted>
-0.0000

> <Gold.Chemscore.Lipo.Weighted>
-6.4886

> <Gold.Chemscore.Internal_Hbond.Weighted>
0.0000

> <Gold.Chemscore.DEClash.Weighted>
0.4463

> <Gold.Chemscore.DEInternal.Weighted>
0.4004

> <Gold.Chemscore.Rot.Weighted>
3.9489

> <Gold.Chemscore.Internal.Correction.Weighted>
   9.000000E+99

> <Gold.Protein.RotatedTorsions>
[ 6907 6896 6895 6894 ] final  -59.85 input  -60.11 | X-H torsion
[ 7974 7965 7964 7962 ] final  116.88 input  175.53 | X-H torsion
[ 8008 7997 7996 7995 ] final -153.49 input   59.86 | X-H torsion
[ 10167 10162 10161 10158 ] final   -4.73 input  -65.29 | X-H torsion
[ 10718 10713 10712 10709 ] final -159.01 input   66.30 | X-H torsion
[ 10763 10752 10751 10750 ] final  -94.42 input  -60.55 | X-H torsion
[ 11005 11000 10999 10996 ] final  -38.81 input  -57.11 | X-H torsion

> <Gold.Protein.ActiveResidues>
 VAL166  LYS551  ARG553  GLY616  TRP617  ASP618  TYR619  PRO620  LYS621  CYS622 
 ASP623  PHE694  ASN695  SER759  ASP760  ASP761  ALA762  ILE779  LEU786  VAL792 
 PHE793  MET794  SER795  GLU796  ALA797  LYS798  CYS799  TRP800  GLU811  SER814 

> <Gold.Protein.RotatedAtoms>
  150.7900  134.6915  159.6499 H   0  0  0  0  0  0  0  0  0  0  0  0  # atno 6907 bound_to 6896
  152.4003  134.6293  160.0081 H   0  0  0  0  0  0  0  0  0  0  0  0  # atno 6908 bound_to 6896
  151.6567  133.3282  159.3200 H   0  0  0  0  0  0  0  0  0  0  0  0  # atno 6909 bound_to 6896
  145.1742  139.3085  143.4452 H   0  0  0  0  0  0  0  0  0  0  0  0  # atno 7974 bound_to 7965
  155.6717  140.0734  157.2517 H   0  0  0  0  0  0  0  0  0  0  0  0  # atno 8008 bound_to 7997
  154.4122  140.1698  156.1937 H   0  0  0  0  0  0  0  0  0  0  0  0  # atno 8009 bound_to 7997
  155.9611  140.3370  155.6494 H   0  0  0  0  0  0  0  0  0  0  0  0  # atno 8010 bound_to 7997
  140.6938  143.6389  150.8453 H   0  0  0  0  0  0  0  0  0  0  0  0  # atno 10167 bound_to 10162
  156.5622  130.8652  151.2813 H   0  0  0  0  0  0  0  0  0  0  0  0  # atno 10718 bound_to 10713
  154.7053  135.5158  153.8586 H   0  0  0  0  0  0  0  0  0  0  0  0  # atno 10763 bound_to 10752
  153.0736  135.6609  154.0202 H   0  0  0  0  0  0  0  0  0  0  0  0  # atno 10764 bound_to 10752
  154.0054  135.3007  155.3378 H   0  0  0  0  0  0  0  0  0  0  0  0  # atno 10765 bound_to 10752
  141.0055  133.6934  156.2103 H   0  0  0  0  0  0  0  0  0  0  0  0  # atno 11005 bound_to 11000
  146.3464  140.1899  142.8589 LP  0  0  0  0  0  0  0  0  0  0  0  0  # atno 17320 bound_to 7965
  145.0202  140.8787  143.5171 LP  0  0  0  0  0  0  0  0  0  0  0  0  # atno 17321 bound_to 7965
  140.0105  143.5648  152.2841 LP  0  0  0  0  0  0  0  0  0  0  0  0  # atno 17342 bound_to 10162
  139.6370  144.7651  151.2418 LP  0  0  0  0  0  0  0  0  0  0  0  0  # atno 17343 bound_to 10162
  157.7366  130.9782  150.2146 LP  0  0  0  0  0  0  0  0  0  0  0  0  # atno 17370 bound_to 10713
  156.2789  130.3731  149.7955 LP  0  0  0  0  0  0  0  0  0  0  0  0  # atno 17371 bound_to 10713
  140.6819  134.4758  157.5589 LP  0  0  0  0  0  0  0  0  0  0  0  0  # atno 17394 bound_to 11000
  139.9061  134.8446  156.1701 LP  0  0  0  0  0  0  0  0  0  0  0  0  # atno 17395 bound_to 11000

$$$$
