AV-unprocessed.smi:3266|AV-procd|sdf|12501|dock8
  -GOLD-   2272018403D 1   1.00000     0.00000
 Structure written by MMmdl.
 38 39  0  0  0  0  0  0  0  0  1 V2000
  153.8085  139.1049  158.1755 O   0  0  0  0  0  0  0  0  0  0  0  0
  152.7577  139.7103  158.3887 C   0  0  0  0  0  0  0  0  0  0  0  0
  151.5839  139.5847  157.4146 C   0  0  0  0  0  0  0  0  0  0  0  0
  151.9973  138.9355  156.0822 C   0  0  0  0  0  0  0  0  0  0  0  0
  150.8704  138.9532  155.0395 C   0  0  1  0  0  0  0  0  0  0  0  0
  149.6058  138.2259  155.4856 C   0  0  0  0  0  0  0  0  0  0  0  0
  148.5349  138.8378  154.6001 C   0  0  0  0  0  0  0  0  0  0  0  0
  149.1259  140.1900  154.1863 C   0  0  0  0  0  0  0  0  0  0  0  0
  150.3959  140.2727  154.8229 O   0  0  0  0  0  0  0  0  0  0  0  0
  152.5663  140.4966  159.4589 N   0  0  0  0  0  0  0  0  0  0  0  0
  153.5543  140.7392  160.5058 C   0  0  0  0  0  0  0  0  0  0  0  0
  153.2675  142.0176  161.3179 C   0  0  0  0  0  0  0  0  0  0  0  0
  152.6810  143.1500  160.4905 C   0  0  0  0  0  0  0  0  0  0  0  0
  152.0694  144.2538  161.1227 C   0  0  0  0  0  0  0  0  0  0  0  0
  151.5462  145.2844  160.3182 C   0  0  0  0  0  0  0  0  0  0  0  0
  151.6552  145.1737  158.9187 C   0  0  0  0  0  0  0  0  0  0  0  0
  152.2840  144.0315  158.3841 C   0  0  0  0  0  0  0  0  0  0  0  0
  152.7883  143.0377  159.1467 N   0  0  0  0  0  0  0  0  0  0  0  0
  150.8039  138.9914  157.8934 H   0  0  0  0  0  0  0  0  0  0  0  0
  151.1545  140.5700  157.2267 H   0  0  0  0  0  0  0  0  0  0  0  0
  152.8604  139.4664  155.6777 H   0  0  0  0  0  0  0  0  0  0  0  0
  152.3197  137.9065  156.2494 H   0  0  0  0  0  0  0  0  0  0  0  0
  151.2185  138.5389  154.0915 H   0  0  0  0  0  0  0  0  0  0  0  0
  149.6791  137.1430  155.3797 H   0  0  0  0  0  0  0  0  0  0  0  0
  149.3902  138.4507  156.5312 H   0  0  0  0  0  0  0  0  0  0  0  0
  148.3629  138.2174  153.7199 H   0  0  0  0  0  0  0  0  0  0  0  0
  147.5865  138.9429  155.1278 H   0  0  0  0  0  0  0  0  0  0  0  0
  149.2563  140.2378  153.1044 H   0  0  0  0  0  0  0  0  0  0  0  0
  148.4955  141.0263  154.4895 H   0  0  0  0  0  0  0  0  0  0  0  0
  151.6705  140.9512  159.5609 H   0  0  0  0  0  0  0  0  0  0  0  0
  153.6077  139.8770  161.1726 H   0  0  0  0  0  0  0  0  0  0  0  0
  154.5330  140.8182  160.0318 H   0  0  0  0  0  0  0  0  0  0  0  0
  152.5892  141.7903  162.1415 H   0  0  0  0  0  0  0  0  0  0  0  0
  154.1915  142.3646  161.7818 H   0  0  0  0  0  0  0  0  0  0  0  0
  152.0030  144.3113  162.1993 H   0  0  0  0  0  0  0  0  0  0  0  0
  151.0710  146.1443  160.7667 H   0  0  0  0  0  0  0  0  0  0  0  0
  151.2665  145.9450  158.2707 H   0  0  0  0  0  0  0  0  0  0  0  0
  152.3847  143.9132  157.3154 H   0  0  0  0  0  0  0  0  0  0  0  0
  1  2  2  0  0  0  0
  2  3  1  0  0  0  0
  2 10  1  0  0  0  0
  3  4  1  0  0  0  0
  3 19  1  0  0  0  0
  3 20  1  0  0  0  0
  4  5  1  0  0  0  0
  4 21  1  0  0  0  0
  4 22  1  0  0  0  0
  5  9  1  0  0  0  0
  5  6  1  0  0  0  0
  5 23  1  0  0  0  0
  6  7  1  0  0  0  0
  6 24  1  0  0  0  0
  6 25  1  0  0  0  0
  7  8  1  0  0  0  0
  7 26  1  0  0  0  0
  7 27  1  0  0  0  0
  8  9  1  0  0  0  0
  8 28  1  0  0  0  0
  8 29  1  0  0  0  0
 10 11  1  0  0  0  0
 10 30  1  0  0  0  0
 11 12  1  0  0  0  0
 11 31  1  0  0  0  0
 11 32  1  0  0  0  0
 12 13  1  0  0  0  0
 12 33  1  0  0  0  0
 12 34  1  0  0  0  0
 13 18  1  0  0  0  0
 13 14  2  0  0  0  0
 14 15  1  0  0  0  0
 14 35  1  0  0  0  0
 15 16  2  0  0  0  0
 15 36  1  0  0  0  0
 16 17  1  0  0  0  0
 16 37  1  0  0  0  0
 17 18  2  0  0  0  0
 17 38  1  0  0  0  0
M  END
> <s_m_source_file>
AV-unprocessed.smi

> <i_m_source_file_index>
3266

> <i_lp_mmshare_version>
43012

> <i_f3d_flags>
0

> <s_epik_input>
TzFbQ0gyXVtDSDJdW0NIMl1bQ0BIXTFbQ0gyXVtDSDJdQyg9TylbTkhdW0NIMl1bQ0gyXWMyW2NIXVtjSF1bY0hdW2NIXW4y

> <s_epik_cmdline>
J2VwaWtfcHl0aG9uJywgJy1waCcsICc3LjAnLCAnLXRuJywgJzgnLCAnLW1hJywgJzIwMCcsICctbWV0YWxfYmluZGluZycsICctaW1hZScsICc8aW5maWxlLm1hZT4nLCAnLW9tYWUnLCAnPG91dGZpbGUubWFlPic=

> <r_epik_Ionization_Penalty>
0.0267142

> <r_epik_Ionization_Penalty_Charging>
0

> <r_epik_Ionization_Penalty_Neutral>
0.0267142

> <r_epik_State_Penalty>
0.0218233

> <r_epik_Charging_Adjusted_Penalty>
0.0218233

> <i_epik_Tot_Q>
0

> <i_epik_Tot_abs_Q>
0

> <r_epik_Metal_State_Penalty>
0.0208786

> <b_epik_Metal_Only>
0

> <s_lp_Force_Field>
OPLS_2005

> <r_lp_Energy>
16.882

> <b_lp_Chiralities_Consistent>
1

> <s_lp_Variant>
AV-unprocessed.smi:3266-2

> <Gold.Version>
5.8.1

> <Gold.Id.Protein>
6NUR|6NUR_protein|mol2

> <Gold.PLP.Fitness>
48.2739

> <Gold.PLP.PLP>
-43.5023

> <Gold.PLP.part.hbond>
-2.0000

> <Gold.PLP.part.metal>
0.0000

> <Gold.PLP.part.buried>
-4.1222

> <Gold.PLP.part.nonpolar>
-37.5723

> <Gold.PLP.part.repulsive>
0.2202

> <Gold.PLP.ligand.clash>
0.0000

> <Gold.PLP.ligand.torsion>
0.6406

> <Gold.PLP.Chemscore.Hbond>
2.0000

> <Gold.PLP.Chemscore.CHOScore>
0.0000

> <Gold.PLP.Chemscore.Metal>
0.0000

> <Gold.Chemscore.Hbonds>
donor molecule, donor type, donor heavy atom, donor atom, acceptor molecule, acceptor atom, score
      P1  H  7989  7998       L1     9  1.00
      P1  H  7997  8008       L1     1  1.00

> <Gold.PLP.Chemscore.Internal.Correction>
0.0529

> <Gold.Rescore>
     Score         DG    S(hbond)    S(metal)    S(lipo)     H(rot)  DE(clash)    DE(int)     intcor
     16.74     -19.17       1.47        0.00     112.57       1.71       0.17       2.26       ----

> <Gold.Chemscore.Fitness>
16.7415

> <Gold.Chemscore.DG>
-19.1720

> <Gold.Chemscore.ZeroCoef>
-5.4800

> <Gold.Chemscore.Hbond>
1.4687

> <Gold.Chemscore.Metal>
0.0000

> <Gold.Chemscore.Lipo>
112.5734

> <Gold.Chemscore.Internal_Hbond>
0.0000

> <Gold.Chemscore.DEClash>
0.1668

> <Gold.Chemscore.DEInternal>
2.2637

> <Gold.Chemscore.Rot>
1.7127

> <Gold.Chemscore.Internal.Correction>
   9.000000E+99

> <Gold.Chemscore.Hbonds>
donor molecule, donor type, donor heavy atom, donor atom, acceptor molecule, acceptor atom, score
      P1  H  7989  7998       L1     9  0.16
      P1  H  7997  8008       L1     1  0.50

> <Gold.Chemscore.Hbond.Weighted>
-4.9054

> <Gold.Chemscore.Metal.Weighted>
-0.0000

> <Gold.Chemscore.Lipo.Weighted>
-13.1711

> <Gold.Chemscore.Internal_Hbond.Weighted>
0.0000

> <Gold.Chemscore.DEClash.Weighted>
0.1668

> <Gold.Chemscore.DEInternal.Weighted>
2.2637

> <Gold.Chemscore.Rot.Weighted>
4.3846

> <Gold.Chemscore.Internal.Correction.Weighted>
   9.000000E+99

> <Gold.Protein.RotatedTorsions>
[ 6907 6896 6895 6894 ] final  -48.44 input  -60.11 | X-H torsion
[ 7974 7965 7964 7962 ] final   78.65 input  175.53 | X-H torsion
[ 8008 7997 7996 7995 ] final  -85.99 input   59.86 | X-H torsion
[ 10167 10162 10161 10158 ] final   74.19 input  -65.29 | X-H torsion
[ 10718 10713 10712 10709 ] final -142.88 input   66.30 | X-H torsion
[ 10763 10752 10751 10750 ] final  -33.54 input  -60.55 | X-H torsion
[ 11005 11000 10999 10996 ] final   79.75 input  -57.11 | X-H torsion

> <Gold.Protein.ActiveResidues>
 VAL166  LYS551  ARG553  GLY616  TRP617  ASP618  TYR619  PRO620  LYS621  CYS622 
 ASP623  PHE694  ASN695  SER759  ASP760  ASP761  ALA762  ILE779  LEU786  VAL792 
 PHE793  MET794  SER795  GLU796  ALA797  LYS798  CYS799  TRP800  GLU811  SER814 

> <Gold.Protein.RotatedAtoms>
  150.8906  134.8309  159.7290 H   0  0  0  0  0  0  0  0  0  0  0  0  # atno 6907 bound_to 6896
  152.4834  134.4655  159.9628 H   0  0  0  0  0  0  0  0  0  0  0  0  # atno 6908 bound_to 6896
  151.4718  133.3528  159.2860 H   0  0  0  0  0  0  0  0  0  0  0  0  # atno 6909 bound_to 6896
  145.6744  139.2506  143.1850 H   0  0  0  0  0  0  0  0  0  0  0  0  # atno 7974 bound_to 7965
  154.6469  140.0584  156.9910 H   0  0  0  0  0  0  0  0  0  0  0  0  # atno 8008 bound_to 7997
  155.1431  140.3267  155.4429 H   0  0  0  0  0  0  0  0  0  0  0  0  # atno 8009 bound_to 7997
  156.2557  140.1960  156.6546 H   0  0  0  0  0  0  0  0  0  0  0  0  # atno 8010 bound_to 7997
  140.0164  144.5575  150.7617 H   0  0  0  0  0  0  0  0  0  0  0  0  # atno 10167 bound_to 10162
  156.3512  130.7689  151.1842 H   0  0  0  0  0  0  0  0  0  0  0  0  # atno 10718 bound_to 10713
  153.8319  135.6865  153.4813 H   0  0  0  0  0  0  0  0  0  0  0  0  # atno 10763 bound_to 10752
  153.1506  135.4620  154.9628 H   0  0  0  0  0  0  0  0  0  0  0  0  # atno 10764 bound_to 10752
  154.7883  135.3292  154.7781 H   0  0  0  0  0  0  0  0  0  0  0  0  # atno 10765 bound_to 10752
  139.9161  134.7867  156.1819 H   0  0  0  0  0  0  0  0  0  0  0  0  # atno 11005 bound_to 11000
  146.1018  140.7535  142.9545 LP  0  0  0  0  0  0  0  0  0  0  0  0  # atno 17320 bound_to 7965
  144.7046  140.3799  143.7128 LP  0  0  0  0  0  0  0  0  0  0  0  0  # atno 17321 bound_to 7965
  140.7360  143.2748  151.3775 LP  0  0  0  0  0  0  0  0  0  0  0  0  # atno 17342 bound_to 10162
  139.6170  144.0983  152.2355 LP  0  0  0  0  0  0  0  0  0  0  0  0  # atno 17343 bound_to 10162
  157.7461  131.0427  150.4706 LP  0  0  0  0  0  0  0  0  0  0  0  0  # atno 17370 bound_to 10713
  156.4902  130.4093  149.6411 LP  0  0  0  0  0  0  0  0  0  0  0  0  # atno 17371 bound_to 10713
  141.0637  133.6829  156.2002 LP  0  0  0  0  0  0  0  0  0  0  0  0  # atno 17394 bound_to 11000
  140.6620  134.4958  157.5584 LP  0  0  0  0  0  0  0  0  0  0  0  0  # atno 17395 bound_to 11000

$$$$
