AV-unprocessed.smi:2278|AV-procd|sdf|9181|dock9
  -GOLD-   2272012393D 1   1.00000     0.00000
 Structure written by MMmdl.
 46 47  0  0  0  0  0  0  0  0  2 V2000
  151.8947  140.4856  156.6161 C   0  0  0  0  0  0  0  0  0  0  0  0
  150.5857  140.5905  155.8541 C   0  0  0  0  0  0  0  0  0  0  0  0
  150.5149  139.8511  154.6701 N   0  0  0  0  0  0  0  0  0  0  0  0
  149.4366  139.8763  153.9578 C   0  0  0  0  0  0  0  0  0  0  0  0
  148.3147  140.6308  154.3407 N   0  0  0  0  0  0  0  0  0  0  0  0
  147.1492  140.5610  153.4412 C   0  0  0  0  0  0  0  0  0  0  0  0
  147.0709  139.2264  152.6652 C   0  0  2  0  0  0  0  0  0  0  0  0
  146.4132  139.4815  151.4403 O   0  0  0  0  0  0  0  0  0  0  0  0
  146.2966  138.1187  153.4136 C   0  0  0  0  0  0  0  0  0  0  0  0
  146.4348  136.7874  152.7699 N   0  3  2  0  0  0  0  0  0  0  0  0
  145.5124  136.6223  151.6175 C   0  0  0  0  0  0  0  0  0  0  0  0
  145.7708  135.2951  150.8814 C   0  0  0  0  0  0  0  0  0  0  0  0
  145.6851  134.0791  151.8220 C   0  0  2  0  0  0  0  0  0  0  0  0
  144.2393  133.7322  152.2192 C   0  0  0  0  0  0  0  0  0  0  0  0
  146.5977  134.3104  153.0399 C   0  0  0  0  0  0  0  0  0  0  0  0
  146.3180  135.6574  153.7296 C   0  0  0  0  0  0  0  0  0  0  0  0
  148.3038  141.3878  155.4764 C   0  0  0  0  0  0  0  0  0  0  0  0
  147.3159  142.0471  155.8050 O   0  0  0  0  0  0  0  0  0  0  0  0
  149.5370  141.3469  156.2785 C   0  0  0  0  0  0  0  0  0  0  0  0
  149.5538  142.1680  157.5619 C   0  0  0  0  0  0  0  0  0  0  0  0
  152.3519  141.4692  156.7271 H   0  0  0  0  0  0  0  0  0  0  0  0
  152.6075  139.8438  156.0963 H   0  0  0  0  0  0  0  0  0  0  0  0
  151.7269  140.0646  157.6078 H   0  0  0  0  0  0  0  0  0  0  0  0
  149.3291  139.3163  153.0270 H   0  0  0  0  0  0  0  0  0  0  0  0
  146.2173  140.7290  153.9844 H   0  0  0  0  0  0  0  0  0  0  0  0
  147.1986  141.3909  152.7328 H   0  0  0  0  0  0  0  0  0  0  0  0
  148.0824  138.8979  152.4291 H   0  0  0  0  0  0  0  0  0  0  0  0
  145.5401  139.7943  151.6246 H   0  0  0  0  0  0  0  0  0  0  0  0
  146.6291  138.0351  154.4482 H   0  0  0  0  0  0  0  0  0  0  0  0
  145.2443  138.4046  153.4557 H   0  0  0  0  0  0  0  0  0  0  0  0
  144.4790  136.6760  151.9628 H   0  0  0  0  0  0  0  0  0  0  0  0
  145.6512  137.4464  150.9166 H   0  0  0  0  0  0  0  0  0  0  0  0
  145.0705  135.1830  150.0530 H   0  0  0  0  0  0  0  0  0  0  0  0
  146.7649  135.3293  150.4331 H   0  0  0  0  0  0  0  0  0  0  0  0
  146.0713  133.2150  151.2796 H   0  0  0  0  0  0  0  0  0  0  0  0
  143.7563  134.5414  152.7663 H   0  0  0  0  0  0  0  0  0  0  0  0
  144.2112  132.8451  152.8525 H   0  0  0  0  0  0  0  0  0  0  0  0
  143.6324  133.5224  151.3383 H   0  0  0  0  0  0  0  0  0  0  0  0
  146.4886  133.4940  153.7549 H   0  0  0  0  0  0  0  0  0  0  0  0
  147.6389  134.2895  152.7153 H   0  0  0  0  0  0  0  0  0  0  0  0
  147.0236  135.7814  154.5500 H   0  0  0  0  0  0  0  0  0  0  0  0
  145.3227  135.6565  154.1762 H   0  0  0  0  0  0  0  0  0  0  0  0
  148.7575  141.8373  158.2293 H   0  0  0  0  0  0  0  0  0  0  0  0
  149.3896  143.2222  157.3359 H   0  0  0  0  0  0  0  0  0  0  0  0
  150.4920  142.0921  158.1091 H   0  0  0  0  0  0  0  0  0  0  0  0
  147.3692  136.7579  152.3866 H   0  0  0  0  0  0  0  0  0  0  0  0
  1  2  1  0  0  0  0
  1 21  1  0  0  0  0
  1 22  1  0  0  0  0
  1 23  1  0  0  0  0
  2 19  2  0  0  0  0
  2  3  1  0  0  0  0
  3  4  2  0  0  0  0
  4  5  1  0  0  0  0
  4 24  1  0  0  0  0
  5  6  1  0  0  0  0
  5 17  1  0  0  0  0
  6  7  1  0  0  0  0
  6 25  1  0  0  0  0
  6 26  1  0  0  0  0
  7  8  1  0  0  0  0
  7  9  1  0  0  0  0
  7 27  1  0  0  0  0
  8 28  1  0  0  0  0
  9 10  1  0  0  0  0
  9 29  1  0  0  0  0
  9 30  1  0  0  0  0
 10 16  1  0  0  0  0
 10 11  1  0  0  0  0
 10 46  1  0  0  0  0
 11 12  1  0  0  0  0
 11 31  1  0  0  0  0
 11 32  1  0  0  0  0
 12 13  1  0  0  0  0
 12 33  1  0  0  0  0
 12 34  1  0  0  0  0
 13 14  1  0  0  0  0
 13 15  1  0  0  0  0
 13 35  1  0  0  0  0
 14 36  1  0  0  0  0
 14 37  1  0  0  0  0
 14 38  1  0  0  0  0
 15 16  1  0  0  0  0
 15 39  1  0  0  0  0
 15 40  1  0  0  0  0
 16 41  1  0  0  0  0
 16 42  1  0  0  0  0
 17 18  2  0  0  0  0
 17 19  1  0  0  0  0
 19 20  1  0  0  0  0
 20 43  1  0  0  0  0
 20 44  1  0  0  0  0
 20 45  1  0  0  0  0
M  CHG  1  10   1
M  END
> <s_m_source_file>
AV-unprocessed.smi

> <i_m_source_file_index>
2278

> <i_lp_mmshare_version>
43012

> <i_f3d_flags>
0

> <s_epik_input>
W0NIM11jMW5bY0hdbihjKD1PKWMxW0NIM10pW0NIMl1bQ0BIXShbT0hdKVtDSDJdTjJbQ0gyXVtDSDJdW0NIXShbQ0gzXSlbQ0gyXVtDSDJdMg==

> <s_epik_cmdline>
J2VwaWtfcHl0aG9uJywgJy1waCcsICc3LjAnLCAnLXRuJywgJzgnLCAnLW1hJywgJzIwMCcsICctbWV0YWxfYmluZGluZycsICctaW1hZScsICc8aW5maWxlLm1hZT4nLCAnLW9tYWUnLCAnPG91dGZpbGUubWFlPic=

> <r_lp_tautomer_probability>
1

> <r_epik_Ionization_Penalty>
0.00139489

> <r_epik_Ionization_Penalty_Charging>
0.00136819

> <r_epik_Ionization_Penalty_Neutral>
2.66975e-05

> <r_epik_State_Penalty>
0.000910892

> <r_epik_Charging_Adjusted_Penalty>
0.00227908

> <i_epik_Tot_Q>
1

> <i_epik_Tot_abs_Q>
1

> <r_epik_Metal_State_Penalty>
-0

> <b_epik_Metal_Only>
0

> <s_lp_Force_Field>
OPLS_2005

> <r_lp_Energy>
30.3115

> <b_lp_Chiralities_Consistent>
1

> <s_lp_Variant>
AV-unprocessed.smi:2278-3

> <Gold.Version>
5.8.1

> <Gold.Id.Protein>
6NUR|6NUR_protein|mol2

> <Gold.PLP.Fitness>
44.7072

> <Gold.PLP.PLP>
-32.2570

> <Gold.PLP.part.hbond>
-4.0338

> <Gold.PLP.part.metal>
0.0000

> <Gold.PLP.part.buried>
-0.8958

> <Gold.PLP.part.nonpolar>
-28.7206

> <Gold.PLP.part.repulsive>
0.2515

> <Gold.PLP.ligand.clash>
0.0000

> <Gold.PLP.ligand.torsion>
1.0506

> <Gold.PLP.Chemscore.Hbond>
4.0000

> <Gold.PLP.Chemscore.CHOScore>
0.8413

> <Gold.PLP.Chemscore.Metal>
0.0000

> <Gold.Chemscore.Hbonds>
donor molecule, donor type, donor heavy atom, donor atom, acceptor molecule, acceptor atom, score
      L1  H     8    28       P1 10175  0.75
      L1  H    10    46       P1  7948  2.00
      P1  H  7989  7998       L1     3  0.90
      L1  C     4    24       P1  7957  0.91

> <Gold.PLP.Chemscore.Internal.Correction>
0.0274

> <Gold.Rescore>
     Score         DG    S(hbond)    S(metal)    S(lipo)     H(rot)  DE(clash)    DE(int)     intcor
     12.23     -13.61       2.06        0.00      58.86       2.20       0.18       1.21       ----

> <Gold.Chemscore.Fitness>
12.2304

> <Gold.Chemscore.DG>
-13.6148

> <Gold.Chemscore.ZeroCoef>
-5.4800

> <Gold.Chemscore.Hbond>
2.0587

> <Gold.Chemscore.Metal>
0.0000

> <Gold.Chemscore.Lipo>
58.8645

> <Gold.Chemscore.Internal_Hbond>
0.0000

> <Gold.Chemscore.DEClash>
0.1754

> <Gold.Chemscore.DEInternal>
1.2090

> <Gold.Chemscore.Rot>
2.1986

> <Gold.Chemscore.Internal.Correction>
   9.000000E+99

> <Gold.Chemscore.Hbonds>
donor molecule, donor type, donor heavy atom, donor atom, acceptor molecule, acceptor atom, score
      L1  H     8    28       P1 10175  0.33
      L1  H    10    46       P1  7948  1.00
      P1  H  7989  7998       L1     3  0.06

> <Gold.Chemscore.Hbond.Weighted>
-6.8761

> <Gold.Chemscore.Metal.Weighted>
-0.0000

> <Gold.Chemscore.Lipo.Weighted>
-6.8871

> <Gold.Chemscore.Internal_Hbond.Weighted>
0.0000

> <Gold.Chemscore.DEClash.Weighted>
0.1754

> <Gold.Chemscore.DEInternal.Weighted>
1.2090

> <Gold.Chemscore.Rot.Weighted>
5.6285

> <Gold.Chemscore.Internal.Correction.Weighted>
   9.000000E+99

> <Gold.Protein.RotatedTorsions>
[ 6907 6896 6895 6894 ] final   -8.10 input  -60.11 | X-H torsion
[ 7974 7965 7964 7962 ] final  174.47 input  175.53 | X-H torsion
[ 8008 7997 7996 7995 ] final  142.96 input   59.86 | X-H torsion
[ 10167 10162 10161 10158 ] final  170.66 input  -65.29 | X-H torsion
[ 10718 10713 10712 10709 ] final -130.45 input   66.30 | X-H torsion
[ 10763 10752 10751 10750 ] final   71.53 input  -60.55 | X-H torsion
[ 11005 11000 10999 10996 ] final -112.71 input  -57.11 | X-H torsion

> <Gold.Protein.ActiveResidues>
 VAL166  LYS551  ARG553  GLY616  TRP617  ASP618  TYR619  PRO620  LYS621  CYS622 
 ASP623  PHE694  ASN695  SER759  ASP760  ASP761  ALA762  ILE779  LEU786  VAL792 
 PHE793  MET794  SER795  GLU796  ALA797  LYS798  CYS799  TRP800  GLU811  SER814 

> <Gold.Protein.RotatedAtoms>
  151.4391  135.1018  159.9664 H   0  0  0  0  0  0  0  0  0  0  0  0  # atno 6907 bound_to 6896
  152.4929  133.8545  159.7229 H   0  0  0  0  0  0  0  0  0  0  0  0  # atno 6908 bound_to 6896
  150.9101  133.6950  159.2884 H   0  0  0  0  0  0  0  0  0  0  0  0  # atno 6909 bound_to 6896
  144.7221  139.9801  143.6438 H   0  0  0  0  0  0  0  0  0  0  0  0  # atno 7974 bound_to 7965
  156.2939  140.2275  156.4813 H   0  0  0  0  0  0  0  0  0  0  0  0  # atno 8008 bound_to 7997
  154.7851  140.0458  157.1178 H   0  0  0  0  0  0  0  0  0  0  0  0  # atno 8009 bound_to 7997
  154.9712  140.3067  155.4990 H   0  0  0  0  0  0  0  0  0  0  0  0  # atno 8010 bound_to 7997
  139.5024  144.3572  151.9862 H   0  0  0  0  0  0  0  0  0  0  0  0  # atno 10167 bound_to 10162
  156.2146  130.6940  151.0688 H   0  0  0  0  0  0  0  0  0  0  0  0  # atno 10718 bound_to 10713
  153.0404  135.5133  154.7607 H   0  0  0  0  0  0  0  0  0  0  0  0  # atno 10763 bound_to 10752
  154.6549  135.2930  154.9942 H   0  0  0  0  0  0  0  0  0  0  0  0  # atno 10764 bound_to 10752
  154.0813  135.6663  153.4891 H   0  0  0  0  0  0  0  0  0  0  0  0  # atno 10765 bound_to 10752
  141.0659  133.9460  157.2580 H   0  0  0  0  0  0  0  0  0  0  0  0  # atno 11005 bound_to 11000
  146.0494  139.3497  143.0649 LP  0  0  0  0  0  0  0  0  0  0  0  0  # atno 17320 bound_to 7965
  145.8234  140.9667  143.0887 LP  0  0  0  0  0  0  0  0  0  0  0  0  # atno 17321 bound_to 7965
  140.3008  144.3648  150.6060 LP  0  0  0  0  0  0  0  0  0  0  0  0  # atno 17342 bound_to 10162
  140.5874  143.2169  151.7316 LP  0  0  0  0  0  0  0  0  0  0  0  0  # atno 17343 bound_to 10162
  157.7056  131.0757  150.6677 LP  0  0  0  0  0  0  0  0  0  0  0  0  # atno 17370 bound_to 10713
  156.6737  130.4547  149.5649 LP  0  0  0  0  0  0  0  0  0  0  0  0  # atno 17371 bound_to 10713
  139.9476  135.0181  156.8898 LP  0  0  0  0  0  0  0  0  0  0  0  0  # atno 17394 bound_to 11000
  140.5774  134.0384  155.7452 LP  0  0  0  0  0  0  0  0  0  0  0  0  # atno 17395 bound_to 11000

$$$$
