AV-unprocessed.smi:308|AV-procd|sdf|2286|dock2
  -GOLD-   2262022183D 1   1.00000     0.00000
 Structure written by MMmdl.
 51 52  0  0  0  0  0  0  0  0  3 V2000
  143.0212  136.2437  155.7070 C   0  0  0  0  0  0  0  0  0  0  0  0
  142.7423  137.5348  154.9171 C   0  0  2  0  0  0  0  0  0  0  0  0
  142.3602  137.2665  153.4503 C   0  0  0  0  0  0  0  0  0  0  0  0
  143.5717  136.8408  152.6015 C   0  0  0  0  0  0  0  0  0  0  0  0
  144.6664  137.8420  152.6798 N   0  3  2  0  0  0  0  0  0  0  0  0
  145.7935  137.5077  151.7712 C   0  0  0  0  0  0  0  0  0  0  0  0
  146.7606  138.6865  151.5275 C   0  0  0  0  0  0  0  0  0  0  0  0
  147.8569  138.7442  152.4920 N   0  0  0  0  0  0  0  0  0  0  0  0
  148.1013  139.7745  153.3148 C   0  0  0  0  0  0  0  0  0  0  0  0
  147.3823  140.7706  153.3788 O   0  0  0  0  0  0  0  0  0  0  0  0
  149.2216  139.5736  154.0306 N   0  0  0  0  0  0  0  0  0  0  0  0
  149.8387  140.4367  154.9781 C   0  0  0  0  0  0  0  0  0  0  0  0
  150.8149  139.8819  155.8320 C   0  0  0  0  0  0  0  0  0  0  0  0
  151.4514  140.6929  156.7936 C   0  0  0  0  0  0  0  0  0  0  0  0
  151.1029  142.0613  156.9039 C   0  0  0  0  0  0  0  0  0  0  0  0
  151.6959  142.9376  157.8387 N   0  0  0  0  0  0  0  0  0  0  0  0
  152.4929  142.3972  158.9323 C   0  0  0  0  0  0  0  0  0  0  0  0
  151.6053  144.3795  157.6376 C   0  0  0  0  0  0  0  0  0  0  0  0
  150.1501  142.5458  156.0705 N   0  3  0  0  0  0  0  0  0  0  0  0
  149.5166  141.8061  155.1349 C   0  0  0  0  0  0  0  0  0  0  0  0
  145.0977  138.0771  154.0832 C   0  0  0  0  0  0  0  0  0  0  0  0
  143.9178  138.5272  154.9636 C   0  0  0  0  0  0  0  0  0  0  0  0
  143.8667  135.6870  155.3035 H   0  0  0  0  0  0  0  0  0  0  0  0
  142.1546  135.5823  155.6913 H   0  0  0  0  0  0  0  0  0  0  0  0
  143.2418  136.4658  156.7515 H   0  0  0  0  0  0  0  0  0  0  0  0
  141.8876  138.0118  155.3989 H   0  0  0  0  0  0  0  0  0  0  0  0
  141.5790  136.5074  153.3957 H   0  0  0  0  0  0  0  0  0  0  0  0
  141.9298  138.1730  153.0221 H   0  0  0  0  0  0  0  0  0  0  0  0
  143.9420  135.8667  152.9233 H   0  0  0  0  0  0  0  0  0  0  0  0
  143.2537  136.7272  151.5642 H   0  0  0  0  0  0  0  0  0  0  0  0
  146.3373  136.6438  152.1561 H   0  0  0  0  0  0  0  0  0  0  0  0
  145.3873  137.2002  150.8065 H   0  0  0  0  0  0  0  0  0  0  0  0
  147.1965  138.6158  150.5314 H   0  0  0  0  0  0  0  0  0  0  0  0
  146.2089  139.6280  151.5420 H   0  0  0  0  0  0  0  0  0  0  0  0
  148.5014  137.9668  152.4964 H   0  0  0  0  0  0  0  0  0  0  0  0
  149.7311  138.7269  153.8239 H   0  0  0  0  0  0  0  0  0  0  0  0
  151.0834  138.8386  155.7510 H   0  0  0  0  0  0  0  0  0  0  0  0
  152.1994  140.2483  157.4329 H   0  0  0  0  0  0  0  0  0  0  0  0
  151.8802  141.7681  159.5787 H   0  0  0  0  0  0  0  0  0  0  0  0
  152.9147  143.1931  159.5465 H   0  0  0  0  0  0  0  0  0  0  0  0
  153.3200  141.8007  158.5464 H   0  0  0  0  0  0  0  0  0  0  0  0
  150.5629  144.6987  157.6085 H   0  0  0  0  0  0  0  0  0  0  0  0
  152.0828  144.6659  156.6998 H   0  0  0  0  0  0  0  0  0  0  0  0
  152.0969  144.9245  158.4438 H   0  0  0  0  0  0  0  0  0  0  0  0
  148.7767  142.3446  154.5629 H   0  0  0  0  0  0  0  0  0  0  0  0
  145.5500  137.1695  154.4851 H   0  0  0  0  0  0  0  0  0  0  0  0
  145.8669  138.8482  154.1143 H   0  0  0  0  0  0  0  0  0  0  0  0
  143.5744  139.5044  154.6208 H   0  0  0  0  0  0  0  0  0  0  0  0
  144.2517  138.6691  155.9921 H   0  0  0  0  0  0  0  0  0  0  0  0
  144.2771  138.7105  152.3423 H   0  0  0  0  0  0  0  0  0  0  0  0
  149.8944  143.5300  156.1543 H   0  0  0  0  0  0  0  0  0  0  0  0
  1  2  1  0  0  0  0
  1 23  1  0  0  0  0
  1 24  1  0  0  0  0
  1 25  1  0  0  0  0
  2 22  1  0  0  0  0
  2  3  1  0  0  0  0
  2 26  1  0  0  0  0
  3  4  1  0  0  0  0
  3 27  1  0  0  0  0
  3 28  1  0  0  0  0
  4  5  1  0  0  0  0
  4 29  1  0  0  0  0
  4 30  1  0  0  0  0
  5  6  1  0  0  0  0
  5 21  1  0  0  0  0
  5 50  1  0  0  0  0
  6  7  1  0  0  0  0
  6 31  1  0  0  0  0
  6 32  1  0  0  0  0
  7  8  1  0  0  0  0
  7 33  1  0  0  0  0
  7 34  1  0  0  0  0
  8  9  1  0  0  0  0
  8 35  1  0  0  0  0
  9 10  2  0  0  0  0
  9 11  1  0  0  0  0
 11 12  1  0  0  0  0
 11 36  1  0  0  0  0
 12 20  1  0  0  0  0
 12 13  2  0  0  0  0
 13 14  1  0  0  0  0
 13 37  1  0  0  0  0
 14 15  2  0  0  0  0
 14 38  1  0  0  0  0
 15 16  1  0  0  0  0
 15 19  1  0  0  0  0
 16 17  1  0  0  0  0
 16 18  1  0  0  0  0
 17 39  1  0  0  0  0
 17 40  1  0  0  0  0
 17 41  1  0  0  0  0
 18 42  1  0  0  0  0
 18 43  1  0  0  0  0
 18 44  1  0  0  0  0
 19 20  2  0  0  0  0
 19 51  1  0  0  0  0
 20 45  1  0  0  0  0
 21 22  1  0  0  0  0
 21 46  1  0  0  0  0
 21 47  1  0  0  0  0
 22 48  1  0  0  0  0
 22 49  1  0  0  0  0
M  CHG  1   5   1
M  CHG  1  19   1
M  END
> <s_m_source_file>
AV-unprocessed.smi

> <i_m_source_file_index>
308

> <i_lp_mmshare_version>
43012

> <i_f3d_flags>
0

> <s_epik_input>
W0NIM11bQ0hdMVtDSDJdW0NIMl1OKFtDSDJdW0NIMl0xKVtDSDJdW0NIMl1bTkhdQyg9TylbTkhdYzJbY0hdW2NIXWMoTihbQ0gzXSlbQ0gzXSluW2NIXTI=

> <s_epik_cmdline>
J2VwaWtfcHl0aG9uJywgJy1waCcsICc3LjAnLCAnLXRuJywgJzgnLCAnLW1hJywgJzIwMCcsICctbWV0YWxfYmluZGluZycsICctaW1hZScsICc8aW5maWxlLm1hZT4nLCAnLW9tYWUnLCAnPG91dGZpbGUubWFlPic=

> <r_lp_tautomer_probability>
0.999994

> <r_epik_Ionization_Penalty>
0.309846

> <r_epik_Ionization_Penalty_Charging>
0.309826

> <r_epik_Ionization_Penalty_Neutral>
1.97883e-05

> <r_epik_State_Penalty>
0.302329

> <r_epik_Charging_Adjusted_Penalty>
0.612155

> <i_epik_Tot_Q>
2

> <i_epik_Tot_abs_Q>
2

> <r_epik_Metal_State_Penalty>
0.577265

> <b_epik_Metal_Only>
0

> <s_lp_Force_Field>
OPLS_2005

> <r_lp_Energy>
37.2755

> <b_lp_Chiralities_Consistent>
1

> <s_lp_Variant>
AV-unprocessed.smi:308-2

> <Gold.Version>
5.8.1

> <Gold.Id.Protein>
6NUR|6NUR_protein|mol2

> <Gold.PLP.Fitness>
52.2838

> <Gold.PLP.PLP>
-38.5884

> <Gold.PLP.part.hbond>
-5.5793

> <Gold.PLP.part.metal>
0.0000

> <Gold.PLP.part.buried>
2.9975

> <Gold.PLP.part.nonpolar>
-36.3245

> <Gold.PLP.part.repulsive>
0.4772

> <Gold.PLP.ligand.clash>
0.0000

> <Gold.PLP.ligand.torsion>
0.4316

> <Gold.PLP.Chemscore.Hbond>
4.8320

> <Gold.PLP.Chemscore.CHOScore>
0.0000

> <Gold.PLP.Chemscore.Metal>
0.0000

> <Gold.Chemscore.Hbonds>
donor molecule, donor type, donor heavy atom, donor atom, acceptor molecule, acceptor atom, score
      L1  H     5    50       P1 10175  2.00
      L1  H     8    35       P1  7948  0.98
      L1  H    19    51       P1  8028  1.89

> <Gold.PLP.Chemscore.Internal.Correction>
0.0626

> <Gold.Rescore>
     Score         DG    S(hbond)    S(metal)    S(lipo)     H(rot)  DE(clash)    DE(int)     intcor
     18.30     -20.35       2.89        0.00      76.34       1.45       0.58       1.47       ----

> <Gold.Chemscore.Fitness>
18.2979

> <Gold.Chemscore.DG>
-20.3498

> <Gold.Chemscore.ZeroCoef>
-5.4800

> <Gold.Chemscore.Hbond>
2.8877

> <Gold.Chemscore.Metal>
0.0000

> <Gold.Chemscore.Lipo>
76.3386

> <Gold.Chemscore.Internal_Hbond>
0.0000

> <Gold.Chemscore.DEClash>
0.5847

> <Gold.Chemscore.DEInternal>
1.4673

> <Gold.Chemscore.Rot>
1.4479

> <Gold.Chemscore.Internal.Correction>
   9.000000E+99

> <Gold.Chemscore.Hbonds>
donor molecule, donor type, donor heavy atom, donor atom, acceptor molecule, acceptor atom, score
      L1  H     5    50       P1 10175  0.99
      L1  H     8    35       P1  7948  0.93
      L1  H    19    51       P1  8028  0.91

> <Gold.Chemscore.Hbond.Weighted>
-9.6448

> <Gold.Chemscore.Metal.Weighted>
-0.0000

> <Gold.Chemscore.Lipo.Weighted>
-8.9316

> <Gold.Chemscore.Internal_Hbond.Weighted>
0.0000

> <Gold.Chemscore.DEClash.Weighted>
0.5847

> <Gold.Chemscore.DEInternal.Weighted>
1.4673

> <Gold.Chemscore.Rot.Weighted>
3.7065

> <Gold.Chemscore.Internal.Correction.Weighted>
   9.000000E+99

> <Gold.Protein.RotatedTorsions>
[ 6907 6896 6895 6894 ] final   60.36 input  -60.11 | X-H torsion
[ 7974 7965 7964 7962 ] final  147.96 input  175.53 | X-H torsion
[ 8008 7997 7996 7995 ] final  160.77 input   59.86 | X-H torsion
[ 10167 10162 10161 10158 ] final   47.05 input  -65.29 | X-H torsion
[ 10718 10713 10712 10709 ] final  -60.16 input   66.30 | X-H torsion
[ 10763 10752 10751 10750 ] final   31.84 input  -60.55 | X-H torsion
[ 11005 11000 10999 10996 ] final   75.77 input  -57.11 | X-H torsion

> <Gold.Protein.ActiveResidues>
 VAL166  LYS551  ARG553  GLY616  TRP617  ASP618  TYR619  PRO620  LYS621  CYS622 
 ASP623  PHE694  ASN695  SER759  ASP760  ASP761  ALA762  ILE779  LEU786  VAL792 
 PHE793  MET794  SER795  GLU796  ALA797  LYS798  CYS799  TRP800  GLU811  SER814 

> <Gold.Protein.RotatedAtoms>
  152.3996  134.6308  160.0074 H   0  0  0  0  0  0  0  0  0  0  0  0  # atno 6907 bound_to 6896
  151.6517  133.3315  159.3161 H   0  0  0  0  0  0  0  0  0  0  0  0  # atno 6908 bound_to 6896
  150.7899  134.6956  159.6566 H   0  0  0  0  0  0  0  0  0  0  0  0  # atno 6909 bound_to 6896
  144.8551  139.6094  143.5956 H   0  0  0  0  0  0  0  0  0  0  0  0  # atno 7974 bound_to 7965
  156.2150  140.1795  156.7610 H   0  0  0  0  0  0  0  0  0  0  0  0  # atno 8008 bound_to 7997
  154.5778  140.0671  156.9088 H   0  0  0  0  0  0  0  0  0  0  0  0  # atno 8009 bound_to 7997
  155.2557  140.3332  155.4280 H   0  0  0  0  0  0  0  0  0  0  0  0  # atno 8010 bound_to 7997
  140.3077  144.2858  150.6206 H   0  0  0  0  0  0  0  0  0  0  0  0  # atno 10167 bound_to 10162
  156.1010  130.4186  150.0816 H   0  0  0  0  0  0  0  0  0  0  0  0  # atno 10718 bound_to 10713
  153.0294  135.6428  154.1263 H   0  0  0  0  0  0  0  0  0  0  0  0  # atno 10763 bound_to 10752
  154.0987  135.2861  155.3258 H   0  0  0  0  0  0  0  0  0  0  0  0  # atno 10764 bound_to 10752
  154.6414  135.5458  153.7857 H   0  0  0  0  0  0  0  0  0  0  0  0  # atno 10765 bound_to 10752
  139.9328  134.7545  156.1312 H   0  0  0  0  0  0  0  0  0  0  0  0  # atno 11005 bound_to 11000
  146.2816  139.6892  142.9225 LP  0  0  0  0  0  0  0  0  0  0  0  0  # atno 17320 bound_to 7965
  145.4423  141.0423  143.2850 LP  0  0  0  0  0  0  0  0  0  0  0  0  # atno 17321 bound_to 7965
  140.5596  143.2194  151.7788 LP  0  0  0  0  0  0  0  0  0  0  0  0  # atno 17342 bound_to 10162
  139.4901  144.4367  151.9811 LP  0  0  0  0  0  0  0  0  0  0  0  0  # atno 17343 bound_to 10162
  156.8803  130.9554  151.3600 LP  0  0  0  0  0  0  0  0  0  0  0  0  # atno 17370 bound_to 10713
  157.6180  130.8633  149.9061 LP  0  0  0  0  0  0  0  0  0  0  0  0  # atno 17371 bound_to 10713
  141.0926  133.6708  156.2575 LP  0  0  0  0  0  0  0  0  0  0  0  0  # atno 17394 bound_to 11000
  140.6155  134.5415  157.5540 LP  0  0  0  0  0  0  0  0  0  0  0  0  # atno 17395 bound_to 11000

$$$$
