AV-unprocessed.smi:3058|AV-procd|sdf|11670|dock2
  -GOLD-   2272017 73D 1   1.00000     0.00000
 Structure written by MMmdl.
 38 40  0  0  0  0  0  0  0  0  1 V2000
  151.2649  141.6240  157.9254 O   0  0  0  0  0  0  0  0  0  0  0  0
  150.8072  142.6350  157.3909 C   0  0  0  0  0  0  0  0  0  0  0  0
  150.1402  142.6064  156.2269 N   0  0  0  0  0  0  0  0  0  0  0  0
  149.8820  141.4066  155.4402 C   0  0  0  0  0  0  0  0  0  0  0  0
  148.9164  141.6890  154.2780 C   0  0  0  0  0  0  0  0  0  0  0  0
  148.1784  140.4410  153.8360 C   0  0  0  0  0  0  0  0  0  0  0  0
  147.2848  140.4785  152.7460 C   0  0  0  0  0  0  0  0  0  0  0  0
  146.6268  139.2925  152.3675 C   0  0  0  0  0  0  0  0  0  0  0  0
  146.8924  138.1162  153.0970 C   0  0  0  0  0  0  0  0  0  0  0  0
  147.7470  138.0686  154.1420 N   0  0  0  0  0  0  0  0  0  0  0  0
  148.3732  139.2106  154.4987 C   0  0  0  0  0  0  0  0  0  0  0  0
  150.9565  144.0175  158.0503 C   0  0  1  0  0  0  0  0  0  0  0  0
  150.3291  144.1338  159.4617 C   0  0  0  0  0  0  0  0  0  0  0  0
  151.4929  144.6737  160.3143 C   0  0  1  0  0  0  0  0  0  0  0  0
  152.5305  143.5571  160.5355 C   0  0  0  0  0  0  0  0  0  0  0  0
  153.2157  143.4537  159.1607 C   0  0  0  0  0  0  0  0  0  0  0  0
  152.4199  144.4662  158.3073 C   0  0  2  0  0  0  0  0  0  0  0  0
  152.2099  145.5845  159.3241 C   0  0  0  0  0  0  0  0  0  0  0  0
  149.7892  143.4788  155.8591 H   0  0  0  0  0  0  0  0  0  0  0  0
  150.8219  140.9958  155.0668 H   0  0  0  0  0  0  0  0  0  0  0  0
  149.4559  140.6528  156.1030 H   0  0  0  0  0  0  0  0  0  0  0  0
  148.1890  142.4474  154.5707 H   0  0  0  0  0  0  0  0  0  0  0  0
  149.4588  142.0970  153.4240 H   0  0  0  0  0  0  0  0  0  0  0  0
  147.1073  141.3978  152.2073 H   0  0  0  0  0  0  0  0  0  0  0  0
  145.9361  139.2842  151.5374 H   0  0  0  0  0  0  0  0  0  0  0  0
  146.4058  137.1888  152.8335 H   0  0  0  0  0  0  0  0  0  0  0  0
  149.0526  139.1384  155.3355 H   0  0  0  0  0  0  0  0  0  0  0  0
  150.4766  144.7552  157.4040 H   0  0  0  0  0  0  0  0  0  0  0  0
  149.5052  144.8484  159.4475 H   0  0  0  0  0  0  0  0  0  0  0  0
  149.9346  143.1981  159.8601 H   0  0  0  0  0  0  0  0  0  0  0  0
  151.1695  145.1577  161.2362 H   0  0  0  0  0  0  0  0  0  0  0  0
  153.2523  143.8379  161.3035 H   0  0  0  0  0  0  0  0  0  0  0  0
  152.0656  142.6182  160.8390 H   0  0  0  0  0  0  0  0  0  0  0  0
  154.2579  143.7660  159.2385 H   0  0  0  0  0  0  0  0  0  0  0  0
  153.2185  142.4406  158.7606 H   0  0  0  0  0  0  0  0  0  0  0  0
  152.9428  144.7783  157.4028 H   0  0  0  0  0  0  0  0  0  0  0  0
  151.5849  146.3990  158.9532 H   0  0  0  0  0  0  0  0  0  0  0  0
  153.1410  145.9995  159.7142 H   0  0  0  0  0  0  0  0  0  0  0  0
  1  2  2  0  0  0  0
  2  3  1  0  0  0  0
  2 12  1  0  0  0  0
  3  4  1  0  0  0  0
  3 19  1  0  0  0  0
  4  5  1  0  0  0  0
  4 20  1  0  0  0  0
  4 21  1  0  0  0  0
  5  6  1  0  0  0  0
  5 22  1  0  0  0  0
  5 23  1  0  0  0  0
  6 11  1  0  0  0  0
  6  7  2  0  0  0  0
  7  8  1  0  0  0  0
  7 24  1  0  0  0  0
  8  9  2  0  0  0  0
  8 25  1  0  0  0  0
  9 10  1  0  0  0  0
  9 26  1  0  0  0  0
 10 11  2  0  0  0  0
 11 27  1  0  0  0  0
 12 17  1  0  0  0  0
 12 13  1  0  0  0  0
 12 28  1  0  0  0  0
 13 14  1  0  0  0  0
 13 29  1  0  0  0  0
 13 30  1  0  0  0  0
 14 18  1  0  0  0  0
 14 15  1  0  0  0  0
 14 31  1  0  0  0  0
 15 16  1  0  0  0  0
 15 32  1  0  0  0  0
 15 33  1  0  0  0  0
 16 17  1  0  0  0  0
 16 34  1  0  0  0  0
 16 35  1  0  0  0  0
 17 18  1  0  0  0  0
 17 36  1  0  0  0  0
 18 37  1  0  0  0  0
 18 38  1  0  0  0  0
M  END
> <s_m_source_file>
AV-unprocessed.smi

> <i_m_source_file_index>
3058

> <i_lp_mmshare_version>
43012

> <i_f3d_flags>
0

> <s_epik_input>
W0NIMl0xW0NIMl1bQ0BIXShbQ0gyXTIpW0NAQEhdKFtDSDJdW0NAQEhdMTIpQyg9TylbTkhdW0NIMl1bQ0gyXWMzW2NIXVtjSF1bY0hdbltjSF0z

> <s_epik_cmdline>
J2VwaWtfcHl0aG9uJywgJy1waCcsICc3LjAnLCAnLXRuJywgJzgnLCAnLW1hJywgJzIwMCcsICctbWV0YWxfYmluZGluZycsICctaW1hZScsICc8aW5maWxlLm1hZT4nLCAnLW9tYWUnLCAnPG91dGZpbGUubWFlPic=

> <r_epik_Ionization_Penalty>
0.0135821

> <r_epik_Ionization_Penalty_Charging>
0

> <r_epik_Ionization_Penalty_Neutral>
0.0135821

> <r_epik_State_Penalty>
0.0105782

> <r_epik_Charging_Adjusted_Penalty>
0.0105782

> <i_epik_Tot_Q>
0

> <i_epik_Tot_abs_Q>
0

> <r_epik_Metal_State_Penalty>
0.0103407

> <b_epik_Metal_Only>
0

> <s_lp_Force_Field>
OPLS_2005

> <r_lp_Energy>
46.4092

> <b_lp_Chiralities_Consistent>
1

> <s_lp_Variant>
AV-unprocessed.smi:3058-2

> <Gold.Version>
5.8.1

> <Gold.Id.Protein>
6NUR|6NUR_protein|mol2

> <Gold.PLP.Fitness>
43.3974

> <Gold.PLP.PLP>
-40.7432

> <Gold.PLP.part.hbond>
-1.0000

> <Gold.PLP.part.metal>
0.0000

> <Gold.PLP.part.buried>
0.1441

> <Gold.PLP.part.nonpolar>
-39.8617

> <Gold.PLP.part.repulsive>
0.2456

> <Gold.PLP.ligand.clash>
0.0000

> <Gold.PLP.ligand.torsion>
0.1799

> <Gold.PLP.Chemscore.Hbond>
1.0000

> <Gold.PLP.Chemscore.CHOScore>
0.0000

> <Gold.PLP.Chemscore.Metal>
0.0000

> <Gold.Chemscore.Hbonds>
donor molecule, donor type, donor heavy atom, donor atom, acceptor molecule, acceptor atom, score
      L1  H     3    19       P1  8028  1.00
      L1  C     9    26       P1  7948  0.02

> <Gold.PLP.Chemscore.Internal.Correction>
0.0141

> <Gold.Rescore>
     Score         DG    S(hbond)    S(metal)    S(lipo)     H(rot)  DE(clash)    DE(int)     intcor
     18.15     -20.71       1.00        0.00     131.59       1.37       1.30       1.27       ----

> <Gold.Chemscore.Fitness>
18.1453

> <Gold.Chemscore.DG>
-20.7107

> <Gold.Chemscore.ZeroCoef>
-5.4800

> <Gold.Chemscore.Hbond>
0.9970

> <Gold.Chemscore.Metal>
0.0000

> <Gold.Chemscore.Lipo>
131.5887

> <Gold.Chemscore.Internal_Hbond>
0.0000

> <Gold.Chemscore.DEClash>
1.2975

> <Gold.Chemscore.DEInternal>
1.2679

> <Gold.Chemscore.Rot>
1.3653

> <Gold.Chemscore.Internal.Correction>
   9.000000E+99

> <Gold.Chemscore.Hbonds>
donor molecule, donor type, donor heavy atom, donor atom, acceptor molecule, acceptor atom, score
      L1  H     3    19       P1  8028  0.94

> <Gold.Chemscore.Hbond.Weighted>
-3.3299

> <Gold.Chemscore.Metal.Weighted>
-0.0000

> <Gold.Chemscore.Lipo.Weighted>
-15.3959

> <Gold.Chemscore.Internal_Hbond.Weighted>
0.0000

> <Gold.Chemscore.DEClash.Weighted>
1.2975

> <Gold.Chemscore.DEInternal.Weighted>
1.2679

> <Gold.Chemscore.Rot.Weighted>
3.4951

> <Gold.Chemscore.Internal.Correction.Weighted>
   9.000000E+99

> <Gold.Protein.RotatedTorsions>
[ 6907 6896 6895 6894 ] final -124.09 input  -60.11 | X-H torsion
[ 7974 7965 7964 7962 ] final   70.17 input  175.53 | X-H torsion
[ 8008 7997 7996 7995 ] final  154.13 input   59.86 | X-H torsion
[ 10167 10162 10161 10158 ] final   -9.47 input  -65.29 | X-H torsion
[ 10718 10713 10712 10709 ] final  -94.83 input   66.30 | X-H torsion
[ 10763 10752 10751 10750 ] final   -2.80 input  -60.55 | X-H torsion
[ 11005 11000 10999 10996 ] final   91.78 input  -57.11 | X-H torsion

> <Gold.Protein.ActiveResidues>
 VAL166  LYS551  ARG553  GLY616  TRP617  ASP618  TYR619  PRO620  LYS621  CYS622 
 ASP623  PHE694  ASN695  SER759  ASP760  ASP761  ALA762  ILE779  LEU786  VAL792 
 PHE793  MET794  SER795  GLU796  ALA797  LYS798  CYS799  TRP800  GLU811  SER814 

> <Gold.Protein.RotatedAtoms>
  150.8734  133.7472  159.2953 H   0  0  0  0  0  0  0  0  0  0  0  0  # atno 6907 bound_to 6896
  151.5077  135.1062  159.9855 H   0  0  0  0  0  0  0  0  0  0  0  0  # atno 6908 bound_to 6896
  152.4711  133.7987  159.6997 H   0  0  0  0  0  0  0  0  0  0  0  0  # atno 6909 bound_to 6896
  145.7814  139.2889  143.1263 H   0  0  0  0  0  0  0  0  0  0  0  0  # atno 7974 bound_to 7965
  156.2547  140.1975  156.6597 H   0  0  0  0  0  0  0  0  0  0  0  0  # atno 8008 bound_to 7997
  154.6473  140.0576  156.9941 H   0  0  0  0  0  0  0  0  0  0  0  0  # atno 8009 bound_to 7997
  155.1471  140.3248  155.4442 H   0  0  0  0  0  0  0  0  0  0  0  0  # atno 8010 bound_to 7997
  140.7088  143.5854  150.8948 H   0  0  0  0  0  0  0  0  0  0  0  0  # atno 10167 bound_to 10162
  156.0033  130.5084  150.5985 H   0  0  0  0  0  0  0  0  0  0  0  0  # atno 10718 bound_to 10713
  153.3629  135.6991  153.6698 H   0  0  0  0  0  0  0  0  0  0  0  0  # atno 10763 bound_to 10752
  153.5379  135.3579  155.2706 H   0  0  0  0  0  0  0  0  0  0  0  0  # atno 10764 bound_to 10752
  154.8670  135.4196  154.2890 H   0  0  0  0  0  0  0  0  0  0  0  0  # atno 10765 bound_to 10752
  139.8833  134.8694  156.3477 H   0  0  0  0  0  0  0  0  0  0  0  0  # atno 11005 bound_to 11000
  146.0070  140.8470  142.9990 LP  0  0  0  0  0  0  0  0  0  0  0  0  # atno 17320 bound_to 7965
  144.6796  140.2434  143.7341 LP  0  0  0  0  0  0  0  0  0  0  0  0  # atno 17321 bound_to 7965
  139.9580  143.6196  152.3010 LP  0  0  0  0  0  0  0  0  0  0  0  0  # atno 17342 bound_to 10162
  139.6738  144.7659  151.1733 LP  0  0  0  0  0  0  0  0  0  0  0  0  # atno 17343 bound_to 10162
  157.3838  131.0785  151.1453 LP  0  0  0  0  0  0  0  0  0  0  0  0  # atno 17370 bound_to 10713
  157.2167  130.6462  149.5795 LP  0  0  0  0  0  0  0  0  0  0  0  0  # atno 17371 bound_to 10713
  140.9615  133.7385  156.0408 LP  0  0  0  0  0  0  0  0  0  0  0  0  # atno 17394 bound_to 11000
  140.7983  134.3538  157.5446 LP  0  0  0  0  0  0  0  0  0  0  0  0  # atno 17395 bound_to 11000

$$$$
