AV-unprocessed.smi:1296|AV-procd|sdf|5415|dock1
  -GOLD-   22720 4573D 1   1.00000     0.00000
 Structure written by MMmdl.
 35 35  0  0  0  0  0  0  0  0  2 V2000
  150.5810  142.8235  158.1324 C   0  0  0  0  0  0  0  0  0  0  0  0
  150.7199  141.7255  157.0997 C   0  0  0  0  0  0  0  0  0  0  0  0
  149.7979  141.5663  156.2284 N   0  0  0  0  0  0  0  0  0  0  0  0
  149.9200  140.5447  155.2714 C   0  0  0  0  0  0  0  0  0  0  0  0
  148.7738  140.4235  154.2823 C   0  0  0  0  0  0  0  0  0  0  0  0
  151.0074  139.7214  155.2516 C   0  0  0  0  0  0  0  0  0  0  0  0
  151.1785  138.5906  154.2371 C   0  0  0  0  0  0  0  0  0  0  0  0
  151.3402  137.1875  154.8269 C   0  0  0  0  0  0  0  0  0  0  0  0
  152.1921  136.9715  155.6886 O   0  0  0  0  0  0  0  0  0  0  0  0
  150.5168  136.2437  154.3455 N   0  0  0  0  0  0  0  0  0  0  0  0
  150.5020  134.8417  154.7506 C   0  0  0  0  0  0  0  0  0  0  0  0
  149.3968  134.0520  154.0226 C   0  0  0  0  0  0  0  0  0  0  0  0
  147.9912  134.4016  154.5419 C   0  0  0  0  0  0  0  0  0  0  0  0
  149.6516  132.5408  154.1245 C   0  0  0  0  0  0  0  0  0  0  0  0
  152.0514  139.9434  156.2683 C   0  0  0  0  0  0  0  0  0  0  0  0
  153.0600  139.2389  156.2883 O   0  0  0  0  0  0  0  0  0  0  0  0
  151.8546  140.9489  157.1685 N   0  5  0  0  0  0  0  0  0  0  0  0
  149.7347  143.4730  157.9040 H   0  0  0  0  0  0  0  0  0  0  0  0
  151.4826  143.4363  158.1598 H   0  0  0  0  0  0  0  0  0  0  0  0
  150.4252  142.3921  159.1215 H   0  0  0  0  0  0  0  0  0  0  0  0
  148.2850  139.4540  154.3795 H   0  0  0  0  0  0  0  0  0  0  0  0
  149.1359  140.5310  153.2596 H   0  0  0  0  0  0  0  0  0  0  0  0
  148.0226  141.1957  154.4524 H   0  0  0  0  0  0  0  0  0  0  0  0
  150.3449  138.5674  153.5351 H   0  0  0  0  0  0  0  0  0  0  0  0
  152.0487  138.8196  153.6210 H   0  0  0  0  0  0  0  0  0  0  0  0
  149.8499  136.5188  153.6391 H   0  0  0  0  0  0  0  0  0  0  0  0
  151.4793  134.4188  154.5151 H   0  0  0  0  0  0  0  0  0  0  0  0
  150.3728  134.7401  155.8295 H   0  0  0  0  0  0  0  0  0  0  0  0
  149.4348  134.3170  152.9650 H   0  0  0  0  0  0  0  0  0  0  0  0
  147.8981  134.1843  155.6065 H   0  0  0  0  0  0  0  0  0  0  0  0
  147.2257  133.8288  154.0177 H   0  0  0  0  0  0  0  0  0  0  0  0
  147.7601  135.4570  154.3972 H   0  0  0  0  0  0  0  0  0  0  0  0
  149.6273  132.2035  155.1613 H   0  0  0  0  0  0  0  0  0  0  0  0
  150.6259  132.2773  153.7118 H   0  0  0  0  0  0  0  0  0  0  0  0
  148.8992  131.9762  153.5732 H   0  0  0  0  0  0  0  0  0  0  0  0
  1  2  1  0  0  0  0
  1 18  1  0  0  0  0
  1 19  1  0  0  0  0
  1 20  1  0  0  0  0
  2 17  1  0  0  0  0
  2  3  2  0  0  0  0
  3  4  1  0  0  0  0
  4  5  1  0  0  0  0
  4  6  2  0  0  0  0
  5 21  1  0  0  0  0
  5 22  1  0  0  0  0
  5 23  1  0  0  0  0
  6  7  1  0  0  0  0
  6 15  1  0  0  0  0
  7  8  1  0  0  0  0
  7 24  1  0  0  0  0
  7 25  1  0  0  0  0
  8  9  2  0  0  0  0
  8 10  1  0  0  0  0
 10 11  1  0  0  0  0
 10 26  1  0  0  0  0
 11 12  1  0  0  0  0
 11 27  1  0  0  0  0
 11 28  1  0  0  0  0
 12 13  1  0  0  0  0
 12 14  1  0  0  0  0
 12 29  1  0  0  0  0
 13 30  1  0  0  0  0
 13 31  1  0  0  0  0
 13 32  1  0  0  0  0
 14 33  1  0  0  0  0
 14 34  1  0  0  0  0
 14 35  1  0  0  0  0
 15 16  2  0  0  0  0
 15 17  1  0  0  0  0
M  CHG  1  17  -1
M  END
> <s_m_source_file>
AV-unprocessed.smi

> <i_m_source_file_index>
1296

> <i_lp_mmshare_version>
43012

> <i_f3d_flags>
0

> <s_epik_input>
W0NIM11jMW5jKFtDSDNdKWMoYyg9TylbbkhdMSlbQ0gyXUMoPU8pW05IXVtDSDJdW0NIXShbQ0gzXSlbQ0gzXQ==

> <s_epik_cmdline>
J2VwaWtfcHl0aG9uJywgJy1waCcsICc3LjAnLCAnLXRuJywgJzgnLCAnLW1hJywgJzIwMCcsICctbWV0YWxfYmluZGluZycsICctaW1hZScsICc8aW5maWxlLm1hZT4nLCAnLW9tYWUnLCAnPG91dGZpbGUubWFlPic=

> <r_lp_tautomer_probability>
0.839158

> <r_epik_Ionization_Penalty>
6.60351

> <r_epik_Ionization_Penalty_Charging>
6.70818e-08

> <r_epik_Ionization_Penalty_Neutral>
6.60351

> <r_epik_State_Penalty>
4.42903

> <r_epik_Charging_Adjusted_Penalty>
4.42903

> <i_epik_Tot_Q>
-1

> <i_epik_Tot_abs_Q>
1

> <r_epik_Metal_State_Penalty>
0.797668

> <b_epik_Metal_Only>
1

> <s_lp_Force_Field>
OPLS_2005

> <r_lp_Energy>
9.77774

> <b_lp_Chiralities_Consistent>
1

> <s_lp_Variant>
AV-unprocessed.smi:1296-3

> <Gold.Version>
5.8.1

> <Gold.Id.Protein>
6NUR|6NUR_protein|mol2

> <Gold.PLP.Fitness>
39.8261

> <Gold.PLP.PLP>
-31.1804

> <Gold.PLP.part.hbond>
-4.0000

> <Gold.PLP.part.metal>
0.0000

> <Gold.PLP.part.buried>
-1.3073

> <Gold.PLP.part.nonpolar>
-25.4606

> <Gold.PLP.part.repulsive>
0.1952

> <Gold.PLP.ligand.clash>
0.0000

> <Gold.PLP.ligand.torsion>
0.1744

> <Gold.PLP.Chemscore.Hbond>
2.9920

> <Gold.PLP.Chemscore.CHOScore>
0.0000

> <Gold.PLP.Chemscore.Metal>
0.0000

> <Gold.Chemscore.Hbonds>
donor molecule, donor type, donor heavy atom, donor atom, acceptor molecule, acceptor atom, score
      L1  H    10    26       P1  7948  0.99
      P1  H  7997  8008       L1    16  1.00
      P1  H 10752 10764       L1     9  0.91

> <Gold.PLP.Chemscore.Internal.Correction>
0.0186

> <Gold.Rescore>
     Score         DG    S(hbond)    S(metal)    S(lipo)     H(rot)  DE(clash)    DE(int)     intcor
     13.39     -15.09       2.30        0.00      53.26       1.68       0.03       1.68       ----

> <Gold.Chemscore.Fitness>
13.3894

> <Gold.Chemscore.DG>
-15.0931

> <Gold.Chemscore.ZeroCoef>
-5.4800

> <Gold.Chemscore.Hbond>
2.3007

> <Gold.Chemscore.Metal>
0.0000

> <Gold.Chemscore.Lipo>
53.2616

> <Gold.Chemscore.Internal_Hbond>
0.0000

> <Gold.Chemscore.DEClash>
0.0253

> <Gold.Chemscore.DEInternal>
1.6784

> <Gold.Chemscore.Rot>
1.6808

> <Gold.Chemscore.Internal.Correction>
   9.000000E+99

> <Gold.Chemscore.Hbonds>
donor molecule, donor type, donor heavy atom, donor atom, acceptor molecule, acceptor atom, score
      L1  H    10    26       P1  7948  0.28
      P1  H  7997  8008       L1    16  0.78
      P1  H 10752 10764       L1     9  0.31

> <Gold.Chemscore.Hbond.Weighted>
-7.6843

> <Gold.Chemscore.Metal.Weighted>
-0.0000

> <Gold.Chemscore.Lipo.Weighted>
-6.2316

> <Gold.Chemscore.Internal_Hbond.Weighted>
0.0000

> <Gold.Chemscore.DEClash.Weighted>
0.0253

> <Gold.Chemscore.DEInternal.Weighted>
1.6784

> <Gold.Chemscore.Rot.Weighted>
4.3029

> <Gold.Chemscore.Internal.Correction.Weighted>
   9.000000E+99

> <Gold.Protein.RotatedTorsions>
[ 6907 6896 6895 6894 ] final  -29.30 input  -60.11 | X-H torsion
[ 7974 7965 7964 7962 ] final  171.07 input  175.53 | X-H torsion
[ 8008 7997 7996 7995 ] final  -50.44 input   59.86 | X-H torsion
[ 10167 10162 10161 10158 ] final -165.89 input  -65.29 | X-H torsion
[ 10718 10713 10712 10709 ] final   -0.54 input   66.30 | X-H torsion
[ 10763 10752 10751 10750 ] final  -34.49 input  -60.55 | X-H torsion
[ 11005 11000 10999 10996 ] final  -74.14 input  -57.11 | X-H torsion

> <Gold.Protein.ActiveResidues>
 VAL166  LYS551  ARG553  GLY616  TRP617  ASP618  TYR619  PRO620  LYS621  CYS622 
 ASP623  PHE694  ASN695  SER759  ASP760  ASP761  ALA762  ILE779  LEU786  VAL792 
 PHE793  MET794  SER795  GLU796  ALA797  LYS798  CYS799  TRP800  GLU811  SER814 

> <Gold.Protein.RotatedAtoms>
  151.1211  135.0080  159.8538 H   0  0  0  0  0  0  0  0  0  0  0  0  # atno 6907 bound_to 6896
  152.5448  134.1721  159.8611 H   0  0  0  0  0  0  0  0  0  0  0  0  # atno 6908 bound_to 6896
  151.1779  133.4698  159.2627 H   0  0  0  0  0  0  0  0  0  0  0  0  # atno 6909 bound_to 6896
  144.7305  139.9296  143.6424 H   0  0  0  0  0  0  0  0  0  0  0  0  # atno 7974 bound_to 7965
  154.4062  140.1272  156.4666 H   0  0  0  0  0  0  0  0  0  0  0  0  # atno 8008 bound_to 7997
  155.7221  140.3492  155.5001 H   0  0  0  0  0  0  0  0  0  0  0  0  # atno 8009 bound_to 7997
  155.9205  140.1052  157.1201 H   0  0  0  0  0  0  0  0  0  0  0  0  # atno 8010 bound_to 7997
  139.6151  144.0735  152.1880 H   0  0  0  0  0  0  0  0  0  0  0  0  # atno 10167 bound_to 10162
  156.8189  130.5449  149.5699 H   0  0  0  0  0  0  0  0  0  0  0  0  # atno 10718 bound_to 10713
  153.8476  135.6852  153.4796 H   0  0  0  0  0  0  0  0  0  0  0  0  # atno 10763 bound_to 10752
  153.1416  135.4655  154.9503 H   0  0  0  0  0  0  0  0  0  0  0  0  # atno 10764 bound_to 10752
  154.7817  135.3271  154.7923 H   0  0  0  0  0  0  0  0  0  0  0  0  # atno 10765 bound_to 10752
  141.1631  133.6901  156.7318 H   0  0  0  0  0  0  0  0  0  0  0  0  # atno 11005 bound_to 11000
  146.0867  139.3856  143.0431 LP  0  0  0  0  0  0  0  0  0  0  0  0  # atno 17320 bound_to 7965
  145.7766  140.9874  143.1121 LP  0  0  0  0  0  0  0  0  0  0  0  0  # atno 17321 bound_to 7965
  140.0363  144.6042  150.7447 LP  0  0  0  0  0  0  0  0  0  0  0  0  # atno 17342 bound_to 10162
  140.7346  143.2730  151.3828 LP  0  0  0  0  0  0  0  0  0  0  0  0  # atno 17343 bound_to 10162
  156.1000  130.5962  150.9879 LP  0  0  0  0  0  0  0  0  0  0  0  0  # atno 17370 bound_to 10713
  157.6467  131.0903  150.8138 LP  0  0  0  0  0  0  0  0  0  0  0  0  # atno 17371 bound_to 10713
  140.2739  134.8370  157.3872 LP  0  0  0  0  0  0  0  0  0  0  0  0  # atno 17394 bound_to 11000
  140.1496  134.4867  155.7971 LP  0  0  0  0  0  0  0  0  0  0  0  0  # atno 17395 bound_to 11000

$$$$
