AV-unprocessed.smi:3351|AV-procd|sdf|12948|dock6
  -GOLD-   2272019383D 1   1.00000     0.00000
 Structure written by MMmdl.
 35 36  0  0  0  0  0  0  0  0  2 V2000
  149.0988  141.5687  157.0574 C   0  0  0  0  0  0  0  0  0  0  0  0
  150.4273  140.8027  156.9488 C   0  0  1  0  0  0  0  0  0  0  0  0
  150.9795  140.7477  155.5077 C   0  0  0  0  0  0  0  0  0  0  0  0
  150.7551  139.4508  154.8617 N   0  0  0  0  0  0  0  0  0  0  0  0
  151.2587  138.2355  155.2488 C   0  0  0  0  0  0  0  0  0  0  0  0
  150.7862  137.3129  154.3512 C   0  0  0  0  0  0  0  0  0  0  0  0
  150.0191  138.0043  153.4522 N   0  3  0  0  0  0  0  0  0  0  0  0
  150.0045  139.3049  153.7619 C   0  0  0  0  0  0  0  0  0  0  0  0
  151.4066  141.4136  157.8429 N   0  0  0  0  0  0  0  0  0  0  0  0
  152.2016  140.7461  158.6937 C   0  0  0  0  0  0  0  0  0  0  0  0
  152.2101  139.5177  158.7853 O   0  0  0  0  0  0  0  0  0  0  0  0
  153.1465  141.6010  159.5477 C   0  0  0  0  0  0  0  0  0  0  0  0
  152.6991  142.9893  159.6750 N   0  0  0  0  0  0  0  0  0  0  0  0
  153.0914  143.9620  158.6626 C   0  0  0  0  0  0  0  0  0  0  0  0
  152.2268  145.2108  158.8484 C   0  0  0  0  0  0  0  0  0  0  0  0
  151.6278  145.2157  160.5497 S   0  0  0  0  0  0  0  0  0  0  0  0
  151.9788  143.4679  160.7618 C   0  0  0  0  0  0  0  0  0  0  0  0
  151.6110  142.8393  161.7527 O   0  0  0  0  0  0  0  0  0  0  0  0
  148.3104  141.0871  156.4784 H   0  0  0  0  0  0  0  0  0  0  0  0
  149.2007  142.5926  156.6965 H   0  0  0  0  0  0  0  0  0  0  0  0
  148.7557  141.6134  158.0918 H   0  0  0  0  0  0  0  0  0  0  0  0
  150.2414  139.7824  157.2896 H   0  0  0  0  0  0  0  0  0  0  0  0
  150.5229  141.5242  154.8916 H   0  0  0  0  0  0  0  0  0  0  0  0
  152.0549  140.9299  155.4979 H   0  0  0  0  0  0  0  0  0  0  0  0
  151.8970  138.1209  156.1132 H   0  0  0  0  0  0  0  0  0  0  0  0
  150.9354  136.2449  154.2861 H   0  0  0  0  0  0  0  0  0  0  0  0
  149.4848  140.0822  153.2303 H   0  0  0  0  0  0  0  0  0  0  0  0
  151.4697  142.4214  157.8302 H   0  0  0  0  0  0  0  0  0  0  0  0
  153.2272  141.1437  160.5345 H   0  0  0  0  0  0  0  0  0  0  0  0
  154.1504  141.5858  159.1195 H   0  0  0  0  0  0  0  0  0  0  0  0
  154.1439  144.2063  158.8107 H   0  0  0  0  0  0  0  0  0  0  0  0
  152.9846  143.5581  157.6553 H   0  0  0  0  0  0  0  0  0  0  0  0
  152.7712  146.1271  158.6200 H   0  0  0  0  0  0  0  0  0  0  0  0
  151.3604  145.1657  158.1882 H   0  0  0  0  0  0  0  0  0  0  0  0
  149.5336  137.5933  152.6647 H   0  0  0  0  0  0  0  0  0  0  0  0
  1  2  1  0  0  0  0
  1 19  1  0  0  0  0
  1 20  1  0  0  0  0
  1 21  1  0  0  0  0
  2  3  1  0  0  0  0
  2  9  1  0  0  0  0
  2 22  1  0  0  0  0
  3  4  1  0  0  0  0
  3 23  1  0  0  0  0
  3 24  1  0  0  0  0
  4  8  1  0  0  0  0
  4  5  1  0  0  0  0
  5  6  2  0  0  0  0
  5 25  1  0  0  0  0
  6  7  1  0  0  0  0
  6 26  1  0  0  0  0
  7  8  2  0  0  0  0
  7 35  1  0  0  0  0
  8 27  1  0  0  0  0
  9 10  1  0  0  0  0
  9 28  1  0  0  0  0
 10 11  2  0  0  0  0
 10 12  1  0  0  0  0
 12 13  1  0  0  0  0
 12 29  1  0  0  0  0
 12 30  1  0  0  0  0
 13 17  1  0  0  0  0
 13 14  1  0  0  0  0
 14 15  1  0  0  0  0
 14 31  1  0  0  0  0
 14 32  1  0  0  0  0
 15 16  1  0  0  0  0
 15 33  1  0  0  0  0
 15 34  1  0  0  0  0
 16 17  1  0  0  0  0
 17 18  2  0  0  0  0
M  CHG  1   7   1
M  END
> <s_m_source_file>
AV-unprocessed.smi

> <i_m_source_file_index>
3351

> <i_lp_mmshare_version>
43012

> <i_f3d_flags>
0

> <s_epik_input>
W2NIXTFuW2NIXVtjSF1uMVtDSDJdW0NAQEhdKFtDSDNdKVtOSF1DKD1PKVtDSDJdTjJbQ0gyXVtDSDJdU0MyPU8=

> <s_epik_cmdline>
J2VwaWtfcHl0aG9uJywgJy1waCcsICc3LjAnLCAnLXRuJywgJzgnLCAnLW1hJywgJzIwMCcsICctbWV0YWxfYmluZGluZycsICctaW1hZScsICc8aW5maWxlLm1hZT4nLCAnLW9tYWUnLCAnPG91dGZpbGUubWFlPic=

> <r_lp_tautomer_probability>
1

> <r_epik_Ionization_Penalty>
0.257312

> <r_epik_Ionization_Penalty_Charging>
0

> <r_epik_Ionization_Penalty_Neutral>
0.257312

> <r_epik_State_Penalty>
0.248897

> <r_epik_Charging_Adjusted_Penalty>
0.248897

> <i_epik_Tot_Q>
1

> <i_epik_Tot_abs_Q>
1

> <r_epik_Metal_State_Penalty>
0.538022

> <b_epik_Metal_Only>
0

> <s_lp_Force_Field>
OPLS_2005

> <r_lp_Energy>
6.1395

> <b_lp_Chiralities_Consistent>
1

> <s_lp_Variant>
AV-unprocessed.smi:3351-2

> <Gold.Version>
5.8.1

> <Gold.Id.Protein>
6NUR|6NUR_protein|mol2

> <Gold.PLP.Fitness>
49.7543

> <Gold.PLP.PLP>
-41.7332

> <Gold.PLP.part.hbond>
-3.0000

> <Gold.PLP.part.metal>
0.0000

> <Gold.PLP.part.buried>
-3.8855

> <Gold.PLP.part.nonpolar>
-36.7821

> <Gold.PLP.part.repulsive>
0.8722

> <Gold.PLP.ligand.clash>
0.0000

> <Gold.PLP.ligand.torsion>
1.4725

> <Gold.PLP.Chemscore.Hbond>
2.6635

> <Gold.PLP.Chemscore.CHOScore>
0.9776

> <Gold.PLP.Chemscore.Metal>
0.0000

> <Gold.Chemscore.Hbonds>
donor molecule, donor type, donor heavy atom, donor atom, acceptor molecule, acceptor atom, score
      L1  H     7    35       P1  7948  2.00
      P1  H  6933  6945       L1    18  0.67
      L1  C     8    27       P1  7957  0.73

> <Gold.PLP.Chemscore.Internal.Correction>
0.0426

> <Gold.Rescore>
     Score         DG    S(hbond)    S(metal)    S(lipo)     H(rot)  DE(clash)    DE(int)     intcor
     11.34     -13.34       1.55        0.00      75.81       2.41       0.73       1.27       ----

> <Gold.Chemscore.Fitness>
11.3416

> <Gold.Chemscore.DG>
-13.3427

> <Gold.Chemscore.ZeroCoef>
-5.4800

> <Gold.Chemscore.Hbond>
1.5486

> <Gold.Chemscore.Metal>
0.0000

> <Gold.Chemscore.Lipo>
75.8147

> <Gold.Chemscore.Internal_Hbond>
0.0000

> <Gold.Chemscore.DEClash>
0.7296

> <Gold.Chemscore.DEInternal>
1.2714

> <Gold.Chemscore.Rot>
2.4141

> <Gold.Chemscore.Internal.Correction>
   9.000000E+99

> <Gold.Chemscore.Hbonds>
donor molecule, donor type, donor heavy atom, donor atom, acceptor molecule, acceptor atom, score
      L1  H     7    35       P1  7948  0.61
      P1  H  6933  6945       L1    18  0.67

> <Gold.Chemscore.Hbond.Weighted>
-5.1724

> <Gold.Chemscore.Metal.Weighted>
-0.0000

> <Gold.Chemscore.Lipo.Weighted>
-8.8703

> <Gold.Chemscore.Internal_Hbond.Weighted>
0.0000

> <Gold.Chemscore.DEClash.Weighted>
0.7296

> <Gold.Chemscore.DEInternal.Weighted>
1.2714

> <Gold.Chemscore.Rot.Weighted>
6.1800

> <Gold.Chemscore.Internal.Correction.Weighted>
   9.000000E+99

> <Gold.Protein.RotatedTorsions>
[ 6907 6896 6895 6894 ] final  104.46 input  -60.11 | X-H torsion
[ 7974 7965 7964 7962 ] final   75.44 input  175.53 | X-H torsion
[ 8008 7997 7996 7995 ] final  -98.81 input   59.86 | X-H torsion
[ 10167 10162 10161 10158 ] final  -89.20 input  -65.29 | X-H torsion
[ 10718 10713 10712 10709 ] final  100.88 input   66.30 | X-H torsion
[ 10763 10752 10751 10750 ] final -127.63 input  -60.55 | X-H torsion
[ 11005 11000 10999 10996 ] final  -76.86 input  -57.11 | X-H torsion

> <Gold.Protein.ActiveResidues>
 VAL166  LYS551  ARG553  GLY616  TRP617  ASP618  TYR619  PRO620  LYS621  CYS622 
 ASP623  PHE694  ASN695  SER759  ASP760  ASP761  ALA762  ILE779  LEU786  VAL792 
 PHE793  MET794  SER795  GLU796  ALA797  LYS798  CYS799  TRP800  GLU811  SER814 

> <Gold.Protein.RotatedAtoms>
  152.5263  133.9673  159.7744 H   0  0  0  0  0  0  0  0  0  0  0  0  # atno 6907 bound_to 6896
  150.9951  133.6102  159.2710 H   0  0  0  0  0  0  0  0  0  0  0  0  # atno 6908 bound_to 6896
  151.3231  135.0830  159.9366 H   0  0  0  0  0  0  0  0  0  0  0  0  # atno 6909 bound_to 6896
  145.7155  139.2630  143.1626 H   0  0  0  0  0  0  0  0  0  0  0  0  # atno 7974 bound_to 7965
  154.8063  140.0452  157.1310 H   0  0  0  0  0  0  0  0  0  0  0  0  # atno 8008 bound_to 7997
  154.9420  140.3054  155.5096 H   0  0  0  0  0  0  0  0  0  0  0  0  # atno 8009 bound_to 7997
  156.2967  140.2304  156.4490 H   0  0  0  0  0  0  0  0  0  0  0  0  # atno 8010 bound_to 7997
  140.3672  143.2812  151.9544 H   0  0  0  0  0  0  0  0  0  0  0  0  # atno 10167 bound_to 10162
  157.6843  131.0711  150.5168 H   0  0  0  0  0  0  0  0  0  0  0  0  # atno 10718 bound_to 10713
  154.8753  135.3955  154.3625 H   0  0  0  0  0  0  0  0  0  0  0  0  # atno 10763 bound_to 10752
  153.4395  135.7026  153.6183 H   0  0  0  0  0  0  0  0  0  0  0  0  # atno 10764 bound_to 10752
  153.4770  135.3777  155.2391 H   0  0  0  0  0  0  0  0  0  0  0  0  # atno 10765 bound_to 10752
  141.1657  133.7000  156.7732 H   0  0  0  0  0  0  0  0  0  0  0  0  # atno 11005 bound_to 11000
  146.0673  140.7907  142.9705 LP  0  0  0  0  0  0  0  0  0  0  0  0  # atno 17320 bound_to 7965
  144.6930  140.3288  143.7219 LP  0  0  0  0  0  0  0  0  0  0  0  0  # atno 17321 bound_to 7965
  139.4807  144.5940  151.7723 LP  0  0  0  0  0  0  0  0  0  0  0  0  # atno 17342 bound_to 10162
  140.5069  144.1084  150.5985 LP  0  0  0  0  0  0  0  0  0  0  0  0  # atno 17343 bound_to 10162
  156.5483  130.4225  149.6120 LP  0  0  0  0  0  0  0  0  0  0  0  0  # atno 17370 bound_to 10713
  156.2925  130.7132  151.1984 LP  0  0  0  0  0  0  0  0  0  0  0  0  # atno 17371 bound_to 10713
  140.2448  134.8585  157.3610 LP  0  0  0  0  0  0  0  0  0  0  0  0  # atno 17394 bound_to 11000
  140.1760  134.4549  155.7801 LP  0  0  0  0  0  0  0  0  0  0  0  0  # atno 17395 bound_to 11000

$$$$
