AV-unprocessed.smi:2244|AV-procd|sdf|9075|dock1
  -GOLD-   2272012283D 1   1.00000     0.00000
 Structure written by MMmdl.
 49 51  0  0  0  0  0  0  0  0  1 V2000
  148.3852  128.2191  152.6809 C   0  0  0  0  0  0  0  0  0  0  0  0
  148.2995  128.8458  154.0883 C   0  0  0  0  0  0  0  0  0  0  0  0
  146.9211  128.5467  154.7136 C   0  0  0  0  0  0  0  0  0  0  0  0
  149.3678  128.1575  154.9678 C   0  0  0  0  0  0  0  0  0  0  0  0
  148.5074  130.3679  153.9936 C   0  0  0  0  0  0  0  0  0  0  0  0
  147.6828  131.2157  153.2205 C   0  0  0  0  0  0  0  0  0  0  0  0
  147.9782  132.5895  153.2159 C   0  0  0  0  0  0  0  0  0  0  0  0
  149.0724  133.0481  153.9770 C   0  0  0  0  0  0  0  0  0  0  0  0
  149.3054  134.4528  153.9060 N   0  0  0  0  0  0  0  0  0  0  0  0
  149.9126  135.3014  154.7629 C   0  0  0  0  0  0  0  0  0  0  0  0
  150.3903  134.8976  155.8219 O   0  0  0  0  0  0  0  0  0  0  0  0
  149.9651  136.5899  154.3869 N   0  0  0  0  0  0  0  0  0  0  0  0
  150.5627  137.6771  155.1548 C   0  0  1  0  0  0  0  0  0  0  0  0
  151.8956  138.0896  154.5164 C   0  0  0  0  0  0  0  0  0  0  0  0
  152.4814  139.3179  155.2288 C   0  0  0  0  0  0  0  0  0  0  0  0
  151.5476  140.3953  155.2095 O   0  0  0  0  0  0  0  0  0  0  0  0
  150.2916  140.1241  155.8337 C   0  0  2  0  0  0  0  0  0  0  0  0
  150.4209  140.0221  157.3474 C   0  0  0  0  0  0  0  0  0  0  0  0
  150.1678  141.2244  158.2266 C   0  0  0  0  0  0  0  0  0  0  0  0
  151.5703  140.6872  158.0668 C   0  0  0  0  0  0  0  0  0  0  0  0
  149.6207  138.8929  155.1932 C   0  0  0  0  0  0  0  0  0  0  0  0
  149.8232  132.1727  154.6933 N   0  0  0  0  0  0  0  0  0  0  0  0
  149.5487  130.8656  154.7038 N   0  0  0  0  0  0  0  0  0  0  0  0
  148.2647  127.1360  152.7198 H   0  0  0  0  0  0  0  0  0  0  0  0
  149.3491  128.4260  152.2146 H   0  0  0  0  0  0  0  0  0  0  0  0
  147.6102  128.6036  152.0170 H   0  0  0  0  0  0  0  0  0  0  0  0
  146.1058  128.9480  154.1108 H   0  0  0  0  0  0  0  0  0  0  0  0
  146.8372  128.9815  155.7103 H   0  0  0  0  0  0  0  0  0  0  0  0
  146.7517  127.4735  154.8081 H   0  0  0  0  0  0  0  0  0  0  0  0
  149.2027  127.0807  155.0195 H   0  0  0  0  0  0  0  0  0  0  0  0
  149.3488  128.5316  155.9923 H   0  0  0  0  0  0  0  0  0  0  0  0
  150.3733  128.3063  154.5720 H   0  0  0  0  0  0  0  0  0  0  0  0
  146.8481  130.8515  152.6418 H   0  0  0  0  0  0  0  0  0  0  0  0
  147.3741  133.2738  152.6379 H   0  0  0  0  0  0  0  0  0  0  0  0
  148.9915  134.8826  153.0483 H   0  0  0  0  0  0  0  0  0  0  0  0
  149.5464  136.8370  153.5011 H   0  0  0  0  0  0  0  0  0  0  0  0
  150.7593  137.3348  156.1720 H   0  0  0  0  0  0  0  0  0  0  0  0
  152.6058  137.2630  154.5543 H   0  0  0  0  0  0  0  0  0  0  0  0
  151.7457  138.3252  153.4615 H   0  0  0  0  0  0  0  0  0  0  0  0
  152.7682  139.0741  156.2519 H   0  0  0  0  0  0  0  0  0  0  0  0
  153.3911  139.6404  154.7223 H   0  0  0  0  0  0  0  0  0  0  0  0
  149.6608  140.9890  155.6245 H   0  0  0  0  0  0  0  0  0  0  0  0
  150.1024  139.0684  157.7622 H   0  0  0  0  0  0  0  0  0  0  0  0
  149.9337  142.1695  157.7402 H   0  0  0  0  0  0  0  0  0  0  0  0
  149.6670  141.0528  159.1771 H   0  0  0  0  0  0  0  0  0  0  0  0
  152.0066  140.1580  158.9112 H   0  0  0  0  0  0  0  0  0  0  0  0
  152.2683  141.2736  157.4725 H   0  0  0  0  0  0  0  0  0  0  0  0
  149.3270  139.1489  154.1741 H   0  0  0  0  0  0  0  0  0  0  0  0
  148.6994  138.6486  155.7237 H   0  0  0  0  0  0  0  0  0  0  0  0
  1  2  1  0  0  0  0
  1 24  1  0  0  0  0
  1 25  1  0  0  0  0
  1 26  1  0  0  0  0
  2  3  1  0  0  0  0
  2  4  1  0  0  0  0
  2  5  1  0  0  0  0
  3 27  1  0  0  0  0
  3 28  1  0  0  0  0
  3 29  1  0  0  0  0
  4 30  1  0  0  0  0
  4 31  1  0  0  0  0
  4 32  1  0  0  0  0
  5 23  1  0  0  0  0
  5  6  2  0  0  0  0
  6  7  1  0  0  0  0
  6 33  1  0  0  0  0
  7  8  2  0  0  0  0
  7 34  1  0  0  0  0
  8  9  1  0  0  0  0
  8 22  1  0  0  0  0
  9 10  1  0  0  0  0
  9 35  1  0  0  0  0
 10 11  2  0  0  0  0
 10 12  1  0  0  0  0
 12 13  1  0  0  0  0
 12 36  1  0  0  0  0
 13 21  1  0  0  0  0
 13 14  1  0  0  0  0
 13 37  1  0  0  0  0
 14 15  1  0  0  0  0
 14 38  1  0  0  0  0
 14 39  1  0  0  0  0
 15 16  1  0  0  0  0
 15 40  1  0  0  0  0
 15 41  1  0  0  0  0
 16 17  1  0  0  0  0
 17 18  1  0  0  0  0
 17 21  1  0  0  0  0
 17 42  1  0  0  0  0
 18 20  1  0  0  0  0
 18 19  1  0  0  0  0
 18 43  1  0  0  0  0
 19 20  1  0  0  0  0
 19 44  1  0  0  0  0
 19 45  1  0  0  0  0
 20 46  1  0  0  0  0
 20 47  1  0  0  0  0
 21 48  1  0  0  0  0
 21 49  1  0  0  0  0
 22 23  2  0  0  0  0
M  END
> <s_m_source_file>
AV-unprocessed.smi

> <i_m_source_file_index>
2244

> <i_lp_mmshare_version>
43012

> <i_f3d_flags>
0

> <s_epik_input>
W0NIM11DKFtDSDNdKShbQ0gzXSljMVtjSF1bY0hdYyhubjEpW05IXUMoPU8pW05IXVtDQEBIXTJbQ0gyXVtDSDJdT1tDQEhdKFtDSDJdMilbQ0hdM1tDSDJdW0NIMl0z

> <s_epik_cmdline>
J2VwaWtfcHl0aG9uJywgJy1waCcsICc3LjAnLCAnLXRuJywgJzgnLCAnLW1hJywgJzIwMCcsICctbWV0YWxfYmluZGluZycsICctaW1hZScsICc8aW5maWxlLm1hZT4nLCAnLW9tYWUnLCAnPG91dGZpbGUubWFlPic=

> <r_lp_tautomer_probability>
1

> <r_epik_Ionization_Penalty>
0.011369

> <r_epik_Ionization_Penalty_Charging>
0

> <r_epik_Ionization_Penalty_Neutral>
0.011369

> <r_epik_State_Penalty>
0.00456331

> <r_epik_Charging_Adjusted_Penalty>
0.00456331

> <i_epik_Tot_Q>
0

> <i_epik_Tot_abs_Q>
0

> <r_epik_Metal_State_Penalty>
-0

> <b_epik_Metal_Only>
0

> <s_lp_Force_Field>
OPLS_2005

> <r_lp_Energy>
29.5318

> <b_lp_Chiralities_Consistent>
1

> <s_lp_Variant>
AV-unprocessed.smi:2244-4

> <Gold.Version>
5.8.1

> <Gold.Id.Protein>
6NUR|6NUR_protein|mol2

> <Gold.PLP.Fitness>
40.1925

> <Gold.PLP.PLP>
-34.0047

> <Gold.PLP.part.hbond>
-3.5485

> <Gold.PLP.part.metal>
0.0000

> <Gold.PLP.part.buried>
-2.5057

> <Gold.PLP.part.nonpolar>
-28.0346

> <Gold.PLP.part.repulsive>
0.2002

> <Gold.PLP.ligand.clash>
0.0000

> <Gold.PLP.ligand.torsion>
1.2653

> <Gold.PLP.Chemscore.Hbond>
2.5400

> <Gold.PLP.Chemscore.CHOScore>
0.0000

> <Gold.PLP.Chemscore.Metal>
0.0000

> <Gold.Chemscore.Hbonds>
donor molecule, donor type, donor heavy atom, donor atom, acceptor molecule, acceptor atom, score
      L1  H     9    35       P1  7948  0.75
      L1  H    12    36       P1  7948  0.91
      P1  H  7989  7998       L1    16  0.90

> <Gold.PLP.Chemscore.Internal.Correction>
1.0984

> <Gold.Rescore>
     Score         DG    S(hbond)    S(metal)    S(lipo)     H(rot)  DE(clash)    DE(int)     intcor
     14.02     -16.25       1.52        0.00      77.12       1.30       0.05       2.19       ----

> <Gold.Chemscore.Fitness>
14.0192

> <Gold.Chemscore.DG>
-16.2544

> <Gold.Chemscore.ZeroCoef>
-5.4800

> <Gold.Chemscore.Hbond>
1.5208

> <Gold.Chemscore.Metal>
0.0000

> <Gold.Chemscore.Lipo>
77.1226

> <Gold.Chemscore.Internal_Hbond>
0.0000

> <Gold.Chemscore.DEClash>
0.0496

> <Gold.Chemscore.DEInternal>
2.1856

> <Gold.Chemscore.Rot>
1.3002

> <Gold.Chemscore.Internal.Correction>
   9.000000E+99

> <Gold.Chemscore.Hbonds>
donor molecule, donor type, donor heavy atom, donor atom, acceptor molecule, acceptor atom, score
      L1  H     9    35       P1  7948  0.09
      L1  H    12    36       P1  7948  0.70
      P1  H  7989  7998       L1    16  0.22

> <Gold.Chemscore.Hbond.Weighted>
-5.0795

> <Gold.Chemscore.Metal.Weighted>
-0.0000

> <Gold.Chemscore.Lipo.Weighted>
-9.0233

> <Gold.Chemscore.Internal_Hbond.Weighted>
0.0000

> <Gold.Chemscore.DEClash.Weighted>
0.0496

> <Gold.Chemscore.DEInternal.Weighted>
2.1856

> <Gold.Chemscore.Rot.Weighted>
3.3284

> <Gold.Chemscore.Internal.Correction.Weighted>
   9.000000E+99

> <Gold.Protein.RotatedTorsions>
[ 6907 6896 6895 6894 ] final -113.63 input  -60.11 | X-H torsion
[ 7974 7965 7964 7962 ] final -120.97 input  175.53 | X-H torsion
[ 8008 7997 7996 7995 ] final   26.06 input   59.86 | X-H torsion
[ 10167 10162 10161 10158 ] final  -89.42 input  -65.29 | X-H torsion
[ 10718 10713 10712 10709 ] final  -70.32 input   66.30 | X-H torsion
[ 10763 10752 10751 10750 ] final  -21.87 input  -60.55 | X-H torsion
[ 11005 11000 10999 10996 ] final   86.41 input  -57.11 | X-H torsion

> <Gold.Protein.ActiveResidues>
 VAL166  LYS551  ARG553  GLY616  TRP617  ASP618  TYR619  PRO620  LYS621  CYS622 
 ASP623  PHE694  ASN695  SER759  ASP760  ASP761  ALA762  ILE779  LEU786  VAL792 
 PHE793  MET794  SER795  GLU796  ALA797  LYS798  CYS799  TRP800  GLU811  SER814 

> <Gold.Protein.RotatedAtoms>
  150.7843  133.8918  159.3315 H   0  0  0  0  0  0  0  0  0  0  0  0  # atno 6907 bound_to 6896
  151.6772  135.0965  160.0218 H   0  0  0  0  0  0  0  0  0  0  0  0  # atno 6908 bound_to 6896
  152.3902  133.6630  159.6267 H   0  0  0  0  0  0  0  0  0  0  0  0  # atno 6909 bound_to 6896
  145.0454  140.8177  143.4241 H   0  0  0  0  0  0  0  0  0  0  0  0  # atno 7974 bound_to 7965
  155.0214  140.3148  155.4792 H   0  0  0  0  0  0  0  0  0  0  0  0  # atno 8008 bound_to 7997
  156.2891  140.2196  156.5274 H   0  0  0  0  0  0  0  0  0  0  0  0  # atno 8009 bound_to 7997
  154.7448  140.0470  157.0831 H   0  0  0  0  0  0  0  0  0  0  0  0  # atno 8010 bound_to 7997
  140.3650  143.2823  151.9569 H   0  0  0  0  0  0  0  0  0  0  0  0  # atno 10167 bound_to 10162
  156.0413  130.4329  150.2278 H   0  0  0  0  0  0  0  0  0  0  0  0  # atno 10718 bound_to 10713
  153.6430  135.6984  153.5235 H   0  0  0  0  0  0  0  0  0  0  0  0  # atno 10763 bound_to 10752
  153.2767  135.4198  155.1039 H   0  0  0  0  0  0  0  0  0  0  0  0  # atno 10764 bound_to 10752
  154.8495  135.3592  154.5974 H   0  0  0  0  0  0  0  0  0  0  0  0  # atno 10765 bound_to 10752
  139.8945  134.8353  156.2716 H   0  0  0  0  0  0  0  0  0  0  0  0  # atno 11005 bound_to 11000
  145.1594  139.2467  143.5399 LP  0  0  0  0  0  0  0  0  0  0  0  0  # atno 17320 bound_to 7965
  146.3513  140.1317  142.8597 LP  0  0  0  0  0  0  0  0  0  0  0  0  # atno 17321 bound_to 7965
  139.4810  144.5958  151.7692 LP  0  0  0  0  0  0  0  0  0  0  0  0  # atno 17342 bound_to 10162
  140.5090  144.1055  150.5990 LP  0  0  0  0  0  0  0  0  0  0  0  0  # atno 17343 bound_to 10162
  157.0372  131.0025  151.3294 LP  0  0  0  0  0  0  0  0  0  0  0  0  # atno 17370 bound_to 10713
  157.5235  130.8013  149.7836 LP  0  0  0  0  0  0  0  0  0  0  0  0  # atno 17371 bound_to 10713
  141.0097  133.7103  156.1091 LP  0  0  0  0  0  0  0  0  0  0  0  0  # atno 17394 bound_to 11000
  140.7385  134.4177  157.5557 LP  0  0  0  0  0  0  0  0  0  0  0  0  # atno 17395 bound_to 11000

$$$$
