AV-unprocessed.smi:2858|AV-procd|sdf|10999|dock8
  -GOLD-   2272015453D 1   1.00000     0.00000
 Structure written by MMmdl.
 40 41  0  0  0  0  0  0  0  0  2 V2000
  144.4895  136.5121  153.2157 O   0  0  0  0  0  0  0  0  0  0  0  0
  145.4502  137.2619  153.0618 C   0  0  0  0  0  0  0  0  0  0  0  0
  146.5663  137.2925  154.1172 C   0  0  0  0  0  0  0  0  0  0  0  0
  147.8222  137.9350  153.6501 N   0  3  2  0  0  0  0  0  0  0  0  0
  148.8314  138.0427  154.7329 C   0  0  0  0  0  0  0  0  0  0  0  0
  150.2679  138.1338  154.1911 C   0  0  0  0  0  0  0  0  0  0  0  0
  151.3065  137.6317  155.2079 C   0  0  0  0  0  0  0  0  0  0  0  0
  151.3300  138.4608  156.4075 N   0  0  0  0  0  0  0  0  0  0  0  0
  151.5304  139.7866  156.4194 C   0  0  0  0  0  0  0  0  0  0  0  0
  151.7299  140.4503  155.4010 O   0  0  0  0  0  0  0  0  0  0  0  0
  151.5040  140.2747  157.6716 N   0  0  0  0  0  0  0  0  0  0  0  0
  151.7187  141.6137  158.0921 C   0  0  0  0  0  0  0  0  0  0  0  0
  152.4404  141.8856  159.2826 C   0  0  0  0  0  0  0  0  0  0  0  0
  152.6647  143.2225  159.6635 C   0  0  0  0  0  0  0  0  0  0  0  0
  152.1737  144.2535  158.8433 C   0  0  0  0  0  0  0  0  0  0  0  0
  151.4846  143.8956  157.6702 C   0  0  0  0  0  0  0  0  0  0  0  0
  151.2695  142.6150  157.3006 N   0  0  0  0  0  0  0  0  0  0  0  0
  147.5581  139.2168  152.9531 C   0  0  0  0  0  0  0  0  0  0  0  0
  146.6639  138.9784  151.7236 C   0  0  0  0  0  0  0  0  0  0  0  0
  145.5546  138.0666  151.9919 N   0  0  0  0  0  0  0  0  0  0  0  0
  146.1886  137.8271  154.9902 H   0  0  0  0  0  0  0  0  0  0  0  0
  146.7789  136.2706  154.4342 H   0  0  0  0  0  0  0  0  0  0  0  0
  148.6011  138.8968  155.3717 H   0  0  0  0  0  0  0  0  0  0  0  0
  148.7661  137.1567  155.3665 H   0  0  0  0  0  0  0  0  0  0  0  0
  150.3491  137.5495  153.2735 H   0  0  0  0  0  0  0  0  0  0  0  0
  150.5017  139.1635  153.9226 H   0  0  0  0  0  0  0  0  0  0  0  0
  151.1066  136.5934  155.4784 H   0  0  0  0  0  0  0  0  0  0  0  0
  152.3023  137.6504  154.7641 H   0  0  0  0  0  0  0  0  0  0  0  0
  151.1768  137.9934  157.2896 H   0  0  0  0  0  0  0  0  0  0  0  0
  151.4339  139.5952  158.4145 H   0  0  0  0  0  0  0  0  0  0  0  0
  152.8350  141.0925  159.8997 H   0  0  0  0  0  0  0  0  0  0  0  0
  153.2099  143.4519  160.5672 H   0  0  0  0  0  0  0  0  0  0  0  0
  152.3271  145.2906  159.1028 H   0  0  0  0  0  0  0  0  0  0  0  0
  151.0985  144.6569  157.0088 H   0  0  0  0  0  0  0  0  0  0  0  0
  147.0704  139.9060  153.6445 H   0  0  0  0  0  0  0  0  0  0  0  0
  148.4836  139.6940  152.6338 H   0  0  0  0  0  0  0  0  0  0  0  0
  146.2727  139.9247  151.3492 H   0  0  0  0  0  0  0  0  0  0  0  0
  147.2579  138.5443  150.9184 H   0  0  0  0  0  0  0  0  0  0  0  0
  144.8106  138.0396  151.3087 H   0  0  0  0  0  0  0  0  0  0  0  0
  148.2103  137.3093  152.9587 H   0  0  0  0  0  0  0  0  0  0  0  0
  1  2  2  0  0  0  0
  2 20  1  0  0  0  0
  2  3  1  0  0  0  0
  3  4  1  0  0  0  0
  3 21  1  0  0  0  0
  3 22  1  0  0  0  0
  4  5  1  0  0  0  0
  4 18  1  0  0  0  0
  4 40  1  0  0  0  0
  5  6  1  0  0  0  0
  5 23  1  0  0  0  0
  5 24  1  0  0  0  0
  6  7  1  0  0  0  0
  6 25  1  0  0  0  0
  6 26  1  0  0  0  0
  7  8  1  0  0  0  0
  7 27  1  0  0  0  0
  7 28  1  0  0  0  0
  8  9  1  0  0  0  0
  8 29  1  0  0  0  0
  9 10  2  0  0  0  0
  9 11  1  0  0  0  0
 11 12  1  0  0  0  0
 11 30  1  0  0  0  0
 12 17  1  0  0  0  0
 12 13  2  0  0  0  0
 13 14  1  0  0  0  0
 13 31  1  0  0  0  0
 14 15  2  0  0  0  0
 14 32  1  0  0  0  0
 15 16  1  0  0  0  0
 15 33  1  0  0  0  0
 16 17  2  0  0  0  0
 16 34  1  0  0  0  0
 18 19  1  0  0  0  0
 18 35  1  0  0  0  0
 18 36  1  0  0  0  0
 19 20  1  0  0  0  0
 19 37  1  0  0  0  0
 19 38  1  0  0  0  0
 20 39  1  0  0  0  0
M  CHG  1   4   1
M  END
> <s_m_source_file>
AV-unprocessed.smi

> <i_m_source_file_index>
2858

> <i_lp_mmshare_version>
43012

> <i_f3d_flags>
0

> <s_epik_input>
Tz1DMVtDSDJdTihbQ0gyXVtDSDJdW05IXTEpW0NIMl1bQ0gyXVtDSDJdW05IXUMoPU8pW05IXWMyW2NIXVtjSF1bY0hdW2NIXW4y

> <s_epik_cmdline>
J2VwaWtfcHl0aG9uJywgJy1waCcsICc3LjAnLCAnLXRuJywgJzgnLCAnLW1hJywgJzIwMCcsICctbWV0YWxfYmluZGluZycsICctaW1hZScsICc8aW5maWxlLm1hZT4nLCAnLW9tYWUnLCAnPG91dGZpbGUubWFlPic=

> <r_epik_Ionization_Penalty>
0.11034

> <r_epik_Ionization_Penalty_Charging>
0.110189

> <r_epik_Ionization_Penalty_Neutral>
0.000150894

> <r_epik_State_Penalty>
0.0999426

> <r_epik_Charging_Adjusted_Penalty>
0.210132

> <i_epik_Tot_Q>
1

> <i_epik_Tot_abs_Q>
1

> <r_epik_Metal_State_Penalty>
0.172915

> <b_epik_Metal_Only>
0

> <s_lp_Force_Field>
OPLS_2005

> <r_lp_Energy>
23.7119

> <b_lp_Chiralities_Consistent>
1

> <s_lp_Variant>
AV-unprocessed.smi:2858-1

> <Gold.Version>
5.8.1

> <Gold.Id.Protein>
6NUR|6NUR_protein|mol2

> <Gold.PLP.Fitness>
48.1634

> <Gold.PLP.PLP>
-35.0699

> <Gold.PLP.part.hbond>
-4.0000

> <Gold.PLP.part.metal>
0.0000

> <Gold.PLP.part.buried>
-0.1187

> <Gold.PLP.part.nonpolar>
-32.2476

> <Gold.PLP.part.repulsive>
0.3924

> <Gold.PLP.ligand.clash>
0.0000

> <Gold.PLP.ligand.torsion>
0.6202

> <Gold.PLP.Chemscore.Hbond>
3.7680

> <Gold.PLP.Chemscore.CHOScore>
1.0000

> <Gold.PLP.Chemscore.Metal>
0.0000

> <Gold.Chemscore.Hbonds>
donor molecule, donor type, donor heavy atom, donor atom, acceptor molecule, acceptor atom, score
      L1  H     4    40       P1  7948  2.00
      L1  H    20    39       P1 10171  1.00
      P1  H  7989  7998       L1    10  0.77
      L1  C    16    34       P1  8028  0.94

> <Gold.PLP.Chemscore.Internal.Correction>
0.0299

> <Gold.Rescore>
     Score         DG    S(hbond)    S(metal)    S(lipo)     H(rot)  DE(clash)    DE(int)     intcor
     16.51     -19.43       2.73        0.00      86.82       2.08       1.09       1.83       ----

> <Gold.Chemscore.Fitness>
16.5116

> <Gold.Chemscore.DG>
-19.4303

> <Gold.Chemscore.ZeroCoef>
-5.4800

> <Gold.Chemscore.Hbond>
2.7281

> <Gold.Chemscore.Metal>
0.0000

> <Gold.Chemscore.Lipo>
86.8153

> <Gold.Chemscore.Internal_Hbond>
0.0000

> <Gold.Chemscore.DEClash>
1.0911

> <Gold.Chemscore.DEInternal>
1.8276

> <Gold.Chemscore.Rot>
2.0777

> <Gold.Chemscore.Internal.Correction>
   9.000000E+99

> <Gold.Chemscore.Hbonds>
donor molecule, donor type, donor heavy atom, donor atom, acceptor molecule, acceptor atom, score
      L1  H     4    40       P1  7948  1.00
      L1  H    20    39       P1 10171  0.98
      P1  H  7989  7998       L1    10  0.77

> <Gold.Chemscore.Hbond.Weighted>
-9.1117

> <Gold.Chemscore.Metal.Weighted>
-0.0000

> <Gold.Chemscore.Lipo.Weighted>
-10.1574

> <Gold.Chemscore.Internal_Hbond.Weighted>
0.0000

> <Gold.Chemscore.DEClash.Weighted>
1.0911

> <Gold.Chemscore.DEInternal.Weighted>
1.8276

> <Gold.Chemscore.Rot.Weighted>
5.3188

> <Gold.Chemscore.Internal.Correction.Weighted>
   9.000000E+99

> <Gold.Protein.RotatedTorsions>
[ 6907 6896 6895 6894 ] final  -99.36 input  -60.11 | X-H torsion
[ 7974 7965 7964 7962 ] final   90.43 input  175.53 | X-H torsion
[ 8008 7997 7996 7995 ] final -177.89 input   59.86 | X-H torsion
[ 10167 10162 10161 10158 ] final -119.32 input  -65.29 | X-H torsion
[ 10718 10713 10712 10709 ] final -170.71 input   66.30 | X-H torsion
[ 10763 10752 10751 10750 ] final   66.68 input  -60.55 | X-H torsion
[ 11005 11000 10999 10996 ] final  -80.77 input  -57.11 | X-H torsion

> <Gold.Protein.ActiveResidues>
 VAL166  LYS551  ARG553  GLY616  TRP617  ASP618  TYR619  PRO620  LYS621  CYS622 
 ASP623  PHE694  ASN695  SER759  ASP760  ASP761  ALA762  ILE779  LEU786  VAL792 
 PHE793  MET794  SER795  GLU796  ALA797  LYS798  CYS799  TRP800  GLU811  SER814 

> <Gold.Protein.RotatedAtoms>
  150.7077  134.1053  159.3980 H   0  0  0  0  0  0  0  0  0  0  0  0  # atno 6907 bound_to 6896
  151.9039  135.0364  160.0518 H   0  0  0  0  0  0  0  0  0  0  0  0  # atno 6908 bound_to 6896
  152.2391  133.5085  159.5296 H   0  0  0  0  0  0  0  0  0  0  0  0  # atno 6909 bound_to 6896
  145.5192  139.2279  143.2681 H   0  0  0  0  0  0  0  0  0  0  0  0  # atno 7974 bound_to 7965
  156.0123  140.1243  157.0441 H   0  0  0  0  0  0  0  0  0  0  0  0  # atno 8008 bound_to 7997
  154.4280  140.1085  156.5916 H   0  0  0  0  0  0  0  0  0  0  0  0  # atno 8009 bound_to 7997
  155.6062  140.3471  155.4611 H   0  0  0  0  0  0  0  0  0  0  0  0  # atno 8010 bound_to 7997
  140.0479  143.5089  152.2097 H   0  0  0  0  0  0  0  0  0  0  0  0  # atno 10167 bound_to 10162
  156.7301  130.9303  151.3104 H   0  0  0  0  0  0  0  0  0  0  0  0  # atno 10718 bound_to 10713
  153.0151  135.5312  154.6861 H   0  0  0  0  0  0  0  0  0  0  0  0  # atno 10763 bound_to 10752
  154.6008  135.2868  155.0539 H   0  0  0  0  0  0  0  0  0  0  0  0  # atno 10764 bound_to 10752
  154.1597  135.6549  153.5035 H   0  0  0  0  0  0  0  0  0  0  0  0  # atno 10765 bound_to 10752
  141.1667  133.7165  156.8323 H   0  0  0  0  0  0  0  0  0  0  0  0  # atno 11005 bound_to 11000
  146.2117  140.6003  142.9056 LP  0  0  0  0  0  0  0  0  0  0  0  0  # atno 17320 bound_to 7965
  144.7685  140.5585  143.6686 LP  0  0  0  0  0  0  0  0  0  0  0  0  # atno 17321 bound_to 7965
  139.5972  144.7571  151.3258 LP  0  0  0  0  0  0  0  0  0  0  0  0  # atno 17342 bound_to 10162
  140.7230  143.7082  150.7790 LP  0  0  0  0  0  0  0  0  0  0  0  0  # atno 17343 bound_to 10162
  157.6862  130.9188  150.0393 LP  0  0  0  0  0  0  0  0  0  0  0  0  # atno 17370 bound_to 10713
  156.1535  130.3643  149.9404 LP  0  0  0  0  0  0  0  0  0  0  0  0  # atno 17371 bound_to 10713
  140.2042  134.8875  157.3203 LP  0  0  0  0  0  0  0  0  0  0  0  0  # atno 17394 bound_to 11000
  140.2155  134.4087  155.7591 LP  0  0  0  0  0  0  0  0  0  0  0  0  # atno 17395 bound_to 11000

$$$$
