AV-unprocessed.smi:872|AV-procd|sdf|4013|dock4
  -GOLD-   22720 1503D 1   1.00000     0.00000
 Structure written by MMmdl.
 27 28  0  0  0  0  0  0  0  0  3 V2000
  150.9259  139.5410  154.7057 O   0  0  0  0  0  0  0  0  0  0  0  0
  151.7099  139.6880  155.6692 C   0  0  0  0  0  0  0  0  0  0  0  0
  152.6922  138.9375  155.8597 O   0  5  0  0  0  0  0  0  0  0  0  0
  151.4600  140.8107  156.6345 C   0  0  0  0  0  0  0  0  0  0  0  0
  150.6793  141.9265  156.2550 C   0  0  0  0  0  0  0  0  0  0  0  0
  150.4602  142.9312  157.1303 N   0  3  0  0  0  0  0  0  0  0  0  0
  150.9588  142.9315  158.3846 C   0  0  0  0  0  0  0  0  0  0  0  0
  151.7488  141.8472  158.8315 C   0  0  0  0  0  0  0  0  0  0  0  0
  152.2876  141.8082  160.1247 N   0  0  0  0  0  0  0  0  0  0  0  0
  153.5724  141.1235  160.1953 C   0  0  0  0  0  0  0  0  0  0  0  0
  154.0338  141.0197  161.6595 C   0  0  0  0  0  0  0  0  0  0  0  0
  154.0778  142.3210  162.2387 O   0  0  0  0  0  0  0  0  0  0  0  0
  152.7990  142.9498  162.2367 C   0  0  0  0  0  0  0  0  0  0  0  0
  152.3052  143.1062  160.7879 C   0  0  0  0  0  0  0  0  0  0  0  0
  151.9986  140.7791  157.9426 C   0  0  0  0  0  0  0  0  0  0  0  0
  150.2242  142.0479  155.2824 H   0  0  0  0  0  0  0  0  0  0  0  0
  150.7124  143.7939  158.9866 H   0  0  0  0  0  0  0  0  0  0  0  0
  153.4858  140.1275  159.7589 H   0  0  0  0  0  0  0  0  0  0  0  0
  154.3163  141.6685  159.6125 H   0  0  0  0  0  0  0  0  0  0  0  0
  153.3653  140.3764  162.2341 H   0  0  0  0  0  0  0  0  0  0  0  0
  155.0272  140.5735  161.7099 H   0  0  0  0  0  0  0  0  0  0  0  0
  152.0929  142.3645  162.8281 H   0  0  0  0  0  0  0  0  0  0  0  0
  152.8816  143.9266  162.7136 H   0  0  0  0  0  0  0  0  0  0  0  0
  152.9603  143.7913  160.2480 H   0  0  0  0  0  0  0  0  0  0  0  0
  151.3045  143.5403  160.7786 H   0  0  0  0  0  0  0  0  0  0  0  0
  152.6010  139.9434  158.2699 H   0  0  0  0  0  0  0  0  0  0  0  0
  149.8934  143.7241  156.8292 H   0  0  0  0  0  0  0  0  0  0  0  0
  1  2  2  0  0  0  0
  2  3  1  0  0  0  0
  2  4  1  0  0  0  0
  4 15  1  0  0  0  0
  4  5  2  0  0  0  0
  5  6  1  0  0  0  0
  5 16  1  0  0  0  0
  6  7  2  0  0  0  0
  6 27  1  0  0  0  0
  7  8  1  0  0  0  0
  7 17  1  0  0  0  0
  8  9  1  0  0  0  0
  8 15  2  0  0  0  0
  9 14  1  0  0  0  0
  9 10  1  0  0  0  0
 10 11  1  0  0  0  0
 10 18  1  0  0  0  0
 10 19  1  0  0  0  0
 11 12  1  0  0  0  0
 11 20  1  0  0  0  0
 11 21  1  0  0  0  0
 12 13  1  0  0  0  0
 13 14  1  0  0  0  0
 13 22  1  0  0  0  0
 13 23  1  0  0  0  0
 14 24  1  0  0  0  0
 14 25  1  0  0  0  0
 15 26  1  0  0  0  0
M  CHG  1   3  -1
M  CHG  1   6   1
M  END
> <s_m_source_file>
AV-unprocessed.smi

> <i_m_source_file_index>
872

> <i_lp_mmshare_version>
43012

> <i_f3d_flags>
0

> <s_epik_input>
Tz1DKFtPSF0pYzFbY0hdbltjSF1jKFtjSF0xKU4yW0NIMl1bQ0gyXU9bQ0gyXVtDSDJdMg==

> <s_epik_cmdline>
J2VwaWtfcHl0aG9uJywgJy1waCcsICc3LjAnLCAnLXRuJywgJzgnLCAnLW1hJywgJzIwMCcsICctbWV0YWxfYmluZGluZycsICctaW1hZScsICc8aW5maWxlLm1hZT4nLCAnLW9tYWUnLCAnPG91dGZpbGUubWFlPic=

> <r_epik_Ionization_Penalty>
1.67211

> <r_epik_Ionization_Penalty_Charging>
1.67211

> <r_epik_Ionization_Penalty_Neutral>
1.01163e-11

> <r_epik_State_Penalty>
1.7758

> <r_epik_Charging_Adjusted_Penalty>
3.44791

> <i_epik_Tot_Q>
0

> <i_epik_Tot_abs_Q>
2

> <r_epik_Metal_State_Penalty>
5.83824

> <b_epik_Metal_Only>
0

> <s_lp_Force_Field>
OPLS_2005

> <r_lp_Energy>
21.0429

> <b_lp_Chiralities_Consistent>
1

> <s_lp_Variant>
AV-unprocessed.smi:872-2

> <Gold.Version>
5.8.1

> <Gold.Id.Protein>
6NUR|6NUR_protein|mol2

> <Gold.PLP.Fitness>
47.8272

> <Gold.PLP.PLP>
-34.3217

> <Gold.PLP.part.hbond>
-4.0000

> <Gold.PLP.part.metal>
0.0000

> <Gold.PLP.part.buried>
-3.5176

> <Gold.PLP.part.nonpolar>
-25.6794

> <Gold.PLP.part.repulsive>
0.1185

> <Gold.PLP.ligand.clash>
0.0000

> <Gold.PLP.ligand.torsion>
0.8008

> <Gold.PLP.Chemscore.Hbond>
5.0000

> <Gold.PLP.Chemscore.CHOScore>
0.0000

> <Gold.PLP.Chemscore.Metal>
0.0000

> <Gold.Chemscore.Hbonds>
donor molecule, donor type, donor heavy atom, donor atom, acceptor molecule, acceptor atom, score
      L1  H     6    27       P1  8028  2.00
      P1  H  7989  7998       L1     1  1.00
      P1  H  7997  8008       L1     3  1.79

> <Gold.PLP.Chemscore.Internal.Correction>
0.1072

> <Gold.Rescore>
     Score         DG    S(hbond)    S(metal)    S(lipo)     H(rot)  DE(clash)    DE(int)     intcor
     19.79     -20.63       2.56        0.00      78.37       1.00       0.07       0.77       ----

> <Gold.Chemscore.Fitness>
19.7856

> <Gold.Chemscore.DG>
-20.6279

> <Gold.Chemscore.ZeroCoef>
-5.4800

> <Gold.Chemscore.Hbond>
2.5565

> <Gold.Chemscore.Metal>
0.0000

> <Gold.Chemscore.Lipo>
78.3696

> <Gold.Chemscore.Internal_Hbond>
0.0000

> <Gold.Chemscore.DEClash>
0.0715

> <Gold.Chemscore.DEInternal>
0.7708

> <Gold.Chemscore.Rot>
1.0000

> <Gold.Chemscore.Internal.Correction>
   9.000000E+99

> <Gold.Chemscore.Hbonds>
donor molecule, donor type, donor heavy atom, donor atom, acceptor molecule, acceptor atom, score
      L1  H     6    27       P1  8028  0.98
      P1  H  7989  7998       L1     1  0.25
      P1  H  7997  8008       L1     3  0.57

> <Gold.Chemscore.Hbond.Weighted>
-8.5386

> <Gold.Chemscore.Metal.Weighted>
-0.0000

> <Gold.Chemscore.Lipo.Weighted>
-9.1692

> <Gold.Chemscore.Internal_Hbond.Weighted>
0.0000

> <Gold.Chemscore.DEClash.Weighted>
0.0715

> <Gold.Chemscore.DEInternal.Weighted>
0.7708

> <Gold.Chemscore.Rot.Weighted>
2.5600

> <Gold.Chemscore.Internal.Correction.Weighted>
   9.000000E+99

> <Gold.Protein.RotatedTorsions>
[ 6907 6896 6895 6894 ] final  -14.68 input  -60.11 | X-H torsion
[ 7974 7965 7964 7962 ] final  121.33 input  175.53 | X-H torsion
[ 8008 7997 7996 7995 ] final  -37.64 input   59.86 | X-H torsion
[ 10167 10162 10161 10158 ] final -119.11 input  -65.29 | X-H torsion
[ 10718 10713 10712 10709 ] final  107.37 input   66.30 | X-H torsion
[ 10763 10752 10751 10750 ] final  -77.90 input  -60.55 | X-H torsion
[ 11005 11000 10999 10996 ] final  131.95 input  -57.11 | X-H torsion

> <Gold.Protein.ActiveResidues>
 VAL166  LYS551  ARG553  GLY616  TRP617  ASP618  TYR619  PRO620  LYS621  CYS622 
 ASP623  PHE694  ASN695  SER759  ASP760  ASP761  ALA762  ILE779  LEU786  VAL792 
 PHE793  MET794  SER795  GLU796  ALA797  LYS798  CYS799  TRP800  GLU811  SER814 

> <Gold.Protein.RotatedAtoms>
  151.3356  135.0852  159.9353 H   0  0  0  0  0  0  0  0  0  0  0  0  # atno 6907 bound_to 6896
  152.5224  133.9498  159.7677 H   0  0  0  0  0  0  0  0  0  0  0  0  # atno 6908 bound_to 6896
  150.9845  133.6158  159.2747 H   0  0  0  0  0  0  0  0  0  0  0  0  # atno 6909 bound_to 6896
  145.1206  139.3392  143.4716 H   0  0  0  0  0  0  0  0  0  0  0  0  # atno 7974 bound_to 7965
  154.4050  140.1599  156.2569 H   0  0  0  0  0  0  0  0  0  0  0  0  # atno 8008 bound_to 7997
  155.9070  140.3429  155.6047 H   0  0  0  0  0  0  0  0  0  0  0  0  # atno 8009 bound_to 7997
  155.7381  140.0789  157.2249 H   0  0  0  0  0  0  0  0  0  0  0  0  # atno 8010 bound_to 7997
  140.0502  143.5067  152.2086 H   0  0  0  0  0  0  0  0  0  0  0  0  # atno 10167 bound_to 10162
  157.6631  131.0871  150.6146 H   0  0  0  0  0  0  0  0  0  0  0  0  # atno 10718 bound_to 10713
  154.5189  135.5748  153.6665 H   0  0  0  0  0  0  0  0  0  0  0  0  # atno 10763 bound_to 10752
  152.9913  135.6177  154.2780 H   0  0  0  0  0  0  0  0  0  0  0  0  # atno 10764 bound_to 10752
  154.2700  135.2853  155.2722 H   0  0  0  0  0  0  0  0  0  0  0  0  # atno 10765 bound_to 10752
  139.9761  134.9563  156.9512 H   0  0  0  0  0  0  0  0  0  0  0  0  # atno 11005 bound_to 11000
  146.3521  140.1163  142.8602 LP  0  0  0  0  0  0  0  0  0  0  0  0  # atno 17320 bound_to 7965
  145.0745  140.9178  143.4862 LP  0  0  0  0  0  0  0  0  0  0  0  0  # atno 17321 bound_to 7965
  139.5958  144.7566  151.3290 LP  0  0  0  0  0  0  0  0  0  0  0  0  # atno 17342 bound_to 10162
  140.7220  143.7109  150.7770 LP  0  0  0  0  0  0  0  0  0  0  0  0  # atno 17343 bound_to 10162
  156.6448  130.4468  149.5740 LP  0  0  0  0  0  0  0  0  0  0  0  0  # atno 17370 bound_to 10713
  156.2182  130.6721  151.1341 LP  0  0  0  0  0  0  0  0  0  0  0  0  # atno 17371 bound_to 10713
  140.5193  134.0924  155.7288 LP  0  0  0  0  0  0  0  0  0  0  0  0  # atno 17394 bound_to 11000
  141.1437  133.9092  157.2265 LP  0  0  0  0  0  0  0  0  0  0  0  0  # atno 17395 bound_to 11000

$$$$
