AV-unprocessed.smi:3201|AV-procd|sdf|12238|dock4
  -GOLD-   2272018 73D 1   1.00000     0.00000
 Structure written by MMmdl.
 41 43  0  0  0  0  0  0  0  0  2 V2000
  149.0246  138.9015  153.8120 C   0  0  0  0  0  0  0  0  0  0  0  0
  150.1953  139.6013  154.4237 C   0  0  0  0  0  0  0  0  0  0  0  0
  150.2524  140.6676  155.2810 C   0  0  0  0  0  0  0  0  0  0  0  0
  149.1266  141.4704  155.8728 C   0  0  0  0  0  0  0  0  0  0  0  0
  149.4295  141.8799  157.3201 C   0  0  0  0  0  0  0  0  0  0  0  0
  150.3396  143.0422  157.3641 N   0  3  0  0  0  0  0  0  0  0  0  0
  150.7750  143.4298  158.7237 C   0  0  1  0  0  0  0  0  0  0  0  0
  151.8666  142.4902  159.2883 C   0  0  0  0  0  0  0  0  0  0  0  0
  153.0227  143.4563  159.6044 C   0  0  2  0  0  0  0  0  0  0  0  0
  152.6364  144.3546  160.7942 C   0  0  0  0  0  0  0  0  0  0  0  0
  151.5923  145.3045  160.1769 C   0  0  0  0  0  0  0  0  0  0  0  0
  151.4886  144.7994  158.7250 C   0  0  1  0  0  0  0  0  0  0  0  0
  152.9394  144.4264  158.4327 C   0  0  0  0  0  0  0  0  0  0  0  0
  151.6477  140.8558  155.4917 C   0  0  0  0  0  0  0  0  0  0  0  0
  152.3890  139.9901  154.8243 N   0  0  0  0  0  0  0  0  0  0  0  0
  151.4988  139.2173  154.1691 N   0  0  0  0  0  0  0  0  0  0  0  0
  151.9788  138.1427  153.3219 C   0  0  0  0  0  0  0  0  0  0  0  0
  148.0855  139.3720  154.1023 H   0  0  0  0  0  0  0  0  0  0  0  0
  148.9880  137.8593  154.1296 H   0  0  0  0  0  0  0  0  0  0  0  0
  149.0862  138.9217  152.7236 H   0  0  0  0  0  0  0  0  0  0  0  0
  148.9393  142.3630  155.2748 H   0  0  0  0  0  0  0  0  0  0  0  0
  148.1983  140.8984  155.8475 H   0  0  0  0  0  0  0  0  0  0  0  0
  148.5029  142.1314  157.8379 H   0  0  0  0  0  0  0  0  0  0  0  0
  149.8797  141.0434  157.8556 H   0  0  0  0  0  0  0  0  0  0  0  0
  151.1580  142.8442  156.8064 H   0  0  0  0  0  0  0  0  0  0  0  0
  149.8999  143.4602  159.3752 H   0  0  0  0  0  0  0  0  0  0  0  0
  151.5289  141.9470  160.1717 H   0  0  0  0  0  0  0  0  0  0  0  0
  152.1884  141.7534  158.5506 H   0  0  0  0  0  0  0  0  0  0  0  0
  153.9862  142.9603  159.7248 H   0  0  0  0  0  0  0  0  0  0  0  0
  152.2356  143.7813  161.6309 H   0  0  0  0  0  0  0  0  0  0  0  0
  153.4989  144.9165  161.1557 H   0  0  0  0  0  0  0  0  0  0  0  0
  150.6366  145.2720  160.7014 H   0  0  0  0  0  0  0  0  0  0  0  0
  151.9510  146.3344  160.2033 H   0  0  0  0  0  0  0  0  0  0  0  0
  151.0516  145.5317  158.0450 H   0  0  0  0  0  0  0  0  0  0  0  0
  153.6293  145.2679  158.5184 H   0  0  0  0  0  0  0  0  0  0  0  0
  153.0801  143.9472  157.4623 H   0  0  0  0  0  0  0  0  0  0  0  0
  152.1408  141.5951  156.1055 H   0  0  0  0  0  0  0  0  0  0  0  0
  151.4749  137.2123  153.5854 H   0  0  0  0  0  0  0  0  0  0  0  0
  153.0543  138.0061  153.4449 H   0  0  0  0  0  0  0  0  0  0  0  0
  151.7694  138.3786  152.2780 H   0  0  0  0  0  0  0  0  0  0  0  0
  149.8541  143.8281  156.9554 H   0  0  0  0  0  0  0  0  0  0  0  0
  1  2  1  0  0  0  0
  1 18  1  0  0  0  0
  1 19  1  0  0  0  0
  1 20  1  0  0  0  0
  2 16  1  0  0  0  0
  2  3  2  0  0  0  0
  3  4  1  0  0  0  0
  3 14  1  0  0  0  0
  4  5  1  0  0  0  0
  4 21  1  0  0  0  0
  4 22  1  0  0  0  0
  5  6  1  0  0  0  0
  5 23  1  0  0  0  0
  5 24  1  0  0  0  0
  6  7  1  0  0  0  0
  6 25  1  0  0  0  0
  6 41  1  0  0  0  0
  7 12  1  0  0  0  0
  7  8  1  0  0  0  0
  7 26  1  0  0  0  0
  8  9  1  0  0  0  0
  8 27  1  0  0  0  0
  8 28  1  0  0  0  0
  9 13  1  0  0  0  0
  9 10  1  0  0  0  0
  9 29  1  0  0  0  0
 10 11  1  0  0  0  0
 10 30  1  0  0  0  0
 10 31  1  0  0  0  0
 11 12  1  0  0  0  0
 11 32  1  0  0  0  0
 11 33  1  0  0  0  0
 12 13  1  0  0  0  0
 12 34  1  0  0  0  0
 13 35  1  0  0  0  0
 13 36  1  0  0  0  0
 14 15  2  0  0  0  0
 14 37  1  0  0  0  0
 15 16  1  0  0  0  0
 16 17  1  0  0  0  0
 17 38  1  0  0  0  0
 17 39  1  0  0  0  0
 17 40  1  0  0  0  0
M  CHG  1   6   1
M  END
> <s_m_source_file>
AV-unprocessed.smi

> <i_m_source_file_index>
3201

> <i_lp_mmshare_version>
43012

> <i_f3d_flags>
0

> <s_epik_input>
W0NIM11uMW5bY0hdYyhjMVtDSDNdKVtDSDJdW0NIMl1bTkhdW0NASF0oW0NIMl1bQ0BIXTIzKVtDQEhdKFtDSDJdMylbQ0gyXVtDSDJdMg==

> <s_epik_cmdline>
J2VwaWtfcHl0aG9uJywgJy1waCcsICc3LjAnLCAnLXRuJywgJzgnLCAnLW1hJywgJzIwMCcsICctbWV0YWxfYmluZGluZycsICctaW1hZScsICc8aW5maWxlLm1hZT4nLCAnLW9tYWUnLCAnPG91dGZpbGUubWFlPic=

> <r_lp_tautomer_probability>
1

> <r_epik_Ionization_Penalty>
0.000331174

> <r_epik_Ionization_Penalty_Charging>
0.000242709

> <r_epik_Ionization_Penalty_Neutral>
8.84659e-05

> <r_epik_State_Penalty>
-0

> <r_epik_Charging_Adjusted_Penalty>
0.000242709

> <i_epik_Tot_Q>
1

> <i_epik_Tot_abs_Q>
1

> <r_epik_Metal_State_Penalty>
-0

> <b_epik_Metal_Only>
0

> <s_lp_Force_Field>
OPLS_2005

> <r_lp_Energy>
49.6372

> <b_lp_Chiralities_Consistent>
1

> <s_lp_Variant>
AV-unprocessed.smi:3201-2

> <Gold.Version>
5.8.1

> <Gold.Id.Protein>
6NUR|6NUR_protein|mol2

> <Gold.PLP.Fitness>
50.3232

> <Gold.PLP.PLP>
-42.3424

> <Gold.PLP.part.hbond>
-2.5588

> <Gold.PLP.part.metal>
0.0000

> <Gold.PLP.part.buried>
-1.9482

> <Gold.PLP.part.nonpolar>
-36.5376

> <Gold.PLP.part.repulsive>
0.0087

> <Gold.PLP.ligand.clash>
0.0000

> <Gold.PLP.ligand.torsion>
0.5177

> <Gold.PLP.Chemscore.Hbond>
3.0000

> <Gold.PLP.Chemscore.CHOScore>
0.0000

> <Gold.PLP.Chemscore.Metal>
0.0000

> <Gold.Chemscore.Hbonds>
donor molecule, donor type, donor heavy atom, donor atom, acceptor molecule, acceptor atom, score
      L1  H     6    41       P1  8028  2.00
      P1  H  7997  8008       L1    15  0.20

> <Gold.PLP.Chemscore.Internal.Correction>
0.0161

> <Gold.Rescore>
     Score         DG    S(hbond)    S(metal)    S(lipo)     H(rot)  DE(clash)    DE(int)     intcor
     19.54     -21.75       1.68        0.00     120.85       1.36       1.93       0.29       ----

> <Gold.Chemscore.Fitness>
19.5353

> <Gold.Chemscore.DG>
-21.7483

> <Gold.Chemscore.ZeroCoef>
-5.4800

> <Gold.Chemscore.Hbond>
1.6790

> <Gold.Chemscore.Metal>
0.0000

> <Gold.Chemscore.Lipo>
120.8461

> <Gold.Chemscore.Internal_Hbond>
0.0000

> <Gold.Chemscore.DEClash>
1.9257

> <Gold.Chemscore.DEInternal>
0.2873

> <Gold.Chemscore.Rot>
1.3588

> <Gold.Chemscore.Internal.Correction>
   9.000000E+99

> <Gold.Chemscore.Hbonds>
donor molecule, donor type, donor heavy atom, donor atom, acceptor molecule, acceptor atom, score
      L1  H     6    41       P1  8028  0.95
      P1  H  7997  8008       L1    15  0.05

> <Gold.Chemscore.Hbond.Weighted>
-5.6079

> <Gold.Chemscore.Metal.Weighted>
-0.0000

> <Gold.Chemscore.Lipo.Weighted>
-14.1390

> <Gold.Chemscore.Internal_Hbond.Weighted>
0.0000

> <Gold.Chemscore.DEClash.Weighted>
1.9257

> <Gold.Chemscore.DEInternal.Weighted>
0.2873

> <Gold.Chemscore.Rot.Weighted>
3.4786

> <Gold.Chemscore.Internal.Correction.Weighted>
   9.000000E+99

> <Gold.Protein.RotatedTorsions>
[ 6907 6896 6895 6894 ] final   95.09 input  -60.11 | X-H torsion
[ 7974 7965 7964 7962 ] final  162.76 input  175.53 | X-H torsion
[ 8008 7997 7996 7995 ] final  -26.60 input   59.86 | X-H torsion
[ 10167 10162 10161 10158 ] final  159.27 input  -65.29 | X-H torsion
[ 10718 10713 10712 10709 ] final  162.85 input   66.30 | X-H torsion
[ 10763 10752 10751 10750 ] final -115.34 input  -60.55 | X-H torsion
[ 11005 11000 10999 10996 ] final  -87.15 input  -57.11 | X-H torsion

> <Gold.Protein.ActiveResidues>
 VAL166  LYS551  ARG553  GLY616  TRP617  ASP618  TYR619  PRO620  LYS621  CYS622 
 ASP623  PHE694  ASN695  SER759  ASP760  ASP761  ALA762  ILE779  LEU786  VAL792 
 PHE793  MET794  SER795  GLU796  ALA797  LYS798  CYS799  TRP800  GLU811  SER814 

> <Gold.Protein.RotatedAtoms>
  152.5446  134.1093  159.8351 H   0  0  0  0  0  0  0  0  0  0  0  0  # atno 6907 bound_to 6896
  151.1161  133.5130  159.2611 H   0  0  0  0  0  0  0  0  0  0  0  0  # atno 6908 bound_to 6896
  151.1830  135.0379  159.8855 H   0  0  0  0  0  0  0  0  0  0  0  0  # atno 6909 bound_to 6896
  144.7621  139.8086  143.6328 H   0  0  0  0  0  0  0  0  0  0  0  0  # atno 7974 bound_to 7965
  154.4417  140.1895  156.0801 H   0  0  0  0  0  0  0  0  0  0  0  0  # atno 8008 bound_to 7997
  156.0445  140.3316  155.7255 H   0  0  0  0  0  0  0  0  0  0  0  0  # atno 8009 bound_to 7997
  155.5650  140.0607  157.2811 H   0  0  0  0  0  0  0  0  0  0  0  0  # atno 8010 bound_to 7997
  139.4831  144.4746  151.8529 H   0  0  0  0  0  0  0  0  0  0  0  0  # atno 10167 bound_to 10162
  157.1167  131.0482  151.2433 H   0  0  0  0  0  0  0  0  0  0  0  0  # atno 10718 bound_to 10713
  154.8477  135.4385  154.1647 H   0  0  0  0  0  0  0  0  0  0  0  0  # atno 10763 bound_to 10752
  153.2775  135.6950  153.7424 H   0  0  0  0  0  0  0  0  0  0  0  0  # atno 10764 bound_to 10752
  153.6641  135.3430  155.3110 H   0  0  0  0  0  0  0  0  0  0  0  0  # atno 10765 bound_to 10752
  141.1621  133.7495  156.9265 H   0  0  0  0  0  0  0  0  0  0  0  0  # atno 11005 bound_to 11000
  146.1695  139.4839  142.9937 LP  0  0  0  0  0  0  0  0  0  0  0  0  # atno 17320 bound_to 7965
  145.6585  141.0246  143.1722 LP  0  0  0  0  0  0  0  0  0  0  0  0  # atno 17321 bound_to 7965
  140.4217  144.2234  150.5887 LP  0  0  0  0  0  0  0  0  0  0  0  0  # atno 17342 bound_to 10162
  140.4867  143.2361  151.8877 LP  0  0  0  0  0  0  0  0  0  0  0  0  # atno 17343 bound_to 10162
  157.4512  130.7599  149.7153 LP  0  0  0  0  0  0  0  0  0  0  0  0  # atno 17370 bound_to 10713
  155.9838  130.3997  150.3346 LP  0  0  0  0  0  0  0  0  0  0  0  0  # atno 17371 bound_to 10713
  140.1416  134.9290  157.2474 LP  0  0  0  0  0  0  0  0  0  0  0  0  # atno 17394 bound_to 11000
  140.2830  134.3328  155.7337 LP  0  0  0  0  0  0  0  0  0  0  0  0  # atno 17395 bound_to 11000

$$$$
