AV-unprocessed.smi:2925|AV-procd|sdf|11222|dock1
  -GOLD-   2272016113D 1   1.00000     0.00000
 Structure written by MMmdl.
 44 45  0  0  0  0  0  0  0  0  1 V2000
  147.9338  141.2912  154.3691 C   0  0  0  0  0  0  0  0  0  0  0  0
  149.3817  141.7153  154.6558 C   0  0  0  0  0  0  0  0  0  0  0  0
  150.0548  140.9395  155.8101 C   0  0  2  0  0  0  0  0  0  0  0  0
  150.7047  141.8694  156.7335 N   0  0  0  0  0  0  0  0  0  0  0  0
  151.0835  141.5916  157.9895 C   0  0  0  0  0  0  0  0  0  0  0  0
  150.8949  140.5063  158.5406 O   0  0  0  0  0  0  0  0  0  0  0  0
  151.6604  142.6576  158.5720 N   0  0  0  0  0  0  0  0  0  0  0  0
  152.1145  142.7347  159.8981 C   0  0  0  0  0  0  0  0  0  0  0  0
  151.8719  143.8672  160.6095 C   0  0  0  0  0  0  0  0  0  0  0  0
  151.0869  145.0291  160.0214 C   0  0  0  0  0  0  0  0  0  0  0  0
  152.3542  143.9604  161.9718 C   0  0  0  0  0  0  0  0  0  0  0  0
  153.0375  142.9366  162.5004 C   0  0  0  0  0  0  0  0  0  0  0  0
  153.3133  141.7762  161.7630 N   0  0  0  0  0  0  0  0  0  0  0  0
  154.0826  140.7188  162.4243 C   0  0  0  0  0  0  0  0  0  0  0  0
  152.9162  141.6235  160.4668 C   0  0  0  0  0  0  0  0  0  0  0  0
  153.2345  140.6205  159.8239 O   0  0  0  0  0  0  0  0  0  0  0  0
  151.1086  139.9378  155.2960 C   0  0  2  0  0  0  0  0  0  0  0  0
  150.5671  138.8546  154.3603 C   0  0  0  0  0  0  0  0  0  0  0  0
  151.5360  137.6959  154.5435 C   0  0  0  0  0  0  0  0  0  0  0  0
  152.3379  138.0725  155.7917 C   0  0  0  0  0  0  0  0  0  0  0  0
  151.6318  139.1629  156.3647 O   0  0  0  0  0  0  0  0  0  0  0  0
  147.5433  141.8168  153.4976 H   0  0  0  0  0  0  0  0  0  0  0  0
  147.2749  141.5156  155.2077 H   0  0  0  0  0  0  0  0  0  0  0  0
  147.8703  140.2214  154.1682 H   0  0  0  0  0  0  0  0  0  0  0  0
  149.9588  141.5752  153.7419 H   0  0  0  0  0  0  0  0  0  0  0  0
  149.4068  142.7852  154.8662 H   0  0  0  0  0  0  0  0  0  0  0  0
  149.2861  140.3716  156.3375 H   0  0  0  0  0  0  0  0  0  0  0  0
  150.9004  142.7928  156.3760 H   0  0  0  0  0  0  0  0  0  0  0  0
  151.6517  143.5266  158.0590 H   0  0  0  0  0  0  0  0  0  0  0  0
  150.9757  145.8374  160.7447 H   0  0  0  0  0  0  0  0  0  0  0  0
  150.0886  144.7057  159.7249 H   0  0  0  0  0  0  0  0  0  0  0  0
  151.5964  145.4306  159.1450 H   0  0  0  0  0  0  0  0  0  0  0  0
  152.1615  144.8430  162.5642 H   0  0  0  0  0  0  0  0  0  0  0  0
  153.4192  142.9475  163.5109 H   0  0  0  0  0  0  0  0  0  0  0  0
  153.5244  139.7813  162.4241 H   0  0  0  0  0  0  0  0  0  0  0  0
  154.3187  140.9549  163.4624 H   0  0  0  0  0  0  0  0  0  0  0  0
  155.0274  140.5517  161.9052 H   0  0  0  0  0  0  0  0  0  0  0  0
  151.9323  140.4669  154.8122 H   0  0  0  0  0  0  0  0  0  0  0  0
  149.5694  138.5466  154.6765 H   0  0  0  0  0  0  0  0  0  0  0  0
  150.5023  139.1885  153.3243 H   0  0  0  0  0  0  0  0  0  0  0  0
  150.9952  136.7588  154.6816 H   0  0  0  0  0  0  0  0  0  0  0  0
  152.1940  137.5809  153.6819 H   0  0  0  0  0  0  0  0  0  0  0  0
  152.4299  137.2470  156.4978 H   0  0  0  0  0  0  0  0  0  0  0  0
  153.3419  138.3996  155.5175 H   0  0  0  0  0  0  0  0  0  0  0  0
  1  2  1  0  0  0  0
  1 22  1  0  0  0  0
  1 23  1  0  0  0  0
  1 24  1  0  0  0  0
  2  3  1  0  0  0  0
  2 25  1  0  0  0  0
  2 26  1  0  0  0  0
  3  4  1  0  0  0  0
  3 17  1  0  0  0  0
  3 27  1  0  0  0  0
  4  5  1  0  0  0  0
  4 28  1  0  0  0  0
  5  6  2  0  0  0  0
  5  7  1  0  0  0  0
  7  8  1  0  0  0  0
  7 29  1  0  0  0  0
  8 15  1  0  0  0  0
  8  9  2  0  0  0  0
  9 10  1  0  0  0  0
  9 11  1  0  0  0  0
 10 30  1  0  0  0  0
 10 31  1  0  0  0  0
 10 32  1  0  0  0  0
 11 12  2  0  0  0  0
 11 33  1  0  0  0  0
 12 13  1  0  0  0  0
 12 34  1  0  0  0  0
 13 14  1  0  0  0  0
 13 15  1  0  0  0  0
 14 35  1  0  0  0  0
 14 36  1  0  0  0  0
 14 37  1  0  0  0  0
 15 16  2  0  0  0  0
 17 21  1  0  0  0  0
 17 18  1  0  0  0  0
 17 38  1  0  0  0  0
 18 19  1  0  0  0  0
 18 39  1  0  0  0  0
 18 40  1  0  0  0  0
 19 20  1  0  0  0  0
 19 41  1  0  0  0  0
 19 42  1  0  0  0  0
 20 21  1  0  0  0  0
 20 43  1  0  0  0  0
 20 44  1  0  0  0  0
M  END
> <s_m_source_file>
AV-unprocessed.smi

> <i_m_source_file_index>
2925

> <i_lp_mmshare_version>
43012

> <i_f3d_flags>
0

> <s_epik_input>
TzFbQ0gyXVtDSDJdW0NIMl1bQ0BIXTFbQ0BIXShbQ0gyXVtDSDNdKVtOSF1DKD1PKVtOSF1jMmMoW0NIM10pW2NIXVtjSF1uKFtDSDNdKWMyPU8=

> <s_epik_cmdline>
J2VwaWtfcHl0aG9uJywgJy1waCcsICc3LjAnLCAnLXRuJywgJzgnLCAnLW1hJywgJzIwMCcsICctbWV0YWxfYmluZGluZycsICctaW1hZScsICc8aW5maWxlLm1hZT4nLCAnLW9tYWUnLCAnPG91dGZpbGUubWFlPic=

> <r_lp_tautomer_probability>
1

> <r_epik_Ionization_Penalty>
2.58789e-05

> <r_epik_Ionization_Penalty_Charging>
6.72534e-06

> <r_epik_Ionization_Penalty_Neutral>
1.91535e-05

> <r_epik_State_Penalty>
-0

> <r_epik_Charging_Adjusted_Penalty>
6.72534e-06

> <i_epik_Tot_Q>
0

> <i_epik_Tot_abs_Q>
0

> <r_epik_Metal_State_Penalty>
-0

> <b_epik_Metal_Only>
0

> <s_lp_Force_Field>
OPLS_2005

> <r_lp_Energy>
35.6543

> <b_lp_Chiralities_Consistent>
1

> <s_lp_Variant>
AV-unprocessed.smi:2925-1

> <Gold.Version>
5.8.1

> <Gold.Id.Protein>
6NUR|6NUR_protein|mol2

> <Gold.PLP.Fitness>
47.9728

> <Gold.PLP.PLP>
-49.8975

> <Gold.PLP.part.hbond>
0.0000

> <Gold.PLP.part.metal>
0.0000

> <Gold.PLP.part.buried>
-4.3505

> <Gold.PLP.part.nonpolar>
-44.5927

> <Gold.PLP.part.repulsive>
0.1110

> <Gold.PLP.ligand.clash>
0.0000

> <Gold.PLP.ligand.torsion>
1.2537

> <Gold.PLP.Chemscore.Hbond>
0.0000

> <Gold.PLP.Chemscore.CHOScore>
0.0000

> <Gold.PLP.Chemscore.Metal>
0.0000

> <Gold.PLP.Chemscore.Internal.Correction>
0.5827

> <Gold.Rescore>
     Score         DG    S(hbond)    S(metal)    S(lipo)     H(rot)  DE(clash)    DE(int)     intcor
     10.75     -15.77       0.00        0.00     117.69       1.36       0.17       4.85       ----

> <Gold.Chemscore.Fitness>
10.7475

> <Gold.Chemscore.DG>
-15.7732

> <Gold.Chemscore.ZeroCoef>
-5.4800

> <Gold.Chemscore.Hbond>
0.0000

> <Gold.Chemscore.Metal>
0.0000

> <Gold.Chemscore.Lipo>
117.6881

> <Gold.Chemscore.Internal_Hbond>
0.0000

> <Gold.Chemscore.DEClash>
0.1742

> <Gold.Chemscore.DEInternal>
4.8515

> <Gold.Chemscore.Rot>
1.3579

> <Gold.Chemscore.Internal.Correction>
   9.000000E+99

> <Gold.Chemscore.Hbond.Weighted>
-0.0000

> <Gold.Chemscore.Metal.Weighted>
-0.0000

> <Gold.Chemscore.Lipo.Weighted>
-13.7695

> <Gold.Chemscore.Internal_Hbond.Weighted>
0.0000

> <Gold.Chemscore.DEClash.Weighted>
0.1742

> <Gold.Chemscore.DEInternal.Weighted>
4.8515

> <Gold.Chemscore.Rot.Weighted>
3.4763

> <Gold.Chemscore.Internal.Correction.Weighted>
   9.000000E+99

> <Gold.Protein.RotatedTorsions>
[ 6907 6896 6895 6894 ] final  108.84 input  -60.11 | X-H torsion
[ 7974 7965 7964 7962 ] final   -0.64 input  175.53 | X-H torsion
[ 8008 7997 7996 7995 ] final  -50.67 input   59.86 | X-H torsion
[ 10167 10162 10161 10158 ] final  -10.40 input  -65.29 | X-H torsion
[ 10718 10713 10712 10709 ] final  142.33 input   66.30 | X-H torsion
[ 10763 10752 10751 10750 ] final  -50.78 input  -60.55 | X-H torsion
[ 11005 11000 10999 10996 ] final  169.09 input  -57.11 | X-H torsion

> <Gold.Protein.ActiveResidues>
 VAL166  LYS551  ARG553  GLY616  TRP617  ASP618  TYR619  PRO620  LYS621  CYS622 
 ASP623  PHE694  ASN695  SER759  ASP760  ASP761  ALA762  ILE779  LEU786  VAL792 
 PHE793  MET794  SER795  GLU796  ALA797  LYS798  CYS799  TRP800  GLU811  SER814 

> <Gold.Protein.RotatedAtoms>
  152.5094  133.9031  159.7450 H   0  0  0  0  0  0  0  0  0  0  0  0  # atno 6907 bound_to 6896
  150.9442  133.6614  159.2791 H   0  0  0  0  0  0  0  0  0  0  0  0  # atno 6908 bound_to 6896
  151.3915  135.0961  159.9580 H   0  0  0  0  0  0  0  0  0  0  0  0  # atno 6909 bound_to 6896
  146.2425  140.1301  142.8338 H   0  0  0  0  0  0  0  0  0  0  0  0  # atno 7974 bound_to 7965
  154.4067  140.1266  156.4704 H   0  0  0  0  0  0  0  0  0  0  0  0  # atno 8008 bound_to 7997
  155.7185  140.3493  155.4985 H   0  0  0  0  0  0  0  0  0  0  0  0  # atno 8009 bound_to 7997
  155.9236  140.1057  157.1177 H   0  0  0  0  0  0  0  0  0  0  0  0  # atno 8010 bound_to 7997
  140.7113  143.5753  150.9049 H   0  0  0  0  0  0  0  0  0  0  0  0  # atno 10167 bound_to 10162
  157.3818  131.0993  151.0731 H   0  0  0  0  0  0  0  0  0  0  0  0  # atno 10718 bound_to 10713
  154.1159  135.6542  153.4894 H   0  0  0  0  0  0  0  0  0  0  0  0  # atno 10763 bound_to 10752
  153.0241  135.5259  154.7145 H   0  0  0  0  0  0  0  0  0  0  0  0  # atno 10764 bound_to 10752
  154.6339  135.2979  155.0154 H   0  0  0  0  0  0  0  0  0  0  0  0  # atno 10765 bound_to 10752
  140.2941  134.7649  157.3862 H   0  0  0  0  0  0  0  0  0  0  0  0  # atno 11005 bound_to 11000
  145.0333  140.8888  143.5096 LP  0  0  0  0  0  0  0  0  0  0  0  0  # atno 17320 bound_to 7965
  145.1369  139.2597  143.5510 LP  0  0  0  0  0  0  0  0  0  0  0  0  # atno 17321 bound_to 7965
  139.9479  143.6306  152.3037 LP  0  0  0  0  0  0  0  0  0  0  0  0  # atno 17342 bound_to 10162
  139.6814  144.7655  151.1601 LP  0  0  0  0  0  0  0  0  0  0  0  0  # atno 17343 bound_to 10162
  157.1797  130.6304  149.5667 LP  0  0  0  0  0  0  0  0  0  0  0  0  # atno 17370 bound_to 10713
  155.9777  130.4758  150.6613 LP  0  0  0  0  0  0  0  0  0  0  0  0  # atno 17371 bound_to 10713
  140.1169  134.5271  155.8217 LP  0  0  0  0  0  0  0  0  0  0  0  0  # atno 17394 bound_to 11000
  141.2141  133.6743  156.6793 LP  0  0  0  0  0  0  0  0  0  0  0  0  # atno 17395 bound_to 11000

$$$$
