AV-unprocessed.smi:39|AV-procd|sdf|358|dock6
  -GOLD-   2262016193D 1   1.00000     0.00000
 Structure written by MMmdl.
 32 33  0  0  0  0  0  0  0  0  3 V2000
  150.3893  135.5019  154.9944 C   0  0  0  0  0  0  0  0  0  0  0  0
  151.2130  136.4955  155.7968 C   0  0  0  0  0  0  0  0  0  0  0  0
  151.1259  137.8366  155.6043 C   0  0  0  0  0  0  0  0  0  0  0  0
  151.8621  138.7679  156.3245 N   0  0  0  0  0  0  0  0  0  0  0  0
  151.7094  140.2519  156.0786 C   0  0  2  0  0  0  0  0  0  0  0  0
  151.1209  140.9424  157.3147 C   0  0  0  0  0  0  0  0  0  0  0  0
  149.6834  141.1860  156.8828 C   0  0  1  0  0  0  0  0  0  0  0  0
  149.0079  142.2732  157.6106 N   0  0  0  0  0  0  0  0  0  0  0  0
  148.0312  141.9903  158.3197 N   0  3  0  0  0  0  0  0  0  0  0  0
  147.0675  141.7274  158.8649 N   0  5  0  0  0  0  0  0  0  0  0  0
  149.8408  141.4123  155.3723 C   0  0  2  0  0  0  0  0  0  0  0  0
  148.5503  141.1662  154.5758 C   0  0  0  0  0  0  0  0  0  0  0  0
  148.7854  141.3731  153.1997 O   0  0  0  0  0  0  0  0  0  0  0  0
  150.8233  140.4451  155.0146 O   0  0  0  0  0  0  0  0  0  0  0  0
  152.7384  138.3229  157.3361 C   0  0  0  0  0  0  0  0  0  0  0  0
  153.3960  139.0895  158.0386 O   0  0  0  0  0  0  0  0  0  0  0  0
  152.8334  136.9460  157.5294 N   0  0  0  0  0  0  0  0  0  0  0  0
  152.1254  135.9739  156.8184 C   0  0  0  0  0  0  0  0  0  0  0  0
  152.2969  134.7844  157.0806 O   0  0  0  0  0  0  0  0  0  0  0  0
  152.6894  140.6363  155.7913 H   0  0  0  0  0  0  0  0  0  0  0  0
  149.1273  140.2602  157.0362 H   0  0  0  0  0  0  0  0  0  0  0  0
  150.2432  142.4076  155.1742 H   0  0  0  0  0  0  0  0  0  0  0  0
  153.4643  136.6234  158.2484 H   0  0  0  0  0  0  0  0  0  0  0  0
  149.7535  136.0009  154.2626 H   0  0  0  0  0  0  0  0  0  0  0  0
  149.7452  134.9202  155.6550 H   0  0  0  0  0  0  0  0  0  0  0  0
  151.0408  134.8123  154.4563 H   0  0  0  0  0  0  0  0  0  0  0  0
  150.4396  138.1929  154.8503 H   0  0  0  0  0  0  0  0  0  0  0  0
  151.2091  140.3288  158.2123 H   0  0  0  0  0  0  0  0  0  0  0  0
  151.6651  141.8741  157.4741 H   0  0  0  0  0  0  0  0  0  0  0  0
  148.1605  140.1629  154.7501 H   0  0  0  0  0  0  0  0  0  0  0  0
  147.7784  141.8721  154.8835 H   0  0  0  0  0  0  0  0  0  0  0  0
  148.8132  140.5321  152.7693 H   0  0  0  0  0  0  0  0  0  0  0  0
  1  2  1  0  0  0  0
  1 24  1  0  0  0  0
  1 25  1  0  0  0  0
  1 26  1  0  0  0  0
  2 18  1  0  0  0  0
  2  3  2  0  0  0  0
  3  4  1  0  0  0  0
  3 27  1  0  0  0  0
  4  5  1  0  0  0  0
  4 15  1  0  0  0  0
  5 20  1  0  0  0  0
  5 14  1  0  0  0  0
  5  6  1  0  0  0  0
  6  7  1  0  0  0  0
  6 28  1  0  0  0  0
  6 29  1  0  0  0  0
  7 21  1  0  0  0  0
  7  8  1  0  0  0  0
  7 11  1  0  0  0  0
  8  9  2  0  0  0  0
  9 10  2  0  0  0  0
 11 22  1  0  0  0  0
 11 12  1  0  0  0  0
 11 14  1  0  0  0  0
 12 13  1  0  0  0  0
 12 30  1  0  0  0  0
 12 31  1  0  0  0  0
 13 32  1  0  0  0  0
 15 16  2  0  0  0  0
 15 17  1  0  0  0  0
 17 23  1  0  0  0  0
 17 18  1  0  0  0  0
 18 19  2  0  0  0  0
M  CHG  1   9   1
M  CHG  1  10  -1
M  END
> <s_m_source_file>
AV-unprocessed.smi

> <i_m_source_file_index>
39

> <i_lp_mmshare_version>
43012

> <i_f3d_flags>
0

> <s_epik_input>
Tz1jMVtuSF1jKD1PKW4oW2NIXWMxW0NIM10pW0NASF0yW0NIMl1bQ0BIXShOPVtOK109W04tXSlbQ0BIXShPMilbQ0gyXVtPSF0=

> <s_epik_cmdline>
J2VwaWtfcHl0aG9uJywgJy1waCcsICc3LjAnLCAnLXRuJywgJzgnLCAnLW1hJywgJzIwMCcsICctbWV0YWxfYmluZGluZycsICctaW1hZScsICc8aW5maWxlLm1hZT4nLCAnLW9tYWUnLCAnPG91dGZpbGUubWFlPic=

> <r_lp_tautomer_probability>
0.999537

> <r_epik_Ionization_Penalty>
0.00127512

> <r_epik_Ionization_Penalty_Charging>
0.00127507

> <r_epik_Ionization_Penalty_Neutral>
5.43433e-08

> <r_epik_State_Penalty>
0.000844892

> <r_epik_Charging_Adjusted_Penalty>
0.00211996

> <i_epik_Tot_Q>
0

> <i_epik_Tot_abs_Q>
2

> <r_epik_Metal_State_Penalty>
0.680636

> <b_epik_Metal_Only>
0

> <s_epik_Chemistry_Notes>
This compound contains an acetal/aminal-like group ( X-CH(R)-Y where X, Y are N, S, or O) that may be acid/base labile, releasing an aldehyde.

> <s_lp_Force_Field>
OPLS_2005

> <r_lp_Energy>
25.9236

> <b_lp_Chiralities_Consistent>
1

> <s_lp_Variant>
AV-unprocessed.smi:39-8

> <Gold.Version>
5.8.1

> <Gold.Id.Protein>
6NUR|6NUR_protein|mol2

> <Gold.PLP.Fitness>
37.3628

> <Gold.PLP.PLP>
-25.2739

> <Gold.PLP.part.hbond>
-6.9526

> <Gold.PLP.part.metal>
0.0000

> <Gold.PLP.part.buried>
-1.8663

> <Gold.PLP.part.nonpolar>
-16.9275

> <Gold.PLP.part.repulsive>
0.5664

> <Gold.PLP.ligand.clash>
0.0000

> <Gold.PLP.ligand.torsion>
0.0616

> <Gold.PLP.Chemscore.Hbond>
4.0640

> <Gold.PLP.Chemscore.CHOScore>
0.0000

> <Gold.PLP.Chemscore.Metal>
0.0000

> <Gold.Chemscore.Hbonds>
donor molecule, donor type, donor heavy atom, donor atom, acceptor molecule, acceptor atom, score
      L1  H    13    32       P1  7957  0.59
      P1  H  6934  6946       L1    10  0.53
      P1  H  7989  7998       L1    14  1.00
      P1  H  7997  8008       L1    16  1.00
      P1  H  8011  8017       L1    13  0.93

> <Gold.PLP.Chemscore.Internal.Correction>
0.0202

> <Gold.Rescore>
     Score         DG    S(hbond)    S(metal)    S(lipo)     H(rot)  DE(clash)    DE(int)     intcor
     13.72     -14.21       3.33        0.00      39.71       2.75       0.27       0.21       ----

> <Gold.Chemscore.Fitness>
13.7225

> <Gold.Chemscore.DG>
-14.2088

> <Gold.Chemscore.ZeroCoef>
-5.4800

> <Gold.Chemscore.Hbond>
3.3321

> <Gold.Chemscore.Metal>
0.0000

> <Gold.Chemscore.Lipo>
39.7064

> <Gold.Chemscore.Internal_Hbond>
0.0000

> <Gold.Chemscore.DEClash>
0.2737

> <Gold.Chemscore.DEInternal>
0.2127

> <Gold.Chemscore.Rot>
2.7524

> <Gold.Chemscore.Internal.Correction>
   9.000000E+99

> <Gold.Chemscore.Hbonds>
donor molecule, donor type, donor heavy atom, donor atom, acceptor molecule, acceptor atom, score
      L1  H    13    32       P1  7957  0.58
      P1  H  6934  6946       L1    10  0.49
      P1  H  7989  7998       L1    14  0.65
      P1  H  7997  8008       L1    16  0.50
      P1  H  8011  8017       L1    13  0.55

> <Gold.Chemscore.Hbond.Weighted>
-11.1293

> <Gold.Chemscore.Metal.Weighted>
-0.0000

> <Gold.Chemscore.Lipo.Weighted>
-4.6456

> <Gold.Chemscore.Internal_Hbond.Weighted>
0.0000

> <Gold.Chemscore.DEClash.Weighted>
0.2737

> <Gold.Chemscore.DEInternal.Weighted>
0.2127

> <Gold.Chemscore.Rot.Weighted>
7.0461

> <Gold.Chemscore.Internal.Correction.Weighted>
   9.000000E+99

> <Gold.Protein.RotatedTorsions>
[ 6907 6896 6895 6894 ] final   45.83 input  -60.11 | X-H torsion
[ 7974 7965 7964 7962 ] final  -60.54 input  175.53 | X-H torsion
[ 8008 7997 7996 7995 ] final  -70.78 input   59.86 | X-H torsion
[ 10167 10162 10161 10158 ] final  -14.48 input  -65.29 | X-H torsion
[ 10718 10713 10712 10709 ] final  178.43 input   66.30 | X-H torsion
[ 10763 10752 10751 10750 ] final -145.37 input  -60.55 | X-H torsion
[ 11005 11000 10999 10996 ] final   31.06 input  -57.11 | X-H torsion

> <Gold.Protein.ActiveResidues>
 VAL166  LYS551  ARG553  GLY616  TRP617  ASP618  TYR619  PRO620  LYS621  CYS622 
 ASP623  PHE694  ASN695  SER759  ASP760  ASP761  ALA762  ILE779  LEU786  VAL792 
 PHE793  MET794  SER795  GLU796  ALA797  LYS798  CYS799  TRP800  GLU811  SER814 

> <Gold.Protein.RotatedAtoms>
  152.2492  134.8150  160.0448 H   0  0  0  0  0  0  0  0  0  0  0  0  # atno 6907 bound_to 6896
  151.8837  133.3495  159.3783 H   0  0  0  0  0  0  0  0  0  0  0  0  # atno 6908 bound_to 6896
  150.7078  134.4920  159.5564 H   0  0  0  0  0  0  0  0  0  0  0  0  # atno 6909 bound_to 6896
  145.8143  140.8579  143.0166 H   0  0  0  0  0  0  0  0  0  0  0  0  # atno 7974 bound_to 7965
  154.5038  140.0828  156.7851 H   0  0  0  0  0  0  0  0  0  0  0  0  # atno 8008 bound_to 7997
  155.3942  140.3434  155.4235 H   0  0  0  0  0  0  0  0  0  0  0  0  # atno 8009 bound_to 7997
  156.1489  140.1552  156.8789 H   0  0  0  0  0  0  0  0  0  0  0  0  # atno 8010 bound_to 7997
  140.7202  143.5317  150.9512 H   0  0  0  0  0  0  0  0  0  0  0  0  # atno 10167 bound_to 10162
  156.8907  130.9846  151.3050 H   0  0  0  0  0  0  0  0  0  0  0  0  # atno 10718 bound_to 10713
  154.8386  135.3415  154.6493 H   0  0  0  0  0  0  0  0  0  0  0  0  # atno 10763 bound_to 10752
  153.7106  135.6964  153.5043 H   0  0  0  0  0  0  0  0  0  0  0  0  # atno 10764 bound_to 10752
  153.2455  135.4370  155.0696 H   0  0  0  0  0  0  0  0  0  0  0  0  # atno 10765 bound_to 10752
  140.2879  134.2898  155.7783 H   0  0  0  0  0  0  0  0  0  0  0  0  # atno 11005 bound_to 11000
  144.6754  140.0441  143.7480 LP  0  0  0  0  0  0  0  0  0  0  0  0  # atno 17320 bound_to 7965
  145.9744  139.2893  143.1080 LP  0  0  0  0  0  0  0  0  0  0  0  0  # atno 17321 bound_to 7965
  139.9038  143.6804  152.3127 LP  0  0  0  0  0  0  0  0  0  0  0  0  # atno 17342 bound_to 10162
  139.7162  144.7611  151.1029 LP  0  0  0  0  0  0  0  0  0  0  0  0  # atno 17343 bound_to 10162
  157.6086  130.8565  149.8914 LP  0  0  0  0  0  0  0  0  0  0  0  0  # atno 17370 bound_to 10713
  156.0631  130.3696  150.0939 LP  0  0  0  0  0  0  0  0  0  0  0  0  # atno 17371 bound_to 10713
  141.2151  133.7566  156.9580 LP  0  0  0  0  0  0  0  0  0  0  0  0  # atno 17394 bound_to 11000
  140.1223  134.9409  157.2220 LP  0  0  0  0  0  0  0  0  0  0  0  0  # atno 17395 bound_to 11000

$$$$
