AV-unprocessed.smi:954|AV-procd|sdf|4258|dock6
  -GOLD-   22720 2163D 1   1.00000     0.00000
 Structure written by MMmdl.
 24 24  0  0  0  0  0  0  0  0  1 V2000
  151.6139  144.5390  159.5687 C   0  0  0  0  0  0  0  0  0  0  0  0
  152.0083  144.5244  158.0860 C   0  0  0  0  0  0  0  0  0  0  0  0
  151.1344  143.6558  157.3057 N   0  0  0  0  0  0  0  0  0  0  0  0
  151.0964  142.3176  157.3950 C   0  0  0  0  0  0  0  0  0  0  0  0
  151.8149  141.6749  158.1626 O   0  0  0  0  0  0  0  0  0  0  0  0
  150.0889  141.6183  156.4731 C   0  0  0  0  0  0  0  0  0  0  0  0
  150.6762  140.5232  155.7179 N   0  0  0  0  0  0  0  0  0  0  0  0
  151.9776  140.0582  155.7546 C   0  0  0  0  0  0  0  0  0  0  0  0
  152.0691  139.0201  154.8713 C   0  0  0  0  0  0  0  0  0  0  0  0
  150.7516  138.9339  154.3462 C   0  0  0  0  0  0  0  0  0  0  0  0
  150.3726  137.9961  153.3895 N   0  0  0  0  0  0  0  0  0  0  0  0
  149.9142  139.8238  154.8464 N   0  0  0  0  0  0  0  0  0  0  0  0
  152.2896  145.1740  160.1419 H   0  0  0  0  0  0  0  0  0  0  0  0
  151.6547  143.5377  159.9981 H   0  0  0  0  0  0  0  0  0  0  0  0
  150.6029  144.9235  159.7076 H   0  0  0  0  0  0  0  0  0  0  0  0
  151.9969  145.5371  157.6796 H   0  0  0  0  0  0  0  0  0  0  0  0
  153.0308  144.1608  157.9819 H   0  0  0  0  0  0  0  0  0  0  0  0
  150.5122  144.1055  156.6496 H   0  0  0  0  0  0  0  0  0  0  0  0
  149.2663  141.2223  157.0696 H   0  0  0  0  0  0  0  0  0  0  0  0
  149.6635  142.3463  155.7803 H   0  0  0  0  0  0  0  0  0  0  0  0
  152.7225  140.5041  156.3971 H   0  0  0  0  0  0  0  0  0  0  0  0
  152.9386  138.4230  154.6394 H   0  0  0  0  0  0  0  0  0  0  0  0
  151.0289  137.3235  153.0197 H   0  0  0  0  0  0  0  0  0  0  0  0
  149.4357  137.9795  153.0132 H   0  0  0  0  0  0  0  0  0  0  0  0
  1  2  1  0  0  0  0
  1 13  1  0  0  0  0
  1 14  1  0  0  0  0
  1 15  1  0  0  0  0
  2  3  1  0  0  0  0
  2 16  1  0  0  0  0
  2 17  1  0  0  0  0
  3  4  1  0  0  0  0
  3 18  1  0  0  0  0
  4  5  2  0  0  0  0
  4  6  1  0  0  0  0
  6  7  1  0  0  0  0
  6 19  1  0  0  0  0
  6 20  1  0  0  0  0
  7 12  1  0  0  0  0
  7  8  1  0  0  0  0
  8  9  2  0  0  0  0
  8 21  1  0  0  0  0
  9 10  1  0  0  0  0
  9 22  1  0  0  0  0
 10 11  1  0  0  0  0
 10 12  2  0  0  0  0
 11 23  1  0  0  0  0
 11 24  1  0  0  0  0
M  END
> <s_m_source_file>
AV-unprocessed.smi

> <i_m_source_file_index>
954

> <i_lp_mmshare_version>
43012

> <i_f3d_flags>
0

> <s_epik_input>
W0NIM11bQ0gyXVtOSF1DKD1PKVtDSDJdbjFbY0hdW2NIXWMobjEpW05IMl0=

> <s_epik_cmdline>
J2VwaWtfcHl0aG9uJywgJy1waCcsICc3LjAnLCAnLXRuJywgJzgnLCAnLW1hJywgJzIwMCcsICctbWV0YWxfYmluZGluZycsICctaW1hZScsICc8aW5maWxlLm1hZT4nLCAnLW9tYWUnLCAnPG91dGZpbGUubWFlPic=

> <r_lp_tautomer_probability>
1

> <r_epik_Ionization_Penalty>
0.000257536

> <r_epik_Ionization_Penalty_Charging>
0

> <r_epik_Ionization_Penalty_Neutral>
0.000257536

> <r_epik_State_Penalty>
-0

> <r_epik_Charging_Adjusted_Penalty>
0

> <i_epik_Tot_Q>
0

> <i_epik_Tot_abs_Q>
0

> <r_epik_Metal_State_Penalty>
-0

> <b_epik_Metal_Only>
0

> <s_lp_Force_Field>
OPLS_2005

> <r_lp_Energy>
1.8316

> <b_lp_Chiralities_Consistent>
1

> <s_lp_Variant>
AV-unprocessed.smi:954-1

> <Gold.Version>
5.8.1

> <Gold.Id.Protein>
6NUR|6NUR_protein|mol2

> <Gold.PLP.Fitness>
35.6616

> <Gold.PLP.PLP>
-30.0927

> <Gold.PLP.part.hbond>
-3.3549

> <Gold.PLP.part.metal>
0.0000

> <Gold.PLP.part.buried>
-3.2098

> <Gold.PLP.part.nonpolar>
-24.3637

> <Gold.PLP.part.repulsive>
0.1847

> <Gold.PLP.ligand.clash>
0.0000

> <Gold.PLP.ligand.torsion>
0.1357

> <Gold.PLP.Chemscore.Hbond>
1.9467

> <Gold.PLP.Chemscore.CHOScore>
0.0000

> <Gold.PLP.Chemscore.Metal>
0.0000

> <Gold.Chemscore.Hbonds>
donor molecule, donor type, donor heavy atom, donor atom, acceptor molecule, acceptor atom, score
      L1  H     3    18       P1  8028  1.00
      L1  H    11    23       P1  7949  0.78
      L1  H    11    24       P1  7948  0.22

> <Gold.PLP.Chemscore.Internal.Correction>
0.0002

> <Gold.Rescore>
     Score         DG    S(hbond)    S(metal)    S(lipo)     H(rot)  DE(clash)    DE(int)     intcor
     10.58     -12.16       1.61        0.00      49.70       1.77       0.05       1.52       ----

> <Gold.Chemscore.Fitness>
10.5835

> <Gold.Chemscore.DG>
-12.1597

> <Gold.Chemscore.ZeroCoef>
-5.4800

> <Gold.Chemscore.Hbond>
1.6128

> <Gold.Chemscore.Metal>
0.0000

> <Gold.Chemscore.Lipo>
49.6990

> <Gold.Chemscore.Internal_Hbond>
0.0000

> <Gold.Chemscore.DEClash>
0.0538

> <Gold.Chemscore.DEInternal>
1.5224

> <Gold.Chemscore.Rot>
1.7664

> <Gold.Chemscore.Internal.Correction>
   9.000000E+99

> <Gold.Chemscore.Hbonds>
donor molecule, donor type, donor heavy atom, donor atom, acceptor molecule, acceptor atom, score
      L1  H     3    18       P1  8028  0.98
      L1  H    11    23       P1  7949  0.22
      L1  H    11    24       P1  7948  0.20

> <Gold.Chemscore.Hbond.Weighted>
-5.3869

> <Gold.Chemscore.Metal.Weighted>
-0.0000

> <Gold.Chemscore.Lipo.Weighted>
-5.8148

> <Gold.Chemscore.Internal_Hbond.Weighted>
0.0000

> <Gold.Chemscore.DEClash.Weighted>
0.0538

> <Gold.Chemscore.DEInternal.Weighted>
1.5224

> <Gold.Chemscore.Rot.Weighted>
4.5219

> <Gold.Chemscore.Internal.Correction.Weighted>
   9.000000E+99

> <Gold.Protein.RotatedTorsions>
[ 6907 6896 6895 6894 ] final  -68.60 input  -60.11 | X-H torsion
[ 7974 7965 7964 7962 ] final  105.86 input  175.53 | X-H torsion
[ 8008 7997 7996 7995 ] final -115.99 input   59.86 | X-H torsion
[ 10167 10162 10161 10158 ] final  178.74 input  -65.29 | X-H torsion
[ 10718 10713 10712 10709 ] final  136.44 input   66.30 | X-H torsion
[ 10763 10752 10751 10750 ] final  -89.01 input  -60.55 | X-H torsion
[ 11005 11000 10999 10996 ] final   25.40 input  -57.11 | X-H torsion

> <Gold.Protein.ActiveResidues>
 VAL166  LYS551  ARG553  GLY616  TRP617  ASP618  TYR619  PRO620  LYS621  CYS622 
 ASP623  PHE694  ASN695  SER759  ASP760  ASP761  ALA762  ILE779  LEU786  VAL792 
 PHE793  MET794  SER795  GLU796  ALA797  LYS798  CYS799  TRP800  GLU811  SER814 

> <Gold.Protein.RotatedAtoms>
  150.7348  134.5717  159.5893 H   0  0  0  0  0  0  0  0  0  0  0  0  # atno 6907 bound_to 6896
  152.3154  134.7443  160.0335 H   0  0  0  0  0  0  0  0  0  0  0  0  # atno 6908 bound_to 6896
  151.7977  133.3331  159.3554 H   0  0  0  0  0  0  0  0  0  0  0  0  # atno 6909 bound_to 6896
  145.3141  139.2531  143.3747 H   0  0  0  0  0  0  0  0  0  0  0  0  # atno 7974 bound_to 7965
  155.0608  140.0393  157.2576 H   0  0  0  0  0  0  0  0  0  0  0  0  # atno 8008 bound_to 7997
  154.7061  140.2683  155.6649 H   0  0  0  0  0  0  0  0  0  0  0  0  # atno 8009 bound_to 7997
  156.2775  140.2731  156.1687 H   0  0  0  0  0  0  0  0  0  0  0  0  # atno 8010 bound_to 7997
  139.5306  144.2644  152.0680 H   0  0  0  0  0  0  0  0  0  0  0  0  # atno 10167 bound_to 10162
  157.4467  131.1062  151.0081 H   0  0  0  0  0  0  0  0  0  0  0  0  # atno 10718 bound_to 10713
  154.6507  135.5356  153.7898 H   0  0  0  0  0  0  0  0  0  0  0  0  # atno 10763 bound_to 10752
  153.0384  135.6481  154.1021 H   0  0  0  0  0  0  0  0  0  0  0  0  # atno 10764 bound_to 10752
  154.0939  135.2938  155.3246 H   0  0  0  0  0  0  0  0  0  0  0  0  # atno 10765 bound_to 10752
  140.3482  134.2258  155.7682 H   0  0  0  0  0  0  0  0  0  0  0  0  # atno 11005 bound_to 11000
  146.3107  140.3684  142.8671 LP  0  0  0  0  0  0  0  0  0  0  0  0  # atno 17320 bound_to 7965
  144.8992  140.7621  143.5878 LP  0  0  0  0  0  0  0  0  0  0  0  0  # atno 17321 bound_to 7965
  140.2107  144.4565  150.6387 LP  0  0  0  0  0  0  0  0  0  0  0  0  # atno 17342 bound_to 10162
  140.6482  143.2218  151.6138 LP  0  0  0  0  0  0  0  0  0  0  0  0  # atno 17343 bound_to 10162
  157.0926  130.5948  149.5443 LP  0  0  0  0  0  0  0  0  0  0  0  0  # atno 17370 bound_to 10713
  155.9970  130.5041  150.7518 LP  0  0  0  0  0  0  0  0  0  0  0  0  # atno 17371 bound_to 10713
  141.2019  133.7950  157.0415 LP  0  0  0  0  0  0  0  0  0  0  0  0  # atno 17394 bound_to 11000
  140.0725  134.9694  157.1490 LP  0  0  0  0  0  0  0  0  0  0  0  0  # atno 17395 bound_to 11000

$$$$
