AV-unprocessed.smi:2441|AV-procd|sdf|9622|dock5
  -GOLD-   2272013253D 1   1.00000     0.00000
 Structure written by MMmdl.
 40 41  0  0  0  0  0  0  0  0  1 V2000
  147.5721  132.9941  152.5624 C   0  0  0  0  0  0  0  0  0  0  0  0
  146.2720  133.5627  151.9667 C   0  0  1  0  0  0  0  0  0  0  0  0
  145.2178  132.4472  151.8125 C   0  0  0  0  0  0  0  0  0  0  0  0
  143.9036  132.9757  151.2186 C   0  0  0  0  0  0  0  0  0  0  0  0
  143.3427  134.1284  152.0618 C   0  0  0  0  0  0  0  0  0  0  0  0
  144.3752  135.2553  152.2046 C   0  0  0  0  0  0  0  0  0  0  0  0
  145.7028  134.7420  152.7961 C   0  0  2  0  0  0  0  0  0  0  0  0
  146.6556  135.8507  152.8427 N   0  0  0  0  0  0  0  0  0  0  0  0
  146.4422  137.0519  153.3991 C   0  0  0  0  0  0  0  0  0  0  0  0
  145.3924  137.3641  153.9604 O   0  0  0  0  0  0  0  0  0  0  0  0
  147.5158  137.8476  153.2391 N   0  0  0  0  0  0  0  0  0  0  0  0
  147.7262  139.1629  153.6889 C   0  0  0  0  0  0  0  0  0  0  0  0
  146.8749  140.1962  153.4693 C   0  0  0  0  0  0  0  0  0  0  0  0
  147.1627  141.5149  153.9788 C   0  0  0  0  0  0  0  0  0  0  0  0
  148.2872  141.6917  154.6857 C   0  0  0  0  0  0  0  0  0  0  0  0
  149.1779  140.6359  154.9371 N   0  0  0  0  0  0  0  0  0  0  0  0
  150.3662  140.9799  155.7229 C   0  0  0  0  0  0  0  0  0  0  0  0
  148.9602  139.3673  154.4739 C   0  0  0  0  0  0  0  0  0  0  0  0
  149.7551  138.4526  154.7024 O   0  0  0  0  0  0  0  0  0  0  0  0
  147.4157  132.6385  153.5811 H   0  0  0  0  0  0  0  0  0  0  0  0
  148.3648  133.7418  152.5895 H   0  0  0  0  0  0  0  0  0  0  0  0
  147.9399  132.1555  151.9709 H   0  0  0  0  0  0  0  0  0  0  0  0
  146.5053  133.9336  150.9673 H   0  0  0  0  0  0  0  0  0  0  0  0
  145.6076  131.6517  151.1766 H   0  0  0  0  0  0  0  0  0  0  0  0
  145.0188  131.9934  152.7843 H   0  0  0  0  0  0  0  0  0  0  0  0
  144.0740  133.3175  150.1969 H   0  0  0  0  0  0  0  0  0  0  0  0
  143.1724  132.1695  151.1579 H   0  0  0  0  0  0  0  0  0  0  0  0
  142.4314  134.5145  151.6047 H   0  0  0  0  0  0  0  0  0  0  0  0
  143.0626  133.7600  153.0495 H   0  0  0  0  0  0  0  0  0  0  0  0
  144.5552  135.7034  151.2261 H   0  0  0  0  0  0  0  0  0  0  0  0
  143.9672  136.0464  152.8352 H   0  0  0  0  0  0  0  0  0  0  0  0
  145.4977  134.3782  153.8049 H   0  0  0  0  0  0  0  0  0  0  0  0
  147.5508  135.6898  152.4050 H   0  0  0  0  0  0  0  0  0  0  0  0
  148.2733  137.4693  152.6889 H   0  0  0  0  0  0  0  0  0  0  0  0
  145.9520  140.0692  152.9270 H   0  0  0  0  0  0  0  0  0  0  0  0
  146.4886  142.3385  153.7945 H   0  0  0  0  0  0  0  0  0  0  0  0
  148.5799  142.6449  155.1027 H   0  0  0  0  0  0  0  0  0  0  0  0
  150.9934  140.1276  155.9861 H   0  0  0  0  0  0  0  0  0  0  0  0
  150.0713  141.4593  156.6571 H   0  0  0  0  0  0  0  0  0  0  0  0
  150.9871  141.6835  155.1673 H   0  0  0  0  0  0  0  0  0  0  0  0
  1  2  1  0  0  0  0
  1 20  1  0  0  0  0
  1 21  1  0  0  0  0
  1 22  1  0  0  0  0
  2  7  1  0  0  0  0
  2  3  1  0  0  0  0
  2 23  1  0  0  0  0
  3  4  1  0  0  0  0
  3 24  1  0  0  0  0
  3 25  1  0  0  0  0
  4  5  1  0  0  0  0
  4 26  1  0  0  0  0
  4 27  1  0  0  0  0
  5  6  1  0  0  0  0
  5 28  1  0  0  0  0
  5 29  1  0  0  0  0
  6  7  1  0  0  0  0
  6 30  1  0  0  0  0
  6 31  1  0  0  0  0
  7  8  1  0  0  0  0
  7 32  1  0  0  0  0
  8  9  1  0  0  0  0
  8 33  1  0  0  0  0
  9 10  2  0  0  0  0
  9 11  1  0  0  0  0
 11 12  1  0  0  0  0
 11 34  1  0  0  0  0
 12 18  1  0  0  0  0
 12 13  2  0  0  0  0
 13 14  1  0  0  0  0
 13 35  1  0  0  0  0
 14 15  2  0  0  0  0
 14 36  1  0  0  0  0
 15 16  1  0  0  0  0
 15 37  1  0  0  0  0
 16 17  1  0  0  0  0
 16 18  1  0  0  0  0
 17 38  1  0  0  0  0
 17 39  1  0  0  0  0
 17 40  1  0  0  0  0
 18 19  2  0  0  0  0
M  END
> <s_m_source_file>
AV-unprocessed.smi

> <i_m_source_file_index>
2441

> <i_lp_mmshare_version>
43012

> <i_f3d_flags>
0

> <s_epik_input>
W0NIM11bQ0BASF0xW0NIMl1bQ0gyXVtDSDJdW0NIMl1bQ0BIXTFbTkhdQyg9TylbTkhdYzJbY0hdW2NIXVtjSF1uKFtDSDNdKWMyPU8=

> <s_epik_cmdline>
J2VwaWtfcHl0aG9uJywgJy1waCcsICc3LjAnLCAnLXRuJywgJzgnLCAnLW1hJywgJzIwMCcsICctbWV0YWxfYmluZGluZycsICctaW1hZScsICc8aW5maWxlLm1hZT4nLCAnLW9tYWUnLCAnPG91dGZpbGUubWFlPic=

> <r_lp_tautomer_probability>
1

> <r_epik_Ionization_Penalty>
2.64999e-05

> <r_epik_Ionization_Penalty_Charging>
5.09663e-06

> <r_epik_Ionization_Penalty_Neutral>
2.14032e-05

> <r_epik_State_Penalty>
-0

> <r_epik_Charging_Adjusted_Penalty>
5.09663e-06

> <i_epik_Tot_Q>
0

> <i_epik_Tot_abs_Q>
0

> <r_epik_Metal_State_Penalty>
-0

> <b_epik_Metal_Only>
0

> <s_lp_Force_Field>
OPLS_2005

> <r_lp_Energy>
23.8871

> <b_lp_Chiralities_Consistent>
1

> <s_lp_Variant>
AV-unprocessed.smi:2441-4

> <Gold.Version>
5.8.1

> <Gold.Id.Protein>
6NUR|6NUR_protein|mol2

> <Gold.PLP.Fitness>
40.8402

> <Gold.PLP.PLP>
-32.8665

> <Gold.PLP.part.hbond>
-1.7877

> <Gold.PLP.part.metal>
0.0000

> <Gold.PLP.part.buried>
-2.9675

> <Gold.PLP.part.nonpolar>
-29.1448

> <Gold.PLP.part.repulsive>
0.3505

> <Gold.PLP.ligand.clash>
0.0000

> <Gold.PLP.ligand.torsion>
0.5152

> <Gold.PLP.Chemscore.Hbond>
2.0000

> <Gold.PLP.Chemscore.CHOScore>
1.0000

> <Gold.PLP.Chemscore.Metal>
0.0000

> <Gold.Chemscore.Hbonds>
donor molecule, donor type, donor heavy atom, donor atom, acceptor molecule, acceptor atom, score
      L1  H     8    33       P1  7948  1.00
      L1  H    11    34       P1  7948  1.00
      L1  C    15    37       P1  8028  1.00

> <Gold.PLP.Chemscore.Internal.Correction>
0.0041

> <Gold.Rescore>
     Score         DG    S(hbond)    S(metal)    S(lipo)     H(rot)  DE(clash)    DE(int)     intcor
     15.68     -17.32       1.95        0.00      67.38       1.00       0.13       1.51       ----

> <Gold.Chemscore.Fitness>
15.6792

> <Gold.Chemscore.DG>
-17.3226

> <Gold.Chemscore.ZeroCoef>
-5.4800

> <Gold.Chemscore.Hbond>
1.9519

> <Gold.Chemscore.Metal>
0.0000

> <Gold.Chemscore.Lipo>
67.3787

> <Gold.Chemscore.Internal_Hbond>
0.0000

> <Gold.Chemscore.DEClash>
0.1336

> <Gold.Chemscore.DEInternal>
1.5098

> <Gold.Chemscore.Rot>
1.0000

> <Gold.Chemscore.Internal.Correction>
   9.000000E+99

> <Gold.Chemscore.Hbonds>
donor molecule, donor type, donor heavy atom, donor atom, acceptor molecule, acceptor atom, score
      L1  H     8    33       P1  7948  0.94
      L1  H    11    34       P1  7948  0.96

> <Gold.Chemscore.Hbond.Weighted>
-6.5193

> <Gold.Chemscore.Metal.Weighted>
-0.0000

> <Gold.Chemscore.Lipo.Weighted>
-7.8833

> <Gold.Chemscore.Internal_Hbond.Weighted>
0.0000

> <Gold.Chemscore.DEClash.Weighted>
0.1336

> <Gold.Chemscore.DEInternal.Weighted>
1.5098

> <Gold.Chemscore.Rot.Weighted>
2.5600

> <Gold.Chemscore.Internal.Correction.Weighted>
   9.000000E+99

> <Gold.Protein.RotatedTorsions>
[ 6907 6896 6895 6894 ] final   97.85 input  -60.11 | X-H torsion
[ 7974 7965 7964 7962 ] final -116.76 input  175.53 | X-H torsion
[ 8008 7997 7996 7995 ] final  143.38 input   59.86 | X-H torsion
[ 10167 10162 10161 10158 ] final   16.41 input  -65.29 | X-H torsion
[ 10718 10713 10712 10709 ] final  -84.44 input   66.30 | X-H torsion
[ 10763 10752 10751 10750 ] final   24.32 input  -60.55 | X-H torsion
[ 11005 11000 10999 10996 ] final  -48.75 input  -57.11 | X-H torsion

> <Gold.Protein.ActiveResidues>
 VAL166  LYS551  ARG553  GLY616  TRP617  ASP618  TYR619  PRO620  LYS621  CYS622 
 ASP623  PHE694  ASN695  SER759  ASP760  ASP761  ALA762  ILE779  LEU786  VAL792 
 PHE793  MET794  SER795  GLU796  ALA797  LYS798  CYS799  TRP800  GLU811  SER814 

> <Gold.Protein.RotatedAtoms>
  152.5418  134.0670  159.8177 H   0  0  0  0  0  0  0  0  0  0  0  0  # atno 6907 bound_to 6896
  151.0790  133.5398  159.2629 H   0  0  0  0  0  0  0  0  0  0  0  0  # atno 6908 bound_to 6896
  151.2232  135.0535  159.9012 H   0  0  0  0  0  0  0  0  0  0  0  0  # atno 6909 bound_to 6896
  145.0931  140.8503  143.3971 H   0  0  0  0  0  0  0  0  0  0  0  0  # atno 7974 bound_to 7965
  156.2931  140.2264  156.4881 H   0  0  0  0  0  0  0  0  0  0  0  0  # atno 8008 bound_to 7997
  154.7794  140.0461  157.1136 H   0  0  0  0  0  0  0  0  0  0  0  0  # atno 8009 bound_to 7997
  154.9777  140.3074  155.4963 H   0  0  0  0  0  0  0  0  0  0  0  0  # atno 8010 bound_to 7997
  140.5799  143.9000  150.6781 H   0  0  0  0  0  0  0  0  0  0  0  0  # atno 10167 bound_to 10162
  156.0006  130.4698  150.4410 H   0  0  0  0  0  0  0  0  0  0  0  0  # atno 10718 bound_to 10713
  153.0773  135.6608  154.0119 H   0  0  0  0  0  0  0  0  0  0  0  0  # atno 10763 bound_to 10752
  153.9750  135.2961  155.3426 H   0  0  0  0  0  0  0  0  0  0  0  0  # atno 10764 bound_to 10752
  154.7164  135.5183  153.8815 H   0  0  0  0  0  0  0  0  0  0  0  0  # atno 10765 bound_to 10752
  141.0719  133.6677  156.3486 H   0  0  0  0  0  0  0  0  0  0  0  0  # atno 11005 bound_to 11000
  145.1043  139.2801  143.5670 LP  0  0  0  0  0  0  0  0  0  0  0  0  # atno 17320 bound_to 7965
  146.3531  140.0619  142.8629 LP  0  0  0  0  0  0  0  0  0  0  0  0  # atno 17321 bound_to 7965
  140.2497  143.3602  152.1416 LP  0  0  0  0  0  0  0  0  0  0  0  0  # atno 17342 bound_to 10162
  139.5164  144.6977  151.5584 LP  0  0  0  0  0  0  0  0  0  0  0  0  # atno 17343 bound_to 10162
  157.2451  131.0534  151.2413 LP  0  0  0  0  0  0  0  0  0  0  0  0  # atno 17370 bound_to 10713
  157.3582  130.7117  149.6484 LP  0  0  0  0  0  0  0  0  0  0  0  0  # atno 17371 bound_to 10713
  140.5656  134.5891  157.5444 LP  0  0  0  0  0  0  0  0  0  0  0  0  # atno 17394 bound_to 11000
  139.9532  134.7581  156.0401 LP  0  0  0  0  0  0  0  0  0  0  0  0  # atno 17395 bound_to 11000

$$$$
