AV-unprocessed.smi:289|AV-procd|sdf|2214|dock8
  -GOLD-   2262022 53D 1   1.00000     0.00000
 Structure written by MMmdl.
 51 54  0  0  0  0  0  0  0  0  1 V2000
  152.6728  138.1534  160.8240 O   0  0  0  0  0  0  0  0  0  0  0  0
  153.8547  138.3417  161.1193 C   0  0  0  0  0  0  0  0  0  0  0  0
  154.5228  139.6747  160.7206 C   0  0  0  0  0  0  0  0  0  0  0  0
  153.6136  140.6089  160.0192 N   0  0  0  0  0  0  0  0  0  0  0  0
  153.1095  140.2402  158.7479 C   0  0  0  0  0  0  0  0  0  0  0  0
  153.4361  139.1791  158.2140 O   0  0  0  0  0  0  0  0  0  0  0  0
  152.1785  141.1849  158.1438 C   0  0  0  0  0  0  0  0  0  0  0  0
  151.6158  140.8983  156.9576 F   0  0  0  0  0  0  0  0  0  0  0  0
  151.8570  142.3382  158.7651 C   0  0  0  0  0  0  0  0  0  0  0  0
  152.3897  142.7104  159.9887 N   0  0  0  0  0  0  0  0  0  0  0  0
  151.9635  143.9747  160.7202 C   0  0  1  0  0  0  0  0  0  0  0  0
  152.2086  145.2719  159.9371 C   0  0  0  0  0  0  0  0  0  0  0  0
  150.8501  145.5625  159.3045 C   0  0  0  0  0  0  0  0  0  0  0  0
  149.9456  144.4194  159.7769 C   0  0  0  0  0  0  0  0  0  0  0  0
  150.5902  143.9169  160.9394 O   0  0  0  0  0  0  0  0  0  0  0  0
  153.2489  141.8150  160.6649 C   0  0  0  0  0  0  0  0  0  0  0  0
  153.6700  142.0774  161.7938 O   0  0  0  0  0  0  0  0  0  0  0  0
  154.5852  137.4144  161.7848 N   0  0  0  0  0  0  0  0  0  0  0  0
  155.9782  137.5696  162.2275 C   0  0  0  0  0  0  0  0  0  0  0  0
  156.0179  137.5788  163.7697 C   0  0  0  0  0  0  0  0  0  0  0  0
  155.4154  136.3338  164.2821 N   0  0  0  0  0  0  0  0  0  0  0  0
  156.0665  135.3633  164.9712 C   0  0  0  0  0  0  0  0  0  0  0  0
  157.1554  135.5524  165.5141 O   0  0  0  0  0  0  0  0  0  0  0  0
  155.4623  134.0173  165.0701 C   0  0  0  0  0  0  0  0  0  0  0  0
  155.5514  133.0806  166.0643 C   0  0  0  0  0  0  0  0  0  0  0  0
  154.8228  131.9432  165.6192 C   0  0  0  0  0  0  0  0  0  0  0  0
  154.3617  132.2566  164.3732 C   0  0  0  0  0  0  0  0  0  0  0  0
  154.7540  133.5101  164.0179 O   0  0  0  0  0  0  0  0  0  0  0  0
  154.0338  136.1585  163.8042 C   0  0  0  0  0  0  0  0  0  0  0  0
  154.0186  136.1467  162.2640 C   0  0  0  0  0  0  0  0  0  0  0  0
  154.9297  140.1485  161.6152 H   0  0  0  0  0  0  0  0  0  0  0  0
  155.3969  139.4572  160.1048 H   0  0  0  0  0  0  0  0  0  0  0  0
  151.1399  142.9749  158.2716 H   0  0  0  0  0  0  0  0  0  0  0  0
  152.5207  143.9681  161.6585 H   0  0  0  0  0  0  0  0  0  0  0  0
  152.4548  146.0583  160.6515 H   0  0  0  0  0  0  0  0  0  0  0  0
  153.0400  145.1936  159.2370 H   0  0  0  0  0  0  0  0  0  0  0  0
  150.4720  146.5213  159.6614 H   0  0  0  0  0  0  0  0  0  0  0  0
  150.9000  145.6087  158.2163 H   0  0  0  0  0  0  0  0  0  0  0  0
  148.9316  144.7527  159.9988 H   0  0  0  0  0  0  0  0  0  0  0  0
  149.8825  143.6340  159.0224 H   0  0  0  0  0  0  0  0  0  0  0  0
  156.5670  136.7343  161.8455 H   0  0  0  0  0  0  0  0  0  0  0  0
  156.4667  138.4638  161.8449 H   0  0  0  0  0  0  0  0  0  0  0  0
  157.0536  137.7203  164.0712 H   0  0  0  0  0  0  0  0  0  0  0  0
  155.4651  138.4341  164.1609 H   0  0  0  0  0  0  0  0  0  0  0  0
  156.0760  133.2014  167.0008 H   0  0  0  0  0  0  0  0  0  0  0  0
  154.6649  131.0106  166.1409 H   0  0  0  0  0  0  0  0  0  0  0  0
  153.7756  131.7294  163.6348 H   0  0  0  0  0  0  0  0  0  0  0  0
  153.5672  135.2481  164.1827 H   0  0  0  0  0  0  0  0  0  0  0  0
  153.4223  136.9810  164.1786 H   0  0  0  0  0  0  0  0  0  0  0  0
  153.0016  135.9745  161.9100 H   0  0  0  0  0  0  0  0  0  0  0  0
  154.6126  135.3142  161.8837 H   0  0  0  0  0  0  0  0  0  0  0  0
  1  2  2  0  0  0  0
  2  3  1  0  0  0  0
  2 18  1  0  0  0  0
  3  4  1  0  0  0  0
  3 31  1  0  0  0  0
  3 32  1  0  0  0  0
  4 16  1  0  0  0  0
  4  5  1  0  0  0  0
  5  6  2  0  0  0  0
  5  7  1  0  0  0  0
  7  8  1  0  0  0  0
  7  9  2  0  0  0  0
  9 10  1  0  0  0  0
  9 33  1  0  0  0  0
 10 11  1  0  0  0  0
 10 16  1  0  0  0  0
 11 15  1  0  0  0  0
 11 12  1  0  0  0  0
 11 34  1  0  0  0  0
 12 13  1  0  0  0  0
 12 35  1  0  0  0  0
 12 36  1  0  0  0  0
 13 14  1  0  0  0  0
 13 37  1  0  0  0  0
 13 38  1  0  0  0  0
 14 15  1  0  0  0  0
 14 39  1  0  0  0  0
 14 40  1  0  0  0  0
 16 17  2  0  0  0  0
 18 30  1  0  0  0  0
 18 19  1  0  0  0  0
 19 20  1  0  0  0  0
 19 41  1  0  0  0  0
 19 42  1  0  0  0  0
 20 21  1  0  0  0  0
 20 43  1  0  0  0  0
 20 44  1  0  0  0  0
 21 22  1  0  0  0  0
 21 29  1  0  0  0  0
 22 23  2  0  0  0  0
 22 24  1  0  0  0  0
 24 28  1  0  0  0  0
 24 25  2  0  0  0  0
 25 26  1  0  0  0  0
 25 45  1  0  0  0  0
 26 27  2  0  0  0  0
 26 46  1  0  0  0  0
 27 28  1  0  0  0  0
 27 47  1  0  0  0  0
 29 30  1  0  0  0  0
 29 48  1  0  0  0  0
 29 49  1  0  0  0  0
 30 50  1  0  0  0  0
 30 51  1  0  0  0  0
M  END
> <s_m_source_file>
AV-unprocessed.smi

> <i_m_source_file_index>
289

> <i_lp_mmshare_version>
43012

> <i_f3d_flags>
0

> <s_epik_input>
bzFbY0hdW2NIXVtjSF1jMUMoPU8pTihbQ0gyXVtDSDJdMilbQ0gyXVtDSDJdTjJDKD1PKVtDSDJdbjNjKD1PKWMoRilbY0hdbihjMz1PKVtDQEBIXTRbQ0gyXVtDSDJdW0NIMl1PNA==

> <s_epik_cmdline>
J2VwaWtfcHl0aG9uJywgJy1waCcsICc3LjAnLCAnLXRuJywgJzgnLCAnLW1hJywgJzIwMCcsICctbWV0YWxfYmluZGluZycsICctaW1hZScsICc8aW5maWxlLm1hZT4nLCAnLW9tYWUnLCAnPG91dGZpbGUubWFlPic=

> <r_lp_tautomer_probability>
1

> <r_epik_Ionization_Penalty>
6.38128e-09

> <r_epik_Ionization_Penalty_Charging>
4.20153e-09

> <r_epik_Ionization_Penalty_Neutral>
2.17976e-09

> <r_epik_State_Penalty>
-0

> <r_epik_Charging_Adjusted_Penalty>
4.20153e-09

> <i_epik_Tot_Q>
0

> <i_epik_Tot_abs_Q>
0

> <r_epik_Metal_State_Penalty>
-0

> <b_epik_Metal_Only>
0

> <s_epik_Chemistry_Notes>
This compound contains an acetal/aminal-like group ( X-CH(R)-Y where X, Y are N, S, or O) that may be acid/base labile, releasing an aldehyde.

> <s_lp_Force_Field>
OPLS_2005

> <r_lp_Energy>
67.9556

> <b_lp_Chiralities_Consistent>
1

> <s_lp_Variant>
AV-unprocessed.smi:289-2

> <Gold.Version>
5.8.1

> <Gold.Id.Protein>
6NUR|6NUR_protein|mol2

> <Gold.PLP.Fitness>
48.1458

> <Gold.PLP.PLP>
-46.5627

> <Gold.PLP.part.hbond>
-2.0039

> <Gold.PLP.part.metal>
0.0000

> <Gold.PLP.part.buried>
-1.9285

> <Gold.PLP.part.nonpolar>
-41.5989

> <Gold.PLP.part.repulsive>
0.2865

> <Gold.PLP.ligand.clash>
0.0000

> <Gold.PLP.ligand.torsion>
0.6243

> <Gold.PLP.Chemscore.Hbond>
0.7500

> <Gold.PLP.Chemscore.CHOScore>
0.0000

> <Gold.PLP.Chemscore.Metal>
0.0000

> <Gold.Chemscore.Hbonds>
donor molecule, donor type, donor heavy atom, donor atom, acceptor molecule, acceptor atom, score
      P1  H  7997  8008       L1     6  0.65

> <Gold.PLP.Chemscore.Internal.Correction>
0.5817

> <Gold.Rescore>
     Score         DG    S(hbond)    S(metal)    S(lipo)     H(rot)  DE(clash)    DE(int)     intcor
     10.23     -15.30       0.71        0.00     100.10       1.66       1.85       3.22       ----

> <Gold.Chemscore.Fitness>
10.2254

> <Gold.Chemscore.DG>
-15.3032

> <Gold.Chemscore.ZeroCoef>
-5.4800

> <Gold.Chemscore.Hbond>
0.7055

> <Gold.Chemscore.Metal>
0.0000

> <Gold.Chemscore.Lipo>
100.0964

> <Gold.Chemscore.Internal_Hbond>
0.0000

> <Gold.Chemscore.DEClash>
1.8542

> <Gold.Chemscore.DEInternal>
3.2235

> <Gold.Chemscore.Rot>
1.6580

> <Gold.Chemscore.Internal.Correction>
   9.000000E+99

> <Gold.Chemscore.Hbonds>
donor molecule, donor type, donor heavy atom, donor atom, acceptor molecule, acceptor atom, score
      P1  H  7997  8008       L1     6  0.06

> <Gold.Chemscore.Hbond.Weighted>
-2.3565

> <Gold.Chemscore.Metal.Weighted>
-0.0000

> <Gold.Chemscore.Lipo.Weighted>
-11.7113

> <Gold.Chemscore.Internal_Hbond.Weighted>
0.0000

> <Gold.Chemscore.DEClash.Weighted>
1.8542

> <Gold.Chemscore.DEInternal.Weighted>
3.2235

> <Gold.Chemscore.Rot.Weighted>
4.2446

> <Gold.Chemscore.Internal.Correction.Weighted>
   9.000000E+99

> <Gold.Protein.RotatedTorsions>
[ 6907 6896 6895 6894 ] final  -88.13 input  -60.11 | X-H torsion
[ 7974 7965 7964 7962 ] final  -33.67 input  175.53 | X-H torsion
[ 8008 7997 7996 7995 ] final -100.96 input   59.86 | X-H torsion
[ 10167 10162 10161 10158 ] final   73.46 input  -65.29 | X-H torsion
[ 10718 10713 10712 10709 ] final -171.99 input   66.30 | X-H torsion
[ 10763 10752 10751 10750 ] final  -32.15 input  -60.55 | X-H torsion
[ 11005 11000 10999 10996 ] final  -19.53 input  -57.11 | X-H torsion

> <Gold.Protein.ActiveResidues>
 VAL166  LYS551  ARG553  GLY616  TRP617  ASP618  TYR619  PRO620  LYS621  CYS622 
 ASP623  PHE694  ASN695  SER759  ASP760  ASP761  ALA762  ILE779  LEU786  VAL792 
 PHE793  MET794  SER795  GLU796  ALA797  LYS798  CYS799  TRP800  GLU811  SER814 

> <Gold.Protein.RotatedAtoms>
  150.6868  134.2789  159.4618 H   0  0  0  0  0  0  0  0  0  0  0  0  # atno 6907 bound_to 6896
  152.0704  134.9534  160.0584 H   0  0  0  0  0  0  0  0  0  0  0  0  # atno 6908 bound_to 6896
  152.0926  133.4173  159.4588 H   0  0  0  0  0  0  0  0  0  0  0  0  # atno 6909 bound_to 6896
  146.0892  140.5944  142.8872 H   0  0  0  0  0  0  0  0  0  0  0  0  # atno 7974 bound_to 7965
  154.8359  140.0437  157.1508 H   0  0  0  0  0  0  0  0  0  0  0  0  # atno 8008 bound_to 7997
  154.9100  140.3012  155.5251 H   0  0  0  0  0  0  0  0  0  0  0  0  # atno 8009 bound_to 7997
  156.2990  140.2360  156.4139 H   0  0  0  0  0  0  0  0  0  0  0  0  # atno 8010 bound_to 7997
  140.0243  144.5516  150.7557 H   0  0  0  0  0  0  0  0  0  0  0  0  # atno 10167 bound_to 10162
  156.7490  130.9371  151.3114 H   0  0  0  0  0  0  0  0  0  0  0  0  # atno 10718 bound_to 10713
  153.8090  135.6884  153.4844 H   0  0  0  0  0  0  0  0  0  0  0  0  # atno 10763 bound_to 10752
  153.1640  135.4568  154.9810 H   0  0  0  0  0  0  0  0  0  0  0  0  # atno 10764 bound_to 10752
  154.7975  135.3325  154.7572 H   0  0  0  0  0  0  0  0  0  0  0  0  # atno 10765 bound_to 10752
  140.8376  133.7950  155.9825 H   0  0  0  0  0  0  0  0  0  0  0  0  # atno 11005 bound_to 11000
  144.7348  140.4776  143.6912 LP  0  0  0  0  0  0  0  0  0  0  0  0  # atno 17320 bound_to 7965
  145.6071  139.1509  143.3096 LP  0  0  0  0  0  0  0  0  0  0  0  0  # atno 17321 bound_to 7965
  140.7329  143.2711  151.3885 LP  0  0  0  0  0  0  0  0  0  0  0  0  # atno 17342 bound_to 10162
  139.6119  144.1082  152.2307 LP  0  0  0  0  0  0  0  0  0  0  0  0  # atno 17343 bound_to 10162
  157.6785  130.9117  150.0209 LP  0  0  0  0  0  0  0  0  0  0  0  0  # atno 17370 bound_to 10713
  156.1414  130.3642  149.9577 LP  0  0  0  0  0  0  0  0  0  0  0  0  # atno 17371 bound_to 10713
  140.8931  134.2471  157.5084 LP  0  0  0  0  0  0  0  0  0  0  0  0  # atno 17394 bound_to 11000
  139.8704  134.9671  156.4584 LP  0  0  0  0  0  0  0  0  0  0  0  0  # atno 17395 bound_to 11000

$$$$
