AV-unprocessed.smi:646|AV-procd|sdf|3168|dock9
  -GOLD-   22720 0 93D 1   1.00000     0.00000
 Structure written by MMmdl.
 44 45  0  0  0  0  0  0  0  0  1 V2000
  144.2897  132.7298  148.6952 C   0  0  0  0  0  0  0  0  0  0  0  0
  144.6946  132.4206  150.0225 O   0  0  0  0  0  0  0  0  0  0  0  0
  145.3831  133.4517  150.7317 C   0  0  2  0  0  0  0  0  0  0  0  0
  144.5889  134.7648  150.6517 C   0  0  0  0  0  0  0  0  0  0  0  0
  146.8836  133.4948  150.3882 C   0  0  0  0  0  0  0  0  0  0  0  0
  147.1309  133.6665  151.8854 C   0  0  2  0  0  0  0  0  0  0  0  0
  148.3248  132.9654  152.3409 N   0  0  0  0  0  0  0  0  0  0  0  0
  148.7257  132.9001  153.6191 C   0  0  0  0  0  0  0  0  0  0  0  0
  148.1650  133.4967  154.5379 O   0  0  0  0  0  0  0  0  0  0  0  0
  149.9284  132.0024  153.9084 C   0  0  0  0  0  0  0  0  0  0  0  0
  150.2206  132.0155  155.3878 C   0  0  0  0  0  0  0  0  0  0  0  0
  150.4568  130.9020  156.2444 C   0  0  0  0  0  0  0  0  0  0  0  0
  150.4720  129.4419  155.8939 C   0  0  0  0  0  0  0  0  0  0  0  0
  150.7006  131.2785  157.4884 N   0  0  0  0  0  0  0  0  0  0  0  0
  150.6279  132.6748  157.4872 O   0  0  0  0  0  0  0  0  0  0  0  0
  150.3432  133.0890  156.2265 C   0  0  0  0  0  0  0  0  0  0  0  0
  150.2318  134.5607  156.0153 C   0  0  0  0  0  0  0  0  0  0  0  0
  145.8025  132.9065  152.1357 C   0  0  0  0  0  0  0  0  0  0  0  0
  144.9769  133.3806  153.3357 C   0  0  0  0  0  0  0  0  0  0  0  0
  145.8942  131.3717  152.2692 C   0  0  0  0  0  0  0  0  0  0  0  0
  143.8682  131.8364  148.2351 H   0  0  0  0  0  0  0  0  0  0  0  0
  145.1268  133.0544  148.0770 H   0  0  0  0  0  0  0  0  0  0  0  0
  143.5177  133.4984  148.6736 H   0  0  0  0  0  0  0  0  0  0  0  0
  145.0141  135.5362  151.2936 H   0  0  0  0  0  0  0  0  0  0  0  0
  143.5528  134.6203  150.9580 H   0  0  0  0  0  0  0  0  0  0  0  0
  144.5827  135.1758  149.6427 H   0  0  0  0  0  0  0  0  0  0  0  0
  147.2688  132.5566  149.9841 H   0  0  0  0  0  0  0  0  0  0  0  0
  147.1887  134.3461  149.7793 H   0  0  0  0  0  0  0  0  0  0  0  0
  147.0898  134.7156  152.1874 H   0  0  0  0  0  0  0  0  0  0  0  0
  148.8437  132.4433  151.6500 H   0  0  0  0  0  0  0  0  0  0  0  0
  149.7126  130.9961  153.5485 H   0  0  0  0  0  0  0  0  0  0  0  0
  150.7862  132.3531  153.3335 H   0  0  0  0  0  0  0  0  0  0  0  0
  149.6490  129.1923  155.2242 H   0  0  0  0  0  0  0  0  0  0  0  0
  150.3782  128.8132  156.7800 H   0  0  0  0  0  0  0  0  0  0  0  0
  151.4013  129.1738  155.3907 H   0  0  0  0  0  0  0  0  0  0  0  0
  150.5592  134.8359  155.0126 H   0  0  0  0  0  0  0  0  0  0  0  0
  150.8480  135.1062  156.7306 H   0  0  0  0  0  0  0  0  0  0  0  0
  149.1995  134.8892  156.1368 H   0  0  0  0  0  0  0  0  0  0  0  0
  145.3892  133.0138  154.2764 H   0  0  0  0  0  0  0  0  0  0  0  0
  143.9451  133.0339  153.2702 H   0  0  0  0  0  0  0  0  0  0  0  0
  144.9508  134.4674  153.4100 H   0  0  0  0  0  0  0  0  0  0  0  0
  146.3658  131.0753  153.2067 H   0  0  0  0  0  0  0  0  0  0  0  0
  146.4744  130.9187  151.4653 H   0  0  0  0  0  0  0  0  0  0  0  0
  144.9063  130.9106  152.2478 H   0  0  0  0  0  0  0  0  0  0  0  0
  1  2  1  0  0  0  0
  1 21  1  0  0  0  0
  1 22  1  0  0  0  0
  1 23  1  0  0  0  0
  2  3  1  0  0  0  0
  3 18  1  0  0  0  0
  3  4  1  0  0  0  0
  3  5  1  0  0  0  0
  4 24  1  0  0  0  0
  4 25  1  0  0  0  0
  4 26  1  0  0  0  0
  5  6  1  0  0  0  0
  5 27  1  0  0  0  0
  5 28  1  0  0  0  0
  6  7  1  0  0  0  0
  6 18  1  0  0  0  0
  6 29  1  0  0  0  0
  7  8  1  0  0  0  0
  7 30  1  0  0  0  0
  8  9  2  0  0  0  0
  8 10  1  0  0  0  0
 10 11  1  0  0  0  0
 10 31  1  0  0  0  0
 10 32  1  0  0  0  0
 11 16  2  0  0  0  0
 11 12  1  0  0  0  0
 12 13  1  0  0  0  0
 12 14  2  0  0  0  0
 13 33  1  0  0  0  0
 13 34  1  0  0  0  0
 13 35  1  0  0  0  0
 14 15  1  0  0  0  0
 15 16  1  0  0  0  0
 16 17  1  0  0  0  0
 17 36  1  0  0  0  0
 17 37  1  0  0  0  0
 17 38  1  0  0  0  0
 18 19  1  0  0  0  0
 18 20  1  0  0  0  0
 19 39  1  0  0  0  0
 19 40  1  0  0  0  0
 19 41  1  0  0  0  0
 20 42  1  0  0  0  0
 20 43  1  0  0  0  0
 20 44  1  0  0  0  0
M  END
> <s_m_source_file>
AV-unprocessed.smi

> <i_m_source_file_index>
646

> <i_lp_mmshare_version>
43012

> <i_f3d_flags>
0

> <s_epik_input>
W0NIM11PW0NAQF0xKFtDSDNdKVtDSDJdW0NASF0oQzEoW0NIM10pW0NIM10pW05IXUMoPU8pW0NIMl1jMmMoW0NIM10pbm9jMltDSDNd

> <s_epik_cmdline>
J2VwaWtfcHl0aG9uJywgJy1waCcsICc3LjAnLCAnLXRuJywgJzgnLCAnLW1hJywgJzIwMCcsICctbWV0YWxfYmluZGluZycsICctaW1hZScsICc8aW5maWxlLm1hZT4nLCAnLW9tYWUnLCAnPG91dGZpbGUubWFlPic=

> <r_lp_tautomer_probability>
1

> <r_epik_Ionization_Penalty>
2.13169e-08

> <r_epik_Ionization_Penalty_Charging>
0

> <r_epik_Ionization_Penalty_Neutral>
2.13169e-08

> <r_epik_State_Penalty>
-0

> <r_epik_Charging_Adjusted_Penalty>
0

> <i_epik_Tot_Q>
0

> <i_epik_Tot_abs_Q>
0

> <r_epik_Metal_State_Penalty>
-0

> <b_epik_Metal_Only>
0

> <s_lp_Force_Field>
OPLS_2005

> <r_lp_Energy>
15.4726

> <b_lp_Chiralities_Consistent>
1

> <s_lp_Variant>
AV-unprocessed.smi:646-4

> <Gold.Version>
5.8.1

> <Gold.Id.Protein>
6NUR|6NUR_protein|mol2

> <Gold.PLP.Fitness>
35.5876

> <Gold.PLP.PLP>
-30.2048

> <Gold.PLP.part.hbond>
-2.0000

> <Gold.PLP.part.metal>
0.0000

> <Gold.PLP.part.buried>
-4.6455

> <Gold.PLP.part.nonpolar>
-22.4432

> <Gold.PLP.part.repulsive>
0.2266

> <Gold.PLP.ligand.clash>
0.0000

> <Gold.PLP.ligand.torsion>
0.3914

> <Gold.PLP.Chemscore.Hbond>
1.9280

> <Gold.PLP.Chemscore.CHOScore>
0.0000

> <Gold.PLP.Chemscore.Metal>
0.0000

> <Gold.Chemscore.Hbonds>
donor molecule, donor type, donor heavy atom, donor atom, acceptor molecule, acceptor atom, score
      L1  H     7    30       P1 10747  0.88
      P1  H  6896  6907       L1    15  0.77

> <Gold.PLP.Chemscore.Internal.Correction>
0.3816

> <Gold.Rescore>
     Score         DG    S(hbond)    S(metal)    S(lipo)     H(rot)  DE(clash)    DE(int)     intcor
     13.21     -15.60       1.61        0.00      73.14       1.49       0.80       1.59       ----

> <Gold.Chemscore.Fitness>
13.2106

> <Gold.Chemscore.DG>
-15.5961

> <Gold.Chemscore.ZeroCoef>
-5.4800

> <Gold.Chemscore.Hbond>
1.6108

> <Gold.Chemscore.Metal>
0.0000

> <Gold.Chemscore.Lipo>
73.1418

> <Gold.Chemscore.Internal_Hbond>
0.0000

> <Gold.Chemscore.DEClash>
0.7997

> <Gold.Chemscore.DEInternal>
1.5859

> <Gold.Chemscore.Rot>
1.4928

> <Gold.Chemscore.Internal.Correction>
   9.000000E+99

> <Gold.Chemscore.Hbonds>
donor molecule, donor type, donor heavy atom, donor atom, acceptor molecule, acceptor atom, score
      L1  H     7    30       P1 10747  0.80
      P1  H  6896  6907       L1    15  0.45

> <Gold.Chemscore.Hbond.Weighted>
-5.3802

> <Gold.Chemscore.Metal.Weighted>
-0.0000

> <Gold.Chemscore.Lipo.Weighted>
-8.5576

> <Gold.Chemscore.Internal_Hbond.Weighted>
0.0000

> <Gold.Chemscore.DEClash.Weighted>
0.7997

> <Gold.Chemscore.DEInternal.Weighted>
1.5859

> <Gold.Chemscore.Rot.Weighted>
3.8217

> <Gold.Chemscore.Internal.Correction.Weighted>
   9.000000E+99

> <Gold.Protein.RotatedTorsions>
[ 6907 6896 6895 6894 ] final -172.99 input  -60.11 | X-H torsion
[ 7974 7965 7964 7962 ] final   44.58 input  175.53 | X-H torsion
[ 8008 7997 7996 7995 ] final  135.32 input   59.86 | X-H torsion
[ 10167 10162 10161 10158 ] final   18.25 input  -65.29 | X-H torsion
[ 10718 10713 10712 10709 ] final   99.14 input   66.30 | X-H torsion
[ 10763 10752 10751 10750 ] final   68.82 input  -60.55 | X-H torsion
[ 11005 11000 10999 10996 ] final -110.76 input  -57.11 | X-H torsion

> <Gold.Protein.ActiveResidues>
 VAL166  LYS551  ARG553  GLY616  TRP617  ASP618  TYR619  PRO620  LYS621  CYS622 
 ASP623  PHE694  ASN695  SER759  ASP760  ASP761  ALA762  ILE779  LEU786  VAL792 
 PHE793  MET794  SER795  GLU796  ALA797  LYS798  CYS799  TRP800  GLU811  SER814 

> <Gold.Protein.RotatedAtoms>
  151.5489  133.3420  159.2948 H   0  0  0  0  0  0  0  0  0  0  0  0  # atno 6907 bound_to 6896
  150.8491  134.7812  159.7005 H   0  0  0  0  0  0  0  0  0  0  0  0  # atno 6908 bound_to 6896
  152.4541  134.5337  159.9870 H   0  0  0  0  0  0  0  0  0  0  0  0  # atno 6909 bound_to 6896
  146.0556  139.5059  142.9690 H   0  0  0  0  0  0  0  0  0  0  0  0  # atno 7974 bound_to 7965
  156.3002  140.2473  156.3562 H   0  0  0  0  0  0  0  0  0  0  0  0  # atno 8008 bound_to 7997
  154.8919  140.0409  157.1863 H   0  0  0  0  0  0  0  0  0  0  0  0  # atno 8009 bound_to 7997
  154.8589  140.2917  155.5555 H   0  0  0  0  0  0  0  0  0  0  0  0  # atno 8010 bound_to 7997
  140.5667  143.9238  150.6682 H   0  0  0  0  0  0  0  0  0  0  0  0  # atno 10167 bound_to 10162
  157.6882  131.0661  150.4904 H   0  0  0  0  0  0  0  0  0  0  0  0  # atno 10718 bound_to 10713
  153.0255  135.5233  154.7194 H   0  0  0  0  0  0  0  0  0  0  0  0  # atno 10763 bound_to 10752
  154.6253  135.2894  155.0281 H   0  0  0  0  0  0  0  0  0  0  0  0  # atno 10764 bound_to 10752
  154.1253  135.6601  153.4963 H   0  0  0  0  0  0  0  0  0  0  0  0  # atno 10765 bound_to 10752
  141.0773  133.9279  157.2362 H   0  0  0  0  0  0  0  0  0  0  0  0  # atno 11005 bound_to 11000
  145.6649  141.0231  143.1689 LP  0  0  0  0  0  0  0  0  0  0  0  0  # atno 17320 bound_to 7965
  144.7146  139.8243  143.7403 LP  0  0  0  0  0  0  0  0  0  0  0  0  # atno 17321 bound_to 7965
  140.2702  143.3461  152.1244 LP  0  0  0  0  0  0  0  0  0  0  0  0  # atno 17342 bound_to 10162
  139.5096  144.6871  151.5859 LP  0  0  0  0  0  0  0  0  0  0  0  0  # atno 17343 bound_to 10162
  156.5230  130.4166  149.6240 LP  0  0  0  0  0  0  0  0  0  0  0  0  # atno 17370 bound_to 10713
  156.3137  130.7243  151.2141 LP  0  0  0  0  0  0  0  0  0  0  0  0  # atno 17371 bound_to 10713
  139.9586  135.0159  156.9198 LP  0  0  0  0  0  0  0  0  0  0  0  0  # atno 17394 bound_to 11000
  140.5544  134.0595  155.7379 LP  0  0  0  0  0  0  0  0  0  0  0  0  # atno 17395 bound_to 11000

$$$$
