AV-unprocessed.smi:1436|AV-procd|sdf|5859|dock6
  -GOLD-   22720 5533D 1   1.00000     0.00000
 Structure written by MMmdl.
 43 44  0  0  0  0  0  0  0  0  1 V2000
  147.0090  141.2885  154.3347 C   0  0  0  0  0  0  0  0  0  0  0  0
  148.3721  140.6601  154.3743 C   0  0  0  0  0  0  0  0  0  0  0  0
  149.4430  141.4354  154.3696 N   0  0  0  0  0  0  0  0  0  0  0  0
  150.5410  140.5709  154.3876 O   0  0  0  0  0  0  0  0  0  0  0  0
  150.0834  139.2936  154.3995 C   0  0  0  0  0  0  0  0  0  0  0  0
  151.1197  138.2215  154.3958 C   0  0  0  0  0  0  0  0  0  0  0  0
  148.7149  139.2768  154.3942 C   0  0  0  0  0  0  0  0  0  0  0  0
  147.7818  138.0903  154.3833 C   0  0  0  0  0  0  0  0  0  0  0  0
  148.3955  136.9489  155.1946 C   0  0  0  0  0  0  0  0  0  0  0  0
  148.4828  137.0391  156.4188 O   0  0  0  0  0  0  0  0  0  0  0  0
  148.7931  135.8719  154.4988 N   0  0  0  0  0  0  0  0  0  0  0  0
  149.2817  134.6192  155.0671 C   0  0  2  0  0  0  0  0  0  0  0  0
  150.4681  134.8857  156.0057 C   0  0  0  0  0  0  0  0  0  0  0  0
  149.5885  133.5563  153.9813 C   0  0  0  0  0  0  0  0  0  0  0  0
  150.1214  132.2665  154.4358 N   0  0  0  0  0  0  0  0  0  0  0  0
  149.9752  131.2568  153.3913 C   0  0  0  0  0  0  0  0  0  0  0  0
  150.5255  129.8877  153.8249 C   0  0  0  0  0  0  0  0  0  0  0  0
  151.8935  130.0224  154.1933 O   0  0  0  0  0  0  0  0  0  0  0  0
  152.0841  130.9599  155.2468 C   0  0  0  0  0  0  0  0  0  0  0  0
  151.5279  132.3320  154.8301 C   0  0  0  0  0  0  0  0  0  0  0  0
  146.7174  141.5164  153.3093 H   0  0  0  0  0  0  0  0  0  0  0  0
  146.9809  142.2174  154.9051 H   0  0  0  0  0  0  0  0  0  0  0  0
  146.2537  140.6234  154.7531 H   0  0  0  0  0  0  0  0  0  0  0  0
  151.7603  138.3119  153.5185 H   0  0  0  0  0  0  0  0  0  0  0  0
  150.6656  137.2311  154.3780 H   0  0  0  0  0  0  0  0  0  0  0  0
  151.7490  138.2891  155.2832 H   0  0  0  0  0  0  0  0  0  0  0  0
  146.8071  138.3367  154.8049 H   0  0  0  0  0  0  0  0  0  0  0  0
  147.5911  137.7467  153.3660 H   0  0  0  0  0  0  0  0  0  0  0  0
  148.6855  135.8982  153.4953 H   0  0  0  0  0  0  0  0  0  0  0  0
  148.4758  134.2202  155.6859 H   0  0  0  0  0  0  0  0  0  0  0  0
  150.8220  133.9599  156.4599 H   0  0  0  0  0  0  0  0  0  0  0  0
  150.1846  135.5617  156.8132 H   0  0  0  0  0  0  0  0  0  0  0  0
  151.3063  135.3383  155.4750 H   0  0  0  0  0  0  0  0  0  0  0  0
  148.6450  133.3657  153.4678 H   0  0  0  0  0  0  0  0  0  0  0  0
  150.2450  133.9782  153.2188 H   0  0  0  0  0  0  0  0  0  0  0  0
  148.9233  131.1503  153.1241 H   0  0  0  0  0  0  0  0  0  0  0  0
  150.4941  131.5815  152.4879 H   0  0  0  0  0  0  0  0  0  0  0  0
  149.9520  129.4868  154.6620 H   0  0  0  0  0  0  0  0  0  0  0  0
  150.4452  129.1705  153.0078 H   0  0  0  0  0  0  0  0  0  0  0  0
  151.5912  130.6040  156.1527 H   0  0  0  0  0  0  0  0  0  0  0  0
  153.1484  131.0363  155.4702 H   0  0  0  0  0  0  0  0  0  0  0  0
  152.1249  132.7298  154.0083 H   0  0  0  0  0  0  0  0  0  0  0  0
  151.6536  133.0094  155.6719 H   0  0  0  0  0  0  0  0  0  0  0  0
  1  2  1  0  0  0  0
  1 21  1  0  0  0  0
  1 22  1  0  0  0  0
  1 23  1  0  0  0  0
  2  7  1  0  0  0  0
  2  3  2  0  0  0  0
  3  4  1  0  0  0  0
  4  5  1  0  0  0  0
  5  6  1  0  0  0  0
  5  7  2  0  0  0  0
  6 24  1  0  0  0  0
  6 25  1  0  0  0  0
  6 26  1  0  0  0  0
  7  8  1  0  0  0  0
  8  9  1  0  0  0  0
  8 27  1  0  0  0  0
  8 28  1  0  0  0  0
  9 10  2  0  0  0  0
  9 11  1  0  0  0  0
 11 12  1  0  0  0  0
 11 29  1  0  0  0  0
 12 13  1  0  0  0  0
 12 14  1  0  0  0  0
 12 30  1  0  0  0  0
 13 31  1  0  0  0  0
 13 32  1  0  0  0  0
 13 33  1  0  0  0  0
 14 15  1  0  0  0  0
 14 34  1  0  0  0  0
 14 35  1  0  0  0  0
 15 20  1  0  0  0  0
 15 16  1  0  0  0  0
 16 17  1  0  0  0  0
 16 36  1  0  0  0  0
 16 37  1  0  0  0  0
 17 18  1  0  0  0  0
 17 38  1  0  0  0  0
 17 39  1  0  0  0  0
 18 19  1  0  0  0  0
 19 20  1  0  0  0  0
 19 40  1  0  0  0  0
 19 41  1  0  0  0  0
 20 42  1  0  0  0  0
 20 43  1  0  0  0  0
M  END
> <s_m_source_file>
AV-unprocessed.smi

> <i_m_source_file_index>
1436

> <i_lp_mmshare_version>
43012

> <i_f3d_flags>
0

> <s_epik_input>
W0NIM11jMW5vYyhbQ0gzXSljMVtDSDJdQyg9TylbTkhdW0NASF0oW0NIM10pW0NIMl1OMltDSDJdW0NIMl1PW0NIMl1bQ0gyXTI=

> <s_epik_cmdline>
J2VwaWtfcHl0aG9uJywgJy1waCcsICc3LjAnLCAnLXRuJywgJzgnLCAnLW1hJywgJzIwMCcsICctbWV0YWxfYmluZGluZycsICctaW1hZScsICc8aW5maWxlLm1hZT4nLCAnLW9tYWUnLCAnPG91dGZpbGUubWFlPic=

> <r_epik_Ionization_Penalty>
0.234179

> <r_epik_Ionization_Penalty_Charging>
0

> <r_epik_Ionization_Penalty_Neutral>
0.234179

> <r_epik_State_Penalty>
0.224936

> <r_epik_Charging_Adjusted_Penalty>
0.224936

> <i_epik_Tot_Q>
0

> <i_epik_Tot_abs_Q>
0

> <r_epik_Metal_State_Penalty>
0.224936

> <b_epik_Metal_Only>
0

> <s_lp_Force_Field>
OPLS_2005

> <r_lp_Energy>
20.5604

> <b_lp_Chiralities_Consistent>
1

> <s_lp_Variant>
AV-unprocessed.smi:1436-1

> <Gold.Version>
5.8.1

> <Gold.Id.Protein>
6NUR|6NUR_protein|mol2

> <Gold.PLP.Fitness>
37.7294

> <Gold.PLP.PLP>
-31.3856

> <Gold.PLP.part.hbond>
-3.6689

> <Gold.PLP.part.metal>
0.0000

> <Gold.PLP.part.buried>
-3.1773

> <Gold.PLP.part.nonpolar>
-23.9659

> <Gold.PLP.part.repulsive>
0.3875

> <Gold.PLP.ligand.clash>
0.0000

> <Gold.PLP.ligand.torsion>
0.6042

> <Gold.PLP.Chemscore.Hbond>
2.4994

> <Gold.PLP.Chemscore.CHOScore>
0.0000

> <Gold.PLP.Chemscore.Metal>
0.0000

> <Gold.Chemscore.Hbonds>
donor molecule, donor type, donor heavy atom, donor atom, acceptor molecule, acceptor atom, score
      L1  H    11    29       P1  7948  1.00
      P1  H  7989  7998       L1     4  0.72
      P1  H  8011  8017       L1     3  0.22

> <Gold.PLP.Chemscore.Internal.Correction>
0.0538

> <Gold.Rescore>
     Score         DG    S(hbond)    S(metal)    S(lipo)     H(rot)  DE(clash)    DE(int)     intcor
     13.70     -15.39       1.77        0.00      71.68       1.71       0.05       1.65       ----

> <Gold.Chemscore.Fitness>
13.6966

> <Gold.Chemscore.DG>
-15.3916

> <Gold.Chemscore.ZeroCoef>
-5.4800

> <Gold.Chemscore.Hbond>
1.7707

> <Gold.Chemscore.Metal>
0.0000

> <Gold.Chemscore.Lipo>
71.6793

> <Gold.Chemscore.Internal_Hbond>
0.0000

> <Gold.Chemscore.DEClash>
0.0462

> <Gold.Chemscore.DEInternal>
1.6488

> <Gold.Chemscore.Rot>
1.7145

> <Gold.Chemscore.Internal.Correction>
   9.000000E+99

> <Gold.Chemscore.Hbonds>
donor molecule, donor type, donor heavy atom, donor atom, acceptor molecule, acceptor atom, score
      L1  H    11    29       P1  7948  0.99
      P1  H  7989  7998       L1     4  0.61
      P1  H  8011  8017       L1     3  0.04

> <Gold.Chemscore.Hbond.Weighted>
-5.9142

> <Gold.Chemscore.Metal.Weighted>
-0.0000

> <Gold.Chemscore.Lipo.Weighted>
-8.3865

> <Gold.Chemscore.Internal_Hbond.Weighted>
0.0000

> <Gold.Chemscore.DEClash.Weighted>
0.0462

> <Gold.Chemscore.DEInternal.Weighted>
1.6488

> <Gold.Chemscore.Rot.Weighted>
4.3891

> <Gold.Chemscore.Internal.Correction.Weighted>
   9.000000E+99

> <Gold.Protein.RotatedTorsions>
[ 6907 6896 6895 6894 ] final  -50.55 input  -60.11 | X-H torsion
[ 7974 7965 7964 7962 ] final   39.97 input  175.53 | X-H torsion
[ 8008 7997 7996 7995 ] final  -68.45 input   59.86 | X-H torsion
[ 10167 10162 10161 10158 ] final  -91.00 input  -65.29 | X-H torsion
[ 10718 10713 10712 10709 ] final -128.12 input   66.30 | X-H torsion
[ 10763 10752 10751 10750 ] final  118.00 input  -60.55 | X-H torsion
[ 11005 11000 10999 10996 ] final   -2.08 input  -57.11 | X-H torsion

> <Gold.Protein.ActiveResidues>
 VAL166  LYS551  ARG553  GLY616  TRP617  ASP618  TYR619  PRO620  LYS621  CYS622 
 ASP623  PHE694  ASN695  SER759  ASP760  ASP761  ALA762  ILE779  LEU786  VAL792 
 PHE793  MET794  SER795  GLU796  ALA797  LYS798  CYS799  TRP800  GLU811  SER814 

> <Gold.Protein.RotatedAtoms>
  150.8696  134.8067  159.7144 H   0  0  0  0  0  0  0  0  0  0  0  0  # atno 6907 bound_to 6896
  152.4706  134.4967  159.9722 H   0  0  0  0  0  0  0  0  0  0  0  0  # atno 6908 bound_to 6896
  151.5058  133.3456  159.2912 H   0  0  0  0  0  0  0  0  0  0  0  0  # atno 6909 bound_to 6896
  146.0942  139.5588  142.9456 H   0  0  0  0  0  0  0  0  0  0  0  0  # atno 7974 bound_to 7965
  154.4869  140.0872  156.7506 H   0  0  0  0  0  0  0  0  0  0  0  0  # atno 8008 bound_to 7997
  155.4328  140.3450  155.4263 H   0  0  0  0  0  0  0  0  0  0  0  0  # atno 8009 bound_to 7997
  156.1274  140.1491  156.9104 H   0  0  0  0  0  0  0  0  0  0  0  0  # atno 8010 bound_to 7997
  140.3493  143.2900  151.9745 H   0  0  0  0  0  0  0  0  0  0  0  0  # atno 10167 bound_to 10162
  156.1921  130.6802  151.0437 H   0  0  0  0  0  0  0  0  0  0  0  0  # atno 10718 bound_to 10713
  153.5609  135.3521  155.2799 H   0  0  0  0  0  0  0  0  0  0  0  0  # atno 10763 bound_to 10752
  154.8695  135.4136  154.2831 H   0  0  0  0  0  0  0  0  0  0  0  0  # atno 10764 bound_to 10752
  153.3577  135.7058  153.6806 H   0  0  0  0  0  0  0  0  0  0  0  0  # atno 10765 bound_to 10752
  140.6544  133.9375  155.8399 H   0  0  0  0  0  0  0  0  0  0  0  0  # atno 11005 bound_to 11000
  145.5981  141.0359  143.2033 LP  0  0  0  0  0  0  0  0  0  0  0  0  # atno 17320 bound_to 7965
  144.7382  139.7523  143.7321 LP  0  0  0  0  0  0  0  0  0  0  0  0  # atno 17321 bound_to 7965
  139.4829  144.6090  151.7469 LP  0  0  0  0  0  0  0  0  0  0  0  0  # atno 17342 bound_to 10162
  140.5234  144.0843  150.6030 LP  0  0  0  0  0  0  0  0  0  0  0  0  # atno 17343 bound_to 10162
  157.6935  131.0802  150.7037 LP  0  0  0  0  0  0  0  0  0  0  0  0  # atno 17370 bound_to 10713
  156.7094  130.4647  149.5551 LP  0  0  0  0  0  0  0  0  0  0  0  0  # atno 17371 bound_to 10713
  141.0512  134.0482  157.3781 LP  0  0  0  0  0  0  0  0  0  0  0  0  # atno 17394 bound_to 11000
  139.9034  135.0172  156.7377 LP  0  0  0  0  0  0  0  0  0  0  0  0  # atno 17395 bound_to 11000

$$$$
