AV-unprocessed.smi:2999|AV-procd|sdf|11424|dock3
  -GOLD-   2272016343D 1   1.00000     0.00000
 Structure written by MMmdl.
 36 38  0  0  0  0  0  0  0  0  2 V2000
  150.3828  137.0953  159.5439 O   0  0  0  0  0  0  0  0  0  0  0  0
  149.1604  136.9581  159.4534 C   0  0  0  0  0  0  0  0  0  0  0  0
  148.6255  136.4894  158.3183 N   0  0  0  0  0  0  0  0  0  0  0  0
  149.3812  136.1095  157.1317 C   0  0  0  0  0  0  0  0  0  0  0  0
  149.6901  137.3367  156.2627 C   0  0  1  0  0  0  0  0  0  0  0  0
  150.2775  138.4938  157.0947 C   0  0  0  0  0  0  0  0  0  0  0  0
  150.6280  139.6395  156.2641 N   0  0  0  0  0  0  0  0  0  0  0  0
  151.1960  140.7117  157.0676 C   0  0  0  0  0  0  0  0  0  0  0  0
  150.3827  141.3096  158.1865 C   0  0  0  0  0  0  0  0  0  0  0  0
  150.6530  142.1102  156.9257 C   0  0  0  0  0  0  0  0  0  0  0  0
  151.5640  139.2029  155.2356 C   0  0  0  0  0  0  0  0  0  0  0  0
  150.9922  138.0443  154.4011 C   0  0  0  0  0  0  0  0  0  0  0  0
  150.6402  136.9675  155.2642 O   0  0  0  0  0  0  0  0  0  0  0  0
  148.2489  137.2403  160.4121 N   0  5  0  0  0  0  0  0  0  0  0  0
  147.7408  136.2515  161.1658 C   0  0  0  0  0  0  0  0  0  0  0  0
  147.8952  134.9554  160.8706 N   0  0  0  0  0  0  0  0  0  0  0  0
  147.2824  134.1003  161.7885 C   0  0  0  0  0  0  0  0  0  0  0  0
  146.6371  134.7609  162.8002 C   0  0  0  0  0  0  0  0  0  0  0  0
  146.7821  136.4872  162.6300 S   0  0  0  0  0  0  0  0  0  0  0  0
  147.6221  136.3852  158.2787 H   0  0  0  0  0  0  0  0  0  0  0  0
  150.3141  135.6357  157.4415 H   0  0  0  0  0  0  0  0  0  0  0  0
  148.8174  135.3701  156.5610 H   0  0  0  0  0  0  0  0  0  0  0  0
  148.7712  137.6720  155.7774 H   0  0  0  0  0  0  0  0  0  0  0  0
  149.5535  138.7988  157.8511 H   0  0  0  0  0  0  0  0  0  0  0  0
  151.1597  138.1424  157.6328 H   0  0  0  0  0  0  0  0  0  0  0  0
  152.2670  140.5908  157.2235 H   0  0  0  0  0  0  0  0  0  0  0  0
  149.3714  140.9366  158.3368 H   0  0  0  0  0  0  0  0  0  0  0  0
  150.9127  141.6013  159.0909 H   0  0  0  0  0  0  0  0  0  0  0  0
  151.3611  142.9334  156.9948 H   0  0  0  0  0  0  0  0  0  0  0  0
  149.8194  142.2665  156.2434 H   0  0  0  0  0  0  0  0  0  0  0  0
  151.8074  140.0387  154.5787 H   0  0  0  0  0  0  0  0  0  0  0  0
  152.5010  138.8854  155.6961 H   0  0  0  0  0  0  0  0  0  0  0  0
  150.1168  138.3683  153.8364 H   0  0  0  0  0  0  0  0  0  0  0  0
  151.7300  137.6961  153.6782 H   0  0  0  0  0  0  0  0  0  0  0  0
  147.3554  133.0328  161.6426 H   0  0  0  0  0  0  0  0  0  0  0  0
  146.0884  134.3412  163.6299 H   0  0  0  0  0  0  0  0  0  0  0  0
  1  2  2  0  0  0  0
  2  3  1  0  0  0  0
  2 14  1  0  0  0  0
  3  4  1  0  0  0  0
  3 20  1  0  0  0  0
  4  5  1  0  0  0  0
  4 21  1  0  0  0  0
  4 22  1  0  0  0  0
  5 13  1  0  0  0  0
  5  6  1  0  0  0  0
  5 23  1  0  0  0  0
  6  7  1  0  0  0  0
  6 24  1  0  0  0  0
  6 25  1  0  0  0  0
  7  8  1  0  0  0  0
  7 11  1  0  0  0  0
  8 10  1  0  0  0  0
  8  9  1  0  0  0  0
  8 26  1  0  0  0  0
  9 10  1  0  0  0  0
  9 27  1  0  0  0  0
  9 28  1  0  0  0  0
 10 29  1  0  0  0  0
 10 30  1  0  0  0  0
 11 12  1  0  0  0  0
 11 31  1  0  0  0  0
 11 32  1  0  0  0  0
 12 13  1  0  0  0  0
 12 33  1  0  0  0  0
 12 34  1  0  0  0  0
 14 15  1  0  0  0  0
 15 19  1  0  0  0  0
 15 16  2  0  0  0  0
 16 17  1  0  0  0  0
 17 18  2  0  0  0  0
 17 35  1  0  0  0  0
 18 19  1  0  0  0  0
 18 36  1  0  0  0  0
M  CHG  1  14  -1
M  END
> <s_m_source_file>
AV-unprocessed.smi

> <i_m_source_file_index>
2999

> <i_lp_mmshare_version>
43012

> <i_f3d_flags>
0

> <s_epik_input>
czFbY0hdW2NIXW5jMVtOSF1DKD1PKVtOSF1bQ0gyXVtDQEBIXTJbQ0gyXU4oW0NIMl1bQ0gyXU8yKVtDSF0zW0NIMl1bQ0gyXTM=

> <s_epik_cmdline>
J2VwaWtfcHl0aG9uJywgJy1waCcsICc3LjAnLCAnLXRuJywgJzgnLCAnLW1hJywgJzIwMCcsICctbWV0YWxfYmluZGluZycsICctaW1hZScsICc8aW5maWxlLm1hZT4nLCAnLW9tYWUnLCAnPG91dGZpbGUubWFlPic=

> <r_lp_tautomer_probability>
0.999

> <r_epik_Ionization_Penalty>
6.67591

> <r_epik_Ionization_Penalty_Charging>
5.6519

> <r_epik_Ionization_Penalty_Neutral>
1.024

> <r_epik_State_Penalty>
5.68985

> <r_epik_Charging_Adjusted_Penalty>
11.3418

> <i_epik_Tot_Q>
-1

> <i_epik_Tot_abs_Q>
1

> <r_epik_Metal_State_Penalty>
1.67789

> <b_epik_Metal_Only>
1

> <s_lp_Force_Field>
OPLS_2005

> <r_lp_Energy>
26.9989

> <b_lp_Chiralities_Consistent>
1

> <s_lp_Variant>
AV-unprocessed.smi:2999-8

> <Gold.Version>
5.8.1

> <Gold.Id.Protein>
6NUR|6NUR_protein|mol2

> <Gold.PLP.Fitness>
39.3949

> <Gold.PLP.PLP>
-32.0162

> <Gold.PLP.part.hbond>
-3.0000

> <Gold.PLP.part.metal>
0.0000

> <Gold.PLP.part.buried>
-5.3513

> <Gold.PLP.part.nonpolar>
-25.2610

> <Gold.PLP.part.repulsive>
0.2113

> <Gold.PLP.ligand.clash>
0.0000

> <Gold.PLP.ligand.torsion>
1.6862

> <Gold.PLP.Chemscore.Hbond>
3.2031

> <Gold.PLP.Chemscore.CHOScore>
0.0000

> <Gold.PLP.Chemscore.Metal>
0.0000

> <Gold.Chemscore.Hbonds>
donor molecule, donor type, donor heavy atom, donor atom, acceptor molecule, acceptor atom, score
      P1  H  6896  6909       L1     1  0.44
      P1  H  6931  6943       L1    14  1.20
      P1  H  6934  6947       L1    14  0.93

> <Gold.PLP.Chemscore.Internal.Correction>
1.1417

> <Gold.Rescore>
     Score         DG    S(hbond)    S(metal)    S(lipo)     H(rot)  DE(clash)    DE(int)     intcor
     14.16     -15.90       2.08        0.00      62.86       1.52       0.05       1.68       ----

> <Gold.Chemscore.Fitness>
14.1587

> <Gold.Chemscore.DG>
-15.8970

> <Gold.Chemscore.ZeroCoef>
-5.4800

> <Gold.Chemscore.Hbond>
2.0793

> <Gold.Chemscore.Metal>
0.0000

> <Gold.Chemscore.Lipo>
62.8604

> <Gold.Chemscore.Internal_Hbond>
0.0000

> <Gold.Chemscore.DEClash>
0.0545

> <Gold.Chemscore.DEInternal>
1.6838

> <Gold.Chemscore.Rot>
1.5167

> <Gold.Chemscore.Internal.Correction>
   9.000000E+99

> <Gold.Chemscore.Hbonds>
donor molecule, donor type, donor heavy atom, donor atom, acceptor molecule, acceptor atom, score
      P1  H  6896  6909       L1     1  0.09
      P1  H  6931  6943       L1    14  0.08
      P1  H  6934  6947       L1    14  0.31

> <Gold.Chemscore.Hbond.Weighted>
-6.9450

> <Gold.Chemscore.Metal.Weighted>
-0.0000

> <Gold.Chemscore.Lipo.Weighted>
-7.3547

> <Gold.Chemscore.Internal_Hbond.Weighted>
0.0000

> <Gold.Chemscore.DEClash.Weighted>
0.0545

> <Gold.Chemscore.DEInternal.Weighted>
1.6838

> <Gold.Chemscore.Rot.Weighted>
3.8827

> <Gold.Chemscore.Internal.Correction.Weighted>
   9.000000E+99

> <Gold.Protein.RotatedTorsions>
[ 6907 6896 6895 6894 ] final   74.64 input  -60.11 | X-H torsion
[ 7974 7965 7964 7962 ] final  150.59 input  175.53 | X-H torsion
[ 8008 7997 7996 7995 ] final   48.57 input   59.86 | X-H torsion
[ 10167 10162 10161 10158 ] final   76.73 input  -65.29 | X-H torsion
[ 10718 10713 10712 10709 ] final   51.91 input   66.30 | X-H torsion
[ 10763 10752 10751 10750 ] final  -87.11 input  -60.55 | X-H torsion
[ 11005 11000 10999 10996 ] final  118.50 input  -57.11 | X-H torsion

> <Gold.Protein.ActiveResidues>
 VAL166  LYS551  ARG553  GLY616  TRP617  ASP618  TYR619  PRO620  LYS621  CYS622 
 ASP623  PHE694  ASN695  SER759  ASP760  ASP761  ALA762  ILE779  LEU786  VAL792 
 PHE793  MET794  SER795  GLU796  ALA797  LYS798  CYS799  TRP800  GLU811  SER814 

> <Gold.Protein.RotatedAtoms>
  152.4986  134.4241  159.9490 H   0  0  0  0  0  0  0  0  0  0  0  0  # atno 6907 bound_to 6896
  151.4216  133.3690  159.2764 H   0  0  0  0  0  0  0  0  0  0  0  0  # atno 6908 bound_to 6896
  150.9219  134.8659  159.7554 H   0  0  0  0  0  0  0  0  0  0  0  0  # atno 6909 bound_to 6896
  144.8353  139.6428  143.6040 H   0  0  0  0  0  0  0  0  0  0  0  0  # atno 7974 bound_to 7965
  155.3878  140.3432  155.4250 H   0  0  0  0  0  0  0  0  0  0  0  0  # atno 8008 bound_to 7997
  156.1574  140.1590  156.8702 H   0  0  0  0  0  0  0  0  0  0  0  0  # atno 8009 bound_to 7997
  154.5108  140.0790  156.7967 H   0  0  0  0  0  0  0  0  0  0  0  0  # atno 8010 bound_to 7997
  139.9891  144.5770  150.7833 H   0  0  0  0  0  0  0  0  0  0  0  0  # atno 10167 bound_to 10162
  157.5025  130.8447  149.8334 H   0  0  0  0  0  0  0  0  0  0  0  0  # atno 10718 bound_to 10713
  154.6299  135.5425  153.7669 H   0  0  0  0  0  0  0  0  0  0  0  0  # atno 10763 bound_to 10752
  153.0279  135.6433  154.1316 H   0  0  0  0  0  0  0  0  0  0  0  0  # atno 10764 bound_to 10752
  154.1246  135.2918  155.3180 H   0  0  0  0  0  0  0  0  0  0  0  0  # atno 10765 bound_to 10752
  139.9112  134.9621  156.7513 H   0  0  0  0  0  0  0  0  0  0  0  0  # atno 11005 bound_to 11000
  146.2653  139.6504  142.9334 LP  0  0  0  0  0  0  0  0  0  0  0  0  # atno 17320 bound_to 7965
  145.4807  141.0438  143.2647 LP  0  0  0  0  0  0  0  0  0  0  0  0  # atno 17321 bound_to 7965
  140.7461  143.2886  151.3394 LP  0  0  0  0  0  0  0  0  0  0  0  0  # atno 17342 bound_to 10162
  139.6353  144.0642  152.2510 LP  0  0  0  0  0  0  0  0  0  0  0  0  # atno 17343 bound_to 10162
  156.0238  130.3786  150.1883 LP  0  0  0  0  0  0  0  0  0  0  0  0  # atno 17370 bound_to 10713
  157.0073  130.9940  151.3375 LP  0  0  0  0  0  0  0  0  0  0  0  0  # atno 17371 bound_to 10713
  140.6771  133.9507  155.7889 LP  0  0  0  0  0  0  0  0  0  0  0  0  # atno 17394 bound_to 11000
  141.0536  134.0448  157.3751 LP  0  0  0  0  0  0  0  0  0  0  0  0  # atno 17395 bound_to 11000

$$$$
