AV-unprocessed.smi:1679|AV-procd|sdf|6730|dock7
  -GOLD-   22720 7473D 1   1.00000     0.00000
 Structure written by MMmdl.
 45 46  0  0  0  0  0  0  0  0  1 V2000
  151.1602  144.9160  159.6495 C   0  0  0  0  0  0  0  0  0  0  0  0
  152.3190  144.0493  160.1668 C   0  0  1  0  0  0  0  0  0  0  0  0
  152.1013  143.6230  161.6343 C   0  0  0  0  0  0  0  0  0  0  0  0
  153.2816  142.7912  162.1626 C   0  0  0  0  0  0  0  0  0  0  0  0
  153.5646  141.5788  161.2622 C   0  0  0  0  0  0  0  0  0  0  0  0
  153.7760  142.0079  159.8023 C   0  0  0  0  0  0  0  0  0  0  0  0
  152.5726  142.8165  159.2692 C   0  0  1  0  0  0  0  0  0  0  0  0
  151.3711  142.0542  159.2592 O   0  0  0  0  0  0  0  0  0  0  0  0
  151.3781  140.8586  158.4945 C   0  0  0  0  0  0  0  0  0  0  0  0
  151.0902  141.2098  157.0260 C   0  0  0  0  0  0  0  0  0  0  0  0
  150.4729  140.0931  156.3154 N   0  0  0  0  0  0  0  0  0  0  0  0
  150.9229  139.5767  155.1602 C   0  0  0  0  0  0  0  0  0  0  0  0
  151.9494  139.9671  154.6021 O   0  0  0  0  0  0  0  0  0  0  0  0
  150.1048  138.4343  154.5456 C   0  0  0  0  0  0  0  0  0  0  0  0
  150.3588  137.1621  155.2360 N   0  0  0  0  0  0  0  0  0  0  0  0
  150.9728  136.1118  154.5682 C   0  0  0  0  0  0  0  0  0  0  0  0
  151.1882  134.8971  155.1267 C   0  0  0  0  0  0  0  0  0  0  0  0
  150.7698  134.6308  156.4987 C   0  0  0  0  0  0  0  0  0  0  0  0
  150.9152  133.5634  157.0904 O   0  0  0  0  0  0  0  0  0  0  0  0
  150.1611  135.7135  157.1385 N   0  0  0  0  0  0  0  0  0  0  0  0
  149.9380  136.9679  156.5693 C   0  0  0  0  0  0  0  0  0  0  0  0
  149.3884  137.8531  157.2232 O   0  0  0  0  0  0  0  0  0  0  0  0
  149.8544  135.5756  158.0905 H   0  0  0  0  0  0  0  0  0  0  0  0
  150.2130  144.3764  159.6789 H   0  0  0  0  0  0  0  0  0  0  0  0
  151.3334  145.2298  158.6200 H   0  0  0  0  0  0  0  0  0  0  0  0
  151.0451  145.8162  160.2535 H   0  0  0  0  0  0  0  0  0  0  0  0
  153.2162  144.6691  160.1345 H   0  0  0  0  0  0  0  0  0  0  0  0
  151.9663  144.5024  162.2643 H   0  0  0  0  0  0  0  0  0  0  0  0
  151.1809  143.0439  161.7194 H   0  0  0  0  0  0  0  0  0  0  0  0
  154.1720  143.4185  162.2174 H   0  0  0  0  0  0  0  0  0  0  0  0
  153.0763  142.4583  163.1800 H   0  0  0  0  0  0  0  0  0  0  0  0
  154.4425  141.0437  161.6246 H   0  0  0  0  0  0  0  0  0  0  0  0
  152.7322  140.8773  161.3149 H   0  0  0  0  0  0  0  0  0  0  0  0
  154.6740  142.6238  159.7396 H   0  0  0  0  0  0  0  0  0  0  0  0
  153.9752  141.1379  159.1776 H   0  0  0  0  0  0  0  0  0  0  0  0
  152.7844  143.1521  158.2529 H   0  0  0  0  0  0  0  0  0  0  0  0
  152.3498  140.3691  158.5717 H   0  0  0  0  0  0  0  0  0  0  0  0
  150.6252  140.1611  158.8616 H   0  0  0  0  0  0  0  0  0  0  0  0
  150.4627  142.1006  156.9643 H   0  0  0  0  0  0  0  0  0  0  0  0
  152.0238  141.4570  156.5202 H   0  0  0  0  0  0  0  0  0  0  0  0
  149.6265  139.7098  156.7107 H   0  0  0  0  0  0  0  0  0  0  0  0
  149.0478  138.6942  154.6193 H   0  0  0  0  0  0  0  0  0  0  0  0
  150.3047  138.3483  153.4755 H   0  0  0  0  0  0  0  0  0  0  0  0
  151.2896  136.2620  153.5458 H   0  0  0  0  0  0  0  0  0  0  0  0
  151.6680  134.1172  154.5531 H   0  0  0  0  0  0  0  0  0  0  0  0
  1  2  1  0  0  0  0
  1 24  1  0  0  0  0
  1 25  1  0  0  0  0
  1 26  1  0  0  0  0
  2  7  1  0  0  0  0
  2  3  1  0  0  0  0
  2 27  1  0  0  0  0
  3  4  1  0  0  0  0
  3 28  1  0  0  0  0
  3 29  1  0  0  0  0
  4  5  1  0  0  0  0
  4 30  1  0  0  0  0
  4 31  1  0  0  0  0
  5  6  1  0  0  0  0
  5 32  1  0  0  0  0
  5 33  1  0  0  0  0
  6  7  1  0  0  0  0
  6 34  1  0  0  0  0
  6 35  1  0  0  0  0
  7  8  1  0  0  0  0
  7 36  1  0  0  0  0
  8  9  1  0  0  0  0
  9 10  1  0  0  0  0
  9 37  1  0  0  0  0
  9 38  1  0  0  0  0
 10 11  1  0  0  0  0
 10 39  1  0  0  0  0
 10 40  1  0  0  0  0
 11 12  1  0  0  0  0
 11 41  1  0  0  0  0
 12 13  2  0  0  0  0
 12 14  1  0  0  0  0
 14 15  1  0  0  0  0
 14 42  1  0  0  0  0
 14 43  1  0  0  0  0
 15 21  1  0  0  0  0
 15 16  1  0  0  0  0
 16 17  2  0  0  0  0
 16 44  1  0  0  0  0
 17 18  1  0  0  0  0
 17 45  1  0  0  0  0
 18 19  2  0  0  0  0
 18 20  1  0  0  0  0
 20 23  1  0  0  0  0
 20 21  1  0  0  0  0
 21 22  2  0  0  0  0
M  END
> <s_m_source_file>
AV-unprocessed.smi

> <i_m_source_file_index>
1679

> <i_lp_mmshare_version>
43012

> <i_f3d_flags>
0

> <s_epik_input>
W0NIM11bQ0BASF0xW0NIMl1bQ0gyXVtDSDJdW0NIMl1bQ0BIXTFPW0NIMl1bQ0gyXVtOSF1DKD1PKVtDSDJdbjJbY0hdW2NIXWMoPU8pW25IXWMyPU8=

> <s_epik_cmdline>
J2VwaWtfcHl0aG9uJywgJy1waCcsICc3LjAnLCAnLXRuJywgJzgnLCAnLW1hJywgJzIwMCcsICctbWV0YWxfYmluZGluZycsICctaW1hZScsICc8aW5maWxlLm1hZT4nLCAnLW9tYWUnLCAnPG91dGZpbGUubWFlPic=

> <r_lp_tautomer_probability>
0.999537

> <r_epik_Ionization_Penalty>
0.0033132

> <r_epik_Ionization_Penalty_Charging>
0.00331317

> <r_epik_Ionization_Penalty_Neutral>
2.78599e-08

> <r_epik_State_Penalty>
0.002342

> <r_epik_Charging_Adjusted_Penalty>
0.00565517

> <i_epik_Tot_Q>
0

> <i_epik_Tot_abs_Q>
0

> <r_epik_Metal_State_Penalty>
0.365595

> <b_epik_Metal_Only>
0

> <s_lp_Force_Field>
OPLS_2005

> <r_lp_Energy>
9.24545

> <b_lp_Chiralities_Consistent>
1

> <s_lp_Variant>
AV-unprocessed.smi:1679-2

> <Gold.Version>
5.8.1

> <Gold.Id.Protein>
6NUR|6NUR_protein|mol2

> <Gold.PLP.Fitness>
53.4910

> <Gold.PLP.PLP>
-46.1212

> <Gold.PLP.part.hbond>
-2.0000

> <Gold.PLP.part.metal>
0.0000

> <Gold.PLP.part.buried>
-5.4898

> <Gold.PLP.part.nonpolar>
-37.8548

> <Gold.PLP.part.repulsive>
0.1904

> <Gold.PLP.ligand.clash>
0.0000

> <Gold.PLP.ligand.torsion>
0.5907

> <Gold.PLP.Chemscore.Hbond>
1.8160

> <Gold.PLP.Chemscore.CHOScore>
1.0000

> <Gold.PLP.Chemscore.Metal>
0.0000

> <Gold.Chemscore.Hbonds>
donor molecule, donor type, donor heavy atom, donor atom, acceptor molecule, acceptor atom, score
      P1  H  6896  6907       L1    19  0.49
      P1  H  7989  7998       L1    13  0.69
      L1  C    16    44       P1  7949  1.00

> <Gold.PLP.Chemscore.Internal.Correction>
0.1032

> <Gold.Rescore>
     Score         DG    S(hbond)    S(metal)    S(lipo)     H(rot)  DE(clash)    DE(int)     intcor
     16.49     -18.78       1.91        0.00     114.21       2.52       0.15       2.14       ----

> <Gold.Chemscore.Fitness>
16.4857

> <Gold.Chemscore.DG>
-18.7764

> <Gold.Chemscore.ZeroCoef>
-5.4800

> <Gold.Chemscore.Hbond>
1.9104

> <Gold.Chemscore.Metal>
0.0000

> <Gold.Chemscore.Lipo>
114.2135

> <Gold.Chemscore.Internal_Hbond>
0.0000

> <Gold.Chemscore.DEClash>
0.1502

> <Gold.Chemscore.DEInternal>
2.1404

> <Gold.Chemscore.Rot>
2.5185

> <Gold.Chemscore.Internal.Correction>
   9.000000E+99

> <Gold.Chemscore.Hbonds>
donor molecule, donor type, donor heavy atom, donor atom, acceptor molecule, acceptor atom, score
      P1  H  6896  6907       L1    19  0.44
      P1  H  7989  7998       L1    13  0.58

> <Gold.Chemscore.Hbond.Weighted>
-6.3806

> <Gold.Chemscore.Metal.Weighted>
-0.0000

> <Gold.Chemscore.Lipo.Weighted>
-13.3630

> <Gold.Chemscore.Internal_Hbond.Weighted>
0.0000

> <Gold.Chemscore.DEClash.Weighted>
0.1502

> <Gold.Chemscore.DEInternal.Weighted>
2.1404

> <Gold.Chemscore.Rot.Weighted>
6.4472

> <Gold.Chemscore.Internal.Correction.Weighted>
   9.000000E+99

> <Gold.Protein.RotatedTorsions>
[ 6907 6896 6895 6894 ] final -126.07 input  -60.11 | X-H torsion
[ 7974 7965 7964 7962 ] final  148.07 input  175.53 | X-H torsion
[ 8008 7997 7996 7995 ] final   91.02 input   59.86 | X-H torsion
[ 10167 10162 10161 10158 ] final -114.43 input  -65.29 | X-H torsion
[ 10718 10713 10712 10709 ] final  -97.52 input   66.30 | X-H torsion
[ 10763 10752 10751 10750 ] final -161.58 input  -60.55 | X-H torsion
[ 11005 11000 10999 10996 ] final  107.12 input  -57.11 | X-H torsion

> <Gold.Protein.ActiveResidues>
 VAL166  LYS551  ARG553  GLY616  TRP617  ASP618  TYR619  PRO620  LYS621  CYS622 
 ASP623  PHE694  ASN695  SER759  ASP760  ASP761  ALA762  ILE779  LEU786  VAL792 
 PHE793  MET794  SER795  GLU796  ALA797  LYS798  CYS799  TRP800  GLU811  SER814 

> <Gold.Protein.RotatedAtoms>
  150.8931  133.7216  159.2898 H   0  0  0  0  0  0  0  0  0  0  0  0  # atno 6907 bound_to 6896
  151.4760  135.1047  159.9774 H   0  0  0  0  0  0  0  0  0  0  0  0  # atno 6908 bound_to 6896
  152.4832  133.8260  159.7133 H   0  0  0  0  0  0  0  0  0  0  0  0  # atno 6909 bound_to 6896
  144.8542  139.6107  143.5960 H   0  0  0  0  0  0  0  0  0  0  0  0  # atno 7974 bound_to 7965
  156.0188  140.3342  155.7017 H   0  0  0  0  0  0  0  0  0  0  0  0  # atno 8008 bound_to 7997
  155.6052  140.0659  157.2739 H   0  0  0  0  0  0  0  0  0  0  0  0  # atno 8009 bound_to 7997
  154.4308  140.1803  156.1202 H   0  0  0  0  0  0  0  0  0  0  0  0  # atno 8010 bound_to 7997
  140.1011  143.4612  152.1812 H   0  0  0  0  0  0  0  0  0  0  0  0  # atno 10167 bound_to 10162
  156.0085  130.5198  150.6386 H   0  0  0  0  0  0  0  0  0  0  0  0  # atno 10718 bound_to 10713
  154.7290  135.3042  154.8922 H   0  0  0  0  0  0  0  0  0  0  0  0  # atno 10763 bound_to 10752
  153.9771  135.6735  153.4753 H   0  0  0  0  0  0  0  0  0  0  0  0  # atno 10764 bound_to 10752
  153.0901  135.4964  154.8594 H   0  0  0  0  0  0  0  0  0  0  0  0  # atno 10765 bound_to 10752
  139.8823  134.9391  156.5771 H   0  0  0  0  0  0  0  0  0  0  0  0  # atno 11005 bound_to 11000
  146.2810  139.6877  142.9229 LP  0  0  0  0  0  0  0  0  0  0  0  0  # atno 17320 bound_to 7965
  145.4438  141.0424  143.2842 LP  0  0  0  0  0  0  0  0  0  0  0  0  # atno 17321 bound_to 7965
  139.5671  144.7441  151.3993 LP  0  0  0  0  0  0  0  0  0  0  0  0  # atno 17342 bound_to 10162
  140.6977  143.7708  150.7353 LP  0  0  0  0  0  0  0  0  0  0  0  0  # atno 17343 bound_to 10162
  157.4170  131.0831  151.1167 LP  0  0  0  0  0  0  0  0  0  0  0  0  # atno 17370 bound_to 10713
  157.1781  130.6297  149.5662 LP  0  0  0  0  0  0  0  0  0  0  0  0  # atno 17371 bound_to 10713
  140.8055  133.8471  155.8764 LP  0  0  0  0  0  0  0  0  0  0  0  0  # atno 17394 bound_to 11000
  140.9554  134.1725  157.4696 LP  0  0  0  0  0  0  0  0  0  0  0  0  # atno 17395 bound_to 11000

$$$$
