AV-unprocessed.smi:1439|AV-procd|sdf|5870|dock2
  -GOLD-   22720 5543D 1   1.00000     0.00000
 Structure written by MMmdl.
 36 37  0  0  0  0  0  0  0  0  1 V2000
  144.8627  138.5064  153.4808 N   0  0  0  0  0  0  0  0  0  0  0  0
  146.1233  138.0682  153.4268 C   0  0  0  0  0  0  0  0  0  0  0  0
  146.4512  136.9572  153.8378 O   0  0  0  0  0  0  0  0  0  0  0  0
  147.1674  139.0127  152.8290 C   0  0  0  0  0  0  0  0  0  0  0  0
  147.2769  140.2601  153.6572 C   0  0  0  0  0  0  0  0  0  0  0  0
  146.3161  141.2305  153.8144 C   0  0  0  0  0  0  0  0  0  0  0  0
  146.8497  142.5183  154.8598 S   0  0  0  0  0  0  0  0  0  0  0  0
  148.3893  141.6757  155.0410 C   0  0  0  0  0  0  0  0  0  0  0  0
  149.5109  142.0848  155.8040 N   0  0  0  0  0  0  0  0  0  0  0  0
  150.7104  141.4850  155.8994 C   0  0  0  0  0  0  0  0  0  0  0  0
  151.0227  140.4528  155.3056 O   0  0  0  0  0  0  0  0  0  0  0  0
  151.7182  142.1830  156.8189 C   0  0  0  0  0  0  0  0  0  0  0  0
  151.3643  142.0785  158.3145 C   0  0  0  0  0  0  0  0  0  0  0  0
  152.0712  143.1460  159.1629 C   0  0  1  0  0  0  0  0  0  0  0  0
  151.6257  144.5742  158.8562 C   0  0  0  0  0  0  0  0  0  0  0  0
  151.9800  145.2835  160.1430 C   0  0  0  0  0  0  0  0  0  0  0  0
  151.6249  144.2297  161.1888 C   0  0  0  0  0  0  0  0  0  0  0  0
  151.7859  142.9663  160.5480 O   0  0  0  0  0  0  0  0  0  0  0  0
  148.4563  140.5294  154.3617 N   0  0  0  0  0  0  0  0  0  0  0  0
  144.1417  137.9115  153.8624 H   0  0  0  0  0  0  0  0  0  0  0  0
  144.6336  139.4270  153.1348 H   0  0  0  0  0  0  0  0  0  0  0  0
  148.1283  138.5001  152.7627 H   0  0  0  0  0  0  0  0  0  0  0  0
  146.8813  139.2592  151.8057 H   0  0  0  0  0  0  0  0  0  0  0  0
  145.3275  141.2622  153.3806 H   0  0  0  0  0  0  0  0  0  0  0  0
  149.3860  142.9291  156.3431 H   0  0  0  0  0  0  0  0  0  0  0  0
  152.7019  141.7481  156.6390 H   0  0  0  0  0  0  0  0  0  0  0  0
  151.7837  143.2344  156.5350 H   0  0  0  0  0  0  0  0  0  0  0  0
  150.2857  142.1843  158.4397 H   0  0  0  0  0  0  0  0  0  0  0  0
  151.6241  141.0882  158.6920 H   0  0  0  0  0  0  0  0  0  0  0  0
  153.1523  143.0767  159.0313 H   0  0  0  0  0  0  0  0  0  0  0  0
  152.1224  144.9969  157.9825 H   0  0  0  0  0  0  0  0  0  0  0  0
  150.5478  144.6167  158.6924 H   0  0  0  0  0  0  0  0  0  0  0  0
  153.0496  145.4960  160.1703 H   0  0  0  0  0  0  0  0  0  0  0  0
  151.4407  146.2210  160.2810 H   0  0  0  0  0  0  0  0  0  0  0  0
  152.2475  144.3057  162.0806 H   0  0  0  0  0  0  0  0  0  0  0  0
  150.5828  144.3305  161.4938 H   0  0  0  0  0  0  0  0  0  0  0  0
  1  2  1  0  0  0  0
  1 20  1  0  0  0  0
  1 21  1  0  0  0  0
  2  3  2  0  0  0  0
  2  4  1  0  0  0  0
  4  5  1  0  0  0  0
  4 22  1  0  0  0  0
  4 23  1  0  0  0  0
  5 19  1  0  0  0  0
  5  6  2  0  0  0  0
  6  7  1  0  0  0  0
  6 24  1  0  0  0  0
  7  8  1  0  0  0  0
  8  9  1  0  0  0  0
  8 19  2  0  0  0  0
  9 10  1  0  0  0  0
  9 25  1  0  0  0  0
 10 11  2  0  0  0  0
 10 12  1  0  0  0  0
 12 13  1  0  0  0  0
 12 26  1  0  0  0  0
 12 27  1  0  0  0  0
 13 14  1  0  0  0  0
 13 28  1  0  0  0  0
 13 29  1  0  0  0  0
 14 18  1  0  0  0  0
 14 15  1  0  0  0  0
 14 30  1  0  0  0  0
 15 16  1  0  0  0  0
 15 31  1  0  0  0  0
 15 32  1  0  0  0  0
 16 17  1  0  0  0  0
 16 33  1  0  0  0  0
 16 34  1  0  0  0  0
 17 18  1  0  0  0  0
 17 35  1  0  0  0  0
 17 36  1  0  0  0  0
M  END
> <s_m_source_file>
AV-unprocessed.smi

> <i_m_source_file_index>
1439

> <i_lp_mmshare_version>
43012

> <i_f3d_flags>
0

> <s_epik_input>
W05IMl1DKD1PKVtDSDJdYzFbY0hdc2MobjEpW05IXUMoPU8pW0NIMl1bQ0gyXVtDQEBIXTJbQ0gyXVtDSDJdW0NIMl1PMg==

> <s_epik_cmdline>
J2VwaWtfcHl0aG9uJywgJy1waCcsICc3LjAnLCAnLXRuJywgJzgnLCAnLW1hJywgJzIwMCcsICctbWV0YWxfYmluZGluZycsICctaW1hZScsICc8aW5maWxlLm1hZT4nLCAnLW9tYWUnLCAnPG91dGZpbGUubWFlPic=

> <r_lp_tautomer_probability>
1

> <r_epik_Ionization_Penalty>
0.000300833

> <r_epik_Ionization_Penalty_Charging>
0

> <r_epik_Ionization_Penalty_Neutral>
0.000300833

> <r_epik_State_Penalty>
-0

> <r_epik_Charging_Adjusted_Penalty>
0

> <i_epik_Tot_Q>
0

> <i_epik_Tot_abs_Q>
0

> <r_epik_Metal_State_Penalty>
0.167159

> <b_epik_Metal_Only>
0

> <s_lp_Force_Field>
OPLS_2005

> <r_lp_Energy>
15.0487

> <b_lp_Chiralities_Consistent>
1

> <s_lp_Variant>
AV-unprocessed.smi:1439-2

> <Gold.Version>
5.8.1

> <Gold.Id.Protein>
6NUR|6NUR_protein|mol2

> <Gold.PLP.Fitness>
44.1180

> <Gold.PLP.PLP>
-34.0721

> <Gold.PLP.part.hbond>
-3.4648

> <Gold.PLP.part.metal>
0.0000

> <Gold.PLP.part.buried>
-2.5200

> <Gold.PLP.part.nonpolar>
-28.1041

> <Gold.PLP.part.repulsive>
0.4413

> <Gold.PLP.ligand.clash>
0.0000

> <Gold.PLP.ligand.torsion>
0.2554

> <Gold.PLP.Chemscore.Hbond>
2.5040

> <Gold.PLP.Chemscore.CHOScore>
0.9837

> <Gold.PLP.Chemscore.Metal>
0.0000

> <Gold.Chemscore.Hbonds>
donor molecule, donor type, donor heavy atom, donor atom, acceptor molecule, acceptor atom, score
      L1  H     1    21       P1 10175  1.00
      L1  H     9    25       P1  8028  0.54
      P1  H  7989  7998       L1    11  0.99
      L1  C     6    24       P1 10175  0.96

> <Gold.PLP.Chemscore.Internal.Correction>
0.0936

> <Gold.Rescore>
     Score         DG    S(hbond)    S(metal)    S(lipo)     H(rot)  DE(clash)    DE(int)     intcor
     12.97     -16.54       2.17        0.00      88.57       2.56       1.74       1.83       ----

> <Gold.Chemscore.Fitness>
12.9656

> <Gold.Chemscore.DG>
-16.5375

> <Gold.Chemscore.ZeroCoef>
-5.4800

> <Gold.Chemscore.Hbond>
2.1701

> <Gold.Chemscore.Metal>
0.0000

> <Gold.Chemscore.Lipo>
88.5688

> <Gold.Chemscore.Internal_Hbond>
0.0000

> <Gold.Chemscore.DEClash>
1.7417

> <Gold.Chemscore.DEInternal>
1.8302

> <Gold.Chemscore.Rot>
2.5598

> <Gold.Chemscore.Internal.Correction>
   9.000000E+99

> <Gold.Chemscore.Hbonds>
donor molecule, donor type, donor heavy atom, donor atom, acceptor molecule, acceptor atom, score
      L1  H     1    21       P1 10175  0.93
      L1  H     9    25       P1  8028  0.53
      P1  H  7989  7998       L1    11  0.69

> <Gold.Chemscore.Hbond.Weighted>
-7.2481

> <Gold.Chemscore.Metal.Weighted>
-0.0000

> <Gold.Chemscore.Lipo.Weighted>
-10.3625

> <Gold.Chemscore.Internal_Hbond.Weighted>
0.0000

> <Gold.Chemscore.DEClash.Weighted>
1.7417

> <Gold.Chemscore.DEInternal.Weighted>
1.8302

> <Gold.Chemscore.Rot.Weighted>
6.5532

> <Gold.Chemscore.Internal.Correction.Weighted>
   9.000000E+99

> <Gold.Protein.RotatedTorsions>
[ 6907 6896 6895 6894 ] final   25.86 input  -60.11 | X-H torsion
[ 7974 7965 7964 7962 ] final  147.07 input  175.53 | X-H torsion
[ 8008 7997 7996 7995 ] final  -86.72 input   59.86 | X-H torsion
[ 10167 10162 10161 10158 ] final  162.35 input  -65.29 | X-H torsion
[ 10718 10713 10712 10709 ] final   12.35 input   66.30 | X-H torsion
[ 10763 10752 10751 10750 ] final  140.23 input  -60.55 | X-H torsion
[ 11005 11000 10999 10996 ] final   36.94 input  -57.11 | X-H torsion

> <Gold.Protein.ActiveResidues>
 VAL166  LYS551  ARG553  GLY616  TRP617  ASP618  TYR619  PRO620  LYS621  CYS622 
 ASP623  PHE694  ASN695  SER759  ASP760  ASP761  ALA762  ILE779  LEU786  VAL792 
 PHE793  MET794  SER795  GLU796  ALA797  LYS798  CYS799  TRP800  GLU811  SER814 

> <Gold.Protein.RotatedAtoms>
  151.9788  135.0039  160.0556 H   0  0  0  0  0  0  0  0  0  0  0  0  # atno 6907 bound_to 6896
  152.1715  133.4642  159.4920 H   0  0  0  0  0  0  0  0  0  0  0  0  # atno 6908 bound_to 6896
  150.6902  134.1864  159.4311 H   0  0  0  0  0  0  0  0  0  0  0  0  # atno 6909 bound_to 6896
  144.8621  139.5983  143.5926 H   0  0  0  0  0  0  0  0  0  0  0  0  # atno 7974 bound_to 7965
  154.6551  140.0575  157.0000 H   0  0  0  0  0  0  0  0  0  0  0  0  # atno 8008 bound_to 7997
  155.1312  140.3256  155.4455 H   0  0  0  0  0  0  0  0  0  0  0  0  # atno 8009 bound_to 7997
  156.2593  140.1980  156.6431 H   0  0  0  0  0  0  0  0  0  0  0  0  # atno 8010 bound_to 7997
  139.4859  144.4447  151.8907 H   0  0  0  0  0  0  0  0  0  0  0  0  # atno 10167 bound_to 10162
  157.0089  130.6109  149.5705 H   0  0  0  0  0  0  0  0  0  0  0  0  # atno 10718 bound_to 10713
  153.9192  135.3002  155.3448 H   0  0  0  0  0  0  0  0  0  0  0  0  # atno 10763 bound_to 10752
  154.7584  135.4946  153.9420 H   0  0  0  0  0  0  0  0  0  0  0  0  # atno 10764 bound_to 10752
  153.1151  135.6768  153.9536 H   0  0  0  0  0  0  0  0  0  0  0  0  # atno 10765 bound_to 10752
  140.2275  134.3567  155.7978 H   0  0  0  0  0  0  0  0  0  0  0  0  # atno 11005 bound_to 11000
  146.2868  139.7027  142.9189 LP  0  0  0  0  0  0  0  0  0  0  0  0  # atno 17320 bound_to 7965
  145.4292  141.0413  143.2920 LP  0  0  0  0  0  0  0  0  0  0  0  0  # atno 17321 bound_to 7965
  140.3900  144.2627  150.5900 LP  0  0  0  0  0  0  0  0  0  0  0  0  # atno 17342 bound_to 10162
  140.5155  143.2279  151.8470 LP  0  0  0  0  0  0  0  0  0  0  0  0  # atno 17343 bound_to 10162
  156.0143  130.5237  150.8087 LP  0  0  0  0  0  0  0  0  0  0  0  0  # atno 17370 bound_to 10713
  157.5335  131.0937  150.9923 LP  0  0  0  0  0  0  0  0  0  0  0  0  # atno 17371 bound_to 10713
  141.2220  133.7227  156.8677 LP  0  0  0  0  0  0  0  0  0  0  0  0  # atno 17394 bound_to 11000
  140.1785  134.9050  157.2920 LP  0  0  0  0  0  0  0  0  0  0  0  0  # atno 17395 bound_to 11000

$$$$
