AV-unprocessed.smi:1898|AV-procd|sdf|7701|dock2
  -GOLD-   22720 9433D 1   1.00000     0.00000
 Structure written by MMmdl.
 47 48  0  0  0  0  0  0  0  0  2 V2000
  143.4301  137.3328  153.4427 C   0  0  0  0  0  0  0  0  0  0  0  0
  144.4705  138.1602  152.8507 N   0  0  0  0  0  0  0  0  0  0  0  0
  145.7513  137.7853  152.7266 C   0  0  0  0  0  0  0  0  0  0  0  0
  146.1754  136.6956  153.1132 O   0  0  0  0  0  0  0  0  0  0  0  0
  146.6964  138.8057  152.0832 C   0  0  0  0  0  0  0  0  0  0  0  0
  147.6780  139.3728  153.0430 N   0  3  2  0  0  0  0  0  0  0  0  0
  148.2139  138.3532  153.9803 C   0  0  0  0  0  0  0  0  0  0  0  0
  149.3412  138.9388  154.8468 C   0  0  0  0  0  0  0  0  0  0  0  0
  148.8622  140.1791  155.6179 C   0  0  1  0  0  0  0  0  0  0  0  0
  149.9761  140.7657  156.3569 N   0  0  0  0  0  0  0  0  0  0  0  0
  149.8813  141.8016  157.2026 C   0  0  0  0  0  0  0  0  0  0  0  0
  148.8211  142.3725  157.4552 O   0  0  0  0  0  0  0  0  0  0  0  0
  151.0811  142.1084  157.7247 N   0  0  0  0  0  0  0  0  0  0  0  0
  151.4237  143.1133  158.6732 C   0  0  0  0  0  0  0  0  0  0  0  0
  150.8294  144.3985  158.7224 C   0  0  0  0  0  0  0  0  0  0  0  0
  151.2590  145.3130  159.7017 C   0  0  0  0  0  0  0  0  0  0  0  0
  152.2718  144.9151  160.5928 C   0  0  0  0  0  0  0  0  0  0  0  0
  152.8555  143.7002  160.5516 N   0  0  0  0  0  0  0  0  0  0  0  0
  152.4428  142.8163  159.6086 C   0  0  0  0  0  0  0  0  0  0  0  0
  153.0461  141.5736  159.5649 O   0  0  0  0  0  0  0  0  0  0  0  0
  154.0735  141.2827  160.5062 C   0  0  0  0  0  0  0  0  0  0  0  0
  148.2647  141.2016  154.6344 C   0  0  0  0  0  0  0  0  0  0  0  0
  147.1645  140.5645  153.7700 C   0  0  0  0  0  0  0  0  0  0  0  0
  142.4796  137.8663  153.4315 H   0  0  0  0  0  0  0  0  0  0  0  0
  143.6703  137.0864  154.4779 H   0  0  0  0  0  0  0  0  0  0  0  0
  143.3067  136.4047  152.8832 H   0  0  0  0  0  0  0  0  0  0  0  0
  144.1983  139.0737  152.5166 H   0  0  0  0  0  0  0  0  0  0  0  0
  147.2160  138.3630  151.2316 H   0  0  0  0  0  0  0  0  0  0  0  0
  146.0673  139.6036  151.6861 H   0  0  0  0  0  0  0  0  0  0  0  0
  147.4075  137.9769  154.6118 H   0  0  0  0  0  0  0  0  0  0  0  0
  148.6022  137.5022  153.4194 H   0  0  0  0  0  0  0  0  0  0  0  0
  149.7015  138.1809  155.5435 H   0  0  0  0  0  0  0  0  0  0  0  0
  150.1872  139.2002  154.2091 H   0  0  0  0  0  0  0  0  0  0  0  0
  148.0867  139.8646  156.3192 H   0  0  0  0  0  0  0  0  0  0  0  0
  150.8869  140.3544  156.2128 H   0  0  0  0  0  0  0  0  0  0  0  0
  151.8463  141.5103  157.4485 H   0  0  0  0  0  0  0  0  0  0  0  0
  150.0650  144.7109  158.0294 H   0  0  0  0  0  0  0  0  0  0  0  0
  150.8235  146.2992  159.7652 H   0  0  0  0  0  0  0  0  0  0  0  0
  152.6261  145.5919  161.3562 H   0  0  0  0  0  0  0  0  0  0  0  0
  154.4440  140.2725  160.3334 H   0  0  0  0  0  0  0  0  0  0  0  0
  153.7008  141.3278  161.5305 H   0  0  0  0  0  0  0  0  0  0  0  0
  154.9171  141.9664  160.4011 H   0  0  0  0  0  0  0  0  0  0  0  0
  147.8552  142.0531  155.1793 H   0  0  0  0  0  0  0  0  0  0  0  0
  149.0491  141.5972  153.9871 H   0  0  0  0  0  0  0  0  0  0  0  0
  146.7920  141.3058  153.0625 H   0  0  0  0  0  0  0  0  0  0  0  0
  146.3187  140.2746  154.3956 H   0  0  0  0  0  0  0  0  0  0  0  0
  148.4613  139.6838  152.4855 H   0  0  0  0  0  0  0  0  0  0  0  0
  1  2  1  0  0  0  0
  1 24  1  0  0  0  0
  1 25  1  0  0  0  0
  1 26  1  0  0  0  0
  2  3  1  0  0  0  0
  2 27  1  0  0  0  0
  3  4  2  0  0  0  0
  3  5  1  0  0  0  0
  5  6  1  0  0  0  0
  5 28  1  0  0  0  0
  5 29  1  0  0  0  0
  6 23  1  0  0  0  0
  6  7  1  0  0  0  0
  6 47  1  0  0  0  0
  7  8  1  0  0  0  0
  7 30  1  0  0  0  0
  7 31  1  0  0  0  0
  8  9  1  0  0  0  0
  8 32  1  0  0  0  0
  8 33  1  0  0  0  0
  9 10  1  0  0  0  0
  9 22  1  0  0  0  0
  9 34  1  0  0  0  0
 10 11  1  0  0  0  0
 10 35  1  0  0  0  0
 11 12  2  0  0  0  0
 11 13  1  0  0  0  0
 13 14  1  0  0  0  0
 13 36  1  0  0  0  0
 14 19  1  0  0  0  0
 14 15  2  0  0  0  0
 15 16  1  0  0  0  0
 15 37  1  0  0  0  0
 16 17  2  0  0  0  0
 16 38  1  0  0  0  0
 17 18  1  0  0  0  0
 17 39  1  0  0  0  0
 18 19  2  0  0  0  0
 19 20  1  0  0  0  0
 20 21  1  0  0  0  0
 21 40  1  0  0  0  0
 21 41  1  0  0  0  0
 21 42  1  0  0  0  0
 22 23  1  0  0  0  0
 22 43  1  0  0  0  0
 22 44  1  0  0  0  0
 23 45  1  0  0  0  0
 23 46  1  0  0  0  0
M  CHG  1   6   1
M  END
> <s_m_source_file>
AV-unprocessed.smi

> <i_m_source_file_index>
1898

> <i_lp_mmshare_version>
43012

> <i_f3d_flags>
0

> <s_epik_input>
W0NIM11bTkhdQyg9TylbQ0gyXU4xW0NIMl1bQ0gyXVtDSF0oW0NIMl1bQ0gyXTEpW05IXUMoPU8pW05IXWMyW2NIXVtjSF1bY0hdbmMyT1tDSDNd

> <s_epik_cmdline>
J2VwaWtfcHl0aG9uJywgJy1waCcsICc3LjAnLCAnLXRuJywgJzgnLCAnLW1hJywgJzIwMCcsICctbWV0YWxfYmluZGluZycsICctaW1hZScsICc8aW5maWxlLm1hZT4nLCAnLW9tYWUnLCAnPG91dGZpbGUubWFlPic=

> <r_lp_tautomer_probability>
1

> <r_epik_Ionization_Penalty>
0.838943

> <r_epik_Ionization_Penalty_Charging>
0.838844

> <r_epik_Ionization_Penalty_Neutral>
9.87395e-05

> <r_epik_State_Penalty>
0.8734

> <r_epik_Charging_Adjusted_Penalty>
1.71224

> <i_epik_Tot_Q>
1

> <i_epik_Tot_abs_Q>
1

> <r_epik_Metal_State_Penalty>
0.877926

> <b_epik_Metal_Only>
0

> <s_lp_Force_Field>
OPLS_2005

> <r_lp_Energy>
17.1521

> <b_lp_Chiralities_Consistent>
1

> <s_lp_Variant>
AV-unprocessed.smi:1898-2

> <Gold.Version>
5.8.1

> <Gold.Id.Protein>
6NUR|6NUR_protein|mol2

> <Gold.PLP.Fitness>
44.5554

> <Gold.PLP.PLP>
-39.7642

> <Gold.PLP.part.hbond>
-2.8268

> <Gold.PLP.part.metal>
0.0000

> <Gold.PLP.part.buried>
-5.0837

> <Gold.PLP.part.nonpolar>
-35.9068

> <Gold.PLP.part.repulsive>
3.6411

> <Gold.PLP.ligand.clash>
0.0000

> <Gold.PLP.ligand.torsion>
0.6075

> <Gold.PLP.Chemscore.Hbond>
1.9920

> <Gold.PLP.Chemscore.CHOScore>
0.0000

> <Gold.PLP.Chemscore.Metal>
0.0000

> <Gold.Chemscore.Hbonds>
donor molecule, donor type, donor heavy atom, donor atom, acceptor molecule, acceptor atom, score
      L1  H     2    27       P1 10175  0.84
      L1  H     6    47       P1  7957  1.00

> <Gold.PLP.Chemscore.Internal.Correction>
0.0303

> <Gold.Rescore>
     Score         DG    S(hbond)    S(metal)    S(lipo)     H(rot)  DE(clash)    DE(int)     intcor
     14.77     -17.29       1.99        0.00      87.89       2.00       0.41       2.11       ----

> <Gold.Chemscore.Fitness>
14.7675

> <Gold.Chemscore.DG>
-17.2882

> <Gold.Chemscore.ZeroCoef>
-5.4800

> <Gold.Chemscore.Hbond>
1.9867

> <Gold.Chemscore.Metal>
0.0000

> <Gold.Chemscore.Lipo>
87.8903

> <Gold.Chemscore.Internal_Hbond>
0.0000

> <Gold.Chemscore.DEClash>
0.4092

> <Gold.Chemscore.DEInternal>
2.1115

> <Gold.Chemscore.Rot>
1.9963

> <Gold.Chemscore.Internal.Correction>
   9.000000E+99

> <Gold.Chemscore.Hbonds>
donor molecule, donor type, donor heavy atom, donor atom, acceptor molecule, acceptor atom, score
      L1  H     2    27       P1 10175  0.84
      L1  H     6    47       P1  7957  1.00

> <Gold.Chemscore.Hbond.Weighted>
-6.6356

> <Gold.Chemscore.Metal.Weighted>
-0.0000

> <Gold.Chemscore.Lipo.Weighted>
-10.2832

> <Gold.Chemscore.Internal_Hbond.Weighted>
0.0000

> <Gold.Chemscore.DEClash.Weighted>
0.4092

> <Gold.Chemscore.DEInternal.Weighted>
2.1115

> <Gold.Chemscore.Rot.Weighted>
5.1105

> <Gold.Chemscore.Internal.Correction.Weighted>
   9.000000E+99

> <Gold.Protein.RotatedTorsions>
[ 6907 6896 6895 6894 ] final   64.07 input  -60.11 | X-H torsion
[ 7974 7965 7964 7962 ] final  150.15 input  175.53 | X-H torsion
[ 8008 7997 7996 7995 ] final   98.13 input   59.86 | X-H torsion
[ 10167 10162 10161 10158 ] final  111.04 input  -65.29 | X-H torsion
[ 10718 10713 10712 10709 ] final  159.28 input   66.30 | X-H torsion
[ 10763 10752 10751 10750 ] final   37.84 input  -60.55 | X-H torsion
[ 11005 11000 10999 10996 ] final   19.29 input  -57.11 | X-H torsion

> <Gold.Protein.ActiveResidues>
 VAL166  LYS551  ARG553  GLY616  TRP617  ASP618  TYR619  PRO620  LYS621  CYS622 
 ASP623  PHE694  ASN695  SER759  ASP760  ASP761  ALA762  ILE779  LEU786  VAL792 
 PHE793  MET794  SER795  GLU796  ALA797  LYS798  CYS799  TRP800  GLU811  SER814 

> <Gold.Protein.RotatedAtoms>
  152.4303  134.5791  159.9942 H   0  0  0  0  0  0  0  0  0  0  0  0  # atno 6907 bound_to 6896
  151.5916  133.3360  159.3037 H   0  0  0  0  0  0  0  0  0  0  0  0  # atno 6908 bound_to 6896
  150.8195  134.7431  159.6824 H   0  0  0  0  0  0  0  0  0  0  0  0  # atno 6909 bound_to 6896
  144.8385  139.6371  143.6027 H   0  0  0  0  0  0  0  0  0  0  0  0  # atno 7974 bound_to 7965
  156.0973  140.3248  155.7894 H   0  0  0  0  0  0  0  0  0  0  0  0  # atno 8008 bound_to 7997
  155.4896  140.0560  157.2973 H   0  0  0  0  0  0  0  0  0  0  0  0  # atno 8009 bound_to 7997
  154.4674  140.1995  156.0097 H   0  0  0  0  0  0  0  0  0  0  0  0  # atno 8010 bound_to 7997
  139.6641  144.7128  151.1809 H   0  0  0  0  0  0  0  0  0  0  0  0  # atno 10167 bound_to 10162
  157.1664  131.0599  151.2205 H   0  0  0  0  0  0  0  0  0  0  0  0  # atno 10718 bound_to 10713
  153.0023  135.6266  154.2209 H   0  0  0  0  0  0  0  0  0  0  0  0  # atno 10763 bound_to 10752
  154.1952  135.2807  155.3011 H   0  0  0  0  0  0  0  0  0  0  0  0  # atno 10764 bound_to 10752
  154.5728  135.5671  153.7170 H   0  0  0  0  0  0  0  0  0  0  0  0  # atno 10765 bound_to 10752
  140.4154  134.1574  155.7669 H   0  0  0  0  0  0  0  0  0  0  0  0  # atno 11005 bound_to 11000
  146.2681  139.6568  142.9315 LP  0  0  0  0  0  0  0  0  0  0  0  0  # atno 17320 bound_to 7965
  145.4743  141.0437  143.2681 LP  0  0  0  0  0  0  0  0  0  0  0  0  # atno 17321 bound_to 7965
  140.7592  143.5947  150.8761 LP  0  0  0  0  0  0  0  0  0  0  0  0  # atno 17342 bound_to 10162
  139.9607  143.6167  152.3003 LP  0  0  0  0  0  0  0  0  0  0  0  0  # atno 17343 bound_to 10162
  157.4084  130.7372  149.6820 LP  0  0  0  0  0  0  0  0  0  0  0  0  # atno 17370 bound_to 10713
  155.9745  130.4102  150.3917 LP  0  0  0  0  0  0  0  0  0  0  0  0  # atno 17371 bound_to 10713
  141.1805  133.8424  157.1275 LP  0  0  0  0  0  0  0  0  0  0  0  0  # atno 17394 bound_to 11000
  140.0238  134.9933  157.0644 LP  0  0  0  0  0  0  0  0  0  0  0  0  # atno 17395 bound_to 11000

$$$$
