AV-unprocessed.smi:283|AV-procd|sdf|2140|dock4
  -GOLD-   2262021463D 1   1.00000     0.00000
 Structure written by MMmdl.
 48 51  0  0  0  0  0  0  0  0  1 V2000
  151.8364  144.6108  157.5941 C   0  0  0  0  0  0  0  0  0  0  0  0
  151.6522  143.1628  158.0679 C   0  0  1  0  0  0  0  0  0  0  0  0
  152.1610  142.2430  157.0524 N   0  0  0  0  0  0  0  0  0  0  0  0
  151.3560  141.3184  156.4832 C   0  0  0  0  0  0  0  0  0  0  0  0
  150.0728  141.7031  156.2851 N   0  0  0  0  0  0  0  0  0  0  0  0
  149.2066  140.8726  155.6991 C   0  0  0  0  0  0  0  0  0  0  0  0
  149.4147  139.6358  155.2456 N   0  0  0  0  0  0  0  0  0  0  0  0
  150.7009  139.2313  155.4582 C   0  0  0  0  0  0  0  0  0  0  0  0
  151.7279  140.0039  156.0724 C   0  0  0  0  0  0  0  0  0  0  0  0
  152.8964  139.2523  156.1249 N   0  0  0  0  0  0  0  0  0  0  0  0
  152.5827  138.1209  155.5564 C   0  0  0  0  0  0  0  0  0  0  0  0
  151.2825  138.0253  155.1185 N   0  0  0  0  0  0  0  0  0  0  0  0
  150.6429  136.8671  154.4191 C   0  0  1  0  0  0  0  0  0  0  0  0
  151.4897  135.7662  154.4787 O   0  0  0  0  0  0  0  0  0  0  0  0
  150.7158  134.5713  154.4481 C   0  0  1  0  0  0  0  0  0  0  0  0
  151.3074  133.5676  155.4549 C   0  0  0  0  0  0  0  0  0  0  0  0
  150.6512  132.3178  155.4038 O   0  0  0  0  0  0  0  0  0  0  0  0
  149.2421  134.9687  154.6799 C   0  0  2  0  0  0  0  0  0  0  0  0
  148.5188  134.8124  153.4735 O   0  0  0  0  0  0  0  0  0  0  0  0
  149.3086  136.4449  155.0508 C   0  0  1  0  0  0  0  0  0  0  0  0
  149.2668  136.6208  156.4552 O   0  0  0  0  0  0  0  0  0  0  0  0
  152.2571  142.9793  159.4634 C   0  0  0  0  0  0  0  0  0  0  0  0
  153.2330  141.9792  159.6849 C   0  0  0  0  0  0  0  0  0  0  0  0
  153.7929  141.7917  160.9623 C   0  0  0  0  0  0  0  0  0  0  0  0
  153.3911  142.6105  162.0326 C   0  0  0  0  0  0  0  0  0  0  0  0
  152.4341  143.6197  161.8210 C   0  0  0  0  0  0  0  0  0  0  0  0
  151.8688  143.8108  160.5443 C   0  0  0  0  0  0  0  0  0  0  0  0
  150.7066  145.0750  160.3415 Cl  0  0  0  0  0  0  0  0  0  0  0  0
  150.5337  137.1827  153.3805 H   0  0  0  0  0  0  0  0  0  0  0  0
  150.8373  134.1489  153.4490 H   0  0  0  0  0  0  0  0  0  0  0  0
  148.7496  134.3677  155.4457 H   0  0  0  0  0  0  0  0  0  0  0  0
  148.4972  137.0303  154.6161 H   0  0  0  0  0  0  0  0  0  0  0  0
  151.3860  145.3134  158.2960 H   0  0  0  0  0  0  0  0  0  0  0  0
  151.3656  144.7708  156.6236 H   0  0  0  0  0  0  0  0  0  0  0  0
  152.8924  144.8667  157.4998 H   0  0  0  0  0  0  0  0  0  0  0  0
  150.5796  142.9850  158.1203 H   0  0  0  0  0  0  0  0  0  0  0  0
  153.1664  142.1536  157.0332 H   0  0  0  0  0  0  0  0  0  0  0  0
  148.2045  141.2544  155.5707 H   0  0  0  0  0  0  0  0  0  0  0  0
  153.2993  137.3218  155.4340 H   0  0  0  0  0  0  0  0  0  0  0  0
  152.3609  133.3988  155.2302 H   0  0  0  0  0  0  0  0  0  0  0  0
  151.2563  133.9653  156.4687 H   0  0  0  0  0  0  0  0  0  0  0  0
  149.7185  132.4712  155.3665 H   0  0  0  0  0  0  0  0  0  0  0  0
  148.7866  135.4918  152.8736 H   0  0  0  0  0  0  0  0  0  0  0  0
  148.3708  136.5279  156.7412 H   0  0  0  0  0  0  0  0  0  0  0  0
  153.5565  141.3433  158.8739 H   0  0  0  0  0  0  0  0  0  0  0  0
  154.5315  141.0196  161.1197 H   0  0  0  0  0  0  0  0  0  0  0  0
  153.8200  142.4685  163.0135 H   0  0  0  0  0  0  0  0  0  0  0  0
  152.1337  144.2520  162.6435 H   0  0  0  0  0  0  0  0  0  0  0  0
  1  2  1  0  0  0  0
  1 33  1  0  0  0  0
  1 34  1  0  0  0  0
  1 35  1  0  0  0  0
  2  3  1  0  0  0  0
  2 22  1  0  0  0  0
  2 36  1  0  0  0  0
  3  4  1  0  0  0  0
  3 37  1  0  0  0  0
  4  9  1  0  0  0  0
  4  5  2  0  0  0  0
  5  6  1  0  0  0  0
  6  7  2  0  0  0  0
  6 38  1  0  0  0  0
  7  8  1  0  0  0  0
  8 12  1  0  0  0  0
  8  9  2  0  0  0  0
  9 10  1  0  0  0  0
 10 11  2  0  0  0  0
 11 12  1  0  0  0  0
 11 39  1  0  0  0  0
 12 13  1  0  0  0  0
 13 29  1  0  0  0  0
 13 20  1  0  0  0  0
 13 14  1  0  0  0  0
 14 15  1  0  0  0  0
 15 30  1  0  0  0  0
 15 16  1  0  0  0  0
 15 18  1  0  0  0  0
 16 17  1  0  0  0  0
 16 40  1  0  0  0  0
 16 41  1  0  0  0  0
 17 42  1  0  0  0  0
 18 31  1  0  0  0  0
 18 19  1  0  0  0  0
 18 20  1  0  0  0  0
 19 43  1  0  0  0  0
 20 32  1  0  0  0  0
 20 21  1  0  0  0  0
 21 44  1  0  0  0  0
 22 27  1  0  0  0  0
 22 23  2  0  0  0  0
 23 24  1  0  0  0  0
 23 45  1  0  0  0  0
 24 25  2  0  0  0  0
 24 46  1  0  0  0  0
 25 26  1  0  0  0  0
 25 47  1  0  0  0  0
 26 27  2  0  0  0  0
 26 48  1  0  0  0  0
 27 28  1  0  0  0  0
M  END
> <s_m_source_file>
AV-unprocessed.smi

> <i_m_source_file_index>
283

> <i_lp_mmshare_version>
43012

> <i_f3d_flags>
0

> <s_epik_input>
Q2xjMVtjSF1bY0hdW2NIXVtjSF1jMVtDQEhdKFtDSDNdKVtOSF1jKG5bY0hdbjIpYyhjMjMpbltjSF1uM1tDQEBIXTRPW0NASF0oW0NIMl1bT0hdKVtDQEBIXShbT0hdKVtDQEhdNFtPSF0=

> <s_epik_cmdline>
J2VwaWtfcHl0aG9uJywgJy1waCcsICc3LjAnLCAnLXRuJywgJzgnLCAnLW1hJywgJzIwMCcsICctbWV0YWxfYmluZGluZycsICctaW1hZScsICc8aW5maWxlLm1hZT4nLCAnLW9tYWUnLCAnPG91dGZpbGUubWFlPic=

> <r_lp_tautomer_probability>
1

> <r_epik_Ionization_Penalty>
0.000266407

> <r_epik_Ionization_Penalty_Charging>
0

> <r_epik_Ionization_Penalty_Neutral>
0.000266407

> <r_epik_State_Penalty>
-0

> <r_epik_Charging_Adjusted_Penalty>
0

> <i_epik_Tot_Q>
0

> <i_epik_Tot_abs_Q>
0

> <r_epik_Metal_State_Penalty>
-0

> <b_epik_Metal_Only>
0

> <s_epik_Chemistry_Notes>
This compound contains an acetal/aminal-like group ( X-CH(R)-Y where X, Y are N, S, or O) that may be acid/base labile, releasing an aldehyde.

> <s_lp_Force_Field>
OPLS_2005

> <r_lp_Energy>
47.3301

> <b_lp_Chiralities_Consistent>
1

> <s_lp_Variant>
AV-unprocessed.smi:283-16

> <Gold.Version>
5.8.1

> <Gold.Id.Protein>
6NUR|6NUR_protein|mol2

> <Gold.PLP.Fitness>
55.7317

> <Gold.PLP.PLP>
-47.6552

> <Gold.PLP.part.hbond>
-3.0000

> <Gold.PLP.part.metal>
0.0000

> <Gold.PLP.part.buried>
-1.4137

> <Gold.PLP.part.nonpolar>
-44.3197

> <Gold.PLP.part.repulsive>
0.4105

> <Gold.PLP.ligand.clash>
0.0000

> <Gold.PLP.ligand.torsion>
0.4965

> <Gold.PLP.Chemscore.Hbond>
3.0000

> <Gold.PLP.Chemscore.CHOScore>
0.0000

> <Gold.PLP.Chemscore.Metal>
0.0000

> <Gold.Chemscore.Hbonds>
donor molecule, donor type, donor heavy atom, donor atom, acceptor molecule, acceptor atom, score
      L1  H    19    43       P1  7948  0.26
      P1  H  7997  8010       L1    10  1.00
      P1  H 10752 10763       L1    14  0.80

> <Gold.PLP.Chemscore.Internal.Correction>
0.0694

> <Gold.Rescore>
     Score         DG    S(hbond)    S(metal)    S(lipo)     H(rot)  DE(clash)    DE(int)     intcor
     17.15     -19.21       2.89        0.00     124.50       4.10       1.46       0.60       ----

> <Gold.Chemscore.Fitness>
17.1527

> <Gold.Chemscore.DG>
-19.2102

> <Gold.Chemscore.ZeroCoef>
-5.4800

> <Gold.Chemscore.Hbond>
2.8897

> <Gold.Chemscore.Metal>
0.0000

> <Gold.Chemscore.Lipo>
124.4991

> <Gold.Chemscore.Internal_Hbond>
0.0000

> <Gold.Chemscore.DEClash>
1.4565

> <Gold.Chemscore.DEInternal>
0.6010

> <Gold.Chemscore.Rot>
4.0968

> <Gold.Chemscore.Internal.Correction>
   9.000000E+99

> <Gold.Chemscore.Hbonds>
donor molecule, donor type, donor heavy atom, donor atom, acceptor molecule, acceptor atom, score
      L1  H    19    43       P1  7948  0.20
      P1  H  7997  8010       L1    10  0.93
      P1  H 10752 10763       L1    14  0.70

> <Gold.Chemscore.Hbond.Weighted>
-9.6517

> <Gold.Chemscore.Metal.Weighted>
-0.0000

> <Gold.Chemscore.Lipo.Weighted>
-14.5664

> <Gold.Chemscore.Internal_Hbond.Weighted>
0.0000

> <Gold.Chemscore.DEClash.Weighted>
1.4565

> <Gold.Chemscore.DEInternal.Weighted>
0.6010

> <Gold.Chemscore.Rot.Weighted>
10.4879

> <Gold.Chemscore.Internal.Correction.Weighted>
   9.000000E+99

> <Gold.Protein.RotatedTorsions>
[ 6907 6896 6895 6894 ] final    1.34 input  -60.11 | X-H torsion
[ 7974 7965 7964 7962 ] final   58.70 input  175.53 | X-H torsion
[ 8008 7997 7996 7995 ] final   80.83 input   59.86 | X-H torsion
[ 10167 10162 10161 10158 ] final  156.44 input  -65.29 | X-H torsion
[ 10718 10713 10712 10709 ] final -141.44 input   66.30 | X-H torsion
[ 10763 10752 10751 10750 ] final   59.56 input  -60.55 | X-H torsion
[ 11005 11000 10999 10996 ] final  -99.07 input  -57.11 | X-H torsion

> <Gold.Protein.ActiveResidues>
 VAL166  LYS551  ARG553  GLY616  TRP617  ASP618  TYR619  PRO620  LYS621  CYS622 
 ASP623  PHE694  ASN695  SER759  ASP760  ASP761  ALA762  ILE779  LEU786  VAL792 
 PHE793  MET794  SER795  GLU796  ALA797  LYS798  CYS799  TRP800  GLU811  SER814 

> <Gold.Protein.RotatedAtoms>
  151.5910  135.1053  160.0038 H   0  0  0  0  0  0  0  0  0  0  0  0  # atno 6907 bound_to 6896
  152.4306  133.7267  159.6575 H   0  0  0  0  0  0  0  0  0  0  0  0  # atno 6908 bound_to 6896
  150.8198  133.8201  159.3166 H   0  0  0  0  0  0  0  0  0  0  0  0  # atno 6909 bound_to 6896
  145.9153  139.3686  143.0511 H   0  0  0  0  0  0  0  0  0  0  0  0  # atno 7974 bound_to 7965
  155.8889  140.3440  155.5941 H   0  0  0  0  0  0  0  0  0  0  0  0  # atno 8008 bound_to 7997
  155.7634  140.0835  157.2163 H   0  0  0  0  0  0  0  0  0  0  0  0  # atno 8009 bound_to 7997
  154.4031  140.1531  156.2846 H   0  0  0  0  0  0  0  0  0  0  0  0  # atno 8010 bound_to 7997
  139.4821  144.5009  151.8170 H   0  0  0  0  0  0  0  0  0  0  0  0  # atno 10167 bound_to 10162
  156.3341  130.7602  151.1725 H   0  0  0  0  0  0  0  0  0  0  0  0  # atno 10718 bound_to 10713
  152.9898  135.5567  154.5733 H   0  0  0  0  0  0  0  0  0  0  0  0  # atno 10763 bound_to 10752
  154.5129  135.2803  155.1330 H   0  0  0  0  0  0  0  0  0  0  0  0  # atno 10764 bound_to 10752
  154.2714  135.6362  153.5364 H   0  0  0  0  0  0  0  0  0  0  0  0  # atno 10765 bound_to 10752
  141.1322  133.8293  157.0923 H   0  0  0  0  0  0  0  0  0  0  0  0  # atno 11005 bound_to 11000
  145.8619  140.9470  143.0695 LP  0  0  0  0  0  0  0  0  0  0  0  0  # atno 17320 bound_to 7965
  144.6747  140.0542  143.7478 LP  0  0  0  0  0  0  0  0  0  0  0  0  # atno 17321 bound_to 7965
  140.4502  144.1866  150.5897 LP  0  0  0  0  0  0  0  0  0  0  0  0  # atno 17342 bound_to 10162
  140.4593  143.2455  151.9242 LP  0  0  0  0  0  0  0  0  0  0  0  0  # atno 17343 bound_to 10162
  157.7435  131.0473  150.4937 LP  0  0  0  0  0  0  0  0  0  0  0  0  # atno 17370 bound_to 10713
  156.5107  130.4139  149.6302 LP  0  0  0  0  0  0  0  0  0  0  0  0  # atno 17371 bound_to 10713
  140.0385  134.9866  157.0916 LP  0  0  0  0  0  0  0  0  0  0  0  0  # atno 17394 bound_to 11000
  140.4173  134.1918  155.7164 LP  0  0  0  0  0  0  0  0  0  0  0  0  # atno 17395 bound_to 11000

$$$$
