AV-unprocessed.smi:1812|AV-procd|sdf|7338|dock5
  -GOLD-   22720 8593D 1   1.00000     0.00000
 Structure written by MMmdl.
 33 35  0  0  0  0  0  0  0  0  2 V2000
  153.9267  139.5520  158.6343 O   0  0  0  0  0  0  0  0  0  0  0  0
  152.7517  139.8121  158.3654 C   0  0  0  0  0  0  0  0  0  0  0  0
  152.2016  140.9492  158.8100 N   0  0  0  0  0  0  0  0  0  0  0  0
  152.8834  141.9548  159.6148 C   0  0  0  0  0  0  0  0  0  0  0  0
  152.0594  143.2483  159.6894 C   0  0  2  0  0  0  0  0  0  0  0  0
  152.3818  144.2741  158.6022 C   0  0  0  0  0  0  0  0  0  0  0  0
  151.9266  145.5584  159.2559 C   0  0  0  0  0  0  0  0  0  0  0  0
  152.3448  145.3357  160.7066 C   0  0  0  0  0  0  0  0  0  0  0  0
  152.3048  143.9264  160.9188 O   0  0  0  0  0  0  0  0  0  0  0  0
  151.9055  139.0464  157.6392 N   0  5  0  0  0  0  0  0  0  0  0  0
  151.1419  139.6061  156.6863 C   0  0  0  0  0  0  0  0  0  0  0  0
  151.3485  139.3901  155.3794 N   0  0  0  0  0  0  0  0  0  0  0  0
  150.4546  140.0724  154.5670 N   0  0  0  0  0  0  0  0  0  0  0  0
  149.5883  140.8029  155.2731 C   0  0  0  0  0  0  0  0  0  0  0  0
  148.5303  141.6334  154.6266 C   0  0  0  0  0  0  0  0  0  0  0  0
  147.1213  141.6498  155.1735 C   0  0  0  0  0  0  0  0  0  0  0  0
  147.4003  141.0080  153.8381 C   0  0  0  0  0  0  0  0  0  0  0  0
  149.8039  140.7067  157.0137 S   0  0  0  0  0  0  0  0  0  0  0  0
  151.2376  141.1274  158.5697 H   0  0  0  0  0  0  0  0  0  0  0  0
  153.0463  141.5635  160.6200 H   0  0  0  0  0  0  0  0  0  0  0  0
  153.8658  142.1585  159.1860 H   0  0  0  0  0  0  0  0  0  0  0  0
  150.9943  143.0127  159.6541 H   0  0  0  0  0  0  0  0  0  0  0  0
  153.4557  144.3113  158.4129 H   0  0  0  0  0  0  0  0  0  0  0  0
  151.8740  144.0706  157.6589 H   0  0  0  0  0  0  0  0  0  0  0  0
  152.3742  146.4489  158.8140 H   0  0  0  0  0  0  0  0  0  0  0  0
  150.8416  145.6487  159.1862 H   0  0  0  0  0  0  0  0  0  0  0  0
  153.3679  145.6786  160.8650 H   0  0  0  0  0  0  0  0  0  0  0  0
  151.6988  145.8626  161.4092 H   0  0  0  0  0  0  0  0  0  0  0  0
  148.9469  142.5701  154.2615 H   0  0  0  0  0  0  0  0  0  0  0  0
  146.8961  140.9899  156.0092 H   0  0  0  0  0  0  0  0  0  0  0  0
  146.5947  142.6019  155.1750 H   0  0  0  0  0  0  0  0  0  0  0  0
  147.0616  141.5327  152.9473 H   0  0  0  0  0  0  0  0  0  0  0  0
  147.3458  139.9223  153.7874 H   0  0  0  0  0  0  0  0  0  0  0  0
  1  2  2  0  0  0  0
  2  3  1  0  0  0  0
  2 10  1  0  0  0  0
  3  4  1  0  0  0  0
  3 19  1  0  0  0  0
  4  5  1  0  0  0  0
  4 20  1  0  0  0  0
  4 21  1  0  0  0  0
  5  9  1  0  0  0  0
  5  6  1  0  0  0  0
  5 22  1  0  0  0  0
  6  7  1  0  0  0  0
  6 23  1  0  0  0  0
  6 24  1  0  0  0  0
  7  8  1  0  0  0  0
  7 25  1  0  0  0  0
  7 26  1  0  0  0  0
  8  9  1  0  0  0  0
  8 27  1  0  0  0  0
  8 28  1  0  0  0  0
 10 11  1  0  0  0  0
 11 18  1  0  0  0  0
 11 12  2  0  0  0  0
 12 13  1  0  0  0  0
 13 14  2  0  0  0  0
 14 15  1  0  0  0  0
 14 18  1  0  0  0  0
 15 17  1  0  0  0  0
 15 16  1  0  0  0  0
 15 29  1  0  0  0  0
 16 17  1  0  0  0  0
 16 30  1  0  0  0  0
 16 31  1  0  0  0  0
 17 32  1  0  0  0  0
 17 33  1  0  0  0  0
M  CHG  1  10  -1
M  END
> <s_m_source_file>
AV-unprocessed.smi

> <i_m_source_file_index>
1812

> <i_lp_mmshare_version>
43012

> <i_f3d_flags>
0

> <s_epik_input>
TzFbQ0gyXVtDSDJdW0NIMl1bQ0BIXTFbQ0gyXVtOSF1DKD1PKVtOSF1jMm5uYyhzMilbQ0hdM1tDSDJdW0NIMl0z

> <s_epik_cmdline>
J2VwaWtfcHl0aG9uJywgJy1waCcsICc3LjAnLCAnLXRuJywgJzgnLCAnLW1hJywgJzIwMCcsICctbWV0YWxfYmluZGluZycsICctaW1hZScsICc8aW5maWxlLm1hZT4nLCAnLW9tYWUnLCAnPG91dGZpbGUubWFlPic=

> <r_lp_tautomer_probability>
1

> <r_epik_Ionization_Penalty>
4.72991

> <r_epik_Ionization_Penalty_Charging>
4.58249

> <r_epik_Ionization_Penalty_Neutral>
0.147417

> <r_epik_State_Penalty>
4.58223

> <r_epik_Charging_Adjusted_Penalty>
9.16473

> <i_epik_Tot_Q>
-1

> <i_epik_Tot_abs_Q>
1

> <r_epik_Metal_State_Penalty>
0.861876

> <b_epik_Metal_Only>
1

> <s_lp_Force_Field>
OPLS_2005

> <r_lp_Energy>
13.803

> <b_lp_Chiralities_Consistent>
1

> <s_lp_Variant>
AV-unprocessed.smi:1812-3

> <Gold.Version>
5.8.1

> <Gold.Id.Protein>
6NUR|6NUR_protein|mol2

> <Gold.PLP.Fitness>
39.3418

> <Gold.PLP.PLP>
-37.5413

> <Gold.PLP.part.hbond>
-2.2615

> <Gold.PLP.part.metal>
0.0000

> <Gold.PLP.part.buried>
-2.8770

> <Gold.PLP.part.nonpolar>
-31.6137

> <Gold.PLP.part.repulsive>
0.3514

> <Gold.PLP.ligand.clash>
0.8294

> <Gold.PLP.ligand.torsion>
1.7424

> <Gold.PLP.Chemscore.Hbond>
1.9913

> <Gold.PLP.Chemscore.CHOScore>
0.0000

> <Gold.PLP.Chemscore.Metal>
0.0000

> <Gold.Chemscore.Hbonds>
donor molecule, donor type, donor heavy atom, donor atom, acceptor molecule, acceptor atom, score
      P1  H  7989  7998       L1    13  0.95
      P1  H  7997  8010       L1     1  1.00

> <Gold.PLP.Chemscore.Internal.Correction>
0.1409

> <Gold.Rescore>
     Score         DG    S(hbond)    S(metal)    S(lipo)     H(rot)  DE(clash)    DE(int)     intcor
     14.21     -16.42       1.22        0.00      90.48       1.45       0.06       2.15       ----

> <Gold.Chemscore.Fitness>
14.2146

> <Gold.Chemscore.DG>
-16.4248

> <Gold.Chemscore.ZeroCoef>
-5.4800

> <Gold.Chemscore.Hbond>
1.2151

> <Gold.Chemscore.Metal>
0.0000

> <Gold.Chemscore.Lipo>
90.4787

> <Gold.Chemscore.Internal_Hbond>
0.0000

> <Gold.Chemscore.DEClash>
0.0628

> <Gold.Chemscore.DEInternal>
2.1474

> <Gold.Chemscore.Rot>
1.4451

> <Gold.Chemscore.Internal.Correction>
   9.000000E+99

> <Gold.Chemscore.Hbonds>
donor molecule, donor type, donor heavy atom, donor atom, acceptor molecule, acceptor atom, score
      P1  H  7989  7998       L1    13  0.21
      P1  H  7997  8010       L1     1  0.74

> <Gold.Chemscore.Hbond.Weighted>
-4.0583

> <Gold.Chemscore.Metal.Weighted>
-0.0000

> <Gold.Chemscore.Lipo.Weighted>
-10.5860

> <Gold.Chemscore.Internal_Hbond.Weighted>
0.0000

> <Gold.Chemscore.DEClash.Weighted>
0.0628

> <Gold.Chemscore.DEInternal.Weighted>
2.1474

> <Gold.Chemscore.Rot.Weighted>
3.6995

> <Gold.Chemscore.Internal.Correction.Weighted>
   9.000000E+99

> <Gold.Protein.RotatedTorsions>
[ 6907 6896 6895 6894 ] final  -79.78 input  -60.11 | X-H torsion
[ 7974 7965 7964 7962 ] final  -91.60 input  175.53 | X-H torsion
[ 8008 7997 7996 7995 ] final    7.49 input   59.86 | X-H torsion
[ 10167 10162 10161 10158 ] final   83.10 input  -65.29 | X-H torsion
[ 10718 10713 10712 10709 ] final   -0.71 input   66.30 | X-H torsion
[ 10763 10752 10751 10750 ] final  141.69 input  -60.55 | X-H torsion
[ 11005 11000 10999 10996 ] final   45.36 input  -57.11 | X-H torsion

> <Gold.Protein.ActiveResidues>
 VAL166  LYS551  ARG553  GLY616  TRP617  ASP618  TYR619  PRO620  LYS621  CYS622 
 ASP623  PHE694  ASN695  SER759  ASP760  ASP761  ALA762  ILE779  LEU786  VAL792 
 PHE793  MET794  SER795  GLU796  ALA797  LYS798  CYS799  TRP800  GLU811  SER814 

> <Gold.Protein.RotatedAtoms>
  150.6942  134.4070  159.5144 H   0  0  0  0  0  0  0  0  0  0  0  0  # atno 6907 bound_to 6896
  152.1834  134.8731  160.0533 H   0  0  0  0  0  0  0  0  0  0  0  0  # atno 6908 bound_to 6896
  151.9713  133.3692  159.4109 H   0  0  0  0  0  0  0  0  0  0  0  0  # atno 6909 bound_to 6896
  145.4110  140.9545  143.2234 H   0  0  0  0  0  0  0  0  0  0  0  0  # atno 7974 bound_to 7965
  154.7545  140.2773  155.6265 H   0  0  0  0  0  0  0  0  0  0  0  0  # atno 8008 bound_to 7997
  156.2903  140.2672  156.2234 H   0  0  0  0  0  0  0  0  0  0  0  0  # atno 8009 bound_to 7997
  155.0095  140.0372  157.2383 H   0  0  0  0  0  0  0  0  0  0  0  0  # atno 8010 bound_to 7997
  139.9219  144.6207  150.8431 H   0  0  0  0  0  0  0  0  0  0  0  0  # atno 10167 bound_to 10162
  156.8164  130.5441  149.5702 H   0  0  0  0  0  0  0  0  0  0  0  0  # atno 10718 bound_to 10713
  153.9435  135.2977  155.3442 H   0  0  0  0  0  0  0  0  0  0  0  0  # atno 10763 bound_to 10752
  154.7464  135.5001  153.9215 H   0  0  0  0  0  0  0  0  0  0  0  0  # atno 10764 bound_to 10752
  153.1030  135.6739  153.9744 H   0  0  0  0  0  0  0  0  0  0  0  0  # atno 10765 bound_to 10752
  140.1467  134.4514  155.8410 H   0  0  0  0  0  0  0  0  0  0  0  0  # atno 11005 bound_to 11000
  144.8309  139.5630  143.6944 LP  0  0  0  0  0  0  0  0  0  0  0  0  # atno 17320 bound_to 7965
  146.2705  139.6623  142.9299 LP  0  0  0  0  0  0  0  0  0  0  0  0  # atno 17321 bound_to 7965
  140.7660  143.3291  151.2450 LP  0  0  0  0  0  0  0  0  0  0  0  0  # atno 17342 bound_to 10162
  139.6854  143.9782  152.2831 LP  0  0  0  0  0  0  0  0  0  0  0  0  # atno 17343 bound_to 10162
  156.1014  130.5972  150.9901 LP  0  0  0  0  0  0  0  0  0  0  0  0  # atno 17370 bound_to 10713
  157.6480  131.0901  150.8113 LP  0  0  0  0  0  0  0  0  0  0  0  0  # atno 17371 bound_to 10713
  141.2193  133.6855  156.7347 LP  0  0  0  0  0  0  0  0  0  0  0  0  # atno 17394 bound_to 11000
  140.2655  134.8433  157.3798 LP  0  0  0  0  0  0  0  0  0  0  0  0  # atno 17395 bound_to 11000

$$$$
