AV-unprocessed.smi:3303|AV-procd|sdf|12695|dock3
  -GOLD-   2272019 33D 1   1.00000     0.00000
 Structure written by MMmdl.
 44 45  0  0  0  0  0  0  0  0  2 V2000
  150.7223  138.3395  153.9078 C   0  0  0  0  0  0  0  0  0  0  0  0
  149.5006  138.6111  154.8103 C   0  0  2  0  0  0  0  0  0  0  0  0
  148.3728  137.5950  154.5497 C   0  0  0  0  0  0  0  0  0  0  0  0
  147.7191  137.8035  153.2298 N   0  3  1  0  0  0  0  0  0  0  0  0
  146.7472  136.7195  152.9468 C   0  0  0  0  0  0  0  0  0  0  0  0
  147.1530  139.1798  153.0888 C   0  0  2  0  0  0  0  0  0  0  0  0
  146.5128  139.4194  151.7075 C   0  0  0  0  0  0  0  0  0  0  0  0
  148.2425  140.2433  153.3417 C   0  0  0  0  0  0  0  0  0  0  0  0
  148.9280  140.0453  154.7024 C   0  0  2  0  0  0  0  0  0  0  0  0
  149.9377  141.0834  154.8823 N   0  0  0  0  0  0  0  0  0  0  0  0
  150.7022  140.8944  156.1070 C   0  0  0  0  0  0  0  0  0  0  0  0
  150.8303  142.2319  156.8483 C   0  0  0  0  0  0  0  0  0  0  0  0
  151.5987  142.0880  158.1484 C   0  0  0  0  0  0  0  0  0  0  0  0
  151.8447  143.2092  158.9692 C   0  0  0  0  0  0  0  0  0  0  0  0
  152.5716  143.0216  160.1608 C   0  0  0  0  0  0  0  0  0  0  0  0
  153.0235  141.7276  160.4833 C   0  0  0  0  0  0  0  0  0  0  0  0
  152.7268  140.6739  159.5961 C   0  0  0  0  0  0  0  0  0  0  0  0
  152.0305  140.8428  158.4511 N   0  0  0  0  0  0  0  0  0  0  0  0
  150.4858  138.4535  152.8500 H   0  0  0  0  0  0  0  0  0  0  0  0
  151.0916  137.3239  154.0511 H   0  0  0  0  0  0  0  0  0  0  0  0
  151.5475  139.0140  154.1374 H   0  0  0  0  0  0  0  0  0  0  0  0
  149.8290  138.4498  155.8372 H   0  0  0  0  0  0  0  0  0  0  0  0
  148.7768  136.5831  154.6080 H   0  0  0  0  0  0  0  0  0  0  0  0
  147.6190  137.6717  155.3352 H   0  0  0  0  0  0  0  0  0  0  0  0
  145.8662  136.8080  153.5838 H   0  0  0  0  0  0  0  0  0  0  0  0
  147.1957  135.7415  153.1244 H   0  0  0  0  0  0  0  0  0  0  0  0
  146.4265  136.7291  151.9055 H   0  0  0  0  0  0  0  0  0  0  0  0
  146.3760  139.3014  153.8457 H   0  0  0  0  0  0  0  0  0  0  0  0
  146.1933  140.4567  151.6024 H   0  0  0  0  0  0  0  0  0  0  0  0
  145.6252  138.8061  151.5537 H   0  0  0  0  0  0  0  0  0  0  0  0
  147.2157  139.2086  150.9008 H   0  0  0  0  0  0  0  0  0  0  0  0
  148.9804  140.2151  152.5386 H   0  0  0  0  0  0  0  0  0  0  0  0
  147.7945  141.2375  153.3035 H   0  0  0  0  0  0  0  0  0  0  0  0
  148.1667  140.1787  155.4729 H   0  0  0  0  0  0  0  0  0  0  0  0
  149.4831  141.9848  154.9233 H   0  0  0  0  0  0  0  0  0  0  0  0
  150.2016  140.1642  156.7442 H   0  0  0  0  0  0  0  0  0  0  0  0
  151.6950  140.5076  155.8784 H   0  0  0  0  0  0  0  0  0  0  0  0
  151.3315  142.9653  156.2149 H   0  0  0  0  0  0  0  0  0  0  0  0
  149.8416  142.6385  157.0672 H   0  0  0  0  0  0  0  0  0  0  0  0
  151.4879  144.1908  158.6935 H   0  0  0  0  0  0  0  0  0  0  0  0
  152.7805  143.8552  160.8146 H   0  0  0  0  0  0  0  0  0  0  0  0
  153.5850  141.5462  161.3879 H   0  0  0  0  0  0  0  0  0  0  0  0
  153.0583  139.6689  159.8112 H   0  0  0  0  0  0  0  0  0  0  0  0
  148.4495  137.7196  152.5372 H   0  0  0  0  0  0  0  0  0  0  0  0
  1  2  1  0  0  0  0
  1 19  1  0  0  0  0
  1 20  1  0  0  0  0
  1 21  1  0  0  0  0
  2  9  1  0  0  0  0
  2  3  1  0  0  0  0
  2 22  1  0  0  0  0
  3  4  1  0  0  0  0
  3 23  1  0  0  0  0
  3 24  1  0  0  0  0
  4  5  1  0  0  0  0
  4  6  1  0  0  0  0
  4 44  1  0  0  0  0
  5 25  1  0  0  0  0
  5 26  1  0  0  0  0
  5 27  1  0  0  0  0
  6  7  1  0  0  0  0
  6  8  1  0  0  0  0
  6 28  1  0  0  0  0
  7 29  1  0  0  0  0
  7 30  1  0  0  0  0
  7 31  1  0  0  0  0
  8  9  1  0  0  0  0
  8 32  1  0  0  0  0
  8 33  1  0  0  0  0
  9 10  1  0  0  0  0
  9 34  1  0  0  0  0
 10 11  1  0  0  0  0
 10 35  1  0  0  0  0
 11 12  1  0  0  0  0
 11 36  1  0  0  0  0
 11 37  1  0  0  0  0
 12 13  1  0  0  0  0
 12 38  1  0  0  0  0
 12 39  1  0  0  0  0
 13 18  1  0  0  0  0
 13 14  2  0  0  0  0
 14 15  1  0  0  0  0
 14 40  1  0  0  0  0
 15 16  2  0  0  0  0
 15 41  1  0  0  0  0
 16 17  1  0  0  0  0
 16 42  1  0  0  0  0
 17 18  2  0  0  0  0
 17 43  1  0  0  0  0
M  CHG  1   4   1
M  END
> <s_m_source_file>
AV-unprocessed.smi

> <i_m_source_file_index>
3303

> <i_lp_mmshare_version>
43012

> <i_f3d_flags>
0

> <s_epik_input>
W0NIM11bQ0BASF0xW0NIMl1OKFtDSDNdKVtDQEBIXShbQ0gzXSlbQ0gyXVtDQEhdMVtOSF1bQ0gyXVtDSDJdYzJbY0hdW2NIXVtjSF1bY0hdbjI=

> <s_epik_cmdline>
J2VwaWtfcHl0aG9uJywgJy1waCcsICc3LjAnLCAnLXRuJywgJzgnLCAnLW1hJywgJzIwMCcsICctbWV0YWxfYmluZGluZycsICctaW1hZScsICc8aW5maWxlLm1hZT4nLCAnLW9tYWUnLCAnPG91dGZpbGUubWFlPic=

> <r_epik_Ionization_Penalty>
2.31085

> <r_epik_Ionization_Penalty_Charging>
0.000313057

> <r_epik_Ionization_Penalty_Neutral>
2.31054

> <r_epik_State_Penalty>
2.4087

> <r_epik_Charging_Adjusted_Penalty>
2.40902

> <i_epik_Tot_Q>
1

> <i_epik_Tot_abs_Q>
1

> <r_epik_Metal_State_Penalty>
2.30979

> <b_epik_Metal_Only>
0

> <s_lp_Force_Field>
OPLS_2005

> <r_lp_Energy>
24.7509

> <b_lp_Chiralities_Consistent>
1

> <s_lp_Variant>
AV-unprocessed.smi:3303-39

> <Gold.Version>
5.8.1

> <Gold.Id.Protein>
6NUR|6NUR_protein|mol2

> <Gold.PLP.Fitness>
42.1009

> <Gold.PLP.PLP>
-34.7660

> <Gold.PLP.part.hbond>
-2.0000

> <Gold.PLP.part.metal>
0.0000

> <Gold.PLP.part.buried>
3.1725

> <Gold.PLP.part.nonpolar>
-35.5336

> <Gold.PLP.part.repulsive>
0.0071

> <Gold.PLP.ligand.clash>
0.0000

> <Gold.PLP.ligand.torsion>
0.3449

> <Gold.PLP.Chemscore.Hbond>
2.6720

> <Gold.PLP.Chemscore.CHOScore>
0.0000

> <Gold.PLP.Chemscore.Metal>
0.0000

> <Gold.Chemscore.Hbonds>
donor molecule, donor type, donor heavy atom, donor atom, acceptor molecule, acceptor atom, score
      L1  H     4    44       P1  7948  1.02
      P1  H  7989  7998       L1    10  0.33

> <Gold.PLP.Chemscore.Internal.Correction>
0.0087

> <Gold.Rescore>
     Score         DG    S(hbond)    S(metal)    S(lipo)     H(rot)  DE(clash)    DE(int)     intcor
     16.24     -18.29       0.97        0.00     110.91       1.33       1.55       0.51       ----

> <Gold.Chemscore.Fitness>
16.2357

> <Gold.Chemscore.DG>
-18.2921

> <Gold.Chemscore.ZeroCoef>
-5.4800

> <Gold.Chemscore.Hbond>
0.9682

> <Gold.Chemscore.Metal>
0.0000

> <Gold.Chemscore.Lipo>
110.9063

> <Gold.Chemscore.Internal_Hbond>
0.0000

> <Gold.Chemscore.DEClash>
1.5492

> <Gold.Chemscore.DEInternal>
0.5073

> <Gold.Chemscore.Rot>
1.3272

> <Gold.Chemscore.Internal.Correction>
   9.000000E+99

> <Gold.Chemscore.Hbonds>
donor molecule, donor type, donor heavy atom, donor atom, acceptor molecule, acceptor atom, score
      L1  H     4    44       P1  7948  0.50
      P1  H  7989  7998       L1    10  0.05

> <Gold.Chemscore.Hbond.Weighted>
-3.2337

> <Gold.Chemscore.Metal.Weighted>
-0.0000

> <Gold.Chemscore.Lipo.Weighted>
-12.9760

> <Gold.Chemscore.Internal_Hbond.Weighted>
0.0000

> <Gold.Chemscore.DEClash.Weighted>
1.5492

> <Gold.Chemscore.DEInternal.Weighted>
0.5073

> <Gold.Chemscore.Rot.Weighted>
3.3976

> <Gold.Chemscore.Internal.Correction.Weighted>
   9.000000E+99

> <Gold.Protein.RotatedTorsions>
[ 6907 6896 6895 6894 ] final  108.74 input  -60.11 | X-H torsion
[ 7974 7965 7964 7962 ] final   19.79 input  175.53 | X-H torsion
[ 8008 7997 7996 7995 ] final -137.57 input   59.86 | X-H torsion
[ 10167 10162 10161 10158 ] final  -50.36 input  -65.29 | X-H torsion
[ 10718 10713 10712 10709 ] final  -48.43 input   66.30 | X-H torsion
[ 10763 10752 10751 10750 ] final   -3.98 input  -60.55 | X-H torsion
[ 11005 11000 10999 10996 ] final  -37.50 input  -57.11 | X-H torsion

> <Gold.Protein.ActiveResidues>
 VAL166  LYS551  ARG553  GLY616  TRP617  ASP618  TYR619  PRO620  LYS621  CYS622 
 ASP623  PHE694  ASN695  SER759  ASP760  ASP761  ALA762  ILE779  LEU786  VAL792 
 PHE793  MET794  SER795  GLU796  ALA797  LYS798  CYS799  TRP800  GLU811  SER814 

> <Gold.Protein.RotatedAtoms>
  152.5099  133.9046  159.7457 H   0  0  0  0  0  0  0  0  0  0  0  0  # atno 6907 bound_to 6896
  150.9453  133.6601  159.2789 H   0  0  0  0  0  0  0  0  0  0  0  0  # atno 6908 bound_to 6896
  151.3898  135.0959  159.9575 H   0  0  0  0  0  0  0  0  0  0  0  0  # atno 6909 bound_to 6896
  146.2136  139.8262  142.8669 H   0  0  0  0  0  0  0  0  0  0  0  0  # atno 7974 bound_to 7965
  155.4140  140.0514  157.3030 H   0  0  0  0  0  0  0  0  0  0  0  0  # atno 8008 bound_to 7997
  154.4933  140.2128  155.9461 H   0  0  0  0  0  0  0  0  0  0  0  0  # atno 8009 bound_to 7997
  156.1371  140.3161  155.8443 H   0  0  0  0  0  0  0  0  0  0  0  0  # atno 8010 bound_to 7997
  140.6641  143.2660  151.4349 H   0  0  0  0  0  0  0  0  0  0  0  0  # atno 10167 bound_to 10162
  156.1988  130.4155  149.9269 H   0  0  0  0  0  0  0  0  0  0  0  0  # atno 10718 bound_to 10713
  153.3787  135.6997  153.6582 H   0  0  0  0  0  0  0  0  0  0  0  0  # atno 10763 bound_to 10752
  153.5202  135.3613  155.2629 H   0  0  0  0  0  0  0  0  0  0  0  0  # atno 10764 bound_to 10752
  154.8690  135.4156  154.3080 H   0  0  0  0  0  0  0  0  0  0  0  0  # atno 10765 bound_to 10752
  140.9956  133.6982  156.1929 H   0  0  0  0  0  0  0  0  0  0  0  0  # atno 11005 bound_to 11000
  145.3044  141.0203  143.3590 LP  0  0  0  0  0  0  0  0  0  0  0  0  # atno 17320 bound_to 7965
  144.8982  139.4684  143.6645 LP  0  0  0  0  0  0  0  0  0  0  0  0  # atno 17321 bound_to 7965
  139.5884  144.1554  152.2057 LP  0  0  0  0  0  0  0  0  0  0  0  0  # atno 17342 bound_to 10162
  140.0900  144.5628  150.7061 LP  0  0  0  0  0  0  0  0  0  0  0  0  # atno 17343 bound_to 10162
  156.6985  130.8923  151.3596 LP  0  0  0  0  0  0  0  0  0  0  0  0  # atno 17370 bound_to 10713
  157.6974  130.9296  150.0683 LP  0  0  0  0  0  0  0  0  0  0  0  0  # atno 17371 bound_to 10713
  140.6970  134.4604  157.5587 LP  0  0  0  0  0  0  0  0  0  0  0  0  # atno 17394 bound_to 11000
  139.9013  134.8549  156.1884 LP  0  0  0  0  0  0  0  0  0  0  0  0  # atno 17395 bound_to 11000

$$$$
