AV-unprocessed.smi:2764|AV-procd|sdf|10643|dock7
  -GOLD-   2272015 93D 1   1.00000     0.00000
 Structure written by MMmdl.
 47 49  0  0  0  0  0  0  0  0  2 V2000
  142.9430  135.9031  153.0602 O   0  0  0  0  0  0  0  0  0  0  0  0
  143.1093  137.1226  153.0295 C   0  0  0  0  0  0  0  0  0  0  0  0
  142.1749  138.0440  153.3235 N   0  0  0  0  0  0  0  0  0  0  0  0
  140.8324  137.8320  153.7368 C   0  0  0  0  0  0  0  0  0  0  0  0
  139.8977  138.7662  153.2353 C   0  0  0  0  0  0  0  0  0  0  0  0
  138.5390  138.6440  153.5864 C   0  0  0  0  0  0  0  0  0  0  0  0
  138.1519  137.5886  154.4312 C   0  0  0  0  0  0  0  0  0  0  0  0
  136.8574  137.4299  154.7954 F   0  0  0  0  0  0  0  0  0  0  0  0
  139.1444  136.7019  154.8879 C   0  0  0  0  0  0  0  0  0  0  0  0
  140.4471  136.8184  154.5523 N   0  0  0  0  0  0  0  0  0  0  0  0
  144.2723  137.6999  152.6927 N   0  0  0  0  0  0  0  0  0  0  0  0
  145.4892  136.9864  152.3048 C   0  0  2  0  0  0  0  0  0  0  0  0
  146.3157  136.5454  153.5284 C   0  0  0  0  0  0  0  0  0  0  0  0
  146.9670  137.7407  154.2456 C   0  0  0  0  0  0  0  0  0  0  0  0
  147.8077  138.5392  153.3149 N   0  3  2  0  0  0  0  0  0  0  0  0
  148.5542  139.6163  154.0184 C   0  0  0  0  0  0  0  0  0  0  0  0
  149.7566  139.0898  154.8304 C   0  0  1  0  0  0  0  0  0  0  0  0
  150.7462  138.2147  154.0645 C   0  0  0  0  0  0  0  0  0  0  0  0
  152.1231  138.6217  154.6001 C   0  0  0  0  0  0  0  0  0  0  0  0
  151.8612  139.5251  155.6630 O   0  0  0  0  0  0  0  0  0  0  0  0
  150.6613  140.2071  155.3478 C   0  0  0  0  0  0  0  0  0  0  0  0
  147.0161  139.0279  152.1545 C   0  0  0  0  0  0  0  0  0  0  0  0
  146.3594  137.8639  151.3894 C   0  0  0  0  0  0  0  0  0  0  0  0
  142.4557  139.0102  153.2463 H   0  0  0  0  0  0  0  0  0  0  0  0
  140.2132  139.5704  152.5864 H   0  0  0  0  0  0  0  0  0  0  0  0
  137.8088  139.3470  153.2137 H   0  0  0  0  0  0  0  0  0  0  0  0
  138.8878  135.8782  155.5377 H   0  0  0  0  0  0  0  0  0  0  0  0
  144.3144  138.7085  152.6875 H   0  0  0  0  0  0  0  0  0  0  0  0
  145.1916  136.0998  151.7417 H   0  0  0  0  0  0  0  0  0  0  0  0
  145.6991  135.9804  154.2283 H   0  0  0  0  0  0  0  0  0  0  0  0
  147.0984  135.8598  153.2004 H   0  0  0  0  0  0  0  0  0  0  0  0
  146.2027  138.3802  154.6902 H   0  0  0  0  0  0  0  0  0  0  0  0
  147.5794  137.3639  155.0658 H   0  0  0  0  0  0  0  0  0  0  0  0
  148.8504  140.4031  153.3230 H   0  0  0  0  0  0  0  0  0  0  0  0
  147.8777  140.0928  154.7295 H   0  0  0  0  0  0  0  0  0  0  0  0
  149.3966  138.5355  155.6989 H   0  0  0  0  0  0  0  0  0  0  0  0
  150.5495  137.1564  154.2366 H   0  0  0  0  0  0  0  0  0  0  0  0
  150.7018  138.3945  152.9898 H   0  0  0  0  0  0  0  0  0  0  0  0
  152.7054  137.7689  154.9497 H   0  0  0  0  0  0  0  0  0  0  0  0
  152.6988  139.1322  153.8270 H   0  0  0  0  0  0  0  0  0  0  0  0
  150.8560  140.9541  154.5761 H   0  0  0  0  0  0  0  0  0  0  0  0
  150.2479  140.7124  156.2210 H   0  0  0  0  0  0  0  0  0  0  0  0
  146.2563  139.7301  152.5006 H   0  0  0  0  0  0  0  0  0  0  0  0
  147.6537  139.5742  151.4633 H   0  0  0  0  0  0  0  0  0  0  0  0
  147.1408  137.2478  150.9425 H   0  0  0  0  0  0  0  0  0  0  0  0
  145.7664  138.2480  150.5583 H   0  0  0  0  0  0  0  0  0  0  0  0
  148.5022  137.9013  152.9529 H   0  0  0  0  0  0  0  0  0  0  0  0
  1  2  2  0  0  0  0
  2  3  1  0  0  0  0
  2 11  1  0  0  0  0
  3  4  1  0  0  0  0
  3 24  1  0  0  0  0
  4 10  1  0  0  0  0
  4  5  2  0  0  0  0
  5  6  1  0  0  0  0
  5 25  1  0  0  0  0
  6  7  2  0  0  0  0
  6 26  1  0  0  0  0
  7  8  1  0  0  0  0
  7  9  1  0  0  0  0
  9 10  2  0  0  0  0
  9 27  1  0  0  0  0
 11 12  1  0  0  0  0
 11 28  1  0  0  0  0
 12 23  1  0  0  0  0
 12 13  1  0  0  0  0
 12 29  1  0  0  0  0
 13 14  1  0  0  0  0
 13 30  1  0  0  0  0
 13 31  1  0  0  0  0
 14 15  1  0  0  0  0
 14 32  1  0  0  0  0
 14 33  1  0  0  0  0
 15 16  1  0  0  0  0
 15 22  1  0  0  0  0
 15 47  1  0  0  0  0
 16 17  1  0  0  0  0
 16 34  1  0  0  0  0
 16 35  1  0  0  0  0
 17 21  1  0  0  0  0
 17 18  1  0  0  0  0
 17 36  1  0  0  0  0
 18 19  1  0  0  0  0
 18 37  1  0  0  0  0
 18 38  1  0  0  0  0
 19 20  1  0  0  0  0
 19 39  1  0  0  0  0
 19 40  1  0  0  0  0
 20 21  1  0  0  0  0
 21 41  1  0  0  0  0
 21 42  1  0  0  0  0
 22 23  1  0  0  0  0
 22 43  1  0  0  0  0
 22 44  1  0  0  0  0
 23 45  1  0  0  0  0
 23 46  1  0  0  0  0
M  CHG  1  15   1
M  END
> <s_m_source_file>
AV-unprocessed.smi

> <i_m_source_file_index>
2764

> <i_lp_mmshare_version>
43012

> <i_f3d_flags>
0

> <s_epik_input>
bjFbY0hdYyhGKVtjSF1bY0hdYzFbTkhdQyg9TylbTkhdW0NIXTJbQ0gyXVtDSDJdTihbQ0gyXVtDSDJdMilbQ0gyXVtDQEBIXTNbQ0gyXVtDSDJdT1tDSDJdMw==

> <s_epik_cmdline>
J2VwaWtfcHl0aG9uJywgJy1waCcsICc3LjAnLCAnLXRuJywgJzgnLCAnLW1hJywgJzIwMCcsICctbWV0YWxfYmluZGluZycsICctaW1hZScsICc8aW5maWxlLm1hZT4nLCAnLW9tYWUnLCAnPG91dGZpbGUubWFlPic=

> <r_epik_Ionization_Penalty>
0.0075076

> <r_epik_Ionization_Penalty_Charging>
0.00747775

> <r_epik_Ionization_Penalty_Neutral>
2.98483e-05

> <r_epik_State_Penalty>
0.00558817

> <r_epik_Charging_Adjusted_Penalty>
0.0130659

> <i_epik_Tot_Q>
1

> <i_epik_Tot_abs_Q>
1

> <r_epik_Metal_State_Penalty>
-0

> <b_epik_Metal_Only>
0

> <s_lp_Force_Field>
OPLS_2005

> <r_lp_Energy>
38.1344

> <b_lp_Chiralities_Consistent>
1

> <s_lp_Variant>
AV-unprocessed.smi:2764-4

> <Gold.Version>
5.8.1

> <Gold.Id.Protein>
6NUR|6NUR_protein|mol2

> <Gold.PLP.Fitness>
54.1600

> <Gold.PLP.PLP>
-40.9942

> <Gold.PLP.part.hbond>
-4.5044

> <Gold.PLP.part.metal>
0.0000

> <Gold.PLP.part.buried>
2.0276

> <Gold.PLP.part.nonpolar>
-40.0904

> <Gold.PLP.part.repulsive>
0.2766

> <Gold.PLP.ligand.clash>
0.0000

> <Gold.PLP.ligand.torsion>
0.8229

> <Gold.PLP.Chemscore.Hbond>
3.9840

> <Gold.PLP.Chemscore.CHOScore>
0.9455

> <Gold.PLP.Chemscore.Metal>
0.0000

> <Gold.Chemscore.Hbonds>
donor molecule, donor type, donor heavy atom, donor atom, acceptor molecule, acceptor atom, score
      L1  H     3    24       P1 10175  1.00
      L1  H    11    28       P1 10175  1.00
      L1  H    15    47       P1  7948  1.98
      L1  C     9    27       P1 11000  1.00

> <Gold.PLP.Chemscore.Internal.Correction>
0.0231

> <Gold.Rescore>
     Score         DG    S(hbond)    S(metal)    S(lipo)     H(rot)  DE(clash)    DE(int)     intcor
     18.94     -21.47       2.81        0.00      88.98       1.49       0.68       1.85       ----

> <Gold.Chemscore.Fitness>
18.9439

> <Gold.Chemscore.DG>
-21.4683

> <Gold.Chemscore.ZeroCoef>
-5.4800

> <Gold.Chemscore.Hbond>
2.8113

> <Gold.Chemscore.Metal>
0.0000

> <Gold.Chemscore.Lipo>
88.9788

> <Gold.Chemscore.Internal_Hbond>
0.0000

> <Gold.Chemscore.DEClash>
0.6754

> <Gold.Chemscore.DEInternal>
1.8489

> <Gold.Chemscore.Rot>
1.4891

> <Gold.Chemscore.Internal.Correction>
   9.000000E+99

> <Gold.Chemscore.Hbonds>
donor molecule, donor type, donor heavy atom, donor atom, acceptor molecule, acceptor atom, score
      L1  H     3    24       P1 10175  0.93
      L1  H    11    28       P1 10175  0.98
      L1  H    15    47       P1  7948  0.88

> <Gold.Chemscore.Hbond.Weighted>
-9.3899

> <Gold.Chemscore.Metal.Weighted>
-0.0000

> <Gold.Chemscore.Lipo.Weighted>
-10.4105

> <Gold.Chemscore.Internal_Hbond.Weighted>
0.0000

> <Gold.Chemscore.DEClash.Weighted>
0.6754

> <Gold.Chemscore.DEInternal.Weighted>
1.8489

> <Gold.Chemscore.Rot.Weighted>
3.8121

> <Gold.Chemscore.Internal.Correction.Weighted>
   9.000000E+99

> <Gold.Protein.RotatedTorsions>
[ 6907 6896 6895 6894 ] final -100.20 input  -60.11 | X-H torsion
[ 7974 7965 7964 7962 ] final -175.35 input  175.53 | X-H torsion
[ 8008 7997 7996 7995 ] final   96.65 input   59.86 | X-H torsion
[ 10167 10162 10161 10158 ] final  -53.23 input  -65.29 | X-H torsion
[ 10718 10713 10712 10709 ] final   54.77 input   66.30 | X-H torsion
[ 10763 10752 10751 10750 ] final -132.34 input  -60.55 | X-H torsion
[ 11005 11000 10999 10996 ] final -161.00 input  -57.11 | X-H torsion

> <Gold.Protein.ActiveResidues>
 VAL166  LYS551  ARG553  GLY616  TRP617  ASP618  TYR619  PRO620  LYS621  CYS622 
 ASP623  PHE694  ASN695  SER759  ASP760  ASP761  ALA762  ILE779  LEU786  VAL792 
 PHE793  MET794  SER795  GLU796  ALA797  LYS798  CYS799  TRP800  GLU811  SER814 

> <Gold.Protein.RotatedAtoms>
  150.7107  134.0924  159.3936 H   0  0  0  0  0  0  0  0  0  0  0  0  # atno 6907 bound_to 6896
  151.8910  135.0414  160.0507 H   0  0  0  0  0  0  0  0  0  0  0  0  # atno 6908 bound_to 6896
  152.2492  133.5165  159.5352 H   0  0  0  0  0  0  0  0  0  0  0  0  # atno 6909 bound_to 6896
  144.7128  140.1333  143.6397 H   0  0  0  0  0  0  0  0  0  0  0  0  # atno 7974 bound_to 7965
  156.0819  140.3269  155.7704 H   0  0  0  0  0  0  0  0  0  0  0  0  # atno 8008 bound_to 7997
  155.5139  140.0579  157.2936 H   0  0  0  0  0  0  0  0  0  0  0  0  # atno 8009 bound_to 7997
  154.4587  140.1955  156.0323 H   0  0  0  0  0  0  0  0  0  0  0  0  # atno 8010 bound_to 7997
  140.6496  143.2557  151.4762 H   0  0  0  0  0  0  0  0  0  0  0  0  # atno 10167 bound_to 10162
  157.5286  130.8615  149.8656 H   0  0  0  0  0  0  0  0  0  0  0  0  # atno 10718 bound_to 10713
  154.8744  135.3801  154.4394 H   0  0  0  0  0  0  0  0  0  0  0  0  # atno 10763 bound_to 10752
  153.5080  135.7030  153.5801 H   0  0  0  0  0  0  0  0  0  0  0  0  # atno 10764 bound_to 10752
  153.4103  135.3926  155.2012 H   0  0  0  0  0  0  0  0  0  0  0  0  # atno 10765 bound_to 10752
  140.6253  134.4708  157.5226 H   0  0  0  0  0  0  0  0  0  0  0  0  # atno 11005 bound_to 11000
  145.9267  139.2580  143.1349 LP  0  0  0  0  0  0  0  0  0  0  0  0  # atno 17320 bound_to 7965
  145.9565  140.8869  143.0232 LP  0  0  0  0  0  0  0  0  0  0  0  0  # atno 17321 bound_to 7965
  139.5709  144.1930  152.1835 LP  0  0  0  0  0  0  0  0  0  0  0  0  # atno 17342 bound_to 10162
  140.1226  144.5360  150.6853 LP  0  0  0  0  0  0  0  0  0  0  0  0  # atno 17343 bound_to 10162
  156.0405  130.3740  150.1447 LP  0  0  0  0  0  0  0  0  0  0  0  0  # atno 17370 bound_to 10713
  156.9632  130.9811  151.3474 LP  0  0  0  0  0  0  0  0  0  0  0  0  # atno 17371 bound_to 10713
  139.9137  134.8290  156.1438 LP  0  0  0  0  0  0  0  0  0  0  0  0  # atno 17394 bound_to 11000
  141.0714  133.6795  156.2148 LP  0  0  0  0  0  0  0  0  0  0  0  0  # atno 17395 bound_to 11000

$$$$
