AV-unprocessed.smi:2399|AV-procd|sdf|9499|dock10
  -GOLD-   2272013133D 1   1.00000     0.00000
 Structure written by MMmdl.
 53 55  0  0  0  0  0  0  0  0  2 V2000
  141.2394  138.4979  154.4936 C   0  0  0  0  0  0  0  0  0  0  0  0
  142.6438  138.5200  154.2842 O   0  0  0  0  0  0  0  0  0  0  0  0
  143.1970  137.5592  153.4603 C   0  0  0  0  0  0  0  0  0  0  0  0
  142.4570  136.4891  152.8955 C   0  0  0  0  0  0  0  0  0  0  0  0
  143.1091  135.5596  152.0669 C   0  0  0  0  0  0  0  0  0  0  0  0
  144.4842  135.7314  151.8294 C   0  0  0  0  0  0  0  0  0  0  0  0
  145.2498  134.7704  150.9446 C   0  0  0  0  0  0  0  0  0  0  0  0
  145.1976  136.7451  152.3592 N   0  0  0  0  0  0  0  0  0  0  0  0
  144.5809  137.6485  153.1608 C   0  0  0  0  0  0  0  0  0  0  0  0
  145.2662  138.7412  153.7596 N   0  0  0  0  0  0  0  0  0  0  0  0
  146.3902  138.7193  154.4964 C   0  0  0  0  0  0  0  0  0  0  0  0
  147.0427  137.7128  154.7756 O   0  0  0  0  0  0  0  0  0  0  0  0
  146.7335  139.9533  154.8940 N   0  0  0  0  0  0  0  0  0  0  0  0
  147.9118  140.2780  155.6922 C   0  0  2  0  0  0  0  0  0  0  0  0
  147.5606  141.3463  156.7368 C   0  0  0  0  0  0  0  0  0  0  0  0
  148.8019  141.7696  157.5402 C   0  0  0  0  0  0  0  0  0  0  0  0
  149.8899  142.2626  156.6499 N   0  3  1  0  0  0  0  0  0  0  0  0
  151.0689  142.7874  157.3987 C   0  0  0  0  0  0  0  0  0  0  0  0
  151.6317  141.8124  158.4427 C   0  0  0  0  0  0  0  0  0  0  0  0
  152.4709  142.6848  159.3780 C   0  0  0  0  0  0  0  0  0  0  0  0
  151.8331  144.0792  159.3377 C   0  0  0  0  0  0  0  0  0  0  0  0
  150.7530  144.0280  158.2498 C   0  0  0  0  0  0  0  0  0  0  0  0
  150.2618  141.2303  155.6425 C   0  0  0  0  0  0  0  0  0  0  0  0
  149.0510  140.7982  154.8006 C   0  0  0  0  0  0  0  0  0  0  0  0
  140.9613  139.3217  155.1508 H   0  0  0  0  0  0  0  0  0  0  0  0
  140.9218  137.5716  154.9741 H   0  0  0  0  0  0  0  0  0  0  0  0
  140.6945  138.6255  153.5573 H   0  0  0  0  0  0  0  0  0  0  0  0
  141.4014  136.3614  153.0811 H   0  0  0  0  0  0  0  0  0  0  0  0
  142.5640  134.7379  151.6264 H   0  0  0  0  0  0  0  0  0  0  0  0
  144.6660  133.8724  150.7399 H   0  0  0  0  0  0  0  0  0  0  0  0
  146.1810  134.4668  151.4241 H   0  0  0  0  0  0  0  0  0  0  0  0
  145.4921  135.2454  149.9937 H   0  0  0  0  0  0  0  0  0  0  0  0
  144.8506  139.6467  153.5981 H   0  0  0  0  0  0  0  0  0  0  0  0
  146.1393  140.7226  154.6207 H   0  0  0  0  0  0  0  0  0  0  0  0
  148.2476  139.3813  156.2173 H   0  0  0  0  0  0  0  0  0  0  0  0
  147.1316  142.2213  156.2458 H   0  0  0  0  0  0  0  0  0  0  0  0
  146.7958  140.9668  157.4158 H   0  0  0  0  0  0  0  0  0  0  0  0
  148.4973  142.5454  158.2416 H   0  0  0  0  0  0  0  0  0  0  0  0
  149.1692  140.9315  158.1349 H   0  0  0  0  0  0  0  0  0  0  0  0
  151.8607  143.0359  156.6894 H   0  0  0  0  0  0  0  0  0  0  0  0
  150.8173  141.3542  159.0060 H   0  0  0  0  0  0  0  0  0  0  0  0
  152.2270  141.0118  158.0025 H   0  0  0  0  0  0  0  0  0  0  0  0
  152.5123  142.2768  160.3884 H   0  0  0  0  0  0  0  0  0  0  0  0
  153.4948  142.7420  159.0067 H   0  0  0  0  0  0  0  0  0  0  0  0
  151.3997  144.3489  160.3016 H   0  0  0  0  0  0  0  0  0  0  0  0
  152.5877  144.8298  159.0996 H   0  0  0  0  0  0  0  0  0  0  0  0
  150.7312  144.9465  157.6625 H   0  0  0  0  0  0  0  0  0  0  0  0
  149.7757  143.9157  158.7222 H   0  0  0  0  0  0  0  0  0  0  0  0
  151.0248  141.6118  154.9651 H   0  0  0  0  0  0  0  0  0  0  0  0
  150.6936  140.3656  156.1491 H   0  0  0  0  0  0  0  0  0  0  0  0
  149.3571  140.0276  154.0919 H   0  0  0  0  0  0  0  0  0  0  0  0
  148.7019  141.6435  154.2055 H   0  0  0  0  0  0  0  0  0  0  0  0
  149.5079  143.0435  156.1356 H   0  0  0  0  0  0  0  0  0  0  0  0
  1  2  1  0  0  0  0
  1 25  1  0  0  0  0
  1 26  1  0  0  0  0
  1 27  1  0  0  0  0
  2  3  1  0  0  0  0
  3  9  1  0  0  0  0
  3  4  2  0  0  0  0
  4  5  1  0  0  0  0
  4 28  1  0  0  0  0
  5  6  2  0  0  0  0
  5 29  1  0  0  0  0
  6  7  1  0  0  0  0
  6  8  1  0  0  0  0
  7 30  1  0  0  0  0
  7 31  1  0  0  0  0
  7 32  1  0  0  0  0
  8  9  2  0  0  0  0
  9 10  1  0  0  0  0
 10 11  1  0  0  0  0
 10 33  1  0  0  0  0
 11 12  2  0  0  0  0
 11 13  1  0  0  0  0
 13 14  1  0  0  0  0
 13 34  1  0  0  0  0
 14 24  1  0  0  0  0
 14 15  1  0  0  0  0
 14 35  1  0  0  0  0
 15 16  1  0  0  0  0
 15 36  1  0  0  0  0
 15 37  1  0  0  0  0
 16 17  1  0  0  0  0
 16 38  1  0  0  0  0
 16 39  1  0  0  0  0
 17 18  1  0  0  0  0
 17 23  1  0  0  0  0
 17 53  1  0  0  0  0
 18 22  1  0  0  0  0
 18 19  1  0  0  0  0
 18 40  1  0  0  0  0
 19 20  1  0  0  0  0
 19 41  1  0  0  0  0
 19 42  1  0  0  0  0
 20 21  1  0  0  0  0
 20 43  1  0  0  0  0
 20 44  1  0  0  0  0
 21 22  1  0  0  0  0
 21 45  1  0  0  0  0
 21 46  1  0  0  0  0
 22 47  1  0  0  0  0
 22 48  1  0  0  0  0
 23 24  1  0  0  0  0
 23 49  1  0  0  0  0
 23 50  1  0  0  0  0
 24 51  1  0  0  0  0
 24 52  1  0  0  0  0
M  CHG  1  17   1
M  END
> <s_m_source_file>
AV-unprocessed.smi

> <i_m_source_file_index>
2399

> <i_lp_mmshare_version>
43012

> <i_f3d_flags>
0

> <s_epik_input>
W0NIM11PYzFbY0hdW2NIXWMoW0NIM10pbmMxW05IXUMoPU8pW05IXVtDSF0yW0NIMl1bQ0gyXU4oW0NIMl1bQ0gyXTIpW0NIXTNbQ0gyXVtDSDJdW0NIMl1bQ0gyXTM=

> <s_epik_cmdline>
J2VwaWtfcHl0aG9uJywgJy1waCcsICc3LjAnLCAnLXRuJywgJzgnLCAnLW1hJywgJzIwMCcsICctbWV0YWxfYmluZGluZycsICctaW1hZScsICc8aW5maWxlLm1hZT4nLCAnLW9tYWUnLCAnPG91dGZpbGUubWFlPic=

> <r_lp_tautomer_probability>
1

> <r_epik_Ionization_Penalty>
0.00183805

> <r_epik_Ionization_Penalty_Charging>
0.00179121

> <r_epik_Ionization_Penalty_Neutral>
4.68398e-05

> <r_epik_State_Penalty>
0.00121448

> <r_epik_Charging_Adjusted_Penalty>
0.0030057

> <i_epik_Tot_Q>
1

> <i_epik_Tot_abs_Q>
1

> <r_epik_Metal_State_Penalty>
-0

> <b_epik_Metal_Only>
0

> <s_lp_Force_Field>
OPLS_2005

> <r_lp_Energy>
41.4811

> <b_lp_Chiralities_Consistent>
1

> <s_lp_Variant>
AV-unprocessed.smi:2399-1

> <Gold.Version>
5.8.1

> <Gold.Id.Protein>
6NUR|6NUR_protein|mol2

> <Gold.PLP.Fitness>
43.5418

> <Gold.PLP.PLP>
-36.6463

> <Gold.PLP.part.hbond>
-2.0000

> <Gold.PLP.part.metal>
0.0000

> <Gold.PLP.part.buried>
-5.4268

> <Gold.PLP.part.nonpolar>
-30.4665

> <Gold.PLP.part.repulsive>
1.2212

> <Gold.PLP.ligand.clash>
0.0000

> <Gold.PLP.ligand.torsion>
0.8735

> <Gold.PLP.Chemscore.Hbond>
2.8640

> <Gold.PLP.Chemscore.CHOScore>
0.0000

> <Gold.PLP.Chemscore.Metal>
0.0000

> <Gold.Chemscore.Hbonds>
donor molecule, donor type, donor heavy atom, donor atom, acceptor molecule, acceptor atom, score
      L1  H    10    33       P1 10175  0.82
      L1  H    17    53       P1  8028  2.00

> <Gold.PLP.Chemscore.Internal.Correction>
0.0504

> <Gold.Rescore>
     Score         DG    S(hbond)    S(metal)    S(lipo)     H(rot)  DE(clash)    DE(int)     intcor
     18.87     -19.75       1.93        0.00      97.22       1.38       0.04       0.84       ----

> <Gold.Chemscore.Fitness>
18.8720

> <Gold.Chemscore.DG>
-19.7508

> <Gold.Chemscore.ZeroCoef>
-5.4800

> <Gold.Chemscore.Hbond>
1.9270

> <Gold.Chemscore.Metal>
0.0000

> <Gold.Chemscore.Lipo>
97.2179

> <Gold.Chemscore.Internal_Hbond>
0.0000

> <Gold.Chemscore.DEClash>
0.0402

> <Gold.Chemscore.DEInternal>
0.8386

> <Gold.Chemscore.Rot>
1.3828

> <Gold.Chemscore.Internal.Correction>
   9.000000E+99

> <Gold.Chemscore.Hbonds>
donor molecule, donor type, donor heavy atom, donor atom, acceptor molecule, acceptor atom, score
      L1  H    10    33       P1 10175  0.80
      L1  H    17    53       P1  8028  1.00

> <Gold.Chemscore.Hbond.Weighted>
-6.4363

> <Gold.Chemscore.Metal.Weighted>
-0.0000

> <Gold.Chemscore.Lipo.Weighted>
-11.3745

> <Gold.Chemscore.Internal_Hbond.Weighted>
0.0000

> <Gold.Chemscore.DEClash.Weighted>
0.0402

> <Gold.Chemscore.DEInternal.Weighted>
0.8386

> <Gold.Chemscore.Rot.Weighted>
3.5399

> <Gold.Chemscore.Internal.Correction.Weighted>
   9.000000E+99

> <Gold.Protein.RotatedTorsions>
[ 6907 6896 6895 6894 ] final  178.07 input  -60.11 | X-H torsion
[ 7974 7965 7964 7962 ] final  143.80 input  175.53 | X-H torsion
[ 8008 7997 7996 7995 ] final   41.06 input   59.86 | X-H torsion
[ 10167 10162 10161 10158 ] final  124.29 input  -65.29 | X-H torsion
[ 10718 10713 10712 10709 ] final -107.23 input   66.30 | X-H torsion
[ 10763 10752 10751 10750 ] final  -20.05 input  -60.55 | X-H torsion
[ 11005 11000 10999 10996 ] final  142.93 input  -57.11 | X-H torsion

> <Gold.Protein.ActiveResidues>
 VAL166  LYS551  ARG553  GLY616  TRP617  ASP618  TYR619  PRO620  LYS621  CYS622 
 ASP623  PHE694  ASN695  SER759  ASP760  ASP761  ALA762  ILE779  LEU786  VAL792 
 PHE793  MET794  SER795  GLU796  ALA797  LYS798  CYS799  TRP800  GLU811  SER814 

> <Gold.Protein.RotatedAtoms>
  151.6938  133.3311  159.3249 H   0  0  0  0  0  0  0  0  0  0  0  0  # atno 6907 bound_to 6896
  150.7767  134.6676  159.6383 H   0  0  0  0  0  0  0  0  0  0  0  0  # atno 6908 bound_to 6896
  152.3811  134.6592  160.0194 H   0  0  0  0  0  0  0  0  0  0  0  0  # atno 6909 bound_to 6896
  144.8889  139.5587  143.5807 H   0  0  0  0  0  0  0  0  0  0  0  0  # atno 7974 bound_to 7965
  155.2634  140.3361  155.4271 H   0  0  0  0  0  0  0  0  0  0  0  0  # atno 8008 bound_to 7997
  156.2164  140.1791  156.7620 H   0  0  0  0  0  0  0  0  0  0  0  0  # atno 8009 bound_to 7997
  154.5760  140.0661  156.9020 H   0  0  0  0  0  0  0  0  0  0  0  0  # atno 8010 bound_to 7997
  139.5750  144.6959  151.3676 H   0  0  0  0  0  0  0  0  0  0  0  0  # atno 10167 bound_to 10162
  156.0427  130.5652  150.7792 H   0  0  0  0  0  0  0  0  0  0  0  0  # atno 10718 bound_to 10713
  153.6143  135.6995  153.5335 H   0  0  0  0  0  0  0  0  0  0  0  0  # atno 10763 bound_to 10752
  153.2990  135.4134  155.1235 H   0  0  0  0  0  0  0  0  0  0  0  0  # atno 10764 bound_to 10752
  154.8557  135.3644  154.5682 H   0  0  0  0  0  0  0  0  0  0  0  0  # atno 10765 bound_to 10752
  140.0514  134.9253  157.1024 H   0  0  0  0  0  0  0  0  0  0  0  0  # atno 11005 bound_to 11000
  146.3042  139.7524  142.9069 LP  0  0  0  0  0  0  0  0  0  0  0  0  # atno 17320 bound_to 7965
  145.3818  141.0359  143.3173 LP  0  0  0  0  0  0  0  0  0  0  0  0  # atno 17321 bound_to 7965
  140.7033  143.7576  150.7440 LP  0  0  0  0  0  0  0  0  0  0  0  0  # atno 17342 bound_to 10162
  140.1094  143.4714  152.2379 LP  0  0  0  0  0  0  0  0  0  0  0  0  # atno 17343 bound_to 10162
  157.5264  131.0934  151.0012 LP  0  0  0  0  0  0  0  0  0  0  0  0  # atno 17370 bound_to 10713
  157.0329  130.5718  149.5345 LP  0  0  0  0  0  0  0  0  0  0  0  0  # atno 17371 bound_to 10713
  140.3911  134.2183  155.7166 LP  0  0  0  0  0  0  0  0  0  0  0  0  # atno 17394 bound_to 11000
  141.1932  133.8156  157.0808 LP  0  0  0  0  0  0  0  0  0  0  0  0  # atno 17395 bound_to 11000

$$$$
