AV-unprocessed.smi:2928|AV-procd|sdf|11231|dock3
  -GOLD-   2272016123D 1   1.00000     0.00000
 Structure written by MMmdl.
 55 58  0  0  0  0  0  0  0  0  2 V2000
  143.7979  132.6985  148.4753 C   0  0  0  0  0  0  0  0  0  0  0  0
  143.7482  133.3872  149.7870 N   0  3  2  0  0  0  0  0  0  0  0  0
  144.9480  134.1950  150.1120 C   0  0  2  0  0  0  0  0  0  0  0  0
  146.1772  133.2941  150.3958 C   0  0  0  0  0  0  0  0  0  0  0  0
  145.9216  132.1724  151.4201 C   0  0  0  0  0  0  0  0  0  0  0  0
  144.5368  131.5195  151.2590 C   0  0  0  0  0  0  0  0  0  0  0  0
  143.3963  132.5163  150.9336 C   0  0  1  0  0  0  0  0  0  0  0  0
  142.9341  133.3994  152.1159 C   0  0  0  0  0  0  0  0  0  0  0  0
  143.8538  134.6042  152.4585 C   0  0  1  0  0  0  0  0  0  0  0  0
  144.7817  134.3232  153.5496 N   0  0  0  0  0  0  0  0  0  0  0  0
  145.5318  135.2230  154.2003 C   0  0  0  0  0  0  0  0  0  0  0  0
  145.5557  136.4218  153.9225 O   0  0  0  0  0  0  0  0  0  0  0  0
  146.2163  134.6397  155.1965 N   0  0  0  0  0  0  0  0  0  0  0  0
  147.0233  135.2583  156.1906 C   0  0  0  0  0  0  0  0  0  0  0  0
  146.6675  136.4749  156.8208 C   0  0  0  0  0  0  0  0  0  0  0  0
  147.5375  137.0285  157.7777 C   0  0  0  0  0  0  0  0  0  0  0  0
  148.7354  136.3498  158.0653 C   0  0  0  0  0  0  0  0  0  0  0  0
  149.0953  135.1981  157.4627 N   0  0  0  0  0  0  0  0  0  0  0  0
  148.2618  134.6616  156.5387 C   0  0  0  0  0  0  0  0  0  0  0  0
  148.6531  133.4593  155.9226 N   0  0  0  0  0  0  0  0  0  0  0  0
  148.9254  133.5407  154.4978 C   0  0  0  0  0  0  0  0  0  0  0  0
  149.6637  132.2447  154.1528 C   0  0  0  0  0  0  0  0  0  0  0  0
  150.2459  131.7551  155.4850 C   0  0  0  0  0  0  0  0  0  0  0  0
  149.8039  132.7982  156.5146 C   0  0  0  0  0  0  0  0  0  0  0  0
  144.5900  135.2004  151.2320 C   0  0  0  0  0  0  0  0  0  0  0  0
  144.5898  131.9518  148.4288 H   0  0  0  0  0  0  0  0  0  0  0  0
  143.9657  133.4186  147.6742 H   0  0  0  0  0  0  0  0  0  0  0  0
  142.8506  132.1979  148.2734 H   0  0  0  0  0  0  0  0  0  0  0  0
  145.1916  134.7949  149.2336 H   0  0  0  0  0  0  0  0  0  0  0  0
  146.4945  132.8340  149.4596 H   0  0  0  0  0  0  0  0  0  0  0  0
  147.0234  133.9019  150.7178 H   0  0  0  0  0  0  0  0  0  0  0  0
  146.6941  131.4093  151.3207 H   0  0  0  0  0  0  0  0  0  0  0  0
  146.0478  132.5445  152.4311 H   0  0  0  0  0  0  0  0  0  0  0  0
  144.5969  130.7845  150.4561 H   0  0  0  0  0  0  0  0  0  0  0  0
  144.2922  130.9476  152.1548 H   0  0  0  0  0  0  0  0  0  0  0  0
  142.5291  131.9212  150.6430 H   0  0  0  0  0  0  0  0  0  0  0  0
  141.9616  133.8112  151.8419 H   0  0  0  0  0  0  0  0  0  0  0  0
  142.7380  132.7830  152.9939 H   0  0  0  0  0  0  0  0  0  0  0  0
  143.2100  135.3984  152.8419 H   0  0  0  0  0  0  0  0  0  0  0  0
  144.8384  133.3627  153.8556 H   0  0  0  0  0  0  0  0  0  0  0  0
  146.0330  133.6580  155.3453 H   0  0  0  0  0  0  0  0  0  0  0  0
  145.7549  136.9970  156.5769 H   0  0  0  0  0  0  0  0  0  0  0  0
  147.2936  137.9549  158.2763 H   0  0  0  0  0  0  0  0  0  0  0  0
  149.4268  136.7458  158.7944 H   0  0  0  0  0  0  0  0  0  0  0  0
  148.0022  133.6417  153.9264 H   0  0  0  0  0  0  0  0  0  0  0  0
  149.5561  134.4029  154.2765 H   0  0  0  0  0  0  0  0  0  0  0  0
  148.9661  131.5045  153.7590 H   0  0  0  0  0  0  0  0  0  0  0  0
  150.4332  132.4103  153.3983 H   0  0  0  0  0  0  0  0  0  0  0  0
  149.8319  130.7773  155.7340 H   0  0  0  0  0  0  0  0  0  0  0  0
  151.3313  131.6583  155.4535 H   0  0  0  0  0  0  0  0  0  0  0  0
  150.6079  133.5139  156.6916 H   0  0  0  0  0  0  0  0  0  0  0  0
  149.5455  132.3376  157.4686 H   0  0  0  0  0  0  0  0  0  0  0  0
  145.4735  135.7608  151.5416 H   0  0  0  0  0  0  0  0  0  0  0  0
  143.9252  135.9444  150.7902 H   0  0  0  0  0  0  0  0  0  0  0  0
  142.9884  134.0472  149.7006 H   0  0  0  0  0  0  0  0  0  0  0  0
  1  2  1  0  0  0  0
  1 26  1  0  0  0  0
  1 27  1  0  0  0  0
  1 28  1  0  0  0  0
  2  7  1  0  0  0  0
  2  3  1  0  0  0  0
  2 55  1  0  0  0  0
  3 25  1  0  0  0  0
  3  4  1  0  0  0  0
  3 29  1  0  0  0  0
  4  5  1  0  0  0  0
  4 30  1  0  0  0  0
  4 31  1  0  0  0  0
  5  6  1  0  0  0  0
  5 32  1  0  0  0  0
  5 33  1  0  0  0  0
  6  7  1  0  0  0  0
  6 34  1  0  0  0  0
  6 35  1  0  0  0  0
  7  8  1  0  0  0  0
  7 36  1  0  0  0  0
  8  9  1  0  0  0  0
  8 37  1  0  0  0  0
  8 38  1  0  0  0  0
  9 10  1  0  0  0  0
  9 25  1  0  0  0  0
  9 39  1  0  0  0  0
 10 11  1  0  0  0  0
 10 40  1  0  0  0  0
 11 12  2  0  0  0  0
 11 13  1  0  0  0  0
 13 14  1  0  0  0  0
 13 41  1  0  0  0  0
 14 19  1  0  0  0  0
 14 15  2  0  0  0  0
 15 16  1  0  0  0  0
 15 42  1  0  0  0  0
 16 17  2  0  0  0  0
 16 43  1  0  0  0  0
 17 18  1  0  0  0  0
 17 44  1  0  0  0  0
 18 19  2  0  0  0  0
 19 20  1  0  0  0  0
 20 24  1  0  0  0  0
 20 21  1  0  0  0  0
 21 22  1  0  0  0  0
 21 45  1  0  0  0  0
 21 46  1  0  0  0  0
 22 23  1  0  0  0  0
 22 47  1  0  0  0  0
 22 48  1  0  0  0  0
 23 24  1  0  0  0  0
 23 49  1  0  0  0  0
 23 50  1  0  0  0  0
 24 51  1  0  0  0  0
 24 52  1  0  0  0  0
 25 53  1  0  0  0  0
 25 54  1  0  0  0  0
M  CHG  1   2   1
M  END
> <s_m_source_file>
AV-unprocessed.smi

> <i_m_source_file_index>
2928

> <i_lp_mmshare_version>
43012

> <i_f3d_flags>
0

> <s_epik_input>
W0NIMl0xW0NIMl1bQ0gyXVtDQEhdKE4oW0NIM10pW0NIXTEyKVtDSDJdW0NASF0oW0NIMl0yKVtOSF1DKD1PKVtOSF1jM1tjSF1bY0hdW2NIXW5jM040W0NIMl1bQ0gyXVtDSDJdW0NIMl00

> <s_epik_cmdline>
J2VwaWtfcHl0aG9uJywgJy1waCcsICc3LjAnLCAnLXRuJywgJzgnLCAnLW1hJywgJzIwMCcsICctbWV0YWxfYmluZGluZycsICctaW1hZScsICc8aW5maWxlLm1hZT4nLCAnLW9tYWUnLCAnPG91dGZpbGUubWFlPic=

> <r_lp_tautomer_probability>
1

> <r_epik_Ionization_Penalty>
0.07954

> <r_epik_Ionization_Penalty_Charging>
0.00089841

> <r_epik_Ionization_Penalty_Neutral>
0.0786416

> <r_epik_State_Penalty>
0.0689917

> <r_epik_Charging_Adjusted_Penalty>
0.0698901

> <i_epik_Tot_Q>
1

> <i_epik_Tot_abs_Q>
1

> <r_epik_Metal_State_Penalty>
0.0608947

> <b_epik_Metal_Only>
0

> <s_lp_Force_Field>
OPLS_2005

> <r_lp_Energy>
66.344

> <b_lp_Chiralities_Consistent>
1

> <s_lp_Variant>
AV-unprocessed.smi:2928-1

> <Gold.Version>
5.8.1

> <Gold.Id.Protein>
6NUR|6NUR_protein|mol2

> <Gold.PLP.Fitness>
36.3881

> <Gold.PLP.PLP>
-31.3562

> <Gold.PLP.part.hbond>
-1.0000

> <Gold.PLP.part.metal>
0.0000

> <Gold.PLP.part.buried>
-0.8030

> <Gold.PLP.part.nonpolar>
-30.0025

> <Gold.PLP.part.repulsive>
0.1409

> <Gold.PLP.ligand.clash>
0.0000

> <Gold.PLP.ligand.torsion>
0.5213

> <Gold.PLP.Chemscore.Hbond>
2.0000

> <Gold.PLP.Chemscore.CHOScore>
0.0000

> <Gold.PLP.Chemscore.Metal>
0.0000

> <Gold.Chemscore.Hbonds>
donor molecule, donor type, donor heavy atom, donor atom, acceptor molecule, acceptor atom, score
      L1  H     2    55       P1 10186  2.00

> <Gold.PLP.Chemscore.Internal.Correction>
0.0744

> <Gold.Rescore>
     Score         DG    S(hbond)    S(metal)    S(lipo)     H(rot)  DE(clash)    DE(int)     intcor
     15.06     -17.06       0.97        0.00      96.96       1.18       1.27       0.73       ----

> <Gold.Chemscore.Fitness>
15.0633

> <Gold.Chemscore.DG>
-17.0624

> <Gold.Chemscore.ZeroCoef>
-5.4800

> <Gold.Chemscore.Hbond>
0.9738

> <Gold.Chemscore.Metal>
0.0000

> <Gold.Chemscore.Lipo>
96.9633

> <Gold.Chemscore.Internal_Hbond>
0.0000

> <Gold.Chemscore.DEClash>
1.2727

> <Gold.Chemscore.DEInternal>
0.7264

> <Gold.Chemscore.Rot>
1.1776

> <Gold.Chemscore.Internal.Correction>
   9.000000E+99

> <Gold.Chemscore.Hbonds>
donor molecule, donor type, donor heavy atom, donor atom, acceptor molecule, acceptor atom, score
      L1  H     2    55       P1 10186  0.89

> <Gold.Chemscore.Hbond.Weighted>
-3.2525

> <Gold.Chemscore.Metal.Weighted>
-0.0000

> <Gold.Chemscore.Lipo.Weighted>
-11.3447

> <Gold.Chemscore.Internal_Hbond.Weighted>
0.0000

> <Gold.Chemscore.DEClash.Weighted>
1.2727

> <Gold.Chemscore.DEInternal.Weighted>
0.7264

> <Gold.Chemscore.Rot.Weighted>
3.0147

> <Gold.Chemscore.Internal.Correction.Weighted>
   9.000000E+99

> <Gold.Protein.RotatedTorsions>
[ 6907 6896 6895 6894 ] final   45.98 input  -60.11 | X-H torsion
[ 7974 7965 7964 7962 ] final -120.92 input  175.53 | X-H torsion
[ 8008 7997 7996 7995 ] final   86.19 input   59.86 | X-H torsion
[ 10167 10162 10161 10158 ] final -117.83 input  -65.29 | X-H torsion
[ 10718 10713 10712 10709 ] final   64.42 input   66.30 | X-H torsion
[ 10763 10752 10751 10750 ] final -101.64 input  -60.55 | X-H torsion
[ 11005 11000 10999 10996 ] final -161.36 input  -57.11 | X-H torsion

> <Gold.Protein.ActiveResidues>
 VAL166  LYS551  ARG553  GLY616  TRP617  ASP618  TYR619  PRO620  LYS621  CYS622 
 ASP623  PHE694  ASN695  SER759  ASP760  ASP761  ALA762  ILE779  LEU786  VAL792 
 PHE793  MET794  SER795  GLU796  ALA797  LYS798  CYS799  TRP800  GLU811  SER814 

> <Gold.Protein.RotatedAtoms>
  152.2509  134.8133  160.0445 H   0  0  0  0  0  0  0  0  0  0  0  0  # atno 6907 bound_to 6896
  151.8813  133.3491  159.3775 H   0  0  0  0  0  0  0  0  0  0  0  0  # atno 6908 bound_to 6896
  150.7084  134.4942  159.5574 H   0  0  0  0  0  0  0  0  0  0  0  0  # atno 6909 bound_to 6896
  145.0460  140.8182  143.4237 H   0  0  0  0  0  0  0  0  0  0  0  0  # atno 7974 bound_to 7965
  155.9597  140.3394  155.6479 H   0  0  0  0  0  0  0  0  0  0  0  0  # atno 8008 bound_to 7997
  155.6814  140.0738  157.2501 H   0  0  0  0  0  0  0  0  0  0  0  0  # atno 8009 bound_to 7997
  154.4140  140.1673  156.1974 H   0  0  0  0  0  0  0  0  0  0  0  0  # atno 8010 bound_to 7997
  140.0641  143.4940  152.2016 H   0  0  0  0  0  0  0  0  0  0  0  0  # atno 10167 bound_to 10162
  157.6038  130.9159  149.9843 H   0  0  0  0  0  0  0  0  0  0  0  0  # atno 10718 bound_to 10713
  154.7673  135.4890  153.9579 H   0  0  0  0  0  0  0  0  0  0  0  0  # atno 10763 bound_to 10752
  153.1323  135.6755  153.9165 H   0  0  0  0  0  0  0  0  0  0  0  0  # atno 10764 bound_to 10752
  153.8865  135.3126  155.3425 H   0  0  0  0  0  0  0  0  0  0  0  0  # atno 10765 bound_to 10752
  140.6213  134.4748  157.5223 H   0  0  0  0  0  0  0  0  0  0  0  0  # atno 11005 bound_to 11000
  145.1587  139.2471  143.5403 LP  0  0  0  0  0  0  0  0  0  0  0  0  # atno 17320 bound_to 7965
  146.3514  140.1308  142.8597 LP  0  0  0  0  0  0  0  0  0  0  0  0  # atno 17321 bound_to 7965
  139.5876  144.7537  151.3481 LP  0  0  0  0  0  0  0  0  0  0  0  0  # atno 17342 bound_to 10162
  140.7158  143.7271  150.7652 LP  0  0  0  0  0  0  0  0  0  0  0  0  # atno 17343 bound_to 10162
  156.1118  130.3649  150.0035 LP  0  0  0  0  0  0  0  0  0  0  0  0  # atno 17370 bound_to 10713
  156.8132  130.9332  151.3643 LP  0  0  0  0  0  0  0  0  0  0  0  0  # atno 17371 bound_to 10713
  139.9152  134.8261  156.1390 LP  0  0  0  0  0  0  0  0  0  0  0  0  # atno 17394 bound_to 11000
  141.0740  133.6784  156.2199 LP  0  0  0  0  0  0  0  0  0  0  0  0  # atno 17395 bound_to 11000

$$$$
