AV-unprocessed.smi:3315|AV-procd|sdf|12749|dock4
  -GOLD-   2272019 83D 1   1.00000     0.00000
 Structure written by MMmdl.
 37 38  0  0  0  0  0  0  0  0  1 V2000
  149.7290  141.5191  155.3500 C   0  0  0  0  0  0  0  0  0  0  0  0
  149.4178  141.3491  153.9732 O   0  0  0  0  0  0  0  0  0  0  0  0
  148.0583  141.0371  153.6644 C   0  0  1  0  0  0  0  0  0  0  0  0
  147.1505  142.2221  154.0294 C   0  0  0  0  0  0  0  0  0  0  0  0
  147.9072  140.4186  152.2625 C   0  0  0  0  0  0  0  0  0  0  0  0
  146.9542  139.4134  152.9057 C   0  0  1  0  0  0  0  0  0  0  0  0
  147.0728  138.0776  152.3310 N   0  0  0  0  0  0  0  0  0  0  0  0
  146.0319  137.2993  152.0045 C   0  0  0  0  0  0  0  0  0  0  0  0
  144.8587  137.6395  152.1579 O   0  0  0  0  0  0  0  0  0  0  0  0
  146.4434  136.1234  151.5011 N   0  0  0  0  0  0  0  0  0  0  0  0
  145.6561  135.0410  151.0302 C   0  0  0  0  0  0  0  0  0  0  0  0
  144.3507  135.1290  150.4642 C   0  0  0  0  0  0  0  0  0  0  0  0
  144.0556  133.8255  150.1826 C   0  0  0  0  0  0  0  0  0  0  0  0
  145.0824  133.0112  150.5432 O   0  0  0  0  0  0  0  0  0  0  0  0
  146.1041  133.7994  151.0868 N   0  0  0  0  0  0  0  0  0  0  0  0
  147.7204  139.6219  154.2371 C   0  0  0  0  0  0  0  0  0  0  0  0
  148.9217  138.6914  154.5010 C   0  0  0  0  0  0  0  0  0  0  0  0
  146.8700  139.5778  155.5107 C   0  0  0  0  0  0  0  0  0  0  0  0
  150.7617  141.8547  155.4421 H   0  0  0  0  0  0  0  0  0  0  0  0
  149.6422  140.5854  155.9046 H   0  0  0  0  0  0  0  0  0  0  0  0
  149.0954  142.2695  155.8233 H   0  0  0  0  0  0  0  0  0  0  0  0
  146.0947  141.9683  153.9371 H   0  0  0  0  0  0  0  0  0  0  0  0
  147.3169  143.0785  153.3769 H   0  0  0  0  0  0  0  0  0  0  0  0
  147.3190  142.5489  155.0558 H   0  0  0  0  0  0  0  0  0  0  0  0
  147.4433  141.0712  151.5224 H   0  0  0  0  0  0  0  0  0  0  0  0
  148.8258  139.9704  151.8790 H   0  0  0  0  0  0  0  0  0  0  0  0
  145.9295  139.7910  152.9378 H   0  0  0  0  0  0  0  0  0  0  0  0
  148.0060  137.7257  152.1756 H   0  0  0  0  0  0  0  0  0  0  0  0
  147.4416  135.9883  151.4381 H   0  0  0  0  0  0  0  0  0  0  0  0
  143.7241  135.9897  150.2869 H   0  0  0  0  0  0  0  0  0  0  0  0
  143.1967  133.3384  149.7455 H   0  0  0  0  0  0  0  0  0  0  0  0
  148.6024  137.6688  154.7051 H   0  0  0  0  0  0  0  0  0  0  0  0
  149.5019  139.0250  155.3620 H   0  0  0  0  0  0  0  0  0  0  0  0
  149.6063  138.6481  153.6540 H   0  0  0  0  0  0  0  0  0  0  0  0
  146.6272  138.5535  155.7959 H   0  0  0  0  0  0  0  0  0  0  0  0
  145.9210  140.0990  155.3868 H   0  0  0  0  0  0  0  0  0  0  0  0
  147.3880  140.0404  156.3514 H   0  0  0  0  0  0  0  0  0  0  0  0
  1  2  1  0  0  0  0
  1 19  1  0  0  0  0
  1 20  1  0  0  0  0
  1 21  1  0  0  0  0
  2  3  1  0  0  0  0
  3 16  1  0  0  0  0
  3  4  1  0  0  0  0
  3  5  1  0  0  0  0
  4 22  1  0  0  0  0
  4 23  1  0  0  0  0
  4 24  1  0  0  0  0
  5  6  1  0  0  0  0
  5 25  1  0  0  0  0
  5 26  1  0  0  0  0
  6  7  1  0  0  0  0
  6 16  1  0  0  0  0
  6 27  1  0  0  0  0
  7  8  1  0  0  0  0
  7 28  1  0  0  0  0
  8  9  2  0  0  0  0
  8 10  1  0  0  0  0
 10 11  1  0  0  0  0
 10 29  1  0  0  0  0
 11 15  2  0  0  0  0
 11 12  1  0  0  0  0
 12 13  2  0  0  0  0
 12 30  1  0  0  0  0
 13 14  1  0  0  0  0
 13 31  1  0  0  0  0
 14 15  1  0  0  0  0
 16 17  1  0  0  0  0
 16 18  1  0  0  0  0
 17 32  1  0  0  0  0
 17 33  1  0  0  0  0
 17 34  1  0  0  0  0
 18 35  1  0  0  0  0
 18 36  1  0  0  0  0
 18 37  1  0  0  0  0
M  END
> <s_m_source_file>
AV-unprocessed.smi

> <i_m_source_file_index>
3315

> <i_lp_mmshare_version>
43012

> <i_f3d_flags>
0

> <s_epik_input>
W0NIM11PW0NAQF0xKFtDSDNdKVtDSDJdW0NASF0oQzEoW0NIM10pW0NIM10pW05IXUMoPU8pW05IXWMyW2NIXVtjSF1vbjI=

> <s_epik_cmdline>
J2VwaWtfcHl0aG9uJywgJy1waCcsICc3LjAnLCAnLXRuJywgJzgnLCAnLW1hJywgJzIwMCcsICctbWV0YWxfYmluZGluZycsICctaW1hZScsICc8aW5maWxlLm1hZT4nLCAnLW9tYWUnLCAnPG91dGZpbGUubWFlPic=

> <r_lp_tautomer_probability>
1

> <r_epik_Ionization_Penalty>
2.28875e-05

> <r_epik_Ionization_Penalty_Charging>
0

> <r_epik_Ionization_Penalty_Neutral>
2.28875e-05

> <r_epik_State_Penalty>
-0

> <r_epik_Charging_Adjusted_Penalty>
0

> <i_epik_Tot_Q>
0

> <i_epik_Tot_abs_Q>
0

> <r_epik_Metal_State_Penalty>
-0

> <b_epik_Metal_Only>
0

> <s_lp_Force_Field>
OPLS_2005

> <r_lp_Energy>
23.7909

> <b_lp_Chiralities_Consistent>
1

> <s_lp_Variant>
AV-unprocessed.smi:3315-1

> <Gold.Version>
5.8.1

> <Gold.Id.Protein>
6NUR|6NUR_protein|mol2

> <Gold.PLP.Fitness>
35.8226

> <Gold.PLP.PLP>
-25.8276

> <Gold.PLP.part.hbond>
-4.0000

> <Gold.PLP.part.metal>
0.0000

> <Gold.PLP.part.buried>
0.3941

> <Gold.PLP.part.nonpolar>
-23.7974

> <Gold.PLP.part.repulsive>
0.8514

> <Gold.PLP.ligand.clash>
0.0000

> <Gold.PLP.ligand.torsion>
0.3918

> <Gold.PLP.Chemscore.Hbond>
2.6424

> <Gold.PLP.Chemscore.CHOScore>
0.8275

> <Gold.PLP.Chemscore.Metal>
0.0000

> <Gold.Chemscore.Hbonds>
donor molecule, donor type, donor heavy atom, donor atom, acceptor molecule, acceptor atom, score
      L1  H     7    28       P1  7948  0.90
      L1  H    10    29       P1  7948  1.00
      P1  H  7989  7998       L1     2  0.06
      P1  H  8011  8017       L1     2  0.64
      L1  C    13    31       P1 10186  0.86

> <Gold.PLP.Chemscore.Internal.Correction>
0.3691

> <Gold.Rescore>
     Score         DG    S(hbond)    S(metal)    S(lipo)     H(rot)  DE(clash)    DE(int)     intcor
     15.53     -17.99       2.59        0.00      61.64       1.30       1.90       0.57       ----

> <Gold.Chemscore.Fitness>
15.5269

> <Gold.Chemscore.DG>
-17.9901

> <Gold.Chemscore.ZeroCoef>
-5.4800

> <Gold.Chemscore.Hbond>
2.5858

> <Gold.Chemscore.Metal>
0.0000

> <Gold.Chemscore.Lipo>
61.6359

> <Gold.Chemscore.Internal_Hbond>
0.0000

> <Gold.Chemscore.DEClash>
1.8965

> <Gold.Chemscore.DEInternal>
0.5667

> <Gold.Chemscore.Rot>
1.3038

> <Gold.Chemscore.Internal.Correction>
   9.000000E+99

> <Gold.Chemscore.Hbonds>
donor molecule, donor type, donor heavy atom, donor atom, acceptor molecule, acceptor atom, score
      L1  H     7    28       P1  7948  0.87
      L1  H    10    29       P1  7948  0.93
      P1  H  8011  8017       L1     2  0.11

> <Gold.Chemscore.Hbond.Weighted>
-8.6365

> <Gold.Chemscore.Metal.Weighted>
-0.0000

> <Gold.Chemscore.Lipo.Weighted>
-7.2114

> <Gold.Chemscore.Internal_Hbond.Weighted>
0.0000

> <Gold.Chemscore.DEClash.Weighted>
1.8965

> <Gold.Chemscore.DEInternal.Weighted>
0.5667

> <Gold.Chemscore.Rot.Weighted>
3.3377

> <Gold.Chemscore.Internal.Correction.Weighted>
   9.000000E+99

> <Gold.Protein.RotatedTorsions>
[ 6907 6896 6895 6894 ] final -105.13 input  -60.11 | X-H torsion
[ 7974 7965 7964 7962 ] final -162.97 input  175.53 | X-H torsion
[ 8008 7997 7996 7995 ] final -125.88 input   59.86 | X-H torsion
[ 10167 10162 10161 10158 ] final  -37.59 input  -65.29 | X-H torsion
[ 10718 10713 10712 10709 ] final  149.10 input   66.30 | X-H torsion
[ 10763 10752 10751 10750 ] final -162.27 input  -60.55 | X-H torsion
[ 11005 11000 10999 10996 ] final   55.92 input  -57.11 | X-H torsion

> <Gold.Protein.ActiveResidues>
 VAL166  LYS551  ARG553  GLY616  TRP617  ASP618  TYR619  PRO620  LYS621  CYS622 
 ASP623  PHE694  ASN695  SER759  ASP760  ASP761  ALA762  ILE779  LEU786  VAL792 
 PHE793  MET794  SER795  GLU796  ALA797  LYS798  CYS799  TRP800  GLU811  SER814 

> <Gold.Protein.RotatedAtoms>
  150.7321  134.0172  159.3689 H   0  0  0  0  0  0  0  0  0  0  0  0  # atno 6907 bound_to 6896
  151.8135  135.0671  160.0425 H   0  0  0  0  0  0  0  0  0  0  0  0  # atno 6908 bound_to 6896
  152.3055  133.5663  159.5683 H   0  0  0  0  0  0  0  0  0  0  0  0  # atno 6909 bound_to 6896
  144.7340  140.3175  143.6177 H   0  0  0  0  0  0  0  0  0  0  0  0  # atno 7974 bound_to 7965
  155.2205  140.0422  157.2947 H   0  0  0  0  0  0  0  0  0  0  0  0  # atno 8008 bound_to 7997
  154.5952  140.2437  155.7837 H   0  0  0  0  0  0  0  0  0  0  0  0  # atno 8009 bound_to 7997
  156.2286  140.2946  156.0138 H   0  0  0  0  0  0  0  0  0  0  0  0  # atno 8010 bound_to 7997
  140.7114  143.3332  151.2522 H   0  0  0  0  0  0  0  0  0  0  0  0  # atno 10167 bound_to 10162
  157.3003  131.0869  151.1395 H   0  0  0  0  0  0  0  0  0  0  0  0  # atno 10718 bound_to 10713
  154.7229  135.3029  154.9018 H   0  0  0  0  0  0  0  0  0  0  0  0  # atno 10763 bound_to 10752
  153.9884  135.6722  153.4757 H   0  0  0  0  0  0  0  0  0  0  0  0  # atno 10764 bound_to 10752
  153.0850  135.4989  154.8496 H   0  0  0  0  0  0  0  0  0  0  0  0  # atno 10765 bound_to 10752
  140.0569  134.5657  155.9197 H   0  0  0  0  0  0  0  0  0  0  0  0  # atno 11005 bound_to 11000
  145.7602  139.1822  143.2271 LP  0  0  0  0  0  0  0  0  0  0  0  0  # atno 17320 bound_to 7965
  146.0992  140.7564  142.9557 LP  0  0  0  0  0  0  0  0  0  0  0  0  # atno 17321 bound_to 7965
  139.6819  143.9839  152.2813 LP  0  0  0  0  0  0  0  0  0  0  0  0  # atno 17342 bound_to 10162
  139.9472  144.6644  150.8208 LP  0  0  0  0  0  0  0  0  0  0  0  0  # atno 17343 bound_to 10162
  157.2757  130.6726  149.6041 LP  0  0  0  0  0  0  0  0  0  0  0  0  # atno 17370 bound_to 10713
  155.9671  130.4465  150.5544 LP  0  0  0  0  0  0  0  0  0  0  0  0  # atno 17371 bound_to 10713
  141.1956  133.6588  156.5651 LP  0  0  0  0  0  0  0  0  0  0  0  0  # atno 17394 bound_to 11000
  140.3830  134.7507  157.4673 LP  0  0  0  0  0  0  0  0  0  0  0  0  # atno 17395 bound_to 11000

$$$$
