AV-unprocessed.smi:2540|AV-procd|sdf|9987|dock1
  -GOLD-   2272014 33D 1   1.00000     0.00000
 Structure written by MMmdl.
 28 29  0  0  0  0  0  0  0  0  2 V2000
  153.0921  138.6999  154.6290 C   0  0  0  0  0  0  0  0  0  0  0  0
  152.8530  139.2619  155.9071 O   0  0  0  0  0  0  0  0  0  0  0  0
  151.6101  138.8561  156.4571 C   0  0  0  0  0  0  0  0  0  0  0  0
  151.3025  139.6755  157.7186 C   0  0  0  0  0  0  0  0  0  0  0  0
  151.0857  141.0993  157.4218 N   0  0  0  0  0  0  0  0  0  0  0  0
  150.3754  141.7048  156.4358 C   0  0  0  0  0  0  0  0  0  0  0  0
  149.6573  141.0494  155.4374 N   0  0  0  0  0  0  0  0  0  0  0  0
  150.4701  143.0521  156.5652 N   0  3  0  0  0  0  0  0  0  0  0  0
  151.2754  143.3282  157.6744 C   0  0  0  0  0  0  0  0  0  0  0  0
  151.6781  144.5420  158.2232 C   0  0  0  0  0  0  0  0  0  0  0  0
  152.5102  144.4788  159.3602 C   0  0  0  0  0  0  0  0  0  0  0  0
  152.9116  143.2442  159.9101 C   0  0  0  0  0  0  0  0  0  0  0  0
  152.4968  142.0183  159.3495 C   0  0  0  0  0  0  0  0  0  0  0  0
  151.6735  142.0855  158.2258 C   0  0  0  0  0  0  0  0  0  0  0  0
  154.0559  139.0427  154.2525 H   0  0  0  0  0  0  0  0  0  0  0  0
  152.3252  139.0031  153.9152 H   0  0  0  0  0  0  0  0  0  0  0  0
  153.1165  137.6104  154.6754 H   0  0  0  0  0  0  0  0  0  0  0  0
  150.8151  138.9941  155.7226 H   0  0  0  0  0  0  0  0  0  0  0  0
  151.6421  137.7947  156.7068 H   0  0  0  0  0  0  0  0  0  0  0  0
  150.3995  139.2966  158.1979 H   0  0  0  0  0  0  0  0  0  0  0  0
  152.1024  139.5805  158.4528 H   0  0  0  0  0  0  0  0  0  0  0  0
  149.1486  141.5567  154.7275 H   0  0  0  0  0  0  0  0  0  0  0  0
  149.6226  140.0410  155.3904 H   0  0  0  0  0  0  0  0  0  0  0  0
  151.3747  145.4899  157.8039 H   0  0  0  0  0  0  0  0  0  0  0  0
  152.8495  145.3963  159.8186 H   0  0  0  0  0  0  0  0  0  0  0  0
  153.5528  143.2365  160.7797 H   0  0  0  0  0  0  0  0  0  0  0  0
  152.8162  141.0790  159.7760 H   0  0  0  0  0  0  0  0  0  0  0  0
  150.0274  143.7223  155.9499 H   0  0  0  0  0  0  0  0  0  0  0  0
  1  2  1  0  0  0  0
  1 15  1  0  0  0  0
  1 16  1  0  0  0  0
  1 17  1  0  0  0  0
  2  3  1  0  0  0  0
  3  4  1  0  0  0  0
  3 18  1  0  0  0  0
  3 19  1  0  0  0  0
  4  5  1  0  0  0  0
  4 20  1  0  0  0  0
  4 21  1  0  0  0  0
  5 14  1  0  0  0  0
  5  6  1  0  0  0  0
  6  7  1  0  0  0  0
  6  8  2  0  0  0  0
  7 22  1  0  0  0  0
  7 23  1  0  0  0  0
  8  9  1  0  0  0  0
  8 28  1  0  0  0  0
  9 14  2  0  0  0  0
  9 10  1  0  0  0  0
 10 11  2  0  0  0  0
 10 24  1  0  0  0  0
 11 12  1  0  0  0  0
 11 25  1  0  0  0  0
 12 13  2  0  0  0  0
 12 26  1  0  0  0  0
 13 14  1  0  0  0  0
 13 27  1  0  0  0  0
M  CHG  1   8   1
M  END
> <s_m_source_file>
AV-unprocessed.smi

> <i_m_source_file_index>
2540

> <i_lp_mmshare_version>
43012

> <i_f3d_flags>
0

> <s_epik_input>
W0NIM11PW0NIMl1bQ0gyXW4oYyhuMSlbTkgyXSljKGMxMilbY0hdW2NIXVtjSF1bY0hdMg==

> <s_epik_cmdline>
J2VwaWtfcHl0aG9uJywgJy1waCcsICc3LjAnLCAnLXRuJywgJzgnLCAnLW1hJywgJzIwMCcsICctbWV0YWxfYmluZGluZycsICctaW1hZScsICc8aW5maWxlLm1hZT4nLCAnLW9tYWUnLCAnPG91dGZpbGUubWFlPic=

> <r_epik_Ionization_Penalty>
0.266071

> <r_epik_Ionization_Penalty_Charging>
0.266069

> <r_epik_Ionization_Penalty_Neutral>
1.55827e-06

> <r_epik_State_Penalty>
0.258006

> <r_epik_Charging_Adjusted_Penalty>
0.524075

> <i_epik_Tot_Q>
1

> <i_epik_Tot_abs_Q>
1

> <r_epik_Metal_State_Penalty>
3.73495

> <b_epik_Metal_Only>
0

> <s_lp_Force_Field>
OPLS_2005

> <r_lp_Energy>
14.4512

> <b_lp_Chiralities_Consistent>
1

> <s_lp_Variant>
AV-unprocessed.smi:2540-1

> <Gold.Version>
5.8.1

> <Gold.Id.Protein>
6NUR|6NUR_protein|mol2

> <Gold.PLP.Fitness>
42.7202

> <Gold.PLP.PLP>
-34.1830

> <Gold.PLP.part.hbond>
-1.7875

> <Gold.PLP.part.metal>
0.0000

> <Gold.PLP.part.buried>
-5.5725

> <Gold.PLP.part.nonpolar>
-28.1838

> <Gold.PLP.part.repulsive>
0.1933

> <Gold.PLP.ligand.clash>
0.0000

> <Gold.PLP.ligand.torsion>
0.2350

> <Gold.PLP.Chemscore.Hbond>
3.0000

> <Gold.PLP.Chemscore.CHOScore>
0.0000

> <Gold.PLP.Chemscore.Metal>
0.0000

> <Gold.Chemscore.Hbonds>
donor molecule, donor type, donor heavy atom, donor atom, acceptor molecule, acceptor atom, score
      L1  H     8    28       P1  8028  2.00
      P1  H  7997  8010       L1     2  1.00

> <Gold.PLP.Chemscore.Internal.Correction>
0.0073

> <Gold.Rescore>
     Score         DG    S(hbond)    S(metal)    S(lipo)     H(rot)  DE(clash)    DE(int)     intcor
     18.26     -18.55       1.92        0.00      89.55       1.49       0.02       0.27       ----

> <Gold.Chemscore.Fitness>
18.2586

> <Gold.Chemscore.DG>
-18.5483

> <Gold.Chemscore.ZeroCoef>
-5.4800

> <Gold.Chemscore.Hbond>
1.9208

> <Gold.Chemscore.Metal>
0.0000

> <Gold.Chemscore.Lipo>
89.5515

> <Gold.Chemscore.Internal_Hbond>
0.0000

> <Gold.Chemscore.DEClash>
0.0234

> <Gold.Chemscore.DEInternal>
0.2663

> <Gold.Chemscore.Rot>
1.4940

> <Gold.Chemscore.Internal.Correction>
   9.000000E+99

> <Gold.Chemscore.Hbonds>
donor molecule, donor type, donor heavy atom, donor atom, acceptor molecule, acceptor atom, score
      L1  H     8    28       P1  8028  0.89
      P1  H  7997  8010       L1     2  0.55

> <Gold.Chemscore.Hbond.Weighted>
-6.4155

> <Gold.Chemscore.Metal.Weighted>
-0.0000

> <Gold.Chemscore.Lipo.Weighted>
-10.4775

> <Gold.Chemscore.Internal_Hbond.Weighted>
0.0000

> <Gold.Chemscore.DEClash.Weighted>
0.0234

> <Gold.Chemscore.DEInternal.Weighted>
0.2663

> <Gold.Chemscore.Rot.Weighted>
3.8247

> <Gold.Chemscore.Internal.Correction.Weighted>
   9.000000E+99

> <Gold.Protein.RotatedTorsions>
[ 6907 6896 6895 6894 ] final   32.71 input  -60.11 | X-H torsion
[ 7974 7965 7964 7962 ] final  141.35 input  175.53 | X-H torsion
[ 8008 7997 7996 7995 ] final   75.58 input   59.86 | X-H torsion
[ 10167 10162 10161 10158 ] final -128.25 input  -65.29 | X-H torsion
[ 10718 10713 10712 10709 ] final -169.67 input   66.30 | X-H torsion
[ 10763 10752 10751 10750 ] final  -50.84 input  -60.55 | X-H torsion
[ 11005 11000 10999 10996 ] final  127.88 input  -57.11 | X-H torsion

> <Gold.Protein.ActiveResidues>
 VAL166  LYS551  ARG553  GLY616  TRP617  ASP618  TYR619  PRO620  LYS621  CYS622 
 ASP623  PHE694  ASN695  SER759  ASP760  ASP761  ALA762  ILE779  LEU786  VAL792 
 PHE793  MET794  SER795  GLU796  ALA797  LYS798  CYS799  TRP800  GLU811  SER814 

> <Gold.Protein.RotatedAtoms>
  152.0783  134.9488  160.0573 H   0  0  0  0  0  0  0  0  0  0  0  0  # atno 6907 bound_to 6896
  152.0786  133.4137  159.4499 H   0  0  0  0  0  0  0  0  0  0  0  0  # atno 6908 bound_to 6896
  150.6836  134.2928  159.4717 H   0  0  0  0  0  0  0  0  0  0  0  0  # atno 6909 bound_to 6896
  144.9104  139.5300  143.5711 H   0  0  0  0  0  0  0  0  0  0  0  0  # atno 7974 bound_to 7965
  155.8149  140.3472  155.5480 H   0  0  0  0  0  0  0  0  0  0  0  0  # atno 8008 bound_to 7997
  155.8402  140.0940  157.1759 H   0  0  0  0  0  0  0  0  0  0  0  0  # atno 8009 bound_to 7997
  154.4005  140.1396  156.3707 H   0  0  0  0  0  0  0  0  0  0  0  0  # atno 8010 bound_to 7997
  139.9523  143.6042  152.2471 H   0  0  0  0  0  0  0  0  0  0  0  0  # atno 10167 bound_to 10162
  156.7150  130.9248  151.3092 H   0  0  0  0  0  0  0  0  0  0  0  0  # atno 10718 bound_to 10713
  154.1169  135.6540  153.4895 H   0  0  0  0  0  0  0  0  0  0  0  0  # atno 10763 bound_to 10752
  153.0238  135.5261  154.7136 H   0  0  0  0  0  0  0  0  0  0  0  0  # atno 10764 bound_to 10752
  154.6332  135.2979  155.0161 H   0  0  0  0  0  0  0  0  0  0  0  0  # atno 10765 bound_to 10752
  139.9531  134.9618  156.8920 H   0  0  0  0  0  0  0  0  0  0  0  0  # atno 11005 bound_to 11000
  146.3155  139.7906  142.8986 LP  0  0  0  0  0  0  0  0  0  0  0  0  # atno 17320 bound_to 7965
  145.3464  141.0298  143.3363 LP  0  0  0  0  0  0  0  0  0  0  0  0  # atno 17321 bound_to 7965
  139.6619  144.7662  151.1947 LP  0  0  0  0  0  0  0  0  0  0  0  0  # atno 17342 bound_to 10162
  140.7579  143.5997  150.8712 LP  0  0  0  0  0  0  0  0  0  0  0  0  # atno 17343 bound_to 10162
  157.6921  130.9244  150.0542 LP  0  0  0  0  0  0  0  0  0  0  0  0  # atno 17370 bound_to 10713
  156.1634  130.3644  149.9266 LP  0  0  0  0  0  0  0  0  0  0  0  0  # atno 17371 bound_to 10713
  140.5672  134.0478  155.7418 LP  0  0  0  0  0  0  0  0  0  0  0  0  # atno 17394 bound_to 11000
  141.1198  133.9481  157.2752 LP  0  0  0  0  0  0  0  0  0  0  0  0  # atno 17395 bound_to 11000

$$$$
