AV-unprocessed.smi:114|AV-procd|sdf|1110|dock7
  -GOLD-   2262018223D 1   1.00000     0.00000
 Structure written by MMmdl.
 32 34  0  0  0  0  0  0  0  0  1 V2000
  153.0814  139.5024  158.9141 N   0  0  0  0  0  0  0  0  0  0  0  0
  152.4931  139.6979  157.7254 C   0  0  0  0  0  0  0  0  0  0  0  0
  153.0465  139.1272  156.6307 N   0  0  0  0  0  0  0  0  0  0  0  0
  152.4903  139.2998  155.4258 C   0  0  0  0  0  0  0  0  0  0  0  0
  153.1070  138.6926  154.3849 F   0  0  0  0  0  0  0  0  0  0  0  0
  151.3922  140.0048  155.1343 N   0  0  0  0  0  0  0  0  0  0  0  0
  150.8280  140.5837  156.2332 C   0  0  0  0  0  0  0  0  0  0  0  0
  151.3199  140.4747  157.5626 C   0  0  0  0  0  0  0  0  0  0  0  0
  150.5036  141.1842  158.4316 N   0  0  0  0  0  0  0  0  0  0  0  0
  149.5824  141.6855  157.6540 C   0  0  0  0  0  0  0  0  0  0  0  0
  149.7007  141.3799  156.3159 N   0  0  0  0  0  0  0  0  0  0  0  0
  148.7839  141.8242  155.2190 C   0  0  1  0  0  0  0  0  0  0  0  0
  148.9264  140.9788  154.1200 O   0  0  0  0  0  0  0  0  0  0  0  0
  147.6586  140.6502  153.5462 C   0  0  1  0  0  0  0  0  0  0  0  0
  147.4622  139.1239  153.6675 C   0  0  0  0  0  0  0  0  0  0  0  0
  147.6192  138.5173  152.4026 O   0  0  0  0  0  0  0  0  0  0  0  0
  146.6425  141.5064  154.3287 C   0  0  1  0  0  0  0  0  0  0  0  0
  145.3827  140.8851  154.4995 O   0  0  0  0  0  0  0  0  0  0  0  0
  147.3259  141.7493  155.6647 C   0  0  2  0  0  0  0  0  0  0  0  0
  146.8763  142.9773  156.2032 O   0  0  0  0  0  0  0  0  0  0  0  0
  149.1134  142.8297  154.9530 H   0  0  0  0  0  0  0  0  0  0  0  0
  147.6396  140.9382  152.4943 H   0  0  0  0  0  0  0  0  0  0  0  0
  146.5047  142.4519  153.8009 H   0  0  0  0  0  0  0  0  0  0  0  0
  147.1841  140.9132  156.3523 H   0  0  0  0  0  0  0  0  0  0  0  0
  152.6859  139.9195  159.7446 H   0  0  0  0  0  0  0  0  0  0  0  0
  153.9190  138.9422  158.9773 H   0  0  0  0  0  0  0  0  0  0  0  0
  148.7799  142.2982  158.0387 H   0  0  0  0  0  0  0  0  0  0  0  0
  148.1421  138.6837  154.3956 H   0  0  0  0  0  0  0  0  0  0  0  0
  146.4504  138.8858  153.9949 H   0  0  0  0  0  0  0  0  0  0  0  0
  148.3293  138.9461  151.9500 H   0  0  0  0  0  0  0  0  0  0  0  0
  144.8397  141.0960  153.7554 H   0  0  0  0  0  0  0  0  0  0  0  0
  147.5107  143.6468  155.9981 H   0  0  0  0  0  0  0  0  0  0  0  0
  1  2  1  0  0  0  0
  1 25  1  0  0  0  0
  1 26  1  0  0  0  0
  2  8  1  0  0  0  0
  2  3  2  0  0  0  0
  3  4  1  0  0  0  0
  4  5  1  0  0  0  0
  4  6  2  0  0  0  0
  6  7  1  0  0  0  0
  7 11  1  0  0  0  0
  7  8  2  0  0  0  0
  8  9  1  0  0  0  0
  9 10  2  0  0  0  0
 10 11  1  0  0  0  0
 10 27  1  0  0  0  0
 11 12  1  0  0  0  0
 12 21  1  0  0  0  0
 12 19  1  0  0  0  0
 12 13  1  0  0  0  0
 13 14  1  0  0  0  0
 14 22  1  0  0  0  0
 14 15  1  0  0  0  0
 14 17  1  0  0  0  0
 15 16  1  0  0  0  0
 15 28  1  0  0  0  0
 15 29  1  0  0  0  0
 16 30  1  0  0  0  0
 17 23  1  0  0  0  0
 17 18  1  0  0  0  0
 17 19  1  0  0  0  0
 18 31  1  0  0  0  0
 19 24  1  0  0  0  0
 19 20  1  0  0  0  0
 20 32  1  0  0  0  0
M  END
> <s_m_source_file>
AV-unprocessed.smi

> <i_m_source_file_index>
114

> <i_lp_mmshare_version>
43012

> <i_f3d_flags>
0

> <s_epik_input>
RmMobjEpbmMoW05IMl0pYyhjMTIpbltjSF1uMltDQEBIXTNPW0NASF0oW0NIMl1bT0hdKVtDQEBIXShbT0hdKVtDQEBIXTNbT0hd

> <s_epik_cmdline>
J2VwaWtfcHl0aG9uJywgJy1waCcsICc3LjAnLCAnLXRuJywgJzgnLCAnLW1hJywgJzIwMCcsICctbWV0YWxfYmluZGluZycsICctaW1hZScsICc8aW5maWxlLm1hZT4nLCAnLW9tYWUnLCAnPG91dGZpbGUubWFlPic=

> <r_lp_tautomer_probability>
1

> <r_epik_Ionization_Penalty>
1.13199e-05

> <r_epik_Ionization_Penalty_Charging>
0

> <r_epik_Ionization_Penalty_Neutral>
1.13199e-05

> <r_epik_State_Penalty>
-0

> <r_epik_Charging_Adjusted_Penalty>
0

> <i_epik_Tot_Q>
0

> <i_epik_Tot_abs_Q>
0

> <r_epik_Metal_State_Penalty>
-0

> <b_epik_Metal_Only>
0

> <s_epik_Chemistry_Notes>
This compound contains an acetal/aminal-like group ( X-CH(R)-Y where X, Y are N, S, or O) that may be acid/base labile, releasing an aldehyde.

> <s_lp_Force_Field>
OPLS_2005

> <r_lp_Energy>
42.0862

> <b_lp_Chiralities_Consistent>
1

> <s_lp_Variant>
AV-unprocessed.smi:114-4

> <Gold.Version>
5.8.1

> <Gold.Id.Protein>
6NUR|6NUR_protein|mol2

> <Gold.PLP.Fitness>
40.1843

> <Gold.PLP.PLP>
-29.6387

> <Gold.PLP.part.hbond>
-5.9614

> <Gold.PLP.part.metal>
0.0000

> <Gold.PLP.part.buried>
-1.3944

> <Gold.PLP.part.nonpolar>
-22.3952

> <Gold.PLP.part.repulsive>
0.2785

> <Gold.PLP.ligand.clash>
0.0000

> <Gold.PLP.ligand.torsion>
1.1805

> <Gold.PLP.Chemscore.Hbond>
4.3000

> <Gold.PLP.Chemscore.CHOScore>
0.0000

> <Gold.PLP.Chemscore.Metal>
0.0000

> <Gold.Chemscore.Hbonds>
donor molecule, donor type, donor heavy atom, donor atom, acceptor molecule, acceptor atom, score
      L1  H    16    30       P1  7957  1.00
      L1  H    18    31       P1 10175  0.96
      L1  H    20    32       P1  8028  0.20
      P1  H  7989  7998       L1     6  1.00
      P1  H  7997  8010       L1     3  0.70

> <Gold.PLP.Chemscore.Internal.Correction>
0.0066

> <Gold.Rescore>
     Score         DG    S(hbond)    S(metal)    S(lipo)     H(rot)  DE(clash)    DE(int)     intcor
      3.97      -7.06       2.60        0.00      27.26       4.03       0.50       2.58       ----

> <Gold.Chemscore.Fitness>
3.9729

> <Gold.Chemscore.DG>
-7.0576

> <Gold.Chemscore.ZeroCoef>
-5.4800

> <Gold.Chemscore.Hbond>
2.6047

> <Gold.Chemscore.Metal>
0.0000

> <Gold.Chemscore.Lipo>
27.2557

> <Gold.Chemscore.Internal_Hbond>
0.0000

> <Gold.Chemscore.DEClash>
0.5011

> <Gold.Chemscore.DEInternal>
2.5835

> <Gold.Chemscore.Rot>
4.0277

> <Gold.Chemscore.Internal.Correction>
   9.000000E+99

> <Gold.Chemscore.Hbonds>
donor molecule, donor type, donor heavy atom, donor atom, acceptor molecule, acceptor atom, score
      L1  H    16    30       P1  7957  0.96
      L1  H    18    31       P1 10175  0.60
      P1  H  7989  7998       L1     6  0.69
      P1  H  7997  8010       L1     3  0.04

> <Gold.Chemscore.Hbond.Weighted>
-8.6996

> <Gold.Chemscore.Metal.Weighted>
-0.0000

> <Gold.Chemscore.Lipo.Weighted>
-3.1889

> <Gold.Chemscore.Internal_Hbond.Weighted>
0.0000

> <Gold.Chemscore.DEClash.Weighted>
0.5011

> <Gold.Chemscore.DEInternal.Weighted>
2.5835

> <Gold.Chemscore.Rot.Weighted>
10.3110

> <Gold.Chemscore.Internal.Correction.Weighted>
   9.000000E+99

> <Gold.Protein.RotatedTorsions>
[ 6907 6896 6895 6894 ] final  156.29 input  -60.11 | X-H torsion
[ 7974 7965 7964 7962 ] final   84.29 input  175.53 | X-H torsion
[ 8008 7997 7996 7995 ] final   55.90 input   59.86 | X-H torsion
[ 10167 10162 10161 10158 ] final  123.97 input  -65.29 | X-H torsion
[ 10718 10713 10712 10709 ] final  134.42 input   66.30 | X-H torsion
[ 10763 10752 10751 10750 ] final  160.51 input  -60.55 | X-H torsion
[ 11005 11000 10999 10996 ] final -158.41 input  -57.11 | X-H torsion

> <Gold.Protein.ActiveResidues>
 VAL166  LYS551  ARG553  GLY616  TRP617  ASP618  TYR619  PRO620  LYS621  CYS622 
 ASP623  PHE694  ASN695  SER759  ASP760  ASP761  ALA762  ILE779  LEU786  VAL792 
 PHE793  MET794  SER795  GLU796  ALA797  LYS798  CYS799  TRP800  GLU811  SER814 

> <Gold.Protein.RotatedAtoms>
  152.0319  133.3941  159.4300 H   0  0  0  0  0  0  0  0  0  0  0  0  # atno 6907 bound_to 6896
  150.6881  134.3511  159.4919 H   0  0  0  0  0  0  0  0  0  0  0  0  # atno 6908 bound_to 6896
  152.1299  134.9142  160.0610 H   0  0  0  0  0  0  0  0  0  0  0  0  # atno 6909 bound_to 6896
  145.6007  139.2352  143.2247 H   0  0  0  0  0  0  0  0  0  0  0  0  # atno 7974 bound_to 7965
  155.5087  140.3476  155.4384 H   0  0  0  0  0  0  0  0  0  0  0  0  # atno 8008 bound_to 7997
  156.0864  140.1399  156.9675 H   0  0  0  0  0  0  0  0  0  0  0  0  # atno 8009 bound_to 7997
  154.4609  140.0935  156.6867 H   0  0  0  0  0  0  0  0  0  0  0  0  # atno 8010 bound_to 7997
  139.5768  144.6967  151.3631 H   0  0  0  0  0  0  0  0  0  0  0  0  # atno 10167 bound_to 10162
  157.4674  131.1078  150.9845 H   0  0  0  0  0  0  0  0  0  0  0  0  # atno 10718 bound_to 10713
  154.2485  135.2772  155.2826 H   0  0  0  0  0  0  0  0  0  0  0  0  # atno 10763 bound_to 10752
  154.5485  135.5682  153.6905 H   0  0  0  0  0  0  0  0  0  0  0  0  # atno 10764 bound_to 10752
  152.9985  135.6268  154.2631 H   0  0  0  0  0  0  0  0  0  0  0  0  # atno 10765 bound_to 10752
  140.6539  134.4421  157.5235 H   0  0  0  0  0  0  0  0  0  0  0  0  # atno 11005 bound_to 11000
  146.1578  140.6832  142.9292 LP  0  0  0  0  0  0  0  0  0  0  0  0  # atno 17320 bound_to 7965
  144.7311  140.4674  143.6937 LP  0  0  0  0  0  0  0  0  0  0  0  0  # atno 17321 bound_to 7965
  140.7050  143.7536  150.7467 LP  0  0  0  0  0  0  0  0  0  0  0  0  # atno 17342 bound_to 10162
  140.1058  143.4745  152.2399 LP  0  0  0  0  0  0  0  0  0  0  0  0  # atno 17343 bound_to 10162
  157.0621  130.5829  149.5387 LP  0  0  0  0  0  0  0  0  0  0  0  0  # atno 17370 bound_to 10713
  156.0057  130.5143  150.7821 LP  0  0  0  0  0  0  0  0  0  0  0  0  # atno 17371 bound_to 10713
  139.9036  134.8499  156.1795 LP  0  0  0  0  0  0  0  0  0  0  0  0  # atno 17394 bound_to 11000
  141.0516  133.6886  156.1782 LP  0  0  0  0  0  0  0  0  0  0  0  0  # atno 17395 bound_to 11000

$$$$
