AV-unprocessed.smi:2151|AV-procd|sdf|8758|dock8
  -GOLD-   2272011533D 1   1.00000     0.00000
 Structure written by MMmdl.
 39 40  0  0  0  0  0  0  0  0  1 V2000
  150.5812  138.5594  154.2153 C   0  0  0  0  0  0  0  0  0  0  0  0
  150.0851  139.7715  155.0234 C   0  0  2  0  0  0  0  0  0  0  0  0
  150.4391  139.6034  156.4304 N   0  0  0  0  0  0  0  0  0  0  0  0
  151.6827  139.4368  156.9056 C   0  0  0  0  0  0  0  0  0  0  0  0
  152.6794  139.3828  156.1836 O   0  0  0  0  0  0  0  0  0  0  0  0
  151.8039  139.2885  158.4289 C   0  0  0  0  0  0  0  0  0  0  0  0
  152.3109  140.5005  159.0938 N   0  0  0  0  0  0  0  0  0  0  0  0
  151.6173  141.7022  158.8505 C   0  0  0  0  0  0  0  0  0  0  0  0
  151.9799  142.8806  159.3927 C   0  0  0  0  0  0  0  0  0  0  0  0
  151.1725  144.1493  159.1660 C   0  0  0  0  0  0  0  0  0  0  0  0
  151.6592  145.1614  159.8842 F   0  0  0  0  0  0  0  0  0  0  0  0
  151.2208  144.4928  157.8798 F   0  0  0  0  0  0  0  0  0  0  0  0
  149.8935  143.9747  159.5014 F   0  0  0  0  0  0  0  0  0  0  0  0
  153.1242  142.8560  160.2824 C   0  0  0  0  0  0  0  0  0  0  0  0
  153.7900  141.7126  160.5371 C   0  0  0  0  0  0  0  0  0  0  0  0
  153.3920  140.4416  159.9277 C   0  0  0  0  0  0  0  0  0  0  0  0
  153.9920  139.3903  160.1532 O   0  0  0  0  0  0  0  0  0  0  0  0
  148.5609  139.9640  154.9074 C   0  0  2  0  0  0  0  0  0  0  0  0
  148.0732  140.4129  153.5271 C   0  0  0  0  0  0  0  0  0  0  0  0
  146.8067  141.2049  153.8202 C   0  0  0  0  0  0  0  0  0  0  0  0
  146.8017  141.3542  155.3425 C   0  0  0  0  0  0  0  0  0  0  0  0
  148.1251  141.0293  155.7386 O   0  0  0  0  0  0  0  0  0  0  0  0
  150.3635  138.6743  153.1534 H   0  0  0  0  0  0  0  0  0  0  0  0
  150.1092  137.6367  154.5541 H   0  0  0  0  0  0  0  0  0  0  0  0
  151.6603  138.4350  154.3105 H   0  0  0  0  0  0  0  0  0  0  0  0
  150.5721  140.6704  154.6402 H   0  0  0  0  0  0  0  0  0  0  0  0
  149.6795  139.6372  157.0949 H   0  0  0  0  0  0  0  0  0  0  0  0
  150.8333  139.0088  158.8432 H   0  0  0  0  0  0  0  0  0  0  0  0
  152.4566  138.4394  158.6368 H   0  0  0  0  0  0  0  0  0  0  0  0
  150.7593  141.6007  158.2017 H   0  0  0  0  0  0  0  0  0  0  0  0
  153.4554  143.7709  160.7512 H   0  0  0  0  0  0  0  0  0  0  0  0
  154.6388  141.7322  161.2050 H   0  0  0  0  0  0  0  0  0  0  0  0
  148.0380  139.0526  155.2050 H   0  0  0  0  0  0  0  0  0  0  0  0
  148.8087  141.0675  153.0574 H   0  0  0  0  0  0  0  0  0  0  0  0
  147.8976  139.5720  152.8557 H   0  0  0  0  0  0  0  0  0  0  0  0
  146.8444  142.1776  153.3286 H   0  0  0  0  0  0  0  0  0  0  0  0
  145.9109  140.6882  153.4745 H   0  0  0  0  0  0  0  0  0  0  0  0
  146.5243  142.3575  155.6661 H   0  0  0  0  0  0  0  0  0  0  0  0
  146.1076  140.6451  155.7959 H   0  0  0  0  0  0  0  0  0  0  0  0
  1  2  1  0  0  0  0
  1 23  1  0  0  0  0
  1 24  1  0  0  0  0
  1 25  1  0  0  0  0
  2  3  1  0  0  0  0
  2 18  1  0  0  0  0
  2 26  1  0  0  0  0
  3  4  1  0  0  0  0
  3 27  1  0  0  0  0
  4  5  2  0  0  0  0
  4  6  1  0  0  0  0
  6  7  1  0  0  0  0
  6 28  1  0  0  0  0
  6 29  1  0  0  0  0
  7 16  1  0  0  0  0
  7  8  1  0  0  0  0
  8  9  2  0  0  0  0
  8 30  1  0  0  0  0
  9 10  1  0  0  0  0
  9 14  1  0  0  0  0
 10 11  1  0  0  0  0
 10 12  1  0  0  0  0
 10 13  1  0  0  0  0
 14 15  2  0  0  0  0
 14 31  1  0  0  0  0
 15 16  1  0  0  0  0
 15 32  1  0  0  0  0
 16 17  2  0  0  0  0
 18 22  1  0  0  0  0
 18 19  1  0  0  0  0
 18 33  1  0  0  0  0
 19 20  1  0  0  0  0
 19 34  1  0  0  0  0
 19 35  1  0  0  0  0
 20 21  1  0  0  0  0
 20 36  1  0  0  0  0
 20 37  1  0  0  0  0
 21 22  1  0  0  0  0
 21 38  1  0  0  0  0
 21 39  1  0  0  0  0
M  END
> <s_m_source_file>
AV-unprocessed.smi

> <i_m_source_file_index>
2151

> <i_lp_mmshare_version>
43012

> <i_f3d_flags>
0

> <s_epik_input>
TzFbQ0gyXVtDSDJdW0NIMl1bQ0BIXTFbQ0BIXShbQ0gzXSlbTkhdQyg9TylbQ0gyXW4yW2NIXWMoQyhGKShGKUYpW2NIXVtjSF1jMj1P

> <s_epik_cmdline>
J2VwaWtfcHl0aG9uJywgJy1waCcsICc3LjAnLCAnLXRuJywgJzgnLCAnLW1hJywgJzIwMCcsICctbWV0YWxfYmluZGluZycsICctaW1hZScsICc8aW5maWxlLm1hZT4nLCAnLW9tYWUnLCAnPG91dGZpbGUubWFlPic=

> <r_lp_tautomer_probability>
1

> <r_epik_Ionization_Penalty>
4.20109e-08

> <r_epik_Ionization_Penalty_Charging>
1.89977e-08

> <r_epik_Ionization_Penalty_Neutral>
2.30132e-08

> <r_epik_State_Penalty>
-0

> <r_epik_Charging_Adjusted_Penalty>
1.89977e-08

> <i_epik_Tot_Q>
0

> <i_epik_Tot_abs_Q>
0

> <r_epik_Metal_State_Penalty>
-0

> <b_epik_Metal_Only>
0

> <s_lp_Force_Field>
OPLS_2005

> <r_lp_Energy>
29.9007

> <b_lp_Chiralities_Consistent>
1

> <s_lp_Variant>
AV-unprocessed.smi:2151-1

> <Gold.Version>
5.8.1

> <Gold.Id.Protein>
6NUR|6NUR_protein|mol2

> <Gold.PLP.Fitness>
52.8933

> <Gold.PLP.PLP>
-50.5139

> <Gold.PLP.part.hbond>
-1.0000

> <Gold.PLP.part.metal>
0.0000

> <Gold.PLP.part.buried>
-4.4557

> <Gold.PLP.part.nonpolar>
-43.2556

> <Gold.PLP.part.repulsive>
0.1607

> <Gold.PLP.ligand.clash>
0.0000

> <Gold.PLP.ligand.torsion>
0.3594

> <Gold.PLP.Chemscore.Hbond>
1.0000

> <Gold.PLP.Chemscore.CHOScore>
0.0000

> <Gold.PLP.Chemscore.Metal>
0.0000

> <Gold.Chemscore.Hbonds>
donor molecule, donor type, donor heavy atom, donor atom, acceptor molecule, acceptor atom, score
      P1  H  7997  8008       L1     5  1.00

> <Gold.PLP.Chemscore.Internal.Correction>
0.0982

> <Gold.Rescore>
     Score         DG    S(hbond)    S(metal)    S(lipo)     H(rot)  DE(clash)    DE(int)     intcor
     12.89     -15.88       1.00        0.00     100.37       1.82       1.49       1.50       ----

> <Gold.Chemscore.Fitness>
12.8860

> <Gold.Chemscore.DG>
-15.8821

> <Gold.Chemscore.ZeroCoef>
-5.4800

> <Gold.Chemscore.Hbond>
0.9954

> <Gold.Chemscore.Metal>
0.0000

> <Gold.Chemscore.Lipo>
100.3749

> <Gold.Chemscore.Internal_Hbond>
0.0000

> <Gold.Chemscore.DEClash>
1.4931

> <Gold.Chemscore.DEInternal>
1.5031

> <Gold.Chemscore.Rot>
1.8228

> <Gold.Chemscore.Internal.Correction>
   9.000000E+99

> <Gold.Chemscore.Hbonds>
donor molecule, donor type, donor heavy atom, donor atom, acceptor molecule, acceptor atom, score
      P1  H  7997  8008       L1     5  0.99

> <Gold.Chemscore.Hbond.Weighted>
-3.3247

> <Gold.Chemscore.Metal.Weighted>
-0.0000

> <Gold.Chemscore.Lipo.Weighted>
-11.7439

> <Gold.Chemscore.Internal_Hbond.Weighted>
0.0000

> <Gold.Chemscore.DEClash.Weighted>
1.4931

> <Gold.Chemscore.DEInternal.Weighted>
1.5031

> <Gold.Chemscore.Rot.Weighted>
4.6665

> <Gold.Chemscore.Internal.Correction.Weighted>
   9.000000E+99

> <Gold.Protein.RotatedTorsions>
[ 6907 6896 6895 6894 ] final   65.11 input  -60.11 | X-H torsion
[ 7974 7965 7964 7962 ] final  -73.87 input  175.53 | X-H torsion
[ 8008 7997 7996 7995 ] final  -58.45 input   59.86 | X-H torsion
[ 10167 10162 10161 10158 ] final -103.50 input  -65.29 | X-H torsion
[ 10718 10713 10712 10709 ] final -154.96 input   66.30 | X-H torsion
[ 10763 10752 10751 10750 ] final  -43.68 input  -60.55 | X-H torsion
[ 11005 11000 10999 10996 ] final  -42.16 input  -57.11 | X-H torsion

> <Gold.Protein.ActiveResidues>
 VAL166  LYS551  ARG553  GLY616  TRP617  ASP618  TYR619  PRO620  LYS621  CYS622 
 ASP623  PHE694  ASN695  SER759  ASP760  ASP761  ALA762  ILE779  LEU786  VAL792 
 PHE793  MET794  SER795  GLU796  ALA797  LYS798  CYS799  TRP800  GLU811  SER814 

> <Gold.Protein.RotatedAtoms>
  152.4383  134.5642  159.9902 H   0  0  0  0  0  0  0  0  0  0  0  0  # atno 6907 bound_to 6896
  151.5746  133.3379  159.3004 H   0  0  0  0  0  0  0  0  0  0  0  0  # atno 6908 bound_to 6896
  150.8285  134.7561  159.6897 H   0  0  0  0  0  0  0  0  0  0  0  0  # atno 6909 bound_to 6896
  145.6466  140.9295  143.1007 H   0  0  0  0  0  0  0  0  0  0  0  0  # atno 7974 bound_to 7965
  154.4309  140.1084  156.5959 H   0  0  0  0  0  0  0  0  0  0  0  0  # atno 8008 bound_to 7997
  155.5962  140.3492  155.4562 H   0  0  0  0  0  0  0  0  0  0  0  0  # atno 8009 bound_to 7997
  156.0208  140.1239  157.0349 H   0  0  0  0  0  0  0  0  0  0  0  0  # atno 8010 bound_to 7997
  140.2194  143.3687  152.0983 H   0  0  0  0  0  0  0  0  0  0  0  0  # atno 10167 bound_to 10162
  156.5063  130.8414  151.2629 H   0  0  0  0  0  0  0  0  0  0  0  0  # atno 10718 bound_to 10713
  153.9996  135.6695  153.4758 H   0  0  0  0  0  0  0  0  0  0  0  0  # atno 10763 bound_to 10752
  153.0668  135.4996  154.8215 H   0  0  0  0  0  0  0  0  0  0  0  0  # atno 10764 bound_to 10752
  154.7061  135.3088  154.9231 H   0  0  0  0  0  0  0  0  0  0  0  0  # atno 10765 bound_to 10752
  141.0297  133.6826  156.2557 H   0  0  0  0  0  0  0  0  0  0  0  0  # atno 11005 bound_to 11000
  144.7138  139.8272  143.7405 LP  0  0  0  0  0  0  0  0  0  0  0  0  # atno 17320 bound_to 7965
  146.1238  139.4260  143.0211 LP  0  0  0  0  0  0  0  0  0  0  0  0  # atno 17321 bound_to 7965
  139.5150  144.6956  151.5639 LP  0  0  0  0  0  0  0  0  0  0  0  0  # atno 17342 bound_to 10162
  140.6266  143.9156  150.6570 LP  0  0  0  0  0  0  0  0  0  0  0  0  # atno 17343 bound_to 10162
  157.7456  130.9964  150.2780 LP  0  0  0  0  0  0  0  0  0  0  0  0  # atno 17370 bound_to 10713
  156.3283  130.3796  149.7513 LP  0  0  0  0  0  0  0  0  0  0  0  0  # atno 17371 bound_to 10713
  140.6429  134.5147  157.5571 LP  0  0  0  0  0  0  0  0  0  0  0  0  # atno 17394 bound_to 11000
  139.9199  134.8170  156.1244 LP  0  0  0  0  0  0  0  0  0  0  0  0  # atno 17395 bound_to 11000

$$$$
