AV-unprocessed.smi:86|AV-procd|sdf|815|dock2
  -GOLD-   2262017213D 1   1.00000     0.00000
 Structure written by MMmdl.
 51 55  0  0  0  0  0  0  0  0  1 V2000
  144.8904  138.1537  152.1737 O   0  0  0  0  0  0  0  0  0  0  0  0
  145.7603  137.5070  153.0809 C   0  0  0  0  0  0  0  0  0  0  0  0
  146.3387  138.4941  154.1098 C   0  0  0  0  0  0  0  0  0  0  0  0
  147.2037  139.5680  153.4169 C   0  0  0  0  0  0  0  0  0  0  0  0
  148.2671  140.1082  154.2511 N   0  0  0  0  0  0  0  0  0  0  0  0
  149.6193  140.0219  154.0131 C   0  0  0  0  0  0  0  0  0  0  0  0
  150.3780  140.5886  154.9097 N   0  0  0  0  0  0  0  0  0  0  0  0
  149.4858  141.1229  155.8339 C   0  0  0  0  0  0  0  0  0  0  0  0
  149.6204  141.8685  157.0441 C   0  0  0  0  0  0  0  0  0  0  0  0
  150.8033  142.2506  157.5922 N   0  0  0  0  0  0  0  0  0  0  0  0
  151.2919  143.6253  157.5172 C   0  0  0  0  0  0  0  0  0  0  0  0
  152.2215  143.8021  158.7276 C   0  0  1  0  0  0  0  0  0  0  0  0
  151.4665  144.4189  159.9261 C   0  0  0  0  0  0  0  0  0  0  0  0
  152.2352  144.2529  161.2436 C   0  0  0  0  0  0  0  0  0  0  0  0
  152.4998  142.7658  161.5232 C   0  0  2  0  0  0  0  0  0  0  0  0
  153.2033  142.6314  162.7399 O   0  0  0  0  0  0  0  0  0  0  0  0
  153.3199  142.1344  160.3862 C   0  0  0  0  0  0  0  0  0  0  0  0
  152.6907  142.3623  158.9979 C   0  0  1  0  0  0  0  0  0  0  0  0
  151.4531  141.5243  158.6718 C   0  0  0  0  0  0  0  0  0  0  0  0
  148.4743  142.2315  157.6784 N   0  0  0  0  0  0  0  0  0  0  0  0
  147.2831  141.8915  157.1803 C   0  0  0  0  0  0  0  0  0  0  0  0
  147.0100  141.2002  156.0737 N   0  0  0  0  0  0  0  0  0  0  0  0
  148.1510  140.8310  155.4262 C   0  0  0  0  0  0  0  0  0  0  0  0
  145.3270  139.0136  155.1409 C   0  0  0  0  0  0  0  0  0  0  0  0
  145.7805  138.0760  156.1396 O   0  0  0  0  0  0  0  0  0  0  0  0
  146.9584  137.8241  155.3447 C   0  0  0  0  0  0  0  0  0  0  0  0
  144.6348  138.9847  152.5445 H   0  0  0  0  0  0  0  0  0  0  0  0
  145.1923  136.7225  153.5823 H   0  0  0  0  0  0  0  0  0  0  0  0
  146.5465  136.9974  152.5242 H   0  0  0  0  0  0  0  0  0  0  0  0
  147.6559  139.1665  152.5092 H   0  0  0  0  0  0  0  0  0  0  0  0
  146.5842  140.4026  153.0864 H   0  0  0  0  0  0  0  0  0  0  0  0
  150.0287  139.5148  153.1514 H   0  0  0  0  0  0  0  0  0  0  0  0
  151.8478  143.7445  156.5867 H   0  0  0  0  0  0  0  0  0  0  0  0
  150.4849  144.3594  157.5236 H   0  0  0  0  0  0  0  0  0  0  0  0
  153.0703  144.4403  158.4788 H   0  0  0  0  0  0  0  0  0  0  0  0
  151.2764  145.4759  159.7378 H   0  0  0  0  0  0  0  0  0  0  0  0
  150.4870  143.9502  160.0319 H   0  0  0  0  0  0  0  0  0  0  0  0
  153.1768  144.8015  161.1922 H   0  0  0  0  0  0  0  0  0  0  0  0
  151.6613  144.6916  162.0606 H   0  0  0  0  0  0  0  0  0  0  0  0
  151.5504  142.2398  161.6292 H   0  0  0  0  0  0  0  0  0  0  0  0
  153.6997  141.8277  162.7128 H   0  0  0  0  0  0  0  0  0  0  0  0
  154.3192  142.5725  160.3858 H   0  0  0  0  0  0  0  0  0  0  0  0
  153.4567  141.0668  160.5625 H   0  0  0  0  0  0  0  0  0  0  0  0
  153.4451  142.1139  158.2491 H   0  0  0  0  0  0  0  0  0  0  0  0
  150.7776  141.4605  159.5256 H   0  0  0  0  0  0  0  0  0  0  0  0
  151.7302  140.5142  158.3691 H   0  0  0  0  0  0  0  0  0  0  0  0
  146.4264  142.2216  157.7491 H   0  0  0  0  0  0  0  0  0  0  0  0
  145.4979  140.0466  155.4490 H   0  0  0  0  0  0  0  0  0  0  0  0
  144.2843  138.8589  154.8615 H   0  0  0  0  0  0  0  0  0  0  0  0
  147.1648  136.7607  155.2188 H   0  0  0  0  0  0  0  0  0  0  0  0
  147.8279  138.3438  155.7488 H   0  0  0  0  0  0  0  0  0  0  0  0
  1  2  1  0  0  0  0
  1 27  1  0  0  0  0
  2  3  1  0  0  0  0
  2 28  1  0  0  0  0
  2 29  1  0  0  0  0
  3 26  1  0  0  0  0
  3  4  1  0  0  0  0
  3 24  1  0  0  0  0
  4  5  1  0  0  0  0
  4 30  1  0  0  0  0
  4 31  1  0  0  0  0
  5 23  1  0  0  0  0
  5  6  1  0  0  0  0
  6  7  2  0  0  0  0
  6 32  1  0  0  0  0
  7  8  1  0  0  0  0
  8 23  2  0  0  0  0
  8  9  1  0  0  0  0
  9 10  1  0  0  0  0
  9 20  2  0  0  0  0
 10 19  1  0  0  0  0
 10 11  1  0  0  0  0
 11 12  1  0  0  0  0
 11 33  1  0  0  0  0
 11 34  1  0  0  0  0
 12 18  1  0  0  0  0
 12 13  1  0  0  0  0
 12 35  1  0  0  0  0
 13 14  1  0  0  0  0
 13 36  1  0  0  0  0
 13 37  1  0  0  0  0
 14 15  1  0  0  0  0
 14 38  1  0  0  0  0
 14 39  1  0  0  0  0
 15 16  1  0  0  0  0
 15 17  1  0  0  0  0
 15 40  1  0  0  0  0
 16 41  1  0  0  0  0
 17 18  1  0  0  0  0
 17 42  1  0  0  0  0
 17 43  1  0  0  0  0
 18 19  1  0  0  0  0
 18 44  1  0  0  0  0
 19 45  1  0  0  0  0
 19 46  1  0  0  0  0
 20 21  1  0  0  0  0
 21 22  2  0  0  0  0
 21 47  1  0  0  0  0
 22 23  1  0  0  0  0
 24 25  1  0  0  0  0
 24 48  1  0  0  0  0
 24 49  1  0  0  0  0
 25 26  1  0  0  0  0
 26 50  1  0  0  0  0
 26 51  1  0  0  0  0
M  END
> <s_m_source_file>
AV-unprocessed.smi

> <i_m_source_file_index>
86

> <i_lp_mmshare_version>
43012

> <i_f3d_flags>
0

> <s_epik_input>
W0NIMl0xT1tDSDJdQzEoW0NIMl1bT0hdKVtDSDJdbihbY0hdbjIpYyhjMjMpbltjSF1uYzNOKFtDSDJdNClbQ0gyXVtDQEBIXShbQ0BIXTQ1KVtDSDJdW0NASF0oW09IXSlbQ0gyXVtDSDJdNQ==

> <s_epik_cmdline>
J2VwaWtfcHl0aG9uJywgJy1waCcsICc3LjAnLCAnLXRuJywgJzgnLCAnLW1hJywgJzIwMCcsICctbWV0YWxfYmluZGluZycsICctaW1hZScsICc8aW5maWxlLm1hZT4nLCAnLW9tYWUnLCAnPG91dGZpbGUubWFlPic=

> <r_lp_tautomer_probability>
1

> <r_epik_Ionization_Penalty>
0.00425795

> <r_epik_Ionization_Penalty_Charging>
0

> <r_epik_Ionization_Penalty_Neutral>
0.00425795

> <r_epik_State_Penalty>
0.00299946

> <r_epik_Charging_Adjusted_Penalty>
0.00299946

> <i_epik_Tot_Q>
0

> <i_epik_Tot_abs_Q>
0

> <r_epik_Metal_State_Penalty>
-0

> <b_epik_Metal_Only>
0

> <s_lp_Force_Field>
OPLS_2005

> <r_lp_Energy>
53.5729

> <b_lp_Chiralities_Consistent>
1

> <s_lp_Variant>
AV-unprocessed.smi:86-4

> <Gold.Version>
5.8.1

> <Gold.Id.Protein>
6NUR|6NUR_protein|mol2

> <Gold.PLP.Fitness>
48.6225

> <Gold.PLP.PLP>
-45.6395

> <Gold.PLP.part.hbond>
-3.0000

> <Gold.PLP.part.metal>
0.0000

> <Gold.PLP.part.buried>
-4.1192

> <Gold.PLP.part.nonpolar>
-40.0031

> <Gold.PLP.part.repulsive>
0.3072

> <Gold.PLP.ligand.clash>
0.0000

> <Gold.PLP.ligand.torsion>
2.0574

> <Gold.PLP.Chemscore.Hbond>
1.3224

> <Gold.PLP.Chemscore.CHOScore>
0.8849

> <Gold.PLP.Chemscore.Metal>
0.0000

> <Gold.Chemscore.Hbonds>
donor molecule, donor type, donor heavy atom, donor atom, acceptor molecule, acceptor atom, score
      L1  H     1    27       P1 10175  0.98
      P1  H  7989  7998       L1     7  0.33
      L1  C     6    32       P1  7957  0.90

> <Gold.PLP.Chemscore.Internal.Correction>
0.4758

> <Gold.Rescore>
     Score         DG    S(hbond)    S(metal)    S(lipo)     H(rot)  DE(clash)    DE(int)     intcor
     11.66     -14.36       0.95        0.00     109.29       2.76       0.46       2.24       ----

> <Gold.Chemscore.Fitness>
11.6583

> <Gold.Chemscore.DG>
-14.3618

> <Gold.Chemscore.ZeroCoef>
-5.4800

> <Gold.Chemscore.Hbond>
0.9485

> <Gold.Chemscore.Metal>
0.0000

> <Gold.Chemscore.Lipo>
109.2930

> <Gold.Chemscore.Internal_Hbond>
0.0000

> <Gold.Chemscore.DEClash>
0.4647

> <Gold.Chemscore.DEInternal>
2.2388

> <Gold.Chemscore.Rot>
2.7630

> <Gold.Chemscore.Internal.Correction>
   9.000000E+99

> <Gold.Chemscore.Hbonds>
donor molecule, donor type, donor heavy atom, donor atom, acceptor molecule, acceptor atom, score
      L1  H     1    27       P1 10175  0.93
      P1  H  7989  7998       L1     7  0.01

> <Gold.Chemscore.Hbond.Weighted>
-3.1679

> <Gold.Chemscore.Metal.Weighted>
-0.0000

> <Gold.Chemscore.Lipo.Weighted>
-12.7873

> <Gold.Chemscore.Internal_Hbond.Weighted>
0.0000

> <Gold.Chemscore.DEClash.Weighted>
0.4647

> <Gold.Chemscore.DEInternal.Weighted>
2.2388

> <Gold.Chemscore.Rot.Weighted>
7.0734

> <Gold.Chemscore.Internal.Correction.Weighted>
   9.000000E+99

> <Gold.Protein.RotatedTorsions>
[ 6907 6896 6895 6894 ] final -159.59 input  -60.11 | X-H torsion
[ 7974 7965 7964 7962 ] final  -62.74 input  175.53 | X-H torsion
[ 8008 7997 7996 7995 ] final   56.33 input   59.86 | X-H torsion
[ 10167 10162 10161 10158 ] final  134.78 input  -65.29 | X-H torsion
[ 10718 10713 10712 10709 ] final  -60.00 input   66.30 | X-H torsion
[ 10763 10752 10751 10750 ] final  -71.79 input  -60.55 | X-H torsion
[ 11005 11000 10999 10996 ] final  -91.17 input  -57.11 | X-H torsion

> <Gold.Protein.ActiveResidues>
 VAL166  LYS551  ARG553  GLY616  TRP617  ASP618  TYR619  PRO620  LYS621  CYS622 
 ASP623  PHE694  ASN695  SER759  ASP760  ASP761  ALA762  ILE779  LEU786  VAL792 
 PHE793  MET794  SER795  GLU796  ALA797  LYS798  CYS799  TRP800  GLU811  SER814 

> <Gold.Protein.RotatedAtoms>
  151.3360  133.3981  159.2666 H   0  0  0  0  0  0  0  0  0  0  0  0  # atno 6907 bound_to 6896
  150.9916  134.9251  159.7913 H   0  0  0  0  0  0  0  0  0  0  0  0  # atno 6908 bound_to 6896
  152.5249  134.3325  159.9240 H   0  0  0  0  0  0  0  0  0  0  0  0  # atno 6909 bound_to 6896
  145.7876  140.8727  143.0297 H   0  0  0  0  0  0  0  0  0  0  0  0  # atno 7974 bound_to 7965
  155.5157  140.3478  155.4397 H   0  0  0  0  0  0  0  0  0  0  0  0  # atno 8008 bound_to 7997
  156.0819  140.1388  156.9729 H   0  0  0  0  0  0  0  0  0  0  0  0  # atno 8009 bound_to 7997
  154.4584  140.0944  156.6801 H   0  0  0  0  0  0  0  0  0  0  0  0  # atno 8010 bound_to 7997
  139.5242  144.6550  151.5189 H   0  0  0  0  0  0  0  0  0  0  0  0  # atno 10167 bound_to 10162
  156.1022  130.4185  150.0793 H   0  0  0  0  0  0  0  0  0  0  0  0  # atno 10718 bound_to 10713
  154.4367  135.5951  153.6103 H   0  0  0  0  0  0  0  0  0  0  0  0  # atno 10763 bound_to 10752
  152.9802  135.5988  154.3773 H   0  0  0  0  0  0  0  0  0  0  0  0  # atno 10764 bound_to 10752
  154.3618  135.2841  155.2294 H   0  0  0  0  0  0  0  0  0  0  0  0  # atno 10765 bound_to 10752
  141.1550  133.7738  156.9841 H   0  0  0  0  0  0  0  0  0  0  0  0  # atno 11005 bound_to 11000
  144.6786  140.0077  143.7484 LP  0  0  0  0  0  0  0  0  0  0  0  0  # atno 17320 bound_to 7965
  146.0010  139.3091  143.0928 LP  0  0  0  0  0  0  0  0  0  0  0  0  # atno 17321 bound_to 7965
  140.6372  143.8961  150.6658 LP  0  0  0  0  0  0  0  0  0  0  0  0  # atno 17342 bound_to 10162
  140.2284  143.3754  152.1586 LP  0  0  0  0  0  0  0  0  0  0  0  0  # atno 17343 bound_to 10162
  156.8777  130.9546  151.3603 LP  0  0  0  0  0  0  0  0  0  0  0  0  # atno 17370 bound_to 10713
  157.6193  130.8643  149.9082 LP  0  0  0  0  0  0  0  0  0  0  0  0  # atno 17371 bound_to 10713
  140.1046  134.9514  157.1975 LP  0  0  0  0  0  0  0  0  0  0  0  0  # atno 17394 bound_to 11000
  140.3273  134.2849  155.7234 LP  0  0  0  0  0  0  0  0  0  0  0  0  # atno 17395 bound_to 11000

$$$$
