AV-unprocessed.smi:421|AV-procd|sdf|2535|dock9
  -GOLD-   2262022493D 1   1.00000     0.00000
 Structure written by MMmdl.
 43 45  0  0  0  0  0  0  0  0  1 V2000
  154.1801  141.4015  161.1519 C   0  0  0  0  0  0  0  0  0  0  0  0
  153.2431  141.3617  160.0356 N   0  0  0  0  0  0  0  0  0  0  0  0
  152.6759  140.2609  159.4898 C   0  0  0  0  0  0  0  0  0  0  0  0
  152.8546  139.0980  159.8519 O   0  0  0  0  0  0  0  0  0  0  0  0
  151.8715  140.6615  158.4769 N   0  0  0  0  0  0  0  0  0  0  0  0
  151.0487  139.8013  157.6281 C   0  0  0  0  0  0  0  0  0  0  0  0
  150.0990  138.9190  158.4636 C   0  0  1  0  0  0  0  0  0  0  0  0
  148.7583  139.3234  158.2752 O   0  0  0  0  0  0  0  0  0  0  0  0
  150.1913  137.4256  158.1100 C   0  0  0  0  0  0  0  0  0  0  0  0
  149.7608  136.6353  159.2075 O   0  0  0  0  0  0  0  0  0  0  0  0
  148.3785  136.3278  159.1530 C   0  0  0  0  0  0  0  0  0  0  0  0
  147.8827  135.7882  160.4789 C   0  0  0  0  0  0  0  0  0  0  0  0
  147.4732  134.4428  160.5917 C   0  0  0  0  0  0  0  0  0  0  0  0
  147.0142  133.9448  161.8267 C   0  0  0  0  0  0  0  0  0  0  0  0
  146.9639  134.7894  162.9526 C   0  0  0  0  0  0  0  0  0  0  0  0
  147.3743  136.1323  162.8436 C   0  0  0  0  0  0  0  0  0  0  0  0
  147.8335  136.6310  161.6088 C   0  0  0  0  0  0  0  0  0  0  0  0
  151.9239  142.0596  158.3746 C   0  0  0  0  0  0  0  0  0  0  0  0
  151.2739  142.9513  157.5030 C   0  0  0  0  0  0  0  0  0  0  0  0
  151.5462  144.3298  157.6672 C   0  0  0  0  0  0  0  0  0  0  0  0
  152.4398  144.7801  158.6736 C   0  0  0  0  0  0  0  0  0  0  0  0
  153.0792  143.8614  159.5385 C   0  0  0  0  0  0  0  0  0  0  0  0
  152.7896  142.4984  159.3543 C   0  0  0  0  0  0  0  0  0  0  0  0
  154.1846  140.4652  161.7116 H   0  0  0  0  0  0  0  0  0  0  0  0
  153.9160  142.2007  161.8449 H   0  0  0  0  0  0  0  0  0  0  0  0
  155.1906  141.5847  160.7864 H   0  0  0  0  0  0  0  0  0  0  0  0
  150.4977  140.3897  156.8938 H   0  0  0  0  0  0  0  0  0  0  0  0
  151.7192  139.1640  157.0491 H   0  0  0  0  0  0  0  0  0  0  0  0
  150.3267  139.0246  159.5251 H   0  0  0  0  0  0  0  0  0  0  0  0
  148.2034  138.5634  158.3633 H   0  0  0  0  0  0  0  0  0  0  0  0
  149.5453  137.2212  157.2547 H   0  0  0  0  0  0  0  0  0  0  0  0
  151.2079  137.1614  157.8132 H   0  0  0  0  0  0  0  0  0  0  0  0
  147.8061  137.2217  158.8992 H   0  0  0  0  0  0  0  0  0  0  0  0
  148.1896  135.5931  158.3685 H   0  0  0  0  0  0  0  0  0  0  0  0
  147.5108  133.7889  159.7326 H   0  0  0  0  0  0  0  0  0  0  0  0
  146.7007  132.9145  161.9103 H   0  0  0  0  0  0  0  0  0  0  0  0
  146.6116  134.4072  163.8993 H   0  0  0  0  0  0  0  0  0  0  0  0
  147.3366  136.7801  163.7069 H   0  0  0  0  0  0  0  0  0  0  0  0
  148.1486  137.6612  161.5303 H   0  0  0  0  0  0  0  0  0  0  0  0
  150.5930  142.6049  156.7399 H   0  0  0  0  0  0  0  0  0  0  0  0
  151.0676  145.0486  157.0185 H   0  0  0  0  0  0  0  0  0  0  0  0
  152.6332  145.8372  158.7815 H   0  0  0  0  0  0  0  0  0  0  0  0
  153.7592  144.1965  160.3077 H   0  0  0  0  0  0  0  0  0  0  0  0
  1  2  1  0  0  0  0
  1 24  1  0  0  0  0
  1 25  1  0  0  0  0
  1 26  1  0  0  0  0
  2 23  1  0  0  0  0
  2  3  1  0  0  0  0
  3  4  2  0  0  0  0
  3  5  1  0  0  0  0
  5  6  1  0  0  0  0
  5 18  1  0  0  0  0
  6  7  1  0  0  0  0
  6 27  1  0  0  0  0
  6 28  1  0  0  0  0
  7  8  1  0  0  0  0
  7  9  1  0  0  0  0
  7 29  1  0  0  0  0
  8 30  1  0  0  0  0
  9 10  1  0  0  0  0
  9 31  1  0  0  0  0
  9 32  1  0  0  0  0
 10 11  1  0  0  0  0
 11 12  1  0  0  0  0
 11 33  1  0  0  0  0
 11 34  1  0  0  0  0
 12 17  1  0  0  0  0
 12 13  2  0  0  0  0
 13 14  1  0  0  0  0
 13 35  1  0  0  0  0
 14 15  2  0  0  0  0
 14 36  1  0  0  0  0
 15 16  1  0  0  0  0
 15 37  1  0  0  0  0
 16 17  2  0  0  0  0
 16 38  1  0  0  0  0
 17 39  1  0  0  0  0
 18 23  2  0  0  0  0
 18 19  1  0  0  0  0
 19 20  2  0  0  0  0
 19 40  1  0  0  0  0
 20 21  1  0  0  0  0
 20 41  1  0  0  0  0
 21 22  2  0  0  0  0
 21 42  1  0  0  0  0
 22 23  1  0  0  0  0
 22 43  1  0  0  0  0
M  END
> <s_m_source_file>
AV-unprocessed.smi

> <i_m_source_file_index>
421

> <i_lp_mmshare_version>
43012

> <i_f3d_flags>
0

> <s_epik_input>
W2NIXTFbY0hdW2NIXVtjSF1jKGMxMiluKFtDSDNdKWMoPU8pbjJbQ0gyXVtDQEhdKFtPSF0pW0NIMl1PW0NIMl1jM1tjSF1bY0hdW2NIXVtjSF1bY0hdMw==

> <s_epik_cmdline>
J2VwaWtfcHl0aG9uJywgJy1waCcsICc3LjAnLCAnLXRuJywgJzgnLCAnLW1hJywgJzIwMCcsICctbWV0YWxfYmluZGluZycsICctaW1hZScsICc8aW5maWxlLm1hZT4nLCAnLW9tYWUnLCAnPG91dGZpbGUubWFlPic=

> <r_lp_tautomer_probability>
1

> <r_epik_Ionization_Penalty>
1.0795e-06

> <r_epik_Ionization_Penalty_Charging>
2.82452e-09

> <r_epik_Ionization_Penalty_Neutral>
1.07667e-06

> <r_epik_State_Penalty>
-0

> <r_epik_Charging_Adjusted_Penalty>
2.82452e-09

> <i_epik_Tot_Q>
0

> <i_epik_Tot_abs_Q>
0

> <r_epik_Metal_State_Penalty>
-0

> <b_epik_Metal_Only>
0

> <s_lp_Force_Field>
OPLS_2005

> <r_lp_Energy>
47.6123

> <b_lp_Chiralities_Consistent>
1

> <s_lp_Variant>
AV-unprocessed.smi:421-2

> <Gold.Version>
5.8.1

> <Gold.Id.Protein>
6NUR|6NUR_protein|mol2

> <Gold.PLP.Fitness>
57.1002

> <Gold.PLP.PLP>
-56.5459

> <Gold.PLP.part.hbond>
-1.5721

> <Gold.PLP.part.metal>
0.0000

> <Gold.PLP.part.buried>
-4.6830

> <Gold.PLP.part.nonpolar>
-49.7424

> <Gold.PLP.part.repulsive>
0.0000

> <Gold.PLP.ligand.clash>
0.0000

> <Gold.PLP.ligand.torsion>
1.2810

> <Gold.PLP.Chemscore.Hbond>
1.0000

> <Gold.PLP.Chemscore.CHOScore>
0.0000

> <Gold.PLP.Chemscore.Metal>
0.0000

> <Gold.Chemscore.Hbonds>
donor molecule, donor type, donor heavy atom, donor atom, acceptor molecule, acceptor atom, score
      P1  H  6896  6909       L1    10  0.80

> <Gold.PLP.Chemscore.Internal.Correction>
0.1163

> <Gold.Rescore>
     Score         DG    S(hbond)    S(metal)    S(lipo)     H(rot)  DE(clash)    DE(int)     intcor
     18.20     -19.47       0.90        0.00     142.20       2.21       0.07       1.21       ----

> <Gold.Chemscore.Fitness>
18.1967

> <Gold.Chemscore.DG>
-19.4739

> <Gold.Chemscore.ZeroCoef>
-5.4800

> <Gold.Chemscore.Hbond>
0.9037

> <Gold.Chemscore.Metal>
0.0000

> <Gold.Chemscore.Lipo>
142.2026

> <Gold.Chemscore.Internal_Hbond>
0.0000

> <Gold.Chemscore.DEClash>
0.0689

> <Gold.Chemscore.DEInternal>
1.2083

> <Gold.Chemscore.Rot>
2.2119

> <Gold.Chemscore.Internal.Correction>
   9.000000E+99

> <Gold.Chemscore.Hbonds>
donor molecule, donor type, donor heavy atom, donor atom, acceptor molecule, acceptor atom, score
      P1  H  6896  6909       L1    10  0.63

> <Gold.Chemscore.Hbond.Weighted>
-3.0185

> <Gold.Chemscore.Metal.Weighted>
-0.0000

> <Gold.Chemscore.Lipo.Weighted>
-16.6377

> <Gold.Chemscore.Internal_Hbond.Weighted>
0.0000

> <Gold.Chemscore.DEClash.Weighted>
0.0689

> <Gold.Chemscore.DEInternal.Weighted>
1.2083

> <Gold.Chemscore.Rot.Weighted>
5.6623

> <Gold.Chemscore.Internal.Correction.Weighted>
   9.000000E+99

> <Gold.Protein.RotatedTorsions>
[ 6907 6896 6895 6894 ] final   77.89 input  -60.11 | X-H torsion
[ 7974 7965 7964 7962 ] final   -4.30 input  175.53 | X-H torsion
[ 8008 7997 7996 7995 ] final  153.34 input   59.86 | X-H torsion
[ 10167 10162 10161 10158 ] final  176.42 input  -65.29 | X-H torsion
[ 10718 10713 10712 10709 ] final  105.76 input   66.30 | X-H torsion
[ 10763 10752 10751 10750 ] final  -19.25 input  -60.55 | X-H torsion
[ 11005 11000 10999 10996 ] final   49.94 input  -57.11 | X-H torsion

> <Gold.Protein.ActiveResidues>
 VAL166  LYS551  ARG553  GLY616  TRP617  ASP618  TYR619  PRO620  LYS621  CYS622 
 ASP623  PHE694  ASN695  SER759  ASP760  ASP761  ALA762  ILE779  LEU786  VAL792 
 PHE793  MET794  SER795  GLU796  ALA797  LYS798  CYS799  TRP800  GLU811  SER814 

> <Gold.Protein.RotatedAtoms>
  152.5137  134.3747  159.9330 H   0  0  0  0  0  0  0  0  0  0  0  0  # atno 6907 bound_to 6896
  151.3703  133.3851  159.2706 H   0  0  0  0  0  0  0  0  0  0  0  0  # atno 6908 bound_to 6896
  150.9583  134.8994  159.7773 H   0  0  0  0  0  0  0  0  0  0  0  0  # atno 6909 bound_to 6896
  146.2375  140.1850  142.8332 H   0  0  0  0  0  0  0  0  0  0  0  0  # atno 7974 bound_to 7965
  156.2586  140.1996  156.6476 H   0  0  0  0  0  0  0  0  0  0  0  0  # atno 8008 bound_to 7997
  154.6562  140.0566  157.0036 H   0  0  0  0  0  0  0  0  0  0  0  0  # atno 8009 bound_to 7997
  155.1345  140.3237  155.4469 H   0  0  0  0  0  0  0  0  0  0  0  0  # atno 8010 bound_to 7997
  139.5214  144.2917  152.0458 H   0  0  0  0  0  0  0  0  0  0  0  0  # atno 10167 bound_to 10162
  157.6693  131.0835  150.5905 H   0  0  0  0  0  0  0  0  0  0  0  0  # atno 10718 bound_to 10713
  153.6019  135.6999  153.5381 H   0  0  0  0  0  0  0  0  0  0  0  0  # atno 10763 bound_to 10752
  153.3090  135.4107  155.1318 H   0  0  0  0  0  0  0  0  0  0  0  0  # atno 10764 bound_to 10752
  154.8581  135.3667  154.5555 H   0  0  0  0  0  0  0  0  0  0  0  0  # atno 10765 bound_to 10752
  140.1060  134.5018  155.8720 H   0  0  0  0  0  0  0  0  0  0  0  0  # atno 11005 bound_to 11000
  144.9903  140.8541  143.5343 LP  0  0  0  0  0  0  0  0  0  0  0  0  # atno 17320 bound_to 7965
  145.1855  139.2328  143.5270 LP  0  0  0  0  0  0  0  0  0  0  0  0  # atno 17321 bound_to 7965
  140.2368  144.4311  150.6277 LP  0  0  0  0  0  0  0  0  0  0  0  0  # atno 17342 bound_to 10162
  140.6318  143.2188  151.6479 LP  0  0  0  0  0  0  0  0  0  0  0  0  # atno 17343 bound_to 10162
  156.6205  130.4404  149.5824 LP  0  0  0  0  0  0  0  0  0  0  0  0  # atno 17370 bound_to 10713
  156.2359  130.6822  151.1509 LP  0  0  0  0  0  0  0  0  0  0  0  0  # atno 17371 bound_to 10713
  141.2118  133.6711  156.6612 LP  0  0  0  0  0  0  0  0  0  0  0  0  # atno 17394 bound_to 11000
  140.3155  134.8051  157.4211 LP  0  0  0  0  0  0  0  0  0  0  0  0  # atno 17395 bound_to 11000

$$$$
