AV-unprocessed.smi:2869|AV-procd|sdf|11028|dock4
  -GOLD-   2272015493D 1   1.00000     0.00000
 Structure written by MMmdl.
 49 51  0  0  0  0  0  0  0  0  1 V2000
  145.4930  139.3197  158.7732 N   0  0  0  0  0  0  0  0  0  0  0  0
  145.7424  140.0197  157.8858 C   0  0  0  0  0  0  0  0  0  0  0  0
  146.0695  140.8964  156.8103 C   0  0  0  0  0  0  0  0  0  0  0  0
  145.1924  141.8094  156.3452 C   0  0  0  0  0  0  0  0  0  0  0  0
  145.4970  142.6716  155.3145 N   0  0  0  0  0  0  0  0  0  0  0  0
  144.5021  143.5365  154.7450 C   0  0  0  0  0  0  0  0  0  0  0  0
  144.8050  145.0022  154.5003 C   0  0  0  0  0  0  0  0  0  0  0  0
  143.8724  144.6007  155.6167 C   0  0  0  0  0  0  0  0  0  0  0  0
  146.7349  142.5669  154.6430 C   0  0  0  0  0  0  0  0  0  0  0  0
  146.9935  143.2755  153.6669 O   0  0  0  0  0  0  0  0  0  0  0  0
  147.6711  141.6195  155.1238 N   0  0  0  0  0  0  0  0  0  0  0  0
  148.9957  141.5339  154.4698 C   0  0  0  0  0  0  0  0  0  0  0  0
  150.1717  141.5435  155.4584 C   0  0  0  0  0  0  0  0  0  0  0  0
  151.0236  140.6537  155.4433 O   0  0  0  0  0  0  0  0  0  0  0  0
  150.1988  142.5746  156.3170 N   0  0  0  0  0  0  0  0  0  0  0  0
  151.2172  142.8117  157.3405 C   0  0  0  0  0  0  0  0  0  0  0  0
  151.1536  141.6283  158.3337 C   0  0  0  0  0  0  0  0  0  0  0  0
  152.4639  141.2276  159.0461 C   0  0  0  0  0  0  0  0  0  0  0  0
  153.2037  142.2991  159.8674 C   0  0  0  0  0  0  0  0  0  0  0  0
  152.2949  143.2267  160.6934 C   0  0  0  0  0  0  0  0  0  0  0  0
  152.2488  144.6789  160.1881 C   0  0  0  0  0  0  0  0  0  0  0  0
  152.1299  144.8818  158.6644 C   0  0  0  0  0  0  0  0  0  0  0  0
  150.9354  144.1993  157.9769 C   0  0  0  0  0  0  0  0  0  0  0  0
  147.4000  140.7627  156.2213 C   0  0  0  0  0  0  0  0  0  0  0  0
  148.2472  139.9665  156.6299 O   0  0  0  0  0  0  0  0  0  0  0  0
  144.2151  141.8755  156.8014 H   0  0  0  0  0  0  0  0  0  0  0  0
  143.8390  143.0646  154.0219 H   0  0  0  0  0  0  0  0  0  0  0  0
  145.7850  145.3812  154.7848 H   0  0  0  0  0  0  0  0  0  0  0  0
  144.3659  145.4635  153.6181 H   0  0  0  0  0  0  0  0  0  0  0  0
  142.8110  144.7972  155.4805 H   0  0  0  0  0  0  0  0  0  0  0  0
  144.2396  144.7146  156.6351 H   0  0  0  0  0  0  0  0  0  0  0  0
  149.0656  140.6346  153.8557 H   0  0  0  0  0  0  0  0  0  0  0  0
  149.1392  142.3481  153.7579 H   0  0  0  0  0  0  0  0  0  0  0  0
  149.4564  143.2559  156.2545 H   0  0  0  0  0  0  0  0  0  0  0  0
  152.1967  142.8131  156.8587 H   0  0  0  0  0  0  0  0  0  0  0  0
  150.3544  141.7941  159.0557 H   0  0  0  0  0  0  0  0  0  0  0  0
  150.8390  140.7355  157.7901 H   0  0  0  0  0  0  0  0  0  0  0  0
  152.2285  140.3969  159.7125 H   0  0  0  0  0  0  0  0  0  0  0  0
  153.1578  140.8179  158.3113 H   0  0  0  0  0  0  0  0  0  0  0  0
  153.8817  141.7822  160.5478 H   0  0  0  0  0  0  0  0  0  0  0  0
  153.8653  142.8727  159.2201 H   0  0  0  0  0  0  0  0  0  0  0  0
  151.2858  142.8248  160.7688 H   0  0  0  0  0  0  0  0  0  0  0  0
  152.6554  143.2448  161.7226 H   0  0  0  0  0  0  0  0  0  0  0  0
  151.4257  145.1937  160.6850 H   0  0  0  0  0  0  0  0  0  0  0  0
  153.1540  145.1882  160.5204 H   0  0  0  0  0  0  0  0  0  0  0  0
  152.0320  145.9564  158.5051 H   0  0  0  0  0  0  0  0  0  0  0  0
  153.0565  144.6189  158.1553 H   0  0  0  0  0  0  0  0  0  0  0  0
  150.6289  144.8765  157.1779 H   0  0  0  0  0  0  0  0  0  0  0  0
  150.0779  144.1545  158.6493 H   0  0  0  0  0  0  0  0  0  0  0  0
  1  2  3  0  0  0  0
  2  3  1  0  0  0  0
  3 24  1  0  0  0  0
  3  4  2  0  0  0  0
  4  5  1  0  0  0  0
  4 26  1  0  0  0  0
  5  6  1  0  0  0  0
  5  9  1  0  0  0  0
  6  8  1  0  0  0  0
  6  7  1  0  0  0  0
  6 27  1  0  0  0  0
  7  8  1  0  0  0  0
  7 28  1  0  0  0  0
  7 29  1  0  0  0  0
  8 30  1  0  0  0  0
  8 31  1  0  0  0  0
  9 10  2  0  0  0  0
  9 11  1  0  0  0  0
 11 12  1  0  0  0  0
 11 24  1  0  0  0  0
 12 13  1  0  0  0  0
 12 32  1  0  0  0  0
 12 33  1  0  0  0  0
 13 14  2  0  0  0  0
 13 15  1  0  0  0  0
 15 16  1  0  0  0  0
 15 34  1  0  0  0  0
 16 23  1  0  0  0  0
 16 17  1  0  0  0  0
 16 35  1  0  0  0  0
 17 18  1  0  0  0  0
 17 36  1  0  0  0  0
 17 37  1  0  0  0  0
 18 19  1  0  0  0  0
 18 38  1  0  0  0  0
 18 39  1  0  0  0  0
 19 20  1  0  0  0  0
 19 40  1  0  0  0  0
 19 41  1  0  0  0  0
 20 21  1  0  0  0  0
 20 42  1  0  0  0  0
 20 43  1  0  0  0  0
 21 22  1  0  0  0  0
 21 44  1  0  0  0  0
 21 45  1  0  0  0  0
 22 23  1  0  0  0  0
 22 46  1  0  0  0  0
 22 47  1  0  0  0  0
 23 48  1  0  0  0  0
 23 49  1  0  0  0  0
 24 25  2  0  0  0  0
M  END
> <s_m_source_file>
AV-unprocessed.smi

> <i_m_source_file_index>
2869

> <i_lp_mmshare_version>
43012

> <i_f3d_flags>
0

> <s_epik_input>
TiNDYzFbY0hdbihbQ0hdMltDSDJdW0NIMl0yKWMoPU8pbihjMT1PKVtDSDJdQyg9TylbTkhdW0NIXTNbQ0gyXVtDSDJdW0NIMl1bQ0gyXVtDSDJdW0NIMl1bQ0gyXTM=

> <s_epik_cmdline>
J2VwaWtfcHl0aG9uJywgJy1waCcsICc3LjAnLCAnLXRuJywgJzgnLCAnLW1hJywgJzIwMCcsICctbWV0YWxfYmluZGluZycsICctaW1hZScsICc8aW5maWxlLm1hZT4nLCAnLW9tYWUnLCAnPG91dGZpbGUubWFlPic=

> <r_lp_tautomer_probability>
1

> <r_epik_Ionization_Penalty>
2.03018e-08

> <r_epik_Ionization_Penalty_Charging>
8.701e-11

> <r_epik_Ionization_Penalty_Neutral>
2.02148e-08

> <r_epik_State_Penalty>
-0

> <r_epik_Charging_Adjusted_Penalty>
8.701e-11

> <i_epik_Tot_Q>
0

> <i_epik_Tot_abs_Q>
0

> <r_epik_Metal_State_Penalty>
-0

> <b_epik_Metal_Only>
0

> <s_lp_Force_Field>
OPLS_2005

> <r_lp_Energy>
47.5685

> <b_lp_Chiralities_Consistent>
1

> <s_lp_Variant>
AV-unprocessed.smi:2869-1

> <Gold.Version>
5.8.1

> <Gold.Id.Protein>
6NUR|6NUR_protein|mol2

> <Gold.PLP.Fitness>
50.1072

> <Gold.PLP.PLP>
-45.2331

> <Gold.PLP.part.hbond>
-4.0000

> <Gold.PLP.part.metal>
0.0000

> <Gold.PLP.part.buried>
-5.2944

> <Gold.PLP.part.nonpolar>
-36.6638

> <Gold.PLP.part.repulsive>
0.5217

> <Gold.PLP.ligand.clash>
0.0000

> <Gold.PLP.ligand.torsion>
0.2937

> <Gold.PLP.Chemscore.Hbond>
1.7475

> <Gold.PLP.Chemscore.CHOScore>
0.0000

> <Gold.PLP.Chemscore.Metal>
0.0000

> <Gold.Chemscore.Hbonds>
donor molecule, donor type, donor heavy atom, donor atom, acceptor molecule, acceptor atom, score
      L1  H    15    34       P1  8028  0.99
      P1  H  7989  7998       L1    14  0.76
      P1  H  8022  8030       L1    10  0.22

> <Gold.PLP.Chemscore.Internal.Correction>
0.2189

> <Gold.Rescore>
     Score         DG    S(hbond)    S(metal)    S(lipo)     H(rot)  DE(clash)    DE(int)     intcor
     15.53     -17.90       1.32        0.00     105.33       1.68       0.53       1.83       ----

> <Gold.Chemscore.Fitness>
15.5344

> <Gold.Chemscore.DG>
-17.8959

> <Gold.Chemscore.ZeroCoef>
-5.4800

> <Gold.Chemscore.Hbond>
1.3174

> <Gold.Chemscore.Metal>
0.0000

> <Gold.Chemscore.Lipo>
105.3288

> <Gold.Chemscore.Internal_Hbond>
0.0000

> <Gold.Chemscore.DEClash>
0.5329

> <Gold.Chemscore.DEInternal>
1.8286

> <Gold.Chemscore.Rot>
1.6826

> <Gold.Chemscore.Internal.Correction>
   9.000000E+99

> <Gold.Chemscore.Hbonds>
donor molecule, donor type, donor heavy atom, donor atom, acceptor molecule, acceptor atom, score
      L1  H    15    34       P1  8028  0.93
      P1  H  7989  7998       L1    14  0.14
      P1  H  8022  8030       L1    10  0.22

> <Gold.Chemscore.Hbond.Weighted>
-4.4000

> <Gold.Chemscore.Metal.Weighted>
-0.0000

> <Gold.Chemscore.Lipo.Weighted>
-12.3235

> <Gold.Chemscore.Internal_Hbond.Weighted>
0.0000

> <Gold.Chemscore.DEClash.Weighted>
0.5329

> <Gold.Chemscore.DEInternal.Weighted>
1.8286

> <Gold.Chemscore.Rot.Weighted>
4.3076

> <Gold.Chemscore.Internal.Correction.Weighted>
   9.000000E+99

> <Gold.Protein.RotatedTorsions>
[ 6907 6896 6895 6894 ] final   34.90 input  -60.11 | X-H torsion
[ 7974 7965 7964 7962 ] final -164.86 input  175.53 | X-H torsion
[ 8008 7997 7996 7995 ] final -140.81 input   59.86 | X-H torsion
[ 10167 10162 10161 10158 ] final  141.77 input  -65.29 | X-H torsion
[ 10718 10713 10712 10709 ] final -178.18 input   66.30 | X-H torsion
[ 10763 10752 10751 10750 ] final   70.58 input  -60.55 | X-H torsion
[ 11005 11000 10999 10996 ] final   61.88 input  -57.11 | X-H torsion

> <Gold.Protein.ActiveResidues>
 VAL166  LYS551  ARG553  GLY616  TRP617  ASP618  TYR619  PRO620  LYS621  CYS622 
 ASP623  PHE694  ASN695  SER759  ASP760  ASP761  ALA762  ILE779  LEU786  VAL792 
 PHE793  MET794  SER795  GLU796  ALA797  LYS798  CYS799  TRP800  GLU811  SER814 

> <Gold.Protein.RotatedAtoms>
  152.1087  134.9290  160.0567 H   0  0  0  0  0  0  0  0  0  0  0  0  # atno 6907 bound_to 6896
  152.0476  133.4000  159.4371 H   0  0  0  0  0  0  0  0  0  0  0  0  # atno 6908 bound_to 6896
  150.6842  134.3265  159.4852 H   0  0  0  0  0  0  0  0  0  0  0  0  # atno 6909 bound_to 6896
  144.7285  140.2899  143.6222 H   0  0  0  0  0  0  0  0  0  0  0  0  # atno 7974 bound_to 7965
  155.4675  140.0550  157.2983 H   0  0  0  0  0  0  0  0  0  0  0  0  # atno 8008 bound_to 7997
  154.4712  140.2041  155.9945 H   0  0  0  0  0  0  0  0  0  0  0  0  # atno 8009 bound_to 7997
  156.1058  140.3212  155.8009 H   0  0  0  0  0  0  0  0  0  0  0  0  # atno 8010 bound_to 7997
  139.5011  144.6150  151.6185 H   0  0  0  0  0  0  0  0  0  0  0  0  # atno 10167 bound_to 10162
  156.8404  130.9684  151.3100 H   0  0  0  0  0  0  0  0  0  0  0  0  # atno 10718 bound_to 10713
  153.0350  135.5168  154.7462 H   0  0  0  0  0  0  0  0  0  0  0  0  # atno 10763 bound_to 10752
  154.6447  135.2917  155.0063 H   0  0  0  0  0  0  0  0  0  0  0  0  # atno 10764 bound_to 10752
  154.0969  135.6642  153.4914 H   0  0  0  0  0  0  0  0  0  0  0  0  # atno 10765 bound_to 10752
  140.0130  134.6267  155.9751 H   0  0  0  0  0  0  0  0  0  0  0  0  # atno 11005 bound_to 11000
  145.7865  139.1911  143.2127 LP  0  0  0  0  0  0  0  0  0  0  0  0  # atno 17320 bound_to 7965
  146.0791  140.7784  142.9650 LP  0  0  0  0  0  0  0  0  0  0  0  0  # atno 17321 bound_to 7965
  140.5835  143.9904  150.6282 LP  0  0  0  0  0  0  0  0  0  0  0  0  # atno 17342 bound_to 10162
  140.3061  143.3228  152.0924 LP  0  0  0  0  0  0  0  0  0  0  0  0  # atno 17343 bound_to 10162
  157.6358  130.8766  149.9357 LP  0  0  0  0  0  0  0  0  0  0  0  0  # atno 17370 bound_to 10713
  156.0884  130.3666  150.0443 LP  0  0  0  0  0  0  0  0  0  0  0  0  # atno 17371 bound_to 10713
  141.1724  133.6538  156.4701 LP  0  0  0  0  0  0  0  0  0  0  0  0  # atno 17394 bound_to 11000
  140.4520  134.6920  157.5044 LP  0  0  0  0  0  0  0  0  0  0  0  0  # atno 17395 bound_to 11000

$$$$
