AV-unprocessed.smi:3112|AV-procd|sdf|11838|dock7
  -GOLD-   2272017213D 1   1.00000     0.00000
 Structure written by MMmdl.
 37 37  0  0  0  0  0  0  0  0  2 V2000
  147.8865  139.4330  153.8316 C   0  0  0  0  0  0  0  0  0  0  0  0
  147.0495  140.6728  154.1761 C   0  0  0  0  0  0  0  0  0  0  0  0
  147.8354  141.7463  154.9506 C   0  0  2  0  0  0  0  0  0  0  0  0
  148.8338  142.2821  154.1043 O   0  0  0  0  0  0  0  0  0  0  0  0
  148.5201  141.1690  156.2010 C   0  0  0  0  0  0  0  0  0  0  0  0
  149.1219  142.2426  157.0195 N   0  3  0  0  0  0  0  0  0  0  0  0
  150.3315  141.8670  157.7895 C   0  0  1  0  0  0  0  0  0  0  0  0
  151.3356  141.1055  156.9021 C   0  0  0  0  0  0  0  0  0  0  0  0
  150.9735  143.1117  158.4577 C   0  0  2  0  0  0  0  0  0  0  0  0
  151.6278  144.0702  157.4444 C   0  0  0  0  0  0  0  0  0  0  0  0
  151.8834  142.7723  159.5480 N   0  0  0  0  0  0  0  0  0  0  0  0
  153.0879  142.1022  159.4731 C   0  0  0  0  0  0  0  0  0  0  0  0
  153.5971  142.0302  160.7379 C   0  0  0  0  0  0  0  0  0  0  0  0
  152.6236  142.6958  161.5325 C   0  0  0  0  0  0  0  0  0  0  0  0
  151.6026  143.1414  160.8189 N   0  0  0  0  0  0  0  0  0  0  0  0
  147.3001  138.7198  153.2519 H   0  0  0  0  0  0  0  0  0  0  0  0
  148.2321  138.9212  154.7298 H   0  0  0  0  0  0  0  0  0  0  0  0
  148.7621  139.7006  153.2394 H   0  0  0  0  0  0  0  0  0  0  0  0
  146.6792  141.1030  153.2449 H   0  0  0  0  0  0  0  0  0  0  0  0
  146.1668  140.3732  154.7428 H   0  0  0  0  0  0  0  0  0  0  0  0
  147.1559  142.5481  155.2442 H   0  0  0  0  0  0  0  0  0  0  0  0
  149.0927  143.1270  154.4408 H   0  0  0  0  0  0  0  0  0  0  0  0
  147.7858  140.6427  156.8120 H   0  0  0  0  0  0  0  0  0  0  0  0
  149.2758  140.4396  155.9094 H   0  0  0  0  0  0  0  0  0  0  0  0
  149.3472  143.0253  156.4217 H   0  0  0  0  0  0  0  0  0  0  0  0
  150.0171  141.1988  158.5928 H   0  0  0  0  0  0  0  0  0  0  0  0
  152.2508  140.8842  157.4518 H   0  0  0  0  0  0  0  0  0  0  0  0
  151.6117  141.6825  156.0189 H   0  0  0  0  0  0  0  0  0  0  0  0
  150.9325  140.1526  156.5605 H   0  0  0  0  0  0  0  0  0  0  0  0
  150.1568  143.6742  158.9133 H   0  0  0  0  0  0  0  0  0  0  0  0
  150.9111  144.3846  156.6853 H   0  0  0  0  0  0  0  0  0  0  0  0
  152.4727  143.6104  156.9312 H   0  0  0  0  0  0  0  0  0  0  0  0
  151.9946  144.9696  157.9402 H   0  0  0  0  0  0  0  0  0  0  0  0
  153.4801  141.7360  158.5356 H   0  0  0  0  0  0  0  0  0  0  0  0
  154.5247  141.5726  161.0483 H   0  0  0  0  0  0  0  0  0  0  0  0
  152.6292  142.8690  162.5986 H   0  0  0  0  0  0  0  0  0  0  0  0
  148.4214  142.5452  157.6809 H   0  0  0  0  0  0  0  0  0  0  0  0
  1  2  1  0  0  0  0
  1 16  1  0  0  0  0
  1 17  1  0  0  0  0
  1 18  1  0  0  0  0
  2  3  1  0  0  0  0
  2 19  1  0  0  0  0
  2 20  1  0  0  0  0
  3  4  1  0  0  0  0
  3  5  1  0  0  0  0
  3 21  1  0  0  0  0
  4 22  1  0  0  0  0
  5  6  1  0  0  0  0
  5 23  1  0  0  0  0
  5 24  1  0  0  0  0
  6  7  1  0  0  0  0
  6 25  1  0  0  0  0
  6 37  1  0  0  0  0
  7  8  1  0  0  0  0
  7  9  1  0  0  0  0
  7 26  1  0  0  0  0
  8 27  1  0  0  0  0
  8 28  1  0  0  0  0
  8 29  1  0  0  0  0
  9 10  1  0  0  0  0
  9 11  1  0  0  0  0
  9 30  1  0  0  0  0
 10 31  1  0  0  0  0
 10 32  1  0  0  0  0
 10 33  1  0  0  0  0
 11 15  1  0  0  0  0
 11 12  1  0  0  0  0
 12 13  2  0  0  0  0
 12 34  1  0  0  0  0
 13 14  1  0  0  0  0
 13 35  1  0  0  0  0
 14 15  2  0  0  0  0
 14 36  1  0  0  0  0
M  CHG  1   6   1
M  END
> <s_m_source_file>
AV-unprocessed.smi

> <i_m_source_file_index>
3112

> <i_lp_mmshare_version>
43012

> <i_f3d_flags>
0

> <s_epik_input>
W0NIM11bQ0gyXVtDQEhdKFtPSF0pW0NIMl1bTkhdW0NASF0oW0NIM10pW0NASF0oW0NIM10pbjFbY0hdW2NIXVtjSF1uMQ==

> <s_epik_cmdline>
J2VwaWtfcHl0aG9uJywgJy1waCcsICc3LjAnLCAnLXRuJywgJzgnLCAnLW1hJywgJzIwMCcsICctbWV0YWxfYmluZGluZycsICctaW1hZScsICc8aW5maWxlLm1hZT4nLCAnLW9tYWUnLCAnPG91dGZpbGUubWFlPic=

> <r_lp_tautomer_probability>
1

> <r_epik_Ionization_Penalty>
0.0154842

> <r_epik_Ionization_Penalty_Charging>
0.0154724

> <r_epik_Ionization_Penalty_Neutral>
1.17979e-05

> <r_epik_State_Penalty>
0.0121607

> <r_epik_Charging_Adjusted_Penalty>
0.0276331

> <i_epik_Tot_Q>
1

> <i_epik_Tot_abs_Q>
1

> <r_epik_Metal_State_Penalty>
0.0121863

> <b_epik_Metal_Only>
0

> <s_lp_Force_Field>
OPLS_2005

> <r_lp_Energy>
12.0711

> <b_lp_Chiralities_Consistent>
1

> <s_lp_Variant>
AV-unprocessed.smi:3112-3

> <Gold.Version>
5.8.1

> <Gold.Id.Protein>
6NUR|6NUR_protein|mol2

> <Gold.PLP.Fitness>
44.8819

> <Gold.PLP.PLP>
-35.9628

> <Gold.PLP.part.hbond>
-3.9380

> <Gold.PLP.part.metal>
0.0000

> <Gold.PLP.part.buried>
-3.4212

> <Gold.PLP.part.nonpolar>
-28.1721

> <Gold.PLP.part.repulsive>
0.1126

> <Gold.PLP.ligand.clash>
0.0000

> <Gold.PLP.ligand.torsion>
0.4996

> <Gold.PLP.Chemscore.Hbond>
3.2304

> <Gold.PLP.Chemscore.CHOScore>
0.0000

> <Gold.PLP.Chemscore.Metal>
0.0000

> <Gold.Chemscore.Hbonds>
donor molecule, donor type, donor heavy atom, donor atom, acceptor molecule, acceptor atom, score
      L1  H     4    22       P1  8028  1.00
      L1  H     6    25       P1  8028  1.98
      P1  H  8011  8017       L1     4  0.20

> <Gold.PLP.Chemscore.Internal.Correction>
0.2271

> <Gold.Rescore>
     Score         DG    S(hbond)    S(metal)    S(lipo)     H(rot)  DE(clash)    DE(int)     intcor
     15.86     -16.28       2.00        0.00      87.78       2.41       0.01       0.41       ----

> <Gold.Chemscore.Fitness>
15.8619

> <Gold.Chemscore.DG>
-16.2796

> <Gold.Chemscore.ZeroCoef>
-5.4800

> <Gold.Chemscore.Hbond>
2.0048

> <Gold.Chemscore.Metal>
0.0000

> <Gold.Chemscore.Lipo>
87.7795

> <Gold.Chemscore.Internal_Hbond>
0.0000

> <Gold.Chemscore.DEClash>
0.0111

> <Gold.Chemscore.DEInternal>
0.4066

> <Gold.Chemscore.Rot>
2.4089

> <Gold.Chemscore.Internal.Correction>
   9.000000E+99

> <Gold.Chemscore.Hbonds>
donor molecule, donor type, donor heavy atom, donor atom, acceptor molecule, acceptor atom, score
      L1  H     4    22       P1  8028  0.94
      L1  H     6    25       P1  8028  0.94
      P1  H  8011  8017       L1     4  0.03

> <Gold.Chemscore.Hbond.Weighted>
-6.6961

> <Gold.Chemscore.Metal.Weighted>
-0.0000

> <Gold.Chemscore.Lipo.Weighted>
-10.2702

> <Gold.Chemscore.Internal_Hbond.Weighted>
0.0000

> <Gold.Chemscore.DEClash.Weighted>
0.0111

> <Gold.Chemscore.DEInternal.Weighted>
0.4066

> <Gold.Chemscore.Rot.Weighted>
6.1667

> <Gold.Chemscore.Internal.Correction.Weighted>
   9.000000E+99

> <Gold.Protein.RotatedTorsions>
[ 6907 6896 6895 6894 ] final    3.18 input  -60.11 | X-H torsion
[ 7974 7965 7964 7962 ] final -174.92 input  175.53 | X-H torsion
[ 8008 7997 7996 7995 ] final  -83.93 input   59.86 | X-H torsion
[ 10167 10162 10161 10158 ] final  -68.15 input  -65.29 | X-H torsion
[ 10718 10713 10712 10709 ] final  119.12 input   66.30 | X-H torsion
[ 10763 10752 10751 10750 ] final  142.87 input  -60.55 | X-H torsion
[ 11005 11000 10999 10996 ] final   69.15 input  -57.11 | X-H torsion

> <Gold.Protein.ActiveResidues>
 VAL166  LYS551  ARG553  GLY616  TRP617  ASP618  TYR619  PRO620  LYS621  CYS622 
 ASP623  PHE694  ASN695  SER759  ASP760  ASP761  ALA762  ILE779  LEU786  VAL792 
 PHE793  MET794  SER795  GLU796  ALA797  LYS798  CYS799  TRP800  GLU811  SER814 

> <Gold.Protein.RotatedAtoms>
  151.6209  135.1032  160.0101 H   0  0  0  0  0  0  0  0  0  0  0  0  # atno 6907 bound_to 6896
  152.4158  133.7031  159.6446 H   0  0  0  0  0  0  0  0  0  0  0  0  # atno 6908 bound_to 6896
  150.8046  133.8460  159.3233 H   0  0  0  0  0  0  0  0  0  0  0  0  # atno 6909 bound_to 6896
  144.7130  140.1398  143.6392 H   0  0  0  0  0  0  0  0  0  0  0  0  # atno 7974 bound_to 7965
  154.6243  140.0612  156.9654 H   0  0  0  0  0  0  0  0  0  0  0  0  # atno 8008 bound_to 7997
  155.1767  140.3295  155.4364 H   0  0  0  0  0  0  0  0  0  0  0  0  # atno 8009 bound_to 7997
  156.2449  140.1905  156.6865 H   0  0  0  0  0  0  0  0  0  0  0  0  # atno 8010 bound_to 7997
  140.5529  143.2312  151.6877 H   0  0  0  0  0  0  0  0  0  0  0  0  # atno 10167 bound_to 10162
  157.5983  131.1055  150.7852 H   0  0  0  0  0  0  0  0  0  0  0  0  # atno 10718 bound_to 10713
  153.9629  135.2958  155.3432 H   0  0  0  0  0  0  0  0  0  0  0  0  # atno 10763 bound_to 10752
  154.7365  135.5044  153.9053 H   0  0  0  0  0  0  0  0  0  0  0  0  # atno 10764 bound_to 10752
  153.0937  135.6715  153.9914 H   0  0  0  0  0  0  0  0  0  0  0  0  # atno 10765 bound_to 10752
  139.9670  134.6963  156.0524 H   0  0  0  0  0  0  0  0  0  0  0  0  # atno 11005 bound_to 11000
  145.9212  139.2547  143.1380 LP  0  0  0  0  0  0  0  0  0  0  0  0  # atno 17320 bound_to 7965
  145.9618  140.8829  143.0207 LP  0  0  0  0  0  0  0  0  0  0  0  0  # atno 17321 bound_to 7965
  139.5035  144.3789  152.0396 LP  0  0  0  0  0  0  0  0  0  0  0  0  # atno 17342 bound_to 10162
  140.2907  144.3756  150.6089 LP  0  0  0  0  0  0  0  0  0  0  0  0  # atno 17343 bound_to 10162
  156.8257  130.4999  149.5337 LP  0  0  0  0  0  0  0  0  0  0  0  0  # atno 17370 bound_to 10713
  156.1051  130.5998  150.9957 LP  0  0  0  0  0  0  0  0  0  0  0  0  # atno 17371 bound_to 10713
  141.1350  133.6577  156.3569 LP  0  0  0  0  0  0  0  0  0  0  0  0  # atno 17394 bound_to 11000
  140.5374  134.6153  157.5369 LP  0  0  0  0  0  0  0  0  0  0  0  0  # atno 17395 bound_to 11000

$$$$
