AV-unprocessed.smi:1911|AV-procd|sdf|7739|dock10
  -GOLD-   22720 9483D 1   1.00000     0.00000
 Structure written by MMmdl.
 52 54  0  0  0  0  0  0  0  0  2 V2000
  149.1723  127.6264  151.3326 N   0  0  0  0  0  0  0  0  0  0  0  0
  148.1437  128.3155  151.8318 C   0  0  0  0  0  0  0  0  0  0  0  0
  147.0886  128.4564  151.2158 O   0  0  0  0  0  0  0  0  0  0  0  0
  148.3270  128.9143  153.2306 C   0  0  0  0  0  0  0  0  0  0  0  0
  148.5557  130.3825  153.2115 N   0  3  2  0  0  0  0  0  0  0  0  0
  149.4811  130.8433  154.2818 C   0  0  0  0  0  0  0  0  0  0  0  0
  149.7914  132.3428  154.1401 C   0  0  0  0  0  0  0  0  0  0  0  0
  148.5015  133.1784  154.1504 C   0  0  1  0  0  0  0  0  0  0  0  0
  148.8183  134.5885  153.9423 N   0  0  0  0  0  0  0  0  0  0  0  0
  149.2815  135.4205  154.8866 C   0  0  0  0  0  0  0  0  0  0  0  0
  149.4775  135.0771  156.0520 O   0  0  0  0  0  0  0  0  0  0  0  0
  149.4751  136.6563  154.3947 N   0  0  0  0  0  0  0  0  0  0  0  0
  149.9603  137.8101  155.0679 C   0  0  0  0  0  0  0  0  0  0  0  0
  150.1778  137.7241  156.4569 C   0  0  0  0  0  0  0  0  0  0  0  0
  150.6436  138.8547  157.1541 C   0  0  0  0  0  0  0  0  0  0  0  0
  150.8761  140.0542  156.4402 C   0  0  0  0  0  0  0  0  0  0  0  0
  151.3388  141.2140  157.0935 N   0  0  0  0  0  0  0  0  0  0  0  0
  151.0028  142.5518  156.6344 C   0  0  0  0  0  0  0  0  0  0  0  0
  151.5954  143.4848  157.6902 C   0  0  0  0  0  0  0  0  0  0  0  0
  151.4978  142.6636  158.9758 C   0  0  0  0  0  0  0  0  0  0  0  0
  151.6900  141.2166  158.5083 C   0  0  0  0  0  0  0  0  0  0  0  0
  150.6482  140.1436  155.1085 N   0  0  0  0  0  0  0  0  0  0  0  0
  150.2029  139.0568  154.4437 C   0  0  0  0  0  0  0  0  0  0  0  0
  147.5465  132.6596  153.0595 C   0  0  0  0  0  0  0  0  0  0  0  0
  147.2856  131.1525  153.2200 C   0  0  0  0  0  0  0  0  0  0  0  0
  149.0970  127.2085  150.4157 H   0  0  0  0  0  0  0  0  0  0  0  0
  150.0209  127.5180  151.8696 H   0  0  0  0  0  0  0  0  0  0  0  0
  147.4137  128.6930  153.7849 H   0  0  0  0  0  0  0  0  0  0  0  0
  149.1420  128.4150  153.7579 H   0  0  0  0  0  0  0  0  0  0  0  0
  149.0373  130.6441  155.2586 H   0  0  0  0  0  0  0  0  0  0  0  0
  150.4145  130.2812  154.2406 H   0  0  0  0  0  0  0  0  0  0  0  0
  150.4495  132.6604  154.9498 H   0  0  0  0  0  0  0  0  0  0  0  0
  150.3389  132.5125  153.2114 H   0  0  0  0  0  0  0  0  0  0  0  0
  148.0261  133.0615  155.1266 H   0  0  0  0  0  0  0  0  0  0  0  0
  148.6815  134.9559  153.0117 H   0  0  0  0  0  0  0  0  0  0  0  0
  149.1930  136.8033  153.4367 H   0  0  0  0  0  0  0  0  0  0  0  0
  149.9946  136.8006  156.9866 H   0  0  0  0  0  0  0  0  0  0  0  0
  150.8125  138.7843  158.2181 H   0  0  0  0  0  0  0  0  0  0  0  0
  151.4137  142.7561  155.6451 H   0  0  0  0  0  0  0  0  0  0  0  0
  149.9182  142.6586  156.5905 H   0  0  0  0  0  0  0  0  0  0  0  0
  152.6433  143.6842  157.4608 H   0  0  0  0  0  0  0  0  0  0  0  0
  151.0748  144.4409  157.7523 H   0  0  0  0  0  0  0  0  0  0  0  0
  152.2246  142.9647  159.7307 H   0  0  0  0  0  0  0  0  0  0  0  0
  150.5015  142.7788  159.4055 H   0  0  0  0  0  0  0  0  0  0  0  0
  151.0720  140.5335  159.0922 H   0  0  0  0  0  0  0  0  0  0  0  0
  152.7313  140.9102  158.6127 H   0  0  0  0  0  0  0  0  0  0  0  0
  150.0238  139.2162  153.3920 H   0  0  0  0  0  0  0  0  0  0  0  0
  146.5992  133.1988  153.0977 H   0  0  0  0  0  0  0  0  0  0  0  0
  147.9710  132.8513  152.0727 H   0  0  0  0  0  0  0  0  0  0  0  0
  146.6435  130.8138  152.4059 H   0  0  0  0  0  0  0  0  0  0  0  0
  146.7482  130.9602  154.1500 H   0  0  0  0  0  0  0  0  0  0  0  0
  149.0034  130.5830  152.3282 H   0  0  0  0  0  0  0  0  0  0  0  0
  1  2  1  0  0  0  0
  1 26  1  0  0  0  0
  1 27  1  0  0  0  0
  2  3  2  0  0  0  0
  2  4  1  0  0  0  0
  4  5  1  0  0  0  0
  4 28  1  0  0  0  0
  4 29  1  0  0  0  0
  5 25  1  0  0  0  0
  5  6  1  0  0  0  0
  5 52  1  0  0  0  0
  6  7  1  0  0  0  0
  6 30  1  0  0  0  0
  6 31  1  0  0  0  0
  7  8  1  0  0  0  0
  7 32  1  0  0  0  0
  7 33  1  0  0  0  0
  8  9  1  0  0  0  0
  8 24  1  0  0  0  0
  8 34  1  0  0  0  0
  9 10  1  0  0  0  0
  9 35  1  0  0  0  0
 10 11  2  0  0  0  0
 10 12  1  0  0  0  0
 12 13  1  0  0  0  0
 12 36  1  0  0  0  0
 13 23  1  0  0  0  0
 13 14  2  0  0  0  0
 14 15  1  0  0  0  0
 14 37  1  0  0  0  0
 15 16  2  0  0  0  0
 15 38  1  0  0  0  0
 16 17  1  0  0  0  0
 16 22  1  0  0  0  0
 17 21  1  0  0  0  0
 17 18  1  0  0  0  0
 18 19  1  0  0  0  0
 18 39  1  0  0  0  0
 18 40  1  0  0  0  0
 19 20  1  0  0  0  0
 19 41  1  0  0  0  0
 19 42  1  0  0  0  0
 20 21  1  0  0  0  0
 20 43  1  0  0  0  0
 20 44  1  0  0  0  0
 21 45  1  0  0  0  0
 21 46  1  0  0  0  0
 22 23  2  0  0  0  0
 23 47  1  0  0  0  0
 24 25  1  0  0  0  0
 24 48  1  0  0  0  0
 24 49  1  0  0  0  0
 25 50  1  0  0  0  0
 25 51  1  0  0  0  0
M  CHG  1   5   1
M  END
> <s_m_source_file>
AV-unprocessed.smi

> <i_m_source_file_index>
1911

> <i_lp_mmshare_version>
43012

> <i_f3d_flags>
0

> <s_epik_input>
W05IMl1DKD1PKVtDSDJdTjFbQ0gyXVtDSDJdW0NIXShbQ0gyXVtDSDJdMSlbTkhdQyg9TylbTkhdYzJbY0hdW2NIXWMobltjSF0yKU4zW0NIMl1bQ0gyXVtDSDJdW0NIMl0z

> <s_epik_cmdline>
J2VwaWtfcHl0aG9uJywgJy1waCcsICc3LjAnLCAnLXRuJywgJzgnLCAnLW1hJywgJzIwMCcsICctbWV0YWxfYmluZGluZycsICctaW1hZScsICc8aW5maWxlLm1hZT4nLCAnLW9tYWUnLCAnPG91dGZpbGUubWFlPic=

> <r_lp_tautomer_probability>
1

> <r_epik_Ionization_Penalty>
0.91661

> <r_epik_Ionization_Penalty_Charging>
0.838844

> <r_epik_Ionization_Penalty_Neutral>
0.0777665

> <r_epik_State_Penalty>
0.927046

> <r_epik_Charging_Adjusted_Penalty>
1.76589

> <i_epik_Tot_Q>
1

> <i_epik_Tot_abs_Q>
1

> <r_epik_Metal_State_Penalty>
0.950553

> <b_epik_Metal_Only>
0

> <s_lp_Force_Field>
OPLS_2005

> <r_lp_Energy>
39.0232

> <b_lp_Chiralities_Consistent>
1

> <s_lp_Variant>
AV-unprocessed.smi:1911-2

> <Gold.Version>
5.8.1

> <Gold.Id.Protein>
6NUR|6NUR_protein|mol2

> <Gold.PLP.Fitness>
53.7628

> <Gold.PLP.PLP>
-39.2073

> <Gold.PLP.part.hbond>
-5.0293

> <Gold.PLP.part.metal>
0.0000

> <Gold.PLP.part.buried>
-2.9466

> <Gold.PLP.part.nonpolar>
-29.3469

> <Gold.PLP.part.repulsive>
0.3946

> <Gold.PLP.ligand.clash>
0.0000

> <Gold.PLP.ligand.torsion>
1.0591

> <Gold.PLP.Chemscore.Hbond>
4.4993

> <Gold.PLP.Chemscore.CHOScore>
1.0000

> <Gold.PLP.Chemscore.Metal>
0.0000

> <Gold.Chemscore.Hbonds>
donor molecule, donor type, donor heavy atom, donor atom, acceptor molecule, acceptor atom, score
      L1  H     1    27       P1 10737  0.82
      L1  H     5    52       P1 10747  0.99
      L1  H     9    35       P1  7948  0.99
      L1  H    12    36       P1  7948  1.00
      P1  H  7989  7998       L1    22  0.70
      L1  C    23    47       P1  7957  1.00

> <Gold.PLP.Chemscore.Internal.Correction>
0.1759

> <Gold.Rescore>
     Score         DG    S(hbond)    S(metal)    S(lipo)     H(rot)  DE(clash)    DE(int)     intcor
     17.59     -20.19       2.80        0.00      87.56       1.91       0.09       2.51       ----

> <Gold.Chemscore.Fitness>
17.5908

> <Gold.Chemscore.DG>
-20.1898

> <Gold.Chemscore.ZeroCoef>
-5.4800

> <Gold.Chemscore.Hbond>
2.7987

> <Gold.Chemscore.Metal>
0.0000

> <Gold.Chemscore.Lipo>
87.5643

> <Gold.Chemscore.Internal_Hbond>
0.0000

> <Gold.Chemscore.DEClash>
0.0905

> <Gold.Chemscore.DEInternal>
2.5085

> <Gold.Chemscore.Rot>
1.9074

> <Gold.Chemscore.Internal.Correction>
   9.000000E+99

> <Gold.Chemscore.Hbonds>
donor molecule, donor type, donor heavy atom, donor atom, acceptor molecule, acceptor atom, score
      L1  H     1    27       P1 10737  0.76
      L1  H     5    52       P1 10747  0.23
      L1  H     9    35       P1  7948  0.37
      L1  H    12    36       P1  7948  0.93
      P1  H  7989  7998       L1    22  0.07

> <Gold.Chemscore.Hbond.Weighted>
-9.3477

> <Gold.Chemscore.Metal.Weighted>
-0.0000

> <Gold.Chemscore.Lipo.Weighted>
-10.2450

> <Gold.Chemscore.Internal_Hbond.Weighted>
0.0000

> <Gold.Chemscore.DEClash.Weighted>
0.0905

> <Gold.Chemscore.DEInternal.Weighted>
2.5085

> <Gold.Chemscore.Rot.Weighted>
4.8829

> <Gold.Chemscore.Internal.Correction.Weighted>
   9.000000E+99

> <Gold.Protein.RotatedTorsions>
[ 6907 6896 6895 6894 ] final -157.20 input  -60.11 | X-H torsion
[ 7974 7965 7964 7962 ] final -160.57 input  175.53 | X-H torsion
[ 8008 7997 7996 7995 ] final   28.84 input   59.86 | X-H torsion
[ 10167 10162 10161 10158 ] final -172.19 input  -65.29 | X-H torsion
[ 10718 10713 10712 10709 ] final   71.74 input   66.30 | X-H torsion
[ 10763 10752 10751 10750 ] final  -28.33 input  -60.55 | X-H torsion
[ 11005 11000 10999 10996 ] final   98.93 input  -57.11 | X-H torsion

> <Gold.Protein.ActiveResidues>
 VAL166  LYS551  ARG553  GLY616  TRP617  ASP618  TYR619  PRO620  LYS621  CYS622 
 ASP623  PHE694  ASN695  SER759  ASP760  ASP761  ALA762  ILE779  LEU786  VAL792 
 PHE793  MET794  SER795  GLU796  ALA797  LYS798  CYS799  TRP800  GLU811  SER814 

> <Gold.Protein.RotatedAtoms>
  151.2993  133.4130  159.2638 H   0  0  0  0  0  0  0  0  0  0  0  0  # atno 6907 bound_to 6896
  151.0209  134.9469  159.8069 H   0  0  0  0  0  0  0  0  0  0  0  0  # atno 6908 bound_to 6896
  152.5324  134.2956  159.9112 H   0  0  0  0  0  0  0  0  0  0  0  0  # atno 6909 bound_to 6896
  144.7422  140.3522  143.6113 H   0  0  0  0  0  0  0  0  0  0  0  0  # atno 7974 bound_to 7965
  155.0651  140.3194  155.4648 H   0  0  0  0  0  0  0  0  0  0  0  0  # atno 8008 bound_to 7997
  156.2804  140.2122  156.5723 H   0  0  0  0  0  0  0  0  0  0  0  0  # atno 8009 bound_to 7997
  154.7100  140.0499  157.0529 H   0  0  0  0  0  0  0  0  0  0  0  0  # atno 8010 bound_to 7997
  139.5758  144.1535  152.1449 H   0  0  0  0  0  0  0  0  0  0  0  0  # atno 10167 bound_to 10162
  157.6467  130.9544  150.0832 H   0  0  0  0  0  0  0  0  0  0  0  0  # atno 10718 bound_to 10713
  153.7466  135.6929  153.4955 H   0  0  0  0  0  0  0  0  0  0  0  0  # atno 10763 bound_to 10752
  153.2032  135.4429  155.0290 H   0  0  0  0  0  0  0  0  0  0  0  0  # atno 10764 bound_to 10752
  154.8202  135.3418  154.6989 H   0  0  0  0  0  0  0  0  0  0  0  0  # atno 10765 bound_to 10752
  139.8771  134.9072  156.4530 H   0  0  0  0  0  0  0  0  0  0  0  0  # atno 11005 bound_to 11000
  145.7264  139.1724  143.2455 LP  0  0  0  0  0  0  0  0  0  0  0  0  # atno 17320 bound_to 7965
  146.1239  140.7274  142.9444 LP  0  0  0  0  0  0  0  0  0  0  0  0  # atno 17321 bound_to 7965
  140.1078  144.5484  150.6945 LP  0  0  0  0  0  0  0  0  0  0  0  0  # atno 17342 bound_to 10162
  140.7041  143.2455  151.4778 LP  0  0  0  0  0  0  0  0  0  0  0  0  # atno 17343 bound_to 10162
  156.1802  130.3650  149.9045 LP  0  0  0  0  0  0  0  0  0  0  0  0  # atno 17370 bound_to 10713
  156.6999  130.8929  151.3598 LP  0  0  0  0  0  0  0  0  0  0  0  0  # atno 17371 bound_to 10713
  140.8918  133.7842  155.9581 LP  0  0  0  0  0  0  0  0  0  0  0  0  # atno 17394 bound_to 11000
  140.8745  134.2686  157.5175 LP  0  0  0  0  0  0  0  0  0  0  0  0  # atno 17395 bound_to 11000

$$$$
