AV-unprocessed.smi:37|AV-procd|sdf|309|dock6
  -GOLD-   2262016123D 1   1.00000     0.00000
 Structure written by MMmdl.
 44 45  0  0  0  0  0  0  0  0  1 V2000
  147.2042  134.5422  162.4088 C   0  0  0  0  0  0  0  0  0  0  0  0
  147.4092  136.0628  162.3915 C   0  0  0  0  0  0  0  0  0  0  0  0
  147.5701  136.6084  160.9745 C   0  0  0  0  0  0  0  0  0  0  0  0
  146.8009  137.4578  160.5243 O   0  0  0  0  0  0  0  0  0  0  0  0
  148.6048  136.0518  160.3211 O   0  0  0  0  0  0  0  0  0  0  0  0
  148.8404  136.3628  158.9562 C   0  0  0  0  0  0  0  0  0  0  0  0
  149.3437  137.8082  158.8488 C   0  0  2  0  0  0  0  0  0  0  0  0
  148.5387  138.4863  157.8857 O   0  0  0  0  0  0  0  0  0  0  0  0
  149.3492  139.0330  156.8945 C   0  0  2  0  0  0  0  0  0  0  0  0
  148.6164  139.0803  155.5697 N   0  0  0  0  0  0  0  0  0  0  0  0
  147.3698  138.4799  155.4649 C   0  0  0  0  0  0  0  0  0  0  0  0
  146.6519  138.4578  154.3171 C   0  0  0  0  0  0  0  0  0  0  0  0
  145.4468  137.8637  154.2998 F   0  0  0  0  0  0  0  0  0  0  0  0
  147.1744  139.0725  153.1010 C   0  0  0  0  0  0  0  0  0  0  0  0
  146.5994  139.1062  152.0151 O   0  0  0  0  0  0  0  0  0  0  0  0
  148.4378  139.6520  153.2457 N   0  0  0  0  0  0  0  0  0  0  0  0
  149.1894  139.6807  154.4218 C   0  0  0  0  0  0  0  0  0  0  0  0
  150.2990  140.2112  154.4184 O   0  0  0  0  0  0  0  0  0  0  0  0
  150.6785  138.2645  156.8889 C   0  0  2  0  0  0  0  0  0  0  0  0
  150.6928  136.5827  155.8129 Br  0  0  0  0  0  0  0  0  0  0  0  0
  150.8016  137.9024  158.3607 C   0  0  1  0  0  0  0  0  0  0  0  0
  151.4563  138.9394  159.0842 O   0  0  0  0  0  0  0  0  0  0  0  0
  152.6931  139.3367  158.7344 C   0  0  0  0  0  0  0  0  0  0  0  0
  153.2929  138.9995  157.7122 O   0  0  0  0  0  0  0  0  0  0  0  0
  153.3001  140.2908  159.7649 C   0  0  0  0  0  0  0  0  0  0  0  0
  152.5078  141.5954  159.9361 C   0  0  0  0  0  0  0  0  0  0  0  0
  148.8439  140.0830  152.4280 H   0  0  0  0  0  0  0  0  0  0  0  0
  147.1088  134.1806  163.4327 H   0  0  0  0  0  0  0  0  0  0  0  0
  148.0485  134.0236  161.9532 H   0  0  0  0  0  0  0  0  0  0  0  0
  146.2999  134.2529  161.8721 H   0  0  0  0  0  0  0  0  0  0  0  0
  146.5615  136.5591  162.8642 H   0  0  0  0  0  0  0  0  0  0  0  0
  148.2934  136.3244  162.9735 H   0  0  0  0  0  0  0  0  0  0  0  0
  149.5655  135.6850  158.5050 H   0  0  0  0  0  0  0  0  0  0  0  0
  147.9067  136.2464  158.4056 H   0  0  0  0  0  0  0  0  0  0  0  0
  149.2215  138.2999  159.8150 H   0  0  0  0  0  0  0  0  0  0  0  0
  149.5024  140.0763  157.1773 H   0  0  0  0  0  0  0  0  0  0  0  0
  146.9371  138.0140  156.3389 H   0  0  0  0  0  0  0  0  0  0  0  0
  151.4871  138.8962  156.5197 H   0  0  0  0  0  0  0  0  0  0  0  0
  151.3335  136.9606  158.5050 H   0  0  0  0  0  0  0  0  0  0  0  0
  153.3635  139.7721  160.7218 H   0  0  0  0  0  0  0  0  0  0  0  0
  154.3221  140.5203  159.4623 H   0  0  0  0  0  0  0  0  0  0  0  0
  152.9872  142.2416  160.6715 H   0  0  0  0  0  0  0  0  0  0  0  0
  151.4914  141.4017  160.2808 H   0  0  0  0  0  0  0  0  0  0  0  0
  152.4479  142.1509  158.9994 H   0  0  0  0  0  0  0  0  0  0  0  0
  1  2  1  0  0  0  0
  1 28  1  0  0  0  0
  1 29  1  0  0  0  0
  1 30  1  0  0  0  0
  2  3  1  0  0  0  0
  2 31  1  0  0  0  0
  2 32  1  0  0  0  0
  3  4  2  0  0  0  0
  3  5  1  0  0  0  0
  5  6  1  0  0  0  0
  6  7  1  0  0  0  0
  6 33  1  0  0  0  0
  6 34  1  0  0  0  0
  7 21  1  0  0  0  0
  7  8  1  0  0  0  0
  7 35  1  0  0  0  0
  8  9  1  0  0  0  0
  9 10  1  0  0  0  0
  9 19  1  0  0  0  0
  9 36  1  0  0  0  0
 10 17  1  0  0  0  0
 10 11  1  0  0  0  0
 11 12  2  0  0  0  0
 11 37  1  0  0  0  0
 12 13  1  0  0  0  0
 12 14  1  0  0  0  0
 14 15  2  0  0  0  0
 14 16  1  0  0  0  0
 16 27  1  0  0  0  0
 16 17  1  0  0  0  0
 17 18  2  0  0  0  0
 19 20  1  0  0  0  0
 19 21  1  0  0  0  0
 19 38  1  0  0  0  0
 21 22  1  0  0  0  0
 21 39  1  0  0  0  0
 22 23  1  0  0  0  0
 23 24  2  0  0  0  0
 23 25  1  0  0  0  0
 25 26  1  0  0  0  0
 25 40  1  0  0  0  0
 25 41  1  0  0  0  0
 26 42  1  0  0  0  0
 26 43  1  0  0  0  0
 26 44  1  0  0  0  0
M  END
> <s_m_source_file>
AV-unprocessed.smi

> <i_m_source_file_index>
37

> <i_lp_mmshare_version>
43012

> <i_f3d_flags>
0

> <s_epik_input>
W0NIM11bQ0gyXUMoPU8pT1tDSDJdW0NAQEhdMU9bQ0BASF0objJbY0hdYyhGKWMoPU8pW25IXWMyPU8pW0NAQEhdKEJyKVtDQEhdMU9DKD1PKVtDSDJdW0NIM10=

> <s_epik_cmdline>
J2VwaWtfcHl0aG9uJywgJy1waCcsICc3LjAnLCAnLXRuJywgJzgnLCAnLW1hJywgJzIwMCcsICctbWV0YWxfYmluZGluZycsICctaW1hZScsICc8aW5maWxlLm1hZT4nLCAnLW9tYWUnLCAnPG91dGZpbGUubWFlPic=

> <r_lp_tautomer_probability>
0.999537

> <r_epik_Ionization_Penalty>
0.104106

> <r_epik_Ionization_Penalty_Charging>
0.104106

> <r_epik_Ionization_Penalty_Neutral>
3.94675e-16

> <r_epik_State_Penalty>
0.0940182

> <r_epik_Charging_Adjusted_Penalty>
0.198124

> <i_epik_Tot_Q>
0

> <i_epik_Tot_abs_Q>
0

> <r_epik_Metal_State_Penalty>
3.05314

> <b_epik_Metal_Only>
0

> <s_epik_Chemistry_Notes>
This compound has an ester and may undergo hydrolysis at high or low pH. This compound contains an acetal/aminal-like group ( X-CH(R)-Y where X, Y are N, S, or O) that may be acid/base labile, releasing an aldehyde.

> <s_lp_Force_Field>
OPLS_2005

> <r_lp_Energy>
23.3394

> <b_lp_Chiralities_Consistent>
1

> <s_lp_Variant>
AV-unprocessed.smi:37-7

> <Gold.Version>
5.8.1

> <Gold.Id.Protein>
6NUR|6NUR_protein|mol2

> <Gold.PLP.Fitness>
46.6973

> <Gold.PLP.PLP>
-36.4206

> <Gold.PLP.part.hbond>
-3.8185

> <Gold.PLP.part.metal>
0.0000

> <Gold.PLP.part.buried>
-7.8821

> <Gold.PLP.part.nonpolar>
-25.5867

> <Gold.PLP.part.repulsive>
0.5413

> <Gold.PLP.ligand.clash>
0.0000

> <Gold.PLP.ligand.torsion>
0.9215

> <Gold.PLP.Chemscore.Hbond>
3.9913

> <Gold.PLP.Chemscore.CHOScore>
0.0000

> <Gold.PLP.Chemscore.Metal>
0.0000

> <Gold.Chemscore.Hbonds>
donor molecule, donor type, donor heavy atom, donor atom, acceptor molecule, acceptor atom, score
      L1  H    16    27       P1  7957  0.86
      P1  H  6934  6947       L1     4  1.00
      P1  H  7989  7998       L1    18  1.00
      P1  H  7997  8008       L1    24  1.00

> <Gold.PLP.Chemscore.Internal.Correction>
0.1459

> <Gold.Rescore>
     Score         DG    S(hbond)    S(metal)    S(lipo)     H(rot)  DE(clash)    DE(int)     intcor
     14.61     -17.10       3.98        0.00      58.51       3.33       0.02       2.47       ----

> <Gold.Chemscore.Fitness>
14.6084

> <Gold.Chemscore.DG>
-17.1050

> <Gold.Chemscore.ZeroCoef>
-5.4800

> <Gold.Chemscore.Hbond>
3.9836

> <Gold.Chemscore.Metal>
0.0000

> <Gold.Chemscore.Lipo>
58.5087

> <Gold.Chemscore.Internal_Hbond>
0.0000

> <Gold.Chemscore.DEClash>
0.0224

> <Gold.Chemscore.DEInternal>
2.4742

> <Gold.Chemscore.Rot>
3.3303

> <Gold.Chemscore.Internal.Correction>
   9.000000E+99

> <Gold.Chemscore.Hbonds>
donor molecule, donor type, donor heavy atom, donor atom, acceptor molecule, acceptor atom, score
      L1  H    16    27       P1  7957  0.81
      P1  H  6934  6947       L1     4  0.90
      P1  H  7989  7998       L1    18  0.98
      P1  H  7997  8008       L1    24  0.99

> <Gold.Chemscore.Hbond.Weighted>
-13.3051

> <Gold.Chemscore.Metal.Weighted>
-0.0000

> <Gold.Chemscore.Lipo.Weighted>
-6.8455

> <Gold.Chemscore.Internal_Hbond.Weighted>
0.0000

> <Gold.Chemscore.DEClash.Weighted>
0.0224

> <Gold.Chemscore.DEInternal.Weighted>
2.4742

> <Gold.Chemscore.Rot.Weighted>
8.5256

> <Gold.Chemscore.Internal.Correction.Weighted>
   9.000000E+99

> <Gold.Protein.RotatedTorsions>
[ 6907 6896 6895 6894 ] final  -74.47 input  -60.11 | X-H torsion
[ 7974 7965 7964 7962 ] final   80.17 input  175.53 | X-H torsion
[ 8008 7997 7996 7995 ] final  -82.16 input   59.86 | X-H torsion
[ 10167 10162 10161 10158 ] final   89.57 input  -65.29 | X-H torsion
[ 10718 10713 10712 10709 ] final  133.14 input   66.30 | X-H torsion
[ 10763 10752 10751 10750 ] final  105.40 input  -60.55 | X-H torsion
[ 11005 11000 10999 10996 ] final  -68.16 input  -57.11 | X-H torsion

> <Gold.Protein.ActiveResidues>
 VAL166  LYS551  ARG553  GLY616  TRP617  ASP618  TYR619  PRO620  LYS621  CYS622 
 ASP623  PHE694  ASN695  SER759  ASP760  ASP761  ALA762  ILE779  LEU786  VAL792 
 PHE793  MET794  SER795  GLU796  ALA797  LYS798  CYS799  TRP800  GLU811  SER814 

> <Gold.Protein.RotatedAtoms>
  150.7092  134.4865  159.5494 H   0  0  0  0  0  0  0  0  0  0  0  0  # atno 6907 bound_to 6896
  152.2491  134.8148  160.0458 H   0  0  0  0  0  0  0  0  0  0  0  0  # atno 6908 bound_to 6896
  151.8902  133.3479  159.3832 H   0  0  0  0  0  0  0  0  0  0  0  0  # atno 6909 bound_to 6896
  145.6546  139.2456  143.1957 H   0  0  0  0  0  0  0  0  0  0  0  0  # atno 7974 bound_to 7965
  154.6058  140.0637  156.9428 H   0  0  0  0  0  0  0  0  0  0  0  0  # atno 8008 bound_to 7997
  155.2056  140.3318  155.4318 H   0  0  0  0  0  0  0  0  0  0  0  0  # atno 8009 bound_to 7997
  156.2346  140.1857  156.7136 H   0  0  0  0  0  0  0  0  0  0  0  0  # atno 8010 bound_to 7997
  139.8559  144.6569  150.9114 H   0  0  0  0  0  0  0  0  0  0  0  0  # atno 10167 bound_to 10162
  157.4803  131.1085  150.9691 H   0  0  0  0  0  0  0  0  0  0  0  0  # atno 10718 bound_to 10713
  153.3789  135.3911  155.1842 H   0  0  0  0  0  0  0  0  0  0  0  0  # atno 10763 bound_to 10752
  154.8705  135.3720  154.4883 H   0  0  0  0  0  0  0  0  0  0  0  0  # atno 10764 bound_to 10752
  153.5357  135.7085  153.5722 H   0  0  0  0  0  0  0  0  0  0  0  0  # atno 10765 bound_to 10752
  141.1525  133.6734  156.6404 H   0  0  0  0  0  0  0  0  0  0  0  0  # atno 11005 bound_to 11000
  146.1175  140.7351  142.9473 LP  0  0  0  0  0  0  0  0  0  0  0  0  # atno 17320 bound_to 7965
  144.7110  140.4038  143.7080 LP  0  0  0  0  0  0  0  0  0  0  0  0  # atno 17321 bound_to 7965
  140.7781  143.3786  151.1518 LP  0  0  0  0  0  0  0  0  0  0  0  0  # atno 17342 bound_to 10162
  139.7420  143.8910  152.3052 LP  0  0  0  0  0  0  0  0  0  0  0  0  # atno 17343 bound_to 10162
  157.0426  130.5755  149.5358 LP  0  0  0  0  0  0  0  0  0  0  0  0  # atno 17370 bound_to 10713
  156.0118  130.5210  150.8011 LP  0  0  0  0  0  0  0  0  0  0  0  0  # atno 17371 bound_to 10713
  140.3398  134.7859  157.4389 LP  0  0  0  0  0  0  0  0  0  0  0  0  # atno 17394 bound_to 11000
  140.0947  134.5553  155.8410 LP  0  0  0  0  0  0  0  0  0  0  0  0  # atno 17395 bound_to 11000

$$$$
