AV-unprocessed.smi:1863|AV-procd|sdf|7551|dock1
  -GOLD-   22720 9263D 1   1.00000     0.00000
 Structure written by MMmdl.
 37 38  0  0  0  0  0  0  0  0  1 V2000
  143.8335  135.9758  151.3953 C   0  0  0  0  0  0  0  0  0  0  0  0
  145.0788  135.1695  151.7888 C   0  0  1  0  0  0  0  0  0  0  0  0
  145.4724  134.1760  150.6711 C   0  0  0  0  0  0  0  0  0  0  0  0
  145.5373  132.7939  151.1437 N   0  0  0  0  0  0  0  0  0  0  0  0
  146.4766  132.4082  152.1840 C   0  0  0  0  0  0  0  0  0  0  0  0
  146.0398  130.9981  152.6038 C   0  0  0  0  0  0  0  0  0  0  0  0
  145.1332  130.4964  151.4751 C   0  0  0  0  0  0  0  0  0  0  0  0
  144.8050  131.7635  150.7035 C   0  0  0  0  0  0  0  0  0  0  0  0
  143.9650  131.8004  149.8056 O   0  0  0  0  0  0  0  0  0  0  0  0
  146.1701  136.1064  152.0516 N   0  0  0  0  0  0  0  0  0  0  0  0
  146.0679  137.2485  152.7476 C   0  0  0  0  0  0  0  0  0  0  0  0
  145.0165  137.6502  153.2456 O   0  0  0  0  0  0  0  0  0  0  0  0
  147.2591  137.8619  152.8484 N   0  0  0  0  0  0  0  0  0  0  0  0
  147.5796  139.0628  153.5372 C   0  0  0  0  0  0  0  0  0  0  0  0
  148.8978  139.4816  153.8404 C   0  0  0  0  0  0  0  0  0  0  0  0
  149.0827  140.6875  154.5440 C   0  0  0  0  0  0  0  0  0  0  0  0
  147.9452  141.4256  154.9248 C   0  0  0  0  0  0  0  0  0  0  0  0
  146.6830  141.0315  154.6545 N   0  0  0  0  0  0  0  0  0  0  0  0
  146.5137  139.8741  153.9805 C   0  0  0  0  0  0  0  0  0  0  0  0
  142.9815  135.3187  151.2179 H   0  0  0  0  0  0  0  0  0  0  0  0
  144.0031  136.5531  150.4855 H   0  0  0  0  0  0  0  0  0  0  0  0
  143.5499  136.6723  152.1850 H   0  0  0  0  0  0  0  0  0  0  0  0
  144.8294  134.6222  152.6993 H   0  0  0  0  0  0  0  0  0  0  0  0
  144.7390  134.2188  149.8642 H   0  0  0  0  0  0  0  0  0  0  0  0
  146.4256  134.4624  150.2241 H   0  0  0  0  0  0  0  0  0  0  0  0
  147.4851  132.3980  151.7684 H   0  0  0  0  0  0  0  0  0  0  0  0
  146.4597  133.1041  153.0236 H   0  0  0  0  0  0  0  0  0  0  0  0
  146.8934  130.3406  152.7702 H   0  0  0  0  0  0  0  0  0  0  0  0
  145.4740  131.0462  153.5354 H   0  0  0  0  0  0  0  0  0  0  0  0
  145.6581  129.7997  150.8209 H   0  0  0  0  0  0  0  0  0  0  0  0
  144.2319  130.0141  151.8541 H   0  0  0  0  0  0  0  0  0  0  0  0
  147.0768  135.8568  151.6847 H   0  0  0  0  0  0  0  0  0  0  0  0
  148.0450  137.3713  152.4473 H   0  0  0  0  0  0  0  0  0  0  0  0
  149.7639  138.9013  153.5637 H   0  0  0  0  0  0  0  0  0  0  0  0
  150.0747  141.0361  154.7903 H   0  0  0  0  0  0  0  0  0  0  0  0
  148.0519  142.3537  155.4665 H   0  0  0  0  0  0  0  0  0  0  0  0
  145.4901  139.5889  153.7848 H   0  0  0  0  0  0  0  0  0  0  0  0
  1  2  1  0  0  0  0
  1 20  1  0  0  0  0
  1 21  1  0  0  0  0
  1 22  1  0  0  0  0
  2  3  1  0  0  0  0
  2 10  1  0  0  0  0
  2 23  1  0  0  0  0
  3  4  1  0  0  0  0
  3 24  1  0  0  0  0
  3 25  1  0  0  0  0
  4  8  1  0  0  0  0
  4  5  1  0  0  0  0
  5  6  1  0  0  0  0
  5 26  1  0  0  0  0
  5 27  1  0  0  0  0
  6  7  1  0  0  0  0
  6 28  1  0  0  0  0
  6 29  1  0  0  0  0
  7  8  1  0  0  0  0
  7 30  1  0  0  0  0
  7 31  1  0  0  0  0
  8  9  2  0  0  0  0
 10 11  1  0  0  0  0
 10 32  1  0  0  0  0
 11 12  2  0  0  0  0
 11 13  1  0  0  0  0
 13 14  1  0  0  0  0
 13 33  1  0  0  0  0
 14 19  1  0  0  0  0
 14 15  2  0  0  0  0
 15 16  1  0  0  0  0
 15 34  1  0  0  0  0
 16 17  2  0  0  0  0
 16 35  1  0  0  0  0
 17 18  1  0  0  0  0
 17 36  1  0  0  0  0
 18 19  2  0  0  0  0
 19 37  1  0  0  0  0
M  END
> <s_m_source_file>
AV-unprocessed.smi

> <i_m_source_file_index>
1863

> <i_lp_mmshare_version>
43012

> <i_f3d_flags>
0

> <s_epik_input>
Tz1DMVtDSDJdW0NIMl1bQ0gyXU4xW0NIMl1bQ0BASF0oW0NIM10pW05IXUMoPU8pW05IXWMyW2NIXVtjSF1bY0hdbltjSF0y

> <s_epik_cmdline>
J2VwaWtfcHl0aG9uJywgJy1waCcsICc3LjAnLCAnLXRuJywgJzgnLCAnLW1hJywgJzIwMCcsICctbWV0YWxfYmluZGluZycsICctaW1hZScsICc8aW5maWxlLm1hZT4nLCAnLW9tYWUnLCAnPG91dGZpbGUubWFlPic=

> <r_epik_Ionization_Penalty>
0.0047799

> <r_epik_Ionization_Penalty_Charging>
0

> <r_epik_Ionization_Penalty_Neutral>
0.0047799

> <r_epik_State_Penalty>
0.0034394

> <r_epik_Charging_Adjusted_Penalty>
0.0034394

> <i_epik_Tot_Q>
0

> <i_epik_Tot_abs_Q>
0

> <r_epik_Metal_State_Penalty>
-0

> <b_epik_Metal_Only>
0

> <s_lp_Force_Field>
OPLS_2005

> <r_lp_Energy>
21.1293

> <b_lp_Chiralities_Consistent>
1

> <s_lp_Variant>
AV-unprocessed.smi:1863-2

> <Gold.Version>
5.8.1

> <Gold.Id.Protein>
6NUR|6NUR_protein|mol2

> <Gold.PLP.Fitness>
41.5441

> <Gold.PLP.PLP>
-30.0060

> <Gold.PLP.part.hbond>
-3.0000

> <Gold.PLP.part.metal>
0.0000

> <Gold.PLP.part.buried>
-2.5766

> <Gold.PLP.part.nonpolar>
-26.2262

> <Gold.PLP.part.repulsive>
0.5339

> <Gold.PLP.ligand.clash>
0.0000

> <Gold.PLP.ligand.torsion>
0.9847

> <Gold.PLP.Chemscore.Hbond>
2.4910

> <Gold.PLP.Chemscore.CHOScore>
2.0000

> <Gold.PLP.Chemscore.Metal>
0.0000

> <Gold.Chemscore.Hbonds>
donor molecule, donor type, donor heavy atom, donor atom, acceptor molecule, acceptor atom, score
      L1  H    10    32       P1  7948  0.88
      L1  H    13    33       P1  7948  1.00
      P1  H 10785 10796       L1     9  0.61
      L1  C    17    36       P1  8028  1.00
      L1  C    19    37       P1 10175  1.00

> <Gold.PLP.Chemscore.Internal.Correction>
0.0346

> <Gold.Rescore>
     Score         DG    S(hbond)    S(metal)    S(lipo)     H(rot)  DE(clash)    DE(int)     intcor
     14.01     -17.88       2.62        0.00      65.06       1.54       0.06       3.81       ----

> <Gold.Chemscore.Fitness>
14.0090

> <Gold.Chemscore.DG>
-17.8795

> <Gold.Chemscore.ZeroCoef>
-5.4800

> <Gold.Chemscore.Hbond>
2.6161

> <Gold.Chemscore.Metal>
0.0000

> <Gold.Chemscore.Lipo>
65.0550

> <Gold.Chemscore.Internal_Hbond>
0.0000

> <Gold.Chemscore.DEClash>
0.0564

> <Gold.Chemscore.DEInternal>
3.8141

> <Gold.Chemscore.Rot>
1.5428

> <Gold.Chemscore.Internal.Correction>
   9.000000E+99

> <Gold.Chemscore.Hbonds>
donor molecule, donor type, donor heavy atom, donor atom, acceptor molecule, acceptor atom, score
      L1  H    10    32       P1  7948  0.86
      L1  H    13    33       P1  7948  0.96
      P1  H 10785 10796       L1     9  0.61

> <Gold.Chemscore.Hbond.Weighted>
-8.7377

> <Gold.Chemscore.Metal.Weighted>
-0.0000

> <Gold.Chemscore.Lipo.Weighted>
-7.6114

> <Gold.Chemscore.Internal_Hbond.Weighted>
0.0000

> <Gold.Chemscore.DEClash.Weighted>
0.0564

> <Gold.Chemscore.DEInternal.Weighted>
3.8141

> <Gold.Chemscore.Rot.Weighted>
3.9497

> <Gold.Chemscore.Internal.Correction.Weighted>
   9.000000E+99

> <Gold.Protein.RotatedTorsions>
[ 6907 6896 6895 6894 ] final -138.03 input  -60.11 | X-H torsion
[ 7974 7965 7964 7962 ] final   38.12 input  175.53 | X-H torsion
[ 8008 7997 7996 7995 ] final  -65.13 input   59.86 | X-H torsion
[ 10167 10162 10161 10158 ] final  -84.10 input  -65.29 | X-H torsion
[ 10718 10713 10712 10709 ] final  -60.66 input   66.30 | X-H torsion
[ 10763 10752 10751 10750 ] final -176.36 input  -60.55 | X-H torsion
[ 11005 11000 10999 10996 ] final  107.98 input  -57.11 | X-H torsion

> <Gold.Protein.ActiveResidues>
 VAL166  LYS551  ARG553  GLY616  TRP617  ASP618  TYR619  PRO620  LYS621  CYS622 
 ASP623  PHE694  ASN695  SER759  ASP760  ASP761  ALA762  ILE779  LEU786  VAL792 
 PHE793  MET794  SER795  GLU796  ALA797  LYS798  CYS799  TRP800  GLU811  SER814 

> <Gold.Protein.RotatedAtoms>
  151.0299  133.5799  159.2661 H   0  0  0  0  0  0  0  0  0  0  0  0  # atno 6907 bound_to 6896
  151.2885  135.0734  159.9205 H   0  0  0  0  0  0  0  0  0  0  0  0  # atno 6908 bound_to 6896
  152.5342  134.0002  159.7945 H   0  0  0  0  0  0  0  0  0  0  0  0  # atno 6909 bound_to 6896
  146.1086  139.5811  142.9367 H   0  0  0  0  0  0  0  0  0  0  0  0  # atno 7974 bound_to 7965
  154.4653  140.0939  156.7003 H   0  0  0  0  0  0  0  0  0  0  0  0  # atno 8008 bound_to 7997
  155.4877  140.3469  155.4331 H   0  0  0  0  0  0  0  0  0  0  0  0  # atno 8009 bound_to 7997
  156.0944  140.1406  156.9538 H   0  0  0  0  0  0  0  0  0  0  0  0  # atno 8010 bound_to 7997
  140.4164  143.2602  151.8949 H   0  0  0  0  0  0  0  0  0  0  0  0  # atno 10167 bound_to 10162
  156.0975  130.4191  150.0885 H   0  0  0  0  0  0  0  0  0  0  0  0  # atno 10718 bound_to 10713
  154.5732  135.2830  155.0806 H   0  0  0  0  0  0  0  0  0  0  0  0  # atno 10763 bound_to 10752
  154.2170  135.6398  153.5136 H   0  0  0  0  0  0  0  0  0  0  0  0  # atno 10764 bound_to 10752
  153.0064  135.5505  154.6363 H   0  0  0  0  0  0  0  0  0  0  0  0  # atno 10765 bound_to 10752
  139.8836  134.9417  156.5902 H   0  0  0  0  0  0  0  0  0  0  0  0  # atno 11005 bound_to 11000
  145.5709  141.0394  143.2174 LP  0  0  0  0  0  0  0  0  0  0  0  0  # atno 17320 bound_to 7965
  144.7492  139.7238  143.7280 LP  0  0  0  0  0  0  0  0  0  0  0  0  # atno 17321 bound_to 7965
  139.4782  144.5483  151.8424 LP  0  0  0  0  0  0  0  0  0  0  0  0  # atno 17342 bound_to 10162
  140.4582  144.1759  150.5903 LP  0  0  0  0  0  0  0  0  0  0  0  0  # atno 17343 bound_to 10162
  156.8881  130.9579  151.3592 LP  0  0  0  0  0  0  0  0  0  0  0  0  # atno 17370 bound_to 10713
  157.6139  130.8603  149.8996 LP  0  0  0  0  0  0  0  0  0  0  0  0  # atno 17371 bound_to 10713
  140.7961  133.8543  155.8687 LP  0  0  0  0  0  0  0  0  0  0  0  0  # atno 17394 bound_to 11000
  140.9634  134.1625  157.4635 LP  0  0  0  0  0  0  0  0  0  0  0  0  # atno 17395 bound_to 11000

$$$$
