AV-unprocessed.smi:186|AV-procd|sdf|1466|dock4
  -GOLD-   2262019273D 1   1.00000     0.00000
 Structure written by MMmdl.
 48 51  0  0  0  0  0  0  0  0  1 V2000
  153.1624  142.1853  159.6147 C   0  0  0  0  0  0  0  0  0  0  0  0
  152.4796  143.4217  159.5040 O   0  0  0  0  0  0  0  0  0  0  0  0
  152.0138  143.6691  158.1860 C   0  0  0  0  0  0  0  0  0  0  0  0
  150.9287  142.6538  157.8231 C   0  0  0  0  0  0  0  0  0  0  0  0
  149.9736  142.4540  158.5745 O   0  0  0  0  0  0  0  0  0  0  0  0
  151.0913  142.0121  156.6574 N   0  0  0  0  0  0  0  0  0  0  0  0
  150.1700  141.0119  156.1345 C   0  0  0  0  0  0  0  0  0  0  0  0
  150.8601  139.8358  155.4402 C   0  0  0  0  0  0  0  0  0  0  0  0
  149.8751  139.9829  154.3694 N   0  0  0  0  0  0  0  0  0  0  0  0
  148.8170  139.0272  154.4623 C   0  0  0  0  0  0  0  0  0  0  0  0
  148.7708  138.3277  155.6255 N   0  0  0  0  0  0  0  0  0  0  0  0
  147.8347  137.4026  155.8491 C   0  0  0  0  0  0  0  0  0  0  0  0
  146.8446  137.0120  155.0491 N   0  0  0  0  0  0  0  0  0  0  0  0
  146.8687  137.6990  153.8732 C   0  0  0  0  0  0  0  0  0  0  0  0
  147.8048  138.7098  153.5009 C   0  0  0  0  0  0  0  0  0  0  0  0
  147.4882  139.1757  152.2283 N   0  0  0  0  0  0  0  0  0  0  0  0
  146.4408  138.4853  151.8727 C   0  0  0  0  0  0  0  0  0  0  0  0
  146.0045  137.5693  152.7998 N   0  0  0  0  0  0  0  0  0  0  0  0
  144.8672  136.6716  152.6664 C   0  0  0  0  0  0  0  0  0  0  0  0
  145.0830  135.5591  151.6140 C   0  0  1  0  0  0  0  0  0  0  0  0
  145.3119  136.1594  150.3504 O   0  0  0  0  0  0  0  0  0  0  0  0
  146.2474  134.6226  151.9241 C   0  0  0  0  0  0  0  0  0  0  0  0
  145.7863  133.2999  151.3286 C   0  0  0  0  0  0  0  0  0  0  0  0
  144.4060  133.2816  151.6503 O   0  0  0  0  0  0  0  0  0  0  0  0
  143.8851  134.5970  151.4856 C   0  0  0  0  0  0  0  0  0  0  0  0
  149.6088  141.3681  154.7578 C   0  0  0  0  0  0  0  0  0  0  0  0
  153.4946  142.0415  160.6426 H   0  0  0  0  0  0  0  0  0  0  0  0
  154.0421  142.1623  158.9701 H   0  0  0  0  0  0  0  0  0  0  0  0
  152.5122  141.3503  159.3507 H   0  0  0  0  0  0  0  0  0  0  0  0
  151.6040  144.6778  158.1134 H   0  0  0  0  0  0  0  0  0  0  0  0
  152.8346  143.5857  157.4721 H   0  0  0  0  0  0  0  0  0  0  0  0
  151.9030  142.2295  156.0977 H   0  0  0  0  0  0  0  0  0  0  0  0
  149.4027  140.6970  156.8443 H   0  0  0  0  0  0  0  0  0  0  0  0
  151.8693  140.0595  155.0911 H   0  0  0  0  0  0  0  0  0  0  0  0
  150.8151  138.8948  155.9907 H   0  0  0  0  0  0  0  0  0  0  0  0
  147.8879  136.9049  156.8061 H   0  0  0  0  0  0  0  0  0  0  0  0
  145.9565  138.6227  150.9168 H   0  0  0  0  0  0  0  0  0  0  0  0
  144.6650  136.2299  153.6429 H   0  0  0  0  0  0  0  0  0  0  0  0
  143.9883  137.2661  152.4140 H   0  0  0  0  0  0  0  0  0  0  0  0
  144.6677  136.8389  150.2210 H   0  0  0  0  0  0  0  0  0  0  0  0
  147.2063  134.9637  151.5311 H   0  0  0  0  0  0  0  0  0  0  0  0
  146.3552  134.4988  153.0021 H   0  0  0  0  0  0  0  0  0  0  0  0
  145.9138  133.2894  150.2449 H   0  0  0  0  0  0  0  0  0  0  0  0
  146.3104  132.4411  151.7485 H   0  0  0  0  0  0  0  0  0  0  0  0
  143.1254  134.7758  152.2470 H   0  0  0  0  0  0  0  0  0  0  0  0
  143.3956  134.6771  150.5134 H   0  0  0  0  0  0  0  0  0  0  0  0
  148.5697  141.6904  154.7298 H   0  0  0  0  0  0  0  0  0  0  0  0
  150.2453  142.0555  154.1985 H   0  0  0  0  0  0  0  0  0  0  0  0
  1  2  1  0  0  0  0
  1 27  1  0  0  0  0
  1 28  1  0  0  0  0
  1 29  1  0  0  0  0
  2  3  1  0  0  0  0
  3  4  1  0  0  0  0
  3 30  1  0  0  0  0
  3 31  1  0  0  0  0
  4  5  2  0  0  0  0
  4  6  1  0  0  0  0
  6  7  1  0  0  0  0
  6 32  1  0  0  0  0
  7 26  1  0  0  0  0
  7  8  1  0  0  0  0
  7 33  1  0  0  0  0
  8  9  1  0  0  0  0
  8 34  1  0  0  0  0
  8 35  1  0  0  0  0
  9 10  1  0  0  0  0
  9 26  1  0  0  0  0
 10 15  1  0  0  0  0
 10 11  2  0  0  0  0
 11 12  1  0  0  0  0
 12 13  2  0  0  0  0
 12 36  1  0  0  0  0
 13 14  1  0  0  0  0
 14 18  1  0  0  0  0
 14 15  2  0  0  0  0
 15 16  1  0  0  0  0
 16 17  2  0  0  0  0
 17 18  1  0  0  0  0
 17 37  1  0  0  0  0
 18 19  1  0  0  0  0
 19 20  1  0  0  0  0
 19 38  1  0  0  0  0
 19 39  1  0  0  0  0
 20 25  1  0  0  0  0
 20 21  1  0  0  0  0
 20 22  1  0  0  0  0
 21 40  1  0  0  0  0
 22 23  1  0  0  0  0
 22 41  1  0  0  0  0
 22 42  1  0  0  0  0
 23 24  1  0  0  0  0
 23 43  1  0  0  0  0
 23 44  1  0  0  0  0
 24 25  1  0  0  0  0
 25 45  1  0  0  0  0
 25 46  1  0  0  0  0
 26 47  1  0  0  0  0
 26 48  1  0  0  0  0
M  END
> <s_m_source_file>
AV-unprocessed.smi

> <i_m_source_file_index>
186

> <i_lp_mmshare_version>
43012

> <i_f3d_flags>
0

> <s_epik_input>
W0NIM11PW0NIMl1DKD1PKVtOSF1bQ0hdMVtDSDJdTihbQ0gyXTEpYyhuW2NIXW4yKWMoYzIzKW5bY0hdbjNbQ0gyXVtDQEBdNChbT0hdKVtDSDJdW0NIMl1PW0NIMl00

> <s_epik_cmdline>
J2VwaWtfcHl0aG9uJywgJy1waCcsICc3LjAnLCAnLXRuJywgJzgnLCAnLW1hJywgJzIwMCcsICctbWV0YWxfYmluZGluZycsICctaW1hZScsICc8aW5maWxlLm1hZT4nLCAnLW9tYWUnLCAnPG91dGZpbGUubWFlPic=

> <r_lp_tautomer_probability>
1

> <r_epik_Ionization_Penalty>
0.00138671

> <r_epik_Ionization_Penalty_Charging>
0

> <r_epik_Ionization_Penalty_Neutral>
0.00138671

> <r_epik_State_Penalty>
0.000746021

> <r_epik_Charging_Adjusted_Penalty>
0.000746021

> <i_epik_Tot_Q>
0

> <i_epik_Tot_abs_Q>
0

> <r_epik_Metal_State_Penalty>
-0

> <b_epik_Metal_Only>
0

> <s_lp_Force_Field>
OPLS_2005

> <r_lp_Energy>
46.8047

> <b_lp_Chiralities_Consistent>
1

> <s_lp_Variant>
AV-unprocessed.smi:186-1

> <Gold.Version>
5.8.1

> <Gold.Id.Protein>
6NUR|6NUR_protein|mol2

> <Gold.PLP.Fitness>
42.4786

> <Gold.PLP.PLP>
-37.4850

> <Gold.PLP.part.hbond>
-2.6403

> <Gold.PLP.part.metal>
0.0000

> <Gold.PLP.part.buried>
-4.4960

> <Gold.PLP.part.nonpolar>
-35.1602

> <Gold.PLP.part.repulsive>
4.4830

> <Gold.PLP.ligand.clash>
0.0000

> <Gold.PLP.ligand.torsion>
0.8032

> <Gold.PLP.Chemscore.Hbond>
1.0000

> <Gold.PLP.Chemscore.CHOScore>
1.0000

> <Gold.PLP.Chemscore.Metal>
0.0000

> <Gold.Chemscore.Hbonds>
donor molecule, donor type, donor heavy atom, donor atom, acceptor molecule, acceptor atom, score
      L1  H    21    40       P1 10171  1.00
      L1  C    17    37       P1 10171  1.00

> <Gold.PLP.Chemscore.Internal.Correction>
0.6000

> <Gold.Rescore>
     Score         DG    S(hbond)    S(metal)    S(lipo)     H(rot)  DE(clash)    DE(int)     intcor
      6.55      -8.79       0.99        0.00      73.73       3.36       1.47       0.77       ----

> <Gold.Chemscore.Fitness>
6.5486

> <Gold.Chemscore.DG>
-8.7892

> <Gold.Chemscore.ZeroCoef>
-5.4800

> <Gold.Chemscore.Hbond>
0.9850

> <Gold.Chemscore.Metal>
0.0000

> <Gold.Chemscore.Lipo>
73.7252

> <Gold.Chemscore.Internal_Hbond>
0.0000

> <Gold.Chemscore.DEClash>
1.4701

> <Gold.Chemscore.DEInternal>
0.7705

> <Gold.Chemscore.Rot>
3.3620

> <Gold.Chemscore.Internal.Correction>
   9.000000E+99

> <Gold.Chemscore.Hbonds>
donor molecule, donor type, donor heavy atom, donor atom, acceptor molecule, acceptor atom, score
      L1  H    21    40       P1 10171  0.99

> <Gold.Chemscore.Hbond.Weighted>
-3.2901

> <Gold.Chemscore.Metal.Weighted>
-0.0000

> <Gold.Chemscore.Lipo.Weighted>
-8.6258

> <Gold.Chemscore.Internal_Hbond.Weighted>
0.0000

> <Gold.Chemscore.DEClash.Weighted>
1.4701

> <Gold.Chemscore.DEInternal.Weighted>
0.7705

> <Gold.Chemscore.Rot.Weighted>
8.6067

> <Gold.Chemscore.Internal.Correction.Weighted>
   9.000000E+99

> <Gold.Protein.RotatedTorsions>
[ 6907 6896 6895 6894 ] final -139.56 input  -60.11 | X-H torsion
[ 7974 7965 7964 7962 ] final -101.53 input  175.53 | X-H torsion
[ 8008 7997 7996 7995 ] final -104.71 input   59.86 | X-H torsion
[ 10167 10162 10161 10158 ] final  155.54 input  -65.29 | X-H torsion
[ 10718 10713 10712 10709 ] final   88.16 input   66.30 | X-H torsion
[ 10763 10752 10751 10750 ] final  126.27 input  -60.55 | X-H torsion
[ 11005 11000 10999 10996 ] final  159.69 input  -57.11 | X-H torsion

> <Gold.Protein.ActiveResidues>
 VAL166  LYS551  ARG553  GLY616  TRP617  ASP618  TYR619  PRO620  LYS621  CYS622 
 ASP623  PHE694  ASN695  SER759  ASP760  ASP761  ALA762  ILE779  LEU786  VAL792 
 PHE793  MET794  SER795  GLU796  ALA797  LYS798  CYS799  TRP800  GLU811  SER814 

> <Gold.Protein.RotatedAtoms>
  151.0493  133.5638  159.2643 H   0  0  0  0  0  0  0  0  0  0  0  0  # atno 6907 bound_to 6896
  151.2655  135.0667  159.9124 H   0  0  0  0  0  0  0  0  0  0  0  0  # atno 6908 bound_to 6896
  152.5379  134.0232  159.8045 H   0  0  0  0  0  0  0  0  0  0  0  0  # atno 6909 bound_to 6896
  145.2805  140.9325  143.2935 H   0  0  0  0  0  0  0  0  0  0  0  0  # atno 7974 bound_to 7965
  154.8893  140.0416  157.1829 H   0  0  0  0  0  0  0  0  0  0  0  0  # atno 8008 bound_to 7997
  154.8558  140.2936  155.5549 H   0  0  0  0  0  0  0  0  0  0  0  0  # atno 8009 bound_to 7997
  156.2997  140.2456  156.3524 H   0  0  0  0  0  0  0  0  0  0  0  0  # atno 8010 bound_to 7997
  139.4821  144.5089  151.8054 H   0  0  0  0  0  0  0  0  0  0  0  0  # atno 10167 bound_to 10162
  157.6946  131.0284  150.3232 H   0  0  0  0  0  0  0  0  0  0  0  0  # atno 10718 bound_to 10713
  153.6906  135.3299  155.3201 H   0  0  0  0  0  0  0  0  0  0  0  0  # atno 10763 bound_to 10752
  154.8441  135.4430  154.1512 H   0  0  0  0  0  0  0  0  0  0  0  0  # atno 10764 bound_to 10752
  153.2553  135.6985  153.7713 H   0  0  0  0  0  0  0  0  0  0  0  0  # atno 10765 bound_to 10752
  140.1986  134.8354  157.2993 H   0  0  0  0  0  0  0  0  0  0  0  0  # atno 11005 bound_to 11000
  144.9257  139.4358  143.6519 LP  0  0  0  0  0  0  0  0  0  0  0  0  # atno 17320 bound_to 7965
  146.3218  139.8142  142.8940 LP  0  0  0  0  0  0  0  0  0  0  0  0  # atno 17321 bound_to 7965
  140.4590  144.1748  150.5904 LP  0  0  0  0  0  0  0  0  0  0  0  0  # atno 17342 bound_to 10162
  140.4504  143.2489  151.9355 LP  0  0  0  0  0  0  0  0  0  0  0  0  # atno 17343 bound_to 10162
  156.3716  130.3864  149.7171 LP  0  0  0  0  0  0  0  0  0  0  0  0  # atno 17370 bound_to 10713
  156.4583  130.7940  151.2960 LP  0  0  0  0  0  0  0  0  0  0  0  0  # atno 17371 bound_to 10713
  140.2079  134.4174  155.7628 LP  0  0  0  0  0  0  0  0  0  0  0  0  # atno 17394 bound_to 11000
  141.2227  133.7104  156.8290 LP  0  0  0  0  0  0  0  0  0  0  0  0  # atno 17395 bound_to 11000

$$$$
