AV-unprocessed.smi:92|AV-procd|sdf|843|dock8
  -GOLD-   2262017283D 1   1.00000     0.00000
 Structure written by MMmdl.
 61 64  0  0  0  0  0  0  0  0  2 V2000
  151.1210  142.0337  156.6929 C   0  0  0  0  0  0  0  0  0  0  0  0
  149.6703  141.9795  157.1921 C   0  0  0  0  0  0  0  0  0  0  0  0
  148.6898  141.8558  156.0802 N   0  3  2  0  0  0  0  0  0  0  0  0
  147.2859  141.7208  156.5373 C   0  0  0  0  0  0  0  0  0  0  0  0
  147.0276  140.3288  157.1293 C   0  0  0  0  0  0  0  0  0  0  0  0
  147.3430  139.2042  156.1148 C   0  0  2  0  0  0  0  0  0  0  0  0
  147.0523  137.8721  156.6715 N   0  0  0  0  0  0  0  0  0  0  0  0
  146.4596  137.7272  157.9954 C   0  0  0  0  0  0  0  0  0  0  0  0
  146.8047  136.8446  155.8262 C   0  0  0  0  0  0  0  0  0  0  0  0
  147.2579  135.6174  156.1853 N   0  0  0  0  0  0  0  0  0  0  0  0
  147.0491  134.5661  155.3873 C   0  0  0  0  0  0  0  0  0  0  0  0
  146.4236  134.5245  154.2093 N   0  0  0  0  0  0  0  0  0  0  0  0
  145.9570  135.7548  153.8501 C   0  0  0  0  0  0  0  0  0  0  0  0
  146.0925  136.9578  154.5991 C   0  0  0  0  0  0  0  0  0  0  0  0
  145.4739  138.0040  153.9263 N   0  0  0  0  0  0  0  0  0  0  0  0
  144.9958  137.4514  152.8454 C   0  0  0  0  0  0  0  0  0  0  0  0
  145.2723  136.1107  152.7008 N   0  0  0  0  0  0  0  0  0  0  0  0
  144.8476  135.2576  151.6296 C   0  0  0  0  0  0  0  0  0  0  0  0
  144.1871  133.9057  151.9152 C   0  0  0  0  0  0  0  0  0  0  0  0
  144.9043  133.2813  150.6982 C   0  0  0  0  0  0  0  0  0  0  0  0
  145.5707  131.9219  150.9610 C   0  0  0  0  0  0  0  0  0  0  0  0
  146.4472  131.5634  149.9117 O   0  0  0  0  0  0  0  0  0  0  0  0
  144.0865  133.1434  149.3948 C   0  0  0  0  0  0  0  0  0  0  0  0
  142.9666  132.2915  149.5250 O   0  0  0  0  0  0  0  0  0  0  0  0
  145.8652  134.4887  150.7800 C   0  0  0  0  0  0  0  0  0  0  0  0
  148.7878  139.3732  155.5566 C   0  0  1  0  0  0  0  0  0  0  0  0
  149.1157  138.4155  154.3959 C   0  0  0  0  0  0  0  0  0  0  0  0
  149.0209  140.8235  155.0635 C   0  0  0  0  0  0  0  0  0  0  0  0
  151.8036  142.2214  157.5220 H   0  0  0  0  0  0  0  0  0  0  0  0
  151.2583  142.8344  155.9657 H   0  0  0  0  0  0  0  0  0  0  0  0
  151.4300  141.0980  156.2279 H   0  0  0  0  0  0  0  0  0  0  0  0
  149.5483  141.1737  157.9155 H   0  0  0  0  0  0  0  0  0  0  0  0
  149.4733  142.9053  157.7340 H   0  0  0  0  0  0  0  0  0  0  0  0
  147.0482  142.4981  157.2646 H   0  0  0  0  0  0  0  0  0  0  0  0
  146.6231  141.8862  155.6868 H   0  0  0  0  0  0  0  0  0  0  0  0
  147.6269  140.2170  158.0329 H   0  0  0  0  0  0  0  0  0  0  0  0
  145.9854  140.2585  157.4430 H   0  0  0  0  0  0  0  0  0  0  0  0
  146.6555  139.3378  155.2784 H   0  0  0  0  0  0  0  0  0  0  0  0
  145.4060  137.4534  157.9453 H   0  0  0  0  0  0  0  0  0  0  0  0
  146.5432  138.6531  158.5645 H   0  0  0  0  0  0  0  0  0  0  0  0
  146.9822  136.9478  158.5504 H   0  0  0  0  0  0  0  0  0  0  0  0
  147.4426  133.6244  155.7411 H   0  0  0  0  0  0  0  0  0  0  0  0
  144.4334  138.0144  152.1147 H   0  0  0  0  0  0  0  0  0  0  0  0
  144.2052  135.8729  150.9986 H   0  0  0  0  0  0  0  0  0  0  0  0
  144.5146  133.4775  152.8641 H   0  0  0  0  0  0  0  0  0  0  0  0
  143.0987  133.9151  151.8491 H   0  0  0  0  0  0  0  0  0  0  0  0
  146.1259  131.9289  151.8996 H   0  0  0  0  0  0  0  0  0  0  0  0
  144.8232  131.1330  151.0513 H   0  0  0  0  0  0  0  0  0  0  0  0
  147.2941  131.3656  150.2812 H   0  0  0  0  0  0  0  0  0  0  0  0
  143.7253  134.1165  149.0606 H   0  0  0  0  0  0  0  0  0  0  0  0
  144.7031  132.7463  148.5881 H   0  0  0  0  0  0  0  0  0  0  0  0
  142.1889  132.8250  149.5857 H   0  0  0  0  0  0  0  0  0  0  0  0
  146.0961  134.9576  149.8230 H   0  0  0  0  0  0  0  0  0  0  0  0
  146.7802  134.2648  151.3310 H   0  0  0  0  0  0  0  0  0  0  0  0
  149.4977  139.1726  156.3585 H   0  0  0  0  0  0  0  0  0  0  0  0
  148.3959  138.5157  153.5828 H   0  0  0  0  0  0  0  0  0  0  0  0
  149.1238  137.3739  154.7083 H   0  0  0  0  0  0  0  0  0  0  0  0
  150.1053  138.6221  153.9873 H   0  0  0  0  0  0  0  0  0  0  0  0
  148.3951  141.0100  154.1894 H   0  0  0  0  0  0  0  0  0  0  0  0
  150.0473  140.9498  154.7212 H   0  0  0  0  0  0  0  0  0  0  0  0
  148.7296  142.7439  155.6003 H   0  0  0  0  0  0  0  0  0  0  0  0
  1  2  1  0  0  0  0
  1 29  1  0  0  0  0
  1 30  1  0  0  0  0
  1 31  1  0  0  0  0
  2  3  1  0  0  0  0
  2 32  1  0  0  0  0
  2 33  1  0  0  0  0
  3 28  1  0  0  0  0
  3  4  1  0  0  0  0
  3 61  1  0  0  0  0
  4  5  1  0  0  0  0
  4 34  1  0  0  0  0
  4 35  1  0  0  0  0
  5  6  1  0  0  0  0
  5 36  1  0  0  0  0
  5 37  1  0  0  0  0
  6  7  1  0  0  0  0
  6 26  1  0  0  0  0
  6 38  1  0  0  0  0
  7  8  1  0  0  0  0
  7  9  1  0  0  0  0
  8 39  1  0  0  0  0
  8 40  1  0  0  0  0
  8 41  1  0  0  0  0
  9 14  1  0  0  0  0
  9 10  2  0  0  0  0
 10 11  1  0  0  0  0
 11 12  2  0  0  0  0
 11 42  1  0  0  0  0
 12 13  1  0  0  0  0
 13 17  1  0  0  0  0
 13 14  2  0  0  0  0
 14 15  1  0  0  0  0
 15 16  2  0  0  0  0
 16 17  1  0  0  0  0
 16 43  1  0  0  0  0
 17 18  1  0  0  0  0
 18 25  1  0  0  0  0
 18 19  1  0  0  0  0
 18 44  1  0  0  0  0
 19 20  1  0  0  0  0
 19 45  1  0  0  0  0
 19 46  1  0  0  0  0
 20 21  1  0  0  0  0
 20 23  1  0  0  0  0
 20 25  1  0  0  0  0
 21 22  1  0  0  0  0
 21 47  1  0  0  0  0
 21 48  1  0  0  0  0
 22 49  1  0  0  0  0
 23 24  1  0  0  0  0
 23 50  1  0  0  0  0
 23 51  1  0  0  0  0
 24 52  1  0  0  0  0
 25 53  1  0  0  0  0
 25 54  1  0  0  0  0
 26 27  1  0  0  0  0
 26 28  1  0  0  0  0
 26 55  1  0  0  0  0
 27 56  1  0  0  0  0
 27 57  1  0  0  0  0
 27 58  1  0  0  0  0
 28 59  1  0  0  0  0
 28 60  1  0  0  0  0
M  CHG  1   3   1
M  END
> <s_m_source_file>
AV-unprocessed.smi

> <i_m_source_file_index>
92

> <i_lp_mmshare_version>
43012

> <i_f3d_flags>
0

> <s_epik_input>
W0NIM11bQ0gyXU4xW0NIMl1bQ0gyXVtDQEhdKFtDQEBIXShbQ0gzXSlbQ0gyXTEpTihbQ0gzXSljKG5bY0hdbjIpYyhjMjMpbltjSF1uM1tDSF0oW0NIMl00KVtDSDJdQzQoW0NIMl1bT0hdKVtDSDJdW09IXQ==

> <s_epik_cmdline>
J2VwaWtfcHl0aG9uJywgJy1waCcsICc3LjAnLCAnLXRuJywgJzgnLCAnLW1hJywgJzIwMCcsICctbWV0YWxfYmluZGluZycsICctaW1hZScsICc8aW5maWxlLm1hZT4nLCAnLW9tYWUnLCAnPG91dGZpbGUubWFlPic=

> <r_lp_tautomer_probability>
1

> <r_epik_Ionization_Penalty>
0.00235514

> <r_epik_Ionization_Penalty_Charging>
0.00137877

> <r_epik_Ionization_Penalty_Neutral>
0.000976366

> <r_epik_State_Penalty>
-0

> <r_epik_Charging_Adjusted_Penalty>
0.00137877

> <i_epik_Tot_Q>
1

> <i_epik_Tot_abs_Q>
1

> <r_epik_Metal_State_Penalty>
-0

> <b_epik_Metal_Only>
0

> <s_lp_Force_Field>
OPLS_2005

> <r_lp_Energy>
56.5643

> <b_lp_Chiralities_Consistent>
1

> <s_lp_Variant>
AV-unprocessed.smi:92-3

> <Gold.Version>
5.8.1

> <Gold.Id.Protein>
6NUR|6NUR_protein|mol2

> <Gold.PLP.Fitness>
49.6948

> <Gold.PLP.PLP>
-32.9420

> <Gold.PLP.part.hbond>
-4.3872

> <Gold.PLP.part.metal>
0.0000

> <Gold.PLP.part.buried>
-6.3093

> <Gold.PLP.part.nonpolar>
-22.4336

> <Gold.PLP.part.repulsive>
0.2721

> <Gold.PLP.ligand.clash>
0.0000

> <Gold.PLP.ligand.torsion>
1.5382

> <Gold.PLP.Chemscore.Hbond>
4.4790

> <Gold.PLP.Chemscore.CHOScore>
1.7129

> <Gold.PLP.Chemscore.Metal>
0.0000

> <Gold.Chemscore.Hbonds>
donor molecule, donor type, donor heavy atom, donor atom, acceptor molecule, acceptor atom, score
      L1  H     3    61       P1  8028  2.00
      L1  H    22    49       P1 10747  1.00
      L1  H    24    52       P1 10186  1.00
      P1  H 10785 10796       L1    24  0.32
      L1  C    16    43       P1 10171  1.00
      L1  C    16    43       P1 10175  0.81

> <Gold.PLP.Chemscore.Internal.Correction>
1.2535

> <Gold.Rescore>
     Score         DG    S(hbond)    S(metal)    S(lipo)     H(rot)  DE(clash)    DE(int)     intcor
     15.61     -17.17       3.35        0.00      74.61       3.22       0.04       1.51       ----

> <Gold.Chemscore.Fitness>
15.6139

> <Gold.Chemscore.DG>
-17.1651

> <Gold.Chemscore.ZeroCoef>
-5.4800

> <Gold.Chemscore.Hbond>
3.3545

> <Gold.Chemscore.Metal>
0.0000

> <Gold.Chemscore.Lipo>
74.6081

> <Gold.Chemscore.Internal_Hbond>
0.0000

> <Gold.Chemscore.DEClash>
0.0449

> <Gold.Chemscore.DEInternal>
1.5063

> <Gold.Chemscore.Rot>
3.2219

> <Gold.Chemscore.Internal.Correction>
   9.000000E+99

> <Gold.Chemscore.Hbonds>
donor molecule, donor type, donor heavy atom, donor atom, acceptor molecule, acceptor atom, score
      L1  H     3    61       P1  8028  0.92
      L1  H    22    49       P1 10747  0.98
      L1  H    24    52       P1 10186  0.98
      P1  H 10785 10796       L1    24  0.31

> <Gold.Chemscore.Hbond.Weighted>
-11.2042

> <Gold.Chemscore.Metal.Weighted>
-0.0000

> <Gold.Chemscore.Lipo.Weighted>
-8.7291

> <Gold.Chemscore.Internal_Hbond.Weighted>
0.0000

> <Gold.Chemscore.DEClash.Weighted>
0.0449

> <Gold.Chemscore.DEInternal.Weighted>
1.5063

> <Gold.Chemscore.Rot.Weighted>
8.2482

> <Gold.Chemscore.Internal.Correction.Weighted>
   9.000000E+99

> <Gold.Protein.RotatedTorsions>
[ 6907 6896 6895 6894 ] final  -49.55 input  -60.11 | X-H torsion
[ 7974 7965 7964 7962 ] final -171.65 input  175.53 | X-H torsion
[ 8008 7997 7996 7995 ] final   69.48 input   59.86 | X-H torsion
[ 10167 10162 10161 10158 ] final   -1.50 input  -65.29 | X-H torsion
[ 10718 10713 10712 10709 ] final    9.90 input   66.30 | X-H torsion
[ 10763 10752 10751 10750 ] final  -23.87 input  -60.55 | X-H torsion
[ 11005 11000 10999 10996 ] final  -67.26 input  -57.11 | X-H torsion

> <Gold.Protein.ActiveResidues>
 VAL166  LYS551  ARG553  GLY616  TRP617  ASP618  TYR619  PRO620  LYS621  CYS622 
 ASP623  PHE694  ASN695  SER759  ASP760  ASP761  ALA762  ILE779  LEU786  VAL792 
 PHE793  MET794  SER795  GLU796  ALA797  LYS798  CYS799  TRP800  GLU811  SER814 

> <Gold.Protein.RotatedAtoms>
  150.8794  134.8183  159.7213 H   0  0  0  0  0  0  0  0  0  0  0  0  # atno 6907 bound_to 6896
  152.4768  134.4820  159.9678 H   0  0  0  0  0  0  0  0  0  0  0  0  # atno 6908 bound_to 6896
  151.4897  133.3489  159.2887 H   0  0  0  0  0  0  0  0  0  0  0  0  # atno 6909 bound_to 6896
  144.7154  140.1891  143.6350 H   0  0  0  0  0  0  0  0  0  0  0  0  # atno 7974 bound_to 7965
  155.7242  140.3493  155.5030 H   0  0  0  0  0  0  0  0  0  0  0  0  # atno 8008 bound_to 7997
  155.9242  140.1072  157.1205 H   0  0  0  0  0  0  0  0  0  0  0  0  # atno 8009 bound_to 7997
  154.4074  140.1244  156.4705 H   0  0  0  0  0  0  0  0  0  0  0  0  # atno 8010 bound_to 7997
  140.6813  143.6768  150.8139 H   0  0  0  0  0  0  0  0  0  0  0  0  # atno 10167 bound_to 10162
  156.9731  130.5977  149.5670 H   0  0  0  0  0  0  0  0  0  0  0  0  # atno 10718 bound_to 10713
  153.6747  135.6970  153.5136 H   0  0  0  0  0  0  0  0  0  0  0  0  # atno 10763 bound_to 10752
  153.2530  135.4269  155.0816 H   0  0  0  0  0  0  0  0  0  0  0  0  # atno 10764 bound_to 10752
  154.8417  135.3536  154.6291 H   0  0  0  0  0  0  0  0  0  0  0  0  # atno 10765 bound_to 10752
  141.1503  133.6715  156.6265 H   0  0  0  0  0  0  0  0  0  0  0  0  # atno 11005 bound_to 11000
  145.8785  139.2310  143.1619 LP  0  0  0  0  0  0  0  0  0  0  0  0  # atno 17320 bound_to 7965
  146.0017  140.8514  143.0015 LP  0  0  0  0  0  0  0  0  0  0  0  0  # atno 17321 bound_to 7965
  140.0468  143.5290  152.2692 LP  0  0  0  0  0  0  0  0  0  0  0  0  # atno 17342 bound_to 10162
  139.6137  144.7614  151.2894 LP  0  0  0  0  0  0  0  0  0  0  0  0  # atno 17343 bound_to 10162
  156.0274  130.5368  150.8444 LP  0  0  0  0  0  0  0  0  0  0  0  0  # atno 17370 bound_to 10713
  157.5578  131.0945  150.9602 LP  0  0  0  0  0  0  0  0  0  0  0  0  # atno 17371 bound_to 10713
  140.3500  134.7777  157.4460 LP  0  0  0  0  0  0  0  0  0  0  0  0  # atno 17394 bound_to 11000
  140.0869  134.5655  155.8483 LP  0  0  0  0  0  0  0  0  0  0  0  0  # atno 17395 bound_to 11000

$$$$
