AV-unprocessed.smi:3333|AV-procd|sdf|12831|dock9
  -GOLD-   2272019213D 1   1.00000     0.00000
 Structure written by MMmdl.
 41 43  0  0  0  0  0  0  0  0  1 V2000
  145.3498  143.3421  157.5739 C   0  0  0  0  0  0  0  0  0  0  0  0
  144.9906  142.2551  156.5554 C   0  0  0  0  0  0  0  0  0  0  0  0
  146.1506  141.8636  155.7024 C   0  0  0  0  0  0  0  0  0  0  0  0
  146.9824  140.8635  156.0047 N   0  0  0  0  0  0  0  0  0  0  0  0
  148.0077  140.7105  155.0655 C   0  0  0  0  0  0  0  0  0  0  0  0
  149.0314  139.6254  155.2439 C   0  0  0  0  0  0  0  0  0  0  0  0
  150.4086  140.2166  155.5610 C   0  0  0  0  0  0  0  0  0  0  0  0
  151.3177  140.1573  154.7323 O   0  0  0  0  0  0  0  0  0  0  0  0
  150.5528  140.7788  156.7714 N   0  0  0  0  0  0  0  0  0  0  0  0
  151.7821  141.3830  157.2744 C   0  0  0  0  0  0  0  0  0  0  0  0
  151.6029  141.9658  158.6922 C   0  0  2  0  0  0  0  0  0  0  0  0
  150.8472  143.3150  158.7251 C   0  0  0  0  0  0  0  0  0  0  0  0
  151.8159  144.2371  159.4876 C   0  0  1  0  0  0  0  0  0  0  0  0
  151.8875  143.8033  160.9637 C   0  0  0  0  0  0  0  0  0  0  0  0
  152.6928  142.4919  160.8929 C   0  0  0  0  0  0  0  0  0  0  0  0
  152.9388  142.3266  159.3810 C   0  0  2  0  0  0  0  0  0  0  0  0
  153.1651  143.7738  158.9538 C   0  0  0  0  0  0  0  0  0  0  0  0
  147.9507  141.6338  154.0503 C   0  0  0  0  0  0  0  0  0  0  0  0
  146.6011  142.7199  154.2329 S   0  0  0  0  0  0  0  0  0  0  0  0
  144.4837  143.6084  158.1797 H   0  0  0  0  0  0  0  0  0  0  0  0
  145.6999  144.2467  157.0760 H   0  0  0  0  0  0  0  0  0  0  0  0
  146.1374  143.0043  158.2482 H   0  0  0  0  0  0  0  0  0  0  0  0
  144.6169  141.3699  157.0714 H   0  0  0  0  0  0  0  0  0  0  0  0
  144.1845  142.6037  155.9094 H   0  0  0  0  0  0  0  0  0  0  0  0
  148.7232  138.9464  156.0403 H   0  0  0  0  0  0  0  0  0  0  0  0
  149.1183  139.0199  154.3410 H   0  0  0  0  0  0  0  0  0  0  0  0
  149.7559  140.7829  157.3913 H   0  0  0  0  0  0  0  0  0  0  0  0
  152.5837  140.6424  157.2697 H   0  0  0  0  0  0  0  0  0  0  0  0
  152.0842  142.1636  156.5758 H   0  0  0  0  0  0  0  0  0  0  0  0
  151.0738  141.2300  159.2997 H   0  0  0  0  0  0  0  0  0  0  0  0
  150.6769  143.7010  157.7191 H   0  0  0  0  0  0  0  0  0  0  0  0
  149.8767  143.2342  159.2159 H   0  0  0  0  0  0  0  0  0  0  0  0
  151.6063  145.2986  159.3528 H   0  0  0  0  0  0  0  0  0  0  0  0
  152.4151  144.5454  161.5641 H   0  0  0  0  0  0  0  0  0  0  0  0
  150.8980  143.6608  161.3995 H   0  0  0  0  0  0  0  0  0  0  0  0
  153.6373  142.5939  161.4289 H   0  0  0  0  0  0  0  0  0  0  0  0
  152.1552  141.6472  161.3251 H   0  0  0  0  0  0  0  0  0  0  0  0
  153.7562  141.6430  159.1494 H   0  0  0  0  0  0  0  0  0  0  0  0
  153.2720  143.9020  157.8758 H   0  0  0  0  0  0  0  0  0  0  0  0
  154.0131  144.2450  159.4541 H   0  0  0  0  0  0  0  0  0  0  0  0
  148.6181  141.7387  153.2079 H   0  0  0  0  0  0  0  0  0  0  0  0
  1  2  1  0  0  0  0
  1 20  1  0  0  0  0
  1 21  1  0  0  0  0
  1 22  1  0  0  0  0
  2  3  1  0  0  0  0
  2 23  1  0  0  0  0
  2 24  1  0  0  0  0
  3 19  1  0  0  0  0
  3  4  2  0  0  0  0
  4  5  1  0  0  0  0
  5  6  1  0  0  0  0
  5 18  2  0  0  0  0
  6  7  1  0  0  0  0
  6 25  1  0  0  0  0
  6 26  1  0  0  0  0
  7  8  2  0  0  0  0
  7  9  1  0  0  0  0
  9 10  1  0  0  0  0
  9 27  1  0  0  0  0
 10 11  1  0  0  0  0
 10 28  1  0  0  0  0
 10 29  1  0  0  0  0
 11 16  1  0  0  0  0
 11 12  1  0  0  0  0
 11 30  1  0  0  0  0
 12 13  1  0  0  0  0
 12 31  1  0  0  0  0
 12 32  1  0  0  0  0
 13 17  1  0  0  0  0
 13 14  1  0  0  0  0
 13 33  1  0  0  0  0
 14 15  1  0  0  0  0
 14 34  1  0  0  0  0
 14 35  1  0  0  0  0
 15 16  1  0  0  0  0
 15 36  1  0  0  0  0
 15 37  1  0  0  0  0
 16 17  1  0  0  0  0
 16 38  1  0  0  0  0
 17 39  1  0  0  0  0
 17 40  1  0  0  0  0
 18 19  1  0  0  0  0
 18 41  1  0  0  0  0
M  END
> <s_m_source_file>
AV-unprocessed.smi

> <i_m_source_file_index>
3333

> <i_lp_mmshare_version>
43012

> <i_f3d_flags>
0

> <s_epik_input>
W0NIM11bQ0gyXWMxbmMoW2NIXXMxKVtDSDJdQyg9TylbTkhdW0NIMl1bQ0BIXShbQ0gyXVtDQEBIXTIzKVtDQEBIXShbQ0gyXTMpW0NIMl1bQ0gyXTI=

> <s_epik_cmdline>
J2VwaWtfcHl0aG9uJywgJy1waCcsICc3LjAnLCAnLXRuJywgJzgnLCAnLW1hJywgJzIwMCcsICctbWV0YWxfYmluZGluZycsICctaW1hZScsICc8aW5maWxlLm1hZT4nLCAnLW9tYWUnLCAnPG91dGZpbGUubWFlPic=

> <r_lp_tautomer_probability>
1

> <r_epik_Ionization_Penalty>
6.68371e-05

> <r_epik_Ionization_Penalty_Charging>
0

> <r_epik_Ionization_Penalty_Neutral>
6.68371e-05

> <r_epik_State_Penalty>
-0

> <r_epik_Charging_Adjusted_Penalty>
0

> <i_epik_Tot_Q>
0

> <i_epik_Tot_abs_Q>
0

> <r_epik_Metal_State_Penalty>
-0

> <b_epik_Metal_Only>
0

> <s_lp_Force_Field>
OPLS_2005

> <r_lp_Energy>
44.1536

> <b_lp_Chiralities_Consistent>
1

> <s_lp_Variant>
AV-unprocessed.smi:3333-1

> <Gold.Version>
5.8.1

> <Gold.Id.Protein>
6NUR|6NUR_protein|mol2

> <Gold.PLP.Fitness>
46.0939

> <Gold.PLP.PLP>
-41.3356

> <Gold.PLP.part.hbond>
-1.0000

> <Gold.PLP.part.metal>
0.0000

> <Gold.PLP.part.buried>
-6.9454

> <Gold.PLP.part.nonpolar>
-32.5120

> <Gold.PLP.part.repulsive>
0.1701

> <Gold.PLP.ligand.clash>
0.0000

> <Gold.PLP.ligand.torsion>
0.6323

> <Gold.PLP.Chemscore.Hbond>
1.0000

> <Gold.PLP.Chemscore.CHOScore>
1.0000

> <Gold.PLP.Chemscore.Metal>
0.0000

> <Gold.Chemscore.Hbonds>
donor molecule, donor type, donor heavy atom, donor atom, acceptor molecule, acceptor atom, score
      P1  H  7989  7998       L1     8  0.81
      L1  C    18    41       P1  7957  0.27

> <Gold.PLP.Chemscore.Internal.Correction>
0.0229

> <Gold.Rescore>
     Score         DG    S(hbond)    S(metal)    S(lipo)     H(rot)  DE(clash)    DE(int)     intcor
     18.25     -19.11       0.99        0.00     119.30       1.42       0.26       0.60       ----

> <Gold.Chemscore.Fitness>
18.2524

> <Gold.Chemscore.DG>
-19.1123

> <Gold.Chemscore.ZeroCoef>
-5.4800

> <Gold.Chemscore.Hbond>
0.9927

> <Gold.Chemscore.Metal>
0.0000

> <Gold.Chemscore.Lipo>
119.3047

> <Gold.Chemscore.Internal_Hbond>
0.0000

> <Gold.Chemscore.DEClash>
0.2560

> <Gold.Chemscore.DEInternal>
0.6038

> <Gold.Chemscore.Rot>
1.4227

> <Gold.Chemscore.Internal.Correction>
   9.000000E+99

> <Gold.Chemscore.Hbonds>
donor molecule, donor type, donor heavy atom, donor atom, acceptor molecule, acceptor atom, score
      P1  H  7989  7998       L1     8  0.80

> <Gold.Chemscore.Hbond.Weighted>
-3.3157

> <Gold.Chemscore.Metal.Weighted>
-0.0000

> <Gold.Chemscore.Lipo.Weighted>
-13.9587

> <Gold.Chemscore.Internal_Hbond.Weighted>
0.0000

> <Gold.Chemscore.DEClash.Weighted>
0.2560

> <Gold.Chemscore.DEInternal.Weighted>
0.6038

> <Gold.Chemscore.Rot.Weighted>
3.6421

> <Gold.Chemscore.Internal.Correction.Weighted>
   9.000000E+99

> <Gold.Protein.RotatedTorsions>
[ 6907 6896 6895 6894 ] final  -38.38 input  -60.11 | X-H torsion
[ 7974 7965 7964 7962 ] final   66.57 input  175.53 | X-H torsion
[ 8008 7997 7996 7995 ] final   29.57 input   59.86 | X-H torsion
[ 10167 10162 10161 10158 ] final   90.35 input  -65.29 | X-H torsion
[ 10718 10713 10712 10709 ] final  103.87 input   66.30 | X-H torsion
[ 10763 10752 10751 10750 ] final  -13.75 input  -60.55 | X-H torsion
[ 11005 11000 10999 10996 ] final   25.09 input  -57.11 | X-H torsion

> <Gold.Protein.ActiveResidues>
 VAL166  LYS551  ARG553  GLY616  TRP617  ASP618  TYR619  PRO620  LYS621  CYS622 
 ASP623  PHE694  ASN695  SER759  ASP760  ASP761  ALA762  ILE779  LEU786  VAL792 
 PHE793  MET794  SER795  GLU796  ALA797  LYS798  CYS799  TRP800  GLU811  SER814 

> <Gold.Protein.RotatedAtoms>
  151.0031  134.9338  159.7964 H   0  0  0  0  0  0  0  0  0  0  0  0  # atno 6907 bound_to 6896
  152.5283  134.3127  159.9129 H   0  0  0  0  0  0  0  0  0  0  0  0  # atno 6908 bound_to 6896
  151.3133  133.4029  159.2683 H   0  0  0  0  0  0  0  0  0  0  0  0  # atno 6909 bound_to 6896
  145.8251  139.3106  143.1020 H   0  0  0  0  0  0  0  0  0  0  0  0  # atno 7974 bound_to 7965
  155.0766  140.3206  155.4614 H   0  0  0  0  0  0  0  0  0  0  0  0  # atno 8008 bound_to 7997
  156.2777  140.2102  156.5839 H   0  0  0  0  0  0  0  0  0  0  0  0  # atno 8009 bound_to 7997
  154.7012  140.0507  157.0447 H   0  0  0  0  0  0  0  0  0  0  0  0  # atno 8010 bound_to 7997
  139.8481  144.6607  150.9202 H   0  0  0  0  0  0  0  0  0  0  0  0  # atno 10167 bound_to 10162
  157.6759  131.0789  150.5620 H   0  0  0  0  0  0  0  0  0  0  0  0  # atno 10718 bound_to 10713
  153.5180  135.7016  153.5746 H   0  0  0  0  0  0  0  0  0  0  0  0  # atno 10763 bound_to 10752
  153.3807  135.3921  155.1855 H   0  0  0  0  0  0  0  0  0  0  0  0  # atno 10764 bound_to 10752
  154.8697  135.3834  154.4666 H   0  0  0  0  0  0  0  0  0  0  0  0  # atno 10765 bound_to 10752
  140.3516  134.2223  155.7679 H   0  0  0  0  0  0  0  0  0  0  0  0  # atno 11005 bound_to 11000
  145.9633  140.8818  143.0200 LP  0  0  0  0  0  0  0  0  0  0  0  0  # atno 17320 bound_to 7965
  144.6744  140.1843  143.7403 LP  0  0  0  0  0  0  0  0  0  0  0  0  # atno 17321 bound_to 7965
  140.7790  143.3851  151.1407 LP  0  0  0  0  0  0  0  0  0  0  0  0  # atno 17342 bound_to 10162
  139.7492  143.8805  152.3072 LP  0  0  0  0  0  0  0  0  0  0  0  0  # atno 17343 bound_to 10162
  156.5923  130.4332  149.5931 LP  0  0  0  0  0  0  0  0  0  0  0  0  # atno 17370 bound_to 10713
  156.2573  130.6942  151.1700 LP  0  0  0  0  0  0  0  0  0  0  0  0  # atno 17371 bound_to 10713
  141.2010  133.7972  157.0460 LP  0  0  0  0  0  0  0  0  0  0  0  0  # atno 17394 bound_to 11000
  140.0698  134.9708  157.1448 LP  0  0  0  0  0  0  0  0  0  0  0  0  # atno 17395 bound_to 11000

$$$$
