AV-unprocessed.smi:1684|AV-procd|sdf|6755|dock7
  -GOLD-   22720 7513D 1   1.00000     0.00000
 Structure written by MMmdl.
 43 44  0  0  0  0  0  0  0  0  2 V2000
  144.8377  133.3732  150.5505 C   0  0  0  0  0  0  0  0  0  0  0  0
  145.6601  132.3784  151.3535 C   0  0  0  0  0  0  0  0  0  0  0  0
  145.4348  130.9963  151.1781 C   0  0  0  0  0  0  0  0  0  0  0  0
  146.1970  130.0778  151.9199 C   0  0  0  0  0  0  0  0  0  0  0  0
  147.1585  130.5833  152.8113 C   0  0  0  0  0  0  0  0  0  0  0  0
  147.3809  131.9022  152.9847 N   0  0  0  0  0  0  0  0  0  0  0  0
  146.6513  132.8024  152.2786 C   0  0  0  0  0  0  0  0  0  0  0  0
  146.8342  134.2085  152.4076 N   0  0  0  0  0  0  0  0  0  0  0  0
  146.0198  135.1056  152.9901 C   0  0  0  0  0  0  0  0  0  0  0  0
  144.9151  134.8570  153.4736 O   0  0  0  0  0  0  0  0  0  0  0  0
  146.5686  136.3301  152.9961 N   0  0  0  0  0  0  0  0  0  0  0  0
  145.9586  137.5434  153.5433 C   0  0  2  0  0  0  0  0  0  0  0  0
  144.5131  137.6464  153.0381 C   0  0  0  0  0  0  0  0  0  0  0  0
  146.7728  138.8051  153.1715 C   0  0  0  0  0  0  0  0  0  0  0  0
  146.2669  140.0381  153.8262 N   0  3  0  0  0  0  0  0  0  0  0  0
  146.0485  139.8815  155.2827 C   0  0  0  0  0  0  0  0  0  0  0  0
  145.4374  141.1670  155.8667 C   0  0  0  0  0  0  0  0  0  0  0  0
  146.2850  142.2738  155.5825 O   0  0  0  0  0  0  0  0  0  0  0  0
  146.4438  142.4800  154.1837 C   0  0  0  0  0  0  0  0  0  0  0  0
  147.0943  141.2379  153.5533 C   0  0  0  0  0  0  0  0  0  0  0  0
  144.1452  132.8654  149.8784 H   0  0  0  0  0  0  0  0  0  0  0  0
  145.4870  134.0066  149.9454 H   0  0  0  0  0  0  0  0  0  0  0  0
  144.2533  134.0094  151.2159 H   0  0  0  0  0  0  0  0  0  0  0  0
  144.6879  130.6406  150.4836 H   0  0  0  0  0  0  0  0  0  0  0  0
  146.0485  129.0139  151.8085 H   0  0  0  0  0  0  0  0  0  0  0  0
  147.7663  129.9124  153.4000 H   0  0  0  0  0  0  0  0  0  0  0  0
  147.6986  134.5662  152.0288 H   0  0  0  0  0  0  0  0  0  0  0  0
  147.4797  136.4378  152.5739 H   0  0  0  0  0  0  0  0  0  0  0  0
  145.9063  137.4556  154.6294 H   0  0  0  0  0  0  0  0  0  0  0  0
  144.0104  138.5155  153.4635 H   0  0  0  0  0  0  0  0  0  0  0  0
  143.9347  136.7649  153.3173 H   0  0  0  0  0  0  0  0  0  0  0  0
  144.4753  137.7392  151.9521 H   0  0  0  0  0  0  0  0  0  0  0  0
  147.8083  138.6399  153.4731 H   0  0  0  0  0  0  0  0  0  0  0  0
  146.7929  138.9480  152.0900 H   0  0  0  0  0  0  0  0  0  0  0  0
  145.3788  139.0415  155.4706 H   0  0  0  0  0  0  0  0  0  0  0  0
  146.9961  139.6561  155.7746 H   0  0  0  0  0  0  0  0  0  0  0  0
  144.4409  141.3438  155.4587 H   0  0  0  0  0  0  0  0  0  0  0  0
  145.3274  141.0745  156.9472 H   0  0  0  0  0  0  0  0  0  0  0  0
  145.4780  142.6911  153.7209 H   0  0  0  0  0  0  0  0  0  0  0  0
  147.0725  143.3561  154.0242 H   0  0  0  0  0  0  0  0  0  0  0  0
  148.0974  141.0947  153.9583 H   0  0  0  0  0  0  0  0  0  0  0  0
  147.2029  141.3910  152.4799 H   0  0  0  0  0  0  0  0  0  0  0  0
  145.3570  140.2164  153.4247 H   0  0  0  0  0  0  0  0  0  0  0  0
  1  2  1  0  0  0  0
  1 21  1  0  0  0  0
  1 22  1  0  0  0  0
  1 23  1  0  0  0  0
  2  7  1  0  0  0  0
  2  3  2  0  0  0  0
  3  4  1  0  0  0  0
  3 24  1  0  0  0  0
  4  5  2  0  0  0  0
  4 25  1  0  0  0  0
  5  6  1  0  0  0  0
  5 26  1  0  0  0  0
  6  7  2  0  0  0  0
  7  8  1  0  0  0  0
  8  9  1  0  0  0  0
  8 27  1  0  0  0  0
  9 10  2  0  0  0  0
  9 11  1  0  0  0  0
 11 12  1  0  0  0  0
 11 28  1  0  0  0  0
 12 13  1  0  0  0  0
 12 14  1  0  0  0  0
 12 29  1  0  0  0  0
 13 30  1  0  0  0  0
 13 31  1  0  0  0  0
 13 32  1  0  0  0  0
 14 15  1  0  0  0  0
 14 33  1  0  0  0  0
 14 34  1  0  0  0  0
 15 20  1  0  0  0  0
 15 16  1  0  0  0  0
 15 43  1  0  0  0  0
 16 17  1  0  0  0  0
 16 35  1  0  0  0  0
 16 36  1  0  0  0  0
 17 18  1  0  0  0  0
 17 37  1  0  0  0  0
 17 38  1  0  0  0  0
 18 19  1  0  0  0  0
 19 20  1  0  0  0  0
 19 39  1  0  0  0  0
 19 40  1  0  0  0  0
 20 41  1  0  0  0  0
 20 42  1  0  0  0  0
M  CHG  1  15   1
M  END
> <s_m_source_file>
AV-unprocessed.smi

> <i_m_source_file_index>
1684

> <i_lp_mmshare_version>
43012

> <i_f3d_flags>
0

> <s_epik_input>
W0NIM11jMVtjSF1bY0hdW2NIXW5jMVtOSF1DKD1PKVtOSF1bQ0BIXShbQ0gzXSlbQ0gyXU4yW0NIMl1bQ0gyXU9bQ0gyXVtDSDJdMg==

> <s_epik_cmdline>
J2VwaWtfcHl0aG9uJywgJy1waCcsICc3LjAnLCAnLXRuJywgJzgnLCAnLW1hJywgJzIwMCcsICctbWV0YWxfYmluZGluZycsICctaW1hZScsICc8aW5maWxlLm1hZT4nLCAnLW9tYWUnLCAnPG91dGZpbGUubWFlPic=

> <r_epik_Ionization_Penalty>
0.602571

> <r_epik_Ionization_Penalty_Charging>
0.602531

> <r_epik_Ionization_Penalty_Neutral>
4.09763e-05

> <r_epik_State_Penalty>
0.617039

> <r_epik_Charging_Adjusted_Penalty>
1.21957

> <i_epik_Tot_Q>
1

> <i_epik_Tot_abs_Q>
1

> <r_epik_Metal_State_Penalty>
0.617043

> <b_epik_Metal_Only>
0

> <s_lp_Force_Field>
OPLS_2005

> <r_lp_Energy>
24.8117

> <b_lp_Chiralities_Consistent>
1

> <s_lp_Variant>
AV-unprocessed.smi:1684-3

> <Gold.Version>
5.8.1

> <Gold.Id.Protein>
6NUR|6NUR_protein|mol2

> <Gold.PLP.Fitness>
39.2371

> <Gold.PLP.PLP>
-29.0451

> <Gold.PLP.part.hbond>
-3.0000

> <Gold.PLP.part.metal>
0.0000

> <Gold.PLP.part.buried>
-3.2492

> <Gold.PLP.part.nonpolar>
-22.7823

> <Gold.PLP.part.repulsive>
0.3390

> <Gold.PLP.ligand.clash>
0.0000

> <Gold.PLP.ligand.torsion>
0.8354

> <Gold.PLP.Chemscore.Hbond>
3.9440

> <Gold.PLP.Chemscore.CHOScore>
0.0000

> <Gold.PLP.Chemscore.Metal>
0.0000

> <Gold.Chemscore.Hbonds>
donor molecule, donor type, donor heavy atom, donor atom, acceptor molecule, acceptor atom, score
      L1  H     8    27       P1  7948  0.92
      L1  H    11    28       P1  7948  1.00
      L1  H    15    43       P1 10175  2.00

> <Gold.PLP.Chemscore.Internal.Correction>
0.0309

> <Gold.Rescore>
     Score         DG    S(hbond)    S(metal)    S(lipo)     H(rot)  DE(clash)    DE(int)     intcor
     15.53     -17.80       2.27        0.00      73.61       1.51       0.07       2.20       ----

> <Gold.Chemscore.Fitness>
15.5330

> <Gold.Chemscore.DG>
-17.8027

> <Gold.Chemscore.ZeroCoef>
-5.4800

> <Gold.Chemscore.Hbond>
2.2654

> <Gold.Chemscore.Metal>
0.0000

> <Gold.Chemscore.Lipo>
73.6057

> <Gold.Chemscore.Internal_Hbond>
0.0000

> <Gold.Chemscore.DEClash>
0.0747

> <Gold.Chemscore.DEInternal>
2.1951

> <Gold.Chemscore.Rot>
1.5061

> <Gold.Chemscore.Internal.Correction>
   9.000000E+99

> <Gold.Chemscore.Hbonds>
donor molecule, donor type, donor heavy atom, donor atom, acceptor molecule, acceptor atom, score
      L1  H     8    27       P1  7948  0.37
      L1  H    11    28       P1  7948  1.00
      L1  H    15    43       P1 10175  0.99

> <Gold.Chemscore.Hbond.Weighted>
-7.5665

> <Gold.Chemscore.Metal.Weighted>
-0.0000

> <Gold.Chemscore.Lipo.Weighted>
-8.6119

> <Gold.Chemscore.Internal_Hbond.Weighted>
0.0000

> <Gold.Chemscore.DEClash.Weighted>
0.0747

> <Gold.Chemscore.DEInternal.Weighted>
2.1951

> <Gold.Chemscore.Rot.Weighted>
3.8557

> <Gold.Chemscore.Internal.Correction.Weighted>
   9.000000E+99

> <Gold.Protein.RotatedTorsions>
[ 6907 6896 6895 6894 ] final -178.51 input  -60.11 | X-H torsion
[ 7974 7965 7964 7962 ] final -141.65 input  175.53 | X-H torsion
[ 8008 7997 7996 7995 ] final   86.72 input   59.86 | X-H torsion
[ 10167 10162 10161 10158 ] final  -66.38 input  -65.29 | X-H torsion
[ 10718 10713 10712 10709 ] final   47.63 input   66.30 | X-H torsion
[ 10763 10752 10751 10750 ] final -155.01 input  -60.55 | X-H torsion
[ 11005 11000 10999 10996 ] final -126.57 input  -57.11 | X-H torsion

> <Gold.Protein.ActiveResidues>
 VAL166  LYS551  ARG553  GLY616  TRP617  ASP618  TYR619  PRO620  LYS621  CYS622 
 ASP623  PHE694  ASN695  SER759  ASP760  ASP761  ALA762  ILE779  LEU786  VAL792 
 PHE793  MET794  SER795  GLU796  ALA797  LYS798  CYS799  TRP800  GLU811  SER814 

> <Gold.Protein.RotatedAtoms>
  151.6384  133.3327  159.3124 H   0  0  0  0  0  0  0  0  0  0  0  0  # atno 6907 bound_to 6896
  150.8020  134.7124  159.6621 H   0  0  0  0  0  0  0  0  0  0  0  0  # atno 6908 bound_to 6896
  152.4113  134.6123  160.0080 H   0  0  0  0  0  0  0  0  0  0  0  0  # atno 6909 bound_to 6896
  144.8503  140.6054  143.5394 H   0  0  0  0  0  0  0  0  0  0  0  0  # atno 7974 bound_to 7965
  155.9664  140.3389  155.6536 H   0  0  0  0  0  0  0  0  0  0  0  0  # atno 8008 bound_to 7997
  155.6732  140.0729  157.2530 H   0  0  0  0  0  0  0  0  0  0  0  0  # atno 8009 bound_to 7997
  154.4155  140.1688  156.1889 H   0  0  0  0  0  0  0  0  0  0  0  0  # atno 8010 bound_to 7997
  140.5661  143.2315  151.6631 H   0  0  0  0  0  0  0  0  0  0  0  0  # atno 10167 bound_to 10162
  157.4604  130.8193  149.7881 H   0  0  0  0  0  0  0  0  0  0  0  0  # atno 10718 bound_to 10713
  154.7818  135.3177  154.7973 H   0  0  0  0  0  0  0  0  0  0  0  0  # atno 10763 bound_to 10752
  153.8682  135.6847  153.4781 H   0  0  0  0  0  0  0  0  0  0  0  0  # atno 10764 bound_to 10752
  153.1457  135.4720  154.9500 H   0  0  0  0  0  0  0  0  0  0  0  0  # atno 10765 bound_to 10752
  140.9670  134.0857  157.3909 H   0  0  0  0  0  0  0  0  0  0  0  0  # atno 11005 bound_to 11000
  145.4513  139.1523  143.3916 LP  0  0  0  0  0  0  0  0  0  0  0  0  # atno 17320 bound_to 7965
  146.2779  140.4639  142.8788 LP  0  0  0  0  0  0  0  0  0  0  0  0  # atno 17321 bound_to 7965
  139.5094  144.3579  152.0590 LP  0  0  0  0  0  0  0  0  0  0  0  0  # atno 17342 bound_to 10162
  140.2711  144.3963  150.6151 LP  0  0  0  0  0  0  0  0  0  0  0  0  # atno 17343 bound_to 10162
  156.0026  130.3872  150.2548 LP  0  0  0  0  0  0  0  0  0  0  0  0  # atno 17370 bound_to 10713
  157.0725  131.0121  151.3185 LP  0  0  0  0  0  0  0  0  0  0  0  0  # atno 17371 bound_to 10713
  139.8898  135.0108  156.6701 LP  0  0  0  0  0  0  0  0  0  0  0  0  # atno 17394 bound_to 11000
  140.7384  133.8999  155.8260 LP  0  0  0  0  0  0  0  0  0  0  0  0  # atno 17395 bound_to 11000

$$$$
