AV-unprocessed.smi:1493|AV-procd|sdf|6048|dock6
  -GOLD-   22720 6163D 1   1.00000     0.00000
 Structure written by MMmdl.
 33 33  0  0  0  0  0  0  0  0  2 V2000
  151.7876  145.0092  158.8520 C   0  0  0  0  0  0  0  0  0  0  0  0
  151.4452  144.2601  160.1444 C   0  0  0  0  0  0  0  0  0  0  0  0
  152.6049  143.3777  160.6378 C   0  0  0  0  0  0  0  0  0  0  0  0
  152.6305  141.9723  160.0074 C   0  0  2  0  0  0  0  0  0  0  0  0
  154.0134  141.3170  160.1525 C   0  0  0  0  0  0  0  0  0  0  0  0
  152.2563  142.0424  158.5968 N   0  0  0  0  0  0  0  0  0  0  0  0
  151.1807  141.4586  158.0456 C   0  0  0  0  0  0  0  0  0  0  0  0
  150.3676  140.7963  158.6926 O   0  0  0  0  0  0  0  0  0  0  0  0
  151.0016  141.6769  156.5350 C   0  0  0  0  0  0  0  0  0  0  0  0
  151.1914  140.4605  155.7310 N   0  0  0  0  0  0  0  0  0  0  0  0
  152.5394  139.9040  155.8098 N   0  5  0  0  0  0  0  0  0  0  0  0
  152.8394  138.7899  155.0908 C   0  0  0  0  0  0  0  0  0  0  0  0
  153.9555  138.2758  155.0928 O   0  0  0  0  0  0  0  0  0  0  0  0
  151.7851  138.1859  154.2930 C   0  0  0  0  0  0  0  0  0  0  0  0
  150.5420  138.7051  154.2609 C   0  0  0  0  0  0  0  0  0  0  0  0
  150.1766  139.8994  155.0128 C   0  0  0  0  0  0  0  0  0  0  0  0
  149.0389  140.3702  154.9998 O   0  0  0  0  0  0  0  0  0  0  0  0
  150.9491  145.6257  158.5274 H   0  0  0  0  0  0  0  0  0  0  0  0
  152.0226  144.3153  158.0444 H   0  0  0  0  0  0  0  0  0  0  0  0
  152.6476  145.6642  158.9930 H   0  0  0  0  0  0  0  0  0  0  0  0
  151.1808  144.9819  160.9178 H   0  0  0  0  0  0  0  0  0  0  0  0
  150.5565  143.6511  159.9757 H   0  0  0  0  0  0  0  0  0  0  0  0
  153.5527  143.8831  160.4461 H   0  0  0  0  0  0  0  0  0  0  0  0
  152.5314  143.2757  161.7212 H   0  0  0  0  0  0  0  0  0  0  0  0
  151.9032  141.3552  160.5383 H   0  0  0  0  0  0  0  0  0  0  0  0
  154.3028  141.2410  161.2009 H   0  0  0  0  0  0  0  0  0  0  0  0
  154.7816  141.8934  159.6356 H   0  0  0  0  0  0  0  0  0  0  0  0
  154.0190  140.3082  159.7381 H   0  0  0  0  0  0  0  0  0  0  0  0
  152.8654  142.5725  157.9907 H   0  0  0  0  0  0  0  0  0  0  0  0
  150.0058  142.0929  156.3728 H   0  0  0  0  0  0  0  0  0  0  0  0
  151.6989  142.4445  156.1943 H   0  0  0  0  0  0  0  0  0  0  0  0
  152.0027  137.3000  153.7150 H   0  0  0  0  0  0  0  0  0  0  0  0
  149.7897  138.2220  153.6557 H   0  0  0  0  0  0  0  0  0  0  0  0
  1  2  1  0  0  0  0
  1 18  1  0  0  0  0
  1 19  1  0  0  0  0
  1 20  1  0  0  0  0
  2  3  1  0  0  0  0
  2 21  1  0  0  0  0
  2 22  1  0  0  0  0
  3  4  1  0  0  0  0
  3 23  1  0  0  0  0
  3 24  1  0  0  0  0
  4  5  1  0  0  0  0
  4  6  1  0  0  0  0
  4 25  1  0  0  0  0
  5 26  1  0  0  0  0
  5 27  1  0  0  0  0
  5 28  1  0  0  0  0
  6  7  1  0  0  0  0
  6 29  1  0  0  0  0
  7  8  2  0  0  0  0
  7  9  1  0  0  0  0
  9 30  1  0  0  0  0
  9 31  1  0  0  0  0
  9 10  1  0  0  0  0
 10 11  1  0  0  0  0
 10 16  1  0  0  0  0
 11 12  1  0  0  0  0
 12 13  2  0  0  0  0
 12 14  1  0  0  0  0
 14 32  1  0  0  0  0
 14 15  2  0  0  0  0
 15 33  1  0  0  0  0
 15 16  1  0  0  0  0
 16 17  2  0  0  0  0
M  CHG  1  11  -1
M  END
> <s_m_source_file>
AV-unprocessed.smi

> <i_m_source_file_index>
1493

> <i_lp_mmshare_version>
43012

> <i_f3d_flags>
0

> <s_epik_input>
W0NIM11bQ0gyXVtDSDJdW0NASF0oW0NIM10pW05IXUMoPU8pW0NIMl1uMVtuSF1jKD1PKVtjSF1bY0hdYzE9Tw==

> <s_epik_cmdline>
J2VwaWtfcHl0aG9uJywgJy1waCcsICc3LjAnLCAnLXRuJywgJzgnLCAnLW1hJywgJzIwMCcsICctbWV0YWxfYmluZGluZycsICctaW1hZScsICc8aW5maWxlLm1hZT4nLCAnLW9tYWUnLCAnPG91dGZpbGUubWFlPic=

> <r_lp_tautomer_probability>
1

> <r_epik_Ionization_Penalty>
0.0986298

> <r_epik_Ionization_Penalty_Charging>
0.0986298

> <r_epik_Ionization_Penalty_Neutral>
1.93017e-08

> <r_epik_State_Penalty>
0.0347731

> <r_epik_Charging_Adjusted_Penalty>
0.133403

> <i_epik_Tot_Q>
-1

> <i_epik_Tot_abs_Q>
1

> <r_epik_Metal_State_Penalty>
0.0347731

> <b_epik_Metal_Only>
0

> <s_lp_Force_Field>
OPLS_2005

> <r_lp_Energy>
18.8288

> <b_lp_Chiralities_Consistent>
1

> <s_lp_Variant>
AV-unprocessed.smi:1493-1

> <Gold.Version>
5.8.1

> <Gold.Id.Protein>
6NUR|6NUR_protein|mol2

> <Gold.PLP.Fitness>
47.8520

> <Gold.PLP.PLP>
-42.6652

> <Gold.PLP.part.hbond>
-2.7400

> <Gold.PLP.part.metal>
0.0000

> <Gold.PLP.part.buried>
-5.0900

> <Gold.PLP.part.nonpolar>
-35.0678

> <Gold.PLP.part.repulsive>
0.1776

> <Gold.PLP.ligand.clash>
0.0000

> <Gold.PLP.ligand.torsion>
0.4317

> <Gold.PLP.Chemscore.Hbond>
2.0000

> <Gold.PLP.Chemscore.CHOScore>
0.0000

> <Gold.PLP.Chemscore.Metal>
0.0000

> <Gold.Chemscore.Hbonds>
donor molecule, donor type, donor heavy atom, donor atom, acceptor molecule, acceptor atom, score
      P1  H  7997  8010       L1    11  1.34

> <Gold.PLP.Chemscore.Internal.Correction>
0.0503

> <Gold.Rescore>
     Score         DG    S(hbond)    S(metal)    S(lipo)     H(rot)  DE(clash)    DE(int)     intcor
     12.63     -13.27       1.27        0.00      77.04       2.14       0.19       0.44       ----

> <Gold.Chemscore.Fitness>
12.6330

> <Gold.Chemscore.DG>
-13.2663

> <Gold.Chemscore.ZeroCoef>
-5.4800

> <Gold.Chemscore.Hbond>
1.2705

> <Gold.Chemscore.Metal>
0.0000

> <Gold.Chemscore.Lipo>
77.0443

> <Gold.Chemscore.Internal_Hbond>
0.0000

> <Gold.Chemscore.DEClash>
0.1945

> <Gold.Chemscore.DEInternal>
0.4388

> <Gold.Chemscore.Rot>
2.1372

> <Gold.Chemscore.Internal.Correction>
   9.000000E+99

> <Gold.Chemscore.Hbonds>
donor molecule, donor type, donor heavy atom, donor atom, acceptor molecule, acceptor atom, score
      P1  H  7997  8010       L1    11  0.07

> <Gold.Chemscore.Hbond.Weighted>
-4.2434

> <Gold.Chemscore.Metal.Weighted>
-0.0000

> <Gold.Chemscore.Lipo.Weighted>
-9.0142

> <Gold.Chemscore.Internal_Hbond.Weighted>
0.0000

> <Gold.Chemscore.DEClash.Weighted>
0.1945

> <Gold.Chemscore.DEInternal.Weighted>
0.4388

> <Gold.Chemscore.Rot.Weighted>
5.4713

> <Gold.Chemscore.Internal.Correction.Weighted>
   9.000000E+99

> <Gold.Protein.RotatedTorsions>
[ 6907 6896 6895 6894 ] final  -50.35 input  -60.11 | X-H torsion
[ 7974 7965 7964 7962 ] final -156.59 input  175.53 | X-H torsion
[ 8008 7997 7996 7995 ] final   65.99 input   59.86 | X-H torsion
[ 10167 10162 10161 10158 ] final   42.84 input  -65.29 | X-H torsion
[ 10718 10713 10712 10709 ] final  -48.35 input   66.30 | X-H torsion
[ 10763 10752 10751 10750 ] final -113.44 input  -60.55 | X-H torsion
[ 11005 11000 10999 10996 ] final   47.49 input  -57.11 | X-H torsion

> <Gold.Protein.ActiveResidues>
 VAL166  LYS551  ARG553  GLY616  TRP617  ASP618  TYR619  PRO620  LYS621  CYS622 
 ASP623  PHE694  ASN695  SER759  ASP760  ASP761  ALA762  ILE779  LEU786  VAL792 
 PHE793  MET794  SER795  GLU796  ALA797  LYS798  CYS799  TRP800  GLU811  SER814 

> <Gold.Protein.RotatedAtoms>
  150.8716  134.8091  159.7158 H   0  0  0  0  0  0  0  0  0  0  0  0  # atno 6907 bound_to 6896
  152.4718  134.4938  159.9713 H   0  0  0  0  0  0  0  0  0  0  0  0  # atno 6908 bound_to 6896
  151.5026  133.3463  159.2907 H   0  0  0  0  0  0  0  0  0  0  0  0  # atno 6909 bound_to 6896
  144.7586  140.4089  143.5993 H   0  0  0  0  0  0  0  0  0  0  0  0  # atno 7974 bound_to 7965
  155.6705  140.3497  155.4816 H   0  0  0  0  0  0  0  0  0  0  0  0  # atno 8008 bound_to 7997
  155.9692  140.1152  157.0850 H   0  0  0  0  0  0  0  0  0  0  0  0  # atno 8009 bound_to 7997
  154.4162  140.1160  156.5270 H   0  0  0  0  0  0  0  0  0  0  0  0  # atno 8010 bound_to 7997
  140.3503  144.2358  150.6146 H   0  0  0  0  0  0  0  0  0  0  0  0  # atno 10167 bound_to 10162
  156.1996  130.4155  149.9259 H   0  0  0  0  0  0  0  0  0  0  0  0  # atno 10718 bound_to 10713
  154.8396  135.4454  154.1350 H   0  0  0  0  0  0  0  0  0  0  0  0  # atno 10763 bound_to 10752
  153.2550  135.6930  153.7645 H   0  0  0  0  0  0  0  0  0  0  0  0  # atno 10764 bound_to 10752
  153.6943  135.3382  155.3185 H   0  0  0  0  0  0  0  0  0  0  0  0  # atno 10765 bound_to 10752
  140.1274  134.4750  155.8548 H   0  0  0  0  0  0  0  0  0  0  0  0  # atno 11005 bound_to 11000
  145.6694  139.1596  143.2763 LP  0  0  0  0  0  0  0  0  0  0  0  0  # atno 17320 bound_to 7965
  146.1625  140.6767  142.9271 LP  0  0  0  0  0  0  0  0  0  0  0  0  # atno 17321 bound_to 7965
  140.5225  143.2262  151.8366 LP  0  0  0  0  0  0  0  0  0  0  0  0  # atno 17342 bound_to 10162
  139.4827  144.4819  151.9295 LP  0  0  0  0  0  0  0  0  0  0  0  0  # atno 17343 bound_to 10162
  156.6973  130.8919  151.3595 LP  0  0  0  0  0  0  0  0  0  0  0  0  # atno 17370 bound_to 10713
  157.6978  130.9300  150.0695 LP  0  0  0  0  0  0  0  0  0  0  0  0  # atno 17371 bound_to 10713
  141.2164  133.6783  156.7005 LP  0  0  0  0  0  0  0  0  0  0  0  0  # atno 17394 bound_to 11000
  140.2886  134.8259  157.3997 LP  0  0  0  0  0  0  0  0  0  0  0  0  # atno 17395 bound_to 11000

$$$$
