AV-unprocessed.smi:2953|AV-procd|sdf|11293|dock5
  -GOLD-   2272016183D 1   1.00000     0.00000
 Structure written by MMmdl.
 45 47  0  0  0  0  0  0  0  0  1 V2000
  152.0031  144.4158  160.8232 C   0  0  0  0  0  0  0  0  0  0  0  0
  152.4791  143.0257  160.4467 C   0  0  0  0  0  0  0  0  0  0  0  0
  153.4712  142.3969  161.2279 C   0  0  0  0  0  0  0  0  0  0  0  0
  153.9210  141.1055  160.8983 C   0  0  0  0  0  0  0  0  0  0  0  0
  153.3781  140.4387  159.7859 C   0  0  0  0  0  0  0  0  0  0  0  0
  152.3871  141.0616  159.0035 C   0  0  0  0  0  0  0  0  0  0  0  0
  151.9259  142.3645  159.3248 C   0  0  0  0  0  0  0  0  0  0  0  0
  150.9602  143.0346  158.6016 O   0  0  0  0  0  0  0  0  0  0  0  0
  150.1832  142.2983  157.6662 C   0  0  0  0  0  0  0  0  0  0  0  0
  151.0304  141.9679  156.4298 C   0  0  0  0  0  0  0  0  0  0  0  0
  150.3867  140.9903  155.5628 N   0  0  0  0  0  0  0  0  0  0  0  0
  150.7957  139.7344  155.2401 C   0  0  0  0  0  0  0  0  0  0  0  0
  152.0625  139.1292  155.7963 C   0  0  2  0  0  0  0  0  0  0  0  0
  153.0924  138.7309  154.7212 C   0  0  0  0  0  0  0  0  0  0  0  0
  151.7235  138.0192  156.6874 N   0  0  0  0  0  0  0  0  0  0  0  0
  151.4272  136.7672  156.3108 C   0  0  0  0  0  0  0  0  0  0  0  0
  151.4086  136.4072  155.1365 O   0  0  0  0  0  0  0  0  0  0  0  0
  149.9603  139.0445  154.4587 N   0  0  0  0  0  0  0  0  0  0  0  0
  148.9434  139.9461  154.2193 C   0  0  0  0  0  0  0  0  0  0  0  0
  147.7671  139.8204  153.4459 C   0  0  0  0  0  0  0  0  0  0  0  0
  146.8579  140.8943  153.3505 C   0  0  0  0  0  0  0  0  0  0  0  0
  147.1103  142.1053  154.0268 C   0  0  0  0  0  0  0  0  0  0  0  0
  148.2752  142.2496  154.8050 C   0  0  0  0  0  0  0  0  0  0  0  0
  149.1805  141.1752  154.8949 C   0  0  0  0  0  0  0  0  0  0  0  0
  152.6339  144.8587  161.5947 H   0  0  0  0  0  0  0  0  0  0  0  0
  150.9824  144.3695  161.2031 H   0  0  0  0  0  0  0  0  0  0  0  0
  152.0204  145.0764  159.9558 H   0  0  0  0  0  0  0  0  0  0  0  0
  153.8912  142.9028  162.0849 H   0  0  0  0  0  0  0  0  0  0  0  0
  154.6806  140.6269  161.4987 H   0  0  0  0  0  0  0  0  0  0  0  0
  153.7215  139.4467  159.5315 H   0  0  0  0  0  0  0  0  0  0  0  0
  151.9968  140.5150  158.1592 H   0  0  0  0  0  0  0  0  0  0  0  0
  149.8310  141.3684  158.1151 H   0  0  0  0  0  0  0  0  0  0  0  0
  149.3098  142.8800  157.3668 H   0  0  0  0  0  0  0  0  0  0  0  0
  151.2575  142.8722  155.8667 H   0  0  0  0  0  0  0  0  0  0  0  0
  151.9938  141.5641  156.7428 H   0  0  0  0  0  0  0  0  0  0  0  0
  152.5549  139.8804  156.4126 H   0  0  0  0  0  0  0  0  0  0  0  0
  153.3656  139.5883  154.1067 H   0  0  0  0  0  0  0  0  0  0  0  0
  152.7102  137.9595  154.0520 H   0  0  0  0  0  0  0  0  0  0  0  0
  154.0056  138.3491  155.1781 H   0  0  0  0  0  0  0  0  0  0  0  0
  151.7091  138.2232  157.6760 H   0  0  0  0  0  0  0  0  0  0  0  0
  151.2075  136.1171  157.1716 H   0  0  0  0  0  0  0  0  0  0  0  0
  147.5641  138.8962  152.9254 H   0  0  0  0  0  0  0  0  0  0  0  0
  145.9622  140.7879  152.7560 H   0  0  0  0  0  0  0  0  0  0  0  0
  146.4090  142.9230  153.9490 H   0  0  0  0  0  0  0  0  0  0  0  0
  148.4709  143.1752  155.3255 H   0  0  0  0  0  0  0  0  0  0  0  0
  1  2  1  0  0  0  0
  1 25  1  0  0  0  0
  1 26  1  0  0  0  0
  1 27  1  0  0  0  0
  2  7  1  0  0  0  0
  2  3  2  0  0  0  0
  3  4  1  0  0  0  0
  3 28  1  0  0  0  0
  4  5  2  0  0  0  0
  4 29  1  0  0  0  0
  5  6  1  0  0  0  0
  5 30  1  0  0  0  0
  6  7  2  0  0  0  0
  6 31  1  0  0  0  0
  7  8  1  0  0  0  0
  8  9  1  0  0  0  0
  9 10  1  0  0  0  0
  9 32  1  0  0  0  0
  9 33  1  0  0  0  0
 10 11  1  0  0  0  0
 10 34  1  0  0  0  0
 10 35  1  0  0  0  0
 11 24  1  0  0  0  0
 11 12  1  0  0  0  0
 12 13  1  0  0  0  0
 12 18  2  0  0  0  0
 13 14  1  0  0  0  0
 13 15  1  0  0  0  0
 13 36  1  0  0  0  0
 14 37  1  0  0  0  0
 14 38  1  0  0  0  0
 14 39  1  0  0  0  0
 15 16  1  0  0  0  0
 15 40  1  0  0  0  0
 16 17  2  0  0  0  0
 16 41  1  0  0  0  0
 18 19  1  0  0  0  0
 19 24  2  0  0  0  0
 19 20  1  0  0  0  0
 20 21  2  0  0  0  0
 20 42  1  0  0  0  0
 21 22  1  0  0  0  0
 21 43  1  0  0  0  0
 22 23  2  0  0  0  0
 22 44  1  0  0  0  0
 23 24  1  0  0  0  0
 23 45  1  0  0  0  0
M  END
> <s_m_source_file>
AV-unprocessed.smi

> <i_m_source_file_index>
2953

> <i_lp_mmshare_version>
43012

> <i_f3d_flags>
0

> <s_epik_input>
W0NIM11jMVtjSF1bY0hdW2NIXVtjSF1jMU9bQ0gyXVtDSDJdbihjKG4yKVtDQEhdKFtDSDNdKVtOSF1bQ0hdPU8pYyhjMjMpW2NIXVtjSF1bY0hdW2NIXTM=

> <s_epik_cmdline>
J2VwaWtfcHl0aG9uJywgJy1waCcsICc3LjAnLCAnLXRuJywgJzgnLCAnLW1hJywgJzIwMCcsICctbWV0YWxfYmluZGluZycsICctaW1hZScsICc8aW5maWxlLm1hZT4nLCAnLW9tYWUnLCAnPG91dGZpbGUubWFlPic=

> <r_lp_tautomer_probability>
1

> <r_epik_Ionization_Penalty>
0.0924205

> <r_epik_Ionization_Penalty_Charging>
0

> <r_epik_Ionization_Penalty_Neutral>
0.0924205

> <r_epik_State_Penalty>
0.0827154

> <r_epik_Charging_Adjusted_Penalty>
0.0827154

> <i_epik_Tot_Q>
0

> <i_epik_Tot_abs_Q>
0

> <r_epik_Metal_State_Penalty>
0.071464

> <b_epik_Metal_Only>
0

> <s_lp_Force_Field>
OPLS_2005

> <r_lp_Energy>
13.673

> <b_lp_Chiralities_Consistent>
1

> <s_lp_Variant>
AV-unprocessed.smi:2953-1

> <Gold.Version>
5.8.1

> <Gold.Id.Protein>
6NUR|6NUR_protein|mol2

> <Gold.PLP.Fitness>
53.4433

> <Gold.PLP.PLP>
-51.3262

> <Gold.PLP.part.hbond>
-1.0000

> <Gold.PLP.part.metal>
0.0000

> <Gold.PLP.part.buried>
-0.1932

> <Gold.PLP.part.nonpolar>
-50.6989

> <Gold.PLP.part.repulsive>
0.4339

> <Gold.PLP.ligand.clash>
0.0000

> <Gold.PLP.ligand.torsion>
0.5293

> <Gold.PLP.Chemscore.Hbond>
1.0000

> <Gold.PLP.Chemscore.CHOScore>
0.0000

> <Gold.PLP.Chemscore.Metal>
0.0000

> <Gold.Chemscore.Hbonds>
donor molecule, donor type, donor heavy atom, donor atom, acceptor molecule, acceptor atom, score
      P1  H 10752 10764       L1    17  1.00

> <Gold.PLP.Chemscore.Internal.Correction>
0.1757

> <Gold.Rescore>
     Score         DG    S(hbond)    S(metal)    S(lipo)     H(rot)  DE(clash)    DE(int)     intcor
     16.46     -19.68       0.99        0.00     142.62       2.26       1.42       1.80       ----

> <Gold.Chemscore.Fitness>
16.4633

> <Gold.Chemscore.DG>
-19.6773

> <Gold.Chemscore.ZeroCoef>
-5.4800

> <Gold.Chemscore.Hbond>
0.9882

> <Gold.Chemscore.Metal>
0.0000

> <Gold.Chemscore.Lipo>
142.6249

> <Gold.Chemscore.Internal_Hbond>
0.0000

> <Gold.Chemscore.DEClash>
1.4179

> <Gold.Chemscore.DEInternal>
1.7960

> <Gold.Chemscore.Rot>
2.2619

> <Gold.Chemscore.Internal.Correction>
   9.000000E+99

> <Gold.Chemscore.Hbonds>
donor molecule, donor type, donor heavy atom, donor atom, acceptor molecule, acceptor atom, score
      P1  H 10752 10764       L1    17  0.96

> <Gold.Chemscore.Hbond.Weighted>
-3.3007

> <Gold.Chemscore.Metal.Weighted>
-0.0000

> <Gold.Chemscore.Lipo.Weighted>
-16.6871

> <Gold.Chemscore.Internal_Hbond.Weighted>
0.0000

> <Gold.Chemscore.DEClash.Weighted>
1.4179

> <Gold.Chemscore.DEInternal.Weighted>
1.7960

> <Gold.Chemscore.Rot.Weighted>
5.7906

> <Gold.Chemscore.Internal.Correction.Weighted>
   9.000000E+99

> <Gold.Protein.RotatedTorsions>
[ 6907 6896 6895 6894 ] final  128.87 input  -60.11 | X-H torsion
[ 7974 7965 7964 7962 ] final  143.39 input  175.53 | X-H torsion
[ 8008 7997 7996 7995 ] final   19.51 input   59.86 | X-H torsion
[ 10167 10162 10161 10158 ] final   -7.62 input  -65.29 | X-H torsion
[ 10718 10713 10712 10709 ] final  -35.92 input   66.30 | X-H torsion
[ 10763 10752 10751 10750 ] final  -73.77 input  -60.55 | X-H torsion
[ 11005 11000 10999 10996 ] final  100.23 input  -57.11 | X-H torsion

> <Gold.Protein.ActiveResidues>
 VAL166  LYS551  ARG553  GLY616  TRP617  ASP618  TYR619  PRO620  LYS621  CYS622 
 ASP623  PHE694  ASN695  SER759  ASP760  ASP761  ALA762  ILE779  LEU786  VAL792 
 PHE793  MET794  SER795  GLU796  ALA797  LYS798  CYS799  TRP800  GLU811  SER814 

> <Gold.Protein.RotatedAtoms>
  152.3678  133.6380  159.6063 H   0  0  0  0  0  0  0  0  0  0  0  0  # atno 6907 bound_to 6896
  150.7647  133.9319  159.3438 H   0  0  0  0  0  0  0  0  0  0  0  0  # atno 6908 bound_to 6896
  151.7146  135.0907  160.0325 H   0  0  0  0  0  0  0  0  0  0  0  0  # atno 6909 bound_to 6896
  144.8925  139.5537  143.5791 H   0  0  0  0  0  0  0  0  0  0  0  0  # atno 7974 bound_to 7965
  154.9218  140.3028  155.5212 H   0  0  0  0  0  0  0  0  0  0  0  0  # atno 8008 bound_to 7997
  156.3009  140.2370  156.4205 H   0  0  0  0  0  0  0  0  0  0  0  0  # atno 8009 bound_to 7997
  154.8323  140.0418  157.1474 H   0  0  0  0  0  0  0  0  0  0  0  0  # atno 8010 bound_to 7997
  140.7034  143.6060  150.8750 H   0  0  0  0  0  0  0  0  0  0  0  0  # atno 10167 bound_to 10162
  156.3329  130.4282  149.7856 H   0  0  0  0  0  0  0  0  0  0  0  0  # atno 10718 bound_to 10713
  154.4640  135.5886  153.6275 H   0  0  0  0  0  0  0  0  0  0  0  0  # atno 10763 bound_to 10752
  152.9826  135.6050  154.3451 H   0  0  0  0  0  0  0  0  0  0  0  0  # atno 10764 bound_to 10752
  154.3325  135.2842  155.2443 H   0  0  0  0  0  0  0  0  0  0  0  0  # atno 10765 bound_to 10752
  139.8771  134.9131  156.4725 H   0  0  0  0  0  0  0  0  0  0  0  0  # atno 11005 bound_to 11000
  146.3062  139.7589  142.9054 LP  0  0  0  0  0  0  0  0  0  0  0  0  # atno 17320 bound_to 7965
  145.3757  141.0350  143.3206 LP  0  0  0  0  0  0  0  0  0  0  0  0  # atno 17321 bound_to 7965
  139.9784  143.5979  152.2951 LP  0  0  0  0  0  0  0  0  0  0  0  0  # atno 17342 bound_to 10162
  139.6591  144.7662  151.1998 LP  0  0  0  0  0  0  0  0  0  0  0  0  # atno 17343 bound_to 10162
  156.5122  130.8177  151.3173 LP  0  0  0  0  0  0  0  0  0  0  0  0  # atno 17370 bound_to 10713
  157.7433  130.9910  150.2586 LP  0  0  0  0  0  0  0  0  0  0  0  0  # atno 17371 bound_to 10713
  140.8785  133.7935  155.9441 LP  0  0  0  0  0  0  0  0  0  0  0  0  # atno 17394 bound_to 11000
  140.8878  134.2532  157.5110 LP  0  0  0  0  0  0  0  0  0  0  0  0  # atno 17395 bound_to 11000

$$$$
