AV-unprocessed.smi:1424|AV-procd|sdf|5799|dock1
  -GOLD-   22720 5453D 1   1.00000     0.00000
 Structure written by MMmdl.
 45 47  0  0  0  0  0  0  0  0  1 V2000
  146.4257  138.7495  154.5904 O   0  0  0  0  0  0  0  0  0  0  0  0
  146.9549  138.0951  153.6924 C   0  0  0  0  0  0  0  0  0  0  0  0
  148.2376  138.2375  153.3293 N   0  0  0  0  0  0  0  0  0  0  0  0
  149.1836  139.1861  153.9100 C   0  0  0  0  0  0  0  0  0  0  0  0
  150.5172  138.5196  154.3013 C   0  0  2  0  0  0  0  0  0  0  0  0
  150.3996  137.5134  155.4665 C   0  0  0  0  0  0  0  0  0  0  0  0
  151.8083  137.1559  155.9506 C   0  0  0  0  0  0  0  0  0  0  0  0
  152.8002  138.6805  155.7469 S   0  0  0  0  0  0  0  0  0  0  0  0
  152.8951  139.3795  157.0374 O   0  0  0  0  0  0  0  0  0  0  0  0
  154.0055  138.3682  154.9642 O   0  0  0  0  0  0  0  0  0  0  0  0
  151.5874  139.5548  154.6859 C   0  0  0  0  0  0  0  0  0  0  0  0
  146.3404  137.1663  152.9405 N   0  0  0  0  0  0  0  0  0  0  0  0
  144.9817  136.7395  152.9864 C   0  0  0  0  0  0  0  0  0  0  0  0
  143.9729  137.4689  153.6624 C   0  0  0  0  0  0  0  0  0  0  0  0
  142.6563  136.9746  153.6721 C   0  0  0  0  0  0  0  0  0  0  0  0
  142.3943  135.7612  153.0131 C   0  0  0  0  0  0  0  0  0  0  0  0
  143.3456  135.0460  152.3799 N   0  0  0  0  0  0  0  0  0  0  0  0
  144.6165  135.5168  152.3604 C   0  0  0  0  0  0  0  0  0  0  0  0
  145.5949  134.7282  151.7204 N   0  0  0  0  0  0  0  0  0  0  0  0
  146.5454  134.1185  152.6459 C   0  0  0  0  0  0  0  0  0  0  0  0
  146.9022  132.7524  152.0581 C   0  0  0  0  0  0  0  0  0  0  0  0
  145.6449  132.3772  151.2842 C   0  0  0  0  0  0  0  0  0  0  0  0
  145.1739  133.7260  150.7418 C   0  0  0  0  0  0  0  0  0  0  0  0
  148.5832  137.6566  152.5795 H   0  0  0  0  0  0  0  0  0  0  0  0
  149.3702  139.9573  153.1620 H   0  0  0  0  0  0  0  0  0  0  0  0
  148.7458  139.6990  154.7684 H   0  0  0  0  0  0  0  0  0  0  0  0
  150.8955  137.9708  153.4372 H   0  0  0  0  0  0  0  0  0  0  0  0
  149.8509  137.9774  156.2873 H   0  0  0  0  0  0  0  0  0  0  0  0
  149.8467  136.6186  155.1799 H   0  0  0  0  0  0  0  0  0  0  0  0
  151.8345  136.8227  156.9883 H   0  0  0  0  0  0  0  0  0  0  0  0
  152.2479  136.3811  155.3222 H   0  0  0  0  0  0  0  0  0  0  0  0
  152.0893  139.9870  153.8201 H   0  0  0  0  0  0  0  0  0  0  0  0
  151.1572  140.3649  155.2758 H   0  0  0  0  0  0  0  0  0  0  0  0
  146.8847  136.7794  152.1834 H   0  0  0  0  0  0  0  0  0  0  0  0
  144.1849  138.3885  154.1852 H   0  0  0  0  0  0  0  0  0  0  0  0
  141.8675  137.5115  154.1778 H   0  0  0  0  0  0  0  0  0  0  0  0
  141.3963  135.3487  153.0007 H   0  0  0  0  0  0  0  0  0  0  0  0
  147.4313  134.7417  152.7693 H   0  0  0  0  0  0  0  0  0  0  0  0
  146.0856  133.9922  153.6280 H   0  0  0  0  0  0  0  0  0  0  0  0
  147.7432  132.8517  151.3700 H   0  0  0  0  0  0  0  0  0  0  0  0
  147.1712  132.0196  152.8192 H   0  0  0  0  0  0  0  0  0  0  0  0
  145.8271  131.6431  150.4989 H   0  0  0  0  0  0  0  0  0  0  0  0
  144.8972  131.9688  151.9657 H   0  0  0  0  0  0  0  0  0  0  0  0
  144.1050  133.7246  150.5276 H   0  0  0  0  0  0  0  0  0  0  0  0
  145.6836  133.9463  149.8031 H   0  0  0  0  0  0  0  0  0  0  0  0
  1  2  2  0  0  0  0
  2  3  1  0  0  0  0
  2 12  1  0  0  0  0
  3  4  1  0  0  0  0
  3 24  1  0  0  0  0
  4  5  1  0  0  0  0
  4 25  1  0  0  0  0
  4 26  1  0  0  0  0
  5 11  1  0  0  0  0
  5  6  1  0  0  0  0
  5 27  1  0  0  0  0
  6  7  1  0  0  0  0
  6 28  1  0  0  0  0
  6 29  1  0  0  0  0
  7  8  1  0  0  0  0
  7 30  1  0  0  0  0
  7 31  1  0  0  0  0
  8  9  2  0  0  0  0
  8 10  2  0  0  0  0
  8 11  1  0  0  0  0
 11 32  1  0  0  0  0
 11 33  1  0  0  0  0
 12 13  1  0  0  0  0
 12 34  1  0  0  0  0
 13 18  1  0  0  0  0
 13 14  2  0  0  0  0
 14 15  1  0  0  0  0
 14 35  1  0  0  0  0
 15 16  2  0  0  0  0
 15 36  1  0  0  0  0
 16 17  1  0  0  0  0
 16 37  1  0  0  0  0
 17 18  2  0  0  0  0
 18 19  1  0  0  0  0
 19 23  1  0  0  0  0
 19 20  1  0  0  0  0
 20 21  1  0  0  0  0
 20 38  1  0  0  0  0
 20 39  1  0  0  0  0
 21 22  1  0  0  0  0
 21 40  1  0  0  0  0
 21 41  1  0  0  0  0
 22 23  1  0  0  0  0
 22 42  1  0  0  0  0
 22 43  1  0  0  0  0
 23 44  1  0  0  0  0
 23 45  1  0  0  0  0
M  END
> <s_m_source_file>
AV-unprocessed.smi

> <i_m_source_file_index>
1424

> <i_lp_mmshare_version>
43012

> <i_f3d_flags>
0

> <s_epik_input>
Tz1TMSg9TylbQ0gyXVtDSDJdW0NASF0oW0NIMl0xKVtDSDJdW05IXUMoPU8pW05IXWMyW2NIXVtjSF1bY0hdbmMyTjNbQ0gyXVtDSDJdW0NIMl1bQ0gyXTM=

> <s_epik_cmdline>
J2VwaWtfcHl0aG9uJywgJy1waCcsICc3LjAnLCAnLXRuJywgJzgnLCAnLW1hJywgJzIwMCcsICctbWV0YWxfYmluZGluZycsICctaW1hZScsICc8aW5maWxlLm1hZT4nLCAnLW9tYWUnLCAnPG91dGZpbGUubWFlPic=

> <r_lp_tautomer_probability>
1

> <r_epik_Ionization_Penalty>
0.0965651

> <r_epik_Ionization_Penalty_Charging>
0

> <r_epik_Ionization_Penalty_Neutral>
0.0965651

> <r_epik_State_Penalty>
0.0861592

> <r_epik_Charging_Adjusted_Penalty>
0.0861592

> <i_epik_Tot_Q>
0

> <i_epik_Tot_abs_Q>
0

> <r_epik_Metal_State_Penalty>
0.0740444

> <b_epik_Metal_Only>
0

> <s_lp_Force_Field>
OPLS_2005

> <r_lp_Energy>
33.9356

> <b_lp_Chiralities_Consistent>
1

> <s_lp_Variant>
AV-unprocessed.smi:1424-1

> <Gold.Version>
5.8.1

> <Gold.Id.Protein>
6NUR|6NUR_protein|mol2

> <Gold.PLP.Fitness>
38.1086

> <Gold.PLP.PLP>
-31.3891

> <Gold.PLP.part.hbond>
-5.2371

> <Gold.PLP.part.metal>
0.0000

> <Gold.PLP.part.buried>
0.6643

> <Gold.PLP.part.nonpolar>
-26.2975

> <Gold.PLP.part.repulsive>
0.4732

> <Gold.PLP.ligand.clash>
0.0000

> <Gold.PLP.ligand.torsion>
0.5110

> <Gold.PLP.Chemscore.Hbond>
2.5288

> <Gold.PLP.Chemscore.CHOScore>
0.0000

> <Gold.PLP.Chemscore.Metal>
0.0000

> <Gold.Chemscore.Hbonds>
donor molecule, donor type, donor heavy atom, donor atom, acceptor molecule, acceptor atom, score
      L1  H     3    24       P1  7948  1.00
      L1  H    12    34       P1  7948  0.54
      P1  H  7997  8009       L1     9  0.98
      P1  H  7997  8010       L1    10  0.11

> <Gold.PLP.Chemscore.Internal.Correction>
0.1550

> <Gold.Rescore>
     Score         DG    S(hbond)    S(metal)    S(lipo)     H(rot)  DE(clash)    DE(int)     intcor
     14.18     -16.24       1.88        0.00      70.43       1.47       0.09       1.96       ----

> <Gold.Chemscore.Fitness>
14.1817

> <Gold.Chemscore.DG>
-16.2350

> <Gold.Chemscore.ZeroCoef>
-5.4800

> <Gold.Chemscore.Hbond>
1.8830

> <Gold.Chemscore.Metal>
0.0000

> <Gold.Chemscore.Lipo>
70.4295

> <Gold.Chemscore.Internal_Hbond>
0.0000

> <Gold.Chemscore.DEClash>
0.0946

> <Gold.Chemscore.DEInternal>
1.9587

> <Gold.Chemscore.Rot>
1.4744

> <Gold.Chemscore.Internal.Correction>
   9.000000E+99

> <Gold.Chemscore.Hbonds>
donor molecule, donor type, donor heavy atom, donor atom, acceptor molecule, acceptor atom, score
      L1  H     3    24       P1  7948  0.98
      L1  H    12    34       P1  7948  0.54
      P1  H  7997  8009       L1     9  0.28
      P1  H  7997  8010       L1    10  0.02

> <Gold.Chemscore.Hbond.Weighted>
-6.2892

> <Gold.Chemscore.Metal.Weighted>
-0.0000

> <Gold.Chemscore.Lipo.Weighted>
-8.2403

> <Gold.Chemscore.Internal_Hbond.Weighted>
0.0000

> <Gold.Chemscore.DEClash.Weighted>
0.0946

> <Gold.Chemscore.DEInternal.Weighted>
1.9587

> <Gold.Chemscore.Rot.Weighted>
3.7744

> <Gold.Chemscore.Internal.Correction.Weighted>
   9.000000E+99

> <Gold.Protein.RotatedTorsions>
[ 6907 6896 6895 6894 ] final   43.00 input  -60.11 | X-H torsion
[ 7974 7965 7964 7962 ] final  -26.73 input  175.53 | X-H torsion
[ 8008 7997 7996 7995 ] final  157.40 input   59.86 | X-H torsion
[ 10167 10162 10161 10158 ] final   -5.74 input  -65.29 | X-H torsion
[ 10718 10713 10712 10709 ] final  170.15 input   66.30 | X-H torsion
[ 10763 10752 10751 10750 ] final -116.17 input  -60.55 | X-H torsion
[ 11005 11000 10999 10996 ] final   13.34 input  -57.11 | X-H torsion

> <Gold.Protein.ActiveResidues>
 VAL166  LYS551  ARG553  GLY616  TRP617  ASP618  TYR619  PRO620  LYS621  CYS622 
 ASP623  PHE694  ASN695  SER759  ASP760  ASP761  ALA762  ILE779  LEU786  VAL792 
 PHE793  MET794  SER795  GLU796  ALA797  LYS798  CYS799  TRP800  GLU811  SER814 

> <Gold.Protein.RotatedAtoms>
  152.2148  134.8468  160.0492 H   0  0  0  0  0  0  0  0  0  0  0  0  # atno 6907 bound_to 6896
  151.9273  133.3596  159.3926 H   0  0  0  0  0  0  0  0  0  0  0  0  # atno 6908 bound_to 6896
  150.6985  134.4499  159.5375 H   0  0  0  0  0  0  0  0  0  0  0  0  # atno 6909 bound_to 6896
  146.1406  140.5058  142.8654 H   0  0  0  0  0  0  0  0  0  0  0  0  # atno 7974 bound_to 7965
  156.2366  140.1886  156.7102 H   0  0  0  0  0  0  0  0  0  0  0  0  # atno 8008 bound_to 7997
  154.6118  140.0621  156.9531 H   0  0  0  0  0  0  0  0  0  0  0  0  # atno 8009 bound_to 7997
  155.2003  140.3291  155.4347 H   0  0  0  0  0  0  0  0  0  0  0  0  # atno 8010 bound_to 7997
  140.6973  143.6274  150.8555 H   0  0  0  0  0  0  0  0  0  0  0  0  # atno 10167 bound_to 10162
  157.0123  131.0208  151.2799 H   0  0  0  0  0  0  0  0  0  0  0  0  # atno 10718 bound_to 10713
  154.8509  135.4355  154.1778 H   0  0  0  0  0  0  0  0  0  0  0  0  # atno 10763 bound_to 10752
  153.2876  135.6959  153.7330 H   0  0  0  0  0  0  0  0  0  0  0  0  # atno 10764 bound_to 10752
  153.6510  135.3451  155.3074 H   0  0  0  0  0  0  0  0  0  0  0  0  # atno 10765 bound_to 10752
  140.4818  134.0927  155.7752 H   0  0  0  0  0  0  0  0  0  0  0  0  # atno 11005 bound_to 11000
  144.7788  140.5796  143.6620 LP  0  0  0  0  0  0  0  0  0  0  0  0  # atno 17320 bound_to 7965
  145.5056  139.1481  143.3633 LP  0  0  0  0  0  0  0  0  0  0  0  0  # atno 17321 bound_to 7965
  139.9993  143.5762  152.2881 LP  0  0  0  0  0  0  0  0  0  0  0  0  # atno 17342 bound_to 10162
  139.6445  144.7657  151.2271 LP  0  0  0  0  0  0  0  0  0  0  0  0  # atno 17343 bound_to 10162
  157.5311  130.8059  149.7918 LP  0  0  0  0  0  0  0  0  0  0  0  0  # atno 17370 bound_to 10713
  156.0131  130.3824  150.2197 LP  0  0  0  0  0  0  0  0  0  0  0  0  # atno 17371 bound_to 10713
  141.1527  133.8939  157.2056 LP  0  0  0  0  0  0  0  0  0  0  0  0  # atno 17394 bound_to 11000
  139.9822  135.0094  156.9776 LP  0  0  0  0  0  0  0  0  0  0  0  0  # atno 17395 bound_to 11000

$$$$
