AV-unprocessed.smi:2954|AV-procd|sdf|11300|dock10
  -GOLD-   2272016193D 1   1.00000     0.00000
 Structure written by MMmdl.
 43 45  0  0  0  0  0  0  0  0  2 V2000
  145.6493  138.1703  154.6719 C   0  0  0  0  0  0  0  0  0  0  0  0
  146.6838  137.0495  154.4943 C   0  0  1  0  0  0  0  0  0  0  0  0
  146.6946  136.6252  153.0979 N   0  0  0  0  0  0  0  0  0  0  0  0
  145.6016  136.3148  152.3913 C   0  0  0  0  0  0  0  0  0  0  0  0
  144.4671  136.3543  152.8601 O   0  0  0  0  0  0  0  0  0  0  0  0
  148.0364  137.5039  154.9634 C   0  0  0  0  0  0  0  0  0  0  0  0
  149.1658  137.5934  154.2023 N   0  3  0  0  0  0  0  0  0  0  0  0
  150.2183  138.0932  154.9688 C   0  0  0  0  0  0  0  0  0  0  0  0
  151.5434  138.3566  154.6357 C   0  0  0  0  0  0  0  0  0  0  0  0
  152.3618  138.8754  155.6606 C   0  0  0  0  0  0  0  0  0  0  0  0
  151.8552  139.1149  156.9546 C   0  0  0  0  0  0  0  0  0  0  0  0
  150.5097  138.8439  157.2795 C   0  0  0  0  0  0  0  0  0  0  0  0
  149.7086  138.3268  156.2618 C   0  0  0  0  0  0  0  0  0  0  0  0
  148.3640  137.9423  156.2153 N   0  0  0  0  0  0  0  0  0  0  0  0
  147.5437  138.0614  157.4312 C   0  0  0  0  0  0  0  0  0  0  0  0
  148.0813  137.2240  158.6026 C   0  0  0  0  0  0  0  0  0  0  0  0
  147.1918  137.3141  159.7080 O   0  0  0  0  0  0  0  0  0  0  0  0
  147.1344  136.2508  160.5845 C   0  0  0  0  0  0  0  0  0  0  0  0
  147.8897  135.0600  160.4296 C   0  0  0  0  0  0  0  0  0  0  0  0
  147.7858  134.0192  161.3723 C   0  0  0  0  0  0  0  0  0  0  0  0
  146.9280  134.1517  162.4792 C   0  0  0  0  0  0  0  0  0  0  0  0
  146.1722  135.3269  162.6410 C   0  0  0  0  0  0  0  0  0  0  0  0
  146.2746  136.3697  161.6993 C   0  0  0  0  0  0  0  0  0  0  0  0
  145.3212  137.7932  161.9122 Cl  0  0  0  0  0  0  0  0  0  0  0  0
  145.5712  138.4770  155.7151 H   0  0  0  0  0  0  0  0  0  0  0  0
  144.6587  137.8450  154.3523 H   0  0  0  0  0  0  0  0  0  0  0  0
  145.9149  139.0521  154.0875 H   0  0  0  0  0  0  0  0  0  0  0  0
  146.3786  136.2051  155.1155 H   0  0  0  0  0  0  0  0  0  0  0  0
  147.5924  136.5576  152.6410 H   0  0  0  0  0  0  0  0  0  0  0  0
  145.8471  136.0219  151.3592 H   0  0  0  0  0  0  0  0  0  0  0  0
  151.9331  138.1768  153.6444 H   0  0  0  0  0  0  0  0  0  0  0  0
  153.3982  139.0956  155.4491 H   0  0  0  0  0  0  0  0  0  0  0  0
  152.5114  139.5155  157.7137 H   0  0  0  0  0  0  0  0  0  0  0  0
  150.1313  139.0336  158.2728 H   0  0  0  0  0  0  0  0  0  0  0  0
  147.4680  139.1150  157.7027 H   0  0  0  0  0  0  0  0  0  0  0  0
  146.5343  137.7331  157.1853 H   0  0  0  0  0  0  0  0  0  0  0  0
  148.1800  136.1816  158.2974 H   0  0  0  0  0  0  0  0  0  0  0  0
  149.0733  137.5858  158.8757 H   0  0  0  0  0  0  0  0  0  0  0  0
  148.5623  134.9217  159.5971 H   0  0  0  0  0  0  0  0  0  0  0  0
  148.3674  133.1177  161.2464 H   0  0  0  0  0  0  0  0  0  0  0  0
  146.8489  133.3530  163.2019 H   0  0  0  0  0  0  0  0  0  0  0  0
  145.5110  135.4272  163.4892 H   0  0  0  0  0  0  0  0  0  0  0  0
  149.2079  137.3299  153.2261 H   0  0  0  0  0  0  0  0  0  0  0  0
  1  2  1  0  0  0  0
  1 25  1  0  0  0  0
  1 26  1  0  0  0  0
  1 27  1  0  0  0  0
  2  3  1  0  0  0  0
  2  6  1  0  0  0  0
  2 28  1  0  0  0  0
  3  4  1  0  0  0  0
  3 29  1  0  0  0  0
  4  5  2  0  0  0  0
  4 30  1  0  0  0  0
  6 14  1  0  0  0  0
  6  7  2  0  0  0  0
  7  8  1  0  0  0  0
  7 43  1  0  0  0  0
  8 13  2  0  0  0  0
  8  9  1  0  0  0  0
  9 10  2  0  0  0  0
  9 31  1  0  0  0  0
 10 11  1  0  0  0  0
 10 32  1  0  0  0  0
 11 12  2  0  0  0  0
 11 33  1  0  0  0  0
 12 13  1  0  0  0  0
 12 34  1  0  0  0  0
 13 14  1  0  0  0  0
 14 15  1  0  0  0  0
 15 16  1  0  0  0  0
 15 35  1  0  0  0  0
 15 36  1  0  0  0  0
 16 17  1  0  0  0  0
 16 37  1  0  0  0  0
 16 38  1  0  0  0  0
 17 18  1  0  0  0  0
 18 23  1  0  0  0  0
 18 19  2  0  0  0  0
 19 20  1  0  0  0  0
 19 39  1  0  0  0  0
 20 21  2  0  0  0  0
 20 40  1  0  0  0  0
 21 22  1  0  0  0  0
 21 41  1  0  0  0  0
 22 23  2  0  0  0  0
 22 42  1  0  0  0  0
 23 24  1  0  0  0  0
M  CHG  1   7   1
M  END
> <s_m_source_file>
AV-unprocessed.smi

> <i_m_source_file_index>
2954

> <i_lp_mmshare_version>
43012

> <i_f3d_flags>
0

> <s_epik_input>
Tz1bQ0hdW05IXVtDQEBIXShbQ0gzXSljKG4xKW4oYyhjMTIpW2NIXVtjSF1bY0hdW2NIXTIpW0NIMl1bQ0gyXU9jM1tjSF1bY0hdW2NIXVtjSF1jM0Ns

> <s_epik_cmdline>
J2VwaWtfcHl0aG9uJywgJy1waCcsICc3LjAnLCAnLXRuJywgJzgnLCAnLW1hJywgJzIwMCcsICctbWV0YWxfYmluZGluZycsICctaW1hZScsICc8aW5maWxlLm1hZT4nLCAnLW9tYWUnLCAnPG91dGZpbGUubWFlPic=

> <r_lp_tautomer_probability>
1

> <r_epik_Ionization_Penalty>
1.18508

> <r_epik_Ionization_Penalty_Charging>
1.18508

> <r_epik_Ionization_Penalty_Neutral>
5.5802e-08

> <r_epik_State_Penalty>
1.24934

> <r_epik_Charging_Adjusted_Penalty>
2.43443

> <i_epik_Tot_Q>
1

> <i_epik_Tot_abs_Q>
1

> <r_epik_Metal_State_Penalty>
1.32564

> <b_epik_Metal_Only>
0

> <s_lp_Force_Field>
OPLS_2005

> <r_lp_Energy>
18.4095

> <b_lp_Chiralities_Consistent>
1

> <s_lp_Variant>
AV-unprocessed.smi:2954-4

> <Gold.Version>
5.8.1

> <Gold.Id.Protein>
6NUR|6NUR_protein|mol2

> <Gold.PLP.Fitness>
44.6302

> <Gold.PLP.PLP>
-33.2859

> <Gold.PLP.part.hbond>
-3.0000

> <Gold.PLP.part.metal>
0.0000

> <Gold.PLP.part.buried>
-5.6039

> <Gold.PLP.part.nonpolar>
-24.9806

> <Gold.PLP.part.repulsive>
0.1344

> <Gold.PLP.ligand.clash>
0.0000

> <Gold.PLP.ligand.torsion>
0.2653

> <Gold.PLP.Chemscore.Hbond>
3.9440

> <Gold.PLP.Chemscore.CHOScore>
0.0000

> <Gold.PLP.Chemscore.Metal>
0.0000

> <Gold.Chemscore.Hbonds>
donor molecule, donor type, donor heavy atom, donor atom, acceptor molecule, acceptor atom, score
      L1  H     3    29       P1  7948  1.00
      L1  H     7    43       P1  7948  2.00
      P1  H  6934  6947       L1    17  0.83

> <Gold.PLP.Chemscore.Internal.Correction>
0.0429

> <Gold.Rescore>
     Score         DG    S(hbond)    S(metal)    S(lipo)     H(rot)  DE(clash)    DE(int)     intcor
     17.05     -18.86       2.76        0.00      86.92       2.35       0.03       1.79       ----

> <Gold.Chemscore.Fitness>
17.0463

> <Gold.Chemscore.DG>
-18.8627

> <Gold.Chemscore.ZeroCoef>
-5.4800

> <Gold.Chemscore.Hbond>
2.7606

> <Gold.Chemscore.Metal>
0.0000

> <Gold.Chemscore.Lipo>
86.9230

> <Gold.Chemscore.Internal_Hbond>
0.0000

> <Gold.Chemscore.DEClash>
0.0259

> <Gold.Chemscore.DEInternal>
1.7906

> <Gold.Chemscore.Rot>
2.3467

> <Gold.Chemscore.Internal.Correction>
   9.000000E+99

> <Gold.Chemscore.Hbonds>
donor molecule, donor type, donor heavy atom, donor atom, acceptor molecule, acceptor atom, score
      L1  H     3    29       P1  7948  0.98
      L1  H     7    43       P1  7948  0.97
      P1  H  6934  6947       L1    17  0.42

> <Gold.Chemscore.Hbond.Weighted>
-9.2204

> <Gold.Chemscore.Metal.Weighted>
-0.0000

> <Gold.Chemscore.Lipo.Weighted>
-10.1700

> <Gold.Chemscore.Internal_Hbond.Weighted>
0.0000

> <Gold.Chemscore.DEClash.Weighted>
0.0259

> <Gold.Chemscore.DEInternal.Weighted>
1.7906

> <Gold.Chemscore.Rot.Weighted>
6.0077

> <Gold.Chemscore.Internal.Correction.Weighted>
   9.000000E+99

> <Gold.Protein.RotatedTorsions>
[ 6907 6896 6895 6894 ] final   14.98 input  -60.11 | X-H torsion
[ 7974 7965 7964 7962 ] final  144.36 input  175.53 | X-H torsion
[ 8008 7997 7996 7995 ] final -105.98 input   59.86 | X-H torsion
[ 10167 10162 10161 10158 ] final  158.08 input  -65.29 | X-H torsion
[ 10718 10713 10712 10709 ] final  144.96 input   66.30 | X-H torsion
[ 10763 10752 10751 10750 ] final   51.53 input  -60.55 | X-H torsion
[ 11005 11000 10999 10996 ] final   53.09 input  -57.11 | X-H torsion

> <Gold.Protein.ActiveResidues>
 VAL166  LYS551  ARG553  GLY616  TRP617  ASP618  TYR619  PRO620  LYS621  CYS622 
 ASP623  PHE694  ASN695  SER759  ASP760  ASP761  ALA762  ILE779  LEU786  VAL792 
 PHE793  MET794  SER795  GLU796  ALA797  LYS798  CYS799  TRP800  GLU811  SER814 

> <Gold.Protein.RotatedAtoms>
  151.8108  135.0681  160.0412 H   0  0  0  0  0  0  0  0  0  0  0  0  # atno 6907 bound_to 6896
  152.3021  133.5662  159.5634 H   0  0  0  0  0  0  0  0  0  0  0  0  # atno 6908 bound_to 6896
  150.7279  134.0191  159.3737 H   0  0  0  0  0  0  0  0  0  0  0  0  # atno 6909 bound_to 6896
  144.8842  139.5653  143.5828 H   0  0  0  0  0  0  0  0  0  0  0  0  # atno 7974 bound_to 7965
  154.9078  140.0411  157.1929 H   0  0  0  0  0  0  0  0  0  0  0  0  # atno 8008 bound_to 7997
  154.8379  140.2909  155.5658 H   0  0  0  0  0  0  0  0  0  0  0  0  # atno 8009 bound_to 7997
  156.2990  140.2488  156.3316 H   0  0  0  0  0  0  0  0  0  0  0  0  # atno 8010 bound_to 7997
  139.4825  144.4858  151.8380 H   0  0  0  0  0  0  0  0  0  0  0  0  # atno 10167 bound_to 10162
  157.3510  131.0950  151.1000 H   0  0  0  0  0  0  0  0  0  0  0  0  # atno 10718 bound_to 10713
  152.9785  135.5843  154.4430 H   0  0  0  0  0  0  0  0  0  0  0  0  # atno 10763 bound_to 10752
  154.4029  135.2769  155.2087 H   0  0  0  0  0  0  0  0  0  0  0  0  # atno 10764 bound_to 10752
  154.3910  135.6125  153.5897 H   0  0  0  0  0  0  0  0  0  0  0  0  # atno 10765 bound_to 10752
  140.0795  134.5358  155.8961 H   0  0  0  0  0  0  0  0  0  0  0  0  # atno 11005 bound_to 11000
  146.3014  139.7438  142.9088 LP  0  0  0  0  0  0  0  0  0  0  0  0  # atno 17320 bound_to 7965
  145.3899  141.0371  143.3130 LP  0  0  0  0  0  0  0  0  0  0  0  0  # atno 17321 bound_to 7965
  140.4337  144.2080  150.5888 LP  0  0  0  0  0  0  0  0  0  0  0  0  # atno 17342 bound_to 10162
  140.4753  143.2398  151.9032 LP  0  0  0  0  0  0  0  0  0  0  0  0  # atno 17343 bound_to 10162
  157.2176  130.6466  149.5798 LP  0  0  0  0  0  0  0  0  0  0  0  0  # atno 17370 bound_to 10713
  155.9721  130.4640  150.6201 LP  0  0  0  0  0  0  0  0  0  0  0  0  # atno 17371 bound_to 10713
  141.2041  133.6637  156.6104 LP  0  0  0  0  0  0  0  0  0  0  0  0  # atno 17394 bound_to 11000
  140.3508  134.7770  157.4466 LP  0  0  0  0  0  0  0  0  0  0  0  0  # atno 17395 bound_to 11000

$$$$
