AV-unprocessed.smi:1554|AV-procd|sdf|6257|dock4
  -GOLD-   22720 6443D 1   1.00000     0.00000
 Structure written by MMmdl.
 49 51  0  0  0  0  0  0  0  0  3 V2000
  152.6774  143.3832  161.3042 C   0  0  0  0  0  0  0  0  0  0  0  0
  152.1824  142.9029  159.9506 C   0  0  0  0  0  0  0  0  0  0  0  0
  151.9812  141.5176  159.7585 C   0  0  0  0  0  0  0  0  0  0  0  0
  151.5251  141.1098  158.5105 C   0  0  0  0  0  0  0  0  0  0  0  0
  151.2330  139.8373  158.0162 N   0  3  0  0  0  0  0  0  0  0  0  0
  150.8105  139.9368  156.7256 C   0  0  0  0  0  0  0  0  0  0  0  0
  150.8283  141.2551  156.3872 N   0  0  0  0  0  0  0  0  0  0  0  0
  150.4673  141.9009  155.1162 C   0  0  0  0  0  0  0  0  0  0  0  0
  149.2302  141.2654  154.4504 C   0  0  1  0  0  0  0  0  0  0  0  0
  149.5476  139.9622  153.9996 O   0  0  0  0  0  0  0  0  0  0  0  0
  148.0391  141.1753  155.4255 C   0  0  0  0  0  0  0  0  0  0  0  0
  147.1039  142.3225  155.2961 N   0  3  1  0  0  0  0  0  0  0  0  0
  146.4206  142.3514  153.9813 C   0  0  0  0  0  0  0  0  0  0  0  0
  145.5138  143.5882  153.8739 C   0  0  0  0  0  0  0  0  0  0  0  0
  144.5788  143.5872  154.9454 O   0  0  0  0  0  0  0  0  0  0  0  0
  145.2151  143.6518  156.2170 C   0  0  1  0  0  0  0  0  0  0  0  0
  144.1274  143.7389  157.2933 C   0  0  0  0  0  0  0  0  0  0  0  0
  146.1110  142.4104  156.3957 C   0  0  0  0  0  0  0  0  0  0  0  0
  151.2705  142.0252  157.4705 C   0  0  0  0  0  0  0  0  0  0  0  0
  151.4658  143.3938  157.6434 C   0  0  0  0  0  0  0  0  0  0  0  0
  151.9289  143.8290  158.9057 C   0  0  0  0  0  0  0  0  0  0  0  0
  152.1493  145.3165  159.1230 C   0  0  0  0  0  0  0  0  0  0  0  0
  152.8066  142.5531  161.9995 H   0  0  0  0  0  0  0  0  0  0  0  0
  151.9658  144.0804  161.7474 H   0  0  0  0  0  0  0  0  0  0  0  0
  153.6393  143.8862  161.2035 H   0  0  0  0  0  0  0  0  0  0  0  0
  152.1727  140.8068  160.5492 H   0  0  0  0  0  0  0  0  0  0  0  0
  150.5154  139.1170  156.0867 H   0  0  0  0  0  0  0  0  0  0  0  0
  150.3283  142.9698  155.2795 H   0  0  0  0  0  0  0  0  0  0  0  0
  151.3305  141.8051  154.4563 H   0  0  0  0  0  0  0  0  0  0  0  0
  148.9640  141.8663  153.5814 H   0  0  0  0  0  0  0  0  0  0  0  0
  149.6850  139.9896  153.0649 H   0  0  0  0  0  0  0  0  0  0  0  0
  147.5053  140.2429  155.2335 H   0  0  0  0  0  0  0  0  0  0  0  0
  148.3907  141.1149  156.4567 H   0  0  0  0  0  0  0  0  0  0  0  0
  147.1587  142.3697  153.1785 H   0  0  0  0  0  0  0  0  0  0  0  0
  145.8303  141.4423  153.8554 H   0  0  0  0  0  0  0  0  0  0  0  0
  146.1026  144.5068  153.8880 H   0  0  0  0  0  0  0  0  0  0  0  0
  144.9694  143.5741  152.9296 H   0  0  0  0  0  0  0  0  0  0  0  0
  145.8250  144.5556  156.2670 H   0  0  0  0  0  0  0  0  0  0  0  0
  144.5650  143.8061  158.2898 H   0  0  0  0  0  0  0  0  0  0  0  0
  143.4775  142.8635  157.2711 H   0  0  0  0  0  0  0  0  0  0  0  0
  143.5030  144.6204  157.1456 H   0  0  0  0  0  0  0  0  0  0  0  0
  145.5002  141.5060  156.4082 H   0  0  0  0  0  0  0  0  0  0  0  0
  146.6157  142.4668  157.3594 H   0  0  0  0  0  0  0  0  0  0  0  0
  151.2708  144.1018  156.8522 H   0  0  0  0  0  0  0  0  0  0  0  0
  151.9437  145.8871  158.2167 H   0  0  0  0  0  0  0  0  0  0  0  0
  153.1819  145.5138  159.4119 H   0  0  0  0  0  0  0  0  0  0  0  0
  151.4916  145.6895  159.9084 H   0  0  0  0  0  0  0  0  0  0  0  0
  147.6695  143.1586  155.3391 H   0  0  0  0  0  0  0  0  0  0  0  0
  151.3154  138.9635  158.5205 H   0  0  0  0  0  0  0  0  0  0  0  0
  1  2  1  0  0  0  0
  1 23  1  0  0  0  0
  1 24  1  0  0  0  0
  1 25  1  0  0  0  0
  2 21  1  0  0  0  0
  2  3  2  0  0  0  0
  3  4  1  0  0  0  0
  3 26  1  0  0  0  0
  4 19  2  0  0  0  0
  4  5  1  0  0  0  0
  5  6  2  0  0  0  0
  5 49  1  0  0  0  0
  6  7  1  0  0  0  0
  6 27  1  0  0  0  0
  7  8  1  0  0  0  0
  7 19  1  0  0  0  0
  8  9  1  0  0  0  0
  8 28  1  0  0  0  0
  8 29  1  0  0  0  0
  9 10  1  0  0  0  0
  9 11  1  0  0  0  0
  9 30  1  0  0  0  0
 10 31  1  0  0  0  0
 11 12  1  0  0  0  0
 11 32  1  0  0  0  0
 11 33  1  0  0  0  0
 12 18  1  0  0  0  0
 12 13  1  0  0  0  0
 12 48  1  0  0  0  0
 13 14  1  0  0  0  0
 13 34  1  0  0  0  0
 13 35  1  0  0  0  0
 14 15  1  0  0  0  0
 14 36  1  0  0  0  0
 14 37  1  0  0  0  0
 15 16  1  0  0  0  0
 16 17  1  0  0  0  0
 16 18  1  0  0  0  0
 16 38  1  0  0  0  0
 17 39  1  0  0  0  0
 17 40  1  0  0  0  0
 17 41  1  0  0  0  0
 18 42  1  0  0  0  0
 18 43  1  0  0  0  0
 19 20  1  0  0  0  0
 20 21  2  0  0  0  0
 20 44  1  0  0  0  0
 21 22  1  0  0  0  0
 22 45  1  0  0  0  0
 22 46  1  0  0  0  0
 22 47  1  0  0  0  0
M  CHG  1   5   1
M  CHG  1  12   1
M  END
> <s_m_source_file>
AV-unprocessed.smi

> <i_m_source_file_index>
1554

> <i_lp_mmshare_version>
43012

> <i_f3d_flags>
0

> <s_epik_input>
W0NIM11jKFtjSF0xKWMoW0NIM10pW2NIXWMoYzEyKW4oW2NIXW4yKVtDSDJdW0NASF0oW09IXSlbQ0gyXU4zW0NIMl1bQ0gyXU9bQ0BASF0oW0NIM10pW0NIMl0z

> <s_epik_cmdline>
J2VwaWtfcHl0aG9uJywgJy1waCcsICc3LjAnLCAnLXRuJywgJzgnLCAnLW1hJywgJzIwMCcsICctbWV0YWxfYmluZGluZycsICctaW1hZScsICc8aW5maWxlLm1hZT4nLCAnLW9tYWUnLCAnPG91dGZpbGUubWFlPic=

> <r_epik_Ionization_Penalty>
1.8848

> <r_epik_Ionization_Penalty_Charging>
1.88479

> <r_epik_Ionization_Penalty_Neutral>
1.42224e-05

> <r_epik_State_Penalty>
1.94551

> <r_epik_Charging_Adjusted_Penalty>
3.8303

> <i_epik_Tot_Q>
2

> <i_epik_Tot_abs_Q>
2

> <r_epik_Metal_State_Penalty>
5.95849

> <b_epik_Metal_Only>
0

> <s_lp_Force_Field>
OPLS_2005

> <r_lp_Energy>
30.3036

> <b_lp_Chiralities_Consistent>
1

> <s_lp_Variant>
AV-unprocessed.smi:1554-18

> <Gold.Version>
5.8.1

> <Gold.Id.Protein>
6NUR|6NUR_protein|mol2

> <Gold.PLP.Fitness>
51.2212

> <Gold.PLP.PLP>
-43.8945

> <Gold.PLP.part.hbond>
-2.7072

> <Gold.PLP.part.metal>
0.0000

> <Gold.PLP.part.buried>
-3.8618

> <Gold.PLP.part.nonpolar>
-37.5774

> <Gold.PLP.part.repulsive>
0.3047

> <Gold.PLP.ligand.clash>
0.0000

> <Gold.PLP.ligand.torsion>
0.8634

> <Gold.PLP.Chemscore.Hbond>
3.0000

> <Gold.PLP.Chemscore.CHOScore>
0.0000

> <Gold.PLP.Chemscore.Metal>
0.0000

> <Gold.Chemscore.Hbonds>
donor molecule, donor type, donor heavy atom, donor atom, acceptor molecule, acceptor atom, score
      L1  H    10    31       P1  7957  1.00
      L1  H    12    48       P1  8028  2.00

> <Gold.PLP.Chemscore.Internal.Correction>
0.0535

> <Gold.Rescore>
     Score         DG    S(hbond)    S(metal)    S(lipo)     H(rot)  DE(clash)    DE(int)     intcor
     16.55     -20.50       1.67        0.00     126.86       2.11       2.94       1.01       ----

> <Gold.Chemscore.Fitness>
16.5531

> <Gold.Chemscore.DG>
-20.5000

> <Gold.Chemscore.ZeroCoef>
-5.4800

> <Gold.Chemscore.Hbond>
1.6719

> <Gold.Chemscore.Metal>
0.0000

> <Gold.Chemscore.Lipo>
126.8632

> <Gold.Chemscore.Internal_Hbond>
0.0000

> <Gold.Chemscore.DEClash>
2.9408

> <Gold.Chemscore.DEInternal>
1.0060

> <Gold.Chemscore.Rot>
2.1122

> <Gold.Chemscore.Internal.Correction>
   9.000000E+99

> <Gold.Chemscore.Hbonds>
donor molecule, donor type, donor heavy atom, donor atom, acceptor molecule, acceptor atom, score
      L1  H    10    31       P1  7957  1.00
      L1  H    12    48       P1  8028  0.39

> <Gold.Chemscore.Hbond.Weighted>
-5.5842

> <Gold.Chemscore.Metal.Weighted>
-0.0000

> <Gold.Chemscore.Lipo.Weighted>
-14.8430

> <Gold.Chemscore.Internal_Hbond.Weighted>
0.0000

> <Gold.Chemscore.DEClash.Weighted>
2.9408

> <Gold.Chemscore.DEInternal.Weighted>
1.0060

> <Gold.Chemscore.Rot.Weighted>
5.4073

> <Gold.Chemscore.Internal.Correction.Weighted>
   9.000000E+99

> <Gold.Protein.RotatedTorsions>
[ 6907 6896 6895 6894 ] final -139.51 input  -60.11 | X-H torsion
[ 7974 7965 7964 7962 ] final  141.60 input  175.53 | X-H torsion
[ 8008 7997 7996 7995 ] final   35.69 input   59.86 | X-H torsion
[ 10167 10162 10161 10158 ] final   95.07 input  -65.29 | X-H torsion
[ 10718 10713 10712 10709 ] final  -16.12 input   66.30 | X-H torsion
[ 10763 10752 10751 10750 ] final  118.52 input  -60.55 | X-H torsion
[ 11005 11000 10999 10996 ] final -131.97 input  -57.11 | X-H torsion

> <Gold.Protein.ActiveResidues>
 VAL166  LYS551  ARG553  GLY616  TRP617  ASP618  TYR619  PRO620  LYS621  CYS622 
 ASP623  PHE694  ASN695  SER759  ASP760  ASP761  ALA762  ILE779  LEU786  VAL792 
 PHE793  MET794  SER795  GLU796  ALA797  LYS798  CYS799  TRP800  GLU811  SER814 

> <Gold.Protein.RotatedAtoms>
  151.0487  133.5643  159.2644 H   0  0  0  0  0  0  0  0  0  0  0  0  # atno 6907 bound_to 6896
  151.2661  135.0669  159.9126 H   0  0  0  0  0  0  0  0  0  0  0  0  # atno 6908 bound_to 6896
  152.5378  134.0225  159.8042 H   0  0  0  0  0  0  0  0  0  0  0  0  # atno 6909 bound_to 6896
  144.9082  139.5329  143.5721 H   0  0  0  0  0  0  0  0  0  0  0  0  # atno 7974 bound_to 7965
  155.1751  140.3295  155.4385 H   0  0  0  0  0  0  0  0  0  0  0  0  # atno 8008 bound_to 7997
  156.2496  140.1936  156.6803 H   0  0  0  0  0  0  0  0  0  0  0  0  # atno 8009 bound_to 7997
  154.6310  140.0582  156.9718 H   0  0  0  0  0  0  0  0  0  0  0  0  # atno 8010 bound_to 7997
  139.8024  144.6808  150.9748 H   0  0  0  0  0  0  0  0  0  0  0  0  # atno 10167 bound_to 10162
  156.5921  130.4801  149.6275 H   0  0  0  0  0  0  0  0  0  0  0  0  # atno 10718 bound_to 10713
  153.5689  135.3506  155.2829 H   0  0  0  0  0  0  0  0  0  0  0  0  # atno 10763 bound_to 10752
  154.8685  135.4154  154.2748 H   0  0  0  0  0  0  0  0  0  0  0  0  # atno 10764 bound_to 10752
  153.3509  135.7055  153.6859 H   0  0  0  0  0  0  0  0  0  0  0  0  # atno 10765 bound_to 10752
  140.9212  134.1442  157.4313 H   0  0  0  0  0  0  0  0  0  0  0  0  # atno 11005 bound_to 11000
  146.3144  139.7866  142.8994 LP  0  0  0  0  0  0  0  0  0  0  0  0  # atno 17320 bound_to 7965
  145.3500  141.0305  143.3344 LP  0  0  0  0  0  0  0  0  0  0  0  0  # atno 17321 bound_to 7965
  140.7820  143.4268  151.0755 LP  0  0  0  0  0  0  0  0  0  0  0  0  # atno 17342 bound_to 10162
  139.7940  143.8179  152.3155 LP  0  0  0  0  0  0  0  0  0  0  0  0  # atno 17343 bound_to 10162
  156.2541  130.6924  151.1671 LP  0  0  0  0  0  0  0  0  0  0  0  0  # atno 17370 bound_to 10713
  157.7301  131.0619  150.5742 LP  0  0  0  0  0  0  0  0  0  0  0  0  # atno 17371 bound_to 10713
  139.8776  134.9972  156.5833 LP  0  0  0  0  0  0  0  0  0  0  0  0  # atno 17394 bound_to 11000
  140.7986  133.8524  155.8707 LP  0  0  0  0  0  0  0  0  0  0  0  0  # atno 17395 bound_to 11000

$$$$
