AV-unprocessed.smi:151|AV-procd|sdf|1245|dock1
  -GOLD-   2262018463D 1   1.00000     0.00000
 Structure written by MMmdl.
 56 59  0  0  0  0  0  0  0  0  1 V2000
  146.8996  136.5283  156.3809 C   0  0  0  0  0  0  0  0  0  0  0  0
  145.5969  136.5342  157.1926 C   0  0  0  0  0  0  0  0  0  0  0  0
  144.8693  137.9045  157.2201 C   0  0  1  0  0  0  0  0  0  0  0  0
  145.7027  138.9599  157.9816 C   0  0  0  0  0  0  0  0  0  0  0  0
  145.0735  140.2385  157.9530 O   0  0  0  0  0  0  0  0  0  0  0  0
  144.8065  140.7592  156.6498 C   0  0  0  0  0  0  0  0  0  0  0  0
  144.0015  142.0477  156.8795 C   0  0  0  0  0  0  0  0  0  0  0  0
  146.1118  141.1012  155.8998 C   0  0  0  0  0  0  0  0  0  0  0  0
  143.9480  139.7327  155.8840 C   0  0  0  0  0  0  0  0  0  0  0  0
  144.5767  138.4152  155.8757 N   0  0  0  0  0  0  0  0  0  0  0  0
  143.9289  137.5588  155.0539 C   0  0  0  0  0  0  0  0  0  0  0  0
  142.6867  137.1114  155.3763 N   0  0  0  0  0  0  0  0  0  0  0  0
  142.0617  136.2482  154.5702 C   0  0  0  0  0  0  0  0  0  0  0  0
  142.4914  135.7138  153.4250 N   0  0  0  0  0  0  0  0  0  0  0  0
  143.7405  136.1601  153.1025 C   0  0  0  0  0  0  0  0  0  0  0  0
  144.5211  137.0800  153.8565 C   0  0  0  0  0  0  0  0  0  0  0  0
  145.7390  137.3031  153.2291 N   0  0  0  0  0  0  0  0  0  0  0  0
  145.6838  136.5545  152.1610 C   0  0  0  0  0  0  0  0  0  0  0  0
  144.5218  135.8304  152.0060 N   0  0  0  0  0  0  0  0  0  0  0  0
  144.2116  134.9332  150.9280 C   0  0  0  0  0  0  0  0  0  0  0  0
  143.7806  133.4906  151.2006 C   0  0  0  0  0  0  0  0  0  0  0  0
  144.5876  133.0022  149.9764 C   0  0  0  0  0  0  0  0  0  0  0  0
  145.4983  131.7936  150.2412 C   0  0  0  0  0  0  0  0  0  0  0  0
  146.5770  131.7520  149.3291 O   0  0  0  0  0  0  0  0  0  0  0  0
  143.7936  132.7028  148.6863 C   0  0  0  0  0  0  0  0  0  0  0  0
  143.1877  133.8526  148.1303 O   0  0  0  0  0  0  0  0  0  0  0  0
  145.3113  134.3673  150.0255 C   0  0  0  0  0  0  0  0  0  0  0  0
  147.4115  135.5714  156.4849 H   0  0  0  0  0  0  0  0  0  0  0  0
  147.5809  137.3066  156.7251 H   0  0  0  0  0  0  0  0  0  0  0  0
  146.7170  136.6820  155.3178 H   0  0  0  0  0  0  0  0  0  0  0  0
  144.9246  135.7665  156.8076 H   0  0  0  0  0  0  0  0  0  0  0  0
  145.8571  136.2251  158.2050 H   0  0  0  0  0  0  0  0  0  0  0  0
  143.9180  137.7814  157.7403 H   0  0  0  0  0  0  0  0  0  0  0  0
  145.8064  138.6789  159.0289 H   0  0  0  0  0  0  0  0  0  0  0  0
  146.7146  139.0245  157.5811 H   0  0  0  0  0  0  0  0  0  0  0  0
  143.7235  142.5160  155.9348 H   0  0  0  0  0  0  0  0  0  0  0  0
  144.5767  142.7749  157.4537 H   0  0  0  0  0  0  0  0  0  0  0  0
  143.0830  141.8472  157.4322 H   0  0  0  0  0  0  0  0  0  0  0  0
  145.8977  141.6038  154.9562 H   0  0  0  0  0  0  0  0  0  0  0  0
  146.6993  140.2155  155.6592 H   0  0  0  0  0  0  0  0  0  0  0  0
  146.7420  141.7657  156.4915 H   0  0  0  0  0  0  0  0  0  0  0  0
  142.9670  139.6544  156.3555 H   0  0  0  0  0  0  0  0  0  0  0  0
  143.7806  140.0741  154.8610 H   0  0  0  0  0  0  0  0  0  0  0  0
  141.0779  135.9378  154.8900 H   0  0  0  0  0  0  0  0  0  0  0  0
  146.4988  136.5094  151.4531 H   0  0  0  0  0  0  0  0  0  0  0  0
  143.4568  135.4331  150.3192 H   0  0  0  0  0  0  0  0  0  0  0  0
  144.1686  133.1046  152.1441 H   0  0  0  0  0  0  0  0  0  0  0  0
  142.7049  133.3265  151.1304 H   0  0  0  0  0  0  0  0  0  0  0  0
  145.8947  131.8110  151.2570 H   0  0  0  0  0  0  0  0  0  0  0  0
  144.9442  130.8594  150.1420 H   0  0  0  0  0  0  0  0  0  0  0  0
  147.3224  131.3671  149.7646 H   0  0  0  0  0  0  0  0  0  0  0  0
  144.4435  132.2693  147.9253 H   0  0  0  0  0  0  0  0  0  0  0  0
  143.0026  131.9757  148.8719 H   0  0  0  0  0  0  0  0  0  0  0  0
  142.5807  134.2067  148.7623 H   0  0  0  0  0  0  0  0  0  0  0  0
  145.3997  134.8728  149.0632 H   0  0  0  0  0  0  0  0  0  0  0  0
  146.2820  134.3178  150.5199 H   0  0  0  0  0  0  0  0  0  0  0  0
  1  2  1  0  0  0  0
  1 28  1  0  0  0  0
  1 29  1  0  0  0  0
  1 30  1  0  0  0  0
  2  3  1  0  0  0  0
  2 31  1  0  0  0  0
  2 32  1  0  0  0  0
  3 10  1  0  0  0  0
  3  4  1  0  0  0  0
  3 33  1  0  0  0  0
  4  5  1  0  0  0  0
  4 34  1  0  0  0  0
  4 35  1  0  0  0  0
  5  6  1  0  0  0  0
  6  7  1  0  0  0  0
  6  8  1  0  0  0  0
  6  9  1  0  0  0  0
  7 36  1  0  0  0  0
  7 37  1  0  0  0  0
  7 38  1  0  0  0  0
  8 39  1  0  0  0  0
  8 40  1  0  0  0  0
  8 41  1  0  0  0  0
  9 10  1  0  0  0  0
  9 42  1  0  0  0  0
  9 43  1  0  0  0  0
 10 11  1  0  0  0  0
 11 16  1  0  0  0  0
 11 12  2  0  0  0  0
 12 13  1  0  0  0  0
 13 14  2  0  0  0  0
 13 44  1  0  0  0  0
 14 15  1  0  0  0  0
 15 19  1  0  0  0  0
 15 16  2  0  0  0  0
 16 17  1  0  0  0  0
 17 18  2  0  0  0  0
 18 19  1  0  0  0  0
 18 45  1  0  0  0  0
 19 20  1  0  0  0  0
 20 27  1  0  0  0  0
 20 21  1  0  0  0  0
 20 46  1  0  0  0  0
 21 22  1  0  0  0  0
 21 47  1  0  0  0  0
 21 48  1  0  0  0  0
 22 23  1  0  0  0  0
 22 25  1  0  0  0  0
 22 27  1  0  0  0  0
 23 24  1  0  0  0  0
 23 49  1  0  0  0  0
 23 50  1  0  0  0  0
 24 51  1  0  0  0  0
 25 26  1  0  0  0  0
 25 52  1  0  0  0  0
 25 53  1  0  0  0  0
 26 54  1  0  0  0  0
 27 55  1  0  0  0  0
 27 56  1  0  0  0  0
M  END
> <s_m_source_file>
AV-unprocessed.smi

> <i_m_source_file_index>
151

> <i_lp_mmshare_version>
43012

> <i_f3d_flags>
0

> <s_epik_input>
W0NIM11DMShbQ0gzXSlPW0NIMl1bQ0BASF0oW0NIMl1bQ0gzXSlOKFtDSDJdMSljKG5bY0hdbjIpYyhjMjMpbltjSF1uM1tDSF0oW0NIMl00KVtDSDJdQzQoW0NIMl1bT0hdKVtDSDJdW09IXQ==

> <s_epik_cmdline>
J2VwaWtfcHl0aG9uJywgJy1waCcsICc3LjAnLCAnLXRuJywgJzgnLCAnLW1hJywgJzIwMCcsICctbWV0YWxfYmluZGluZycsICctaW1hZScsICc8aW5maWxlLm1hZT4nLCAnLW9tYWUnLCAnPG91dGZpbGUubWFlPic=

> <r_lp_tautomer_probability>
1

> <r_epik_Ionization_Penalty>
0.000102837

> <r_epik_Ionization_Penalty_Charging>
0

> <r_epik_Ionization_Penalty_Neutral>
0.000102837

> <r_epik_State_Penalty>
-0

> <r_epik_Charging_Adjusted_Penalty>
0

> <i_epik_Tot_Q>
0

> <i_epik_Tot_abs_Q>
0

> <r_epik_Metal_State_Penalty>
-0

> <b_epik_Metal_Only>
0

> <s_lp_Force_Field>
OPLS_2005

> <r_lp_Energy>
49.3626

> <b_lp_Chiralities_Consistent>
1

> <s_lp_Variant>
AV-unprocessed.smi:151-2

> <Gold.Version>
5.8.1

> <Gold.Id.Protein>
6NUR|6NUR_protein|mol2

> <Gold.PLP.Fitness>
40.3549

> <Gold.PLP.PLP>
-29.6780

> <Gold.PLP.part.hbond>
-4.7630

> <Gold.PLP.part.metal>
0.0000

> <Gold.PLP.part.buried>
-2.9273

> <Gold.PLP.part.nonpolar>
-22.7764

> <Gold.PLP.part.repulsive>
0.3807

> <Gold.PLP.ligand.clash>
0.0000

> <Gold.PLP.ligand.torsion>
0.7623

> <Gold.PLP.Chemscore.Hbond>
2.0000

> <Gold.PLP.Chemscore.CHOScore>
1.8846

> <Gold.PLP.Chemscore.Metal>
0.0000

> <Gold.Chemscore.Hbonds>
donor molecule, donor type, donor heavy atom, donor atom, acceptor molecule, acceptor atom, score
      L1  H    24    51       P1 10747  1.00
      L1  H    26    54       P1 10186  1.00
      L1  C    13    44       P1 11000  0.77
      L1  C    18    45       P1  7948  1.00

> <Gold.PLP.Chemscore.Internal.Correction>
0.5477

> <Gold.Rescore>
     Score         DG    S(hbond)    S(metal)    S(lipo)     H(rot)  DE(clash)    DE(int)     intcor
      8.94     -11.07       1.99        0.00      62.26       3.26       1.56       0.58       ----

> <Gold.Chemscore.Fitness>
8.9358

> <Gold.Chemscore.DG>
-11.0712

> <Gold.Chemscore.ZeroCoef>
-5.4800

> <Gold.Chemscore.Hbond>
1.9913

> <Gold.Chemscore.Metal>
0.0000

> <Gold.Chemscore.Lipo>
62.2637

> <Gold.Chemscore.Internal_Hbond>
0.0000

> <Gold.Chemscore.DEClash>
1.5558

> <Gold.Chemscore.DEInternal>
0.5795

> <Gold.Chemscore.Rot>
3.2596

> <Gold.Chemscore.Internal.Correction>
   9.000000E+99

> <Gold.Chemscore.Hbonds>
donor molecule, donor type, donor heavy atom, donor atom, acceptor molecule, acceptor atom, score
      L1  H    24    51       P1 10747  1.00
      L1  H    26    54       P1 10186  0.98

> <Gold.Chemscore.Hbond.Weighted>
-6.6510

> <Gold.Chemscore.Metal.Weighted>
-0.0000

> <Gold.Chemscore.Lipo.Weighted>
-7.2849

> <Gold.Chemscore.Internal_Hbond.Weighted>
0.0000

> <Gold.Chemscore.DEClash.Weighted>
1.5558

> <Gold.Chemscore.DEInternal.Weighted>
0.5795

> <Gold.Chemscore.Rot.Weighted>
8.3447

> <Gold.Chemscore.Internal.Correction.Weighted>
   9.000000E+99

> <Gold.Protein.RotatedTorsions>
[ 6907 6896 6895 6894 ] final -139.51 input  -60.11 | X-H torsion
[ 7974 7965 7964 7962 ] final -151.64 input  175.53 | X-H torsion
[ 8008 7997 7996 7995 ] final -173.05 input   59.86 | X-H torsion
[ 10167 10162 10161 10158 ] final -123.55 input  -65.29 | X-H torsion
[ 10718 10713 10712 10709 ] final  132.06 input   66.30 | X-H torsion
[ 10763 10752 10751 10750 ] final -163.10 input  -60.55 | X-H torsion
[ 11005 11000 10999 10996 ] final -139.56 input  -57.11 | X-H torsion

> <Gold.Protein.ActiveResidues>
 VAL166  LYS551  ARG553  GLY616  TRP617  ASP618  TYR619  PRO620  LYS621  CYS622 
 ASP623  PHE694  ASN695  SER759  ASP760  ASP761  ALA762  ILE779  LEU786  VAL792 
 PHE793  MET794  SER795  GLU796  ALA797  LYS798  CYS799  TRP800  GLU811  SER814 

> <Gold.Protein.RotatedAtoms>
  151.0487  133.5643  159.2644 H   0  0  0  0  0  0  0  0  0  0  0  0  # atno 6907 bound_to 6896
  151.2662  135.0669  159.9127 H   0  0  0  0  0  0  0  0  0  0  0  0  # atno 6908 bound_to 6896
  152.5378  134.0224  159.8042 H   0  0  0  0  0  0  0  0  0  0  0  0  # atno 6909 bound_to 6896
  144.7838  140.4770  143.5820 H   0  0  0  0  0  0  0  0  0  0  0  0  # atno 7974 bound_to 7965
  155.9525  140.1129  157.0965 H   0  0  0  0  0  0  0  0  0  0  0  0  # atno 8008 bound_to 7997
  154.4113  140.1198  156.5137 H   0  0  0  0  0  0  0  0  0  0  0  0  # atno 8009 bound_to 7997
  155.6824  140.3473  155.4863 H   0  0  0  0  0  0  0  0  0  0  0  0  # atno 8010 bound_to 7997
  140.0023  143.5528  152.2298 H   0  0  0  0  0  0  0  0  0  0  0  0  # atno 10167 bound_to 10162
  157.4908  131.1090  150.9559 H   0  0  0  0  0  0  0  0  0  0  0  0  # atno 10718 bound_to 10713
  154.7154  135.3014  154.9132 H   0  0  0  0  0  0  0  0  0  0  0  0  # atno 10763 bound_to 10752
  154.0020  135.6705  153.4764 H   0  0  0  0  0  0  0  0  0  0  0  0  # atno 10764 bound_to 10752
  153.0789  135.5019  154.8377 H   0  0  0  0  0  0  0  0  0  0  0  0  # atno 10765 bound_to 10752
  140.8508  134.2289  157.4761 H   0  0  0  0  0  0  0  0  0  0  0  0  # atno 11005 bound_to 11000
  145.5977  139.1501  143.3147 LP  0  0  0  0  0  0  0  0  0  0  0  0  # atno 17320 bound_to 7965
  146.2060  140.6099  142.9081 LP  0  0  0  0  0  0  0  0  0  0  0  0  # atno 17321 bound_to 7965
  139.6263  144.7637  151.2632 LP  0  0  0  0  0  0  0  0  0  0  0  0  # atno 17342 bound_to 10162
  140.7414  143.6558  150.8208 LP  0  0  0  0  0  0  0  0  0  0  0  0  # atno 17343 bound_to 10162
  157.0261  130.5693  149.5337 LP  0  0  0  0  0  0  0  0  0  0  0  0  # atno 17370 bound_to 10713
  156.0172  130.5267  150.8170 LP  0  0  0  0  0  0  0  0  0  0  0  0  # atno 17371 bound_to 10713
  139.8704  134.9682  156.4623 LP  0  0  0  0  0  0  0  0  0  0  0  0  # atno 17394 bound_to 11000
  140.8793  133.7930  155.9448 LP  0  0  0  0  0  0  0  0  0  0  0  0  # atno 17395 bound_to 11000

$$$$
