AV-unprocessed.smi:88|AV-procd|sdf|824|dock1
  -GOLD-   2262017233D 1   1.00000     0.00000
 Structure written by MMmdl.
 56 60  0  0  0  0  0  0  0  0  1 V2000
  149.8893  131.1871  156.5529 C   0  0  0  0  0  0  0  0  0  0  0  0
  148.7984  132.0603  156.1138 N   0  0  0  0  0  0  0  0  0  0  0  0
  147.5408  131.6489  155.8839 C   0  0  0  0  0  0  0  0  0  0  0  0
  147.1130  130.5010  155.9911 O   0  0  0  0  0  0  0  0  0  0  0  0
  146.8133  132.7022  155.5160 N   0  0  0  0  0  0  0  0  0  0  0  0
  147.5630  133.9361  155.4783 C   0  0  0  0  0  0  0  0  0  0  0  0
  148.9847  133.5009  155.8947 C   0  0  0  0  0  0  0  0  0  0  0  0
  149.4486  134.2174  157.1879 C   0  0  0  0  0  0  0  0  0  0  0  0
  149.7116  135.7149  156.9480 C   0  0  0  0  0  0  0  0  0  0  0  0
  150.6540  135.9054  155.8490 N   0  0  0  0  0  0  0  0  0  0  0  0
  151.0673  137.1824  155.7113 C   0  0  0  0  0  0  0  0  0  0  0  0
  152.1987  137.3938  154.9959 N   0  0  0  0  0  0  0  0  0  0  0  0
  152.6567  138.6378  154.8247 C   0  0  0  0  0  0  0  0  0  0  0  0
  152.1447  139.7864  155.2737 N   0  0  0  0  0  0  0  0  0  0  0  0
  151.0059  139.5739  155.9947 C   0  0  0  0  0  0  0  0  0  0  0  0
  150.4009  138.3137  156.2610 C   0  0  0  0  0  0  0  0  0  0  0  0
  149.2543  138.4896  157.0263 N   0  0  0  0  0  0  0  0  0  0  0  0
  149.1861  139.7810  157.2035 C   0  0  0  0  0  0  0  0  0  0  0  0
  150.2004  140.5081  156.6220 N   0  0  0  0  0  0  0  0  0  0  0  0
  150.3704  141.9525  156.6618 C   0  0  0  0  0  0  0  0  0  0  0  0
  151.0165  142.4712  157.9700 C   0  0  0  0  0  0  0  0  0  0  0  0
  150.0019  142.5194  158.9590 O   0  0  0  0  0  0  0  0  0  0  0  0
  152.1522  141.5556  158.4776 C   0  0  0  0  0  0  0  0  0  0  0  0
  152.9214  142.1832  159.6539 C   0  0  0  0  0  0  0  0  0  0  0  0
  153.4072  143.4705  159.2930 O   0  0  0  0  0  0  0  0  0  0  0  0
  152.3631  144.3883  158.9918 C   0  0  0  0  0  0  0  0  0  0  0  0
  151.5685  143.8967  157.7691 C   0  0  0  0  0  0  0  0  0  0  0  0
  150.2678  135.2837  154.5857 C   0  0  0  0  0  0  0  0  0  0  0  0
  150.0180  133.7765  154.7733 C   0  0  0  0  0  0  0  0  0  0  0  0
  149.5792  130.1439  156.6237 H   0  0  0  0  0  0  0  0  0  0  0  0
  150.2495  131.4821  157.5378 H   0  0  0  0  0  0  0  0  0  0  0  0
  150.7258  131.2241  155.8565 H   0  0  0  0  0  0  0  0  0  0  0  0
  145.8309  132.6561  155.2872 H   0  0  0  0  0  0  0  0  0  0  0  0
  147.5209  134.3577  154.4737 H   0  0  0  0  0  0  0  0  0  0  0  0
  147.1166  134.6537  156.1674 H   0  0  0  0  0  0  0  0  0  0  0  0
  148.7124  134.0904  157.9825 H   0  0  0  0  0  0  0  0  0  0  0  0
  150.3729  133.7692  157.5532 H   0  0  0  0  0  0  0  0  0  0  0  0
  148.7763  136.2293  156.7265 H   0  0  0  0  0  0  0  0  0  0  0  0
  150.1131  136.1667  157.8561 H   0  0  0  0  0  0  0  0  0  0  0  0
  153.5635  138.7248  154.2445 H   0  0  0  0  0  0  0  0  0  0  0  0
  148.3913  140.2427  157.7713 H   0  0  0  0  0  0  0  0  0  0  0  0
  150.9781  142.2441  155.8044 H   0  0  0  0  0  0  0  0  0  0  0  0
  149.3939  142.4151  156.5108 H   0  0  0  0  0  0  0  0  0  0  0  0
  150.0614  141.7386  159.4884 H   0  0  0  0  0  0  0  0  0  0  0  0
  151.7647  140.5801  158.7740 H   0  0  0  0  0  0  0  0  0  0  0  0
  152.8546  141.3715  157.6637 H   0  0  0  0  0  0  0  0  0  0  0  0
  152.2916  142.2563  160.5419 H   0  0  0  0  0  0  0  0  0  0  0  0
  153.7691  141.5522  159.9211 H   0  0  0  0  0  0  0  0  0  0  0  0
  151.7137  144.5181  159.8588 H   0  0  0  0  0  0  0  0  0  0  0  0
  152.8041  145.3627  158.7812 H   0  0  0  0  0  0  0  0  0  0  0  0
  152.2314  143.9074  156.9029 H   0  0  0  0  0  0  0  0  0  0  0  0
  150.7600  144.5931  157.5425 H   0  0  0  0  0  0  0  0  0  0  0  0
  149.3724  135.7679  154.1951 H   0  0  0  0  0  0  0  0  0  0  0  0
  151.0561  135.4352  153.8470 H   0  0  0  0  0  0  0  0  0  0  0  0
  150.9713  133.3079  155.0177 H   0  0  0  0  0  0  0  0  0  0  0  0
  149.6915  133.3316  153.8326 H   0  0  0  0  0  0  0  0  0  0  0  0
  1  2  1  0  0  0  0
  1 30  1  0  0  0  0
  1 31  1  0  0  0  0
  1 32  1  0  0  0  0
  2  7  1  0  0  0  0
  2  3  1  0  0  0  0
  3  4  2  0  0  0  0
  3  5  1  0  0  0  0
  5  6  1  0  0  0  0
  5 33  1  0  0  0  0
  6  7  1  0  0  0  0
  6 34  1  0  0  0  0
  6 35  1  0  0  0  0
  7 29  1  0  0  0  0
  7  8  1  0  0  0  0
  8  9  1  0  0  0  0
  8 36  1  0  0  0  0
  8 37  1  0  0  0  0
  9 10  1  0  0  0  0
  9 38  1  0  0  0  0
  9 39  1  0  0  0  0
 10 11  1  0  0  0  0
 10 28  1  0  0  0  0
 11 16  1  0  0  0  0
 11 12  2  0  0  0  0
 12 13  1  0  0  0  0
 13 14  2  0  0  0  0
 13 40  1  0  0  0  0
 14 15  1  0  0  0  0
 15 19  1  0  0  0  0
 15 16  2  0  0  0  0
 16 17  1  0  0  0  0
 17 18  2  0  0  0  0
 18 19  1  0  0  0  0
 18 41  1  0  0  0  0
 19 20  1  0  0  0  0
 20 21  1  0  0  0  0
 20 42  1  0  0  0  0
 20 43  1  0  0  0  0
 21 27  1  0  0  0  0
 21 22  1  0  0  0  0
 21 23  1  0  0  0  0
 22 44  1  0  0  0  0
 23 24  1  0  0  0  0
 23 45  1  0  0  0  0
 23 46  1  0  0  0  0
 24 25  1  0  0  0  0
 24 47  1  0  0  0  0
 24 48  1  0  0  0  0
 25 26  1  0  0  0  0
 26 27  1  0  0  0  0
 26 49  1  0  0  0  0
 26 50  1  0  0  0  0
 27 51  1  0  0  0  0
 27 52  1  0  0  0  0
 28 29  1  0  0  0  0
 28 53  1  0  0  0  0
 28 54  1  0  0  0  0
 29 55  1  0  0  0  0
 29 56  1  0  0  0  0
M  END
> <s_m_source_file>
AV-unprocessed.smi

> <i_m_source_file_index>
88

> <i_lp_mmshare_version>
43012

> <i_f3d_flags>
0

> <s_epik_input>
W0NIMl0xW05IXUMoPU8pTihbQ0gzXSlDMTJbQ0gyXVtDSDJdTihbQ0gyXVtDSDJdMiljKG5bY0hdbjMpYyhjMzQpbltjSF1uNFtDSDJdQzUoW09IXSlbQ0gyXVtDSDJdT1tDSDJdW0NIMl01

> <s_epik_cmdline>
J2VwaWtfcHl0aG9uJywgJy1waCcsICc3LjAnLCAnLXRuJywgJzgnLCAnLW1hJywgJzIwMCcsICctbWV0YWxfYmluZGluZycsICctaW1hZScsICc8aW5maWxlLm1hZT4nLCAnLW9tYWUnLCAnPG91dGZpbGUubWFlPic=

> <r_lp_tautomer_probability>
1

> <r_epik_Ionization_Penalty>
0.00363326

> <r_epik_Ionization_Penalty_Charging>
0

> <r_epik_Ionization_Penalty_Neutral>
0.00363326

> <r_epik_State_Penalty>
0.00246926

> <r_epik_Charging_Adjusted_Penalty>
0.00246926

> <i_epik_Tot_Q>
0

> <i_epik_Tot_abs_Q>
0

> <r_epik_Metal_State_Penalty>
-0

> <b_epik_Metal_Only>
0

> <s_lp_Force_Field>
OPLS_2005

> <r_lp_Energy>
63.3868

> <b_lp_Chiralities_Consistent>
1

> <s_lp_Variant>
AV-unprocessed.smi:88-1

> <Gold.Version>
5.8.1

> <Gold.Id.Protein>
6NUR|6NUR_protein|mol2

> <Gold.PLP.Fitness>
41.1814

> <Gold.PLP.PLP>
-38.1245

> <Gold.PLP.part.hbond>
-2.5988

> <Gold.PLP.part.metal>
0.0000

> <Gold.PLP.part.buried>
-3.8505

> <Gold.PLP.part.nonpolar>
-31.3736

> <Gold.PLP.part.repulsive>
0.2116

> <Gold.PLP.ligand.clash>
0.0000

> <Gold.PLP.ligand.torsion>
0.8341

> <Gold.PLP.Chemscore.Hbond>
1.5102

> <Gold.PLP.Chemscore.CHOScore>
0.0000

> <Gold.PLP.Chemscore.Metal>
0.0000

> <Gold.Chemscore.Hbonds>
donor molecule, donor type, donor heavy atom, donor atom, acceptor molecule, acceptor atom, score
      P1  H  7989  7998       L1    14  0.62
      P1  H 10752 10765       L1    12  0.77

> <Gold.PLP.Chemscore.Internal.Correction>
0.1947

> <Gold.Rescore>
     Score         DG    S(hbond)    S(metal)    S(lipo)     H(rot)  DE(clash)    DE(int)     intcor
     12.26     -14.87       1.37        0.00      89.00       2.18       0.15       2.46       ----

> <Gold.Chemscore.Fitness>
12.2601

> <Gold.Chemscore.DG>
-14.8743

> <Gold.Chemscore.ZeroCoef>
-5.4800

> <Gold.Chemscore.Hbond>
1.3690

> <Gold.Chemscore.Metal>
0.0000

> <Gold.Chemscore.Lipo>
88.9957

> <Gold.Chemscore.Internal_Hbond>
0.0000

> <Gold.Chemscore.DEClash>
0.1501

> <Gold.Chemscore.DEInternal>
2.4641

> <Gold.Chemscore.Rot>
2.1838

> <Gold.Chemscore.Internal.Correction>
   9.000000E+99

> <Gold.Chemscore.Hbonds>
donor molecule, donor type, donor heavy atom, donor atom, acceptor molecule, acceptor atom, score
      P1  H  7989  7998       L1    14  0.20
      P1  H 10752 10765       L1    12  0.50

> <Gold.Chemscore.Hbond.Weighted>
-4.5723

> <Gold.Chemscore.Metal.Weighted>
-0.0000

> <Gold.Chemscore.Lipo.Weighted>
-10.4125

> <Gold.Chemscore.Internal_Hbond.Weighted>
0.0000

> <Gold.Chemscore.DEClash.Weighted>
0.1501

> <Gold.Chemscore.DEInternal.Weighted>
2.4641

> <Gold.Chemscore.Rot.Weighted>
5.5905

> <Gold.Chemscore.Internal.Correction.Weighted>
   9.000000E+99

> <Gold.Protein.RotatedTorsions>
[ 6907 6896 6895 6894 ] final -117.18 input  -60.11 | X-H torsion
[ 7974 7965 7964 7962 ] final  -12.11 input  175.53 | X-H torsion
[ 8008 7997 7996 7995 ] final  104.07 input   59.86 | X-H torsion
[ 10167 10162 10161 10158 ] final   33.21 input  -65.29 | X-H torsion
[ 10718 10713 10712 10709 ] final  123.00 input   66.30 | X-H torsion
[ 10763 10752 10751 10750 ] final  176.82 input  -60.55 | X-H torsion
[ 11005 11000 10999 10996 ] final   31.86 input  -57.11 | X-H torsion

> <Gold.Protein.ActiveResidues>
 VAL166  LYS551  ARG553  GLY616  TRP617  ASP618  TYR619  PRO620  LYS621  CYS622 
 ASP623  PHE694  ASN695  SER759  ASP760  ASP761  ALA762  ILE779  LEU786  VAL792 
 PHE793  MET794  SER795  GLU796  ALA797  LYS798  CYS799  TRP800  GLU811  SER814 

> <Gold.Protein.RotatedAtoms>
  150.8116  133.8412  159.3179 H   0  0  0  0  0  0  0  0  0  0  0  0  # atno 6907 bound_to 6896
  151.6196  135.1031  160.0108 H   0  0  0  0  0  0  0  0  0  0  0  0  # atno 6908 bound_to 6896
  152.4208  133.7072  159.6515 H   0  0  0  0  0  0  0  0  0  0  0  0  # atno 6909 bound_to 6896
  146.2164  140.3009  142.8375 H   0  0  0  0  0  0  0  0  0  0  0  0  # atno 7974 bound_to 7965
  156.1540  140.3154  155.8695 H   0  0  0  0  0  0  0  0  0  0  0  0  # atno 8008 bound_to 7997
  155.3915  140.0494  157.3057 H   0  0  0  0  0  0  0  0  0  0  0  0  # atno 8009 bound_to 7997
  154.5084  140.2155  155.9216 H   0  0  0  0  0  0  0  0  0  0  0  0  # atno 8010 bound_to 7997
  140.4428  144.1162  150.6177 H   0  0  0  0  0  0  0  0  0  0  0  0  # atno 10167 bound_to 10162
  157.5699  131.1084  150.8386 H   0  0  0  0  0  0  0  0  0  0  0  0  # atno 10718 bound_to 10713
  154.4863  135.2777  155.1531 H   0  0  0  0  0  0  0  0  0  0  0  0  # atno 10763 bound_to 10752
  154.3221  135.6207  153.5516 H   0  0  0  0  0  0  0  0  0  0  0  0  # atno 10764 bound_to 10752
  152.9882  135.5745  154.5275 H   0  0  0  0  0  0  0  0  0  0  0  0  # atno 10765 bound_to 10752
  140.2794  134.2990  155.7805 H   0  0  0  0  0  0  0  0  0  0  0  0  # atno 11005 bound_to 11000
  144.9058  140.7697  143.5838 LP  0  0  0  0  0  0  0  0  0  0  0  0  # atno 17320 bound_to 7965
  145.2937  139.1874  143.4726 LP  0  0  0  0  0  0  0  0  0  0  0  0  # atno 17321 bound_to 7965
  140.4298  143.2573  151.9609 LP  0  0  0  0  0  0  0  0  0  0  0  0  # atno 17342 bound_to 10162
  139.4791  144.5754  151.8020 LP  0  0  0  0  0  0  0  0  0  0  0  0  # atno 17343 bound_to 10162
  156.8860  130.5196  149.5288 LP  0  0  0  0  0  0  0  0  0  0  0  0  # atno 17370 bound_to 10713
  156.0745  130.5770  150.9447 LP  0  0  0  0  0  0  0  0  0  0  0  0  # atno 17371 bound_to 10713
  141.2165  133.7516  156.9458 LP  0  0  0  0  0  0  0  0  0  0  0  0  # atno 17394 bound_to 11000
  140.1297  134.9364  157.2320 LP  0  0  0  0  0  0  0  0  0  0  0  0  # atno 17395 bound_to 11000

$$$$
