AV-unprocessed.smi:3328|AV-procd|sdf|12793|dock10
  -GOLD-   2272019143D 1   1.00000     0.00000
 Structure written by MMmdl.
 40 41  0  0  0  0  0  0  0  0  1 V2000
  151.1998  136.2956  154.2596 C   0  0  0  0  0  0  0  0  0  0  0  0
  151.2336  137.7941  154.3470 C   0  0  0  0  0  0  0  0  0  0  0  0
  152.3739  138.6389  154.4659 C   0  0  0  0  0  0  0  0  0  0  0  0
  152.0603  139.9231  154.5161 N   0  0  0  0  0  0  0  0  0  0  0  0
  150.7126  139.9443  154.4373 N   0  0  0  0  0  0  0  0  0  0  0  0
  150.0030  141.2119  154.4642 C   0  0  0  0  0  0  0  0  0  0  0  0
  149.3357  141.4851  155.8272 C   0  0  2  0  0  0  0  0  0  0  0  0
  147.8186  141.6871  155.6660 C   0  0  0  0  0  0  0  0  0  0  0  0
  149.9380  142.6748  156.4199 N   0  0  0  0  0  0  0  0  0  0  0  0
  150.4107  142.4412  157.7756 C   0  0  0  0  0  0  0  0  0  0  0  0
  151.2305  143.6525  158.2440 C   0  0  0  0  0  0  0  0  0  0  0  0
  151.8122  143.4224  159.5629 N   0  0  0  0  0  0  0  0  0  0  0  0
  151.4144  144.2331  160.7011 C   0  0  0  0  0  0  0  0  0  0  0  0
  152.3740  143.8317  161.8308 C   0  0  0  0  0  0  0  0  0  0  0  0
  153.0526  142.5399  161.3620 C   0  0  0  0  0  0  0  0  0  0  0  0
  152.6953  142.4704  159.8870 C   0  0  0  0  0  0  0  0  0  0  0  0
  153.1747  141.6341  159.1230 O   0  0  0  0  0  0  0  0  0  0  0  0
  150.1884  138.6738  154.3304 C   0  0  0  0  0  0  0  0  0  0  0  0
  152.1680  135.8536  154.4960 H   0  0  0  0  0  0  0  0  0  0  0  0
  150.9281  135.9582  153.2594 H   0  0  0  0  0  0  0  0  0  0  0  0
  150.4746  135.8683  154.9524 H   0  0  0  0  0  0  0  0  0  0  0  0
  153.4153  138.3571  154.5153 H   0  0  0  0  0  0  0  0  0  0  0  0
  150.6885  142.0184  154.1969 H   0  0  0  0  0  0  0  0  0  0  0  0
  149.2457  141.1786  153.6800 H   0  0  0  0  0  0  0  0  0  0  0  0
  149.5161  140.6261  156.4750 H   0  0  0  0  0  0  0  0  0  0  0  0
  147.3623  140.8226  155.1830 H   0  0  0  0  0  0  0  0  0  0  0  0
  147.5961  142.5615  155.0535 H   0  0  0  0  0  0  0  0  0  0  0  0
  147.3181  141.8151  156.6254 H   0  0  0  0  0  0  0  0  0  0  0  0
  149.2856  143.4457  156.3974 H   0  0  0  0  0  0  0  0  0  0  0  0
  149.5679  142.2787  158.4467 H   0  0  0  0  0  0  0  0  0  0  0  0
  151.0276  141.5419  157.7981 H   0  0  0  0  0  0  0  0  0  0  0  0
  152.0284  143.8631  157.5301 H   0  0  0  0  0  0  0  0  0  0  0  0
  150.6033  144.5449  158.2788 H   0  0  0  0  0  0  0  0  0  0  0  0
  151.4797  145.2978  160.4731 H   0  0  0  0  0  0  0  0  0  0  0  0
  150.3814  144.0017  160.9642 H   0  0  0  0  0  0  0  0  0  0  0  0
  153.1236  144.6101  161.9794 H   0  0  0  0  0  0  0  0  0  0  0  0
  151.8491  143.6970  162.7772 H   0  0  0  0  0  0  0  0  0  0  0  0
  154.1326  142.5639  161.5103 H   0  0  0  0  0  0  0  0  0  0  0  0
  152.6468  141.6675  161.8749 H   0  0  0  0  0  0  0  0  0  0  0  0
  149.1246  138.5028  154.2542 H   0  0  0  0  0  0  0  0  0  0  0  0
  1  2  1  0  0  0  0
  1 19  1  0  0  0  0
  1 20  1  0  0  0  0
  1 21  1  0  0  0  0
  2 18  2  0  0  0  0
  2  3  1  0  0  0  0
  3  4  2  0  0  0  0
  3 22  1  0  0  0  0
  4  5  1  0  0  0  0
  5  6  1  0  0  0  0
  5 18  1  0  0  0  0
  6  7  1  0  0  0  0
  6 23  1  0  0  0  0
  6 24  1  0  0  0  0
  7  8  1  0  0  0  0
  7  9  1  0  0  0  0
  7 25  1  0  0  0  0
  8 26  1  0  0  0  0
  8 27  1  0  0  0  0
  8 28  1  0  0  0  0
  9 10  1  0  0  0  0
  9 29  1  0  0  0  0
 10 11  1  0  0  0  0
 10 30  1  0  0  0  0
 10 31  1  0  0  0  0
 11 12  1  0  0  0  0
 11 32  1  0  0  0  0
 11 33  1  0  0  0  0
 12 16  1  0  0  0  0
 12 13  1  0  0  0  0
 13 14  1  0  0  0  0
 13 34  1  0  0  0  0
 13 35  1  0  0  0  0
 14 15  1  0  0  0  0
 14 36  1  0  0  0  0
 14 37  1  0  0  0  0
 15 16  1  0  0  0  0
 15 38  1  0  0  0  0
 15 39  1  0  0  0  0
 16 17  2  0  0  0  0
 18 40  1  0  0  0  0
M  END
> <s_m_source_file>
AV-unprocessed.smi

> <i_m_source_file_index>
3328

> <i_lp_mmshare_version>
43012

> <i_f3d_flags>
0

> <s_epik_input>
W0NIM11jMVtjSF1ubihbY0hdMSlbQ0gyXVtDQEhdKFtDSDNdKVtOSF1bQ0gyXVtDSDJdTjJbQ0gyXVtDSDJdW0NIMl1DMj1P

> <s_epik_cmdline>
J2VwaWtfcHl0aG9uJywgJy1waCcsICc3LjAnLCAnLXRuJywgJzgnLCAnLW1hJywgJzIwMCcsICctbWV0YWxfYmluZGluZycsICctaW1hZScsICc8aW5maWxlLm1hZT4nLCAnLW9tYWUnLCAnPG91dGZpbGUubWFlPic=

> <r_lp_tautomer_probability>
1

> <r_epik_Ionization_Penalty>
2.53591

> <r_epik_Ionization_Penalty_Charging>
0

> <r_epik_Ionization_Penalty_Neutral>
2.53591

> <r_epik_State_Penalty>
2.70334

> <r_epik_Charging_Adjusted_Penalty>
2.70334

> <i_epik_Tot_Q>
0

> <i_epik_Tot_abs_Q>
0

> <r_epik_Metal_State_Penalty>
2.70327

> <b_epik_Metal_Only>
0

> <s_lp_Force_Field>
OPLS_2005

> <r_lp_Energy>
20.4488

> <b_lp_Chiralities_Consistent>
1

> <s_lp_Variant>
AV-unprocessed.smi:3328-3

> <Gold.Version>
5.8.1

> <Gold.Id.Protein>
6NUR|6NUR_protein|mol2

> <Gold.PLP.Fitness>
42.4051

> <Gold.PLP.PLP>
-42.7706

> <Gold.PLP.part.hbond>
-2.0000

> <Gold.PLP.part.metal>
0.0000

> <Gold.PLP.part.buried>
-0.9631

> <Gold.PLP.part.nonpolar>
-37.6127

> <Gold.PLP.part.repulsive>
0.0588

> <Gold.PLP.ligand.clash>
0.0000

> <Gold.PLP.ligand.torsion>
1.7141

> <Gold.PLP.Chemscore.Hbond>
1.0000

> <Gold.PLP.Chemscore.CHOScore>
0.0000

> <Gold.PLP.Chemscore.Metal>
0.0000

> <Gold.Chemscore.Hbonds>
donor molecule, donor type, donor heavy atom, donor atom, acceptor molecule, acceptor atom, score
      L1  H     9    29       P1  8028  0.90

> <Gold.PLP.Chemscore.Internal.Correction>
0.0627

> <Gold.Rescore>
     Score         DG    S(hbond)    S(metal)    S(lipo)     H(rot)  DE(clash)    DE(int)     intcor
     12.25     -15.34       1.00        0.00      97.13       1.89       1.49       1.60       ----

> <Gold.Chemscore.Fitness>
12.2480

> <Gold.Chemscore.DG>
-15.3409

> <Gold.Chemscore.ZeroCoef>
-5.4800

> <Gold.Chemscore.Hbond>
1.0000

> <Gold.Chemscore.Metal>
0.0000

> <Gold.Chemscore.Lipo>
97.1315

> <Gold.Chemscore.Internal_Hbond>
0.0000

> <Gold.Chemscore.DEClash>
1.4924

> <Gold.Chemscore.DEInternal>
1.6005

> <Gold.Chemscore.Rot>
1.8920

> <Gold.Chemscore.Internal.Correction>
   9.000000E+99

> <Gold.Chemscore.Hbonds>
donor molecule, donor type, donor heavy atom, donor atom, acceptor molecule, acceptor atom, score
      L1  H     9    29       P1  8028  0.81

> <Gold.Chemscore.Hbond.Weighted>
-3.3399

> <Gold.Chemscore.Metal.Weighted>
-0.0000

> <Gold.Chemscore.Lipo.Weighted>
-11.3644

> <Gold.Chemscore.Internal_Hbond.Weighted>
0.0000

> <Gold.Chemscore.DEClash.Weighted>
1.4924

> <Gold.Chemscore.DEInternal.Weighted>
1.6005

> <Gold.Chemscore.Rot.Weighted>
4.8435

> <Gold.Chemscore.Internal.Correction.Weighted>
   9.000000E+99

> <Gold.Protein.RotatedTorsions>
[ 6907 6896 6895 6894 ] final  -53.28 input  -60.11 | X-H torsion
[ 7974 7965 7964 7962 ] final  173.59 input  175.53 | X-H torsion
[ 8008 7997 7996 7995 ] final   51.96 input   59.86 | X-H torsion
[ 10167 10162 10161 10158 ] final   83.50 input  -65.29 | X-H torsion
[ 10718 10713 10712 10709 ] final -112.49 input   66.30 | X-H torsion
[ 10763 10752 10751 10750 ] final  -43.16 input  -60.55 | X-H torsion
[ 11005 11000 10999 10996 ] final  118.09 input  -57.11 | X-H torsion

> <Gold.Protein.ActiveResidues>
 VAL166  LYS551  ARG553  GLY616  TRP617  ASP618  TYR619  PRO620  LYS621  CYS622 
 ASP623  PHE694  ASN695  SER759  ASP760  ASP761  ALA762  ILE779  LEU786  VAL792 
 PHE793  MET794  SER795  GLU796  ALA797  LYS798  CYS799  TRP800  GLU811  SER814 

> <Gold.Protein.RotatedAtoms>
  150.8441  134.7744  159.6956 H   0  0  0  0  0  0  0  0  0  0  0  0  # atno 6907 bound_to 6896
  152.4522  134.5366  159.9836 H   0  0  0  0  0  0  0  0  0  0  0  0  # atno 6908 bound_to 6896
  151.5499  133.3381  159.2987 H   0  0  0  0  0  0  0  0  0  0  0  0  # atno 6909 bound_to 6896
  144.7240  139.9670  143.6436 H   0  0  0  0  0  0  0  0  0  0  0  0  # atno 7974 bound_to 7965
  155.4439  140.3455  155.4293 H   0  0  0  0  0  0  0  0  0  0  0  0  # atno 8008 bound_to 7997
  156.1262  140.1501  156.9163 H   0  0  0  0  0  0  0  0  0  0  0  0  # atno 8009 bound_to 7997
  154.4860  140.0855  156.7466 H   0  0  0  0  0  0  0  0  0  0  0  0  # atno 8010 bound_to 7997
  139.9177  144.6232  150.8472 H   0  0  0  0  0  0  0  0  0  0  0  0  # atno 10167 bound_to 10162
  156.0709  130.5923  150.8516 H   0  0  0  0  0  0  0  0  0  0  0  0  # atno 10718 bound_to 10713
  153.9910  135.6705  153.4754 H   0  0  0  0  0  0  0  0  0  0  0  0  # atno 10763 bound_to 10752
  153.0705  135.4977  154.8291 H   0  0  0  0  0  0  0  0  0  0  0  0  # atno 10764 bound_to 10752
  154.7109  135.3097  154.9160 H   0  0  0  0  0  0  0  0  0  0  0  0  # atno 10765 bound_to 10752
  139.9097  134.9617  156.7451 H   0  0  0  0  0  0  0  0  0  0  0  0  # atno 11005 bound_to 11000
  146.0592  139.3587  143.0591 LP  0  0  0  0  0  0  0  0  0  0  0  0  # atno 17320 bound_to 7965
  145.8114  140.9724  143.0947 LP  0  0  0  0  0  0  0  0  0  0  0  0  # atno 17321 bound_to 7965
  140.7670  143.3319  151.2391 LP  0  0  0  0  0  0  0  0  0  0  0  0  # atno 17342 bound_to 10162
  139.6888  143.9727  152.2848 LP  0  0  0  0  0  0  0  0  0  0  0  0  # atno 17343 bound_to 10162
  157.5779  131.0946  150.9317 LP  0  0  0  0  0  0  0  0  0  0  0  0  # atno 17370 bound_to 10713
  156.9519  130.5423  149.5283 LP  0  0  0  0  0  0  0  0  0  0  0  0  # atno 17371 bound_to 10713
  140.6819  133.9467  155.7915 LP  0  0  0  0  0  0  0  0  0  0  0  0  # atno 17394 bound_to 11000
  141.0504  134.0493  157.3790 LP  0  0  0  0  0  0  0  0  0  0  0  0  # atno 17395 bound_to 11000

$$$$
