AV-unprocessed.smi:1964|AV-procd|sdf|7928|dock5
  -GOLD-   2272010 93D 1   1.00000     0.00000
 Structure written by MMmdl.
 46 48  0  0  0  0  0  0  0  0  1 V2000
  151.6125  143.1484  157.8928 C   0  0  0  0  0  0  0  0  0  0  0  0
  152.0649  142.2420  159.0519 C   0  0  2  0  0  0  0  0  0  0  0  0
  153.0923  142.9730  159.9403 C   0  0  0  0  0  0  0  0  0  0  0  0
  153.5544  142.1011  161.1177 C   0  0  0  0  0  0  0  0  0  0  0  0
  154.1274  140.7661  160.6230 C   0  0  0  0  0  0  0  0  0  0  0  0
  153.1103  140.0202  159.7474 C   0  0  0  0  0  0  0  0  0  0  0  0
  152.6347  140.8871  158.5618 C   0  0  1  0  0  0  0  0  0  0  0  0
  151.6291  140.1624  157.7878 N   0  0  0  0  0  0  0  0  0  0  0  0
  151.7939  139.6940  156.5416 C   0  0  0  0  0  0  0  0  0  0  0  0
  152.8429  139.8182  155.9075 O   0  0  0  0  0  0  0  0  0  0  0  0
  150.5772  138.9800  155.9329 C   0  0  0  0  0  0  0  0  0  0  0  0
  150.1405  137.7937  156.7017 N   0  0  0  0  0  0  0  0  0  0  0  0
  149.5144  137.9918  157.9588 C   0  0  0  0  0  0  0  0  0  0  0  0
  149.3121  139.1260  158.3958 O   0  0  0  0  0  0  0  0  0  0  0  0
  149.1531  136.7737  158.6804 C   0  0  0  0  0  0  0  0  0  0  0  0
  148.5478  136.9312  159.9611 C   0  0  0  0  0  0  0  0  0  0  0  0
  148.0462  137.0802  160.9935 N   0  0  0  0  0  0  0  0  0  0  0  0
  149.3914  135.5559  158.1513 C   0  0  0  0  0  0  0  0  0  0  0  0
  149.9670  135.3861  156.9109 N   0  0  0  0  0  0  0  0  0  0  0  0
  150.3573  134.0879  156.4376 C   0  0  0  0  0  0  0  0  0  0  0  0
  150.0000  133.6481  155.0312 C   0  0  0  0  0  0  0  0  0  0  0  0
  149.2926  133.0362  156.2154 C   0  0  0  0  0  0  0  0  0  0  0  0
  150.4056  136.5071  156.1729 C   0  0  0  0  0  0  0  0  0  0  0  0
  151.0114  136.3721  155.1067 O   0  0  0  0  0  0  0  0  0  0  0  0
  152.4418  143.3759  157.2225 H   0  0  0  0  0  0  0  0  0  0  0  0
  151.2197  144.0940  158.2676 H   0  0  0  0  0  0  0  0  0  0  0  0
  150.8235  142.6849  157.3004 H   0  0  0  0  0  0  0  0  0  0  0  0
  151.1867  142.0367  159.6665 H   0  0  0  0  0  0  0  0  0  0  0  0
  153.9578  143.2606  159.3415 H   0  0  0  0  0  0  0  0  0  0  0  0
  152.6623  143.8994  160.3229 H   0  0  0  0  0  0  0  0  0  0  0  0
  154.3051  142.6336  161.7023 H   0  0  0  0  0  0  0  0  0  0  0  0
  152.7146  141.9146  161.7883 H   0  0  0  0  0  0  0  0  0  0  0  0
  155.0384  140.9472  160.0512 H   0  0  0  0  0  0  0  0  0  0  0  0
  154.4132  140.1455  161.4729 H   0  0  0  0  0  0  0  0  0  0  0  0
  153.5581  139.0950  159.3828 H   0  0  0  0  0  0  0  0  0  0  0  0
  152.2544  139.7274  160.3574 H   0  0  0  0  0  0  0  0  0  0  0  0
  153.4918  141.0956  157.9180 H   0  0  0  0  0  0  0  0  0  0  0  0
  150.7345  140.0155  158.2325 H   0  0  0  0  0  0  0  0  0  0  0  0
  149.7647  139.7016  155.8344 H   0  0  0  0  0  0  0  0  0  0  0  0
  150.8162  138.7103  154.9028 H   0  0  0  0  0  0  0  0  0  0  0  0
  149.1164  134.6775  158.7173 H   0  0  0  0  0  0  0  0  0  0  0  0
  151.3089  133.7227  156.8200 H   0  0  0  0  0  0  0  0  0  0  0  0
  149.4240  134.3296  154.4080 H   0  0  0  0  0  0  0  0  0  0  0  0
  150.7224  133.0306  154.5014 H   0  0  0  0  0  0  0  0  0  0  0  0
  149.5412  132.0089  156.4733 H   0  0  0  0  0  0  0  0  0  0  0  0
  148.2531  133.3171  156.3737 H   0  0  0  0  0  0  0  0  0  0  0  0
  1  2  1  0  0  0  0
  1 25  1  0  0  0  0
  1 26  1  0  0  0  0
  1 27  1  0  0  0  0
  2  7  1  0  0  0  0
  2  3  1  0  0  0  0
  2 28  1  0  0  0  0
  3  4  1  0  0  0  0
  3 29  1  0  0  0  0
  3 30  1  0  0  0  0
  4  5  1  0  0  0  0
  4 31  1  0  0  0  0
  4 32  1  0  0  0  0
  5  6  1  0  0  0  0
  5 33  1  0  0  0  0
  5 34  1  0  0  0  0
  6  7  1  0  0  0  0
  6 35  1  0  0  0  0
  6 36  1  0  0  0  0
  7  8  1  0  0  0  0
  7 37  1  0  0  0  0
  8  9  1  0  0  0  0
  8 38  1  0  0  0  0
  9 10  2  0  0  0  0
  9 11  1  0  0  0  0
 11 12  1  0  0  0  0
 11 39  1  0  0  0  0
 11 40  1  0  0  0  0
 12 23  1  0  0  0  0
 12 13  1  0  0  0  0
 13 14  2  0  0  0  0
 13 15  1  0  0  0  0
 15 16  1  0  0  0  0
 15 18  2  0  0  0  0
 16 17  3  0  0  0  0
 18 19  1  0  0  0  0
 18 41  1  0  0  0  0
 19 20  1  0  0  0  0
 19 23  1  0  0  0  0
 20 22  1  0  0  0  0
 20 21  1  0  0  0  0
 20 42  1  0  0  0  0
 21 22  1  0  0  0  0
 21 43  1  0  0  0  0
 21 44  1  0  0  0  0
 22 45  1  0  0  0  0
 22 46  1  0  0  0  0
 23 24  2  0  0  0  0
M  END
> <s_m_source_file>
AV-unprocessed.smi

> <i_m_source_file_index>
1964

> <i_lp_mmshare_version>
43012

> <i_f3d_flags>
0

> <s_epik_input>
W0NIM11bQ0BASF0xW0NIMl1bQ0gyXVtDSDJdW0NIMl1bQ0BIXTFbTkhdQyg9TylbQ0gyXW4yYyg9TyljKEMjTilbY0hdbihjMj1PKVtDSF0zW0NIMl1bQ0gyXTM=

> <s_epik_cmdline>
J2VwaWtfcHl0aG9uJywgJy1waCcsICc3LjAnLCAnLXRuJywgJzgnLCAnLW1hJywgJzIwMCcsICctbWV0YWxfYmluZGluZycsICctaW1hZScsICc8aW5maWxlLm1hZT4nLCAnLW9tYWUnLCAnPG91dGZpbGUubWFlPic=

> <r_lp_tautomer_probability>
1

> <r_epik_Ionization_Penalty>
1.91372e-08

> <r_epik_Ionization_Penalty_Charging>
9.0283e-11

> <r_epik_Ionization_Penalty_Neutral>
1.90469e-08

> <r_epik_State_Penalty>
-0

> <r_epik_Charging_Adjusted_Penalty>
9.0283e-11

> <i_epik_Tot_Q>
0

> <i_epik_Tot_abs_Q>
0

> <r_epik_Metal_State_Penalty>
-0

> <b_epik_Metal_Only>
0

> <s_lp_Force_Field>
OPLS_2005

> <r_lp_Energy>
35.656

> <b_lp_Chiralities_Consistent>
1

> <s_lp_Variant>
AV-unprocessed.smi:1964-1

> <Gold.Version>
5.8.1

> <Gold.Id.Protein>
6NUR|6NUR_protein|mol2

> <Gold.PLP.Fitness>
47.8428

> <Gold.PLP.PLP>
-37.1148

> <Gold.PLP.part.hbond>
-4.0000

> <Gold.PLP.part.metal>
0.0000

> <Gold.PLP.part.buried>
-5.0394

> <Gold.PLP.part.nonpolar>
-28.6328

> <Gold.PLP.part.repulsive>
0.2061

> <Gold.PLP.ligand.clash>
0.0000

> <Gold.PLP.ligand.torsion>
0.3009

> <Gold.PLP.Chemscore.Hbond>
3.7046

> <Gold.PLP.Chemscore.CHOScore>
0.0000

> <Gold.PLP.Chemscore.Metal>
0.0000

> <Gold.Chemscore.Hbonds>
donor molecule, donor type, donor heavy atom, donor atom, acceptor molecule, acceptor atom, score
      P1  H  6931  6943       L1    17  0.99
      P1  H  6934  6947       L1    17  0.57
      P1  H  7997  8008       L1    10  1.00
      P1  H 10752 10763       L1    24  0.70

> <Gold.PLP.Chemscore.Internal.Correction>
0.2160

> <Gold.Rescore>
     Score         DG    S(hbond)    S(metal)    S(lipo)     H(rot)  DE(clash)    DE(int)     intcor
     20.53     -23.02       3.25        0.00      94.56       1.70       0.41       2.08       ----

> <Gold.Chemscore.Fitness>
20.5320

> <Gold.Chemscore.DG>
-23.0225

> <Gold.Chemscore.ZeroCoef>
-5.4800

> <Gold.Chemscore.Hbond>
3.2458

> <Gold.Chemscore.Metal>
0.0000

> <Gold.Chemscore.Lipo>
94.5587

> <Gold.Chemscore.Internal_Hbond>
0.0000

> <Gold.Chemscore.DEClash>
0.4131

> <Gold.Chemscore.DEInternal>
2.0774

> <Gold.Chemscore.Rot>
1.7038

> <Gold.Chemscore.Internal.Correction>
   9.000000E+99

> <Gold.Chemscore.Hbonds>
donor molecule, donor type, donor heavy atom, donor atom, acceptor molecule, acceptor atom, score
      P1  H  6931  6943       L1    17  0.57
      P1  H  6934  6947       L1    17  0.28
      P1  H  7997  8008       L1    10  0.98
      P1  H 10752 10763       L1    24  0.71

> <Gold.Chemscore.Hbond.Weighted>
-10.8409

> <Gold.Chemscore.Metal.Weighted>
-0.0000

> <Gold.Chemscore.Lipo.Weighted>
-11.0634

> <Gold.Chemscore.Internal_Hbond.Weighted>
0.0000

> <Gold.Chemscore.DEClash.Weighted>
0.4131

> <Gold.Chemscore.DEInternal.Weighted>
2.0774

> <Gold.Chemscore.Rot.Weighted>
4.3618

> <Gold.Chemscore.Internal.Correction.Weighted>
   9.000000E+99

> <Gold.Protein.RotatedTorsions>
[ 6907 6896 6895 6894 ] final   25.43 input  -60.11 | X-H torsion
[ 7974 7965 7964 7962 ] final  -29.93 input  175.53 | X-H torsion
[ 8008 7997 7996 7995 ] final  -44.69 input   59.86 | X-H torsion
[ 10167 10162 10161 10158 ] final  156.13 input  -65.29 | X-H torsion
[ 10718 10713 10712 10709 ] final  -86.02 input   66.30 | X-H torsion
[ 10763 10752 10751 10750 ] final   51.79 input  -60.55 | X-H torsion
[ 11005 11000 10999 10996 ] final   49.84 input  -57.11 | X-H torsion

> <Gold.Protein.ActiveResidues>
 VAL166  LYS551  ARG553  GLY616  TRP617  ASP618  TYR619  PRO620  LYS621  CYS622 
 ASP623  PHE694  ASN695  SER759  ASP760  ASP761  ALA762  ILE779  LEU786  VAL792 
 PHE793  MET794  SER795  GLU796  ALA797  LYS798  CYS799  TRP800  GLU811  SER814 

> <Gold.Protein.RotatedAtoms>
  151.9724  135.0070  160.0553 H   0  0  0  0  0  0  0  0  0  0  0  0  # atno 6907 bound_to 6896
  152.1771  133.4677  159.4947 H   0  0  0  0  0  0  0  0  0  0  0  0  # atno 6908 bound_to 6896
  150.6911  134.1798  159.4287 H   0  0  0  0  0  0  0  0  0  0  0  0  # atno 6909 bound_to 6896
  146.1180  140.5476  142.8748 H   0  0  0  0  0  0  0  0  0  0  0  0  # atno 7974 bound_to 7965
  154.3998  140.1416  156.3725 H   0  0  0  0  0  0  0  0  0  0  0  0  # atno 8008 bound_to 7997
  155.8080  140.3474  155.5420 H   0  0  0  0  0  0  0  0  0  0  0  0  # atno 8009 bound_to 7997
  155.8416  140.0927  157.1721 H   0  0  0  0  0  0  0  0  0  0  0  0  # atno 8010 bound_to 7997
  139.4821  144.5036  151.8131 H   0  0  0  0  0  0  0  0  0  0  0  0  # atno 10167 bound_to 10162
  155.9992  130.4751  150.4652 H   0  0  0  0  0  0  0  0  0  0  0  0  # atno 10718 bound_to 10713
  152.9786  135.5834  154.4473 H   0  0  0  0  0  0  0  0  0  0  0  0  # atno 10763 bound_to 10752
  154.4067  135.2769  155.2065 H   0  0  0  0  0  0  0  0  0  0  0  0  # atno 10764 bound_to 10752
  154.3872  135.6133  153.5877 H   0  0  0  0  0  0  0  0  0  0  0  0  # atno 10765 bound_to 10752
  140.1068  134.5007  155.8712 H   0  0  0  0  0  0  0  0  0  0  0  0  # atno 11005 bound_to 11000
  144.7571  140.5333  143.6761 LP  0  0  0  0  0  0  0  0  0  0  0  0  # atno 17320 bound_to 7965
  145.5526  139.1477  143.3386 LP  0  0  0  0  0  0  0  0  0  0  0  0  # atno 17321 bound_to 7965
  140.4532  144.1826  150.5899 LP  0  0  0  0  0  0  0  0  0  0  0  0  # atno 17342 bound_to 10162
  140.4563  143.2466  151.9280 LP  0  0  0  0  0  0  0  0  0  0  0  0  # atno 17343 bound_to 10162
  157.2672  131.0579  151.2283 LP  0  0  0  0  0  0  0  0  0  0  0  0  # atno 17370 bound_to 10713
  157.3376  130.7017  149.6362 LP  0  0  0  0  0  0  0  0  0  0  0  0  # atno 17371 bound_to 10713
  141.2120  133.6714  156.6627 LP  0  0  0  0  0  0  0  0  0  0  0  0  # atno 17394 bound_to 11000
  140.3144  134.8059  157.4202 LP  0  0  0  0  0  0  0  0  0  0  0  0  # atno 17395 bound_to 11000

$$$$
