AV-unprocessed.smi:1260|AV-procd|sdf|5293|dock5
  -GOLD-   22720 4413D 1   1.00000     0.00000
 Structure written by MMmdl.
 37 39  0  0  0  0  0  0  0  0  2 V2000
  150.2623  140.4063  154.6135 O   0  0  0  0  0  0  0  0  0  0  0  0
  149.5279  141.3330  154.9539 C   0  0  0  0  0  0  0  0  0  0  0  0
  148.2949  141.6761  154.1190 C   0  0  0  0  0  0  0  0  0  0  0  0
  147.1371  141.8654  154.9723 N   0  0  0  0  0  0  0  0  0  0  0  0
  145.8310  141.8297  154.6996 C   0  0  0  0  0  0  0  0  0  0  0  0
  145.0990  142.0390  155.7827 N   0  0  0  0  0  0  0  0  0  0  0  0
  146.0491  142.2150  156.7750 N   0  0  0  0  0  0  0  0  0  0  0  0
  147.2602  142.1116  156.3003 N   0  0  0  0  0  0  0  0  0  0  0  0
  149.7540  142.0998  156.0323 N   0  0  0  0  0  0  0  0  0  0  0  0
  150.8992  141.9726  156.9293 C   0  0  2  0  0  0  0  0  0  0  0  0
  151.2925  140.5135  157.1976 C   0  0  0  0  0  0  0  0  0  0  0  0
  151.7341  140.4743  158.6745 C   0  0  0  0  0  0  0  0  0  0  0  0
  151.6319  141.8601  159.1889 N   0  3  1  0  0  0  0  0  0  0  0  0
  152.9518  142.5502  159.2007 C   0  0  0  0  0  0  0  0  0  0  0  0
  152.8211  144.0491  159.5012 C   0  0  0  0  0  0  0  0  0  0  0  0
  151.8998  144.7155  158.4764 C   0  0  0  0  0  0  0  0  0  0  0  0
  150.5265  144.0386  158.5146 C   0  0  0  0  0  0  0  0  0  0  0  0
  150.6025  142.5047  158.3377 C   0  0  1  0  0  0  0  0  0  0  0  0
  148.4749  142.5862  153.5446 H   0  0  0  0  0  0  0  0  0  0  0  0
  148.0811  140.8797  153.4047 H   0  0  0  0  0  0  0  0  0  0  0  0
  145.4203  141.6452  153.7180 H   0  0  0  0  0  0  0  0  0  0  0  0
  149.0919  142.8342  156.2380 H   0  0  0  0  0  0  0  0  0  0  0  0
  151.7674  142.4873  156.5142 H   0  0  0  0  0  0  0  0  0  0  0  0
  150.4477  139.8393  157.0489 H   0  0  0  0  0  0  0  0  0  0  0  0
  152.0898  140.1915  156.5266 H   0  0  0  0  0  0  0  0  0  0  0  0
  151.0512  139.8434  159.2447 H   0  0  0  0  0  0  0  0  0  0  0  0
  152.7348  140.0567  158.7969 H   0  0  0  0  0  0  0  0  0  0  0  0
  153.5914  142.0786  159.9476 H   0  0  0  0  0  0  0  0  0  0  0  0
  153.4492  142.4185  158.2386 H   0  0  0  0  0  0  0  0  0  0  0  0
  152.4280  144.1955  160.5082 H   0  0  0  0  0  0  0  0  0  0  0  0
  153.8043  144.5199  159.4793 H   0  0  0  0  0  0  0  0  0  0  0  0
  151.8000  145.7792  158.6948 H   0  0  0  0  0  0  0  0  0  0  0  0
  152.3303  144.6414  157.4770 H   0  0  0  0  0  0  0  0  0  0  0  0
  150.0638  144.2540  159.4788 H   0  0  0  0  0  0  0  0  0  0  0  0
  149.8672  144.4798  157.7671 H   0  0  0  0  0  0  0  0  0  0  0  0
  149.6394  142.0951  158.6501 H   0  0  0  0  0  0  0  0  0  0  0  0
  151.2973  141.8399  160.1418 H   0  0  0  0  0  0  0  0  0  0  0  0
  1  2  2  0  0  0  0
  2  3  1  0  0  0  0
  2  9  1  0  0  0  0
  3  4  1  0  0  0  0
  3 19  1  0  0  0  0
  3 20  1  0  0  0  0
  4  8  1  0  0  0  0
  4  5  1  0  0  0  0
  5  6  2  0  0  0  0
  5 21  1  0  0  0  0
  6  7  1  0  0  0  0
  7  8  2  0  0  0  0
  9 10  1  0  0  0  0
  9 22  1  0  0  0  0
 10 18  1  0  0  0  0
 10 11  1  0  0  0  0
 10 23  1  0  0  0  0
 11 12  1  0  0  0  0
 11 24  1  0  0  0  0
 11 25  1  0  0  0  0
 12 13  1  0  0  0  0
 12 26  1  0  0  0  0
 12 27  1  0  0  0  0
 13 18  1  0  0  0  0
 13 14  1  0  0  0  0
 13 37  1  0  0  0  0
 14 15  1  0  0  0  0
 14 28  1  0  0  0  0
 14 29  1  0  0  0  0
 15 16  1  0  0  0  0
 15 30  1  0  0  0  0
 15 31  1  0  0  0  0
 16 17  1  0  0  0  0
 16 32  1  0  0  0  0
 16 33  1  0  0  0  0
 17 18  1  0  0  0  0
 17 34  1  0  0  0  0
 17 35  1  0  0  0  0
 18 36  1  0  0  0  0
M  CHG  1  13   1
M  END
> <s_m_source_file>
AV-unprocessed.smi

> <i_m_source_file_index>
1260

> <i_lp_mmshare_version>
43012

> <i_f3d_flags>
0

> <s_epik_input>
bjFubltjSF1uMVtDSDJdQyg9TylbTkhdW0NASF0oW0NIMl1bQ0gyXTIpW0NAQEhdKE4yMylbQ0gyXVtDSDJdW0NIMl1bQ0gyXTM=

> <s_epik_cmdline>
J2VwaWtfcHl0aG9uJywgJy1waCcsICc3LjAnLCAnLXRuJywgJzgnLCAnLW1hJywgJzIwMCcsICctbWV0YWxfYmluZGluZycsICctaW1hZScsICc8aW5maWxlLm1hZT4nLCAnLW9tYWUnLCAnPG91dGZpbGUubWFlPic=

> <r_lp_tautomer_probability>
1

> <r_epik_Ionization_Penalty>
0.00234324

> <r_epik_Ionization_Penalty_Charging>
0.00233897

> <r_epik_Ionization_Penalty_Neutral>
4.26861e-06

> <r_epik_State_Penalty>
0.00161477

> <r_epik_Charging_Adjusted_Penalty>
0.00395374

> <i_epik_Tot_Q>
1

> <i_epik_Tot_abs_Q>
1

> <r_epik_Metal_State_Penalty>
-0

> <b_epik_Metal_Only>
0

> <s_lp_Force_Field>
OPLS_2005

> <r_lp_Energy>
39.6077

> <b_lp_Chiralities_Consistent>
1

> <s_lp_Variant>
AV-unprocessed.smi:1260-1

> <Gold.Version>
5.8.1

> <Gold.Id.Protein>
6NUR|6NUR_protein|mol2

> <Gold.PLP.Fitness>
41.8882

> <Gold.PLP.PLP>
-35.7948

> <Gold.PLP.part.hbond>
-2.0000

> <Gold.PLP.part.metal>
0.0000

> <Gold.PLP.part.buried>
-5.4236

> <Gold.PLP.part.nonpolar>
-29.6379

> <Gold.PLP.part.repulsive>
0.7886

> <Gold.PLP.ligand.clash>
0.0000

> <Gold.PLP.ligand.torsion>
0.7475

> <Gold.PLP.Chemscore.Hbond>
1.7040

> <Gold.PLP.Chemscore.CHOScore>
0.8214

> <Gold.PLP.Chemscore.Metal>
0.0000

> <Gold.Chemscore.Hbonds>
donor molecule, donor type, donor heavy atom, donor atom, acceptor molecule, acceptor atom, score
      L1  H     9    22       P1  8028  0.70
      P1  H  7989  7998       L1     1  1.00
      L1  C     5    21       P1 10175  0.82

> <Gold.PLP.Chemscore.Internal.Correction>
0.0123

> <Gold.Rescore>
     Score         DG    S(hbond)    S(metal)    S(lipo)     H(rot)  DE(clash)    DE(int)     intcor
     13.71     -15.79       1.58        0.00      86.16       1.98       0.08       1.99       ----

> <Gold.Chemscore.Fitness>
13.7130

> <Gold.Chemscore.DG>
-15.7881

> <Gold.Chemscore.ZeroCoef>
-5.4800

> <Gold.Chemscore.Hbond>
1.5822

> <Gold.Chemscore.Metal>
0.0000

> <Gold.Chemscore.Lipo>
86.1641

> <Gold.Chemscore.Internal_Hbond>
0.0000

> <Gold.Chemscore.DEClash>
0.0811

> <Gold.Chemscore.DEInternal>
1.9940

> <Gold.Chemscore.Rot>
1.9757

> <Gold.Chemscore.Internal.Correction>
   9.000000E+99

> <Gold.Chemscore.Hbonds>
donor molecule, donor type, donor heavy atom, donor atom, acceptor molecule, acceptor atom, score
      L1  H     9    22       P1  8028  0.68
      P1  H  7989  7998       L1     1  0.86

> <Gold.Chemscore.Hbond.Weighted>
-5.2847

> <Gold.Chemscore.Metal.Weighted>
-0.0000

> <Gold.Chemscore.Lipo.Weighted>
-10.0812

> <Gold.Chemscore.Internal_Hbond.Weighted>
0.0000

> <Gold.Chemscore.DEClash.Weighted>
0.0811

> <Gold.Chemscore.DEInternal.Weighted>
1.9940

> <Gold.Chemscore.Rot.Weighted>
5.0578

> <Gold.Chemscore.Internal.Correction.Weighted>
   9.000000E+99

> <Gold.Protein.RotatedTorsions>
[ 6907 6896 6895 6894 ] final  150.78 input  -60.11 | X-H torsion
[ 7974 7965 7964 7962 ] final   15.62 input  175.53 | X-H torsion
[ 8008 7997 7996 7995 ] final  172.96 input   59.86 | X-H torsion
[ 10167 10162 10161 10158 ] final   30.01 input  -65.29 | X-H torsion
[ 10718 10713 10712 10709 ] final  -97.47 input   66.30 | X-H torsion
[ 10763 10752 10751 10750 ] final  -20.34 input  -60.55 | X-H torsion
[ 11005 11000 10999 10996 ] final -179.87 input  -57.11 | X-H torsion

> <Gold.Protein.ActiveResidues>
 VAL166  LYS551  ARG553  GLY616  TRP617  ASP618  TYR619  PRO620  LYS621  CYS622 
 ASP623  PHE694  ASN695  SER759  ASP760  ASP761  ALA762  ILE779  LEU786  VAL792 
 PHE793  MET794  SER795  GLU796  ALA797  LYS798  CYS799  TRP800  GLU811  SER814 

> <Gold.Protein.RotatedAtoms>
  152.1098  133.4294  159.4625 H   0  0  0  0  0  0  0  0  0  0  0  0  # atno 6907 bound_to 6896
  150.6867  134.2662  159.4578 H   0  0  0  0  0  0  0  0  0  0  0  0  # atno 6908 bound_to 6896
  152.0530  134.9641  160.0625 H   0  0  0  0  0  0  0  0  0  0  0  0  # atno 6909 bound_to 6896
  146.2273  139.8867  142.8561 H   0  0  0  0  0  0  0  0  0  0  0  0  # atno 7974 bound_to 7965
  156.1123  140.1472  156.9321 H   0  0  0  0  0  0  0  0  0  0  0  0  # atno 8008 bound_to 7997
  154.4776  140.0889  156.7342 H   0  0  0  0  0  0  0  0  0  0  0  0  # atno 8009 bound_to 7997
  155.4574  140.3437  155.4310 H   0  0  0  0  0  0  0  0  0  0  0  0  # atno 8010 bound_to 7997
  140.4716  144.0754  150.6239 H   0  0  0  0  0  0  0  0  0  0  0  0  # atno 10167 bound_to 10162
  156.0084  130.5195  150.6379 H   0  0  0  0  0  0  0  0  0  0  0  0  # atno 10718 bound_to 10713
  153.6189  135.6993  153.5318 H   0  0  0  0  0  0  0  0  0  0  0  0  # atno 10763 bound_to 10752
  153.2954  135.4144  155.1204 H   0  0  0  0  0  0  0  0  0  0  0  0  # atno 10764 bound_to 10752
  154.8547  135.3635  154.5730 H   0  0  0  0  0  0  0  0  0  0  0  0  # atno 10765 bound_to 10752
  140.4138  134.6667  157.4628 H   0  0  0  0  0  0  0  0  0  0  0  0  # atno 11005 bound_to 11000
  145.2458  141.0026  143.3909 LP  0  0  0  0  0  0  0  0  0  0  0  0  # atno 17320 bound_to 7965
  144.9414  139.4184  143.6447 LP  0  0  0  0  0  0  0  0  0  0  0  0  # atno 17321 bound_to 7965
  140.3970  143.2723  151.9993 LP  0  0  0  0  0  0  0  0  0  0  0  0  # atno 17342 bound_to 10162
  139.4819  144.6029  151.7572 LP  0  0  0  0  0  0  0  0  0  0  0  0  # atno 17343 bound_to 10162
  157.4164  131.0831  151.1172 LP  0  0  0  0  0  0  0  0  0  0  0  0  # atno 17370 bound_to 10713
  157.1788  130.6300  149.5665 LP  0  0  0  0  0  0  0  0  0  0  0  0  # atno 17371 bound_to 10713
  140.0248  134.6493  155.9188 LP  0  0  0  0  0  0  0  0  0  0  0  0  # atno 17394 bound_to 11000
  141.1811  133.6546  156.5022 LP  0  0  0  0  0  0  0  0  0  0  0  0  # atno 17395 bound_to 11000

$$$$
