AV-unprocessed.smi:3337|AV-procd|sdf|12868|dock8
  -GOLD-   2272019263D 1   1.00000     0.00000
 Structure written by MMmdl.
 46 47  0  0  0  0  0  0  0  0  2 V2000
  145.8017  132.1487  149.4874 C   0  0  0  0  0  0  0  0  0  0  0  0
  145.3561  132.1894  150.9598 C   0  0  1  0  0  0  0  0  0  0  0  0
  145.0190  130.7970  151.5236 C   0  0  0  0  0  0  0  0  0  0  0  0
  146.2878  129.9652  151.7835 C   0  0  2  0  0  0  0  0  0  0  0  0
  145.9454  128.6047  152.4069 C   0  0  0  0  0  0  0  0  0  0  0  0
  147.2747  130.7565  152.6637 C   0  0  0  0  0  0  0  0  0  0  0  0
  147.6041  132.0744  152.0611 N   0  3  2  0  0  0  0  0  0  0  0  0
  148.6773  132.7799  152.8063 C   0  0  0  0  0  0  0  0  0  0  0  0
  148.1864  133.3435  154.1537 C   0  0  0  0  0  0  0  0  0  0  0  0
  149.2330  134.0989  154.8313 N   0  0  0  0  0  0  0  0  0  0  0  0
  149.1186  135.3711  155.2467 C   0  0  0  0  0  0  0  0  0  0  0  0
  148.1066  136.0452  155.0509 O   0  0  0  0  0  0  0  0  0  0  0  0
  150.3338  135.9662  155.9823 C   0  0  1  0  0  0  0  0  0  0  0  0
  151.4592  134.9392  156.2198 C   0  0  0  0  0  0  0  0  0  0  0  0
  150.8336  137.1510  155.2940 N   0  0  0  0  0  0  0  0  0  0  0  0
  150.2164  138.2961  154.9945 C   0  0  0  0  0  0  0  0  0  0  0  0
  150.9737  139.1584  154.3310 N   0  0  0  0  0  0  0  0  0  0  0  0
  152.1277  138.4322  154.2480 C   0  0  0  0  0  0  0  0  0  0  0  0
  152.0968  137.2212  154.8040 N   0  0  0  0  0  0  0  0  0  0  0  0
  146.3839  132.9017  151.8607 C   0  0  0  0  0  0  0  0  0  0  0  0
  146.7359  131.6027  149.3571 H   0  0  0  0  0  0  0  0  0  0  0  0
  145.9540  133.1559  149.0980 H   0  0  0  0  0  0  0  0  0  0  0  0
  145.0474  131.6687  148.8631 H   0  0  0  0  0  0  0  0  0  0  0  0
  144.4382  132.7782  150.9844 H   0  0  0  0  0  0  0  0  0  0  0  0
  144.4710  130.9168  152.4594 H   0  0  0  0  0  0  0  0  0  0  0  0
  144.3485  130.2677  150.8453 H   0  0  0  0  0  0  0  0  0  0  0  0
  146.7723  129.7668  150.8269 H   0  0  0  0  0  0  0  0  0  0  0  0
  145.4587  128.7220  153.3756 H   0  0  0  0  0  0  0  0  0  0  0  0
  146.8425  128.0031  152.5558 H   0  0  0  0  0  0  0  0  0  0  0  0
  145.2729  128.0366  151.7636 H   0  0  0  0  0  0  0  0  0  0  0  0
  146.8601  130.9071  153.6619 H   0  0  0  0  0  0  0  0  0  0  0  0
  148.1884  130.1731  152.7855 H   0  0  0  0  0  0  0  0  0  0  0  0
  149.5282  132.1122  152.9514 H   0  0  0  0  0  0  0  0  0  0  0  0
  149.0391  133.6119  152.2001 H   0  0  0  0  0  0  0  0  0  0  0  0
  147.3058  133.9720  154.0078 H   0  0  0  0  0  0  0  0  0  0  0  0
  147.8856  132.5420  154.8268 H   0  0  0  0  0  0  0  0  0  0  0  0
  150.0965  133.6124  155.0258 H   0  0  0  0  0  0  0  0  0  0  0  0
  149.9770  136.2901  156.9612 H   0  0  0  0  0  0  0  0  0  0  0  0
  151.1016  134.0844  156.7948 H   0  0  0  0  0  0  0  0  0  0  0  0
  152.2807  135.3865  156.7806 H   0  0  0  0  0  0  0  0  0  0  0  0
  151.8687  134.5609  155.2823 H   0  0  0  0  0  0  0  0  0  0  0  0
  149.1909  138.5025  155.2646 H   0  0  0  0  0  0  0  0  0  0  0  0
  153.0152  138.8051  153.7585 H   0  0  0  0  0  0  0  0  0  0  0  0
  146.6357  133.8651  151.4196 H   0  0  0  0  0  0  0  0  0  0  0  0
  145.9365  133.1163  152.8327 H   0  0  0  0  0  0  0  0  0  0  0  0
  147.9792  131.8759  151.1444 H   0  0  0  0  0  0  0  0  0  0  0  0
  1  2  1  0  0  0  0
  1 21  1  0  0  0  0
  1 22  1  0  0  0  0
  1 23  1  0  0  0  0
  2 20  1  0  0  0  0
  2  3  1  0  0  0  0
  2 24  1  0  0  0  0
  3  4  1  0  0  0  0
  3 25  1  0  0  0  0
  3 26  1  0  0  0  0
  4  5  1  0  0  0  0
  4  6  1  0  0  0  0
  4 27  1  0  0  0  0
  5 28  1  0  0  0  0
  5 29  1  0  0  0  0
  5 30  1  0  0  0  0
  6  7  1  0  0  0  0
  6 31  1  0  0  0  0
  6 32  1  0  0  0  0
  7  8  1  0  0  0  0
  7 20  1  0  0  0  0
  7 46  1  0  0  0  0
  8  9  1  0  0  0  0
  8 33  1  0  0  0  0
  8 34  1  0  0  0  0
  9 10  1  0  0  0  0
  9 35  1  0  0  0  0
  9 36  1  0  0  0  0
 10 11  1  0  0  0  0
 10 37  1  0  0  0  0
 11 12  2  0  0  0  0
 11 13  1  0  0  0  0
 13 14  1  0  0  0  0
 13 15  1  0  0  0  0
 13 38  1  0  0  0  0
 14 39  1  0  0  0  0
 14 40  1  0  0  0  0
 14 41  1  0  0  0  0
 15 19  1  0  0  0  0
 15 16  1  0  0  0  0
 16 17  2  0  0  0  0
 16 42  1  0  0  0  0
 17 18  1  0  0  0  0
 18 19  2  0  0  0  0
 18 43  1  0  0  0  0
 20 44  1  0  0  0  0
 20 45  1  0  0  0  0
M  CHG  1   7   1
M  END
> <s_m_source_file>
AV-unprocessed.smi

> <i_m_source_file_index>
3337

> <i_lp_mmshare_version>
43012

> <i_f3d_flags>
0

> <s_epik_input>
W0NIM11bQ0BASF0xW0NIMl1bQ0BASF0oW0NIM10pW0NIMl1OKFtDSDJdMSlbQ0gyXVtDSDJdW05IXUMoPU8pW0NASF0oW0NIM10pbjJbY0hdbltjSF1uMg==

> <s_epik_cmdline>
J2VwaWtfcHl0aG9uJywgJy1waCcsICc3LjAnLCAnLXRuJywgJzgnLCAnLW1hJywgJzIwMCcsICctbWV0YWxfYmluZGluZycsICctaW1hZScsICc8aW5maWxlLm1hZT4nLCAnLW9tYWUnLCAnPG91dGZpbGUubWFlPic=

> <r_lp_tautomer_probability>
1

> <r_epik_Ionization_Penalty>
0.00175613

> <r_epik_Ionization_Penalty_Charging>
0.00174812

> <r_epik_Ionization_Penalty_Neutral>
8.01354e-06

> <r_epik_State_Penalty>
0.00118332

> <r_epik_Charging_Adjusted_Penalty>
0.00293143

> <i_epik_Tot_Q>
1

> <i_epik_Tot_abs_Q>
1

> <r_epik_Metal_State_Penalty>
-0

> <b_epik_Metal_Only>
0

> <s_lp_Force_Field>
OPLS_2005

> <r_lp_Energy>
24.7561

> <b_lp_Chiralities_Consistent>
1

> <s_lp_Variant>
AV-unprocessed.smi:3337-8

> <Gold.Version>
5.8.1

> <Gold.Id.Protein>
6NUR|6NUR_protein|mol2

> <Gold.PLP.Fitness>
45.0784

> <Gold.PLP.PLP>
-36.4463

> <Gold.PLP.part.hbond>
-3.0000

> <Gold.PLP.part.metal>
0.0000

> <Gold.PLP.part.buried>
-4.3837

> <Gold.PLP.part.nonpolar>
-28.8765

> <Gold.PLP.part.repulsive>
0.3581

> <Gold.PLP.ligand.clash>
0.0000

> <Gold.PLP.ligand.torsion>
0.1307

> <Gold.PLP.Chemscore.Hbond>
2.9280

> <Gold.PLP.Chemscore.CHOScore>
0.0000

> <Gold.PLP.Chemscore.Metal>
0.0000

> <Gold.Chemscore.Hbonds>
donor molecule, donor type, donor heavy atom, donor atom, acceptor molecule, acceptor atom, score
      L1  H     7    46       P1 10747  0.90
      P1  H  7989  7998       L1    17  0.90
      P1  H 10752 10765       L1    19  0.86

> <Gold.PLP.Chemscore.Internal.Correction>
0.1094

> <Gold.Rescore>
     Score         DG    S(hbond)    S(metal)    S(lipo)     H(rot)  DE(clash)    DE(int)     intcor
     16.40     -16.98       2.71        0.00      76.00       2.51       0.23       0.36       ----

> <Gold.Chemscore.Fitness>
16.3989

> <Gold.Chemscore.DG>
-16.9829

> <Gold.Chemscore.ZeroCoef>
-5.4800

> <Gold.Chemscore.Hbond>
2.7077

> <Gold.Chemscore.Metal>
0.0000

> <Gold.Chemscore.Lipo>
76.0018

> <Gold.Chemscore.Internal_Hbond>
0.0000

> <Gold.Chemscore.DEClash>
0.2284

> <Gold.Chemscore.DEInternal>
0.3555

> <Gold.Chemscore.Rot>
2.5129

> <Gold.Chemscore.Internal.Correction>
   9.000000E+99

> <Gold.Chemscore.Hbonds>
donor molecule, donor type, donor heavy atom, donor atom, acceptor molecule, acceptor atom, score
      L1  H     7    46       P1 10747  0.88
      P1  H  7989  7998       L1    17  0.17
      P1  H 10752 10765       L1    19  0.82

> <Gold.Chemscore.Hbond.Weighted>
-9.0437

> <Gold.Chemscore.Metal.Weighted>
-0.0000

> <Gold.Chemscore.Lipo.Weighted>
-8.8922

> <Gold.Chemscore.Internal_Hbond.Weighted>
0.0000

> <Gold.Chemscore.DEClash.Weighted>
0.2284

> <Gold.Chemscore.DEInternal.Weighted>
0.3555

> <Gold.Chemscore.Rot.Weighted>
6.4331

> <Gold.Chemscore.Internal.Correction.Weighted>
   9.000000E+99

> <Gold.Protein.RotatedTorsions>
[ 6907 6896 6895 6894 ] final   17.39 input  -60.11 | X-H torsion
[ 7974 7965 7964 7962 ] final  -98.42 input  175.53 | X-H torsion
[ 8008 7997 7996 7995 ] final  107.58 input   59.86 | X-H torsion
[ 10167 10162 10161 10158 ] final  -52.20 input  -65.29 | X-H torsion
[ 10718 10713 10712 10709 ] final  -10.21 input   66.30 | X-H torsion
[ 10763 10752 10751 10750 ] final  175.12 input  -60.55 | X-H torsion
[ 11005 11000 10999 10996 ] final  154.93 input  -57.11 | X-H torsion

> <Gold.Protein.ActiveResidues>
 VAL166  LYS551  ARG553  GLY616  TRP617  ASP618  TYR619  PRO620  LYS621  CYS622 
 ASP623  PHE694  ASN695  SER759  ASP760  ASP761  ALA762  ILE779  LEU786  VAL792 
 PHE793  MET794  SER795  GLU796  ALA797  LYS798  CYS799  TRP800  GLU811  SER814 

> <Gold.Protein.RotatedAtoms>
  151.8489  135.0564  160.0456 H   0  0  0  0  0  0  0  0  0  0  0  0  # atno 6907 bound_to 6896
  152.2751  133.5414  159.5471 H   0  0  0  0  0  0  0  0  0  0  0  0  # atno 6908 bound_to 6896
  150.7167  134.0559  159.3856 H   0  0  0  0  0  0  0  0  0  0  0  0  # atno 6909 bound_to 6896
  145.3208  140.9421  143.2716 H   0  0  0  0  0  0  0  0  0  0  0  0  # atno 7974 bound_to 7965
  156.1836  140.3092  155.9195 H   0  0  0  0  0  0  0  0  0  0  0  0  # atno 8008 bound_to 7997
  155.3331  140.0462  157.3060 H   0  0  0  0  0  0  0  0  0  0  0  0  # atno 8009 bound_to 7997
  154.5370  140.2249  155.8716 H   0  0  0  0  0  0  0  0  0  0  0  0  # atno 8010 bound_to 7997
  140.6550  143.2592  151.4613 H   0  0  0  0  0  0  0  0  0  0  0  0  # atno 10167 bound_to 10162
  156.6768  130.5025  149.5983 H   0  0  0  0  0  0  0  0  0  0  0  0  # atno 10718 bound_to 10713
  154.4632  135.2768  155.1697 H   0  0  0  0  0  0  0  0  0  0  0  0  # atno 10763 bound_to 10752
  154.3476  135.6157  153.5631 H   0  0  0  0  0  0  0  0  0  0  0  0  # atno 10764 bound_to 10752
  152.9857  135.5803  154.4999 H   0  0  0  0  0  0  0  0  0  0  0  0  # atno 10765 bound_to 10752
  140.1534  134.8659  157.2484 H   0  0  0  0  0  0  0  0  0  0  0  0  # atno 11005 bound_to 11000
  144.8941  139.4736  143.6664 LP  0  0  0  0  0  0  0  0  0  0  0  0  # atno 17320 bound_to 7965
  146.3083  139.7656  142.9039 LP  0  0  0  0  0  0  0  0  0  0  0  0  # atno 17321 bound_to 7965
  139.5771  144.1795  152.1917 LP  0  0  0  0  0  0  0  0  0  0  0  0  # atno 17342 bound_to 10162
  140.1109  144.5458  150.6926 LP  0  0  0  0  0  0  0  0  0  0  0  0  # atno 17343 bound_to 10162
  156.1897  130.6552  151.1047 LP  0  0  0  0  0  0  0  0  0  0  0  0  # atno 17370 bound_to 10713
  157.7058  131.0757  150.6672 LP  0  0  0  0  0  0  0  0  0  0  0  0  # atno 17371 bound_to 10713
  140.2577  134.3608  155.7418 LP  0  0  0  0  0  0  0  0  0  0  0  0  # atno 17394 bound_to 11000
  141.2201  133.7352  156.9032 LP  0  0  0  0  0  0  0  0  0  0  0  0  # atno 17395 bound_to 11000

$$$$
