AV-unprocessed.smi:1799|AV-procd|sdf|7261|dock4
  -GOLD-   22720 8513D 1   1.00000     0.00000
 Structure written by MMmdl.
 41 42  0  0  0  0  0  0  0  0  2 V2000
  145.1237  135.3998  154.3747 C   0  0  0  0  0  0  0  0  0  0  0  0
  144.0839  135.2947  153.2375 C   0  0  0  0  0  0  0  0  0  0  0  0
  142.7080  135.1353  153.9134 C   0  0  0  0  0  0  0  0  0  0  0  0
  144.0385  136.5706  152.3599 C   0  0  0  0  0  0  0  0  0  0  0  0
  145.1623  136.6856  151.3113 C   0  0  0  0  0  0  0  0  0  0  0  0
  146.4545  137.0766  151.8715 N   0  0  0  0  0  0  0  0  0  0  0  0
  146.7404  138.2703  152.4120 C   0  0  0  0  0  0  0  0  0  0  0  0
  145.9261  139.1897  152.4929 O   0  0  0  0  0  0  0  0  0  0  0  0
  148.0122  138.3157  152.8459 N   0  0  0  0  0  0  0  0  0  0  0  0
  148.6743  139.3776  153.5170 C   0  0  0  0  0  0  0  0  0  0  0  0
  149.9111  139.2778  154.0291 N   0  0  0  0  0  0  0  0  0  0  0  0
  150.3243  140.4627  154.6238 N   0  0  0  0  0  0  0  0  0  0  0  0
  149.3847  141.4086  154.5367 C   0  0  0  0  0  0  0  0  0  0  0  0
  147.9022  140.9437  153.7199 S   0  0  0  0  0  0  0  0  0  0  0  0
  145.2574  135.3891  150.4904 C   0  0  0  0  0  0  0  0  0  0  0  0
  145.3222  134.0823  151.3235 C   0  0  0  0  0  0  0  0  0  0  0  0
  144.9822  132.9048  150.3889 C   0  0  0  0  0  0  0  0  0  0  0  0
  146.7378  133.8094  151.8784 C   0  0  0  0  0  0  0  0  0  0  0  0
  144.2983  134.0763  152.4068 N   0  3  0  0  0  0  0  0  0  0  0  0
  144.8590  136.1994  155.0676 H   0  0  0  0  0  0  0  0  0  0  0  0
  146.1283  135.6231  154.0316 H   0  0  0  0  0  0  0  0  0  0  0  0
  145.1737  134.4762  154.9527 H   0  0  0  0  0  0  0  0  0  0  0  0
  142.4654  136.0014  154.5307 H   0  0  0  0  0  0  0  0  0  0  0  0
  142.6780  134.2559  154.5581 H   0  0  0  0  0  0  0  0  0  0  0  0
  141.9090  135.0260  153.1790 H   0  0  0  0  0  0  0  0  0  0  0  0
  143.0961  136.5765  151.8098 H   0  0  0  0  0  0  0  0  0  0  0  0
  144.0012  137.4605  152.9894 H   0  0  0  0  0  0  0  0  0  0  0  0
  144.8843  137.4802  150.6162 H   0  0  0  0  0  0  0  0  0  0  0  0
  147.1901  136.3859  151.8399 H   0  0  0  0  0  0  0  0  0  0  0  0
  148.5691  137.4879  152.6942 H   0  0  0  0  0  0  0  0  0  0  0  0
  149.5664  142.3870  154.9561 H   0  0  0  0  0  0  0  0  0  0  0  0
  144.3687  135.3516  149.8582 H   0  0  0  0  0  0  0  0  0  0  0  0
  146.0989  135.4420  149.7977 H   0  0  0  0  0  0  0  0  0  0  0  0
  145.6776  132.8457  149.5504 H   0  0  0  0  0  0  0  0  0  0  0  0
  143.9785  132.9994  149.9724 H   0  0  0  0  0  0  0  0  0  0  0  0
  145.0242  131.9507  150.9163 H   0  0  0  0  0  0  0  0  0  0  0  0
  147.4476  133.6478  151.0662 H   0  0  0  0  0  0  0  0  0  0  0  0
  146.7535  132.9146  152.5016 H   0  0  0  0  0  0  0  0  0  0  0  0
  147.1416  134.6238  152.4704 H   0  0  0  0  0  0  0  0  0  0  0  0
  144.4690  133.2889  153.0159 H   0  0  0  0  0  0  0  0  0  0  0  0
  143.4176  133.9147  151.9394 H   0  0  0  0  0  0  0  0  0  0  0  0
  1  2  1  0  0  0  0
  1 20  1  0  0  0  0
  1 21  1  0  0  0  0
  1 22  1  0  0  0  0
  2 19  1  0  0  0  0
  2  3  1  0  0  0  0
  2  4  1  0  0  0  0
  3 23  1  0  0  0  0
  3 24  1  0  0  0  0
  3 25  1  0  0  0  0
  4  5  1  0  0  0  0
  4 26  1  0  0  0  0
  4 27  1  0  0  0  0
  5  6  1  0  0  0  0
  5 15  1  0  0  0  0
  5 28  1  0  0  0  0
  6  7  1  0  0  0  0
  6 29  1  0  0  0  0
  7  8  2  0  0  0  0
  7  9  1  0  0  0  0
  9 10  1  0  0  0  0
  9 30  1  0  0  0  0
 10 14  1  0  0  0  0
 10 11  2  0  0  0  0
 11 12  1  0  0  0  0
 12 13  2  0  0  0  0
 13 14  1  0  0  0  0
 13 31  1  0  0  0  0
 15 16  1  0  0  0  0
 15 32  1  0  0  0  0
 15 33  1  0  0  0  0
 16 17  1  0  0  0  0
 16 18  1  0  0  0  0
 16 19  1  0  0  0  0
 17 34  1  0  0  0  0
 17 35  1  0  0  0  0
 17 36  1  0  0  0  0
 18 37  1  0  0  0  0
 18 38  1  0  0  0  0
 18 39  1  0  0  0  0
 19 40  1  0  0  0  0
 19 41  1  0  0  0  0
M  CHG  1  19   1
M  END
> <s_m_source_file>
AV-unprocessed.smi

> <i_m_source_file_index>
1799

> <i_lp_mmshare_version>
43012

> <i_f3d_flags>
0

> <s_epik_input>
W0NIM11DMShbQ0gzXSlbQ0gyXVtDSF0oW0NIMl1DKFtDSDNdKShbQ0gzXSlbTkhdMSlbTkhdQyg9TylbTkhdYzJubltjSF1zMg==

> <s_epik_cmdline>
J2VwaWtfcHl0aG9uJywgJy1waCcsICc3LjAnLCAnLXRuJywgJzgnLCAnLW1hJywgJzIwMCcsICctbWV0YWxfYmluZGluZycsICctaW1hZScsICc8aW5maWxlLm1hZT4nLCAnLW9tYWUnLCAnPG91dGZpbGUubWFlPic=

> <r_lp_tautomer_probability>
1

> <r_epik_Ionization_Penalty>
0.000698711

> <r_epik_Ionization_Penalty_Charging>
0.000101406

> <r_epik_Ionization_Penalty_Neutral>
0.000597305

> <r_epik_State_Penalty>
-0

> <r_epik_Charging_Adjusted_Penalty>
0.000101406

> <i_epik_Tot_Q>
1

> <i_epik_Tot_abs_Q>
1

> <r_epik_Metal_State_Penalty>
0.237927

> <b_epik_Metal_Only>
0

> <s_lp_Force_Field>
OPLS_2005

> <r_lp_Energy>
25.55

> <b_lp_Chiralities_Consistent>
1

> <s_lp_Variant>
AV-unprocessed.smi:1799-1

> <Gold.Version>
5.8.1

> <Gold.Id.Protein>
6NUR|6NUR_protein|mol2

> <Gold.PLP.Fitness>
36.1721

> <Gold.PLP.PLP>
-25.1390

> <Gold.PLP.part.hbond>
-3.8484

> <Gold.PLP.part.metal>
0.0000

> <Gold.PLP.part.buried>
3.3570

> <Gold.PLP.part.nonpolar>
-27.7696

> <Gold.PLP.part.repulsive>
4.6030

> <Gold.PLP.ligand.clash>
0.0000

> <Gold.PLP.ligand.torsion>
0.1144

> <Gold.PLP.Chemscore.Hbond>
2.7480

> <Gold.PLP.Chemscore.CHOScore>
1.0000

> <Gold.PLP.Chemscore.Metal>
0.0000

> <Gold.Chemscore.Hbonds>
donor molecule, donor type, donor heavy atom, donor atom, acceptor molecule, acceptor atom, score
      L1  H     6    29       P1  7948  0.85
      L1  H     9    30       P1  7948  1.00
      P1  H  7989  7998       L1    12  0.89
      L1  C    13    31       P1  8028  1.00

> <Gold.PLP.Chemscore.Internal.Correction>
0.0178

> <Gold.Rescore>
     Score         DG    S(hbond)    S(metal)    S(lipo)     H(rot)  DE(clash)    DE(int)     intcor
     12.10     -15.77       1.90        0.00      55.60       1.00       2.38       1.29       ----

> <Gold.Chemscore.Fitness>
12.0962

> <Gold.Chemscore.DG>
-15.7693

> <Gold.Chemscore.ZeroCoef>
-5.4800

> <Gold.Chemscore.Hbond>
1.8993

> <Gold.Chemscore.Metal>
0.0000

> <Gold.Chemscore.Lipo>
55.6043

> <Gold.Chemscore.Internal_Hbond>
0.0000

> <Gold.Chemscore.DEClash>
2.3818

> <Gold.Chemscore.DEInternal>
1.2912

> <Gold.Chemscore.Rot>
1.0000

> <Gold.Chemscore.Internal.Correction>
   9.000000E+99

> <Gold.Chemscore.Hbonds>
donor molecule, donor type, donor heavy atom, donor atom, acceptor molecule, acceptor atom, score
      L1  H     6    29       P1  7948  0.83
      L1  H     9    30       P1  7948  0.89
      P1  H  7989  7998       L1    12  0.11

> <Gold.Chemscore.Hbond.Weighted>
-6.3436

> <Gold.Chemscore.Metal.Weighted>
-0.0000

> <Gold.Chemscore.Lipo.Weighted>
-6.5057

> <Gold.Chemscore.Internal_Hbond.Weighted>
0.0000

> <Gold.Chemscore.DEClash.Weighted>
2.3818

> <Gold.Chemscore.DEInternal.Weighted>
1.2912

> <Gold.Chemscore.Rot.Weighted>
2.5600

> <Gold.Chemscore.Internal.Correction.Weighted>
   9.000000E+99

> <Gold.Protein.RotatedTorsions>
[ 6907 6896 6895 6894 ] final  -49.70 input  -60.11 | X-H torsion
[ 7974 7965 7964 7962 ] final  -78.42 input  175.53 | X-H torsion
[ 8008 7997 7996 7995 ] final  117.76 input   59.86 | X-H torsion
[ 10167 10162 10161 10158 ] final  -20.29 input  -65.29 | X-H torsion
[ 10718 10713 10712 10709 ] final  109.19 input   66.30 | X-H torsion
[ 10763 10752 10751 10750 ] final  155.11 input  -60.55 | X-H torsion
[ 11005 11000 10999 10996 ] final -124.76 input  -57.11 | X-H torsion

> <Gold.Protein.ActiveResidues>
 VAL166  LYS551  ARG553  GLY616  TRP617  ASP618  TYR619  PRO620  LYS621  CYS622 
 ASP623  PHE694  ASN695  SER759  ASP760  ASP761  ALA762  ILE779  LEU786  VAL792 
 PHE793  MET794  SER795  GLU796  ALA797  LYS798  CYS799  TRP800  GLU811  SER814 

> <Gold.Protein.RotatedAtoms>
  150.8779  134.8165  159.7203 H   0  0  0  0  0  0  0  0  0  0  0  0  # atno 6907 bound_to 6896
  152.4759  134.4842  159.9685 H   0  0  0  0  0  0  0  0  0  0  0  0  # atno 6908 bound_to 6896
  151.4921  133.3484  159.2890 H   0  0  0  0  0  0  0  0  0  0  0  0  # atno 6909 bound_to 6896
  145.5867  140.9438  143.1315 H   0  0  0  0  0  0  0  0  0  0  0  0  # atno 7974 bound_to 7965
  156.2511  140.2889  156.0728 H   0  0  0  0  0  0  0  0  0  0  0  0  # atno 8008 bound_to 7997
  155.1652  140.0400  157.2868 H   0  0  0  0  0  0  0  0  0  0  0  0  # atno 8009 bound_to 7997
  154.6364  140.2512  155.7379 H   0  0  0  0  0  0  0  0  0  0  0  0  # atno 8010 bound_to 7997
  140.7275  143.4737  151.0212 H   0  0  0  0  0  0  0  0  0  0  0  0  # atno 10167 bound_to 10162
  157.6553  131.0909  150.6416 H   0  0  0  0  0  0  0  0  0  0  0  0  # atno 10718 bound_to 10713
  154.1630  135.2808  155.3103 H   0  0  0  0  0  0  0  0  0  0  0  0  # atno 10763 bound_to 10752
  154.6132  135.5492  153.7499 H   0  0  0  0  0  0  0  0  0  0  0  0  # atno 10764 bound_to 10752
  153.0186  135.6420  154.1772 H   0  0  0  0  0  0  0  0  0  0  0  0  # atno 10765 bound_to 10752
  140.9816  134.0666  157.3759 H   0  0  0  0  0  0  0  0  0  0  0  0  # atno 11005 bound_to 11000
  144.7370  139.7558  143.7325 LP  0  0  0  0  0  0  0  0  0  0  0  0  # atno 17320 bound_to 7965
  146.1677  139.4815  142.9948 LP  0  0  0  0  0  0  0  0  0  0  0  0  # atno 17321 bound_to 7965
  139.8431  143.7538  152.3180 LP  0  0  0  0  0  0  0  0  0  0  0  0  # atno 17342 bound_to 10162
  139.7693  144.7481  151.0248 LP  0  0  0  0  0  0  0  0  0  0  0  0  # atno 17343 bound_to 10162
  156.6724  130.4543  149.5653 LP  0  0  0  0  0  0  0  0  0  0  0  0  # atno 17370 bound_to 10713
  156.1988  130.6607  151.1144 LP  0  0  0  0  0  0  0  0  0  0  0  0  # atno 17371 bound_to 10713
  139.8952  135.0140  156.6992 LP  0  0  0  0  0  0  0  0  0  0  0  0  # atno 17394 bound_to 11000
  140.7178  133.9167  155.8127 LP  0  0  0  0  0  0  0  0  0  0  0  0  # atno 17395 bound_to 11000

$$$$
