AV-unprocessed.smi:3062|AV-procd|sdf|11683|dock4
  -GOLD-   2272017 83D 1   1.00000     0.00000
 Structure written by MMmdl.
 39 40  0  0  0  0  0  0  0  0  1 V2000
  151.0291  145.1672  159.5102 C   0  0  0  0  0  0  0  0  0  0  0  0
  151.4181  143.7612  159.1404 C   0  0  0  0  0  0  0  0  0  0  0  0
  150.9993  143.3240  157.9985 N   0  0  0  0  0  0  0  0  0  0  0  0
  151.2995  142.0490  157.5626 N   0  0  0  0  0  0  0  0  0  0  0  0
  150.7463  141.7269  156.2419 C   0  0  0  0  0  0  0  0  0  0  0  0
  149.2096  141.5806  156.2760 C   0  0  2  0  0  0  0  0  0  0  0  0
  148.8448  140.3166  156.7932 O   0  0  0  0  0  0  0  0  0  0  0  0
  148.5619  141.7304  154.8898 C   0  0  0  0  0  0  0  0  0  0  0  0
  147.3424  142.4558  154.9961 O   0  0  0  0  0  0  0  0  0  0  0  0
  146.7060  142.7047  153.7499 C   0  0  0  0  0  0  0  0  0  0  0  0
  145.8294  143.9117  153.8864 C   0  0  0  0  0  0  0  0  0  0  0  0
  145.1292  144.3062  154.9980 C   0  0  0  0  0  0  0  0  0  0  0  0
  144.3736  145.4983  154.7936 C   0  0  0  0  0  0  0  0  0  0  0  0
  144.5000  145.9961  153.5243 C   0  0  0  0  0  0  0  0  0  0  0  0
  145.5488  145.0036  152.5498 S   0  0  0  0  0  0  0  0  0  0  0  0
  152.0456  141.1448  158.2594 C   0  0  0  0  0  0  0  0  0  0  0  0
  152.2975  140.0194  157.8264 O   0  0  0  0  0  0  0  0  0  0  0  0
  152.5151  141.6451  159.5536 C   0  0  0  0  0  0  0  0  0  0  0  0
  153.2991  140.7294  160.3180 C   0  0  0  0  0  0  0  0  0  0  0  0
  153.9510  140.0002  160.9373 N   0  0  0  0  0  0  0  0  0  0  0  0
  152.2253  142.8952  159.9938 C   0  0  0  0  0  0  0  0  0  0  0  0
  152.6897  143.4639  161.3276 C   0  0  0  0  0  0  0  0  0  0  0  0
  151.9119  145.7745  159.7121 H   0  0  0  0  0  0  0  0  0  0  0  0
  150.4025  145.1727  160.4024 H   0  0  0  0  0  0  0  0  0  0  0  0
  150.4699  145.6576  158.7117 H   0  0  0  0  0  0  0  0  0  0  0  0
  151.0231  142.5188  155.5433 H   0  0  0  0  0  0  0  0  0  0  0  0
  151.2063  140.8235  155.8363 H   0  0  0  0  0  0  0  0  0  0  0  0
  148.7729  142.3361  156.9298 H   0  0  0  0  0  0  0  0  0  0  0  0
  149.4576  139.6736  156.4709 H   0  0  0  0  0  0  0  0  0  0  0  0
  149.2429  142.2200  154.1918 H   0  0  0  0  0  0  0  0  0  0  0  0
  148.3607  140.7350  154.4913 H   0  0  0  0  0  0  0  0  0  0  0  0
  147.4755  142.9000  153.0032 H   0  0  0  0  0  0  0  0  0  0  0  0
  146.1422  141.8348  153.4095 H   0  0  0  0  0  0  0  0  0  0  0  0
  145.1348  143.7854  155.9441 H   0  0  0  0  0  0  0  0  0  0  0  0
  143.7712  145.9413  155.5730 H   0  0  0  0  0  0  0  0  0  0  0  0
  144.0398  146.8777  153.1026 H   0  0  0  0  0  0  0  0  0  0  0  0
  153.2580  142.7398  161.9106 H   0  0  0  0  0  0  0  0  0  0  0  0
  151.8358  143.7718  161.9320 H   0  0  0  0  0  0  0  0  0  0  0  0
  153.3300  144.3323  161.1695 H   0  0  0  0  0  0  0  0  0  0  0  0
  1  2  1  0  0  0  0
  1 23  1  0  0  0  0
  1 24  1  0  0  0  0
  1 25  1  0  0  0  0
  2 21  1  0  0  0  0
  2  3  2  0  0  0  0
  3  4  1  0  0  0  0
  4  5  1  0  0  0  0
  4 16  1  0  0  0  0
  5  6  1  0  0  0  0
  5 26  1  0  0  0  0
  5 27  1  0  0  0  0
  6  7  1  0  0  0  0
  6  8  1  0  0  0  0
  6 28  1  0  0  0  0
  7 29  1  0  0  0  0
  8  9  1  0  0  0  0
  8 30  1  0  0  0  0
  8 31  1  0  0  0  0
  9 10  1  0  0  0  0
 10 11  1  0  0  0  0
 10 32  1  0  0  0  0
 10 33  1  0  0  0  0
 11 15  1  0  0  0  0
 11 12  2  0  0  0  0
 12 13  1  0  0  0  0
 12 34  1  0  0  0  0
 13 14  2  0  0  0  0
 13 35  1  0  0  0  0
 14 15  1  0  0  0  0
 14 36  1  0  0  0  0
 16 17  2  0  0  0  0
 16 18  1  0  0  0  0
 18 19  1  0  0  0  0
 18 21  2  0  0  0  0
 19 20  3  0  0  0  0
 21 22  1  0  0  0  0
 22 37  1  0  0  0  0
 22 38  1  0  0  0  0
 22 39  1  0  0  0  0
M  END
> <s_m_source_file>
AV-unprocessed.smi

> <i_m_source_file_index>
3062

> <i_lp_mmshare_version>
43012

> <i_f3d_flags>
0

> <s_epik_input>
TiNDYyhjMVtDSDNdKWMoPU8pbihuYzFbQ0gzXSlbQ0gyXVtDQEhdKFtPSF0pW0NIMl1PW0NIMl1jMltjSF1bY0hdW2NIXXMy

> <s_epik_cmdline>
J2VwaWtfcHl0aG9uJywgJy1waCcsICc3LjAnLCAnLXRuJywgJzgnLCAnLW1hJywgJzIwMCcsICctbWV0YWxfYmluZGluZycsICctaW1hZScsICc8aW5maWxlLm1hZT4nLCAnLW9tYWUnLCAnPG91dGZpbGUubWFlPic=

> <r_lp_tautomer_probability>
1

> <r_epik_Ionization_Penalty>
6.86395e-08

> <r_epik_Ionization_Penalty_Charging>
2.24757e-10

> <r_epik_Ionization_Penalty_Neutral>
6.84147e-08

> <r_epik_State_Penalty>
-0

> <r_epik_Charging_Adjusted_Penalty>
2.24757e-10

> <i_epik_Tot_Q>
0

> <i_epik_Tot_abs_Q>
0

> <r_epik_Metal_State_Penalty>
-0

> <b_epik_Metal_Only>
0

> <s_lp_Force_Field>
OPLS_2005

> <r_lp_Energy>
26.0533

> <b_lp_Chiralities_Consistent>
1

> <s_lp_Variant>
AV-unprocessed.smi:3062-1

> <Gold.Version>
5.8.1

> <Gold.Id.Protein>
6NUR|6NUR_protein|mol2

> <Gold.PLP.Fitness>
50.7595

> <Gold.PLP.PLP>
-50.2735

> <Gold.PLP.part.hbond>
-1.0000

> <Gold.PLP.part.metal>
0.0000

> <Gold.PLP.part.buried>
-8.6446

> <Gold.PLP.part.nonpolar>
-41.9435

> <Gold.PLP.part.repulsive>
0.6830

> <Gold.PLP.ligand.clash>
0.0000

> <Gold.PLP.ligand.torsion>
1.2934

> <Gold.PLP.Chemscore.Hbond>
1.0000

> <Gold.PLP.Chemscore.CHOScore>
0.0000

> <Gold.PLP.Chemscore.Metal>
0.0000

> <Gold.Chemscore.Hbonds>
donor molecule, donor type, donor heavy atom, donor atom, acceptor molecule, acceptor atom, score
      P1  H  7997  8009       L1    17  0.13

> <Gold.PLP.Chemscore.Internal.Correction>
0.0727

> <Gold.Rescore>
     Score         DG    S(hbond)    S(metal)    S(lipo)     H(rot)  DE(clash)    DE(int)     intcor
     13.47     -14.94       0.89        0.00     110.33       2.51       0.15       1.33       ----

> <Gold.Chemscore.Fitness>
13.4650

> <Gold.Chemscore.DG>
-14.9420

> <Gold.Chemscore.ZeroCoef>
-5.4800

> <Gold.Chemscore.Hbond>
0.8935

> <Gold.Chemscore.Metal>
0.0000

> <Gold.Chemscore.Lipo>
110.3266

> <Gold.Chemscore.Internal_Hbond>
0.0000

> <Gold.Chemscore.DEClash>
0.1494

> <Gold.Chemscore.DEInternal>
1.3275

> <Gold.Chemscore.Rot>
2.5119

> <Gold.Chemscore.Internal.Correction>
   9.000000E+99

> <Gold.Chemscore.Hbonds>
donor molecule, donor type, donor heavy atom, donor atom, acceptor molecule, acceptor atom, score
      P1  H  7997  8009       L1    17  0.10

> <Gold.Chemscore.Hbond.Weighted>
-2.9842

> <Gold.Chemscore.Metal.Weighted>
-0.0000

> <Gold.Chemscore.Lipo.Weighted>
-12.9082

> <Gold.Chemscore.Internal_Hbond.Weighted>
0.0000

> <Gold.Chemscore.DEClash.Weighted>
0.1494

> <Gold.Chemscore.DEInternal.Weighted>
1.3275

> <Gold.Chemscore.Rot.Weighted>
6.4305

> <Gold.Chemscore.Internal.Correction.Weighted>
   9.000000E+99

> <Gold.Protein.RotatedTorsions>
[ 6907 6896 6895 6894 ] final  150.48 input  -60.11 | X-H torsion
[ 7974 7965 7964 7962 ] final -145.02 input  175.53 | X-H torsion
[ 8008 7997 7996 7995 ] final  164.73 input   59.86 | X-H torsion
[ 10167 10162 10161 10158 ] final   99.12 input  -65.29 | X-H torsion
[ 10718 10713 10712 10709 ] final  -34.18 input   66.30 | X-H torsion
[ 10763 10752 10751 10750 ] final   -0.11 input  -60.55 | X-H torsion
[ 11005 11000 10999 10996 ] final   32.27 input  -57.11 | X-H torsion

> <Gold.Protein.ActiveResidues>
 VAL166  LYS551  ARG553  GLY616  TRP617  ASP618  TYR619  PRO620  LYS621  CYS622 
 ASP623  PHE694  ASN695  SER759  ASP760  ASP761  ALA762  ILE779  LEU786  VAL792 
 PHE793  MET794  SER795  GLU796  ALA797  LYS798  CYS799  TRP800  GLU811  SER814 

> <Gold.Protein.RotatedAtoms>
  152.1138  133.4315  159.4643 H   0  0  0  0  0  0  0  0  0  0  0  0  # atno 6907 bound_to 6896
  150.6868  134.2616  159.4561 H   0  0  0  0  0  0  0  0  0  0  0  0  # atno 6908 bound_to 6896
  152.0487  134.9666  160.0625 H   0  0  0  0  0  0  0  0  0  0  0  0  # atno 6909 bound_to 6896
  144.8257  140.5637  143.5549 H   0  0  0  0  0  0  0  0  0  0  0  0  # atno 7974 bound_to 7965
  156.1856  140.1689  156.8191 H   0  0  0  0  0  0  0  0  0  0  0  0  # atno 8008 bound_to 7997
  154.5411  140.0736  156.8543 H   0  0  0  0  0  0  0  0  0  0  0  0  # atno 8009 bound_to 7997
  155.3214  140.3373  155.4243 H   0  0  0  0  0  0  0  0  0  0  0  0  # atno 8010 bound_to 7997
  139.7646  144.6943  151.0243 H   0  0  0  0  0  0  0  0  0  0  0  0  # atno 10167 bound_to 10162
  156.3536  130.4312  149.7683 H   0  0  0  0  0  0  0  0  0  0  0  0  # atno 10718 bound_to 10713
  153.3277  135.6973  153.6975 H   0  0  0  0  0  0  0  0  0  0  0  0  # atno 10763 bound_to 10752
  153.5789  135.3502  155.2868 H   0  0  0  0  0  0  0  0  0  0  0  0  # atno 10764 bound_to 10752
  154.8611  135.4290  154.2458 H   0  0  0  0  0  0  0  0  0  0  0  0  # atno 10765 bound_to 10752
  140.2752  134.3036  155.7816 H   0  0  0  0  0  0  0  0  0  0  0  0  # atno 11005 bound_to 11000
  145.5007  139.1483  143.3659 LP  0  0  0  0  0  0  0  0  0  0  0  0  # atno 17320 bound_to 7965
  146.2562  140.5146  142.8873 LP  0  0  0  0  0  0  0  0  0  0  0  0  # atno 17321 bound_to 7965
  140.7810  143.4658  151.0215 LP  0  0  0  0  0  0  0  0  0  0  0  0  # atno 17342 bound_to 10162
  139.8343  143.7649  152.3180 LP  0  0  0  0  0  0  0  0  0  0  0  0  # atno 17343 bound_to 10162
  156.4874  130.8069  151.3080 LP  0  0  0  0  0  0  0  0  0  0  0  0  # atno 17370 bound_to 10713
  157.7464  130.9986  150.2860 LP  0  0  0  0  0  0  0  0  0  0  0  0  # atno 17371 bound_to 10713
  141.2171  133.7491  156.9396 LP  0  0  0  0  0  0  0  0  0  0  0  0  # atno 17394 bound_to 11000
  140.1335  134.9340  157.2369 LP  0  0  0  0  0  0  0  0  0  0  0  0  # atno 17395 bound_to 11000

$$$$
