AV-unprocessed.smi:86|AV-procd|sdf|813|dock8
  -GOLD-   2262017213D 1   1.00000     0.00000
 Structure written by MMmdl.
 51 55  0  0  0  0  0  0  0  0  1 V2000
  146.3881  134.4239  157.5568 O   0  0  0  0  0  0  0  0  0  0  0  0
  146.8783  134.6725  158.8587 C   0  0  0  0  0  0  0  0  0  0  0  0
  147.4884  136.0807  158.9685 C   0  0  0  0  0  0  0  0  0  0  0  0
  148.6871  136.2255  158.0090 C   0  0  0  0  0  0  0  0  0  0  0  0
  149.4258  137.4684  158.1757 N   0  0  0  0  0  0  0  0  0  0  0  0
  148.9407  138.7444  158.0059 C   0  0  0  0  0  0  0  0  0  0  0  0
  149.8049  139.6988  158.2135 N   0  0  0  0  0  0  0  0  0  0  0  0
  150.9833  139.0368  158.5422 C   0  0  0  0  0  0  0  0  0  0  0  0
  152.3060  139.4514  158.8841 C   0  0  0  0  0  0  0  0  0  0  0  0
  152.7187  140.7437  158.9582 N   0  0  0  0  0  0  0  0  0  0  0  0
  152.0319  141.8408  158.2949 C   0  0  0  0  0  0  0  0  0  0  0  0
  152.8083  143.0868  158.7258 C   0  0  1  0  0  0  0  0  0  0  0  0
  152.0667  144.4314  158.5916 C   0  0  0  0  0  0  0  0  0  0  0  0
  150.9975  144.6382  159.6747 C   0  0  0  0  0  0  0  0  0  0  0  0
  151.5953  144.4377  161.0756 C   0  0  1  0  0  0  0  0  0  0  0  0
  150.5865  144.6249  162.0457 O   0  0  0  0  0  0  0  0  0  0  0  0
  152.1784  143.0235  161.2126 C   0  0  0  0  0  0  0  0  0  0  0  0
  153.2653  142.7388  160.1526 C   0  0  1  0  0  0  0  0  0  0  0  0
  153.5582  141.2342  160.0484 C   0  0  0  0  0  0  0  0  0  0  0  0
  153.2149  138.4734  159.1392 N   0  0  0  0  0  0  0  0  0  0  0  0
  152.8667  137.1858  159.0742 C   0  0  0  0  0  0  0  0  0  0  0  0
  151.6795  136.6584  158.7752 N   0  0  0  0  0  0  0  0  0  0  0  0
  150.7587  137.6293  158.5143 C   0  0  0  0  0  0  0  0  0  0  0  0
  146.4714  137.2302  158.9520 C   0  0  0  0  0  0  0  0  0  0  0  0
  146.5413  137.3909  160.3847 O   0  0  0  0  0  0  0  0  0  0  0  0
  147.7203  136.5594  160.4087 C   0  0  0  0  0  0  0  0  0  0  0  0
  145.4520  134.3045  157.6052 H   0  0  0  0  0  0  0  0  0  0  0  0
  146.0451  134.5604  159.5533 H   0  0  0  0  0  0  0  0  0  0  0  0
  147.5978  133.8979  159.1239 H   0  0  0  0  0  0  0  0  0  0  0  0
  149.3791  135.3907  158.1235 H   0  0  0  0  0  0  0  0  0  0  0  0
  148.3508  136.1812  156.9724 H   0  0  0  0  0  0  0  0  0  0  0  0
  147.9195  138.9504  157.7215 H   0  0  0  0  0  0  0  0  0  0  0  0
  152.0420  141.7256  157.2109 H   0  0  0  0  0  0  0  0  0  0  0  0
  150.9960  141.8801  158.6329 H   0  0  0  0  0  0  0  0  0  0  0  0
  153.6982  143.1364  158.0960 H   0  0  0  0  0  0  0  0  0  0  0  0
  152.7954  145.2395  158.6671 H   0  0  0  0  0  0  0  0  0  0  0  0
  151.6213  144.5173  157.6002 H   0  0  0  0  0  0  0  0  0  0  0  0
  150.5765  145.6403  159.5858 H   0  0  0  0  0  0  0  0  0  0  0  0
  150.1726  143.9422  159.5173 H   0  0  0  0  0  0  0  0  0  0  0  0
  152.3766  145.1777  161.2527 H   0  0  0  0  0  0  0  0  0  0  0  0
  149.7454  144.5802  161.6169 H   0  0  0  0  0  0  0  0  0  0  0  0
  152.5966  142.8842  162.2103 H   0  0  0  0  0  0  0  0  0  0  0  0
  151.3708  142.2956  161.1177 H   0  0  0  0  0  0  0  0  0  0  0  0
  154.1664  143.2958  160.4123 H   0  0  0  0  0  0  0  0  0  0  0  0
  153.3621  140.7232  160.9922 H   0  0  0  0  0  0  0  0  0  0  0  0
  154.6022  141.0644  159.7836 H   0  0  0  0  0  0  0  0  0  0  0  0
  153.6517  136.4769  159.2923 H   0  0  0  0  0  0  0  0  0  0  0  0
  146.8176  138.1220  158.4269 H   0  0  0  0  0  0  0  0  0  0  0  0
  145.4763  136.9415  158.6114 H   0  0  0  0  0  0  0  0  0  0  0  0
  147.6618  135.7676  161.1562 H   0  0  0  0  0  0  0  0  0  0  0  0
  148.6243  137.1548  160.5422 H   0  0  0  0  0  0  0  0  0  0  0  0
  1  2  1  0  0  0  0
  1 27  1  0  0  0  0
  2  3  1  0  0  0  0
  2 28  1  0  0  0  0
  2 29  1  0  0  0  0
  3 26  1  0  0  0  0
  3  4  1  0  0  0  0
  3 24  1  0  0  0  0
  4  5  1  0  0  0  0
  4 30  1  0  0  0  0
  4 31  1  0  0  0  0
  5 23  1  0  0  0  0
  5  6  1  0  0  0  0
  6  7  2  0  0  0  0
  6 32  1  0  0  0  0
  7  8  1  0  0  0  0
  8 23  2  0  0  0  0
  8  9  1  0  0  0  0
  9 10  1  0  0  0  0
  9 20  2  0  0  0  0
 10 19  1  0  0  0  0
 10 11  1  0  0  0  0
 11 12  1  0  0  0  0
 11 33  1  0  0  0  0
 11 34  1  0  0  0  0
 12 18  1  0  0  0  0
 12 13  1  0  0  0  0
 12 35  1  0  0  0  0
 13 14  1  0  0  0  0
 13 36  1  0  0  0  0
 13 37  1  0  0  0  0
 14 15  1  0  0  0  0
 14 38  1  0  0  0  0
 14 39  1  0  0  0  0
 15 16  1  0  0  0  0
 15 17  1  0  0  0  0
 15 40  1  0  0  0  0
 16 41  1  0  0  0  0
 17 18  1  0  0  0  0
 17 42  1  0  0  0  0
 17 43  1  0  0  0  0
 18 19  1  0  0  0  0
 18 44  1  0  0  0  0
 19 45  1  0  0  0  0
 19 46  1  0  0  0  0
 20 21  1  0  0  0  0
 21 22  2  0  0  0  0
 21 47  1  0  0  0  0
 22 23  1  0  0  0  0
 24 25  1  0  0  0  0
 24 48  1  0  0  0  0
 24 49  1  0  0  0  0
 25 26  1  0  0  0  0
 26 50  1  0  0  0  0
 26 51  1  0  0  0  0
M  END
> <s_m_source_file>
AV-unprocessed.smi

> <i_m_source_file_index>
86

> <i_lp_mmshare_version>
43012

> <i_f3d_flags>
0

> <s_epik_input>
W0NIMl0xT1tDSDJdQzEoW0NIMl1bT0hdKVtDSDJdbihbY0hdbjIpYyhjMjMpbltjSF1uYzNOKFtDSDJdNClbQ0gyXVtDQEBIXShbQ0BIXTQ1KVtDSDJdW0NASF0oW09IXSlbQ0gyXVtDSDJdNQ==

> <s_epik_cmdline>
J2VwaWtfcHl0aG9uJywgJy1waCcsICc3LjAnLCAnLXRuJywgJzgnLCAnLW1hJywgJzIwMCcsICctbWV0YWxfYmluZGluZycsICctaW1hZScsICc8aW5maWxlLm1hZT4nLCAnLW9tYWUnLCAnPG91dGZpbGUubWFlPic=

> <r_lp_tautomer_probability>
1

> <r_epik_Ionization_Penalty>
0.00425795

> <r_epik_Ionization_Penalty_Charging>
0

> <r_epik_Ionization_Penalty_Neutral>
0.00425795

> <r_epik_State_Penalty>
0.00299946

> <r_epik_Charging_Adjusted_Penalty>
0.00299946

> <i_epik_Tot_Q>
0

> <i_epik_Tot_abs_Q>
0

> <r_epik_Metal_State_Penalty>
-0

> <b_epik_Metal_Only>
0

> <s_lp_Force_Field>
OPLS_2005

> <r_lp_Energy>
54.7951

> <b_lp_Chiralities_Consistent>
1

> <s_lp_Variant>
AV-unprocessed.smi:86-2

> <Gold.Version>
5.8.1

> <Gold.Id.Protein>
6NUR|6NUR_protein|mol2

> <Gold.PLP.Fitness>
52.3261

> <Gold.PLP.PLP>
-47.4136

> <Gold.PLP.part.hbond>
-3.1832

> <Gold.PLP.part.metal>
0.0000

> <Gold.PLP.part.buried>
-6.8530

> <Gold.PLP.part.nonpolar>
-38.1247

> <Gold.PLP.part.repulsive>
0.0000

> <Gold.PLP.ligand.clash>
0.0000

> <Gold.PLP.ligand.torsion>
0.6614

> <Gold.PLP.Chemscore.Hbond>
1.9280

> <Gold.PLP.Chemscore.CHOScore>
0.0000

> <Gold.PLP.Chemscore.Metal>
0.0000

> <Gold.Chemscore.Hbonds>
donor molecule, donor type, donor heavy atom, donor atom, acceptor molecule, acceptor atom, score
      P1  H  6896  6908       L1    22  0.80
      P1  H  6934  6947       L1    25  1.00

> <Gold.PLP.Chemscore.Internal.Correction>
0.4512

> <Gold.Rescore>
     Score         DG    S(hbond)    S(metal)    S(lipo)     H(rot)  DE(clash)    DE(int)     intcor
     11.85     -16.35       1.36        0.00     114.61       2.76       2.28       2.21       ----

> <Gold.Chemscore.Fitness>
11.8508

> <Gold.Chemscore.DG>
-16.3462

> <Gold.Chemscore.ZeroCoef>
-5.4800

> <Gold.Chemscore.Hbond>
1.3564

> <Gold.Chemscore.Metal>
0.0000

> <Gold.Chemscore.Lipo>
114.6086

> <Gold.Chemscore.Internal_Hbond>
0.0000

> <Gold.Chemscore.DEClash>
2.2846

> <Gold.Chemscore.DEInternal>
2.2109

> <Gold.Chemscore.Rot>
2.7630

> <Gold.Chemscore.Internal.Correction>
   9.000000E+99

> <Gold.Chemscore.Hbonds>
donor molecule, donor type, donor heavy atom, donor atom, acceptor molecule, acceptor atom, score
      P1  H  6896  6908       L1    22  0.31
      P1  H  6934  6947       L1    25  0.39

> <Gold.Chemscore.Hbond.Weighted>
-4.5303

> <Gold.Chemscore.Metal.Weighted>
-0.0000

> <Gold.Chemscore.Lipo.Weighted>
-13.4092

> <Gold.Chemscore.Internal_Hbond.Weighted>
0.0000

> <Gold.Chemscore.DEClash.Weighted>
2.2846

> <Gold.Chemscore.DEInternal.Weighted>
2.2109

> <Gold.Chemscore.Rot.Weighted>
7.0734

> <Gold.Chemscore.Internal.Correction.Weighted>
   9.000000E+99

> <Gold.Protein.RotatedTorsions>
[ 6907 6896 6895 6894 ] final -121.85 input  -60.11 | X-H torsion
[ 7974 7965 7964 7962 ] final  175.74 input  175.53 | X-H torsion
[ 8008 7997 7996 7995 ] final  -79.18 input   59.86 | X-H torsion
[ 10167 10162 10161 10158 ] final   92.40 input  -65.29 | X-H torsion
[ 10718 10713 10712 10709 ] final -178.17 input   66.30 | X-H torsion
[ 10763 10752 10751 10750 ] final  154.84 input  -60.55 | X-H torsion
[ 11005 11000 10999 10996 ] final  115.41 input  -57.11 | X-H torsion

> <Gold.Protein.ActiveResidues>
 VAL166  LYS551  ARG553  GLY616  TRP617  ASP618  TYR619  PRO620  LYS621  CYS622 
 ASP623  PHE694  ASN695  SER759  ASP760  ASP761  ALA762  ILE779  LEU786  VAL792 
 PHE793  MET794  SER795  GLU796  ALA797  LYS798  CYS799  TRP800  GLU811  SER814 

> <Gold.Protein.RotatedAtoms>
  150.8521  133.7770  159.3021 H   0  0  0  0  0  0  0  0  0  0  0  0  # atno 6907 bound_to 6896
  151.5439  135.1066  159.9943 H   0  0  0  0  0  0  0  0  0  0  0  0  # atno 6908 bound_to 6896
  152.4561  133.7683  159.6840 H   0  0  0  0  0  0  0  0  0  0  0  0  # atno 6909 bound_to 6896
  144.7196  139.9992  143.6440 H   0  0  0  0  0  0  0  0  0  0  0  0  # atno 7974 bound_to 7965
  154.5760  140.0682  156.9035 H   0  0  0  0  0  0  0  0  0  0  0  0  # atno 8008 bound_to 7997
  155.2547  140.3354  155.4260 H   0  0  0  0  0  0  0  0  0  0  0  0  # atno 8009 bound_to 7997
  156.2154  140.1776  156.7585 H   0  0  0  0  0  0  0  0  0  0  0  0  # atno 8010 bound_to 7997
  139.8280  144.6700  150.9435 H   0  0  0  0  0  0  0  0  0  0  0  0  # atno 10167 bound_to 10162
  156.8403  130.9684  151.3100 H   0  0  0  0  0  0  0  0  0  0  0  0  # atno 10718 bound_to 10713
  154.1588  135.2811  155.3115 H   0  0  0  0  0  0  0  0  0  0  0  0  # atno 10763 bound_to 10752
  154.6163  135.5482  153.7530 H   0  0  0  0  0  0  0  0  0  0  0  0  # atno 10764 bound_to 10752
  153.0199  135.6428  154.1730 H   0  0  0  0  0  0  0  0  0  0  0  0  # atno 10765 bound_to 10752
  139.9009  134.9583  156.7040 H   0  0  0  0  0  0  0  0  0  0  0  0  # atno 11005 bound_to 11000
  146.0349  139.3368  143.0733 LP  0  0  0  0  0  0  0  0  0  0  0  0  # atno 17320 bound_to 7965
  145.8407  140.9582  143.0800 LP  0  0  0  0  0  0  0  0  0  0  0  0  # atno 17321 bound_to 7965
  140.7809  143.4028  151.1121 LP  0  0  0  0  0  0  0  0  0  0  0  0  # atno 17342 bound_to 10162
  139.7684  143.8531  152.3115 LP  0  0  0  0  0  0  0  0  0  0  0  0  # atno 17343 bound_to 10162
  157.6359  130.8766  149.9359 LP  0  0  0  0  0  0  0  0  0  0  0  0  # atno 17370 bound_to 10713
  156.0884  130.3665  150.0442 LP  0  0  0  0  0  0  0  0  0  0  0  0  # atno 17371 bound_to 10713
  140.7128  133.9209  155.8095 LP  0  0  0  0  0  0  0  0  0  0  0  0  # atno 17394 bound_to 11000
  141.0287  134.0786  157.4038 LP  0  0  0  0  0  0  0  0  0  0  0  0  # atno 17395 bound_to 11000

$$$$
