AV-unprocessed.smi:2217|AV-procd|sdf|8969|dock7
  -GOLD-   2272012183D 1   1.00000     0.00000
 Structure written by MMmdl.
 45 48  0  0  0  0  0  0  0  0  1 V2000
  150.0112  128.9032  154.4215 C   0  0  0  0  0  0  0  0  0  0  0  0
  149.8139  130.4034  154.3656 C   0  0  0  0  0  0  0  0  0  0  0  0
  148.8793  130.9832  153.4873 C   0  0  0  0  0  0  0  0  0  0  0  0
  148.7330  132.3838  153.4802 C   0  0  0  0  0  0  0  0  0  0  0  0
  149.5196  133.1744  154.3485 C   0  0  0  0  0  0  0  0  0  0  0  0
  149.2756  134.5771  154.2534 N   0  0  0  0  0  0  0  0  0  0  0  0
  149.3679  135.5649  155.1697 C   0  0  0  0  0  0  0  0  0  0  0  0
  149.7209  135.3317  156.3245 O   0  0  0  0  0  0  0  0  0  0  0  0
  149.0611  136.7984  154.7426 N   0  0  0  0  0  0  0  0  0  0  0  0
  149.1317  138.0173  155.5536 C   0  0  1  0  0  0  0  0  0  0  0  0
  150.5607  138.4787  155.8550 C   0  0  1  0  0  0  0  0  0  0  0  0
  151.9012  137.8375  155.8704 C   0  0  0  0  0  0  0  0  0  0  0  0
  152.6793  138.9915  155.1843 C   0  0  0  0  0  0  0  0  0  0  0  0
  151.6745  139.9199  154.7037 O   0  0  0  0  0  0  0  0  0  0  0  0
  150.5359  139.1110  154.4787 C   0  0  2  0  0  0  0  0  0  0  0  0
  149.0272  139.3537  154.7224 C   0  0  0  0  0  0  0  0  0  0  0  0
  148.1141  139.3557  153.4893 C   0  0  0  0  0  0  0  0  0  0  0  0
  147.5729  140.7716  153.3158 C   0  0  0  0  0  0  0  0  0  0  0  0
  147.4675  141.2948  154.7406 C   0  0  0  0  0  0  0  0  0  0  0  0
  148.6424  140.6453  155.4719 C   0  0  0  0  0  0  0  0  0  0  0  0
  150.4173  132.6020  155.1911 N   0  0  0  0  0  0  0  0  0  0  0  0
  150.5584  131.2601  155.1981 C   0  0  0  0  0  0  0  0  0  0  0  0
  149.6377  128.4236  153.5161 H   0  0  0  0  0  0  0  0  0  0  0  0
  149.4789  128.4860  155.2765 H   0  0  0  0  0  0  0  0  0  0  0  0
  151.0691  128.6598  154.5226 H   0  0  0  0  0  0  0  0  0  0  0  0
  148.2817  130.3691  152.8298 H   0  0  0  0  0  0  0  0  0  0  0  0
  148.0185  132.8432  152.8125 H   0  0  0  0  0  0  0  0  0  0  0  0
  148.9400  134.8791  153.3505 H   0  0  0  0  0  0  0  0  0  0  0  0
  148.7770  136.9053  153.7788 H   0  0  0  0  0  0  0  0  0  0  0  0
  148.4812  138.0019  156.4294 H   0  0  0  0  0  0  0  0  0  0  0  0
  150.5149  139.2257  156.6543 H   0  0  0  0  0  0  0  0  0  0  0  0
  152.2598  137.6269  156.8781 H   0  0  0  0  0  0  0  0  0  0  0  0
  151.9280  136.9206  155.2802 H   0  0  0  0  0  0  0  0  0  0  0  0
  153.3464  139.5029  155.8787 H   0  0  0  0  0  0  0  0  0  0  0  0
  153.2777  138.6151  154.3537 H   0  0  0  0  0  0  0  0  0  0  0  0
  150.7228  138.4124  153.6565 H   0  0  0  0  0  0  0  0  0  0  0  0
  148.6284  139.0197  152.5881 H   0  0  0  0  0  0  0  0  0  0  0  0
  147.2771  138.6735  153.6443 H   0  0  0  0  0  0  0  0  0  0  0  0
  148.2896  141.3731  152.7552 H   0  0  0  0  0  0  0  0  0  0  0  0
  146.6215  140.7988  152.7836 H   0  0  0  0  0  0  0  0  0  0  0  0
  147.4871  142.3837  154.7935 H   0  0  0  0  0  0  0  0  0  0  0  0
  146.5302  140.9563  155.1838 H   0  0  0  0  0  0  0  0  0  0  0  0
  148.3860  140.4580  156.5151 H   0  0  0  0  0  0  0  0  0  0  0  0
  149.4833  141.3396  155.4787 H   0  0  0  0  0  0  0  0  0  0  0  0
  151.2862  130.8613  155.8895 H   0  0  0  0  0  0  0  0  0  0  0  0
  1  2  1  0  0  0  0
  1 23  1  0  0  0  0
  1 24  1  0  0  0  0
  1 25  1  0  0  0  0
  2 22  1  0  0  0  0
  2  3  2  0  0  0  0
  3  4  1  0  0  0  0
  3 26  1  0  0  0  0
  4  5  2  0  0  0  0
  4 27  1  0  0  0  0
  5  6  1  0  0  0  0
  5 21  1  0  0  0  0
  6  7  1  0  0  0  0
  6 28  1  0  0  0  0
  7  8  2  0  0  0  0
  7  9  1  0  0  0  0
  9 10  1  0  0  0  0
  9 29  1  0  0  0  0
 10 16  1  0  0  0  0
 10 11  1  0  0  0  0
 10 30  1  0  0  0  0
 11 15  1  0  0  0  0
 11 12  1  0  0  0  0
 11 31  1  0  0  0  0
 12 13  1  0  0  0  0
 12 32  1  0  0  0  0
 12 33  1  0  0  0  0
 13 14  1  0  0  0  0
 13 34  1  0  0  0  0
 13 35  1  0  0  0  0
 14 15  1  0  0  0  0
 15 16  1  0  0  0  0
 15 36  1  0  0  0  0
 16 20  1  0  0  0  0
 16 17  1  0  0  0  0
 17 18  1  0  0  0  0
 17 37  1  0  0  0  0
 17 38  1  0  0  0  0
 18 19  1  0  0  0  0
 18 39  1  0  0  0  0
 18 40  1  0  0  0  0
 19 20  1  0  0  0  0
 19 41  1  0  0  0  0
 19 42  1  0  0  0  0
 20 43  1  0  0  0  0
 20 44  1  0  0  0  0
 21 22  2  0  0  0  0
 22 45  1  0  0  0  0
M  END
> <s_m_source_file>
AV-unprocessed.smi

> <i_m_source_file_index>
2217

> <i_lp_mmshare_version>
43012

> <i_f3d_flags>
0

> <s_epik_input>
W0NIM11jMVtjSF1bY0hdYyhuW2NIXTEpW05IXUMoPU8pW05IXVtDQEBIXTJbQ0BASF0oW0NIMl1bQ0gyXU8zKVtDQEhdM0MyNFtDSDJdW0NIMl1bQ0gyXVtDSDJdNA==

> <s_epik_cmdline>
J2VwaWtfcHl0aG9uJywgJy1waCcsICc3LjAnLCAnLXRuJywgJzgnLCAnLW1hJywgJzIwMCcsICctbWV0YWxfYmluZGluZycsICctaW1hZScsICc8aW5maWxlLm1hZT4nLCAnLW9tYWUnLCAnPG91dGZpbGUubWFlPic=

> <r_lp_tautomer_probability>
1

> <r_epik_Ionization_Penalty>
6.14796e-05

> <r_epik_Ionization_Penalty_Charging>
0

> <r_epik_Ionization_Penalty_Neutral>
6.14796e-05

> <r_epik_State_Penalty>
-0

> <r_epik_Charging_Adjusted_Penalty>
0

> <i_epik_Tot_Q>
0

> <i_epik_Tot_abs_Q>
0

> <r_epik_Metal_State_Penalty>
-0

> <b_epik_Metal_Only>
0

> <s_lp_Force_Field>
OPLS_2005

> <r_lp_Energy>
82.2592

> <b_lp_Chiralities_Consistent>
1

> <s_lp_Variant>
AV-unprocessed.smi:2217-2

> <Gold.Version>
5.8.1

> <Gold.Id.Protein>
6NUR|6NUR_protein|mol2

> <Gold.PLP.Fitness>
43.0827

> <Gold.PLP.PLP>
-34.7206

> <Gold.PLP.part.hbond>
-2.8301

> <Gold.PLP.part.metal>
0.0000

> <Gold.PLP.part.buried>
-1.1749

> <Gold.PLP.part.nonpolar>
-31.2161

> <Gold.PLP.part.repulsive>
0.1074

> <Gold.PLP.ligand.clash>
0.0000

> <Gold.PLP.ligand.torsion>
0.3236

> <Gold.PLP.Chemscore.Hbond>
2.9119

> <Gold.PLP.Chemscore.CHOScore>
0.0000

> <Gold.PLP.Chemscore.Metal>
0.0000

> <Gold.Chemscore.Hbonds>
donor molecule, donor type, donor heavy atom, donor atom, acceptor molecule, acceptor atom, score
      L1  H     6    28       P1  7948  0.99
      L1  H     9    29       P1  7948  0.93
      P1  H  7989  7998       L1    14  0.99

> <Gold.PLP.Chemscore.Internal.Correction>
0.2736

> <Gold.Rescore>
     Score         DG    S(hbond)    S(metal)    S(lipo)     H(rot)  DE(clash)    DE(int)     intcor
     17.53     -19.05       1.98        0.00      81.29       1.00       0.21       1.31       ----

> <Gold.Chemscore.Fitness>
17.5278

> <Gold.Chemscore.DG>
-19.0451

> <Gold.Chemscore.ZeroCoef>
-5.4800

> <Gold.Chemscore.Hbond>
1.9804

> <Gold.Chemscore.Metal>
0.0000

> <Gold.Chemscore.Lipo>
81.2862

> <Gold.Chemscore.Internal_Hbond>
0.0000

> <Gold.Chemscore.DEClash>
0.2069

> <Gold.Chemscore.DEInternal>
1.3104

> <Gold.Chemscore.Rot>
1.0000

> <Gold.Chemscore.Internal.Correction>
   9.000000E+99

> <Gold.Chemscore.Hbonds>
donor molecule, donor type, donor heavy atom, donor atom, acceptor molecule, acceptor atom, score
      L1  H     6    28       P1  7948  0.24
      L1  H     9    29       P1  7948  0.84
      P1  H  7989  7998       L1    14  0.36

> <Gold.Chemscore.Hbond.Weighted>
-6.6146

> <Gold.Chemscore.Metal.Weighted>
-0.0000

> <Gold.Chemscore.Lipo.Weighted>
-9.5105

> <Gold.Chemscore.Internal_Hbond.Weighted>
0.0000

> <Gold.Chemscore.DEClash.Weighted>
0.2069

> <Gold.Chemscore.DEInternal.Weighted>
1.3104

> <Gold.Chemscore.Rot.Weighted>
2.5600

> <Gold.Chemscore.Internal.Correction.Weighted>
   9.000000E+99

> <Gold.Protein.RotatedTorsions>
[ 6907 6896 6895 6894 ] final   73.36 input  -60.11 | X-H torsion
[ 7974 7965 7964 7962 ] final -109.76 input  175.53 | X-H torsion
[ 8008 7997 7996 7995 ] final   -6.40 input   59.86 | X-H torsion
[ 10167 10162 10161 10158 ] final   40.75 input  -65.29 | X-H torsion
[ 10718 10713 10712 10709 ] final   76.05 input   66.30 | X-H torsion
[ 10763 10752 10751 10750 ] final -172.70 input  -60.55 | X-H torsion
[ 11005 11000 10999 10996 ] final  100.76 input  -57.11 | X-H torsion

> <Gold.Protein.ActiveResidues>
 VAL166  LYS551  ARG553  GLY616  TRP617  ASP618  TYR619  PRO620  LYS621  CYS622 
 ASP623  PHE694  ASN695  SER759  ASP760  ASP761  ALA762  ILE779  LEU786  VAL792 
 PHE793  MET794  SER795  GLU796  ALA797  LYS798  CYS799  TRP800  GLU811  SER814 

> <Gold.Protein.RotatedAtoms>
  152.4919  134.4434  159.9550 H   0  0  0  0  0  0  0  0  0  0  0  0  # atno 6907 bound_to 6896
  151.4420  133.3635  159.2791 H   0  0  0  0  0  0  0  0  0  0  0  0  # atno 6908 bound_to 6896
  150.9081  134.8521  159.7466 H   0  0  0  0  0  0  0  0  0  0  0  0  # atno 6909 bound_to 6896
  145.1765  140.8951  143.3504 H   0  0  0  0  0  0  0  0  0  0  0  0  # atno 7974 bound_to 7965
  154.5941  140.2434  155.7880 H   0  0  0  0  0  0  0  0  0  0  0  0  # atno 8008 bound_to 7997
  156.2267  140.2980  156.0039 H   0  0  0  0  0  0  0  0  0  0  0  0  # atno 8009 bound_to 7997
  155.2322  140.0404  157.2954 H   0  0  0  0  0  0  0  0  0  0  0  0  # atno 8010 bound_to 7997
  140.3711  144.2103  150.6133 H   0  0  0  0  0  0  0  0  0  0  0  0  # atno 10167 bound_to 10162
  157.6658  130.9756  150.1441 H   0  0  0  0  0  0  0  0  0  0  0  0  # atno 10718 bound_to 10713
  154.6162  135.2870  155.0377 H   0  0  0  0  0  0  0  0  0  0  0  0  # atno 10763 bound_to 10752
  154.1588  135.6491  153.4985 H   0  0  0  0  0  0  0  0  0  0  0  0  # atno 10764 bound_to 10752
  153.0216  135.5373  154.6935 H   0  0  0  0  0  0  0  0  0  0  0  0  # atno 10765 bound_to 10752
  139.8771  134.9154  156.4805 H   0  0  0  0  0  0  0  0  0  0  0  0  # atno 11005 bound_to 11000
  145.0179  139.3450  143.6087 LP  0  0  0  0  0  0  0  0  0  0  0  0  # atno 17320 bound_to 7965
  146.3460  139.9468  142.8734 LP  0  0  0  0  0  0  0  0  0  0  0  0  # atno 17321 bound_to 7965
  140.5032  143.2312  151.8647 LP  0  0  0  0  0  0  0  0  0  0  0  0  # atno 17342 bound_to 10162
  139.4803  144.5035  151.9028 LP  0  0  0  0  0  0  0  0  0  0  0  0  # atno 17343 bound_to 10162
  156.2256  130.3677  149.8504 LP  0  0  0  0  0  0  0  0  0  0  0  0  # atno 17370 bound_to 10713
  156.6345  130.8679  151.3502 LP  0  0  0  0  0  0  0  0  0  0  0  0  # atno 17371 bound_to 10713
  140.8730  133.7974  155.9385 LP  0  0  0  0  0  0  0  0  0  0  0  0  # atno 17394 bound_to 11000
  140.8932  134.2469  157.5083 LP  0  0  0  0  0  0  0  0  0  0  0  0  # atno 17395 bound_to 11000

$$$$
