AV-unprocessed.smi:128|AV-procd|sdf|1155|dock1
  -GOLD-   2262018293D 1   1.00000     0.00000
 Structure written by MMmdl.
 41 44  0  0  0  0  0  0  0  0  1 V2000
  147.0878  138.2255  155.8981 O   0  0  0  0  0  0  0  0  0  0  0  0
  147.3583  137.7270  156.9920 C   0  0  0  0  0  0  0  0  0  0  0  0
  146.4207  137.6882  158.1091 C   0  0  0  0  0  0  0  0  0  0  0  0
  145.1996  138.2321  157.9717 F   0  0  0  0  0  0  0  0  0  0  0  0
  146.7589  137.1125  159.2828 C   0  0  0  0  0  0  0  0  0  0  0  0
  147.9920  136.5271  159.5102 N   0  0  0  0  0  0  0  0  0  0  0  0
  148.2986  135.8878  160.8433 C   0  0  2  0  0  0  0  0  0  0  0  0
  147.2925  134.7702  161.1493 C   0  0  0  0  0  0  0  0  0  0  0  0
  146.3974  135.4128  162.1895 C   0  0  0  0  0  0  0  0  0  0  0  0
  147.3632  136.3616  162.8880 C   0  0  0  0  0  0  0  0  0  0  0  0
  148.1818  136.8619  161.8386 O   0  0  0  0  0  0  0  0  0  0  0  0
  148.9596  136.5063  158.4819 C   0  0  0  0  0  0  0  0  0  0  0  0
  150.0501  135.9534  158.6432 O   0  0  0  0  0  0  0  0  0  0  0  0
  148.6146  137.1277  157.2582 N   0  0  0  0  0  0  0  0  0  0  0  0
  149.6021  137.1102  156.1899 C   0  0  0  0  0  0  0  0  0  0  0  0
  150.2153  138.4611  155.9625 C   0  0  0  0  0  0  0  0  0  0  0  0
  150.7007  138.9787  154.8300 N   0  0  0  0  0  0  0  0  0  0  0  0
  151.1386  140.2424  155.1518 N   0  0  0  0  0  0  0  0  0  0  0  0
  150.8852  140.4044  156.4548 C   0  0  0  0  0  0  0  0  0  0  0  0
  151.1494  141.5729  157.2938 C   0  0  0  0  0  0  0  0  0  0  0  0
  151.0655  142.8810  156.7630 C   0  0  0  0  0  0  0  0  0  0  0  0
  151.3251  143.9994  157.5790 C   0  0  0  0  0  0  0  0  0  0  0  0
  151.6703  143.8207  158.9319 C   0  0  0  0  0  0  0  0  0  0  0  0
  152.0240  145.3318  160.0333 Br  0  0  0  0  0  0  0  0  0  0  0  0
  151.7543  142.5222  159.4689 C   0  0  0  0  0  0  0  0  0  0  0  0
  151.4950  141.4034  158.6535 C   0  0  0  0  0  0  0  0  0  0  0  0
  150.3033  139.3107  157.0174 O   0  0  0  0  0  0  0  0  0  0  0  0
  146.0253  137.1103  160.0751 H   0  0  0  0  0  0  0  0  0  0  0  0
  149.3318  135.5403  160.8099 H   0  0  0  0  0  0  0  0  0  0  0  0
  146.7618  134.4337  160.2576 H   0  0  0  0  0  0  0  0  0  0  0  0
  147.8328  133.9252  161.5777 H   0  0  0  0  0  0  0  0  0  0  0  0
  145.5979  135.9749  161.7061 H   0  0  0  0  0  0  0  0  0  0  0  0
  145.9436  134.6904  162.8684 H   0  0  0  0  0  0  0  0  0  0  0  0
  146.8559  137.1669  163.4195 H   0  0  0  0  0  0  0  0  0  0  0  0
  147.9856  135.8183  163.6007 H   0  0  0  0  0  0  0  0  0  0  0  0
  150.3715  136.3756  156.4303 H   0  0  0  0  0  0  0  0  0  0  0  0
  149.1157  136.7481  155.2826 H   0  0  0  0  0  0  0  0  0  0  0  0
  150.8033  143.0417  155.7276 H   0  0  0  0  0  0  0  0  0  0  0  0
  151.2600  144.9946  157.1646 H   0  0  0  0  0  0  0  0  0  0  0  0
  152.0190  142.3829  160.5067 H   0  0  0  0  0  0  0  0  0  0  0  0
  151.5646  140.4141  159.0816 H   0  0  0  0  0  0  0  0  0  0  0  0
  1  2  2  0  0  0  0
  2 14  1  0  0  0  0
  2  3  1  0  0  0  0
  3  4  1  0  0  0  0
  3  5  2  0  0  0  0
  5  6  1  0  0  0  0
  5 28  1  0  0  0  0
  6  7  1  0  0  0  0
  6 12  1  0  0  0  0
  7 11  1  0  0  0  0
  7  8  1  0  0  0  0
  7 29  1  0  0  0  0
  8  9  1  0  0  0  0
  8 30  1  0  0  0  0
  8 31  1  0  0  0  0
  9 10  1  0  0  0  0
  9 32  1  0  0  0  0
  9 33  1  0  0  0  0
 10 11  1  0  0  0  0
 10 34  1  0  0  0  0
 10 35  1  0  0  0  0
 12 13  2  0  0  0  0
 12 14  1  0  0  0  0
 14 15  1  0  0  0  0
 15 16  1  0  0  0  0
 15 36  1  0  0  0  0
 15 37  1  0  0  0  0
 16 27  1  0  0  0  0
 16 17  2  0  0  0  0
 17 18  1  0  0  0  0
 18 19  2  0  0  0  0
 19 20  1  0  0  0  0
 19 27  1  0  0  0  0
 20 26  1  0  0  0  0
 20 21  2  0  0  0  0
 21 22  1  0  0  0  0
 21 38  1  0  0  0  0
 22 23  2  0  0  0  0
 22 39  1  0  0  0  0
 23 24  1  0  0  0  0
 23 25  1  0  0  0  0
 25 26  2  0  0  0  0
 25 40  1  0  0  0  0
 26 41  1  0  0  0  0
M  END
> <s_m_source_file>
AV-unprocessed.smi

> <i_m_source_file_index>
128

> <i_lp_mmshare_version>
43012

> <i_f3d_flags>
0

> <s_epik_input>
TzFbQ0gyXVtDSDJdW0NIMl1bQ0BIXTFuKFtjSF1jKEYpYzI9TyljKD1PKW4yW0NIMl1jM25uYyhvMyktYzRbY0hdW2NIXWMoQnIpW2NIXVtjSF00

> <s_epik_cmdline>
J2VwaWtfcHl0aG9uJywgJy1waCcsICc3LjAnLCAnLXRuJywgJzgnLCAnLW1hJywgJzIwMCcsICctbWV0YWxfYmluZGluZycsICctaW1hZScsICc8aW5maWxlLm1hZT4nLCAnLW9tYWUnLCAnPG91dGZpbGUubWFlPic=

> <r_lp_tautomer_probability>
1

> <r_epik_Ionization_Penalty>
2.55537e-09

> <r_epik_Ionization_Penalty_Charging>
2.54231e-09

> <r_epik_Ionization_Penalty_Neutral>
1.30653e-11

> <r_epik_State_Penalty>
-0

> <r_epik_Charging_Adjusted_Penalty>
2.54231e-09

> <i_epik_Tot_Q>
0

> <i_epik_Tot_abs_Q>
0

> <r_epik_Metal_State_Penalty>
-0

> <b_epik_Metal_Only>
0

> <s_epik_Chemistry_Notes>
This compound contains an acetal/aminal-like group ( X-CH(R)-Y where X, Y are N, S, or O) that may be acid/base labile, releasing an aldehyde.

> <s_lp_Force_Field>
OPLS_2005

> <r_lp_Energy>
32.4944

> <b_lp_Chiralities_Consistent>
1

> <s_lp_Variant>
AV-unprocessed.smi:128-1

> <Gold.Version>
5.8.1

> <Gold.Id.Protein>
6NUR|6NUR_protein|mol2

> <Gold.PLP.Fitness>
48.8446

> <Gold.PLP.PLP>
-41.7704

> <Gold.PLP.part.hbond>
-3.3032

> <Gold.PLP.part.metal>
0.0000

> <Gold.PLP.part.buried>
-7.5456

> <Gold.PLP.part.nonpolar>
-32.1788

> <Gold.PLP.part.repulsive>
0.1308

> <Gold.PLP.ligand.clash>
0.0000

> <Gold.PLP.ligand.torsion>
0.9838

> <Gold.PLP.Chemscore.Hbond>
3.0000

> <Gold.PLP.Chemscore.CHOScore>
0.0000

> <Gold.PLP.Chemscore.Metal>
0.0000

> <Gold.Chemscore.Hbonds>
donor molecule, donor type, donor heavy atom, donor atom, acceptor molecule, acceptor atom, score
      P1  H  6896  6908       L1    13  1.00
      P1  H  6931  6943       L1    11  1.00
      P1  H  7989  7998       L1    18  1.00

> <Gold.PLP.Chemscore.Internal.Correction>
0.0418

> <Gold.Rescore>
     Score         DG    S(hbond)    S(metal)    S(lipo)     H(rot)  DE(clash)    DE(int)     intcor
     21.16     -22.49       2.96        0.00      98.06       1.70       0.31       1.02       ----

> <Gold.Chemscore.Fitness>
21.1579

> <Gold.Chemscore.DG>
-22.4941

> <Gold.Chemscore.ZeroCoef>
-5.4800

> <Gold.Chemscore.Hbond>
2.9604

> <Gold.Chemscore.Metal>
0.0000

> <Gold.Chemscore.Lipo>
98.0631

> <Gold.Chemscore.Internal_Hbond>
0.0000

> <Gold.Chemscore.DEClash>
0.3140

> <Gold.Chemscore.DEInternal>
1.0222

> <Gold.Chemscore.Rot>
1.6980

> <Gold.Chemscore.Internal.Correction>
   9.000000E+99

> <Gold.Chemscore.Hbonds>
donor molecule, donor type, donor heavy atom, donor atom, acceptor molecule, acceptor atom, score
      P1  H  6896  6908       L1    13  0.98
      P1  H  6931  6943       L1    11  0.99
      P1  H  7989  7998       L1    18  0.29

> <Gold.Chemscore.Hbond.Weighted>
-9.8876

> <Gold.Chemscore.Metal.Weighted>
-0.0000

> <Gold.Chemscore.Lipo.Weighted>
-11.4734

> <Gold.Chemscore.Internal_Hbond.Weighted>
0.0000

> <Gold.Chemscore.DEClash.Weighted>
0.3140

> <Gold.Chemscore.DEInternal.Weighted>
1.0222

> <Gold.Chemscore.Rot.Weighted>
4.3469

> <Gold.Chemscore.Internal.Correction.Weighted>
   9.000000E+99

> <Gold.Protein.RotatedTorsions>
[ 6907 6896 6895 6894 ] final  177.38 input  -60.11 | X-H torsion
[ 7974 7965 7964 7962 ] final  -63.51 input  175.53 | X-H torsion
[ 8008 7997 7996 7995 ] final  163.93 input   59.86 | X-H torsion
[ 10167 10162 10161 10158 ] final  -26.30 input  -65.29 | X-H torsion
[ 10718 10713 10712 10709 ] final   37.06 input   66.30 | X-H torsion
[ 10763 10752 10751 10750 ] final  169.47 input  -60.55 | X-H torsion
[ 11005 11000 10999 10996 ] final  -63.96 input  -57.11 | X-H torsion

> <Gold.Protein.ActiveResidues>
 VAL166  LYS551  ARG553  GLY616  TRP617  ASP618  TYR619  PRO620  LYS621  CYS622 
 ASP623  PHE694  ASN695  SER759  ASP760  ASP761  ALA762  ILE779  LEU786  VAL792 
 PHE793  MET794  SER795  GLU796  ALA797  LYS798  CYS799  TRP800  GLU811  SER814 

> <Gold.Protein.RotatedAtoms>
  151.7049  133.3311  159.3275 H   0  0  0  0  0  0  0  0  0  0  0  0  # atno 6907 bound_to 6896
  150.7719  134.6583  159.6335 H   0  0  0  0  0  0  0  0  0  0  0  0  # atno 6908 bound_to 6896
  152.3747  134.6684  160.0216 H   0  0  0  0  0  0  0  0  0  0  0  0  # atno 6909 bound_to 6896
  145.7781  140.8777  143.0345 H   0  0  0  0  0  0  0  0  0  0  0  0  # atno 7974 bound_to 7965
  156.1919  140.1710  156.8074 H   0  0  0  0  0  0  0  0  0  0  0  0  # atno 8008 bound_to 7997
  154.5482  140.0723  156.8656 H   0  0  0  0  0  0  0  0  0  0  0  0  # atno 8009 bound_to 7997
  155.3080  140.3366  155.4247 H   0  0  0  0  0  0  0  0  0  0  0  0  # atno 8010 bound_to 7997
  140.7283  143.4190  151.0981 H   0  0  0  0  0  0  0  0  0  0  0  0  # atno 10167 bound_to 10162
  157.3424  130.7555  149.6921 H   0  0  0  0  0  0  0  0  0  0  0  0  # atno 10718 bound_to 10713
  154.3837  135.2753  155.2196 H   0  0  0  0  0  0  0  0  0  0  0  0  # atno 10763 bound_to 10752
  154.4292  135.5981  153.6061 H   0  0  0  0  0  0  0  0  0  0  0  0  # atno 10764 bound_to 10752
  152.9834  135.5991  154.4083 H   0  0  0  0  0  0  0  0  0  0  0  0  # atno 10765 bound_to 10752
  141.1410  133.6659  156.5760 H   0  0  0  0  0  0  0  0  0  0  0  0  # atno 11005 bound_to 11000
  144.6801  139.9950  143.7484 LP  0  0  0  0  0  0  0  0  0  0  0  0  # atno 17320 bound_to 7965
  146.0102  139.3163  143.0875 LP  0  0  0  0  0  0  0  0  0  0  0  0  # atno 17321 bound_to 7965
  139.7834  143.8323  152.3141 LP  0  0  0  0  0  0  0  0  0  0  0  0  # atno 17342 bound_to 10162
  139.8282  144.7266  150.9485 LP  0  0  0  0  0  0  0  0  0  0  0  0  # atno 17343 bound_to 10162
  155.9709  130.4164  150.4227 LP  0  0  0  0  0  0  0  0  0  0  0  0  # atno 17370 bound_to 10713
  157.2277  131.0497  151.2510 LP  0  0  0  0  0  0  0  0  0  0  0  0  # atno 17371 bound_to 10713
  140.3875  134.7469  157.4700 LP  0  0  0  0  0  0  0  0  0  0  0  0  # atno 17394 bound_to 11000
  140.0591  134.6021  155.8770 LP  0  0  0  0  0  0  0  0  0  0  0  0  # atno 17395 bound_to 11000

$$$$
