AV-unprocessed.smi:1554|AV-procd|sdf|6250|dock1
  -GOLD-   22720 6433D 1   1.00000     0.00000
 Structure written by MMmdl.
 48 50  0  0  0  0  0  0  0  0  2 V2000
  154.0651  142.4432  160.4752 C   0  0  0  0  0  0  0  0  0  0  0  0
  153.0356  142.2382  159.3778 C   0  0  0  0  0  0  0  0  0  0  0  0
  152.8490  140.9429  158.8448 C   0  0  0  0  0  0  0  0  0  0  0  0
  151.9037  140.7095  157.8223 C   0  0  0  0  0  0  0  0  0  0  0  0
  151.5629  139.5410  157.1634 N   0  0  0  0  0  0  0  0  0  0  0  0
  150.6251  139.9694  156.3241 C   0  0  0  0  0  0  0  0  0  0  0  0
  150.3261  141.2830  156.3516 N   0  0  0  0  0  0  0  0  0  0  0  0
  149.3518  141.9760  155.5271 C   0  0  0  0  0  0  0  0  0  0  0  0
  148.7673  141.0801  154.4161 C   0  0  2  0  0  0  0  0  0  0  0  0
  149.7871  140.8602  153.4622 O   0  0  0  0  0  0  0  0  0  0  0  0
  147.5371  141.6965  153.7109 C   0  0  0  0  0  0  0  0  0  0  0  0
  146.8939  142.7689  154.5112 N   0  3  2  0  0  0  0  0  0  0  0  0
  146.3389  142.2642  155.7894 C   0  0  0  0  0  0  0  0  0  0  0  0
  145.7291  143.4170  156.6043 C   0  0  0  0  0  0  0  0  0  0  0  0
  144.7374  144.0790  155.8289 O   0  0  0  0  0  0  0  0  0  0  0  0
  145.2727  144.6484  154.6392 C   0  0  2  0  0  0  0  0  0  0  0  0
  144.1526  145.4135  153.9255 C   0  0  0  0  0  0  0  0  0  0  0  0
  145.8572  143.5237  153.7634 C   0  0  0  0  0  0  0  0  0  0  0  0
  151.1438  141.8165  157.3428 C   0  0  0  0  0  0  0  0  0  0  0  0
  151.3172  143.1092  157.8687 C   0  0  0  0  0  0  0  0  0  0  0  0
  152.2683  143.3253  158.8875 C   0  0  0  0  0  0  0  0  0  0  0  0
  152.4524  144.7265  159.4430 C   0  0  0  0  0  0  0  0  0  0  0  0
  154.4944  141.4951  160.8009 H   0  0  0  0  0  0  0  0  0  0  0  0
  153.6114  142.9180  161.3454 H   0  0  0  0  0  0  0  0  0  0  0  0
  154.8785  143.0757  160.1194 H   0  0  0  0  0  0  0  0  0  0  0  0
  153.4329  140.1144  159.2184 H   0  0  0  0  0  0  0  0  0  0  0  0
  150.1345  139.2899  155.6422 H   0  0  0  0  0  0  0  0  0  0  0  0
  148.5537  142.3474  156.1719 H   0  0  0  0  0  0  0  0  0  0  0  0
  149.8369  142.8515  155.0931 H   0  0  0  0  0  0  0  0  0  0  0  0
  148.5137  140.1165  154.8543 H   0  0  0  0  0  0  0  0  0  0  0  0
  149.5282  140.1524  152.8926 H   0  0  0  0  0  0  0  0  0  0  0  0
  147.8043  142.1137  152.7394 H   0  0  0  0  0  0  0  0  0  0  0  0
  146.8193  140.9002  153.5070 H   0  0  0  0  0  0  0  0  0  0  0  0
  145.5796  141.5073  155.5850 H   0  0  0  0  0  0  0  0  0  0  0  0
  147.1255  141.7816  156.3708 H   0  0  0  0  0  0  0  0  0  0  0  0
  145.2670  143.0313  157.5133 H   0  0  0  0  0  0  0  0  0  0  0  0
  146.4988  144.1253  156.9146 H   0  0  0  0  0  0  0  0  0  0  0  0
  146.0613  145.3557  154.9028 H   0  0  0  0  0  0  0  0  0  0  0  0
  144.5166  145.8777  153.0083 H   0  0  0  0  0  0  0  0  0  0  0  0
  143.7548  146.2045  154.5617 H   0  0  0  0  0  0  0  0  0  0  0  0
  143.3272  144.7518  153.6611 H   0  0  0  0  0  0  0  0  0  0  0  0
  146.2772  143.9550  152.8555 H   0  0  0  0  0  0  0  0  0  0  0  0
  145.0640  142.8417  153.4519 H   0  0  0  0  0  0  0  0  0  0  0  0
  150.7235  143.9287  157.4923 H   0  0  0  0  0  0  0  0  0  0  0  0
  151.8289  145.4489  158.9157 H   0  0  0  0  0  0  0  0  0  0  0  0
  153.4901  145.0453  159.3427 H   0  0  0  0  0  0  0  0  0  0  0  0
  152.1804  144.7567  160.4984 H   0  0  0  0  0  0  0  0  0  0  0  0
  147.6220  143.4237  154.7589 H   0  0  0  0  0  0  0  0  0  0  0  0
  1  2  1  0  0  0  0
  1 23  1  0  0  0  0
  1 24  1  0  0  0  0
  1 25  1  0  0  0  0
  2 21  1  0  0  0  0
  2  3  2  0  0  0  0
  3  4  1  0  0  0  0
  3 26  1  0  0  0  0
  4 19  2  0  0  0  0
  4  5  1  0  0  0  0
  5  6  2  0  0  0  0
  6  7  1  0  0  0  0
  6 27  1  0  0  0  0
  7  8  1  0  0  0  0
  7 19  1  0  0  0  0
  8  9  1  0  0  0  0
  8 28  1  0  0  0  0
  8 29  1  0  0  0  0
  9 10  1  0  0  0  0
  9 11  1  0  0  0  0
  9 30  1  0  0  0  0
 10 31  1  0  0  0  0
 11 12  1  0  0  0  0
 11 32  1  0  0  0  0
 11 33  1  0  0  0  0
 12 18  1  0  0  0  0
 12 13  1  0  0  0  0
 12 48  1  0  0  0  0
 13 14  1  0  0  0  0
 13 34  1  0  0  0  0
 13 35  1  0  0  0  0
 14 15  1  0  0  0  0
 14 36  1  0  0  0  0
 14 37  1  0  0  0  0
 15 16  1  0  0  0  0
 16 17  1  0  0  0  0
 16 18  1  0  0  0  0
 16 38  1  0  0  0  0
 17 39  1  0  0  0  0
 17 40  1  0  0  0  0
 17 41  1  0  0  0  0
 18 42  1  0  0  0  0
 18 43  1  0  0  0  0
 19 20  1  0  0  0  0
 20 21  2  0  0  0  0
 20 44  1  0  0  0  0
 21 22  1  0  0  0  0
 22 45  1  0  0  0  0
 22 46  1  0  0  0  0
 22 47  1  0  0  0  0
M  CHG  1  12   1
M  END
> <s_m_source_file>
AV-unprocessed.smi

> <i_m_source_file_index>
1554

> <i_lp_mmshare_version>
43012

> <i_f3d_flags>
0

> <s_epik_input>
W0NIM11jKFtjSF0xKWMoW0NIM10pW2NIXWMoYzEyKW4oW2NIXW4yKVtDSDJdW0NASF0oW09IXSlbQ0gyXU4zW0NIMl1bQ0gyXU9bQ0BASF0oW0NIM10pW0NIMl0z

> <s_epik_cmdline>
J2VwaWtfcHl0aG9uJywgJy1waCcsICc3LjAnLCAnLXRuJywgJzgnLCAnLW1hJywgJzIwMCcsICctbWV0YWxfYmluZGluZycsICctaW1hZScsICc8aW5maWxlLm1hZT4nLCAnLW9tYWUnLCAnPG91dGZpbGUubWFlPic=

> <r_epik_Ionization_Penalty>
0.695251

> <r_epik_Ionization_Penalty_Charging>
0.608065

> <r_epik_Ionization_Penalty_Neutral>
0.0871863

> <r_epik_State_Penalty>
0.731955

> <r_epik_Charging_Adjusted_Penalty>
1.34002

> <i_epik_Tot_Q>
1

> <i_epik_Tot_abs_Q>
1

> <r_epik_Metal_State_Penalty>
0.652186

> <b_epik_Metal_Only>
0

> <s_lp_Force_Field>
OPLS_2005

> <r_lp_Energy>
21.764

> <b_lp_Chiralities_Consistent>
1

> <s_lp_Variant>
AV-unprocessed.smi:1554-11

> <Gold.Version>
5.8.1

> <Gold.Id.Protein>
6NUR|6NUR_protein|mol2

> <Gold.PLP.Fitness>
55.4244

> <Gold.PLP.PLP>
-44.7463

> <Gold.PLP.part.hbond>
-3.4025

> <Gold.PLP.part.metal>
0.0000

> <Gold.PLP.part.buried>
-3.8715

> <Gold.PLP.part.nonpolar>
-35.7684

> <Gold.PLP.part.repulsive>
0.2551

> <Gold.PLP.ligand.clash>
0.0000

> <Gold.PLP.ligand.torsion>
0.7147

> <Gold.PLP.Chemscore.Hbond>
4.0065

> <Gold.PLP.Chemscore.CHOScore>
0.0000

> <Gold.PLP.Chemscore.Metal>
0.0000

> <Gold.Chemscore.Hbonds>
donor molecule, donor type, donor heavy atom, donor atom, acceptor molecule, acceptor atom, score
      L1  H    10    31       P1  7957  0.59
      L1  H    12    48       P1  8028  2.00
      P1  H  7989  7998       L1    10  0.30
      P1  H  8011  8017       L1    10  1.00

> <Gold.PLP.Chemscore.Internal.Correction>
0.0880

> <Gold.Rescore>
     Score         DG    S(hbond)    S(metal)    S(lipo)     H(rot)  DE(clash)    DE(int)     intcor
     18.86     -19.96       1.66        0.00     121.26       2.05       0.44       0.66       ----

> <Gold.Chemscore.Fitness>
18.8611

> <Gold.Chemscore.DG>
-19.9622

> <Gold.Chemscore.ZeroCoef>
-5.4800

> <Gold.Chemscore.Hbond>
1.6630

> <Gold.Chemscore.Metal>
0.0000

> <Gold.Chemscore.Lipo>
121.2617

> <Gold.Chemscore.Internal_Hbond>
0.0000

> <Gold.Chemscore.DEClash>
0.4365

> <Gold.Chemscore.DEInternal>
0.6646

> <Gold.Chemscore.Rot>
2.0546

> <Gold.Chemscore.Internal.Correction>
   9.000000E+99

> <Gold.Chemscore.Hbonds>
donor molecule, donor type, donor heavy atom, donor atom, acceptor molecule, acceptor atom, score
      L1  H    10    31       P1  7957  0.58
      L1  H    12    48       P1  8028  0.34
      P1  H  7989  7998       L1    10  0.18
      P1  H  8011  8017       L1    10  0.26

> <Gold.Chemscore.Hbond.Weighted>
-5.5543

> <Gold.Chemscore.Metal.Weighted>
-0.0000

> <Gold.Chemscore.Lipo.Weighted>
-14.1876

> <Gold.Chemscore.Internal_Hbond.Weighted>
0.0000

> <Gold.Chemscore.DEClash.Weighted>
0.4365

> <Gold.Chemscore.DEInternal.Weighted>
0.6646

> <Gold.Chemscore.Rot.Weighted>
5.2597

> <Gold.Chemscore.Internal.Correction.Weighted>
   9.000000E+99

> <Gold.Protein.RotatedTorsions>
[ 6907 6896 6895 6894 ] final  124.29 input  -60.11 | X-H torsion
[ 7974 7965 7964 7962 ] final   77.77 input  175.53 | X-H torsion
[ 8008 7997 7996 7995 ] final  135.87 input   59.86 | X-H torsion
[ 10167 10162 10161 10158 ] final   84.28 input  -65.29 | X-H torsion
[ 10718 10713 10712 10709 ] final  -47.90 input   66.30 | X-H torsion
[ 10763 10752 10751 10750 ] final  -10.34 input  -60.55 | X-H torsion
[ 11005 11000 10999 10996 ] final -170.79 input  -57.11 | X-H torsion

> <Gold.Protein.ActiveResidues>
 VAL166  LYS551  ARG553  GLY616  TRP617  ASP618  TYR619  PRO620  LYS621  CYS622 
 ASP623  PHE694  ASN695  SER759  ASP760  ASP761  ALA762  ILE779  LEU786  VAL792 
 PHE793  MET794  SER795  GLU796  ALA797  LYS798  CYS799  TRP800  GLU811  SER814 

> <Gold.Protein.RotatedAtoms>
  152.4090  133.6934  159.6381 H   0  0  0  0  0  0  0  0  0  0  0  0  # atno 6907 bound_to 6896
  150.7972  133.8657  159.3253 H   0  0  0  0  0  0  0  0  0  0  0  0  # atno 6908 bound_to 6896
  151.6404  135.1015  160.0191 H   0  0  0  0  0  0  0  0  0  0  0  0  # atno 6909 bound_to 6896
  145.6858  139.2537  143.1788 H   0  0  0  0  0  0  0  0  0  0  0  0  # atno 7974 bound_to 7965
  156.3003  140.2460  156.3652 H   0  0  0  0  0  0  0  0  0  0  0  0  # atno 8008 bound_to 7997
  154.8840  140.0411  157.1819 H   0  0  0  0  0  0  0  0  0  0  0  0  # atno 8009 bound_to 7997
  154.8666  140.2928  155.5510 H   0  0  0  0  0  0  0  0  0  0  0  0  # atno 8010 bound_to 7997
  139.9096  144.6280  150.8551 H   0  0  0  0  0  0  0  0  0  0  0  0  # atno 10167 bound_to 10162
  156.2039  130.4157  149.9203 H   0  0  0  0  0  0  0  0  0  0  0  0  # atno 10718 bound_to 10713
  153.4678  135.7016  153.6012 H   0  0  0  0  0  0  0  0  0  0  0  0  # atno 10763 bound_to 10752
  153.4279  135.3810  155.2152 H   0  0  0  0  0  0  0  0  0  0  0  0  # atno 10764 bound_to 10752
  154.8726  135.3943  154.4111 H   0  0  0  0  0  0  0  0  0  0  0  0  # atno 10765 bound_to 10752
  140.5156  134.5759  157.5032 H   0  0  0  0  0  0  0  0  0  0  0  0  # atno 11005 bound_to 11000
  146.0925  140.7639  142.9588 LP  0  0  0  0  0  0  0  0  0  0  0  0  # atno 17320 bound_to 7965
  144.7012  140.3660  143.7154 LP  0  0  0  0  0  0  0  0  0  0  0  0  # atno 17321 bound_to 7965
  140.7688  143.3375  151.2278 LP  0  0  0  0  0  0  0  0  0  0  0  0  # atno 17342 bound_to 10162
  139.6954  143.9622  152.2880 LP  0  0  0  0  0  0  0  0  0  0  0  0  # atno 17343 bound_to 10162
  156.6904  130.8893  151.3587 LP  0  0  0  0  0  0  0  0  0  0  0  0  # atno 17370 bound_to 10713
  157.7001  130.9324  150.0761 LP  0  0  0  0  0  0  0  0  0  0  0  0  # atno 17371 bound_to 10713
  139.9634  134.7413  156.0188 LP  0  0  0  0  0  0  0  0  0  0  0  0  # atno 17394 bound_to 11000
  141.1362  133.6574  156.3600 LP  0  0  0  0  0  0  0  0  0  0  0  0  # atno 17395 bound_to 11000

$$$$
