AV-unprocessed.smi:3314|AV-procd|sdf|12741|dock1
  -GOLD-   2272019 83D 1   1.00000     0.00000
 Structure written by MMmdl.
 38 39  0  0  0  0  0  0  0  0  2 V2000
  153.8373  141.3713  161.8837 C   0  0  0  0  0  0  0  0  0  0  0  0
  153.0754  142.1234  160.8121 C   0  0  0  0  0  0  0  0  0  0  0  0
  152.7558  143.4869  160.9789 C   0  0  0  0  0  0  0  0  0  0  0  0
  152.0374  144.1506  159.9642 C   0  0  0  0  0  0  0  0  0  0  0  0
  151.6474  145.6097  160.0707 C   0  0  0  0  0  0  0  0  0  0  0  0
  151.6730  143.4754  158.8516 N   0  3  0  0  0  0  0  0  0  0  0  0
  151.9618  142.1714  158.6337 C   0  0  0  0  0  0  0  0  0  0  0  0
  151.4909  141.6047  157.4178 N   0  0  0  0  0  0  0  0  0  0  0  0
  151.8599  140.4594  156.8141 C   0  0  0  0  0  0  0  0  0  0  0  0
  152.7251  139.6926  157.2377 O   0  0  0  0  0  0  0  0  0  0  0  0
  151.1172  140.1460  155.5090 C   0  0  2  0  0  0  0  0  0  0  0  0
  149.8704  141.0314  155.2831 C   0  0  0  0  0  0  0  0  0  0  0  0
  149.1618  140.6597  154.0658 N   0  0  0  0  0  0  0  0  0  0  0  0
  147.9915  141.4964  153.8486 C   0  0  0  0  0  0  0  0  0  0  0  0
  148.8106  139.2471  154.1167 C   0  0  0  0  0  0  0  0  0  0  0  0
  150.0482  138.3634  154.3479 C   0  0  0  0  0  0  0  0  0  0  0  0
  150.7183  138.7758  155.5362 O   0  0  0  0  0  0  0  0  0  0  0  0
  152.6722  141.4595  159.6338 C   0  0  0  0  0  0  0  0  0  0  0  0
  154.0953  142.0214  162.7203 H   0  0  0  0  0  0  0  0  0  0  0  0
  154.7612  140.9618  161.4741 H   0  0  0  0  0  0  0  0  0  0  0  0
  153.2360  140.5464  162.2665 H   0  0  0  0  0  0  0  0  0  0  0  0
  153.0527  144.0153  161.8734 H   0  0  0  0  0  0  0  0  0  0  0  0
  152.0231  146.0505  160.9945 H   0  0  0  0  0  0  0  0  0  0  0  0
  150.5621  145.7144  160.0606 H   0  0  0  0  0  0  0  0  0  0  0  0
  152.0562  146.1756  159.2331 H   0  0  0  0  0  0  0  0  0  0  0  0
  150.8177  142.1624  156.9125 H   0  0  0  0  0  0  0  0  0  0  0  0
  151.8193  140.2927  154.6860 H   0  0  0  0  0  0  0  0  0  0  0  0
  149.1979  140.9469  156.1388 H   0  0  0  0  0  0  0  0  0  0  0  0
  150.1705  142.0785  155.2237 H   0  0  0  0  0  0  0  0  0  0  0  0
  147.4941  141.2295  152.9157 H   0  0  0  0  0  0  0  0  0  0  0  0
  148.2745  142.5476  153.7845 H   0  0  0  0  0  0  0  0  0  0  0  0
  147.2720  141.3868  154.6611 H   0  0  0  0  0  0  0  0  0  0  0  0
  148.0896  139.0740  154.9173 H   0  0  0  0  0  0  0  0  0  0  0  0
  148.3220  138.9529  153.1872 H   0  0  0  0  0  0  0  0  0  0  0  0
  149.7548  137.3184  154.4476 H   0  0  0  0  0  0  0  0  0  0  0  0
  150.7303  138.4250  153.4987 H   0  0  0  0  0  0  0  0  0  0  0  0
  152.9070  140.4117  159.5286 H   0  0  0  0  0  0  0  0  0  0  0  0
  151.1523  143.9822  158.1353 H   0  0  0  0  0  0  0  0  0  0  0  0
  1  2  1  0  0  0  0
  1 19  1  0  0  0  0
  1 20  1  0  0  0  0
  1 21  1  0  0  0  0
  2 18  1  0  0  0  0
  2  3  2  0  0  0  0
  3  4  1  0  0  0  0
  3 22  1  0  0  0  0
  4  5  1  0  0  0  0
  4  6  2  0  0  0  0
  5 23  1  0  0  0  0
  5 24  1  0  0  0  0
  5 25  1  0  0  0  0
  6  7  1  0  0  0  0
  6 38  1  0  0  0  0
  7  8  1  0  0  0  0
  7 18  2  0  0  0  0
  8  9  1  0  0  0  0
  8 26  1  0  0  0  0
  9 10  2  0  0  0  0
  9 11  1  0  0  0  0
 11 17  1  0  0  0  0
 11 12  1  0  0  0  0
 11 27  1  0  0  0  0
 12 13  1  0  0  0  0
 12 28  1  0  0  0  0
 12 29  1  0  0  0  0
 13 14  1  0  0  0  0
 13 15  1  0  0  0  0
 14 30  1  0  0  0  0
 14 31  1  0  0  0  0
 14 32  1  0  0  0  0
 15 16  1  0  0  0  0
 15 33  1  0  0  0  0
 15 34  1  0  0  0  0
 16 17  1  0  0  0  0
 16 35  1  0  0  0  0
 16 36  1  0  0  0  0
 18 37  1  0  0  0  0
M  CHG  1   6   1
M  END
> <s_m_source_file>
AV-unprocessed.smi

> <i_m_source_file_index>
3314

> <i_lp_mmshare_version>
43012

> <i_f3d_flags>
0

> <s_epik_input>
W0NIM11jMVtjSF1jKFtDSDNdKW5jKFtjSF0xKVtOSF1DKD1PKVtDQEBIXTJbQ0gyXU4oW0NIM10pW0NIMl1bQ0gyXU8y

> <s_epik_cmdline>
J2VwaWtfcHl0aG9uJywgJy1waCcsICc3LjAnLCAnLXRuJywgJzgnLCAnLW1hJywgJzIwMCcsICctbWV0YWxfYmluZGluZycsICctaW1hZScsICc8aW5maWxlLm1hZT4nLCAnLW9tYWUnLCAnPG91dGZpbGUubWFlPic=

> <r_epik_Ionization_Penalty>
2.57421

> <r_epik_Ionization_Penalty_Charging>
1.80498

> <r_epik_Ionization_Penalty_Neutral>
0.76923

> <r_epik_State_Penalty>
2.63884

> <r_epik_Charging_Adjusted_Penalty>
4.44382

> <i_epik_Tot_Q>
1

> <i_epik_Tot_abs_Q>
1

> <r_epik_Metal_State_Penalty>
6.15142

> <b_epik_Metal_Only>
0

> <s_lp_Force_Field>
OPLS_2005

> <r_lp_Energy>
30.3211

> <b_lp_Chiralities_Consistent>
1

> <s_lp_Variant>
AV-unprocessed.smi:3314-11

> <Gold.Version>
5.8.1

> <Gold.Id.Protein>
6NUR|6NUR_protein|mol2

> <Gold.PLP.Fitness>
43.0543

> <Gold.PLP.PLP>
-41.1336

> <Gold.PLP.part.hbond>
-1.2885

> <Gold.PLP.part.metal>
0.0000

> <Gold.PLP.part.buried>
-4.5663

> <Gold.PLP.part.nonpolar>
-35.1031

> <Gold.PLP.part.repulsive>
0.8815

> <Gold.PLP.ligand.clash>
0.3353

> <Gold.PLP.ligand.torsion>
0.3731

> <Gold.PLP.Chemscore.Hbond>
1.0000

> <Gold.PLP.Chemscore.CHOScore>
0.0000

> <Gold.PLP.Chemscore.Metal>
0.0000

> <Gold.Chemscore.Hbonds>
donor molecule, donor type, donor heavy atom, donor atom, acceptor molecule, acceptor atom, score
      P1  H  7997  8009       L1    10  1.00

> <Gold.PLP.Chemscore.Internal.Correction>
0.0023

> <Gold.Rescore>
     Score         DG    S(hbond)    S(metal)    S(lipo)     H(rot)  DE(clash)    DE(int)     intcor
     16.57     -18.23       0.98        0.00     102.98       1.00       0.30       1.36       ----

> <Gold.Chemscore.Fitness>
16.5693

> <Gold.Chemscore.DG>
-18.2272

> <Gold.Chemscore.ZeroCoef>
-5.4800

> <Gold.Chemscore.Hbond>
0.9755

> <Gold.Chemscore.Metal>
0.0000

> <Gold.Chemscore.Lipo>
102.9825

> <Gold.Chemscore.Internal_Hbond>
0.0000

> <Gold.Chemscore.DEClash>
0.2962

> <Gold.Chemscore.DEInternal>
1.3618

> <Gold.Chemscore.Rot>
1.0000

> <Gold.Chemscore.Internal.Correction>
   9.000000E+99

> <Gold.Chemscore.Hbonds>
donor molecule, donor type, donor heavy atom, donor atom, acceptor molecule, acceptor atom, score
      P1  H  7997  8009       L1    10  0.95

> <Gold.Chemscore.Hbond.Weighted>
-3.2583

> <Gold.Chemscore.Metal.Weighted>
-0.0000

> <Gold.Chemscore.Lipo.Weighted>
-12.0489

> <Gold.Chemscore.Internal_Hbond.Weighted>
0.0000

> <Gold.Chemscore.DEClash.Weighted>
0.2962

> <Gold.Chemscore.DEInternal.Weighted>
1.3618

> <Gold.Chemscore.Rot.Weighted>
2.5600

> <Gold.Chemscore.Internal.Correction.Weighted>
   9.000000E+99

> <Gold.Protein.RotatedTorsions>
[ 6907 6896 6895 6894 ] final  -58.37 input  -60.11 | X-H torsion
[ 7974 7965 7964 7962 ] final  171.49 input  175.53 | X-H torsion
[ 8008 7997 7996 7995 ] final  165.58 input   59.86 | X-H torsion
[ 10167 10162 10161 10158 ] final   52.70 input  -65.29 | X-H torsion
[ 10718 10713 10712 10709 ] final  100.14 input   66.30 | X-H torsion
[ 10763 10752 10751 10750 ] final -176.79 input  -60.55 | X-H torsion
[ 11005 11000 10999 10996 ] final  120.00 input  -57.11 | X-H torsion

> <Gold.Protein.ActiveResidues>
 VAL166  LYS551  ARG553  GLY616  TRP617  ASP618  TYR619  PRO620  LYS621  CYS622 
 ASP623  PHE694  ASN695  SER759  ASP760  ASP761  ALA762  ILE779  LEU786  VAL792 
 PHE793  MET794  SER795  GLU796  ALA797  LYS798  CYS799  TRP800  GLU811  SER814 

> <Gold.Protein.RotatedAtoms>
  150.8012  134.7107  159.6601 H   0  0  0  0  0  0  0  0  0  0  0  0  # atno 6907 bound_to 6896
  152.4129  134.6089  160.0030 H   0  0  0  0  0  0  0  0  0  0  0  0  # atno 6908 bound_to 6896
  151.6327  133.3294  159.3148 H   0  0  0  0  0  0  0  0  0  0  0  0  # atno 6909 bound_to 6896
  144.7293  139.9358  143.6426 H   0  0  0  0  0  0  0  0  0  0  0  0  # atno 7974 bound_to 7965
  156.1789  140.1666  156.8311 H   0  0  0  0  0  0  0  0  0  0  0  0  # atno 8008 bound_to 7997
  154.5338  140.0751  156.8424 H   0  0  0  0  0  0  0  0  0  0  0  0  # atno 8009 bound_to 7997
  155.3353  140.3381  155.4241 H   0  0  0  0  0  0  0  0  0  0  0  0  # atno 8010 bound_to 7997
  140.2486  144.3505  150.6356 H   0  0  0  0  0  0  0  0  0  0  0  0  # atno 10167 bound_to 10162
  157.6861  131.0690  150.5055 H   0  0  0  0  0  0  0  0  0  0  0  0  # atno 10718 bound_to 10713
  154.5680  135.2825  155.0855 H   0  0  0  0  0  0  0  0  0  0  0  0  # atno 10763 bound_to 10752
  154.2238  135.6386  153.5157 H   0  0  0  0  0  0  0  0  0  0  0  0  # atno 10764 bound_to 10752
  153.0049  135.5521  154.6295 H   0  0  0  0  0  0  0  0  0  0  0  0  # atno 10765 bound_to 10752
  139.9168  134.9632  156.7741 H   0  0  0  0  0  0  0  0  0  0  0  0  # atno 11005 bound_to 11000
  146.0823  139.3810  143.0457 LP  0  0  0  0  0  0  0  0  0  0  0  0  # atno 17320 bound_to 7965
  145.7824  140.9850  143.1092 LP  0  0  0  0  0  0  0  0  0  0  0  0  # atno 17321 bound_to 7965
  140.6058  143.2167  151.6983 LP  0  0  0  0  0  0  0  0  0  0  0  0  # atno 17342 bound_to 10162
  139.5054  144.3720  152.0461 LP  0  0  0  0  0  0  0  0  0  0  0  0  # atno 17343 bound_to 10162
  156.5374  130.4200  149.6171 LP  0  0  0  0  0  0  0  0  0  0  0  0  # atno 17370 bound_to 10713
  156.3015  130.7179  151.2052 LP  0  0  0  0  0  0  0  0  0  0  0  0  # atno 17371 bound_to 10713
  140.6597  133.9656  155.7798 LP  0  0  0  0  0  0  0  0  0  0  0  0  # atno 17394 bound_to 11000
  141.0652  134.0288  157.3604 LP  0  0  0  0  0  0  0  0  0  0  0  0  # atno 17395 bound_to 11000

$$$$
