AV-unprocessed.smi:2855|AV-procd|sdf|10982|dock1
  -GOLD-   2272015433D 1   1.00000     0.00000
 Structure written by MMmdl.
 47 48  0  0  0  0  0  0  0  0  1 V2000
  149.3286  145.0441  160.2630 C   0  0  0  0  0  0  0  0  0  0  0  0
  150.6706  145.3185  159.5613 C   0  0  1  0  0  0  0  0  0  0  0  0
  151.8723  145.2330  160.5194 C   0  0  0  0  0  0  0  0  0  0  0  0
  152.2052  143.7855  160.9163 C   0  0  0  0  0  0  0  0  0  0  0  0
  152.4548  142.8867  159.6818 C   0  0  1  0  0  0  0  0  0  0  0  0
  152.8888  141.4365  160.0550 C   0  0  0  0  0  0  0  0  0  0  0  0
  153.6269  141.3277  161.4020 C   0  0  0  0  0  0  0  0  0  0  0  0
  153.6999  140.7594  158.9363 C   0  0  0  0  0  0  0  0  0  0  0  0
  151.2366  142.9554  158.7179 C   0  0  2  0  0  0  0  0  0  0  0  0
  151.4993  142.2072  157.4895 N   0  0  0  0  0  0  0  0  0  0  0  0
  150.8577  141.0989  157.0880 C   0  0  0  0  0  0  0  0  0  0  0  0
  149.9207  140.5929  157.7069 O   0  0  0  0  0  0  0  0  0  0  0  0
  151.3472  140.4744  155.7746 C   0  0  0  0  0  0  0  0  0  0  0  0
  150.2763  140.3579  154.7750 N   0  0  0  0  0  0  0  0  0  0  0  0
  149.4128  141.4194  154.5438 C   0  0  0  0  0  0  0  0  0  0  0  0
  148.3968  141.3722  153.6498 C   0  0  0  0  0  0  0  0  0  0  0  0
  148.1579  140.1653  152.8656 C   0  0  0  0  0  0  0  0  0  0  0  0
  147.2655  140.0262  152.0321 O   0  0  0  0  0  0  0  0  0  0  0  0
  149.0466  139.1193  153.1281 N   0  0  0  0  0  0  0  0  0  0  0  0
  150.0941  139.1602  154.0494 C   0  0  0  0  0  0  0  0  0  0  0  0
  150.8175  138.1772  154.2076 O   0  0  0  0  0  0  0  0  0  0  0  0
  150.8979  144.4119  158.3373 C   0  0  0  0  0  0  0  0  0  0  0  0
  148.9184  138.2620  152.6106 H   0  0  0  0  0  0  0  0  0  0  0  0
  149.2726  144.0331  160.6655 H   0  0  0  0  0  0  0  0  0  0  0  0
  148.4948  145.1694  159.5718 H   0  0  0  0  0  0  0  0  0  0  0  0
  149.1728  145.7364  161.0907 H   0  0  0  0  0  0  0  0  0  0  0  0
  150.6193  146.3460  159.1982 H   0  0  0  0  0  0  0  0  0  0  0  0
  152.7447  145.6760  160.0374 H   0  0  0  0  0  0  0  0  0  0  0  0
  151.6859  145.8312  161.4119 H   0  0  0  0  0  0  0  0  0  0  0  0
  153.0832  143.8009  161.5608 H   0  0  0  0  0  0  0  0  0  0  0  0
  151.3929  143.3819  161.5200 H   0  0  0  0  0  0  0  0  0  0  0  0
  153.2961  143.3266  159.1431 H   0  0  0  0  0  0  0  0  0  0  0  0
  151.9841  140.8359  160.1494 H   0  0  0  0  0  0  0  0  0  0  0  0
  154.5823  141.8518  161.3840 H   0  0  0  0  0  0  0  0  0  0  0  0
  153.8340  140.2852  161.6451 H   0  0  0  0  0  0  0  0  0  0  0  0
  153.0367  141.7334  162.2228 H   0  0  0  0  0  0  0  0  0  0  0  0
  154.6815  141.2157  158.8105 H   0  0  0  0  0  0  0  0  0  0  0  0
  153.1786  140.8143  157.9804 H   0  0  0  0  0  0  0  0  0  0  0  0
  153.8606  139.7040  159.1584 H   0  0  0  0  0  0  0  0  0  0  0  0
  150.3678  142.5390  159.2278 H   0  0  0  0  0  0  0  0  0  0  0  0
  152.2496  142.5496  156.9073 H   0  0  0  0  0  0  0  0  0  0  0  0
  152.1629  141.0891  155.3920 H   0  0  0  0  0  0  0  0  0  0  0  0
  151.7887  139.4934  155.9632 H   0  0  0  0  0  0  0  0  0  0  0  0
  149.5485  142.3326  155.1056 H   0  0  0  0  0  0  0  0  0  0  0  0
  147.7566  142.2321  153.5154 H   0  0  0  0  0  0  0  0  0  0  0  0
  150.0191  144.4359  157.6913 H   0  0  0  0  0  0  0  0  0  0  0  0
  151.7161  144.8249  157.7449 H   0  0  0  0  0  0  0  0  0  0  0  0
  1  2  1  0  0  0  0
  1 24  1  0  0  0  0
  1 25  1  0  0  0  0
  1 26  1  0  0  0  0
  2 22  1  0  0  0  0
  2  3  1  0  0  0  0
  2 27  1  0  0  0  0
  3  4  1  0  0  0  0
  3 28  1  0  0  0  0
  3 29  1  0  0  0  0
  4  5  1  0  0  0  0
  4 30  1  0  0  0  0
  4 31  1  0  0  0  0
  5  6  1  0  0  0  0
  5  9  1  0  0  0  0
  5 32  1  0  0  0  0
  6  7  1  0  0  0  0
  6  8  1  0  0  0  0
  6 33  1  0  0  0  0
  7 34  1  0  0  0  0
  7 35  1  0  0  0  0
  7 36  1  0  0  0  0
  8 37  1  0  0  0  0
  8 38  1  0  0  0  0
  8 39  1  0  0  0  0
  9 10  1  0  0  0  0
  9 22  1  0  0  0  0
  9 40  1  0  0  0  0
 10 11  1  0  0  0  0
 10 41  1  0  0  0  0
 11 12  2  0  0  0  0
 11 13  1  0  0  0  0
 13 14  1  0  0  0  0
 13 42  1  0  0  0  0
 13 43  1  0  0  0  0
 14 20  1  0  0  0  0
 14 15  1  0  0  0  0
 15 16  2  0  0  0  0
 15 44  1  0  0  0  0
 16 17  1  0  0  0  0
 16 45  1  0  0  0  0
 17 18  2  0  0  0  0
 17 19  1  0  0  0  0
 19 23  1  0  0  0  0
 19 20  1  0  0  0  0
 20 21  2  0  0  0  0
 22 46  1  0  0  0  0
 22 47  1  0  0  0  0
M  END
> <s_m_source_file>
AV-unprocessed.smi

> <i_m_source_file_index>
2855

> <i_lp_mmshare_version>
43012

> <i_f3d_flags>
0

> <s_epik_input>
W0NIM11bQ0BASF0xW0NIMl1bQ0gyXVtDQEBIXShbQ0hdKFtDSDNdKVtDSDNdKVtDQEhdKFtDSDJdMSlbTkhdQyg9TylbQ0gyXW4yW2NIXVtjSF1jKD1PKVtuSF1jMj1P

> <s_epik_cmdline>
J2VwaWtfcHl0aG9uJywgJy1waCcsICc3LjAnLCAnLXRuJywgJzgnLCAnLW1hJywgJzIwMCcsICctbWV0YWxfYmluZGluZycsICctaW1hZScsICc8aW5maWxlLm1hZT4nLCAnLW9tYWUnLCAnPG91dGZpbGUubWFlPic=

> <r_lp_tautomer_probability>
0.999537

> <r_epik_Ionization_Penalty>
0.00306256

> <r_epik_Ionization_Penalty_Charging>
0.00306254

> <r_epik_Ionization_Penalty_Neutral>
2.0223e-08

> <r_epik_State_Penalty>
0.0021533

> <r_epik_Charging_Adjusted_Penalty>
0.00521583

> <i_epik_Tot_Q>
0

> <i_epik_Tot_abs_Q>
0

> <r_epik_Metal_State_Penalty>
0.362116

> <b_epik_Metal_Only>
0

> <s_lp_Force_Field>
OPLS_2005

> <r_lp_Energy>
15.8562

> <b_lp_Chiralities_Consistent>
1

> <s_lp_Variant>
AV-unprocessed.smi:2855-6

> <Gold.Version>
5.8.1

> <Gold.Id.Protein>
6NUR|6NUR_protein|mol2

> <Gold.PLP.Fitness>
50.1735

> <Gold.PLP.PLP>
-46.8930

> <Gold.PLP.part.hbond>
-2.0000

> <Gold.PLP.part.metal>
0.0000

> <Gold.PLP.part.buried>
-3.0499

> <Gold.PLP.part.nonpolar>
-43.4313

> <Gold.PLP.part.repulsive>
1.8700

> <Gold.PLP.ligand.clash>
0.0000

> <Gold.PLP.ligand.torsion>
0.7622

> <Gold.PLP.Chemscore.Hbond>
0.9588

> <Gold.PLP.Chemscore.CHOScore>
0.6203

> <Gold.PLP.Chemscore.Metal>
0.0000

> <Gold.Chemscore.Hbonds>
donor molecule, donor type, donor heavy atom, donor atom, acceptor molecule, acceptor atom, score
      L1  H    19    23       P1  7948  0.75
      L1  C    15    44       P1  8028  1.00

> <Gold.PLP.Chemscore.Internal.Correction>
0.0678

> <Gold.Rescore>
     Score         DG    S(hbond)    S(metal)    S(lipo)     H(rot)  DE(clash)    DE(int)     intcor
     16.45     -17.63       0.97        0.00     116.72       1.85       0.00       1.17       ----

> <Gold.Chemscore.Fitness>
16.4513

> <Gold.Chemscore.DG>
-17.6261

> <Gold.Chemscore.ZeroCoef>
-5.4800

> <Gold.Chemscore.Hbond>
0.9690

> <Gold.Chemscore.Metal>
0.0000

> <Gold.Chemscore.Lipo>
116.7152

> <Gold.Chemscore.Internal_Hbond>
0.0000

> <Gold.Chemscore.DEClash>
0.0000

> <Gold.Chemscore.DEInternal>
1.1748

> <Gold.Chemscore.Rot>
1.8539

> <Gold.Chemscore.Internal.Correction>
   9.000000E+99

> <Gold.Chemscore.Hbonds>
donor molecule, donor type, donor heavy atom, donor atom, acceptor molecule, acceptor atom, score
      L1  H    19    23       P1  7948  0.74

> <Gold.Chemscore.Hbond.Weighted>
-3.2364

> <Gold.Chemscore.Metal.Weighted>
-0.0000

> <Gold.Chemscore.Lipo.Weighted>
-13.6557

> <Gold.Chemscore.Internal_Hbond.Weighted>
0.0000

> <Gold.Chemscore.DEClash.Weighted>
0.0000

> <Gold.Chemscore.DEInternal.Weighted>
1.1748

> <Gold.Chemscore.Rot.Weighted>
4.7460

> <Gold.Chemscore.Internal.Correction.Weighted>
   9.000000E+99

> <Gold.Protein.RotatedTorsions>
[ 6907 6896 6895 6894 ] final  152.83 input  -60.11 | X-H torsion
[ 7974 7965 7964 7962 ] final   71.77 input  175.53 | X-H torsion
[ 8008 7997 7996 7995 ] final  122.60 input   59.86 | X-H torsion
[ 10167 10162 10161 10158 ] final  -87.64 input  -65.29 | X-H torsion
[ 10718 10713 10712 10709 ] final   -7.27 input   66.30 | X-H torsion
[ 10763 10752 10751 10750 ] final  -44.77 input  -60.55 | X-H torsion
[ 11005 11000 10999 10996 ] final  -46.42 input  -57.11 | X-H torsion

> <Gold.Protein.ActiveResidues>
 VAL166  LYS551  ARG553  GLY616  TRP617  ASP618  TYR619  PRO620  LYS621  CYS622 
 ASP623  PHE694  ASN695  SER759  ASP760  ASP761  ALA762  ILE779  LEU786  VAL792 
 PHE793  MET794  SER795  GLU796  ALA797  LYS798  CYS799  TRP800  GLU811  SER814 

> <Gold.Protein.RotatedAtoms>
  152.0812  133.4153  159.4501 H   0  0  0  0  0  0  0  0  0  0  0  0  # atno 6907 bound_to 6896
  150.6862  134.2980  159.4703 H   0  0  0  0  0  0  0  0  0  0  0  0  # atno 6908 bound_to 6896
  152.0822  134.9463  160.0624 H   0  0  0  0  0  0  0  0  0  0  0  0  # atno 6909 bound_to 6896
  145.7617  139.2803  143.1372 H   0  0  0  0  0  0  0  0  0  0  0  0  # atno 7974 bound_to 7965
  156.2734  140.2782  156.1494 H   0  0  0  0  0  0  0  0  0  0  0  0  # atno 8008 bound_to 7997
  155.0869  140.0388  157.2674 H   0  0  0  0  0  0  0  0  0  0  0  0  # atno 8009 bound_to 7997
  154.6920  140.2631  155.6809 H   0  0  0  0  0  0  0  0  0  0  0  0  # atno 8010 bound_to 7997
  140.3824  143.2742  151.9366 H   0  0  0  0  0  0  0  0  0  0  0  0  # atno 10167 bound_to 10162
  156.7197  130.5147  149.5871 H   0  0  0  0  0  0  0  0  0  0  0  0  # atno 10718 bound_to 10713
  154.0176  135.6673  153.4770 H   0  0  0  0  0  0  0  0  0  0  0  0  # atno 10763 bound_to 10752
  153.0594  135.5037  154.8054 H   0  0  0  0  0  0  0  0  0  0  0  0  # atno 10764 bound_to 10752
  154.6957  135.3069  154.9379 H   0  0  0  0  0  0  0  0  0  0  0  0  # atno 10765 bound_to 10752
  141.0578  133.6719  156.3153 H   0  0  0  0  0  0  0  0  0  0  0  0  # atno 11005 bound_to 11000
  146.0257  140.8306  142.9901 LP  0  0  0  0  0  0  0  0  0  0  0  0  # atno 17320 bound_to 7965
  144.6829  140.2695  143.7308 LP  0  0  0  0  0  0  0  0  0  0  0  0  # atno 17321 bound_to 7965
  139.4794  144.5805  151.7940 LP  0  0  0  0  0  0  0  0  0  0  0  0  # atno 17342 bound_to 10162
  140.4923  144.1291  150.5953 LP  0  0  0  0  0  0  0  0  0  0  0  0  # atno 17343 bound_to 10162
  156.1603  130.6369  151.0710 LP  0  0  0  0  0  0  0  0  0  0  0  0  # atno 17370 bound_to 10713
  157.6903  131.0812  150.7127 LP  0  0  0  0  0  0  0  0  0  0  0  0  # atno 17371 bound_to 10713
  140.5929  134.5632  157.5503 LP  0  0  0  0  0  0  0  0  0  0  0  0  # atno 17394 bound_to 11000
  139.9405  134.7795  156.0690 LP  0  0  0  0  0  0  0  0  0  0  0  0  # atno 17395 bound_to 11000

$$$$
