AV-unprocessed.smi:630|AV-procd|sdf|3124|dock5
  -GOLD-   22720 0 43D 1   1.00000     0.00000
 Structure written by MMmdl.
 36 37  0  0  0  0  0  0  0  0  2 V2000
  151.9213  138.4935  159.1449 N   0  0  0  0  0  0  0  0  0  0  0  0
  152.5325  139.6530  158.8874 C   0  0  0  0  0  0  0  0  0  0  0  0
  153.7279  139.7090  158.6042 O   0  0  0  0  0  0  0  0  0  0  0  0
  151.6781  140.9337  158.9662 C   0  0  1  0  0  0  0  0  0  0  0  0
  152.2233  141.8883  160.0585 C   0  0  0  0  0  0  0  0  0  0  0  0
  153.3009  142.8929  159.6154 C   0  0  0  0  0  0  0  0  0  0  0  0
  152.6994  144.1960  159.0666 C   0  0  0  0  0  0  0  0  0  0  0  0
  152.0690  144.0697  157.6731 C   0  0  0  0  0  0  0  0  0  0  0  0
  150.9606  143.0088  157.5477 C   0  0  0  0  0  0  0  0  0  0  0  0
  151.4964  141.5605  157.5535 C   0  0  2  0  0  0  0  0  0  0  0  0
  150.5862  140.7133  156.7755 N   0  0  0  0  0  0  0  0  0  0  0  0
  150.8533  140.0763  155.6255 C   0  0  0  0  0  0  0  0  0  0  0  0
  151.9628  140.1823  155.0983 O   0  0  0  0  0  0  0  0  0  0  0  0
  149.8128  139.3481  155.1595 N   0  5  0  0  0  0  0  0  0  0  0  0
  148.8185  139.9513  154.4879 C   0  0  0  0  0  0  0  0  0  0  0  0
  147.8470  139.2777  153.8609 N   0  0  0  0  0  0  0  0  0  0  0  0
  146.9216  140.1048  153.2216 C   0  0  0  0  0  0  0  0  0  0  0  0
  147.2003  141.4391  153.3569 C   0  0  0  0  0  0  0  0  0  0  0  0
  148.6412  141.6980  154.2982 S   0  0  0  0  0  0  0  0  0  0  0  0
  152.4374  137.6289  159.0738 H   0  0  0  0  0  0  0  0  0  0  0  0
  150.9391  138.4830  159.3791 H   0  0  0  0  0  0  0  0  0  0  0  0
  150.6900  140.6319  159.3199 H   0  0  0  0  0  0  0  0  0  0  0  0
  151.3904  142.4296  160.5092 H   0  0  0  0  0  0  0  0  0  0  0  0
  152.6293  141.2936  160.8787 H   0  0  0  0  0  0  0  0  0  0  0  0
  153.9006  143.1495  160.4891 H   0  0  0  0  0  0  0  0  0  0  0  0
  153.9937  142.4478  158.9008 H   0  0  0  0  0  0  0  0  0  0  0  0
  151.9627  144.5881  159.7689 H   0  0  0  0  0  0  0  0  0  0  0  0
  153.4869  144.9486  159.0168 H   0  0  0  0  0  0  0  0  0  0  0  0
  151.6507  145.0400  157.4035 H   0  0  0  0  0  0  0  0  0  0  0  0
  152.8483  143.8733  156.9355 H   0  0  0  0  0  0  0  0  0  0  0  0
  150.1971  143.1463  158.3143 H   0  0  0  0  0  0  0  0  0  0  0  0
  150.4581  143.1935  156.5967 H   0  0  0  0  0  0  0  0  0  0  0  0
  152.4704  141.5765  157.0609 H   0  0  0  0  0  0  0  0  0  0  0  0
  149.6577  140.5922  157.1524 H   0  0  0  0  0  0  0  0  0  0  0  0
  146.0949  139.6574  152.6905 H   0  0  0  0  0  0  0  0  0  0  0  0
  146.6505  142.2804  152.9632 H   0  0  0  0  0  0  0  0  0  0  0  0
  1  2  1  0  0  0  0
  1 20  1  0  0  0  0
  1 21  1  0  0  0  0
  2  3  2  0  0  0  0
  2  4  1  0  0  0  0
  4 10  1  0  0  0  0
  4  5  1  0  0  0  0
  4 22  1  0  0  0  0
  5  6  1  0  0  0  0
  5 23  1  0  0  0  0
  5 24  1  0  0  0  0
  6  7  1  0  0  0  0
  6 25  1  0  0  0  0
  6 26  1  0  0  0  0
  7  8  1  0  0  0  0
  7 27  1  0  0  0  0
  7 28  1  0  0  0  0
  8  9  1  0  0  0  0
  8 29  1  0  0  0  0
  8 30  1  0  0  0  0
  9 10  1  0  0  0  0
  9 31  1  0  0  0  0
  9 32  1  0  0  0  0
 10 11  1  0  0  0  0
 10 33  1  0  0  0  0
 11 12  1  0  0  0  0
 11 34  1  0  0  0  0
 12 13  2  0  0  0  0
 12 14  1  0  0  0  0
 14 15  1  0  0  0  0
 15 19  1  0  0  0  0
 15 16  2  0  0  0  0
 16 17  1  0  0  0  0
 17 18  2  0  0  0  0
 17 35  1  0  0  0  0
 18 19  1  0  0  0  0
 18 36  1  0  0  0  0
M  CHG  1  14  -1
M  END
> <s_m_source_file>
AV-unprocessed.smi

> <i_m_source_file_index>
630

> <i_lp_mmshare_version>
43012

> <i_f3d_flags>
0

> <s_epik_input>
W05IMl1DKD1PKVtDQEBIXTFbQ0gyXVtDSDJdW0NIMl1bQ0gyXVtDSDJdW0NASF0xW05IXUMoPU8pW05IXWMybltjSF1bY0hdczI=

> <s_epik_cmdline>
J2VwaWtfcHl0aG9uJywgJy1waCcsICc3LjAnLCAnLXRuJywgJzgnLCAnLW1hJywgJzIwMCcsICctbWV0YWxfYmluZGluZycsICctaW1hZScsICc8aW5maWxlLm1hZT4nLCAnLW9tYWUnLCAnPG91dGZpbGUubWFlPic=

> <r_lp_tautomer_probability>
0.999

> <r_epik_Ionization_Penalty>
8.29606

> <r_epik_Ionization_Penalty_Charging>
6.67551

> <r_epik_Ionization_Penalty_Neutral>
1.62055

> <r_epik_State_Penalty>
6.67568

> <r_epik_Charging_Adjusted_Penalty>
13.3512

> <i_epik_Tot_Q>
-1

> <i_epik_Tot_abs_Q>
1

> <r_epik_Metal_State_Penalty>
2.59802

> <b_epik_Metal_Only>
1

> <s_lp_Force_Field>
OPLS_2005

> <r_lp_Energy>
8.13293

> <b_lp_Chiralities_Consistent>
1

> <s_lp_Variant>
AV-unprocessed.smi:630-8

> <Gold.Version>
5.8.1

> <Gold.Id.Protein>
6NUR|6NUR_protein|mol2

> <Gold.PLP.Fitness>
45.3411

> <Gold.PLP.PLP>
-38.4693

> <Gold.PLP.part.hbond>
-2.0000

> <Gold.PLP.part.metal>
0.0000

> <Gold.PLP.part.buried>
-4.2548

> <Gold.PLP.part.nonpolar>
-32.2391

> <Gold.PLP.part.repulsive>
0.4075

> <Gold.PLP.ligand.clash>
0.0000

> <Gold.PLP.ligand.torsion>
0.8267

> <Gold.PLP.Chemscore.Hbond>
1.8000

> <Gold.PLP.Chemscore.CHOScore>
1.0000

> <Gold.PLP.Chemscore.Metal>
0.0000

> <Gold.Chemscore.Hbonds>
donor molecule, donor type, donor heavy atom, donor atom, acceptor molecule, acceptor atom, score
      P1  H  7989  7998       L1    13  0.80
      P1  H  7997  8009       L1     3  1.00
      L1  C    17    35       P1 10175  0.93

> <Gold.PLP.Chemscore.Internal.Correction>
0.1252

> <Gold.Rescore>
     Score         DG    S(hbond)    S(metal)    S(lipo)     H(rot)  DE(clash)    DE(int)     intcor
     17.95     -18.99       1.73        0.00      98.88       1.50       0.05       0.99       ----

> <Gold.Chemscore.Fitness>
17.9499

> <Gold.Chemscore.DG>
-18.9895

> <Gold.Chemscore.ZeroCoef>
-5.4800

> <Gold.Chemscore.Hbond>
1.7342

> <Gold.Chemscore.Metal>
0.0000

> <Gold.Chemscore.Lipo>
98.8771

> <Gold.Chemscore.Internal_Hbond>
0.0000

> <Gold.Chemscore.DEClash>
0.0516

> <Gold.Chemscore.DEInternal>
0.9881

> <Gold.Chemscore.Rot>
1.5044

> <Gold.Chemscore.Internal.Correction>
   9.000000E+99

> <Gold.Chemscore.Hbonds>
donor molecule, donor type, donor heavy atom, donor atom, acceptor molecule, acceptor atom, score
      P1  H  7989  7998       L1    13  0.44
      P1  H  7997  8009       L1     3  0.99

> <Gold.Chemscore.Hbond.Weighted>
-5.7921

> <Gold.Chemscore.Metal.Weighted>
-0.0000

> <Gold.Chemscore.Lipo.Weighted>
-11.5686

> <Gold.Chemscore.Internal_Hbond.Weighted>
0.0000

> <Gold.Chemscore.DEClash.Weighted>
0.0516

> <Gold.Chemscore.DEInternal.Weighted>
0.9881

> <Gold.Chemscore.Rot.Weighted>
3.8512

> <Gold.Chemscore.Internal.Correction.Weighted>
   9.000000E+99

> <Gold.Protein.RotatedTorsions>
[ 6907 6896 6895 6894 ] final -172.23 input  -60.11 | X-H torsion
[ 7974 7965 7964 7962 ] final  103.54 input  175.53 | X-H torsion
[ 8008 7997 7996 7995 ] final  151.05 input   59.86 | X-H torsion
[ 10167 10162 10161 10158 ] final   36.89 input  -65.29 | X-H torsion
[ 10718 10713 10712 10709 ] final  177.32 input   66.30 | X-H torsion
[ 10763 10752 10751 10750 ] final  133.31 input  -60.55 | X-H torsion
[ 11005 11000 10999 10996 ] final  -85.40 input  -57.11 | X-H torsion

> <Gold.Protein.ActiveResidues>
 VAL166  LYS551  ARG553  GLY616  TRP617  ASP618  TYR619  PRO620  LYS621  CYS622 
 ASP623  PHE694  ASN695  SER759  ASP760  ASP761  ALA762  ILE779  LEU786  VAL792 
 PHE793  MET794  SER795  GLU796  ALA797  LYS798  CYS799  TRP800  GLU811  SER814 

> <Gold.Protein.RotatedAtoms>
  151.5367  133.3439  159.2927 H   0  0  0  0  0  0  0  0  0  0  0  0  # atno 6907 bound_to 6896
  150.8560  134.7902  159.7057 H   0  0  0  0  0  0  0  0  0  0  0  0  # atno 6908 bound_to 6896
  152.4594  134.5228  159.9839 H   0  0  0  0  0  0  0  0  0  0  0  0  # atno 6909 bound_to 6896
  145.3446  139.2454  143.3591 H   0  0  0  0  0  0  0  0  0  0  0  0  # atno 7974 bound_to 7965
  156.2690  140.2058  156.6114 H   0  0  0  0  0  0  0  0  0  0  0  0  # atno 8008 bound_to 7997
  154.6829  140.0538  157.0308 H   0  0  0  0  0  0  0  0  0  0  0  0  # atno 8009 bound_to 7997
  155.0975  140.3202  155.4559 H   0  0  0  0  0  0  0  0  0  0  0  0  # atno 8010 bound_to 7997
  140.4085  144.1625  150.6138 H   0  0  0  0  0  0  0  0  0  0  0  0  # atno 10167 bound_to 10162
  156.9071  130.9898  151.3026 H   0  0  0  0  0  0  0  0  0  0  0  0  # atno 10718 bound_to 10713
  153.8051  135.3136  155.3394 H   0  0  0  0  0  0  0  0  0  0  0  0  # atno 10763 bound_to 10752
  154.8074  135.4689  154.0429 H   0  0  0  0  0  0  0  0  0  0  0  0  # atno 10764 bound_to 10752
  153.1790  135.6890  153.8592 H   0  0  0  0  0  0  0  0  0  0  0  0  # atno 10765 bound_to 10752
  141.1641  133.7397  156.9009 H   0  0  0  0  0  0  0  0  0  0  0  0  # atno 11005 bound_to 11000
  146.2993  140.4050  142.8710 LP  0  0  0  0  0  0  0  0  0  0  0  0  # atno 17320 bound_to 7965
  144.8764  140.7342  143.6014 LP  0  0  0  0  0  0  0  0  0  0  0  0  # atno 17321 bound_to 7965
  140.4663  143.2429  151.9150 LP  0  0  0  0  0  0  0  0  0  0  0  0  # atno 17342 bound_to 10162
  139.4783  144.5415  151.8520 LP  0  0  0  0  0  0  0  0  0  0  0  0  # atno 17343 bound_to 10162
  157.5990  130.8499  149.8773 LP  0  0  0  0  0  0  0  0  0  0  0  0  # atno 17370 bound_to 10713
  156.0554  130.3709  150.1104 LP  0  0  0  0  0  0  0  0  0  0  0  0  # atno 17371 bound_to 10713
  140.1583  134.9183  157.2682 LP  0  0  0  0  0  0  0  0  0  0  0  0  # atno 17394 bound_to 11000
  140.2641  134.3537  155.7396 LP  0  0  0  0  0  0  0  0  0  0  0  0  # atno 17395 bound_to 11000

$$$$
