AV-unprocessed.smi:1047|AV-procd|sdf|4594|dock7
  -GOLD-   22720 3 73D 1   1.00000     0.00000
 Structure written by MMmdl.
 55 57  0  0  0  0  0  0  0  0  1 V2000
  143.8552  147.6773  155.3111 C   0  0  0  0  0  0  0  0  0  0  0  0
  143.7914  146.2135  154.8518 C   0  0  0  0  0  0  0  0  0  0  0  0
  144.6657  145.2996  155.5845 N   0  0  0  0  0  0  0  0  0  0  0  0
  144.3597  145.2540  157.0126 C   0  0  0  0  0  0  0  0  0  0  0  0
  145.2632  144.2595  157.7619 C   0  0  0  0  0  0  0  0  0  0  0  0
  145.1470  142.9725  157.1653 O   0  0  0  0  0  0  0  0  0  0  0  0
  145.5103  142.9689  155.7866 C   0  0  1  0  0  0  0  0  0  0  0  0
  145.3870  141.5351  155.2535 C   0  0  0  0  0  0  0  0  0  0  0  0
  146.0865  141.4141  153.9826 N   0  0  0  0  0  0  0  0  0  0  0  0
  147.4523  141.9268  153.9781 C   0  0  0  0  0  0  0  0  0  0  0  0
  148.4194  140.9584  154.6928 C   0  0  1  0  0  0  0  0  0  0  0  0
  148.5988  139.8330  153.8592 O   0  0  0  0  0  0  0  0  0  0  0  0
  149.8271  141.5286  154.9956 C   0  0  0  0  0  0  0  0  0  0  0  0
  150.3904  141.0599  156.2507 N   0  0  0  0  0  0  0  0  0  0  0  0
  150.4201  139.7904  156.7011 C   0  0  0  0  0  0  0  0  0  0  0  0
  151.0177  139.5709  157.8686 N   0  0  0  0  0  0  0  0  0  0  0  0
  151.4185  140.8482  158.2203 C   0  0  0  0  0  0  0  0  0  0  0  0
  152.1278  141.3058  159.3521 C   0  0  0  0  0  0  0  0  0  0  0  0
  152.4402  142.6752  159.5066 C   0  0  0  0  0  0  0  0  0  0  0  0
  153.2102  143.1230  160.7364 C   0  0  0  0  0  0  0  0  0  0  0  0
  152.0351  143.6118  158.5219 C   0  0  0  0  0  0  0  0  0  0  0  0
  152.3578  145.0883  158.6673 C   0  0  0  0  0  0  0  0  0  0  0  0
  151.3249  143.1714  157.3855 C   0  0  0  0  0  0  0  0  0  0  0  0
  151.0277  141.8050  157.2382 C   0  0  0  0  0  0  0  0  0  0  0  0
  144.5860  143.9486  155.0385 C   0  0  0  0  0  0  0  0  0  0  0  0
  143.2614  148.3106  154.6520 H   0  0  0  0  0  0  0  0  0  0  0  0
  144.8797  148.0505  155.2942 H   0  0  0  0  0  0  0  0  0  0  0  0
  143.4646  147.8057  156.3205 H   0  0  0  0  0  0  0  0  0  0  0  0
  142.7602  145.8604  154.9005 H   0  0  0  0  0  0  0  0  0  0  0  0
  144.0660  146.1914  153.7961 H   0  0  0  0  0  0  0  0  0  0  0  0
  144.4824  146.2405  157.4585 H   0  0  0  0  0  0  0  0  0  0  0  0
  143.3158  144.9712  157.1581 H   0  0  0  0  0  0  0  0  0  0  0  0
  146.3040  144.5869  157.7391 H   0  0  0  0  0  0  0  0  0  0  0  0
  144.9706  144.1952  158.8099 H   0  0  0  0  0  0  0  0  0  0  0  0
  146.5449  143.3039  155.6817 H   0  0  0  0  0  0  0  0  0  0  0  0
  145.7807  140.8232  155.9799 H   0  0  0  0  0  0  0  0  0  0  0  0
  144.3330  141.2933  155.1114 H   0  0  0  0  0  0  0  0  0  0  0  0
  145.5443  141.8596  153.2486 H   0  0  0  0  0  0  0  0  0  0  0  0
  147.7739  142.0605  152.9442 H   0  0  0  0  0  0  0  0  0  0  0  0
  147.4939  142.9109  154.4467 H   0  0  0  0  0  0  0  0  0  0  0  0
  147.9584  140.6028  155.6147 H   0  0  0  0  0  0  0  0  0  0  0  0
  148.8975  140.1310  153.0137 H   0  0  0  0  0  0  0  0  0  0  0  0
  150.5196  141.2672  154.1944 H   0  0  0  0  0  0  0  0  0  0  0  0
  149.7882  142.6186  155.0287 H   0  0  0  0  0  0  0  0  0  0  0  0
  149.9931  138.9777  156.1317 H   0  0  0  0  0  0  0  0  0  0  0  0
  152.4351  140.5921  160.1022 H   0  0  0  0  0  0  0  0  0  0  0  0
  152.6040  143.8001  161.3385 H   0  0  0  0  0  0  0  0  0  0  0  0
  154.1260  143.6401  160.4483 H   0  0  0  0  0  0  0  0  0  0  0  0
  153.4896  142.2751  161.3628 H   0  0  0  0  0  0  0  0  0  0  0  0
  151.9525  145.6676  157.8371 H   0  0  0  0  0  0  0  0  0  0  0  0
  153.4369  145.2433  158.6882 H   0  0  0  0  0  0  0  0  0  0  0  0
  151.9323  145.4834  159.5900 H   0  0  0  0  0  0  0  0  0  0  0  0
  151.0161  143.8734  156.6254 H   0  0  0  0  0  0  0  0  0  0  0  0
  143.5569  143.5887  155.0898 H   0  0  0  0  0  0  0  0  0  0  0  0
  144.8586  143.9633  153.9825 H   0  0  0  0  0  0  0  0  0  0  0  0
  1  2  1  0  0  0  0
  1 26  1  0  0  0  0
  1 27  1  0  0  0  0
  1 28  1  0  0  0  0
  2  3  1  0  0  0  0
  2 29  1  0  0  0  0
  2 30  1  0  0  0  0
  3 25  1  0  0  0  0
  3  4  1  0  0  0  0
  4  5  1  0  0  0  0
  4 31  1  0  0  0  0
  4 32  1  0  0  0  0
  5  6  1  0  0  0  0
  5 33  1  0  0  0  0
  5 34  1  0  0  0  0
  6  7  1  0  0  0  0
  7  8  1  0  0  0  0
  7 25  1  0  0  0  0
  7 35  1  0  0  0  0
  8  9  1  0  0  0  0
  8 36  1  0  0  0  0
  8 37  1  0  0  0  0
  9 10  1  0  0  0  0
  9 38  1  0  0  0  0
 10 11  1  0  0  0  0
 10 39  1  0  0  0  0
 10 40  1  0  0  0  0
 11 12  1  0  0  0  0
 11 13  1  0  0  0  0
 11 41  1  0  0  0  0
 12 42  1  0  0  0  0
 13 14  1  0  0  0  0
 13 43  1  0  0  0  0
 13 44  1  0  0  0  0
 14 24  1  0  0  0  0
 14 15  1  0  0  0  0
 15 16  2  0  0  0  0
 15 45  1  0  0  0  0
 16 17  1  0  0  0  0
 17 24  2  0  0  0  0
 17 18  1  0  0  0  0
 18 19  2  0  0  0  0
 18 46  1  0  0  0  0
 19 20  1  0  0  0  0
 19 21  1  0  0  0  0
 20 47  1  0  0  0  0
 20 48  1  0  0  0  0
 20 49  1  0  0  0  0
 21 22  1  0  0  0  0
 21 23  2  0  0  0  0
 22 50  1  0  0  0  0
 22 51  1  0  0  0  0
 22 52  1  0  0  0  0
 23 24  1  0  0  0  0
 23 53  1  0  0  0  0
 25 54  1  0  0  0  0
 25 55  1  0  0  0  0
M  END
> <s_m_source_file>
AV-unprocessed.smi

> <i_m_source_file_index>
1047

> <i_lp_mmshare_version>
43012

> <i_f3d_flags>
0

> <s_epik_input>
W0NIM11bQ0gyXU4xW0NIMl1bQ0gyXU9bQ0BIXShbQ0gyXTEpW0NIMl1bTkhdW0NIMl1bQ0BIXShbT0hdKVtDSDJdbihbY0hdbjIpYyhjMjMpW2NIXWMoW0NIM10pYyhbY0hdMylbQ0gzXQ==

> <s_epik_cmdline>
J2VwaWtfcHl0aG9uJywgJy1waCcsICc3LjAnLCAnLXRuJywgJzgnLCAnLW1hJywgJzIwMCcsICctbWV0YWxfYmluZGluZycsICctaW1hZScsICc8aW5maWxlLm1hZT4nLCAnLW9tYWUnLCAnPG91dGZpbGUubWFlPic=

> <r_epik_Ionization_Penalty>
2.74124

> <r_epik_Ionization_Penalty_Charging>
0

> <r_epik_Ionization_Penalty_Neutral>
2.74124

> <r_epik_State_Penalty>
2.37482

> <r_epik_Charging_Adjusted_Penalty>
2.37482

> <i_epik_Tot_Q>
0

> <i_epik_Tot_abs_Q>
0

> <r_epik_Metal_State_Penalty>
2.25944

> <b_epik_Metal_Only>
0

> <s_lp_Force_Field>
OPLS_2005

> <r_lp_Energy>
29.9902

> <b_lp_Chiralities_Consistent>
1

> <s_lp_Variant>
AV-unprocessed.smi:1047-35

> <Gold.Version>
5.8.1

> <Gold.Id.Protein>
6NUR|6NUR_protein|mol2

> <Gold.PLP.Fitness>
51.1355

> <Gold.PLP.PLP>
-49.7916

> <Gold.PLP.part.hbond>
-2.0000

> <Gold.PLP.part.metal>
0.0000

> <Gold.PLP.part.buried>
-5.4122

> <Gold.PLP.part.nonpolar>
-42.7898

> <Gold.PLP.part.repulsive>
0.1502

> <Gold.PLP.ligand.clash>
0.0000

> <Gold.PLP.ligand.torsion>
0.9332

> <Gold.PLP.Chemscore.Hbond>
1.0201

> <Gold.PLP.Chemscore.CHOScore>
0.0000

> <Gold.PLP.Chemscore.Metal>
0.0000

> <Gold.Chemscore.Hbonds>
donor molecule, donor type, donor heavy atom, donor atom, acceptor molecule, acceptor atom, score
      L1  H    12    42       P1  7957  1.00

> <Gold.PLP.Chemscore.Internal.Correction>
0.1500

> <Gold.Rescore>
     Score         DG    S(hbond)    S(metal)    S(lipo)     H(rot)  DE(clash)    DE(int)     intcor
     16.40     -17.52       0.99        0.00     129.81       2.52       0.05       1.07       ----

> <Gold.Chemscore.Fitness>
16.3959

> <Gold.Chemscore.DG>
-17.5178

> <Gold.Chemscore.ZeroCoef>
-5.4800

> <Gold.Chemscore.Hbond>
0.9913

> <Gold.Chemscore.Metal>
0.0000

> <Gold.Chemscore.Lipo>
129.8081

> <Gold.Chemscore.Internal_Hbond>
0.0000

> <Gold.Chemscore.DEClash>
0.0501

> <Gold.Chemscore.DEInternal>
1.0718

> <Gold.Chemscore.Rot>
2.5237

> <Gold.Chemscore.Internal.Correction>
   9.000000E+99

> <Gold.Chemscore.Hbonds>
donor molecule, donor type, donor heavy atom, donor atom, acceptor molecule, acceptor atom, score
      L1  H    12    42       P1  7957  0.97

> <Gold.Chemscore.Hbond.Weighted>
-3.3109

> <Gold.Chemscore.Metal.Weighted>
-0.0000

> <Gold.Chemscore.Lipo.Weighted>
-15.1875

> <Gold.Chemscore.Internal_Hbond.Weighted>
0.0000

> <Gold.Chemscore.DEClash.Weighted>
0.0501

> <Gold.Chemscore.DEInternal.Weighted>
1.0718

> <Gold.Chemscore.Rot.Weighted>
6.4607

> <Gold.Chemscore.Internal.Correction.Weighted>
   9.000000E+99

> <Gold.Protein.RotatedTorsions>
[ 6907 6896 6895 6894 ] final -179.85 input  -60.11 | X-H torsion
[ 7974 7965 7964 7962 ] final  136.97 input  175.53 | X-H torsion
[ 8008 7997 7996 7995 ] final  -32.86 input   59.86 | X-H torsion
[ 10167 10162 10161 10158 ] final  -52.52 input  -65.29 | X-H torsion
[ 10718 10713 10712 10709 ] final    0.74 input   66.30 | X-H torsion
[ 10763 10752 10751 10750 ] final   -4.80 input  -60.55 | X-H torsion
[ 11005 11000 10999 10996 ] final  111.80 input  -57.11 | X-H torsion

> <Gold.Protein.ActiveResidues>
 VAL166  LYS551  ARG553  GLY616  TRP617  ASP618  TYR619  PRO620  LYS621  CYS622 
 ASP623  PHE694  ASN695  SER759  ASP760  ASP761  ALA762  ILE779  LEU786  VAL792 
 PHE793  MET794  SER795  GLU796  ALA797  LYS798  CYS799  TRP800  GLU811  SER814 

> <Gold.Protein.RotatedAtoms>
  151.6600  133.3317  159.3171 H   0  0  0  0  0  0  0  0  0  0  0  0  # atno 6907 bound_to 6896
  150.7918  134.6951  159.6528 H   0  0  0  0  0  0  0  0  0  0  0  0  # atno 6908 bound_to 6896
  152.3999  134.6308  160.0126 H   0  0  0  0  0  0  0  0  0  0  0  0  # atno 6909 bound_to 6896
  144.9513  139.4816  143.5524 H   0  0  0  0  0  0  0  0  0  0  0  0  # atno 7974 bound_to 7965
  154.4166  140.1726  156.1795 H   0  0  0  0  0  0  0  0  0  0  0  0  # atno 8008 bound_to 7997
  155.9694  140.3387  155.6538 H   0  0  0  0  0  0  0  0  0  0  0  0  # atno 8009 bound_to 7997
  155.6646  140.0704  157.2533 H   0  0  0  0  0  0  0  0  0  0  0  0  # atno 8010 bound_to 7997
  140.6533  143.2581  151.4659 H   0  0  0  0  0  0  0  0  0  0  0  0  # atno 10167 bound_to 10162
  156.8378  130.5510  149.5680 H   0  0  0  0  0  0  0  0  0  0  0  0  # atno 10718 bound_to 10713
  153.3897  135.7001  153.6504 H   0  0  0  0  0  0  0  0  0  0  0  0  # atno 10763 bound_to 10752
  153.5081  135.3638  155.2573 H   0  0  0  0  0  0  0  0  0  0  0  0  # atno 10764 bound_to 10752
  154.8701  135.4128  154.3212 H   0  0  0  0  0  0  0  0  0  0  0  0  # atno 10765 bound_to 10752
  139.8912  134.9516  156.6487 H   0  0  0  0  0  0  0  0  0  0  0  0  # atno 11005 bound_to 11000
  146.3322  139.8600  142.8858 LP  0  0  0  0  0  0  0  0  0  0  0  0  # atno 17320 bound_to 7965
  145.2840  141.0147  143.3701 LP  0  0  0  0  0  0  0  0  0  0  0  0  # atno 17321 bound_to 7965
  139.5751  144.1837  152.1892 LP  0  0  0  0  0  0  0  0  0  0  0  0  # atno 17342 bound_to 10162
  140.1145  144.5428  150.6903 LP  0  0  0  0  0  0  0  0  0  0  0  0  # atno 17343 bound_to 10162
  156.0898  130.5886  150.9712 LP  0  0  0  0  0  0  0  0  0  0  0  0  # atno 17370 bound_to 10713
  157.6372  131.0914  150.8325 LP  0  0  0  0  0  0  0  0  0  0  0  0  # atno 17371 bound_to 10713
  140.7537  133.8876  155.8366 LP  0  0  0  0  0  0  0  0  0  0  0  0  # atno 17394 bound_to 11000
  140.9979  134.1189  157.4345 LP  0  0  0  0  0  0  0  0  0  0  0  0  # atno 17395 bound_to 11000

$$$$
