AV-unprocessed.smi:1675|AV-procd|sdf|6715|dock2
  -GOLD-   22720 7463D 1   1.00000     0.00000
 Structure written by MMmdl.
 40 42  0  0  0  0  0  0  0  0  1 V2000
  144.8355  138.0781  152.0784 N   0  0  0  0  0  0  0  0  0  0  0  0
  146.1309  138.4013  152.1146 C   0  0  0  0  0  0  0  0  0  0  0  0
  146.7526  138.7421  151.1107 O   0  0  0  0  0  0  0  0  0  0  0  0
  146.8299  138.3310  153.4735 C   0  0  0  0  0  0  0  0  0  0  0  0
  147.3821  139.6215  153.8445 N   0  0  0  0  0  0  0  0  0  0  0  0
  148.5120  139.8806  154.5957 C   0  0  0  0  0  0  0  0  0  0  0  0
  148.6018  141.2418  154.6719 C   0  0  0  0  0  0  0  0  0  0  0  0
  149.5667  142.0449  155.3308 N   0  0  0  0  0  0  0  0  0  0  0  0
  150.4283  141.6677  156.2919 C   0  0  0  0  0  0  0  0  0  0  0  0
  150.5196  140.5215  156.7317 O   0  0  0  0  0  0  0  0  0  0  0  0
  151.3434  142.7709  156.8362 C   0  0  0  0  0  0  0  0  0  0  0  0
  151.4741  142.7591  158.3764 C   0  0  2  0  0  0  0  0  0  0  0  0
  150.6256  143.8371  159.0944 C   0  0  0  0  0  0  0  0  0  0  0  0
  151.6644  144.5913  159.9438 C   0  0  1  0  0  0  0  0  0  0  0  0
  152.1606  143.6806  161.0822 C   0  0  0  0  0  0  0  0  0  0  0  0
  153.0414  142.6582  160.3389 C   0  0  0  0  0  0  0  0  0  0  0  0
  152.9010  143.0958  158.8681 C   0  0  2  0  0  0  0  0  0  0  0  0
  152.8663  144.6150  159.0090 C   0  0  0  0  0  0  0  0  0  0  0  0
  147.4921  141.7441  153.9439 C   0  0  0  0  0  0  0  0  0  0  0  0
  146.7602  140.7595  153.4449 N   0  0  0  0  0  0  0  0  0  0  0  0
  144.3366  138.1026  151.2010 H   0  0  0  0  0  0  0  0  0  0  0  0
  144.3618  137.8025  152.9267 H   0  0  0  0  0  0  0  0  0  0  0  0
  146.1188  138.0213  154.2406 H   0  0  0  0  0  0  0  0  0  0  0  0
  147.6248  137.5836  153.4533 H   0  0  0  0  0  0  0  0  0  0  0  0
  149.1256  139.0882  154.9977 H   0  0  0  0  0  0  0  0  0  0  0  0
  149.6029  143.0127  155.0452 H   0  0  0  0  0  0  0  0  0  0  0  0
  152.3278  142.6366  156.3866 H   0  0  0  0  0  0  0  0  0  0  0  0
  150.9832  143.7435  156.4983 H   0  0  0  0  0  0  0  0  0  0  0  0
  151.1975  141.7670  158.7377 H   0  0  0  0  0  0  0  0  0  0  0  0
  150.1604  144.5202  158.3822 H   0  0  0  0  0  0  0  0  0  0  0  0
  149.8299  143.4015  159.7003 H   0  0  0  0  0  0  0  0  0  0  0  0
  151.3238  145.5702  160.2825 H   0  0  0  0  0  0  0  0  0  0  0  0
  152.7540  144.2444  161.8031 H   0  0  0  0  0  0  0  0  0  0  0  0
  151.3380  143.2086  161.6207 H   0  0  0  0  0  0  0  0  0  0  0  0
  154.0786  142.7375  160.6677 H   0  0  0  0  0  0  0  0  0  0  0  0
  152.7185  141.6298  160.5039 H   0  0  0  0  0  0  0  0  0  0  0  0
  153.6939  142.7100  158.2262 H   0  0  0  0  0  0  0  0  0  0  0  0
  152.6757  145.1395  158.0714 H   0  0  0  0  0  0  0  0  0  0  0  0
  153.7649  145.0277  159.4711 H   0  0  0  0  0  0  0  0  0  0  0  0
  147.1990  142.7680  153.7641 H   0  0  0  0  0  0  0  0  0  0  0  0
  1  2  1  0  0  0  0
  1 21  1  0  0  0  0
  1 22  1  0  0  0  0
  2  3  2  0  0  0  0
  2  4  1  0  0  0  0
  4  5  1  0  0  0  0
  4 23  1  0  0  0  0
  4 24  1  0  0  0  0
  5 20  1  0  0  0  0
  5  6  1  0  0  0  0
  6  7  2  0  0  0  0
  6 25  1  0  0  0  0
  7  8  1  0  0  0  0
  7 19  1  0  0  0  0
  8  9  1  0  0  0  0
  8 26  1  0  0  0  0
  9 10  2  0  0  0  0
  9 11  1  0  0  0  0
 11 12  1  0  0  0  0
 11 27  1  0  0  0  0
 11 28  1  0  0  0  0
 12 17  1  0  0  0  0
 12 13  1  0  0  0  0
 12 29  1  0  0  0  0
 13 14  1  0  0  0  0
 13 30  1  0  0  0  0
 13 31  1  0  0  0  0
 14 18  1  0  0  0  0
 14 15  1  0  0  0  0
 14 32  1  0  0  0  0
 15 16  1  0  0  0  0
 15 33  1  0  0  0  0
 15 34  1  0  0  0  0
 16 17  1  0  0  0  0
 16 35  1  0  0  0  0
 16 36  1  0  0  0  0
 17 18  1  0  0  0  0
 17 37  1  0  0  0  0
 18 38  1  0  0  0  0
 18 39  1  0  0  0  0
 19 20  2  0  0  0  0
 19 40  1  0  0  0  0
M  END
> <s_m_source_file>
AV-unprocessed.smi

> <i_m_source_file_index>
1675

> <i_lp_mmshare_version>
43012

> <i_f3d_flags>
0

> <s_epik_input>
W05IMl1DKD1PKVtDSDJdbjFbY0hdYyhbY0hdbjEpW05IXUMoPU8pW0NIMl1bQ0BIXShbQ0gyXVtDQEBIXTIzKVtDQEBIXShbQ0gyXTMpW0NIMl1bQ0gyXTI=

> <s_epik_cmdline>
J2VwaWtfcHl0aG9uJywgJy1waCcsICc3LjAnLCAnLXRuJywgJzgnLCAnLW1hJywgJzIwMCcsICctbWV0YWxfYmluZGluZycsICctaW1hZScsICc8aW5maWxlLm1hZT4nLCAnLW9tYWUnLCAnPG91dGZpbGUubWFlPic=

> <r_lp_tautomer_probability>
1

> <r_epik_Ionization_Penalty>
2.17494e-05

> <r_epik_Ionization_Penalty_Charging>
0

> <r_epik_Ionization_Penalty_Neutral>
2.17494e-05

> <r_epik_State_Penalty>
-0

> <r_epik_Charging_Adjusted_Penalty>
0

> <i_epik_Tot_Q>
0

> <i_epik_Tot_abs_Q>
0

> <r_epik_Metal_State_Penalty>
-0

> <b_epik_Metal_Only>
0

> <s_lp_Force_Field>
OPLS_2005

> <r_lp_Energy>
52.6068

> <b_lp_Chiralities_Consistent>
1

> <s_lp_Variant>
AV-unprocessed.smi:1675-1

> <Gold.Version>
5.8.1

> <Gold.Id.Protein>
6NUR|6NUR_protein|mol2

> <Gold.PLP.Fitness>
51.2418

> <Gold.PLP.PLP>
-45.2019

> <Gold.PLP.part.hbond>
-4.0000

> <Gold.PLP.part.metal>
0.0000

> <Gold.PLP.part.buried>
-8.0090

> <Gold.PLP.part.nonpolar>
-36.4735

> <Gold.PLP.part.repulsive>
1.2975

> <Gold.PLP.ligand.clash>
0.0000

> <Gold.PLP.ligand.torsion>
1.2085

> <Gold.PLP.Chemscore.Hbond>
2.8080

> <Gold.PLP.Chemscore.CHOScore>
0.0000

> <Gold.PLP.Chemscore.Metal>
0.0000

> <Gold.Chemscore.Hbonds>
donor molecule, donor type, donor heavy atom, donor atom, acceptor molecule, acceptor atom, score
      L1  H     1    21       P1 10171  1.00
      L1  H     8    26       P1  8028  0.77
      P1  H  7954  7966       L1     3  0.90

> <Gold.PLP.Chemscore.Internal.Correction>
0.0329

> <Gold.Rescore>
     Score         DG    S(hbond)    S(metal)    S(lipo)     H(rot)  DE(clash)    DE(int)     intcor
     19.94     -22.55       2.83        0.00     112.30       2.15       0.20       2.42       ----

> <Gold.Chemscore.Fitness>
19.9363

> <Gold.Chemscore.DG>
-22.5548

> <Gold.Chemscore.ZeroCoef>
-5.4800

> <Gold.Chemscore.Hbond>
2.8253

> <Gold.Chemscore.Metal>
0.0000

> <Gold.Chemscore.Lipo>
112.2953

> <Gold.Chemscore.Internal_Hbond>
0.0000

> <Gold.Chemscore.DEClash>
0.2019

> <Gold.Chemscore.DEInternal>
2.4165

> <Gold.Chemscore.Rot>
2.1486

> <Gold.Chemscore.Internal.Correction>
   9.000000E+99

> <Gold.Chemscore.Hbonds>
donor molecule, donor type, donor heavy atom, donor atom, acceptor molecule, acceptor atom, score
      L1  H     1    21       P1 10171  0.94
      L1  H     8    26       P1  8028  0.75
      P1  H  7954  7966       L1     3  0.83

> <Gold.Chemscore.Hbond.Weighted>
-9.4366

> <Gold.Chemscore.Metal.Weighted>
-0.0000

> <Gold.Chemscore.Lipo.Weighted>
-13.1385

> <Gold.Chemscore.Internal_Hbond.Weighted>
0.0000

> <Gold.Chemscore.DEClash.Weighted>
0.2019

> <Gold.Chemscore.DEInternal.Weighted>
2.4165

> <Gold.Chemscore.Rot.Weighted>
5.5004

> <Gold.Chemscore.Internal.Correction.Weighted>
   9.000000E+99

> <Gold.Protein.RotatedTorsions>
[ 6907 6896 6895 6894 ] final  110.93 input  -60.11 | X-H torsion
[ 7974 7965 7964 7962 ] final  176.62 input  175.53 | X-H torsion
[ 8008 7997 7996 7995 ] final -176.64 input   59.86 | X-H torsion
[ 10167 10162 10161 10158 ] final  148.15 input  -65.29 | X-H torsion
[ 10718 10713 10712 10709 ] final  -73.31 input   66.30 | X-H torsion
[ 10763 10752 10751 10750 ] final   62.55 input  -60.55 | X-H torsion
[ 11005 11000 10999 10996 ] final  152.68 input  -57.11 | X-H torsion

> <Gold.Protein.ActiveResidues>
 VAL166  LYS551  ARG553  GLY616  TRP617  ASP618  TYR619  PRO620  LYS621  CYS622 
 ASP623  PHE694  ASN695  SER759  ASP760  ASP761  ALA762  ILE779  LEU786  VAL792 
 PHE793  MET794  SER795  GLU796  ALA797  LYS798  CYS799  TRP800  GLU811  SER814 

> <Gold.Protein.RotatedAtoms>
  152.4995  133.8729  159.7307 H   0  0  0  0  0  0  0  0  0  0  0  0  # atno 6907 bound_to 6896
  150.9211  133.6870  159.2838 H   0  0  0  0  0  0  0  0  0  0  0  0  # atno 6908 bound_to 6896
  151.4247  135.1006  159.9677 H   0  0  0  0  0  0  0  0  0  0  0  0  # atno 6909 bound_to 6896
  144.7181  140.0124  143.6440 H   0  0  0  0  0  0  0  0  0  0  0  0  # atno 7974 bound_to 7965
  155.9973  140.1213  157.0581 H   0  0  0  0  0  0  0  0  0  0  0  0  # atno 8008 bound_to 7997
  154.4231  140.1114  156.5717 H   0  0  0  0  0  0  0  0  0  0  0  0  # atno 8009 bound_to 7997
  155.6261  140.3472  155.4670 H   0  0  0  0  0  0  0  0  0  0  0  0  # atno 8010 bound_to 7997
  139.4879  144.5701  151.7071 H   0  0  0  0  0  0  0  0  0  0  0  0  # atno 10167 bound_to 10162
  156.0285  130.4391  150.2724 H   0  0  0  0  0  0  0  0  0  0  0  0  # atno 10718 bound_to 10713
  152.9987  135.5461  154.6211 H   0  0  0  0  0  0  0  0  0  0  0  0  # atno 10763 bound_to 10752
  154.5510  135.2826  155.1010 H   0  0  0  0  0  0  0  0  0  0  0  0  # atno 10764 bound_to 10752
  154.2250  135.6444  153.5209 H   0  0  0  0  0  0  0  0  0  0  0  0  # atno 10765 bound_to 10752
  140.1330  134.8789  157.2229 H   0  0  0  0  0  0  0  0  0  0  0  0  # atno 11005 bound_to 11000
  146.0248  139.3282  143.0791 LP  0  0  0  0  0  0  0  0  0  0  0  0  # atno 17320 bound_to 7965
  145.8525  140.9521  143.0742 LP  0  0  0  0  0  0  0  0  0  0  0  0  # atno 17321 bound_to 7965
  140.5286  144.0765  150.6046 LP  0  0  0  0  0  0  0  0  0  0  0  0  # atno 17342 bound_to 10162
  140.3748  143.2835  152.0237 LP  0  0  0  0  0  0  0  0  0  0  0  0  # atno 17343 bound_to 10162
  157.0827  131.0148  151.3151 LP  0  0  0  0  0  0  0  0  0  0  0  0  # atno 17370 bound_to 10713
  157.4915  130.7825  149.7512 LP  0  0  0  0  0  0  0  0  0  0  0  0  # atno 17371 bound_to 10713
  140.2818  134.3341  155.7341 LP  0  0  0  0  0  0  0  0  0  0  0  0  # atno 17394 bound_to 11000
  141.2173  133.7483  156.9375 LP  0  0  0  0  0  0  0  0  0  0  0  0  # atno 17395 bound_to 11000

$$$$
