AV-unprocessed.smi:2468|AV-procd|sdf|9729|dock7
  -GOLD-   2272013373D 1   1.00000     0.00000
 Structure written by MMmdl.
 32 33  0  0  0  0  0  0  0  0  1 V2000
  153.6001  142.3333  162.7619 C   0  0  0  0  0  0  0  0  0  0  0  0
  152.9193  142.6790  161.4508 C   0  0  0  0  0  0  0  0  0  0  0  0
  152.2781  143.8679  161.4209 N   0  0  0  0  0  0  0  0  0  0  0  0
  151.6484  144.2206  160.2817 C   0  0  0  0  0  0  0  0  0  0  0  0
  151.6312  143.4177  159.1253 C   0  0  0  0  0  0  0  0  0  0  0  0
  152.3162  142.1791  159.1475 C   0  0  0  0  0  0  0  0  0  0  0  0
  152.3440  141.2815  158.0446 N   0  0  0  0  0  0  0  0  0  0  0  0
  151.4651  141.1559  157.0330 C   0  0  0  0  0  0  0  0  0  0  0  0
  150.4489  141.8391  156.9058 O   0  0  0  0  0  0  0  0  0  0  0  0
  151.8054  140.0771  155.9934 C   0  0  2  0  0  0  0  0  0  0  0  0
  150.8937  140.1580  154.8972 O   0  0  0  0  0  0  0  0  0  0  0  0
  150.5444  138.8531  154.4440 C   0  0  0  0  0  0  0  0  0  0  0  0
  151.4662  137.8905  155.1856 C   0  0  0  0  0  0  0  0  0  0  0  0
  151.7127  138.6246  156.4881 C   0  0  1  0  0  0  0  0  0  0  0  0
  152.9483  138.1232  157.2526 C   0  0  0  0  0  0  0  0  0  0  0  0
  152.9642  141.7969  160.3456 C   0  0  0  0  0  0  0  0  0  0  0  0
  153.8010  140.2842  160.4562 Cl  0  0  0  0  0  0  0  0  0  0  0  0
  154.6707  142.1959  162.6081 H   0  0  0  0  0  0  0  0  0  0  0  0
  153.1885  141.4104  163.1711 H   0  0  0  0  0  0  0  0  0  0  0  0
  153.4645  143.1207  163.5044 H   0  0  0  0  0  0  0  0  0  0  0  0
  151.1347  145.1704  160.2940 H   0  0  0  0  0  0  0  0  0  0  0  0
  151.0867  143.7586  158.2584 H   0  0  0  0  0  0  0  0  0  0  0  0
  153.1777  140.7160  157.9701 H   0  0  0  0  0  0  0  0  0  0  0  0
  152.8058  140.2709  155.6031 H   0  0  0  0  0  0  0  0  0  0  0  0
  149.5036  138.6640  154.7094 H   0  0  0  0  0  0  0  0  0  0  0  0
  150.6381  138.7678  153.3613 H   0  0  0  0  0  0  0  0  0  0  0  0
  151.0240  136.9036  155.3259 H   0  0  0  0  0  0  0  0  0  0  0  0
  152.3998  137.7705  154.6337 H   0  0  0  0  0  0  0  0  0  0  0  0
  150.8304  138.5078  157.1204 H   0  0  0  0  0  0  0  0  0  0  0  0
  153.8546  138.2266  156.6554 H   0  0  0  0  0  0  0  0  0  0  0  0
  152.8417  137.0704  157.5154 H   0  0  0  0  0  0  0  0  0  0  0  0
  153.0960  138.6789  158.1784 H   0  0  0  0  0  0  0  0  0  0  0  0
  1  2  1  0  0  0  0
  1 18  1  0  0  0  0
  1 19  1  0  0  0  0
  1 20  1  0  0  0  0
  2 16  1  0  0  0  0
  2  3  2  0  0  0  0
  3  4  1  0  0  0  0
  4  5  2  0  0  0  0
  4 21  1  0  0  0  0
  5  6  1  0  0  0  0
  5 22  1  0  0  0  0
  6  7  1  0  0  0  0
  6 16  2  0  0  0  0
  7  8  1  0  0  0  0
  7 23  1  0  0  0  0
  8  9  2  0  0  0  0
  8 10  1  0  0  0  0
 10 14  1  0  0  0  0
 10 11  1  0  0  0  0
 10 24  1  0  0  0  0
 11 12  1  0  0  0  0
 12 13  1  0  0  0  0
 12 25  1  0  0  0  0
 12 26  1  0  0  0  0
 13 14  1  0  0  0  0
 13 27  1  0  0  0  0
 13 28  1  0  0  0  0
 14 15  1  0  0  0  0
 14 29  1  0  0  0  0
 15 30  1  0  0  0  0
 15 31  1  0  0  0  0
 15 32  1  0  0  0  0
 16 17  1  0  0  0  0
M  END
> <s_m_source_file>
AV-unprocessed.smi

> <i_m_source_file_index>
2468

> <i_lp_mmshare_version>
43012

> <i_f3d_flags>
0

> <s_epik_input>
W0NIM11jMW5bY0hdW2NIXWMoYzFDbClbTkhdQyg9TylbQ0BASF0yT1tDSDJdW0NIMl1bQ0BIXTJbQ0gzXQ==

> <s_epik_cmdline>
J2VwaWtfcHl0aG9uJywgJy1waCcsICc3LjAnLCAnLXRuJywgJzgnLCAnLW1hJywgJzIwMCcsICctbWV0YWxfYmluZGluZycsICctaW1hZScsICc8aW5maWxlLm1hZT4nLCAnLW9tYWUnLCAnPG91dGZpbGUubWFlPic=

> <r_epik_Ionization_Penalty>
0.000361027

> <r_epik_Ionization_Penalty_Charging>
0

> <r_epik_Ionization_Penalty_Neutral>
0.000361027

> <r_epik_State_Penalty>
0.000217849

> <r_epik_Charging_Adjusted_Penalty>
0.000217849

> <i_epik_Tot_Q>
0

> <i_epik_Tot_abs_Q>
0

> <r_epik_Metal_State_Penalty>
-0

> <b_epik_Metal_Only>
0

> <s_lp_Force_Field>
OPLS_2005

> <r_lp_Energy>
24.8892

> <b_lp_Chiralities_Consistent>
1

> <s_lp_Variant>
AV-unprocessed.smi:2468-1

> <Gold.Version>
5.8.1

> <Gold.Id.Protein>
6NUR|6NUR_protein|mol2

> <Gold.PLP.Fitness>
39.7328

> <Gold.PLP.PLP>
-37.2344

> <Gold.PLP.part.hbond>
-1.0000

> <Gold.PLP.part.metal>
0.0000

> <Gold.PLP.part.buried>
-4.0664

> <Gold.PLP.part.nonpolar>
-31.5014

> <Gold.PLP.part.repulsive>
0.3742

> <Gold.PLP.ligand.clash>
0.0000

> <Gold.PLP.ligand.torsion>
0.2520

> <Gold.PLP.Chemscore.Hbond>
1.0000

> <Gold.PLP.Chemscore.CHOScore>
0.0000

> <Gold.PLP.Chemscore.Metal>
0.0000

> <Gold.Chemscore.Hbonds>
donor molecule, donor type, donor heavy atom, donor atom, acceptor molecule, acceptor atom, score
      P1  H  7989  7998       L1    11  1.00

> <Gold.PLP.Chemscore.Internal.Correction>
0.0025

> <Gold.Rescore>
     Score         DG    S(hbond)    S(metal)    S(lipo)     H(rot)  DE(clash)    DE(int)     intcor
     17.02     -18.45       0.94        0.00     105.96       1.00       0.07       1.36       ----

> <Gold.Chemscore.Fitness>
17.0227

> <Gold.Chemscore.DG>
-18.4499

> <Gold.Chemscore.ZeroCoef>
-5.4800

> <Gold.Chemscore.Hbond>
0.9380

> <Gold.Chemscore.Metal>
0.0000

> <Gold.Chemscore.Lipo>
105.9563

> <Gold.Chemscore.Internal_Hbond>
0.0000

> <Gold.Chemscore.DEClash>
0.0711

> <Gold.Chemscore.DEInternal>
1.3560

> <Gold.Chemscore.Rot>
1.0000

> <Gold.Chemscore.Internal.Correction>
   9.000000E+99

> <Gold.Chemscore.Hbonds>
donor molecule, donor type, donor heavy atom, donor atom, acceptor molecule, acceptor atom, score
      P1  H  7989  7998       L1    11  0.33

> <Gold.Chemscore.Hbond.Weighted>
-3.1330

> <Gold.Chemscore.Metal.Weighted>
-0.0000

> <Gold.Chemscore.Lipo.Weighted>
-12.3969

> <Gold.Chemscore.Internal_Hbond.Weighted>
0.0000

> <Gold.Chemscore.DEClash.Weighted>
0.0711

> <Gold.Chemscore.DEInternal.Weighted>
1.3560

> <Gold.Chemscore.Rot.Weighted>
2.5600

> <Gold.Chemscore.Internal.Correction.Weighted>
   9.000000E+99

> <Gold.Protein.RotatedTorsions>
[ 6907 6896 6895 6894 ] final  -68.67 input  -60.11 | X-H torsion
[ 7974 7965 7964 7962 ] final  -83.09 input  175.53 | X-H torsion
[ 8008 7997 7996 7995 ] final   28.28 input   59.86 | X-H torsion
[ 10167 10162 10161 10158 ] final  -85.05 input  -65.29 | X-H torsion
[ 10718 10713 10712 10709 ] final -142.35 input   66.30 | X-H torsion
[ 10763 10752 10751 10750 ] final  -32.35 input  -60.55 | X-H torsion
[ 11005 11000 10999 10996 ] final -166.95 input  -57.11 | X-H torsion

> <Gold.Protein.ActiveResidues>
 VAL166  LYS551  ARG553  GLY616  TRP617  ASP618  TYR619  PRO620  LYS621  CYS622 
 ASP623  PHE694  ASN695  SER759  ASP760  ASP761  ALA762  ILE779  LEU786  VAL792 
 PHE793  MET794  SER795  GLU796  ALA797  LYS798  CYS799  TRP800  GLU811  SER814 

> <Gold.Protein.RotatedAtoms>
  150.7344  134.5707  159.5888 H   0  0  0  0  0  0  0  0  0  0  0  0  # atno 6907 bound_to 6896
  152.3146  134.7452  160.0337 H   0  0  0  0  0  0  0  0  0  0  0  0  # atno 6908 bound_to 6896
  151.7988  133.3332  159.3557 H   0  0  0  0  0  0  0  0  0  0  0  0  # atno 6909 bound_to 6896
  145.5246  140.9528  143.1636 H   0  0  0  0  0  0  0  0  0  0  0  0  # atno 7974 bound_to 7965
  155.0562  140.3185  155.4675 H   0  0  0  0  0  0  0  0  0  0  0  0  # atno 8008 bound_to 7997
  156.2823  140.2137  156.5633 H   0  0  0  0  0  0  0  0  0  0  0  0  # atno 8009 bound_to 7997
  154.7169  140.0493  157.0591 H   0  0  0  0  0  0  0  0  0  0  0  0  # atno 8010 bound_to 7997
  140.4074  143.2637  151.9063 H   0  0  0  0  0  0  0  0  0  0  0  0  # atno 10167 bound_to 10162
  156.3448  130.7657  151.1799 H   0  0  0  0  0  0  0  0  0  0  0  0  # atno 10718 bound_to 10713
  153.8123  135.6881  153.4839 H   0  0  0  0  0  0  0  0  0  0  0  0  # atno 10763 bound_to 10752
  153.1620  135.4576  154.9784 H   0  0  0  0  0  0  0  0  0  0  0  0  # atno 10764 bound_to 10752
  154.7962  135.3320  154.7603 H   0  0  0  0  0  0  0  0  0  0  0  0  # atno 10765 bound_to 10752
  140.5588  134.5354  157.5138 H   0  0  0  0  0  0  0  0  0  0  0  0  # atno 11005 bound_to 11000
  144.7658  139.6849  143.7215 LP  0  0  0  0  0  0  0  0  0  0  0  0  # atno 17320 bound_to 7965
  146.2084  139.5423  142.9697 LP  0  0  0  0  0  0  0  0  0  0  0  0  # atno 17321 bound_to 7965
  139.4783  144.5572  151.8295 LP  0  0  0  0  0  0  0  0  0  0  0  0  # atno 17342 bound_to 10162
  140.4675  144.1635  150.5913 LP  0  0  0  0  0  0  0  0  0  0  0  0  # atno 17343 bound_to 10162
  157.7452  131.0444  150.4792 LP  0  0  0  0  0  0  0  0  0  0  0  0  # atno 17370 bound_to 10713
  156.4978  130.4110  149.6370 LP  0  0  0  0  0  0  0  0  0  0  0  0  # atno 17371 bound_to 10713
  139.9418  134.7773  156.0659 LP  0  0  0  0  0  0  0  0  0  0  0  0  # atno 17394 bound_to 11000
  141.1127  133.6638  156.3019 LP  0  0  0  0  0  0  0  0  0  0  0  0  # atno 17395 bound_to 11000

$$$$
