AV-unprocessed.smi:2732|AV-procd|sdf|10533|dock1
  -GOLD-   2272014573D 1   1.00000     0.00000
 Structure written by MMmdl.
 34 35  0  0  0  0  0  0  0  0  1 V2000
  154.5920  140.7109  159.9068 C   0  0  0  0  0  0  0  0  0  0  0  0
  154.4719  141.6533  161.1136 C   0  0  1  0  0  0  0  0  0  0  0  0
  153.3142  142.4601  160.9142 O   0  0  0  0  0  0  0  0  0  0  0  0
  153.4335  143.4571  159.9071 C   0  0  0  0  0  0  0  0  0  0  0  0
  152.0800  144.0998  159.6975 C   0  0  0  0  0  0  0  0  0  0  0  0
  151.9364  145.3069  158.7984 C   0  0  0  0  0  0  0  0  0  0  0  0
  151.7753  145.4573  160.2896 C   0  0  0  0  0  0  0  0  0  0  0  0
  154.3522  140.8652  162.4286 C   0  0  0  0  0  0  0  0  0  0  0  0
  154.4434  139.6384  162.4091 O   0  0  0  0  0  0  0  0  0  0  0  0
  154.1269  141.6060  163.5302 N   0  0  0  0  0  0  0  0  0  0  0  0
  153.9524  141.1993  164.8828 C   0  0  0  0  0  0  0  0  0  0  0  0
  154.4881  140.0191  165.4550 C   0  0  0  0  0  0  0  0  0  0  0  0
  154.2346  139.7448  166.8131 C   0  0  0  0  0  0  0  0  0  0  0  0
  153.4582  140.6580  167.5531 C   0  0  0  0  0  0  0  0  0  0  0  0
  153.1874  140.4173  168.8976 N   0  0  0  0  0  0  0  0  0  0  0  0
  152.9458  141.7872  167.0224 N   0  0  0  0  0  0  0  0  0  0  0  0
  153.1925  142.0439  165.7201 C   0  0  0  0  0  0  0  0  0  0  0  0
  155.4545  140.0506  160.0040 H   0  0  0  0  0  0  0  0  0  0  0  0
  154.7156  141.2793  158.9847 H   0  0  0  0  0  0  0  0  0  0  0  0
  153.7034  140.0887  159.7919 H   0  0  0  0  0  0  0  0  0  0  0  0
  155.3573  142.2918  161.1393 H   0  0  0  0  0  0  0  0  0  0  0  0
  154.1587  144.2240  160.1821 H   0  0  0  0  0  0  0  0  0  0  0  0
  153.7606  143.0079  158.9685 H   0  0  0  0  0  0  0  0  0  0  0  0
  151.2552  143.3900  159.6720 H   0  0  0  0  0  0  0  0  0  0  0  0
  152.8387  145.7159  158.3479 H   0  0  0  0  0  0  0  0  0  0  0  0
  151.0386  145.3739  158.1872 H   0  0  0  0  0  0  0  0  0  0  0  0
  150.7707  145.6221  160.6744 H   0  0  0  0  0  0  0  0  0  0  0  0
  152.5712  145.9630  160.8331 H   0  0  0  0  0  0  0  0  0  0  0  0
  154.0530  142.6008  163.3730 H   0  0  0  0  0  0  0  0  0  0  0  0
  155.0873  139.3192  164.8961 H   0  0  0  0  0  0  0  0  0  0  0  0
  154.6308  138.8510  167.2726 H   0  0  0  0  0  0  0  0  0  0  0  0
  153.5354  139.5949  169.3685 H   0  0  0  0  0  0  0  0  0  0  0  0
  152.6394  141.0639  169.4469 H   0  0  0  0  0  0  0  0  0  0  0  0
  152.7655  142.9577  165.3333 H   0  0  0  0  0  0  0  0  0  0  0  0
  1  2  1  0  0  0  0
  1 18  1  0  0  0  0
  1 19  1  0  0  0  0
  1 20  1  0  0  0  0
  2  3  1  0  0  0  0
  2  8  1  0  0  0  0
  2 21  1  0  0  0  0
  3  4  1  0  0  0  0
  4  5  1  0  0  0  0
  4 22  1  0  0  0  0
  4 23  1  0  0  0  0
  5  7  1  0  0  0  0
  5  6  1  0  0  0  0
  5 24  1  0  0  0  0
  6  7  1  0  0  0  0
  6 25  1  0  0  0  0
  6 26  1  0  0  0  0
  7 27  1  0  0  0  0
  7 28  1  0  0  0  0
  8  9  2  0  0  0  0
  8 10  1  0  0  0  0
 10 11  1  0  0  0  0
 10 29  1  0  0  0  0
 11 17  1  0  0  0  0
 11 12  2  0  0  0  0
 12 13  1  0  0  0  0
 12 30  1  0  0  0  0
 13 14  2  0  0  0  0
 13 31  1  0  0  0  0
 14 15  1  0  0  0  0
 14 16  1  0  0  0  0
 15 32  1  0  0  0  0
 15 33  1  0  0  0  0
 16 17  2  0  0  0  0
 17 34  1  0  0  0  0
M  END
> <s_m_source_file>
AV-unprocessed.smi

> <i_m_source_file_index>
2732

> <i_lp_mmshare_version>
43012

> <i_f3d_flags>
0

> <s_epik_input>
W0NIMl0xW0NIMl1bQ0hdMVtDSDJdT1tDQEBIXShbQ0gzXSlDKD1PKVtOSF1jMltjSF1bY0hdYyhbTkgyXSluW2NIXTI=

> <s_epik_cmdline>
J2VwaWtfcHl0aG9uJywgJy1waCcsICc3LjAnLCAnLXRuJywgJzgnLCAnLW1hJywgJzIwMCcsICctbWV0YWxfYmluZGluZycsICctaW1hZScsICc8aW5maWxlLm1hZT4nLCAnLW9tYWUnLCAnPG91dGZpbGUubWFlPic=

> <r_lp_tautomer_probability>
1

> <r_epik_Ionization_Penalty>
0.0764773

> <r_epik_Ionization_Penalty_Charging>
0

> <r_epik_Ionization_Penalty_Neutral>
0.0764773

> <r_epik_State_Penalty>
0.0673619

> <r_epik_Charging_Adjusted_Penalty>
0.0673619

> <i_epik_Tot_Q>
0

> <i_epik_Tot_abs_Q>
0

> <r_epik_Metal_State_Penalty>
0.0594329

> <b_epik_Metal_Only>
0

> <s_lp_Force_Field>
OPLS_2005

> <r_lp_Energy>
18.9716

> <b_lp_Chiralities_Consistent>
1

> <s_lp_Variant>
AV-unprocessed.smi:2732-2

> <Gold.Version>
5.8.1

> <Gold.Id.Protein>
6NUR|6NUR_protein|mol2

> <Gold.PLP.Fitness>
38.0574

> <Gold.PLP.PLP>
-38.6540

> <Gold.PLP.part.hbond>
-0.8392

> <Gold.PLP.part.metal>
0.0000

> <Gold.PLP.part.buried>
-3.5455

> <Gold.PLP.part.nonpolar>
-31.9166

> <Gold.PLP.part.repulsive>
0.0826

> <Gold.PLP.ligand.clash>
0.0000

> <Gold.PLP.ligand.torsion>
0.6031

> <Gold.PLP.Chemscore.Hbond>
0.0000

> <Gold.PLP.Chemscore.CHOScore>
0.0000

> <Gold.PLP.Chemscore.Metal>
0.0000

> <Gold.PLP.Chemscore.Internal.Correction>
0.6096

> <Gold.Rescore>
     Score         DG    S(hbond)    S(metal)    S(lipo)     H(rot)  DE(clash)    DE(int)     intcor
      9.37     -12.94       0.00        0.00     101.50       1.72       1.48       2.10       ----

> <Gold.Chemscore.Fitness>
9.3664

> <Gold.Chemscore.DG>
-12.9428

> <Gold.Chemscore.ZeroCoef>
-5.4800

> <Gold.Chemscore.Hbond>
0.0000

> <Gold.Chemscore.Metal>
0.0000

> <Gold.Chemscore.Lipo>
101.4995

> <Gold.Chemscore.Internal_Hbond>
0.0000

> <Gold.Chemscore.DEClash>
1.4813

> <Gold.Chemscore.DEInternal>
2.0950

> <Gold.Chemscore.Rot>
1.7237

> <Gold.Chemscore.Internal.Correction>
   9.000000E+99

> <Gold.Chemscore.Hbond.Weighted>
-0.0000

> <Gold.Chemscore.Metal.Weighted>
-0.0000

> <Gold.Chemscore.Lipo.Weighted>
-11.8754

> <Gold.Chemscore.Internal_Hbond.Weighted>
0.0000

> <Gold.Chemscore.DEClash.Weighted>
1.4813

> <Gold.Chemscore.DEInternal.Weighted>
2.0950

> <Gold.Chemscore.Rot.Weighted>
4.4127

> <Gold.Chemscore.Internal.Correction.Weighted>
   9.000000E+99

> <Gold.Protein.RotatedTorsions>
[ 6907 6896 6895 6894 ] final -120.43 input  -60.11 | X-H torsion
[ 7974 7965 7964 7962 ] final  -61.36 input  175.53 | X-H torsion
[ 8008 7997 7996 7995 ] final   58.29 input   59.86 | X-H torsion
[ 10167 10162 10161 10158 ] final   19.93 input  -65.29 | X-H torsion
[ 10718 10713 10712 10709 ] final  114.87 input   66.30 | X-H torsion
[ 10763 10752 10751 10750 ] final -171.38 input  -60.55 | X-H torsion
[ 11005 11000 10999 10996 ] final -100.48 input  -57.11 | X-H torsion

> <Gold.Protein.ActiveResidues>
 VAL166  LYS551  ARG553  GLY616  TRP617  ASP618  TYR619  PRO620  LYS621  CYS622 
 ASP623  PHE694  ASN695  SER759  ASP760  ASP761  ALA762  ILE779  LEU786  VAL792 
 PHE793  MET794  SER795  GLU796  ALA797  LYS798  CYS799  TRP800  GLU811  SER814 

> <Gold.Protein.RotatedAtoms>
  150.8392  133.7963  159.3067 H   0  0  0  0  0  0  0  0  0  0  0  0  # atno 6907 bound_to 6896
  151.5669  135.1062  159.9995 H   0  0  0  0  0  0  0  0  0  0  0  0  # atno 6908 bound_to 6896
  152.4459  133.7493  159.6741 H   0  0  0  0  0  0  0  0  0  0  0  0  # atno 6909 bound_to 6896
  145.8043  140.8636  143.0215 H   0  0  0  0  0  0  0  0  0  0  0  0  # atno 7974 bound_to 7965
  155.5475  140.3485  155.4461 H   0  0  0  0  0  0  0  0  0  0  0  0  # atno 8008 bound_to 7997
  156.0607  140.1339  156.9971 H   0  0  0  0  0  0  0  0  0  0  0  0  # atno 8009 bound_to 7997
  154.4478  140.0986  156.6497 H   0  0  0  0  0  0  0  0  0  0  0  0  # atno 8010 bound_to 7997
  140.5542  143.9454  150.6598 H   0  0  0  0  0  0  0  0  0  0  0  0  # atno 10167 bound_to 10162
  157.6256  131.1004  150.7248 H   0  0  0  0  0  0  0  0  0  0  0  0  # atno 10718 bound_to 10713
  154.6312  135.2887  155.0214 H   0  0  0  0  0  0  0  0  0  0  0  0  # atno 10763 bound_to 10752
  154.1374  135.6524  153.4939 H   0  0  0  0  0  0  0  0  0  0  0  0  # atno 10764 bound_to 10752
  153.0280  135.5325  154.7140 H   0  0  0  0  0  0  0  0  0  0  0  0  # atno 10765 bound_to 10752
  141.1269  133.8403  157.1108 H   0  0  0  0  0  0  0  0  0  0  0  0  # atno 11005 bound_to 11000
  144.6765  140.0304  143.7482 LP  0  0  0  0  0  0  0  0  0  0  0  0  # atno 17320 bound_to 7965
  145.9844  139.2966  143.1022 LP  0  0  0  0  0  0  0  0  0  0  0  0  # atno 17321 bound_to 7965
  140.2888  143.3338  152.1082 LP  0  0  0  0  0  0  0  0  0  0  0  0  # atno 17342 bound_to 10162
  139.5040  144.6768  151.6109 LP  0  0  0  0  0  0  0  0  0  0  0  0  # atno 17343 bound_to 10162
  156.7597  130.4794  149.5439 LP  0  0  0  0  0  0  0  0  0  0  0  0  # atno 17370 bound_to 10713
  156.1426  130.6255  151.0488 LP  0  0  0  0  0  0  0  0  0  0  0  0  # atno 17371 bound_to 10713
  140.0276  134.9916  157.0716 LP  0  0  0  0  0  0  0  0  0  0  0  0  # atno 17394 bound_to 11000
  140.4337  134.1753  155.7169 LP  0  0  0  0  0  0  0  0  0  0  0  0  # atno 17395 bound_to 11000

$$$$
