AV-unprocessed.smi:105|AV-procd|sdf|1009|dock4
  -GOLD-   2262018 03D 1   1.00000     0.00000
 Structure written by MMmdl.
 42 45  0  0  0  0  0  0  0  0  1 V2000
  152.4409  144.3345  160.1920 C   0  0  0  0  0  0  0  0  0  0  0  0
  151.7985  144.9435  159.0967 C   0  0  0  0  0  0  0  0  0  0  0  0
  151.3570  144.1595  158.0130 C   0  0  0  0  0  0  0  0  0  0  0  0
  151.5587  142.7634  158.0184 C   0  0  0  0  0  0  0  0  0  0  0  0
  151.0739  141.9220  156.8483 C   0  0  0  0  0  0  0  0  0  0  0  0
  152.0228  140.9203  156.3730 N   0  0  0  0  0  0  0  0  0  0  0  0
  151.5906  139.8183  155.7213 C   0  0  0  0  0  0  0  0  0  0  0  0
  150.6637  139.9067  154.7314 N   0  0  0  0  0  0  0  0  0  0  0  0
  150.2431  138.8016  154.1083 C   0  0  0  0  0  0  0  0  0  0  0  0
  150.6084  137.5347  154.3174 N   0  0  0  0  0  0  0  0  0  0  0  0
  151.5386  137.4431  155.3115 C   0  0  0  0  0  0  0  0  0  0  0  0
  152.0772  138.5287  156.0581 C   0  0  0  0  0  0  0  0  0  0  0  0
  152.9949  138.0604  156.9890 N   0  0  0  0  0  0  0  0  0  0  0  0
  152.9966  136.7678  156.8069 C   0  0  0  0  0  0  0  0  0  0  0  0
  152.1557  136.3094  155.8167 N   0  0  0  0  0  0  0  0  0  0  0  0
  151.9602  134.9226  155.4272 C   0  0  2  0  0  0  0  0  0  0  0  0
  150.8931  134.7699  154.3234 C   0  0  0  0  0  0  0  0  0  0  0  0
  150.7537  133.2795  153.9909 C   0  0  0  0  0  0  0  0  0  0  0  0
  150.4161  132.5035  155.2681 C   0  0  0  0  0  0  0  0  0  0  0  0
  151.4616  132.8069  156.3542 C   0  0  0  0  0  0  0  0  0  0  0  0
  151.5518  134.2143  156.5610 O   0  0  0  0  0  0  0  0  0  0  0  0
  152.1999  142.1563  159.1200 C   0  0  0  0  0  0  0  0  0  0  0  0
  152.6412  142.9405  160.2035 C   0  0  0  0  0  0  0  0  0  0  0  0
  152.7791  144.9356  161.0230 H   0  0  0  0  0  0  0  0  0  0  0  0
  151.6440  146.0124  159.0878 H   0  0  0  0  0  0  0  0  0  0  0  0
  150.8658  144.6343  157.1761 H   0  0  0  0  0  0  0  0  0  0  0  0
  150.1664  141.4043  157.1590 H   0  0  0  0  0  0  0  0  0  0  0  0
  150.7853  142.5690  156.0187 H   0  0  0  0  0  0  0  0  0  0  0  0
  152.9968  141.1841  156.4137 H   0  0  0  0  0  0  0  0  0  0  0  0
  149.5073  138.9543  153.3326 H   0  0  0  0  0  0  0  0  0  0  0  0
  153.6178  136.1091  157.3966 H   0  0  0  0  0  0  0  0  0  0  0  0
  152.9250  134.5336  155.0958 H   0  0  0  0  0  0  0  0  0  0  0  0
  149.9429  135.1769  154.6700 H   0  0  0  0  0  0  0  0  0  0  0  0
  151.2003  135.3382  153.4450 H   0  0  0  0  0  0  0  0  0  0  0  0
  149.9758  133.1308  153.2417 H   0  0  0  0  0  0  0  0  0  0  0  0
  151.6822  132.9038  153.5593 H   0  0  0  0  0  0  0  0  0  0  0  0
  149.4258  132.7913  155.6232 H   0  0  0  0  0  0  0  0  0  0  0  0
  150.3794  131.4328  155.0653 H   0  0  0  0  0  0  0  0  0  0  0  0
  151.1776  132.3299  157.2923 H   0  0  0  0  0  0  0  0  0  0  0  0
  152.4381  132.4066  156.0772 H   0  0  0  0  0  0  0  0  0  0  0  0
  152.3560  141.0875  159.1375 H   0  0  0  0  0  0  0  0  0  0  0  0
  153.1323  142.4725  161.0437 H   0  0  0  0  0  0  0  0  0  0  0  0
  1 23  1  0  0  0  0
  1  2  2  0  0  0  0
  1 24  1  0  0  0  0
  2  3  1  0  0  0  0
  2 25  1  0  0  0  0
  3  4  2  0  0  0  0
  3 26  1  0  0  0  0
  4  5  1  0  0  0  0
  4 22  1  0  0  0  0
  5  6  1  0  0  0  0
  5 27  1  0  0  0  0
  5 28  1  0  0  0  0
  6  7  1  0  0  0  0
  6 29  1  0  0  0  0
  7 12  1  0  0  0  0
  7  8  2  0  0  0  0
  8  9  1  0  0  0  0
  9 10  2  0  0  0  0
  9 30  1  0  0  0  0
 10 11  1  0  0  0  0
 11 15  1  0  0  0  0
 11 12  2  0  0  0  0
 12 13  1  0  0  0  0
 13 14  2  0  0  0  0
 14 15  1  0  0  0  0
 14 31  1  0  0  0  0
 15 16  1  0  0  0  0
 16 21  1  0  0  0  0
 16 17  1  0  0  0  0
 16 32  1  0  0  0  0
 17 18  1  0  0  0  0
 17 33  1  0  0  0  0
 17 34  1  0  0  0  0
 18 19  1  0  0  0  0
 18 35  1  0  0  0  0
 18 36  1  0  0  0  0
 19 20  1  0  0  0  0
 19 37  1  0  0  0  0
 19 38  1  0  0  0  0
 20 21  1  0  0  0  0
 20 39  1  0  0  0  0
 20 40  1  0  0  0  0
 22 23  2  0  0  0  0
 22 41  1  0  0  0  0
 23 42  1  0  0  0  0
M  END
> <s_m_source_file>
AV-unprocessed.smi

> <i_m_source_file_index>
105

> <i_lp_mmshare_version>
43012

> <i_f3d_flags>
0

> <s_epik_input>
W2NIXTFbY0hdW2NIXVtjSF1bY0hdYzFbQ0gyXVtOSF1jKG5bY0hdbjIpYyhjMjMpbltjSF1uM1tDQEBIXTRbQ0gyXVtDSDJdW0NIMl1bQ0gyXU80

> <s_epik_cmdline>
J2VwaWtfcHl0aG9uJywgJy1waCcsICc3LjAnLCAnLXRuJywgJzgnLCAnLW1hJywgJzIwMCcsICctbWV0YWxfYmluZGluZycsICctaW1hZScsICc8aW5maWxlLm1hZT4nLCAnLW9tYWUnLCAnPG91dGZpbGUubWFlPic=

> <r_lp_tautomer_probability>
1

> <r_epik_Ionization_Penalty>
0.000653933

> <r_epik_Ionization_Penalty_Charging>
0

> <r_epik_Ionization_Penalty_Neutral>
0.000653933

> <r_epik_State_Penalty>
-0

> <r_epik_Charging_Adjusted_Penalty>
0

> <i_epik_Tot_Q>
0

> <i_epik_Tot_abs_Q>
0

> <r_epik_Metal_State_Penalty>
-0

> <b_epik_Metal_Only>
0

> <s_epik_Chemistry_Notes>
This compound contains an acetal/aminal-like group ( X-CH(R)-Y where X, Y are N, S, or O) that may be acid/base labile, releasing an aldehyde.

> <s_lp_Force_Field>
OPLS_2005

> <r_lp_Energy>
24.2362

> <b_lp_Chiralities_Consistent>
1

> <s_lp_Variant>
AV-unprocessed.smi:105-1

> <Gold.Version>
5.8.1

> <Gold.Id.Protein>
6NUR|6NUR_protein|mol2

> <Gold.PLP.Fitness>
47.2687

> <Gold.PLP.PLP>
-42.3435

> <Gold.PLP.part.hbond>
-1.8767

> <Gold.PLP.part.metal>
0.0000

> <Gold.PLP.part.buried>
-4.4626

> <Gold.PLP.part.nonpolar>
-36.6080

> <Gold.PLP.part.repulsive>
0.4494

> <Gold.PLP.ligand.clash>
0.0000

> <Gold.PLP.ligand.torsion>
0.7670

> <Gold.PLP.Chemscore.Hbond>
1.1476

> <Gold.PLP.Chemscore.CHOScore>
1.0000

> <Gold.PLP.Chemscore.Metal>
0.0000

> <Gold.Chemscore.Hbonds>
donor molecule, donor type, donor heavy atom, donor atom, acceptor molecule, acceptor atom, score
      P1  H  7989  7998       L1     8  1.00
      L1  C     9    30       P1  7957  1.00

> <Gold.PLP.Chemscore.Internal.Correction>
0.0165

> <Gold.Rescore>
     Score         DG    S(hbond)    S(metal)    S(lipo)     H(rot)  DE(clash)    DE(int)     intcor
     12.77     -15.60       0.61        0.00     103.05       1.55       0.63       2.20       ----

> <Gold.Chemscore.Fitness>
12.7707

> <Gold.Chemscore.DG>
-15.5982

> <Gold.Chemscore.ZeroCoef>
-5.4800

> <Gold.Chemscore.Hbond>
0.6111

> <Gold.Chemscore.Metal>
0.0000

> <Gold.Chemscore.Lipo>
103.0514

> <Gold.Chemscore.Internal_Hbond>
0.0000

> <Gold.Chemscore.DEClash>
0.6264

> <Gold.Chemscore.DEInternal>
2.2010

> <Gold.Chemscore.Rot>
1.5547

> <Gold.Chemscore.Internal.Correction>
   9.000000E+99

> <Gold.Chemscore.Hbonds>
donor molecule, donor type, donor heavy atom, donor atom, acceptor molecule, acceptor atom, score
      P1  H  7989  7998       L1     8  0.14

> <Gold.Chemscore.Hbond.Weighted>
-2.0411

> <Gold.Chemscore.Metal.Weighted>
-0.0000

> <Gold.Chemscore.Lipo.Weighted>
-12.0570

> <Gold.Chemscore.Internal_Hbond.Weighted>
0.0000

> <Gold.Chemscore.DEClash.Weighted>
0.6264

> <Gold.Chemscore.DEInternal.Weighted>
2.2010

> <Gold.Chemscore.Rot.Weighted>
3.9800

> <Gold.Chemscore.Internal.Correction.Weighted>
   9.000000E+99

> <Gold.Protein.RotatedTorsions>
[ 6907 6896 6895 6894 ] final  -99.74 input  -60.11 | X-H torsion
[ 7974 7965 7964 7962 ] final -144.66 input  175.53 | X-H torsion
[ 8008 7997 7996 7995 ] final  113.77 input   59.86 | X-H torsion
[ 10167 10162 10161 10158 ] final   56.36 input  -65.29 | X-H torsion
[ 10718 10713 10712 10709 ] final -109.62 input   66.30 | X-H torsion
[ 10763 10752 10751 10750 ] final  -73.30 input  -60.55 | X-H torsion
[ 11005 11000 10999 10996 ] final  130.74 input  -57.11 | X-H torsion

> <Gold.Protein.ActiveResidues>
 VAL166  LYS551  ARG553  GLY616  TRP617  ASP618  TYR619  PRO620  LYS621  CYS622 
 ASP623  PHE694  ASN695  SER759  ASP760  ASP761  ALA762  ILE779  LEU786  VAL792 
 PHE793  MET794  SER795  GLU796  ALA797  LYS798  CYS799  TRP800  GLU811  SER814 

> <Gold.Protein.RotatedAtoms>
  150.7091  134.0994  159.3959 H   0  0  0  0  0  0  0  0  0  0  0  0  # atno 6907 bound_to 6896
  151.8980  135.0387  160.0513 H   0  0  0  0  0  0  0  0  0  0  0  0  # atno 6908 bound_to 6896
  152.2437  133.5121  159.5322 H   0  0  0  0  0  0  0  0  0  0  0  0  # atno 6909 bound_to 6896
  144.8282  140.5682  143.5533 H   0  0  0  0  0  0  0  0  0  0  0  0  # atno 7974 bound_to 7965
  156.2279  140.2973  156.0113 H   0  0  0  0  0  0  0  0  0  0  0  0  # atno 8008 bound_to 7997
  155.2306  140.0419  157.2979 H   0  0  0  0  0  0  0  0  0  0  0  0  # atno 8009 bound_to 7997
  154.5946  140.2410  155.7882 H   0  0  0  0  0  0  0  0  0  0  0  0  # atno 8010 bound_to 7997
  140.2096  144.3903  150.6494 H   0  0  0  0  0  0  0  0  0  0  0  0  # atno 10167 bound_to 10162
  156.0547  130.5773  150.8125 H   0  0  0  0  0  0  0  0  0  0  0  0  # atno 10718 bound_to 10713
  154.4575  135.5902  153.6233 H   0  0  0  0  0  0  0  0  0  0  0  0  # atno 10763 bound_to 10752
  152.9820  135.6036  154.3527 H   0  0  0  0  0  0  0  0  0  0  0  0  # atno 10764 bound_to 10752
  154.3396  135.2842  155.2408 H   0  0  0  0  0  0  0  0  0  0  0  0  # atno 10765 bound_to 10752
  139.9689  134.9583  156.9337 H   0  0  0  0  0  0  0  0  0  0  0  0  # atno 11005 bound_to 11000
  145.4954  139.1486  143.3687 LP  0  0  0  0  0  0  0  0  0  0  0  0  # atno 17320 bound_to 7965
  146.2586  140.5093  142.8863 LP  0  0  0  0  0  0  0  0  0  0  0  0  # atno 17321 bound_to 7965
  140.6333  143.2191  151.6449 LP  0  0  0  0  0  0  0  0  0  0  0  0  # atno 17342 bound_to 10162
  139.5185  144.3282  152.0850 LP  0  0  0  0  0  0  0  0  0  0  0  0  # atno 17343 bound_to 10162
  157.5506  131.0943  150.9701 LP  0  0  0  0  0  0  0  0  0  0  0  0  # atno 17370 bound_to 10713
  156.9962  130.5582  149.5307 LP  0  0  0  0  0  0  0  0  0  0  0  0  # atno 17371 bound_to 10713
  140.5335  134.0790  155.7322 LP  0  0  0  0  0  0  0  0  0  0  0  0  # atno 17394 bound_to 11000
  141.1369  133.9206  157.2413 LP  0  0  0  0  0  0  0  0  0  0  0  0  # atno 17395 bound_to 11000

$$$$
