AV-unprocessed.smi:598|AV-procd|sdf|3025|dock10
  -GOLD-   2262023533D 1   1.00000     0.00000
 Structure written by MMmdl.
 43 44  0  0  0  0  0  0  0  0  3 V2000
  152.3025  144.9327  158.5021 C   0  0  0  0  0  0  0  0  0  0  0  0
  151.2624  144.0976  159.2771 C   0  0  2  0  0  0  0  0  0  0  0  0
  151.2687  144.4377  160.7815 C   0  0  0  0  0  0  0  0  0  0  0  0
  152.5086  143.8799  161.4976 C   0  0  0  0  0  0  0  0  0  0  0  0
  152.6336  142.3646  161.2888 C   0  0  0  0  0  0  0  0  0  0  0  0
  152.6362  141.9869  159.7930 C   0  0  1  0  0  0  0  0  0  0  0  0
  152.6740  140.5321  159.6565 N   0  0  0  0  0  0  0  0  0  0  0  0
  153.5742  139.7193  160.2297 C   0  0  0  0  0  0  0  0  0  0  0  0
  154.4729  140.1209  160.9701 O   0  0  0  0  0  0  0  0  0  0  0  0
  153.4132  138.2223  159.9302 C   0  0  0  0  0  0  0  0  0  0  0  0
  152.2772  137.9287  159.0402 N   0  0  0  0  0  0  0  0  0  0  0  0
  151.0615  137.5633  159.6516 C   0  0  0  0  0  0  0  0  0  0  0  0
  149.9602  137.2661  158.9340 C   0  0  0  0  0  0  0  0  0  0  0  0
  148.7218  136.8870  159.5783 N   0  3  0  0  0  0  0  0  0  0  0  0
  147.8586  136.3265  158.9104 O   0  0  0  0  0  0  0  0  0  0  0  0
  148.5700  137.1368  160.7705 O   0  5  0  0  0  0  0  0  0  0  0  0
  150.0584  137.3345  157.4888 C   0  0  0  0  0  0  0  0  0  0  0  0
  151.2193  137.6804  156.8981 C   0  0  0  0  0  0  0  0  0  0  0  0
  152.4176  137.9998  157.6810 C   0  0  0  0  0  0  0  0  0  0  0  0
  153.4823  138.3119  157.1475 O   0  0  0  0  0  0  0  0  0  0  0  0
  151.3931  142.5648  159.0677 C   0  0  2  0  0  0  0  0  0  0  0  0
  151.3268  142.1679  157.5793 C   0  0  0  0  0  0  0  0  0  0  0  0
  153.3253  144.6714  158.7718 H   0  0  0  0  0  0  0  0  0  0  0  0
  152.1732  145.9964  158.7031 H   0  0  0  0  0  0  0  0  0  0  0  0
  152.2010  144.8007  157.4251 H   0  0  0  0  0  0  0  0  0  0  0  0
  150.2859  144.3959  158.8928 H   0  0  0  0  0  0  0  0  0  0  0  0
  151.2085  145.5169  160.9265 H   0  0  0  0  0  0  0  0  0  0  0  0
  150.3741  144.0217  161.2469 H   0  0  0  0  0  0  0  0  0  0  0  0
  153.4076  144.3775  161.1329 H   0  0  0  0  0  0  0  0  0  0  0  0
  152.4492  144.1013  162.5635 H   0  0  0  0  0  0  0  0  0  0  0  0
  153.5446  142.0059  161.7693 H   0  0  0  0  0  0  0  0  0  0  0  0
  151.8042  141.8655  161.7921 H   0  0  0  0  0  0  0  0  0  0  0  0
  153.5297  142.4056  159.3269 H   0  0  0  0  0  0  0  0  0  0  0  0
  151.9664  140.1145  159.0696 H   0  0  0  0  0  0  0  0  0  0  0  0
  154.3457  137.8626  159.4935 H   0  0  0  0  0  0  0  0  0  0  0  0
  153.3076  137.6725  160.8676 H   0  0  0  0  0  0  0  0  0  0  0  0
  151.0935  137.5347  160.7312 H   0  0  0  0  0  0  0  0  0  0  0  0
  149.2026  137.1082  156.8697 H   0  0  0  0  0  0  0  0  0  0  0  0
  151.2701  137.7237  155.8200 H   0  0  0  0  0  0  0  0  0  0  0  0
  150.5153  142.1179  159.5377 H   0  0  0  0  0  0  0  0  0  0  0  0
  152.2294  142.4639  157.0441 H   0  0  0  0  0  0  0  0  0  0  0  0
  150.4752  142.6367  157.0858 H   0  0  0  0  0  0  0  0  0  0  0  0
  151.2145  141.0905  157.4569 H   0  0  0  0  0  0  0  0  0  0  0  0
  1  2  1  0  0  0  0
  1 23  1  0  0  0  0
  1 24  1  0  0  0  0
  1 25  1  0  0  0  0
  2 21  1  0  0  0  0
  2  3  1  0  0  0  0
  2 26  1  0  0  0  0
  3  4  1  0  0  0  0
  3 27  1  0  0  0  0
  3 28  1  0  0  0  0
  4  5  1  0  0  0  0
  4 29  1  0  0  0  0
  4 30  1  0  0  0  0
  5  6  1  0  0  0  0
  5 31  1  0  0  0  0
  5 32  1  0  0  0  0
  6  7  1  0  0  0  0
  6 21  1  0  0  0  0
  6 33  1  0  0  0  0
  7  8  1  0  0  0  0
  7 34  1  0  0  0  0
  8  9  2  0  0  0  0
  8 10  1  0  0  0  0
 10 11  1  0  0  0  0
 10 35  1  0  0  0  0
 10 36  1  0  0  0  0
 11 19  1  0  0  0  0
 11 12  1  0  0  0  0
 12 13  2  0  0  0  0
 12 37  1  0  0  0  0
 13 14  1  0  0  0  0
 13 17  1  0  0  0  0
 14 15  2  0  0  0  0
 14 16  1  0  0  0  0
 17 18  2  0  0  0  0
 17 38  1  0  0  0  0
 18 19  1  0  0  0  0
 18 39  1  0  0  0  0
 19 20  2  0  0  0  0
 21 22  1  0  0  0  0
 21 40  1  0  0  0  0
 22 41  1  0  0  0  0
 22 42  1  0  0  0  0
 22 43  1  0  0  0  0
M  CHG  1  14   1
M  CHG  1  16  -1
M  END
> <s_m_source_file>
AV-unprocessed.smi

> <i_m_source_file_index>
598

> <i_lp_mmshare_version>
43012

> <i_f3d_flags>
0

> <s_epik_input>
W0NIM11bQ0BASF0xW0NIMl1bQ0gyXVtDSDJdW0NASF0oW0NASF0xW0NIM10pW05IXUMoPU8pW0NIMl1uMltjSF1jKFtOK10oPU8pW08tXSlbY0hdW2NIXWMyPU8=

> <s_epik_cmdline>
J2VwaWtfcHl0aG9uJywgJy1waCcsICc3LjAnLCAnLXRuJywgJzgnLCAnLW1hJywgJzIwMCcsICctbWV0YWxfYmluZGluZycsICctaW1hZScsICc8aW5maWxlLm1hZT4nLCAnLW9tYWUnLCAnPG91dGZpbGUubWFlPic=

> <r_lp_tautomer_probability>
1

> <r_epik_Ionization_Penalty>
1.91291e-08

> <r_epik_Ionization_Penalty_Charging>
8.21931e-11

> <r_epik_Ionization_Penalty_Neutral>
1.90469e-08

> <r_epik_State_Penalty>
-0

> <r_epik_Charging_Adjusted_Penalty>
8.21931e-11

> <i_epik_Tot_Q>
0

> <i_epik_Tot_abs_Q>
2

> <r_epik_Metal_State_Penalty>
-0

> <b_epik_Metal_Only>
0

> <s_lp_Force_Field>
OPLS_2005

> <r_lp_Energy>
25.21

> <b_lp_Chiralities_Consistent>
1

> <s_lp_Variant>
AV-unprocessed.smi:598-5

> <Gold.Version>
5.8.1

> <Gold.Id.Protein>
6NUR|6NUR_protein|mol2

> <Gold.PLP.Fitness>
45.5071

> <Gold.PLP.PLP>
-40.5549

> <Gold.PLP.part.hbond>
-3.0000

> <Gold.PLP.part.metal>
0.0000

> <Gold.PLP.part.buried>
-6.9916

> <Gold.PLP.part.nonpolar>
-30.9234

> <Gold.PLP.part.repulsive>
0.1306

> <Gold.PLP.ligand.clash>
0.0000

> <Gold.PLP.ligand.torsion>
0.5080

> <Gold.PLP.Chemscore.Hbond>
1.9862

> <Gold.PLP.Chemscore.CHOScore>
0.0000

> <Gold.PLP.Chemscore.Metal>
0.0000

> <Gold.Chemscore.Hbonds>
donor molecule, donor type, donor heavy atom, donor atom, acceptor molecule, acceptor atom, score
      P1  H  6931  6943       L1    16  0.86
      P1  H  6934  6947       L1    16  0.12
      P1  H  7997  8010       L1    20  0.93

> <Gold.PLP.Chemscore.Internal.Correction>
0.0096

> <Gold.Rescore>
     Score         DG    S(hbond)    S(metal)    S(lipo)     H(rot)  DE(clash)    DE(int)     intcor
     20.00     -21.60       2.23        0.00     107.73       1.54       0.01       1.59       ----

> <Gold.Chemscore.Fitness>
19.9986

> <Gold.Chemscore.DG>
-21.6015

> <Gold.Chemscore.ZeroCoef>
-5.4800

> <Gold.Chemscore.Hbond>
2.2328

> <Gold.Chemscore.Metal>
0.0000

> <Gold.Chemscore.Lipo>
107.7311

> <Gold.Chemscore.Internal_Hbond>
0.0000

> <Gold.Chemscore.DEClash>
0.0144

> <Gold.Chemscore.DEInternal>
1.5885

> <Gold.Chemscore.Rot>
1.5393

> <Gold.Chemscore.Internal.Correction>
   9.000000E+99

> <Gold.Chemscore.Hbonds>
donor molecule, donor type, donor heavy atom, donor atom, acceptor molecule, acceptor atom, score
      P1  H  6931  6943       L1    16  0.85
      P1  H  6934  6947       L1    16  0.08
      P1  H  7997  8010       L1    20  0.87

> <Gold.Chemscore.Hbond.Weighted>
-7.4577

> <Gold.Chemscore.Metal.Weighted>
-0.0000

> <Gold.Chemscore.Lipo.Weighted>
-12.6045

> <Gold.Chemscore.Internal_Hbond.Weighted>
0.0000

> <Gold.Chemscore.DEClash.Weighted>
0.0144

> <Gold.Chemscore.DEInternal.Weighted>
1.5885

> <Gold.Chemscore.Rot.Weighted>
3.9407

> <Gold.Chemscore.Internal.Correction.Weighted>
   9.000000E+99

> <Gold.Protein.RotatedTorsions>
[ 6907 6896 6895 6894 ] final   22.50 input  -60.11 | X-H torsion
[ 7974 7965 7964 7962 ] final   48.64 input  175.53 | X-H torsion
[ 8008 7997 7996 7995 ] final   54.44 input   59.86 | X-H torsion
[ 10167 10162 10161 10158 ] final -162.88 input  -65.29 | X-H torsion
[ 10718 10713 10712 10709 ] final -178.07 input   66.30 | X-H torsion
[ 10763 10752 10751 10750 ] final   63.37 input  -60.55 | X-H torsion
[ 11005 11000 10999 10996 ] final   84.22 input  -57.11 | X-H torsion

> <Gold.Protein.ActiveResidues>
 VAL166  LYS551  ARG553  GLY616  TRP617  ASP618  TYR619  PRO620  LYS621  CYS622 
 ASP623  PHE694  ASN695  SER759  ASP760  ASP761  ALA762  ILE779  LEU786  VAL792 
 PHE793  MET794  SER795  GLU796  ALA797  LYS798  CYS799  TRP800  GLU811  SER814 

> <Gold.Protein.RotatedAtoms>
  151.9281  135.0268  160.0526 H   0  0  0  0  0  0  0  0  0  0  0  0  # atno 6907 bound_to 6896
  152.2142  133.4929  159.5135 H   0  0  0  0  0  0  0  0  0  0  0  0  # atno 6908 bound_to 6896
  150.6983  134.1344  159.4124 H   0  0  0  0  0  0  0  0  0  0  0  0  # atno 6909 bound_to 6896
  146.0185  139.4624  142.9912 H   0  0  0  0  0  0  0  0  0  0  0  0  # atno 7974 bound_to 7965
  155.4848  140.3469  155.4345 H   0  0  0  0  0  0  0  0  0  0  0  0  # atno 8008 bound_to 7997
  156.1015  140.1437  156.9489 H   0  0  0  0  0  0  0  0  0  0  0  0  # atno 8009 bound_to 7997
  154.4697  140.0905  156.7091 H   0  0  0  0  0  0  0  0  0  0  0  0  # atno 8010 bound_to 7997
  139.6360  144.0348  152.2055 H   0  0  0  0  0  0  0  0  0  0  0  0  # atno 10167 bound_to 10162
  156.8388  130.9679  151.3101 H   0  0  0  0  0  0  0  0  0  0  0  0  # atno 10718 bound_to 10713
  153.0015  135.5431  154.6341 H   0  0  0  0  0  0  0  0  0  0  0  0  # atno 10763 bound_to 10752
  154.5611  135.2834  155.0920 H   0  0  0  0  0  0  0  0  0  0  0  0  # atno 10764 bound_to 10752
  154.2122  135.6465  153.5171 H   0  0  0  0  0  0  0  0  0  0  0  0  # atno 10765 bound_to 10752
  139.9007  134.8201  156.2415 H   0  0  0  0  0  0  0  0  0  0  0  0  # atno 11005 bound_to 11000
  145.7231  141.0068  143.1392 LP  0  0  0  0  0  0  0  0  0  0  0  0  # atno 17320 bound_to 7965
  144.6980  139.8894  143.7452 LP  0  0  0  0  0  0  0  0  0  0  0  0  # atno 17321 bound_to 7965
  140.0026  144.6282  150.7717 LP  0  0  0  0  0  0  0  0  0  0  0  0  # atno 17342 bound_to 10162
  140.7466  143.2893  151.3376 LP  0  0  0  0  0  0  0  0  0  0  0  0  # atno 17343 bound_to 10162
  157.6367  130.8772  149.9372 LP  0  0  0  0  0  0  0  0  0  0  0  0  # atno 17370 bound_to 10713
  156.0892  130.3665  150.0427 LP  0  0  0  0  0  0  0  0  0  0  0  0  # atno 17371 bound_to 10713
  141.0282  133.7003  156.1383 LP  0  0  0  0  0  0  0  0  0  0  0  0  # atno 17394 bound_to 11000
  140.7136  134.4435  157.5580 LP  0  0  0  0  0  0  0  0  0  0  0  0  # atno 17395 bound_to 11000

$$$$
