AV-unprocessed.smi:2413|AV-procd|sdf|9536|dock4
  -GOLD-   2272013173D 1   1.00000     0.00000
 Structure written by MMmdl.
 46 47  0  0  0  0  0  0  0  0  2 V2000
  145.5025  142.2184  156.6347 C   0  0  0  0  0  0  0  0  0  0  0  0
  146.3124  141.3142  155.7124 C   0  0  0  0  0  0  0  0  0  0  0  0
  145.9074  140.1828  155.4471 O   0  0  0  0  0  0  0  0  0  0  0  0
  147.4499  141.8311  155.2224 N   0  0  0  0  0  0  0  0  0  0  0  0
  148.3794  141.1428  154.3303 C   0  0  0  0  0  0  0  0  0  0  0  0
  149.5186  140.4433  155.0949 C   0  0  2  0  0  0  0  0  0  0  0  0
  150.2610  141.3827  156.0668 C   0  0  0  0  0  0  0  0  0  0  0  0
  151.4178  140.7188  156.6668 N   0  0  0  0  0  0  0  0  0  0  0  0
  152.0446  141.3640  157.7567 C   0  0  0  0  0  0  0  0  0  0  0  0
  153.1448  140.7880  158.4248 C   0  0  0  0  0  0  0  0  0  0  0  0
  153.7049  141.5168  159.4894 C   0  0  0  0  0  0  0  0  0  0  0  0
  153.1842  142.7129  159.8528 N   0  3  0  0  0  0  0  0  0  0  0  0
  152.1008  143.1950  159.2207 C   0  0  0  0  0  0  0  0  0  0  0  0
  151.5889  144.6014  159.5636 C   0  0  0  0  0  0  0  0  0  0  0  0
  150.0742  144.5763  159.8769 C   0  0  0  0  0  0  0  0  0  0  0  0
  151.8558  145.5477  158.3791 C   0  0  0  0  0  0  0  0  0  0  0  0
  152.2870  145.1444  160.8312 C   0  0  0  0  0  0  0  0  0  0  0  0
  151.5650  142.5604  158.1679 N   0  0  0  0  0  0  0  0  0  0  0  0
  152.3019  140.0943  155.6859 C   0  0  0  0  0  0  0  0  0  0  0  0
  151.4960  139.1979  154.7313 C   0  0  0  0  0  0  0  0  0  0  0  0
  150.4475  139.9518  154.1331 O   0  0  0  0  0  0  0  0  0  0  0  0
  146.1369  142.6376  157.4163 H   0  0  0  0  0  0  0  0  0  0  0  0
  144.6963  141.6613  157.1131 H   0  0  0  0  0  0  0  0  0  0  0  0
  145.0617  143.0392  156.0687 H   0  0  0  0  0  0  0  0  0  0  0  0
  147.6965  142.7717  155.4950 H   0  0  0  0  0  0  0  0  0  0  0  0
  147.8082  140.3987  153.7748 H   0  0  0  0  0  0  0  0  0  0  0  0
  148.7857  141.8295  153.5853 H   0  0  0  0  0  0  0  0  0  0  0  0
  149.1028  139.5979  155.6469 H   0  0  0  0  0  0  0  0  0  0  0  0
  150.5935  142.2797  155.5423 H   0  0  0  0  0  0  0  0  0  0  0  0
  149.5733  141.6979  156.8520 H   0  0  0  0  0  0  0  0  0  0  0  0
  153.5524  139.8268  158.1506 H   0  0  0  0  0  0  0  0  0  0  0  0
  154.5577  141.1824  160.0618 H   0  0  0  0  0  0  0  0  0  0  0  0
  149.7124  145.5635  160.1666 H   0  0  0  0  0  0  0  0  0  0  0  0
  149.8479  143.8919  160.6957 H   0  0  0  0  0  0  0  0  0  0  0  0
  149.4825  144.2657  159.0145 H   0  0  0  0  0  0  0  0  0  0  0  0
  151.3501  145.2040  157.4758 H   0  0  0  0  0  0  0  0  0  0  0  0
  152.9212  145.6124  158.1546 H   0  0  0  0  0  0  0  0  0  0  0  0
  151.5019  146.5576  158.5890 H   0  0  0  0  0  0  0  0  0  0  0  0
  151.9004  146.1264  161.1062 H   0  0  0  0  0  0  0  0  0  0  0  0
  153.3622  145.2582  160.6889 H   0  0  0  0  0  0  0  0  0  0  0  0
  152.1335  144.4827  161.6847 H   0  0  0  0  0  0  0  0  0  0  0  0
  152.8109  140.8769  155.1218 H   0  0  0  0  0  0  0  0  0  0  0  0
  153.0735  139.4907  156.1606 H   0  0  0  0  0  0  0  0  0  0  0  0
  152.1443  138.8094  153.9460 H   0  0  0  0  0  0  0  0  0  0  0  0
  151.0852  138.3359  155.2595 H   0  0  0  0  0  0  0  0  0  0  0  0
  153.6131  143.2368  160.6160 H   0  0  0  0  0  0  0  0  0  0  0  0
  1  2  1  0  0  0  0
  1 22  1  0  0  0  0
  1 23  1  0  0  0  0
  1 24  1  0  0  0  0
  2  3  2  0  0  0  0
  2  4  1  0  0  0  0
  4  5  1  0  0  0  0
  4 25  1  0  0  0  0
  5  6  1  0  0  0  0
  5 26  1  0  0  0  0
  5 27  1  0  0  0  0
  6 21  1  0  0  0  0
  6  7  1  0  0  0  0
  6 28  1  0  0  0  0
  7  8  1  0  0  0  0
  7 29  1  0  0  0  0
  7 30  1  0  0  0  0
  8  9  1  0  0  0  0
  8 19  1  0  0  0  0
  9 18  1  0  0  0  0
  9 10  2  0  0  0  0
 10 11  1  0  0  0  0
 10 31  1  0  0  0  0
 11 12  2  0  0  0  0
 11 32  1  0  0  0  0
 12 13  1  0  0  0  0
 12 46  1  0  0  0  0
 13 14  1  0  0  0  0
 13 18  2  0  0  0  0
 14 15  1  0  0  0  0
 14 16  1  0  0  0  0
 14 17  1  0  0  0  0
 15 33  1  0  0  0  0
 15 34  1  0  0  0  0
 15 35  1  0  0  0  0
 16 36  1  0  0  0  0
 16 37  1  0  0  0  0
 16 38  1  0  0  0  0
 17 39  1  0  0  0  0
 17 40  1  0  0  0  0
 17 41  1  0  0  0  0
 19 20  1  0  0  0  0
 19 42  1  0  0  0  0
 19 43  1  0  0  0  0
 20 21  1  0  0  0  0
 20 44  1  0  0  0  0
 20 45  1  0  0  0  0
M  CHG  1  12   1
M  END
> <s_m_source_file>
AV-unprocessed.smi

> <i_m_source_file_index>
2413

> <i_lp_mmshare_version>
43012

> <i_f3d_flags>
0

> <s_epik_input>
W0NIM11DKD1PKVtOSF1bQ0gyXVtDQEBIXTFbQ0gyXU4oW0NIMl1bQ0gyXU8xKWMyW2NIXVtjSF1uYyhuMilDKFtDSDNdKShbQ0gzXSlbQ0gzXQ==

> <s_epik_cmdline>
J2VwaWtfcHl0aG9uJywgJy1waCcsICc3LjAnLCAnLXRuJywgJzgnLCAnLW1hJywgJzIwMCcsICctbWV0YWxfYmluZGluZycsICctaW1hZScsICc8aW5maWxlLm1hZT4nLCAnLW9tYWUnLCAnPG91dGZpbGUubWFlPic=

> <r_lp_tautomer_probability>
0.999336

> <r_epik_Ionization_Penalty>
2.26127

> <r_epik_Ionization_Penalty_Charging>
2.26127

> <r_epik_Ionization_Penalty_Neutral>
4.08984e-07

> <r_epik_State_Penalty>
2.40914

> <r_epik_Charging_Adjusted_Penalty>
4.67041

> <i_epik_Tot_Q>
1

> <i_epik_Tot_abs_Q>
1

> <r_epik_Metal_State_Penalty>
2.42208

> <b_epik_Metal_Only>
0

> <s_lp_Force_Field>
OPLS_2005

> <r_lp_Energy>
13.7164

> <b_lp_Chiralities_Consistent>
1

> <s_lp_Variant>
AV-unprocessed.smi:2413-3

> <Gold.Version>
5.8.1

> <Gold.Id.Protein>
6NUR|6NUR_protein|mol2

> <Gold.PLP.Fitness>
49.5669

> <Gold.PLP.PLP>
-44.2701

> <Gold.PLP.part.hbond>
-2.0000

> <Gold.PLP.part.metal>
0.0000

> <Gold.PLP.part.buried>
-6.8709

> <Gold.PLP.part.nonpolar>
-36.2100

> <Gold.PLP.part.repulsive>
0.9625

> <Gold.PLP.ligand.clash>
0.0000

> <Gold.PLP.ligand.torsion>
0.5981

> <Gold.PLP.Chemscore.Hbond>
2.0000

> <Gold.PLP.Chemscore.CHOScore>
0.0000

> <Gold.PLP.Chemscore.Metal>
0.0000

> <Gold.Chemscore.Hbonds>
donor molecule, donor type, donor heavy atom, donor atom, acceptor molecule, acceptor atom, score
      L1  H     4    25       P1  8028  0.42
      P1  H  7989  7998       L1    21  0.30

> <Gold.PLP.Chemscore.Internal.Correction>
0.4929

> <Gold.Rescore>
     Score         DG    S(hbond)    S(metal)    S(lipo)     H(rot)  DE(clash)    DE(int)     intcor
     16.24     -18.34       1.72        0.00      99.72       1.77       1.61       0.49       ----

> <Gold.Chemscore.Fitness>
16.2446

> <Gold.Chemscore.DG>
-18.3406

> <Gold.Chemscore.ZeroCoef>
-5.4800

> <Gold.Chemscore.Hbond>
1.7155

> <Gold.Chemscore.Metal>
0.0000

> <Gold.Chemscore.Lipo>
99.7170

> <Gold.Chemscore.Internal_Hbond>
0.0000

> <Gold.Chemscore.DEClash>
1.6060

> <Gold.Chemscore.DEInternal>
0.4900

> <Gold.Chemscore.Rot>
1.7719

> <Gold.Chemscore.Internal.Correction>
   9.000000E+99

> <Gold.Chemscore.Hbonds>
donor molecule, donor type, donor heavy atom, donor atom, acceptor molecule, acceptor atom, score
      L1  H     4    25       P1  8028  0.27

> <Gold.Chemscore.Hbond.Weighted>
-5.7298

> <Gold.Chemscore.Metal.Weighted>
-0.0000

> <Gold.Chemscore.Lipo.Weighted>
-11.6669

> <Gold.Chemscore.Internal_Hbond.Weighted>
0.0000

> <Gold.Chemscore.DEClash.Weighted>
1.6060

> <Gold.Chemscore.DEInternal.Weighted>
0.4900

> <Gold.Chemscore.Rot.Weighted>
4.5361

> <Gold.Chemscore.Internal.Correction.Weighted>
   9.000000E+99

> <Gold.Protein.RotatedTorsions>
[ 6907 6896 6895 6894 ] final -151.58 input  -60.11 | X-H torsion
[ 7974 7965 7964 7962 ] final   26.54 input  175.53 | X-H torsion
[ 8008 7997 7996 7995 ] final   58.23 input   59.86 | X-H torsion
[ 10167 10162 10161 10158 ] final   -7.51 input  -65.29 | X-H torsion
[ 10718 10713 10712 10709 ] final  -86.62 input   66.30 | X-H torsion
[ 10763 10752 10751 10750 ] final  -37.11 input  -60.55 | X-H torsion
[ 11005 11000 10999 10996 ] final   -2.44 input  -57.11 | X-H torsion

> <Gold.Protein.ActiveResidues>
 VAL166  LYS551  ARG553  GLY616  TRP617  ASP618  TYR619  PRO620  LYS621  CYS622 
 ASP623  PHE694  ASN695  SER759  ASP760  ASP761  ALA762  ILE779  LEU786  VAL792 
 PHE793  MET794  SER795  GLU796  ALA797  LYS798  CYS799  TRP800  GLU811  SER814 

> <Gold.Protein.RotatedAtoms>
  151.2152  133.4533  159.2598 H   0  0  0  0  0  0  0  0  0  0  0  0  # atno 6907 bound_to 6896
  151.0938  134.9932  159.8426 H   0  0  0  0  0  0  0  0  0  0  0  0  # atno 6908 bound_to 6896
  152.5437  134.2083  159.8793 H   0  0  0  0  0  0  0  0  0  0  0  0  # atno 6909 bound_to 6896
  146.1832  139.7314  142.8885 H   0  0  0  0  0  0  0  0  0  0  0  0  # atno 7974 bound_to 7965
  155.5467  140.3485  155.4459 H   0  0  0  0  0  0  0  0  0  0  0  0  # atno 8008 bound_to 7997
  156.0613  140.1341  156.9964 H   0  0  0  0  0  0  0  0  0  0  0  0  # atno 8009 bound_to 7997
  154.4481  140.0985  156.6505 H   0  0  0  0  0  0  0  0  0  0  0  0  # atno 8010 bound_to 7997
  140.7031  143.6072  150.8739 H   0  0  0  0  0  0  0  0  0  0  0  0  # atno 10167 bound_to 10162
  155.9989  130.4771  150.4743 H   0  0  0  0  0  0  0  0  0  0  0  0  # atno 10718 bound_to 10713
  153.8909  135.6812  153.4760 H   0  0  0  0  0  0  0  0  0  0  0  0  # atno 10763 bound_to 10752
  153.1181  135.4752  154.9148 H   0  0  0  0  0  0  0  0  0  0  0  0  # atno 10764 bound_to 10752
  154.7623  135.3214  154.8308 H   0  0  0  0  0  0  0  0  0  0  0  0  # atno 10765 bound_to 10752
  140.6584  133.9342  155.8421 H   0  0  0  0  0  0  0  0  0  0  0  0  # atno 11005 bound_to 11000
  145.4016  141.0386  143.3067 LP  0  0  0  0  0  0  0  0  0  0  0  0  # atno 17320 bound_to 7965
  144.8351  139.5564  143.6926 LP  0  0  0  0  0  0  0  0  0  0  0  0  # atno 17321 bound_to 7965
  139.9796  143.5966  152.2947 LP  0  0  0  0  0  0  0  0  0  0  0  0  # atno 17342 bound_to 10162
  139.6582  144.7662  151.2014 LP  0  0  0  0  0  0  0  0  0  0  0  0  # atno 17343 bound_to 10162
  157.2754  131.0596  151.2232 LP  0  0  0  0  0  0  0  0  0  0  0  0  # atno 17370 bound_to 10713
  157.3298  130.6979  149.6317 LP  0  0  0  0  0  0  0  0  0  0  0  0  # atno 17371 bound_to 10713
  141.0484  134.0521  157.3815 LP  0  0  0  0  0  0  0  0  0  0  0  0  # atno 17394 bound_to 11000
  139.9021  135.0168  156.7319 LP  0  0  0  0  0  0  0  0  0  0  0  0  # atno 17395 bound_to 11000

$$$$
