AV-unprocessed.smi:1215|AV-procd|sdf|5095|dock5
  -GOLD-   22720 4143D 1   1.00000     0.00000
 Structure written by MMmdl.
 46 47  0  0  0  0  0  0  0  0  2 V2000
  150.9542  142.1929  157.7282 C   0  0  0  0  0  0  0  0  0  0  0  0
  152.0016  141.1180  157.4144 C   0  0  0  0  0  0  0  0  0  0  0  0
  151.6118  140.3062  156.2783 N   0  0  0  0  0  0  0  0  0  0  0  0
  150.3759  140.2305  155.6670 C   0  0  0  0  0  0  0  0  0  0  0  0
  150.5250  139.3389  154.6423 C   0  0  0  0  0  0  0  0  0  0  0  0
  149.5737  138.8963  153.6887 N   0  0  0  0  0  0  0  0  0  0  0  0
  148.2502  138.7522  153.8640 C   0  0  0  0  0  0  0  0  0  0  0  0
  147.6457  138.9673  154.9150 O   0  0  0  0  0  0  0  0  0  0  0  0
  147.6513  138.3303  152.7410 N   0  0  0  0  0  0  0  0  0  0  0  0
  146.2222  138.0718  152.6074 C   0  0  0  0  0  0  0  0  0  0  0  0
  145.8245  136.7506  153.2952 C   0  0  0  0  0  0  0  0  0  0  0  0
  146.3278  135.5397  152.5923 N   0  3  1  0  0  0  0  0  0  0  0  0
  146.6945  134.4587  153.5472 C   0  0  0  0  0  0  0  0  0  0  0  0
  147.4116  133.2997  152.8375 C   0  0  0  0  0  0  0  0  0  0  0  0
  146.5575  132.7444  151.6933 C   0  0  0  0  0  0  0  0  0  0  0  0
  146.1769  133.8778  150.7314 C   0  0  0  0  0  0  0  0  0  0  0  0
  145.4841  135.0528  151.4545 C   0  0  1  0  0  0  0  0  0  0  0  0
  144.0324  134.7153  151.8582 C   0  0  0  0  0  0  0  0  0  0  0  0
  151.8781  138.9141  154.6925 C   0  0  0  0  0  0  0  0  0  0  0  0
  152.5286  139.5028  155.6843 N   0  0  0  0  0  0  0  0  0  0  0  0
  151.2561  142.7884  158.5897 H   0  0  0  0  0  0  0  0  0  0  0  0
  149.9863  141.7447  157.9556 H   0  0  0  0  0  0  0  0  0  0  0  0
  150.8198  142.8716  156.8853 H   0  0  0  0  0  0  0  0  0  0  0  0
  152.9682  141.5782  157.2043 H   0  0  0  0  0  0  0  0  0  0  0  0
  152.1420  140.4660  158.2775 H   0  0  0  0  0  0  0  0  0  0  0  0
  149.5305  140.8088  156.0097 H   0  0  0  0  0  0  0  0  0  0  0  0
  149.9408  138.6695  152.7760 H   0  0  0  0  0  0  0  0  0  0  0  0
  148.2230  138.1818  151.9220 H   0  0  0  0  0  0  0  0  0  0  0  0
  145.6760  138.9206  153.0195 H   0  0  0  0  0  0  0  0  0  0  0  0
  145.9805  138.0282  151.5451 H   0  0  0  0  0  0  0  0  0  0  0  0
  146.2430  136.7610  154.3026 H   0  0  0  0  0  0  0  0  0  0  0  0
  144.7440  136.6850  153.4247 H   0  0  0  0  0  0  0  0  0  0  0  0
  147.3555  134.8592  154.3168 H   0  0  0  0  0  0  0  0  0  0  0  0
  145.8045  134.0966  154.0630 H   0  0  0  0  0  0  0  0  0  0  0  0
  148.3693  133.6458  152.4462 H   0  0  0  0  0  0  0  0  0  0  0  0
  147.6377  132.5074  153.5519 H   0  0  0  0  0  0  0  0  0  0  0  0
  147.1051  131.9670  151.1594 H   0  0  0  0  0  0  0  0  0  0  0  0
  145.6597  132.2720  152.0935 H   0  0  0  0  0  0  0  0  0  0  0  0
  147.0806  134.2437  150.2418 H   0  0  0  0  0  0  0  0  0  0  0  0
  145.5387  133.4929  149.9350 H   0  0  0  0  0  0  0  0  0  0  0  0
  145.4275  135.8524  150.7172 H   0  0  0  0  0  0  0  0  0  0  0  0
  143.4731  134.3388  151.0014 H   0  0  0  0  0  0  0  0  0  0  0  0
  143.4968  135.5941  152.2166 H   0  0  0  0  0  0  0  0  0  0  0  0
  143.9839  133.9536  152.6357 H   0  0  0  0  0  0  0  0  0  0  0  0
  152.3999  138.2147  154.0559 H   0  0  0  0  0  0  0  0  0  0  0  0
  147.2016  135.8223  152.1718 H   0  0  0  0  0  0  0  0  0  0  0  0
  1  2  1  0  0  0  0
  1 21  1  0  0  0  0
  1 22  1  0  0  0  0
  1 23  1  0  0  0  0
  2  3  1  0  0  0  0
  2 24  1  0  0  0  0
  2 25  1  0  0  0  0
  3 20  1  0  0  0  0
  3  4  1  0  0  0  0
  4  5  2  0  0  0  0
  4 26  1  0  0  0  0
  5  6  1  0  0  0  0
  5 19  1  0  0  0  0
  6  7  1  0  0  0  0
  6 27  1  0  0  0  0
  7  8  2  0  0  0  0
  7  9  1  0  0  0  0
  9 10  1  0  0  0  0
  9 28  1  0  0  0  0
 10 11  1  0  0  0  0
 10 29  1  0  0  0  0
 10 30  1  0  0  0  0
 11 12  1  0  0  0  0
 11 31  1  0  0  0  0
 11 32  1  0  0  0  0
 12 17  1  0  0  0  0
 12 13  1  0  0  0  0
 12 46  1  0  0  0  0
 13 14  1  0  0  0  0
 13 33  1  0  0  0  0
 13 34  1  0  0  0  0
 14 15  1  0  0  0  0
 14 35  1  0  0  0  0
 14 36  1  0  0  0  0
 15 16  1  0  0  0  0
 15 37  1  0  0  0  0
 15 38  1  0  0  0  0
 16 17  1  0  0  0  0
 16 39  1  0  0  0  0
 16 40  1  0  0  0  0
 17 18  1  0  0  0  0
 17 41  1  0  0  0  0
 18 42  1  0  0  0  0
 18 43  1  0  0  0  0
 18 44  1  0  0  0  0
 19 20  2  0  0  0  0
 19 45  1  0  0  0  0
M  CHG  1  12   1
M  END
> <s_m_source_file>
AV-unprocessed.smi

> <i_m_source_file_index>
1215

> <i_lp_mmshare_version>
43012

> <i_f3d_flags>
0

> <s_epik_input>
W0NIM11bQ0gyXW4xW2NIXWMoW2NIXW4xKVtOSF1DKD1PKVtOSF1bQ0gyXVtDSDJdTjJbQ0gyXVtDSDJdW0NIMl1bQ0gyXVtDQEhdMltDSDNd

> <s_epik_cmdline>
J2VwaWtfcHl0aG9uJywgJy1waCcsICc3LjAnLCAnLXRuJywgJzgnLCAnLW1hJywgJzIwMCcsICctbWV0YWxfYmluZGluZycsICctaW1hZScsICc8aW5maWxlLm1hZT4nLCAnLW9tYWUnLCAnPG91dGZpbGUubWFlPic=

> <r_lp_tautomer_probability>
1

> <r_epik_Ionization_Penalty>
0.00247187

> <r_epik_Ionization_Penalty_Charging>
0.00232067

> <r_epik_Ionization_Penalty_Neutral>
0.000151201

> <r_epik_State_Penalty>
0.00160128

> <r_epik_Charging_Adjusted_Penalty>
0.00392194

> <i_epik_Tot_Q>
1

> <i_epik_Tot_abs_Q>
1

> <r_epik_Metal_State_Penalty>
-0

> <b_epik_Metal_Only>
0

> <s_lp_Force_Field>
OPLS_2005

> <r_lp_Energy>
23.8911

> <b_lp_Chiralities_Consistent>
1

> <s_lp_Variant>
AV-unprocessed.smi:1215-2

> <Gold.Version>
5.8.1

> <Gold.Id.Protein>
6NUR|6NUR_protein|mol2

> <Gold.PLP.Fitness>
45.6989

> <Gold.PLP.PLP>
-36.6445

> <Gold.PLP.part.hbond>
-5.1683

> <Gold.PLP.part.metal>
0.0000

> <Gold.PLP.part.buried>
-4.2491

> <Gold.PLP.part.nonpolar>
-27.3874

> <Gold.PLP.part.repulsive>
0.2418

> <Gold.PLP.ligand.clash>
0.0000

> <Gold.PLP.ligand.torsion>
0.8522

> <Gold.PLP.Chemscore.Hbond>
3.5717

> <Gold.PLP.Chemscore.CHOScore>
0.0000

> <Gold.PLP.Chemscore.Metal>
0.0000

> <Gold.Chemscore.Hbonds>
donor molecule, donor type, donor heavy atom, donor atom, acceptor molecule, acceptor atom, score
      L1  H     6    27       P1  7957  0.31
      L1  H     9    28       P1  7948  0.25
      L1  H    12    46       P1  7948  2.00
      P1  H  7997  8009       L1    20  1.00

> <Gold.PLP.Chemscore.Internal.Correction>
0.0434

> <Gold.Rescore>
     Score         DG    S(hbond)    S(metal)    S(lipo)     H(rot)  DE(clash)    DE(int)     intcor
     17.58     -18.44       2.40        0.00      77.21       1.59       0.03       0.83       ----

> <Gold.Chemscore.Fitness>
17.5809

> <Gold.Chemscore.DG>
-18.4420

> <Gold.Chemscore.ZeroCoef>
-5.4800

> <Gold.Chemscore.Hbond>
2.3955

> <Gold.Chemscore.Metal>
0.0000

> <Gold.Chemscore.Lipo>
77.2130

> <Gold.Chemscore.Internal_Hbond>
0.0000

> <Gold.Chemscore.DEClash>
0.0328

> <Gold.Chemscore.DEInternal>
0.8283

> <Gold.Chemscore.Rot>
1.5909

> <Gold.Chemscore.Internal.Correction>
   9.000000E+99

> <Gold.Chemscore.Hbonds>
donor molecule, donor type, donor heavy atom, donor atom, acceptor molecule, acceptor atom, score
      L1  H     6    27       P1  7957  0.17
      L1  H     9    28       P1  7948  0.24
      L1  H    12    46       P1  7948  1.00
      P1  H  7997  8009       L1    20  0.68

> <Gold.Chemscore.Hbond.Weighted>
-8.0009

> <Gold.Chemscore.Metal.Weighted>
-0.0000

> <Gold.Chemscore.Lipo.Weighted>
-9.0339

> <Gold.Chemscore.Internal_Hbond.Weighted>
0.0000

> <Gold.Chemscore.DEClash.Weighted>
0.0328

> <Gold.Chemscore.DEInternal.Weighted>
0.8283

> <Gold.Chemscore.Rot.Weighted>
4.0728

> <Gold.Chemscore.Internal.Correction.Weighted>
   9.000000E+99

> <Gold.Protein.RotatedTorsions>
[ 6907 6896 6895 6894 ] final -163.17 input  -60.11 | X-H torsion
[ 7974 7965 7964 7962 ] final   51.47 input  175.53 | X-H torsion
[ 8008 7997 7996 7995 ] final -150.97 input   59.86 | X-H torsion
[ 10167 10162 10161 10158 ] final -136.79 input  -65.29 | X-H torsion
[ 10718 10713 10712 10709 ] final -128.53 input   66.30 | X-H torsion
[ 10763 10752 10751 10750 ] final   33.73 input  -60.55 | X-H torsion
[ 11005 11000 10999 10996 ] final  165.34 input  -57.11 | X-H torsion

> <Gold.Protein.ActiveResidues>
 VAL166  LYS551  ARG553  GLY616  TRP617  ASP618  TYR619  PRO620  LYS621  CYS622 
 ASP623  PHE694  ASN695  SER759  ASP760  ASP761  ALA762  ILE779  LEU786  VAL792 
 PHE793  MET794  SER795  GLU796  ALA797  LYS798  CYS799  TRP800  GLU811  SER814 

> <Gold.Protein.RotatedAtoms>
  151.3919  133.3786  159.2721 H   0  0  0  0  0  0  0  0  0  0  0  0  # atno 6907 bound_to 6896
  150.9499  134.8901  159.7676 H   0  0  0  0  0  0  0  0  0  0  0  0  # atno 6908 bound_to 6896
  152.5107  134.3874  159.9424 H   0  0  0  0  0  0  0  0  0  0  0  0  # atno 6909 bound_to 6896
  145.9910  139.4339  143.0074 H   0  0  0  0  0  0  0  0  0  0  0  0  # atno 7974 bound_to 7965
  155.6320  140.0692  157.2646 H   0  0  0  0  0  0  0  0  0  0  0  0  # atno 8008 bound_to 7997
  154.4203  140.1766  156.1531 H   0  0  0  0  0  0  0  0  0  0  0  0  # atno 8009 bound_to 7997
  155.9925  140.3344  155.6770 H   0  0  0  0  0  0  0  0  0  0  0  0  # atno 8010 bound_to 7997
  139.8643  143.7038  152.2647 H   0  0  0  0  0  0  0  0  0  0  0  0  # atno 10167 bound_to 10162
  156.1959  130.6826  151.0481 H   0  0  0  0  0  0  0  0  0  0  0  0  # atno 10718 bound_to 10713
  153.0198  135.6379  154.1557 H   0  0  0  0  0  0  0  0  0  0  0  0  # atno 10763 bound_to 10752
  154.1293  135.2841  155.3191 H   0  0  0  0  0  0  0  0  0  0  0  0  # atno 10764 bound_to 10752
  154.6206  135.5526  153.7633 H   0  0  0  0  0  0  0  0  0  0  0  0  # atno 10765 bound_to 10752
  140.2551  134.7946  157.3538 H   0  0  0  0  0  0  0  0  0  0  0  0  # atno 11005 bound_to 11000
  145.7630  140.9927  143.1190 LP  0  0  0  0  0  0  0  0  0  0  0  0  # atno 17320 bound_to 7965
  144.6889  139.9354  143.7473 LP  0  0  0  0  0  0  0  0  0  0  0  0  # atno 17321 bound_to 7965
  139.7344  144.7575  151.0750 LP  0  0  0  0  0  0  0  0  0  0  0  0  # atno 17342 bound_to 10162
  140.7770  143.5048  150.9726 LP  0  0  0  0  0  0  0  0  0  0  0  0  # atno 17343 bound_to 10162
  157.6957  131.0794  150.6975 LP  0  0  0  0  0  0  0  0  0  0  0  0  # atno 17370 bound_to 10713
  156.7032  130.4629  149.5567 LP  0  0  0  0  0  0  0  0  0  0  0  0  # atno 17371 bound_to 10713
  140.1519  134.4838  155.7955 LP  0  0  0  0  0  0  0  0  0  0  0  0  # atno 17394 bound_to 11000
  141.2197  133.6866  156.7394 LP  0  0  0  0  0  0  0  0  0  0  0  0  # atno 17395 bound_to 11000

$$$$
