AV-unprocessed.smi:1644|AV-procd|sdf|6592|dock7
  -GOLD-   22720 7293D 1   1.00000     0.00000
 Structure written by MMmdl.
 48 50  0  0  0  0  0  0  0  0  2 V2000
  152.8689  142.2459  160.6879 C   0  0  0  0  0  0  0  0  0  0  0  0
  153.1447  141.5302  159.3612 C   0  0  0  0  0  0  0  0  0  0  0  0
  152.0839  140.4544  159.0423 C   0  0  0  0  0  0  0  0  0  0  0  0
  152.5010  139.3646  158.0248 C   0  0  2  0  0  0  0  0  0  0  0  0
  152.9586  139.9396  156.7771 N   0  5  0  0  0  0  0  0  0  0  0  0
  152.2079  139.4311  155.7716 C   0  0  0  0  0  0  0  0  0  0  0  0
  152.3035  139.7006  154.5745 O   0  0  0  0  0  0  0  0  0  0  0  0
  151.2878  138.5656  156.2416 N   0  0  0  0  0  0  0  0  0  0  0  0
  150.2889  137.8698  155.4243 C   0  0  0  0  0  0  0  0  0  0  0  0
  150.6518  136.3834  155.2299 C   0  0  2  0  0  0  0  0  0  0  0  0
  151.6970  136.2917  154.2805 O   0  0  0  0  0  0  0  0  0  0  0  0
  149.4528  135.5661  154.7129 C   0  0  0  0  0  0  0  0  0  0  0  0
  149.6836  134.1347  154.7888 N   0  0  0  0  0  0  0  0  0  0  0  0
  150.6015  133.4950  155.5386 C   0  0  0  0  0  0  0  0  0  0  0  0
  150.6433  132.1684  155.4490 N   0  0  0  0  0  0  0  0  0  0  0  0
  149.6317  131.9191  154.5370 C   0  0  0  0  0  0  0  0  0  0  0  0
  149.1557  130.7001  154.0059 C   0  0  0  0  0  0  0  0  0  0  0  0
  148.0919  130.6813  153.0755 C   0  0  0  0  0  0  0  0  0  0  0  0
  147.6072  129.3477  152.5344 C   0  0  0  0  0  0  0  0  0  0  0  0
  147.4897  131.8962  152.6596 C   0  0  0  0  0  0  0  0  0  0  0  0
  146.3418  131.9010  151.6658 C   0  0  0  0  0  0  0  0  0  0  0  0
  147.9572  133.1228  153.1758 C   0  0  0  0  0  0  0  0  0  0  0  0
  149.0130  133.1280  154.1041 C   0  0  0  0  0  0  0  0  0  0  0  0
  151.3669  138.4681  157.5718 C   0  0  0  0  0  0  0  0  0  0  0  0
  150.6588  137.7985  158.3245 O   0  0  0  0  0  0  0  0  0  0  0  0
  153.6304  143.0003  160.8872 H   0  0  0  0  0  0  0  0  0  0  0  0
  152.8703  141.5433  161.5216 H   0  0  0  0  0  0  0  0  0  0  0  0
  151.9001  142.7459  160.6713 H   0  0  0  0  0  0  0  0  0  0  0  0
  153.1825  142.2732  158.5644 H   0  0  0  0  0  0  0  0  0  0  0  0
  154.1347  141.0753  159.4044 H   0  0  0  0  0  0  0  0  0  0  0  0
  151.7833  139.9672  159.9709 H   0  0  0  0  0  0  0  0  0  0  0  0
  151.1858  140.9491  158.6704 H   0  0  0  0  0  0  0  0  0  0  0  0
  153.2675  138.7341  158.4773 H   0  0  0  0  0  0  0  0  0  0  0  0
  149.3259  137.9505  155.9313 H   0  0  0  0  0  0  0  0  0  0  0  0
  150.1439  138.3675  154.4636 H   0  0  0  0  0  0  0  0  0  0  0  0
  150.9948  135.9518  156.1714 H   0  0  0  0  0  0  0  0  0  0  0  0
  151.3125  136.2500  153.4178 H   0  0  0  0  0  0  0  0  0  0  0  0
  148.5627  135.7921  155.3014 H   0  0  0  0  0  0  0  0  0  0  0  0
  149.2219  135.8342  153.6806 H   0  0  0  0  0  0  0  0  0  0  0  0
  151.2764  134.0340  156.1876 H   0  0  0  0  0  0  0  0  0  0  0  0
  149.6151  129.7752  154.3228 H   0  0  0  0  0  0  0  0  0  0  0  0
  147.6992  129.3191  151.4485 H   0  0  0  0  0  0  0  0  0  0  0  0
  146.5619  129.1865  152.7985 H   0  0  0  0  0  0  0  0  0  0  0  0
  148.1871  128.5182  152.9408 H   0  0  0  0  0  0  0  0  0  0  0  0
  146.0059  132.9160  151.4513 H   0  0  0  0  0  0  0  0  0  0  0  0
  145.4921  131.3446  152.0620 H   0  0  0  0  0  0  0  0  0  0  0  0
  146.6475  131.4442  150.7245 H   0  0  0  0  0  0  0  0  0  0  0  0
  147.5084  134.0562  152.8687 H   0  0  0  0  0  0  0  0  0  0  0  0
  1  2  1  0  0  0  0
  1 26  1  0  0  0  0
  1 27  1  0  0  0  0
  1 28  1  0  0  0  0
  2  3  1  0  0  0  0
  2 29  1  0  0  0  0
  2 30  1  0  0  0  0
  3  4  1  0  0  0  0
  3 31  1  0  0  0  0
  3 32  1  0  0  0  0
  4 24  1  0  0  0  0
  4  5  1  0  0  0  0
  4 33  1  0  0  0  0
  5  6  1  0  0  0  0
  6  7  2  0  0  0  0
  6  8  1  0  0  0  0
  8  9  1  0  0  0  0
  8 24  1  0  0  0  0
  9 10  1  0  0  0  0
  9 34  1  0  0  0  0
  9 35  1  0  0  0  0
 10 11  1  0  0  0  0
 10 12  1  0  0  0  0
 10 36  1  0  0  0  0
 11 37  1  0  0  0  0
 12 13  1  0  0  0  0
 12 38  1  0  0  0  0
 12 39  1  0  0  0  0
 13 23  1  0  0  0  0
 13 14  1  0  0  0  0
 14 15  2  0  0  0  0
 14 40  1  0  0  0  0
 15 16  1  0  0  0  0
 16 23  2  0  0  0  0
 16 17  1  0  0  0  0
 17 18  2  0  0  0  0
 17 41  1  0  0  0  0
 18 19  1  0  0  0  0
 18 20  1  0  0  0  0
 19 42  1  0  0  0  0
 19 43  1  0  0  0  0
 19 44  1  0  0  0  0
 20 21  1  0  0  0  0
 20 22  2  0  0  0  0
 21 45  1  0  0  0  0
 21 46  1  0  0  0  0
 21 47  1  0  0  0  0
 22 23  1  0  0  0  0
 22 48  1  0  0  0  0
 24 25  2  0  0  0  0
M  CHG  1   5  -1
M  END
> <s_m_source_file>
AV-unprocessed.smi

> <i_m_source_file_index>
1644

> <i_lp_mmshare_version>
43012

> <i_f3d_flags>
0

> <s_epik_input>
W0NIM11bQ0gyXVtDSDJdW0NAQEhdMVtOSF1DKD1PKU4oQzE9TylbQ0gyXVtDQEhdKFtPSF0pW0NIMl1uKFtjSF1uMiljKGMyMylbY0hdYyhbQ0gzXSljKFtjSF0zKVtDSDNd

> <s_epik_cmdline>
J2VwaWtfcHl0aG9uJywgJy1waCcsICc3LjAnLCAnLXRuJywgJzgnLCAnLW1hJywgJzIwMCcsICctbWV0YWxfYmluZGluZycsICctaW1hZScsICc8aW5maWxlLm1hZT4nLCAnLW9tYWUnLCAnPG91dGZpbGUubWFlPic=

> <r_lp_tautomer_probability>
1

> <r_epik_Ionization_Penalty>
5.95212

> <r_epik_Ionization_Penalty_Charging>
5.84419

> <r_epik_Ionization_Penalty_Neutral>
0.107924

> <r_epik_State_Penalty>
5.94088

> <r_epik_Charging_Adjusted_Penalty>
11.7851

> <i_epik_Tot_Q>
-1

> <i_epik_Tot_abs_Q>
1

> <r_epik_Metal_State_Penalty>
1.99095

> <b_epik_Metal_Only>
1

> <s_lp_Force_Field>
OPLS_2005

> <r_lp_Energy>
19.2974

> <b_lp_Chiralities_Consistent>
1

> <s_lp_Variant>
AV-unprocessed.smi:1644-9

> <Gold.Version>
5.8.1

> <Gold.Id.Protein>
6NUR|6NUR_protein|mol2

> <Gold.PLP.Fitness>
54.7281

> <Gold.PLP.PLP>
-42.0601

> <Gold.PLP.part.hbond>
-4.0000

> <Gold.PLP.part.metal>
0.0000

> <Gold.PLP.part.buried>
-2.5475

> <Gold.PLP.part.nonpolar>
-33.9331

> <Gold.PLP.part.repulsive>
0.0615

> <Gold.PLP.ligand.clash>
0.0000

> <Gold.PLP.ligand.torsion>
0.7851

> <Gold.PLP.Chemscore.Hbond>
4.7162

> <Gold.PLP.Chemscore.CHOScore>
0.0000

> <Gold.PLP.Chemscore.Metal>
0.0000

> <Gold.Chemscore.Hbonds>
donor molecule, donor type, donor heavy atom, donor atom, acceptor molecule, acceptor atom, score
      L1  H    11    37       P1  7949  1.00
      P1  H  7989  7998       L1     7  0.69
      P1  H  7997  8009       L1     5  1.46
      P1  H 10752 10765       L1    11  0.65

> <Gold.PLP.Chemscore.Internal.Correction>
0.0895

> <Gold.Rescore>
     Score         DG    S(hbond)    S(metal)    S(lipo)     H(rot)  DE(clash)    DE(int)     intcor
     17.71     -18.80       2.90        0.00      88.92       2.65       0.08       1.01       ----

> <Gold.Chemscore.Fitness>
17.7144

> <Gold.Chemscore.DG>
-18.7995

> <Gold.Chemscore.ZeroCoef>
-5.4800

> <Gold.Chemscore.Hbond>
2.9031

> <Gold.Chemscore.Metal>
0.0000

> <Gold.Chemscore.Lipo>
88.9197

> <Gold.Chemscore.Internal_Hbond>
0.0000

> <Gold.Chemscore.DEClash>
0.0765

> <Gold.Chemscore.DEInternal>
1.0085

> <Gold.Chemscore.Rot>
2.6486

> <Gold.Chemscore.Internal.Correction>
   9.000000E+99

> <Gold.Chemscore.Hbonds>
donor molecule, donor type, donor heavy atom, donor atom, acceptor molecule, acceptor atom, score
      L1  H    11    37       P1  7949  0.64
      P1  H  7989  7998       L1     7  0.70
      P1  H  7997  8009       L1     5  0.65
      P1  H 10752 10765       L1    11  0.48

> <Gold.Chemscore.Hbond.Weighted>
-9.6963

> <Gold.Chemscore.Metal.Weighted>
-0.0000

> <Gold.Chemscore.Lipo.Weighted>
-10.4036

> <Gold.Chemscore.Internal_Hbond.Weighted>
0.0000

> <Gold.Chemscore.DEClash.Weighted>
0.0765

> <Gold.Chemscore.DEInternal.Weighted>
1.0085

> <Gold.Chemscore.Rot.Weighted>
6.7804

> <Gold.Chemscore.Internal.Correction.Weighted>
   9.000000E+99

> <Gold.Protein.RotatedTorsions>
[ 6907 6896 6895 6894 ] final -115.47 input  -60.11 | X-H torsion
[ 7974 7965 7964 7962 ] final  127.72 input  175.53 | X-H torsion
[ 8008 7997 7996 7995 ] final -168.69 input   59.86 | X-H torsion
[ 10167 10162 10161 10158 ] final -129.71 input  -65.29 | X-H torsion
[ 10718 10713 10712 10709 ] final -119.60 input   66.30 | X-H torsion
[ 10763 10752 10751 10750 ] final  161.32 input  -60.55 | X-H torsion
[ 11005 11000 10999 10996 ] final  115.89 input  -57.11 | X-H torsion

> <Gold.Protein.ActiveResidues>
 VAL166  LYS551  ARG553  GLY616  TRP617  ASP618  TYR619  PRO620  LYS621  CYS622 
 ASP623  PHE694  ASN695  SER759  ASP760  ASP761  ALA762  ILE779  LEU786  VAL792 
 PHE793  MET794  SER795  GLU796  ALA797  LYS798  CYS799  TRP800  GLU811  SER814 

> <Gold.Protein.RotatedAtoms>
  150.7980  133.8654  159.3243 H   0  0  0  0  0  0  0  0  0  0  0  0  # atno 6907 bound_to 6896
  151.6474  135.1004  160.0163 H   0  0  0  0  0  0  0  0  0  0  0  0  # atno 6908 bound_to 6896
  152.4064  133.6856  159.6395 H   0  0  0  0  0  0  0  0  0  0  0  0  # atno 6909 bound_to 6896
  145.0474  139.3911  143.5071 H   0  0  0  0  0  0  0  0  0  0  0  0  # atno 7974 bound_to 7965
  155.8949  140.1031  157.1392 H   0  0  0  0  0  0  0  0  0  0  0  0  # atno 8008 bound_to 7997
  154.4019  140.1303  156.4426 H   0  0  0  0  0  0  0  0  0  0  0  0  # atno 8009 bound_to 7997
  155.7491  140.3465  155.5143 H   0  0  0  0  0  0  0  0  0  0  0  0  # atno 8010 bound_to 7997
  139.9370  143.6207  152.2514 H   0  0  0  0  0  0  0  0  0  0  0  0  # atno 10167 bound_to 10162
  156.1193  130.6311  150.9436 H   0  0  0  0  0  0  0  0  0  0  0  0  # atno 10718 bound_to 10713
  154.2611  135.2768  155.2777 H   0  0  0  0  0  0  0  0  0  0  0  0  # atno 10763 bound_to 10752
  154.5383  135.5710  153.6820 H   0  0  0  0  0  0  0  0  0  0  0  0  # atno 10764 bound_to 10752
  152.9962  135.6244  154.2762 H   0  0  0  0  0  0  0  0  0  0  0  0  # atno 10765 bound_to 10752
  139.9024  134.9590  156.7114 H   0  0  0  0  0  0  0  0  0  0  0  0  # atno 11005 bound_to 11000
  146.3515  140.0107  142.8667 LP  0  0  0  0  0  0  0  0  0  0  0  0  # atno 17320 bound_to 7965
  145.1570  140.9653  143.4399 LP  0  0  0  0  0  0  0  0  0  0  0  0  # atno 17321 bound_to 7965
  139.6736  144.7660  151.1738 LP  0  0  0  0  0  0  0  0  0  0  0  0  # atno 17342 bound_to 10162
  140.7622  143.5829  150.8876 LP  0  0  0  0  0  0  0  0  0  0  0  0  # atno 17343 bound_to 10162
  157.6377  131.0914  150.8315 LP  0  0  0  0  0  0  0  0  0  0  0  0  # atno 17370 bound_to 10713
  156.8414  130.5049  149.5321 LP  0  0  0  0  0  0  0  0  0  0  0  0  # atno 17371 bound_to 10713
  140.7072  133.9254  155.8061 LP  0  0  0  0  0  0  0  0  0  0  0  0  # atno 17394 bound_to 11000
  141.0327  134.0733  157.3995 LP  0  0  0  0  0  0  0  0  0  0  0  0  # atno 17395 bound_to 11000

$$$$
