AV-unprocessed.smi:2106|AV-procd|sdf|8595|dock4
  -GOLD-   2272011333D 1   1.00000     0.00000
 Structure written by MMmdl.
 47 48  0  0  0  0  0  0  0  0  1 V2000
  151.4359  143.4491  158.2532 C   0  0  0  0  0  0  0  0  0  0  0  0
  152.1914  142.5345  159.1715 C   0  0  0  0  0  0  0  0  0  0  0  0
  152.9884  142.8790  160.2987 C   0  0  0  0  0  0  0  0  0  0  0  0
  153.4457  141.6800  160.7682 C   0  0  0  0  0  0  0  0  0  0  0  0
  154.3335  141.3784  161.9308 C   0  0  0  0  0  0  0  0  0  0  0  0
  152.9261  140.7002  159.9401 N   0  0  0  0  0  0  0  0  0  0  0  0
  153.1112  139.2587  159.9923 C   0  0  0  0  0  0  0  0  0  0  0  0
  153.3572  138.6848  158.5967 C   0  0  0  0  0  0  0  0  0  0  0  0
  153.1379  139.3752  157.6017 O   0  0  0  0  0  0  0  0  0  0  0  0
  153.8113  137.4231  158.5414 N   0  0  0  0  0  0  0  0  0  0  0  0
  154.1347  136.6917  157.3209 C   0  0  0  0  0  0  0  0  0  0  0  0
  155.6542  136.4779  157.1720 C   0  0  0  0  0  0  0  0  0  0  0  0
  156.1452  136.3648  155.7985 N   0  0  0  0  0  0  0  0  0  0  0  0
  156.0134  137.6269  155.0836 C   0  0  0  0  0  0  0  0  0  0  0  0
  156.4698  137.5051  153.6184 C   0  0  1  0  0  0  0  0  0  0  0  0
  156.4162  138.8486  152.8838 C   0  0  0  0  0  0  0  0  0  0  0  0
  157.8149  137.0317  153.5776 O   0  0  0  0  0  0  0  0  0  0  0  0
  158.0545  135.8138  154.2849 C   0  0  2  0  0  0  0  0  0  0  0  0
  157.4924  134.5954  153.5327 C   0  0  0  0  0  0  0  0  0  0  0  0
  157.5377  135.9269  155.7328 C   0  0  0  0  0  0  0  0  0  0  0  0
  152.1566  141.2287  158.9629 N   0  0  0  0  0  0  0  0  0  0  0  0
  151.5339  144.4892  158.5651 H   0  0  0  0  0  0  0  0  0  0  0  0
  150.3734  143.2053  158.2421 H   0  0  0  0  0  0  0  0  0  0  0  0
  151.8078  143.3730  157.2311 H   0  0  0  0  0  0  0  0  0  0  0  0
  153.1953  143.8597  160.7008 H   0  0  0  0  0  0  0  0  0  0  0  0
  154.5907  142.2899  162.4706 H   0  0  0  0  0  0  0  0  0  0  0  0
  155.2615  140.9119  161.6007 H   0  0  0  0  0  0  0  0  0  0  0  0
  153.8430  140.7031  162.6320 H   0  0  0  0  0  0  0  0  0  0  0  0
  153.9556  139.0258  160.6415 H   0  0  0  0  0  0  0  0  0  0  0  0
  152.2313  138.7974  160.4442 H   0  0  0  0  0  0  0  0  0  0  0  0
  153.9522  136.9355  159.4141 H   0  0  0  0  0  0  0  0  0  0  0  0
  153.6494  135.7184  157.3932 H   0  0  0  0  0  0  0  0  0  0  0  0
  153.7012  137.1699  156.4421 H   0  0  0  0  0  0  0  0  0  0  0  0
  156.1550  137.3141  157.6621 H   0  0  0  0  0  0  0  0  0  0  0  0
  155.9463  135.5897  157.7342 H   0  0  0  0  0  0  0  0  0  0  0  0
  154.9742  137.9570  155.1075 H   0  0  0  0  0  0  0  0  0  0  0  0
  156.5971  138.3993  155.5871 H   0  0  0  0  0  0  0  0  0  0  0  0
  155.8228  136.8017  153.0933 H   0  0  0  0  0  0  0  0  0  0  0  0
  155.4031  139.2519  152.8757 H   0  0  0  0  0  0  0  0  0  0  0  0
  156.7383  138.7384  151.8481 H   0  0  0  0  0  0  0  0  0  0  0  0
  157.0660  139.5843  153.3585 H   0  0  0  0  0  0  0  0  0  0  0  0
  159.1371  135.6910  154.3250 H   0  0  0  0  0  0  0  0  0  0  0  0
  157.7809  133.6684  154.0286 H   0  0  0  0  0  0  0  0  0  0  0  0
  157.8746  134.5567  152.5127 H   0  0  0  0  0  0  0  0  0  0  0  0
  156.4039  134.6105  153.4824 H   0  0  0  0  0  0  0  0  0  0  0  0
  158.1650  136.6352  156.2763 H   0  0  0  0  0  0  0  0  0  0  0  0
  157.6634  134.9652  156.2279 H   0  0  0  0  0  0  0  0  0  0  0  0
  1  2  1  0  0  0  0
  1 22  1  0  0  0  0
  1 23  1  0  0  0  0
  1 24  1  0  0  0  0
  2 21  2  0  0  0  0
  2  3  1  0  0  0  0
  3  4  2  0  0  0  0
  3 25  1  0  0  0  0
  4  5  1  0  0  0  0
  4  6  1  0  0  0  0
  5 26  1  0  0  0  0
  5 27  1  0  0  0  0
  5 28  1  0  0  0  0
  6  7  1  0  0  0  0
  6 21  1  0  0  0  0
  7  8  1  0  0  0  0
  7 29  1  0  0  0  0
  7 30  1  0  0  0  0
  8  9  2  0  0  0  0
  8 10  1  0  0  0  0
 10 11  1  0  0  0  0
 10 31  1  0  0  0  0
 11 12  1  0  0  0  0
 11 32  1  0  0  0  0
 11 33  1  0  0  0  0
 12 13  1  0  0  0  0
 12 34  1  0  0  0  0
 12 35  1  0  0  0  0
 13 20  1  0  0  0  0
 13 14  1  0  0  0  0
 14 15  1  0  0  0  0
 14 36  1  0  0  0  0
 14 37  1  0  0  0  0
 15 16  1  0  0  0  0
 15 17  1  0  0  0  0
 15 38  1  0  0  0  0
 16 39  1  0  0  0  0
 16 40  1  0  0  0  0
 16 41  1  0  0  0  0
 17 18  1  0  0  0  0
 18 19  1  0  0  0  0
 18 20  1  0  0  0  0
 18 42  1  0  0  0  0
 19 43  1  0  0  0  0
 19 44  1  0  0  0  0
 19 45  1  0  0  0  0
 20 46  1  0  0  0  0
 20 47  1  0  0  0  0
M  END
> <s_m_source_file>
AV-unprocessed.smi

> <i_m_source_file_index>
2106

> <i_lp_mmshare_version>
43012

> <i_f3d_flags>
0

> <s_epik_input>
W0NIM11jMVtjSF1jKFtDSDNdKW4objEpW0NIMl1DKD1PKVtOSF1bQ0gyXVtDSDJdTjJbQ0gyXVtDQEBIXShbQ0gzXSlPW0NAQEhdKFtDSDNdKVtDSDJdMg==

> <s_epik_cmdline>
J2VwaWtfcHl0aG9uJywgJy1waCcsICc3LjAnLCAnLXRuJywgJzgnLCAnLW1hJywgJzIwMCcsICctbWV0YWxfYmluZGluZycsICctaW1hZScsICc8aW5maWxlLm1hZT4nLCAnLW9tYWUnLCAnPG91dGZpbGUubWFlPic=

> <r_lp_tautomer_probability>
1

> <r_epik_Ionization_Penalty>
0.197284

> <r_epik_Ionization_Penalty_Charging>
0

> <r_epik_Ionization_Penalty_Neutral>
0.197284

> <r_epik_State_Penalty>
0.186684

> <r_epik_Charging_Adjusted_Penalty>
0.186684

> <i_epik_Tot_Q>
0

> <i_epik_Tot_abs_Q>
0

> <r_epik_Metal_State_Penalty>
0.186634

> <b_epik_Metal_Only>
0

> <s_lp_Force_Field>
OPLS_2005

> <r_lp_Energy>
25.1516

> <b_lp_Chiralities_Consistent>
1

> <s_lp_Variant>
AV-unprocessed.smi:2106-3

> <Gold.Version>
5.8.1

> <Gold.Id.Protein>
6NUR|6NUR_protein|mol2

> <Gold.PLP.Fitness>
39.6026

> <Gold.PLP.PLP>
-34.8501

> <Gold.PLP.part.hbond>
-1.9020

> <Gold.PLP.part.metal>
0.0000

> <Gold.PLP.part.buried>
-3.1900

> <Gold.PLP.part.nonpolar>
-30.5478

> <Gold.PLP.part.repulsive>
0.2094

> <Gold.PLP.ligand.clash>
0.0000

> <Gold.PLP.ligand.torsion>
0.6321

> <Gold.PLP.Chemscore.Hbond>
2.0000

> <Gold.PLP.Chemscore.CHOScore>
0.0000

> <Gold.PLP.Chemscore.Metal>
0.0000

> <Gold.Chemscore.Hbonds>
donor molecule, donor type, donor heavy atom, donor atom, acceptor molecule, acceptor atom, score
      P1  H  7997  8008       L1     9  1.00
      P1  H 10752 10763       L1    13  1.00

> <Gold.PLP.Chemscore.Internal.Correction>
0.0169

> <Gold.Rescore>
     Score         DG    S(hbond)    S(metal)    S(lipo)     H(rot)  DE(clash)    DE(int)     intcor
     15.02     -17.41       1.05        0.00     108.54       1.67       0.05       2.35       ----

> <Gold.Chemscore.Fitness>
15.0184

> <Gold.Chemscore.DG>
-17.4150

> <Gold.Chemscore.ZeroCoef>
-5.4800

> <Gold.Chemscore.Hbond>
1.0480

> <Gold.Chemscore.Metal>
0.0000

> <Gold.Chemscore.Lipo>
108.5362

> <Gold.Chemscore.Internal_Hbond>
0.0000

> <Gold.Chemscore.DEClash>
0.0456

> <Gold.Chemscore.DEInternal>
2.3509

> <Gold.Chemscore.Rot>
1.6657

> <Gold.Chemscore.Internal.Correction>
   9.000000E+99

> <Gold.Chemscore.Hbonds>
donor molecule, donor type, donor heavy atom, donor atom, acceptor molecule, acceptor atom, score
      P1  H  7997  8008       L1     9  0.98
      P1  H 10752 10763       L1    13  0.09

> <Gold.Chemscore.Hbond.Weighted>
-3.5003

> <Gold.Chemscore.Metal.Weighted>
-0.0000

> <Gold.Chemscore.Lipo.Weighted>
-12.6987

> <Gold.Chemscore.Internal_Hbond.Weighted>
0.0000

> <Gold.Chemscore.DEClash.Weighted>
0.0456

> <Gold.Chemscore.DEInternal.Weighted>
2.3509

> <Gold.Chemscore.Rot.Weighted>
4.2641

> <Gold.Chemscore.Internal.Correction.Weighted>
   9.000000E+99

> <Gold.Protein.RotatedTorsions>
[ 6907 6896 6895 6894 ] final -125.57 input  -60.11 | X-H torsion
[ 7974 7965 7964 7962 ] final -123.78 input  175.53 | X-H torsion
[ 8008 7997 7996 7995 ] final  -63.86 input   59.86 | X-H torsion
[ 10167 10162 10161 10158 ] final -146.54 input  -65.29 | X-H torsion
[ 10718 10713 10712 10709 ] final -127.90 input   66.30 | X-H torsion
[ 10763 10752 10751 10750 ] final -166.52 input  -60.55 | X-H torsion
[ 11005 11000 10999 10996 ] final -104.01 input  -57.11 | X-H torsion

> <Gold.Protein.ActiveResidues>
 VAL166  LYS551  ARG553  GLY616  TRP617  ASP618  TYR619  PRO620  LYS621  CYS622 
 ASP623  PHE694  ASN695  SER759  ASP760  ASP761  ALA762  ILE779  LEU786  VAL792 
 PHE793  MET794  SER795  GLU796  ALA797  LYS798  CYS799  TRP800  GLU811  SER814 

> <Gold.Protein.RotatedAtoms>
  150.8881  133.7280  159.2912 H   0  0  0  0  0  0  0  0  0  0  0  0  # atno 6907 bound_to 6896
  151.4840  135.1052  159.9795 H   0  0  0  0  0  0  0  0  0  0  0  0  # atno 6908 bound_to 6896
  152.4803  133.8190  159.7099 H   0  0  0  0  0  0  0  0  0  0  0  0  # atno 6909 bound_to 6896
  145.0150  140.7939  143.4415 H   0  0  0  0  0  0  0  0  0  0  0  0  # atno 7974 bound_to 7965
  154.4578  140.0966  156.6808 H   0  0  0  0  0  0  0  0  0  0  0  0  # atno 8008 bound_to 7997
  155.5084  140.3475  155.4365 H   0  0  0  0  0  0  0  0  0  0  0  0  # atno 8009 bound_to 7997
  156.0812  140.1373  156.9698 H   0  0  0  0  0  0  0  0  0  0  0  0  # atno 8010 bound_to 7997
  139.7704  143.8247  152.2623 H   0  0  0  0  0  0  0  0  0  0  0  0  # atno 10167 bound_to 10162
  156.1900  130.6789  151.0412 H   0  0  0  0  0  0  0  0  0  0  0  0  # atno 10718 bound_to 10713
  154.6824  135.2957  154.9594 H   0  0  0  0  0  0  0  0  0  0  0  0  # atno 10763 bound_to 10752
  154.0584  135.6635  153.4813 H   0  0  0  0  0  0  0  0  0  0  0  0  # atno 10764 bound_to 10752
  153.0556  135.5146  154.7874 H   0  0  0  0  0  0  0  0  0  0  0  0  # atno 10765 bound_to 10752
  141.1120  133.8687  157.1557 H   0  0  0  0  0  0  0  0  0  0  0  0  # atno 11005 bound_to 11000
  145.1972  139.2270  143.5212 LP  0  0  0  0  0  0  0  0  0  0  0  0  # atno 17320 bound_to 7965
  146.3476  140.1781  142.8589 LP  0  0  0  0  0  0  0  0  0  0  0  0  # atno 17321 bound_to 7965
  139.8279  144.7267  150.9488 LP  0  0  0  0  0  0  0  0  0  0  0  0  # atno 17342 bound_to 10162
  140.7813  143.4097  151.1013 LP  0  0  0  0  0  0  0  0  0  0  0  0  # atno 17343 bound_to 10162
  157.6923  131.0806  150.7072 LP  0  0  0  0  0  0  0  0  0  0  0  0  # atno 17370 bound_to 10713
  156.7128  130.4657  149.5543 LP  0  0  0  0  0  0  0  0  0  0  0  0  # atno 17371 bound_to 10713
  140.0019  135.0024  157.0209 LP  0  0  0  0  0  0  0  0  0  0  0  0  # atno 17394 bound_to 11000
  140.4749  134.1348  155.7208 LP  0  0  0  0  0  0  0  0  0  0  0  0  # atno 17395 bound_to 11000

$$$$
