AV-unprocessed.smi:2092|AV-procd|sdf|8542|dock4
  -GOLD-   2272011263D 1   1.00000     0.00000
 Structure written by MMmdl.
 44 45  0  0  0  0  0  0  0  0  1 V2000
  147.6780  146.3490  161.3950 C   0  0  0  0  0  0  0  0  0  0  0  0
  148.6610  145.2164  161.0653 C   0  0  2  0  0  0  0  0  0  0  0  0
  149.3809  145.6000  159.8932 O   0  0  0  0  0  0  0  0  0  0  0  0
  150.3275  144.6544  159.4015 C   0  0  0  0  0  0  0  0  0  0  0  0
  151.7237  145.2863  159.3725 C   0  0  0  0  0  0  0  0  0  0  0  0
  151.6085  146.5902  159.1215 F   0  0  0  0  0  0  0  0  0  0  0  0
  152.3269  145.1294  160.5505 F   0  0  0  0  0  0  0  0  0  0  0  0
  152.4614  144.7289  158.4124 F   0  0  0  0  0  0  0  0  0  0  0  0
  147.9251  143.8847  160.8455 C   0  0  0  0  0  0  0  0  0  0  0  0
  147.9310  143.0188  161.7207 O   0  0  0  0  0  0  0  0  0  0  0  0
  147.2596  143.7567  159.6869 N   0  0  0  0  0  0  0  0  0  0  0  0
  146.3773  142.6437  159.3516 C   0  0  0  0  0  0  0  0  0  0  0  0
  146.6548  142.0460  157.9797 C   0  0  0  0  0  0  0  0  0  0  0  0
  145.6497  142.0309  156.9936 C   0  0  0  0  0  0  0  0  0  0  0  0
  145.9611  141.4982  155.7289 C   0  0  0  0  0  0  0  0  0  0  0  0
  147.1754  141.0006  155.4132 N   0  0  0  0  0  0  0  0  0  0  0  0
  148.1476  140.9962  156.3583 C   0  0  0  0  0  0  0  0  0  0  0  0
  149.4190  140.4906  156.0127 N   0  0  0  0  0  0  0  0  0  0  0  0
  150.5461  141.4202  155.9813 C   0  0  0  0  0  0  0  0  0  0  0  0
  151.8731  140.6461  155.9098 C   0  0  0  0  0  0  0  0  0  0  0  0
  151.8545  139.7639  154.7925 O   0  0  0  0  0  0  0  0  0  0  0  0
  150.8145  138.7973  154.8978 C   0  0  0  0  0  0  0  0  0  0  0  0
  149.4479  139.5027  154.9373 C   0  0  0  0  0  0  0  0  0  0  0  0
  147.9179  141.5023  157.6590 C   0  0  0  0  0  0  0  0  0  0  0  0
  147.0910  146.1187  162.2848 H   0  0  0  0  0  0  0  0  0  0  0  0
  146.9845  146.5304  160.5730 H   0  0  0  0  0  0  0  0  0  0  0  0
  148.2120  147.2801  161.5854 H   0  0  0  0  0  0  0  0  0  0  0  0
  149.3637  145.1162  161.8949 H   0  0  0  0  0  0  0  0  0  0  0  0
  150.3396  143.7654  160.0338 H   0  0  0  0  0  0  0  0  0  0  0  0
  150.0590  144.3382  158.3936 H   0  0  0  0  0  0  0  0  0  0  0  0
  147.3120  144.5143  159.0216 H   0  0  0  0  0  0  0  0  0  0  0  0
  146.5111  141.8629  160.1003 H   0  0  0  0  0  0  0  0  0  0  0  0
  145.3360  142.9636  159.4184 H   0  0  0  0  0  0  0  0  0  0  0  0
  144.6656  142.4291  157.1929 H   0  0  0  0  0  0  0  0  0  0  0  0
  145.2170  141.4776  154.9465 H   0  0  0  0  0  0  0  0  0  0  0  0
  150.4486  142.0773  155.1161 H   0  0  0  0  0  0  0  0  0  0  0  0
  150.5431  142.0497  156.8720 H   0  0  0  0  0  0  0  0  0  0  0  0
  152.7067  141.3399  155.8011 H   0  0  0  0  0  0  0  0  0  0  0  0
  152.0445  140.0831  156.8289 H   0  0  0  0  0  0  0  0  0  0  0  0
  150.8657  138.1275  154.0395 H   0  0  0  0  0  0  0  0  0  0  0  0
  150.9616  138.1841  155.7883 H   0  0  0  0  0  0  0  0  0  0  0  0
  148.6657  138.7539  155.0519 H   0  0  0  0  0  0  0  0  0  0  0  0
  149.2635  140.0104  153.9899 H   0  0  0  0  0  0  0  0  0  0  0  0
  148.7070  141.5056  158.3956 H   0  0  0  0  0  0  0  0  0  0  0  0
  1  2  1  0  0  0  0
  1 25  1  0  0  0  0
  1 26  1  0  0  0  0
  1 27  1  0  0  0  0
  2  3  1  0  0  0  0
  2  9  1  0  0  0  0
  2 28  1  0  0  0  0
  3  4  1  0  0  0  0
  4  5  1  0  0  0  0
  4 29  1  0  0  0  0
  4 30  1  0  0  0  0
  5  6  1  0  0  0  0
  5  7  1  0  0  0  0
  5  8  1  0  0  0  0
  9 10  2  0  0  0  0
  9 11  1  0  0  0  0
 11 12  1  0  0  0  0
 11 31  1  0  0  0  0
 12 13  1  0  0  0  0
 12 32  1  0  0  0  0
 12 33  1  0  0  0  0
 13 24  1  0  0  0  0
 13 14  2  0  0  0  0
 14 15  1  0  0  0  0
 14 34  1  0  0  0  0
 15 16  2  0  0  0  0
 15 35  1  0  0  0  0
 16 17  1  0  0  0  0
 17 18  1  0  0  0  0
 17 24  2  0  0  0  0
 18 23  1  0  0  0  0
 18 19  1  0  0  0  0
 19 20  1  0  0  0  0
 19 36  1  0  0  0  0
 19 37  1  0  0  0  0
 20 21  1  0  0  0  0
 20 38  1  0  0  0  0
 20 39  1  0  0  0  0
 21 22  1  0  0  0  0
 22 23  1  0  0  0  0
 22 40  1  0  0  0  0
 22 41  1  0  0  0  0
 23 42  1  0  0  0  0
 23 43  1  0  0  0  0
 24 44  1  0  0  0  0
M  END
> <s_m_source_file>
AV-unprocessed.smi

> <i_m_source_file_index>
2092

> <i_lp_mmshare_version>
43012

> <i_f3d_flags>
0

> <s_epik_input>
RkMoRikoRilbQ0gyXU9bQ0BASF0oW0NIM10pQyg9TylbTkhdW0NIMl1jMVtjSF1bY0hdbmMoW2NIXTEpTjJbQ0gyXVtDSDJdT1tDSDJdW0NIMl0y

> <s_epik_cmdline>
J2VwaWtfcHl0aG9uJywgJy1waCcsICc3LjAnLCAnLXRuJywgJzgnLCAnLW1hJywgJzIwMCcsICctbWV0YWxfYmluZGluZycsICctaW1hZScsICc8aW5maWxlLm1hZT4nLCAnLW9tYWUnLCAnPG91dGZpbGUubWFlPic=

> <r_lp_tautomer_probability>
1

> <r_epik_Ionization_Penalty>
0.00451782

> <r_epik_Ionization_Penalty_Charging>
0

> <r_epik_Ionization_Penalty_Neutral>
0.00451782

> <r_epik_State_Penalty>
0.00326147

> <r_epik_Charging_Adjusted_Penalty>
0.00326147

> <i_epik_Tot_Q>
0

> <i_epik_Tot_abs_Q>
0

> <r_epik_Metal_State_Penalty>
-0

> <b_epik_Metal_Only>
0

> <s_lp_Force_Field>
OPLS_2005

> <r_lp_Energy>
14.8319

> <b_lp_Chiralities_Consistent>
1

> <s_lp_Variant>
AV-unprocessed.smi:2092-1

> <Gold.Version>
5.8.1

> <Gold.Id.Protein>
6NUR|6NUR_protein|mol2

> <Gold.PLP.Fitness>
55.4660

> <Gold.PLP.PLP>
-48.1169

> <Gold.PLP.part.hbond>
-4.3986

> <Gold.PLP.part.metal>
0.0000

> <Gold.PLP.part.buried>
-4.3152

> <Gold.PLP.part.nonpolar>
-41.3479

> <Gold.PLP.part.repulsive>
1.7668

> <Gold.PLP.ligand.clash>
0.0000

> <Gold.PLP.ligand.torsion>
1.7316

> <Gold.PLP.Chemscore.Hbond>
3.4663

> <Gold.PLP.Chemscore.CHOScore>
0.0000

> <Gold.PLP.Chemscore.Metal>
0.0000

> <Gold.Chemscore.Hbonds>
donor molecule, donor type, donor heavy atom, donor atom, acceptor molecule, acceptor atom, score
      L1  H    11    31       P1  8029  0.28
      P1  H  7989  7998       L1    21  0.99

> <Gold.PLP.Chemscore.Internal.Correction>
0.4134

> <Gold.Rescore>
     Score         DG    S(hbond)    S(metal)    S(lipo)     H(rot)  DE(clash)    DE(int)     intcor
     12.07     -13.68       1.76        0.00      74.39       2.49       0.63       0.99       ----

> <Gold.Chemscore.Fitness>
12.0669

> <Gold.Chemscore.DG>
-13.6824

> <Gold.Chemscore.ZeroCoef>
-5.4800

> <Gold.Chemscore.Hbond>
1.7584

> <Gold.Chemscore.Metal>
0.0000

> <Gold.Chemscore.Lipo>
74.3888

> <Gold.Chemscore.Internal_Hbond>
0.0000

> <Gold.Chemscore.DEClash>
0.6255

> <Gold.Chemscore.DEInternal>
0.9899

> <Gold.Chemscore.Rot>
2.4899

> <Gold.Chemscore.Internal.Correction>
   9.000000E+99

> <Gold.Chemscore.Hbonds>
donor molecule, donor type, donor heavy atom, donor atom, acceptor molecule, acceptor atom, score
      L1  H    11    31       P1  8029  0.27
      P1  H  7989  7998       L1    21  0.25

> <Gold.Chemscore.Hbond.Weighted>
-5.8730

> <Gold.Chemscore.Metal.Weighted>
-0.0000

> <Gold.Chemscore.Lipo.Weighted>
-8.7035

> <Gold.Chemscore.Internal_Hbond.Weighted>
0.0000

> <Gold.Chemscore.DEClash.Weighted>
0.6255

> <Gold.Chemscore.DEInternal.Weighted>
0.9899

> <Gold.Chemscore.Rot.Weighted>
6.3741

> <Gold.Chemscore.Internal.Correction.Weighted>
   9.000000E+99

> <Gold.Protein.RotatedTorsions>
[ 6907 6896 6895 6894 ] final -154.60 input  -60.11 | X-H torsion
[ 7974 7965 7964 7962 ] final  -29.17 input  175.53 | X-H torsion
[ 8008 7997 7996 7995 ] final -137.89 input   59.86 | X-H torsion
[ 10167 10162 10161 10158 ] final -138.94 input  -65.29 | X-H torsion
[ 10718 10713 10712 10709 ] final  -92.54 input   66.30 | X-H torsion
[ 10763 10752 10751 10750 ] final   26.68 input  -60.55 | X-H torsion
[ 11005 11000 10999 10996 ] final   40.32 input  -57.11 | X-H torsion

> <Gold.Protein.ActiveResidues>
 VAL166  LYS551  ARG553  GLY616  TRP617  ASP618  TYR619  PRO620  LYS621  CYS622 
 ASP623  PHE694  ASN695  SER759  ASP760  ASP761  ALA762  ILE779  LEU786  VAL792 
 PHE793  MET794  SER795  GLU796  ALA797  LYS798  CYS799  TRP800  GLU811  SER814 

> <Gold.Protein.RotatedAtoms>
  151.2599  133.4307  159.2615 H   0  0  0  0  0  0  0  0  0  0  0  0  # atno 6907 bound_to 6896
  151.0540  134.9693  159.8236 H   0  0  0  0  0  0  0  0  0  0  0  0  # atno 6908 bound_to 6896
  152.5387  134.2552  159.8966 H   0  0  0  0  0  0  0  0  0  0  0  0  # atno 6909 bound_to 6896
  146.1236  140.5377  142.8724 H   0  0  0  0  0  0  0  0  0  0  0  0  # atno 7974 bound_to 7965
  155.4193  140.0517  157.3027 H   0  0  0  0  0  0  0  0  0  0  0  0  # atno 8008 bound_to 7997
  154.4910  140.2120  155.9508 H   0  0  0  0  0  0  0  0  0  0  0  0  # atno 8009 bound_to 7997
  156.1342  140.3166  155.8400 H   0  0  0  0  0  0  0  0  0  0  0  0  # atno 8010 bound_to 7997
  139.8429  143.7299  152.2662 H   0  0  0  0  0  0  0  0  0  0  0  0  # atno 10167 bound_to 10162
  156.0003  130.4991  150.5641 H   0  0  0  0  0  0  0  0  0  0  0  0  # atno 10718 bound_to 10713
  153.0606  135.6554  154.0472 H   0  0  0  0  0  0  0  0  0  0  0  0  # atno 10763 bound_to 10752
  154.0141  135.2926  155.3390 H   0  0  0  0  0  0  0  0  0  0  0  0  # atno 10764 bound_to 10752
  154.6942  135.5270  153.8503 H   0  0  0  0  0  0  0  0  0  0  0  0  # atno 10765 bound_to 10752
  140.1942  134.3949  155.8130 H   0  0  0  0  0  0  0  0  0  0  0  0  # atno 11005 bound_to 11000
  144.7620  140.5445  143.6729 LP  0  0  0  0  0  0  0  0  0  0  0  0  # atno 17320 bound_to 7965
  145.5414  139.1475  143.3445 LP  0  0  0  0  0  0  0  0  0  0  0  0  # atno 17321 bound_to 7965
  139.7541  144.7525  151.0461 LP  0  0  0  0  0  0  0  0  0  0  0  0  # atno 17342 bound_to 10162
  140.7796  143.4825  150.9999 LP  0  0  0  0  0  0  0  0  0  0  0  0  # atno 17343 bound_to 10162
  157.3546  131.0739  151.1686 LP  0  0  0  0  0  0  0  0  0  0  0  0  # atno 17370 bound_to 10713
  157.2491  130.6605  149.5923 LP  0  0  0  0  0  0  0  0  0  0  0  0  # atno 17371 bound_to 10713
  141.2227  133.7062  156.8148 LP  0  0  0  0  0  0  0  0  0  0  0  0  # atno 17394 bound_to 11000
  140.2125  134.8817  157.3290 LP  0  0  0  0  0  0  0  0  0  0  0  0  # atno 17395 bound_to 11000

$$$$
