AV-unprocessed.smi:2659|AV-procd|sdf|10312|dock2
  -GOLD-   2272014333D 1   1.00000     0.00000
 Structure written by MMmdl.
 47 48  0  0  0  0  0  0  0  0  1 V2000
  151.4555  137.7624  154.2021 C   0  0  0  0  0  0  0  0  0  0  0  0
  150.6919  138.9621  154.4844 N   0  0  0  0  0  0  0  0  0  0  0  0
  151.2578  139.9763  155.1727 N   0  0  0  0  0  0  0  0  0  0  0  0
  150.3177  140.9124  155.2548 C   0  0  0  0  0  0  0  0  0  0  0  0
  150.6155  142.2130  155.9575 C   0  0  0  0  0  0  0  0  0  0  0  0
  150.9038  142.0871  157.4792 C   0  0  0  0  0  0  0  0  0  0  0  0
  149.5922  141.8754  158.2616 C   0  0  0  0  0  0  0  0  0  0  0  0
  151.5567  143.3960  157.9642 C   0  0  0  0  0  0  0  0  0  0  0  0
  151.8650  140.9176  157.7805 C   0  0  0  0  0  0  0  0  0  0  0  0
  149.0988  140.5194  154.6286 C   0  0  0  0  0  0  0  0  0  0  0  0
  149.3945  139.2742  154.1458 C   0  0  0  0  0  0  0  0  0  0  0  0
  148.6027  138.4200  153.4450 N   0  0  0  0  0  0  0  0  0  0  0  0
  147.2630  138.4205  153.3344 C   0  0  0  0  0  0  0  0  0  0  0  0
  146.5002  139.1981  153.9082 O   0  0  0  0  0  0  0  0  0  0  0  0
  146.8465  137.4591  152.4980 N   0  0  0  0  0  0  0  0  0  0  0  0
  145.4583  137.2086  152.1240 C   0  0  0  0  0  0  0  0  0  0  0  0
  145.3168  135.9324  151.2763 C   0  0  2  0  0  0  0  0  0  0  0  0
  143.8961  135.3851  151.1502 C   0  0  0  0  0  0  0  0  0  0  0  0
  144.1216  133.9230  150.8077 C   0  0  0  0  0  0  0  0  0  0  0  0
  145.5489  133.6444  151.2909 C   0  0  0  0  0  0  0  0  0  0  0  0
  145.9979  134.8525  151.8936 O   0  0  0  0  0  0  0  0  0  0  0  0
  151.3860  137.5237  153.1407 H   0  0  0  0  0  0  0  0  0  0  0  0
  151.0560  136.9303  154.7819 H   0  0  0  0  0  0  0  0  0  0  0  0
  152.5052  137.9055  154.4618 H   0  0  0  0  0  0  0  0  0  0  0  0
  151.4824  142.6640  155.4726 H   0  0  0  0  0  0  0  0  0  0  0  0
  149.8011  142.9201  155.7928 H   0  0  0  0  0  0  0  0  0  0  0  0
  149.7729  141.8501  159.3368 H   0  0  0  0  0  0  0  0  0  0  0  0
  149.1108  140.9345  157.9955 H   0  0  0  0  0  0  0  0  0  0  0  0
  148.8785  142.6768  158.0682 H   0  0  0  0  0  0  0  0  0  0  0  0
  150.9095  144.2541  157.7796 H   0  0  0  0  0  0  0  0  0  0  0  0
  152.5030  143.5826  157.4552 H   0  0  0  0  0  0  0  0  0  0  0  0
  151.7631  143.3659  159.0347 H   0  0  0  0  0  0  0  0  0  0  0  0
  152.1342  140.8893  158.8369 H   0  0  0  0  0  0  0  0  0  0  0  0
  152.7897  141.0079  157.2095 H   0  0  0  0  0  0  0  0  0  0  0  0
  151.4202  139.9515  157.5399 H   0  0  0  0  0  0  0  0  0  0  0  0
  148.1785  141.0783  154.5509 H   0  0  0  0  0  0  0  0  0  0  0  0
  149.0939  137.7234  152.9042 H   0  0  0  0  0  0  0  0  0  0  0  0
  147.5429  136.8644  152.0734 H   0  0  0  0  0  0  0  0  0  0  0  0
  144.8832  137.0973  153.0433 H   0  0  0  0  0  0  0  0  0  0  0  0
  145.0315  138.0664  151.6013 H   0  0  0  0  0  0  0  0  0  0  0  0
  145.7449  136.0895  150.2843 H   0  0  0  0  0  0  0  0  0  0  0  0
  143.3775  135.4601  152.1070 H   0  0  0  0  0  0  0  0  0  0  0  0
  143.3021  135.9100  150.4014 H   0  0  0  0  0  0  0  0  0  0  0  0
  143.3875  133.2804  151.2947 H   0  0  0  0  0  0  0  0  0  0  0  0
  144.0490  133.7608  149.7318 H   0  0  0  0  0  0  0  0  0  0  0  0
  145.5918  132.8229  152.0063 H   0  0  0  0  0  0  0  0  0  0  0  0
  146.1971  133.3960  150.4496 H   0  0  0  0  0  0  0  0  0  0  0  0
  1  2  1  0  0  0  0
  1 22  1  0  0  0  0
  1 23  1  0  0  0  0
  1 24  1  0  0  0  0
  2 11  1  0  0  0  0
  2  3  1  0  0  0  0
  3  4  2  0  0  0  0
  4  5  1  0  0  0  0
  4 10  1  0  0  0  0
  5  6  1  0  0  0  0
  5 25  1  0  0  0  0
  5 26  1  0  0  0  0
  6  7  1  0  0  0  0
  6  8  1  0  0  0  0
  6  9  1  0  0  0  0
  7 27  1  0  0  0  0
  7 28  1  0  0  0  0
  7 29  1  0  0  0  0
  8 30  1  0  0  0  0
  8 31  1  0  0  0  0
  8 32  1  0  0  0  0
  9 33  1  0  0  0  0
  9 34  1  0  0  0  0
  9 35  1  0  0  0  0
 10 11  2  0  0  0  0
 10 36  1  0  0  0  0
 11 12  1  0  0  0  0
 12 13  1  0  0  0  0
 12 37  1  0  0  0  0
 13 14  2  0  0  0  0
 13 15  1  0  0  0  0
 15 16  1  0  0  0  0
 15 38  1  0  0  0  0
 16 17  1  0  0  0  0
 16 39  1  0  0  0  0
 16 40  1  0  0  0  0
 17 21  1  0  0  0  0
 17 18  1  0  0  0  0
 17 41  1  0  0  0  0
 18 19  1  0  0  0  0
 18 42  1  0  0  0  0
 18 43  1  0  0  0  0
 19 20  1  0  0  0  0
 19 44  1  0  0  0  0
 19 45  1  0  0  0  0
 20 21  1  0  0  0  0
 20 46  1  0  0  0  0
 20 47  1  0  0  0  0
M  END
> <s_m_source_file>
AV-unprocessed.smi

> <i_m_source_file_index>
2659

> <i_lp_mmshare_version>
43012

> <i_f3d_flags>
0

> <s_epik_input>
W0NIM11uMW5jKFtDSDJdQyhbQ0gzXSkoW0NIM10pW0NIM10pW2NIXWMxW05IXUMoPU8pW05IXVtDSDJdW0NAQEhdMltDSDJdW0NIMl1bQ0gyXU8y

> <s_epik_cmdline>
J2VwaWtfcHl0aG9uJywgJy1waCcsICc3LjAnLCAnLXRuJywgJzgnLCAnLW1hJywgJzIwMCcsICctbWV0YWxfYmluZGluZycsICctaW1hZScsICc8aW5maWxlLm1hZT4nLCAnLW9tYWUnLCAnPG91dGZpbGUubWFlPic=

> <r_lp_tautomer_probability>
1

> <r_epik_Ionization_Penalty>
9.6187e-05

> <r_epik_Ionization_Penalty_Charging>
0

> <r_epik_Ionization_Penalty_Neutral>
9.6187e-05

> <r_epik_State_Penalty>
-0

> <r_epik_Charging_Adjusted_Penalty>
0

> <i_epik_Tot_Q>
0

> <i_epik_Tot_abs_Q>
0

> <r_epik_Metal_State_Penalty>
-0

> <b_epik_Metal_Only>
0

> <s_lp_Force_Field>
OPLS_2005

> <r_lp_Energy>
20.4305

> <b_lp_Chiralities_Consistent>
1

> <s_lp_Variant>
AV-unprocessed.smi:2659-1

> <Gold.Version>
5.8.1

> <Gold.Id.Protein>
6NUR|6NUR_protein|mol2

> <Gold.PLP.Fitness>
43.7022

> <Gold.PLP.PLP>
-38.1946

> <Gold.PLP.part.hbond>
-3.9405

> <Gold.PLP.part.metal>
0.0000

> <Gold.PLP.part.buried>
-1.4268

> <Gold.PLP.part.nonpolar>
-33.2775

> <Gold.PLP.part.repulsive>
0.4251

> <Gold.PLP.ligand.clash>
0.0000

> <Gold.PLP.ligand.torsion>
0.3848

> <Gold.PLP.Chemscore.Hbond>
2.0725

> <Gold.PLP.Chemscore.CHOScore>
0.0000

> <Gold.PLP.Chemscore.Metal>
0.0000

> <Gold.Chemscore.Hbonds>
donor molecule, donor type, donor heavy atom, donor atom, acceptor molecule, acceptor atom, score
      L1  H    12    37       P1  7948  0.96
      L1  H    15    38       P1  7948  1.00
      P1  H  7989  7998       L1     3  0.08

> <Gold.PLP.Chemscore.Internal.Correction>
0.0596

> <Gold.Rescore>
     Score         DG    S(hbond)    S(metal)    S(lipo)     H(rot)  DE(clash)    DE(int)     intcor
     15.44     -18.43       1.93        0.00      88.21       1.49       0.23       2.77       ----

> <Gold.Chemscore.Fitness>
15.4373

> <Gold.Chemscore.DG>
-18.4310

> <Gold.Chemscore.ZeroCoef>
-5.4800

> <Gold.Chemscore.Hbond>
1.9291

> <Gold.Chemscore.Metal>
0.0000

> <Gold.Chemscore.Lipo>
88.2111

> <Gold.Chemscore.Internal_Hbond>
0.0000

> <Gold.Chemscore.DEClash>
0.2277

> <Gold.Chemscore.DEInternal>
2.7660

> <Gold.Chemscore.Rot>
1.4894

> <Gold.Chemscore.Internal.Correction>
   9.000000E+99

> <Gold.Chemscore.Hbonds>
donor molecule, donor type, donor heavy atom, donor atom, acceptor molecule, acceptor atom, score
      L1  H    12    37       P1  7948  0.92
      L1  H    15    38       P1  7948  0.94

> <Gold.Chemscore.Hbond.Weighted>
-6.4432

> <Gold.Chemscore.Metal.Weighted>
-0.0000

> <Gold.Chemscore.Lipo.Weighted>
-10.3207

> <Gold.Chemscore.Internal_Hbond.Weighted>
0.0000

> <Gold.Chemscore.DEClash.Weighted>
0.2277

> <Gold.Chemscore.DEInternal.Weighted>
2.7660

> <Gold.Chemscore.Rot.Weighted>
3.8129

> <Gold.Chemscore.Internal.Correction.Weighted>
   9.000000E+99

> <Gold.Protein.RotatedTorsions>
[ 6907 6896 6895 6894 ] final  139.34 input  -60.11 | X-H torsion
[ 7974 7965 7964 7962 ] final -156.97 input  175.53 | X-H torsion
[ 8008 7997 7996 7995 ] final   91.20 input   59.86 | X-H torsion
[ 10167 10162 10161 10158 ] final   20.78 input  -65.29 | X-H torsion
[ 10718 10713 10712 10709 ] final   77.72 input   66.30 | X-H torsion
[ 10763 10752 10751 10750 ] final  -18.78 input  -60.55 | X-H torsion
[ 11005 11000 10999 10996 ] final  153.72 input  -57.11 | X-H torsion

> <Gold.Protein.ActiveResidues>
 VAL166  LYS551  ARG553  GLY616  TRP617  ASP618  TYR619  PRO620  LYS621  CYS622 
 ASP623  PHE694  ASN695  SER759  ASP760  ASP761  ALA762  ILE779  LEU786  VAL792 
 PHE793  MET794  SER795  GLU796  ALA797  LYS798  CYS799  TRP800  GLU811  SER814 

> <Gold.Protein.RotatedAtoms>
  152.2561  133.5256  159.5353 H   0  0  0  0  0  0  0  0  0  0  0  0  # atno 6907 bound_to 6896
  150.7109  134.0894  159.3935 H   0  0  0  0  0  0  0  0  0  0  0  0  # atno 6908 bound_to 6896
  151.8813  135.0452  160.0540 H   0  0  0  0  0  0  0  0  0  0  0  0  # atno 6909 bound_to 6896
  144.7569  140.4035  143.6006 H   0  0  0  0  0  0  0  0  0  0  0  0  # atno 7974 bound_to 7965
  156.0210  140.3340  155.7039 H   0  0  0  0  0  0  0  0  0  0  0  0  # atno 8008 bound_to 7997
  155.6022  140.0657  157.2747 H   0  0  0  0  0  0  0  0  0  0  0  0  # atno 8009 bound_to 7997
  154.4316  140.1808  156.1173 H   0  0  0  0  0  0  0  0  0  0  0  0  # atno 8010 bound_to 7997
  140.5477  143.9564  150.6558 H   0  0  0  0  0  0  0  0  0  0  0  0  # atno 10167 bound_to 10162
  157.6720  130.9835  150.1683 H   0  0  0  0  0  0  0  0  0  0  0  0  # atno 10718 bound_to 10713
  153.5947  135.7001  153.5409 H   0  0  0  0  0  0  0  0  0  0  0  0  # atno 10763 bound_to 10752
  153.3148  135.4091  155.1367 H   0  0  0  0  0  0  0  0  0  0  0  0  # atno 10764 bound_to 10752
  154.8594  135.3681  154.5480 H   0  0  0  0  0  0  0  0  0  0  0  0  # atno 10765 bound_to 10752
  140.1424  134.8730  157.2348 H   0  0  0  0  0  0  0  0  0  0  0  0  # atno 11005 bound_to 11000
  145.6749  139.1606  143.2733 LP  0  0  0  0  0  0  0  0  0  0  0  0  # atno 17320 bound_to 7965
  146.1589  140.6817  142.9287 LP  0  0  0  0  0  0  0  0  0  0  0  0  # atno 17321 bound_to 7965
  140.2982  143.3278  152.0997 LP  0  0  0  0  0  0  0  0  0  0  0  0  # atno 17342 bound_to 10162
  139.5014  144.6713  151.6235 LP  0  0  0  0  0  0  0  0  0  0  0  0  # atno 17343 bound_to 10162
  156.2443  130.3694  149.8302 LP  0  0  0  0  0  0  0  0  0  0  0  0  # atno 17370 bound_to 10713
  156.6093  130.8580  151.3450 LP  0  0  0  0  0  0  0  0  0  0  0  0  # atno 17371 bound_to 10713
  140.2706  134.3465  155.7375 LP  0  0  0  0  0  0  0  0  0  0  0  0  # atno 17394 bound_to 11000
  141.2188  133.7421  156.9216 LP  0  0  0  0  0  0  0  0  0  0  0  0  # atno 17395 bound_to 11000

$$$$
