AV-unprocessed.smi:2743|AV-procd|sdf|10566|dock7
  -GOLD-   2272015 23D 1   1.00000     0.00000
 Structure written by MMmdl.
 38 39  0  0  0  0  0  0  0  0  1 V2000
  155.1311  138.8019  158.9005 N   0  0  0  0  0  0  0  0  0  0  0  0
  154.2784  138.0193  158.8898 C   0  0  0  0  0  0  0  0  0  0  0  0
  153.1912  137.0262  158.8757 C   0  0  0  0  0  0  0  0  0  0  0  0
  151.7954  137.6498  158.8857 C   0  0  0  0  0  0  0  0  0  0  0  0
  150.8710  137.1096  159.4930 O   0  0  0  0  0  0  0  0  0  0  0  0
  151.6575  138.7903  158.1924 N   0  0  0  0  0  0  0  0  0  0  0  0
  150.4187  139.5532  158.0399 C   0  0  0  0  0  0  0  0  0  0  0  0
  150.5924  140.8409  157.1792 C   0  0  0  0  0  0  0  0  0  0  0  0
  151.3228  141.9055  158.0287 C   0  0  0  0  0  0  0  0  0  0  0  0
  151.8166  141.5705  159.3126 C   0  0  0  0  0  0  0  0  0  0  0  0
  152.4916  142.5471  160.0708 C   0  0  0  0  0  0  0  0  0  0  0  0
  152.7068  143.8048  159.6359 N   0  0  0  0  0  0  0  0  0  0  0  0
  152.2481  144.1290  158.4100 C   0  0  0  0  0  0  0  0  0  0  0  0
  151.5599  143.2274  157.5739 C   0  0  0  0  0  0  0  0  0  0  0  0
  151.3692  140.5251  155.8620 C   0  0  0  0  0  0  0  0  0  0  0  0
  150.6055  139.6258  154.8733 C   0  0  0  0  0  0  0  0  0  0  0  0
  149.2447  140.2315  154.5143 C   0  0  0  0  0  0  0  0  0  0  0  0
  148.4234  140.5080  155.7781 C   0  0  0  0  0  0  0  0  0  0  0  0
  149.1962  141.3967  156.7705 C   0  0  0  0  0  0  0  0  0  0  0  0
  153.3148  136.4038  157.9889 H   0  0  0  0  0  0  0  0  0  0  0  0
  153.3068  136.3845  159.7494 H   0  0  0  0  0  0  0  0  0  0  0  0
  152.4723  139.1571  157.7219 H   0  0  0  0  0  0  0  0  0  0  0  0
  149.6210  138.9157  157.6599 H   0  0  0  0  0  0  0  0  0  0  0  0
  150.1008  139.8276  159.0460 H   0  0  0  0  0  0  0  0  0  0  0  0
  151.6914  140.5790  159.7205 H   0  0  0  0  0  0  0  0  0  0  0  0
  152.8730  142.3075  161.0523 H   0  0  0  0  0  0  0  0  0  0  0  0
  152.4387  145.1398  158.0810 H   0  0  0  0  0  0  0  0  0  0  0  0
  151.2369  143.5734  156.6047 H   0  0  0  0  0  0  0  0  0  0  0  0
  151.5838  141.4589  155.3403 H   0  0  0  0  0  0  0  0  0  0  0  0
  152.3360  140.0702  156.0776 H   0  0  0  0  0  0  0  0  0  0  0  0
  151.1972  139.4948  153.9669 H   0  0  0  0  0  0  0  0  0  0  0  0
  150.4706  138.6276  155.2889 H   0  0  0  0  0  0  0  0  0  0  0  0
  149.3914  141.1609  153.9623 H   0  0  0  0  0  0  0  0  0  0  0  0
  148.6987  139.5598  153.8516 H   0  0  0  0  0  0  0  0  0  0  0  0
  147.4868  140.9945  155.5047 H   0  0  0  0  0  0  0  0  0  0  0  0
  148.1454  139.5666  156.2519 H   0  0  0  0  0  0  0  0  0  0  0  0
  148.5681  141.5560  157.6466 H   0  0  0  0  0  0  0  0  0  0  0  0
  149.3259  142.3798  156.3150 H   0  0  0  0  0  0  0  0  0  0  0  0
  1  2  3  0  0  0  0
  2  3  1  0  0  0  0
  3  4  1  0  0  0  0
  3 20  1  0  0  0  0
  3 21  1  0  0  0  0
  4  5  2  0  0  0  0
  4  6  1  0  0  0  0
  6  7  1  0  0  0  0
  6 22  1  0  0  0  0
  7  8  1  0  0  0  0
  7 23  1  0  0  0  0
  7 24  1  0  0  0  0
  8 19  1  0  0  0  0
  8  9  1  0  0  0  0
  8 15  1  0  0  0  0
  9 14  1  0  0  0  0
  9 10  2  0  0  0  0
 10 11  1  0  0  0  0
 10 25  1  0  0  0  0
 11 12  2  0  0  0  0
 11 26  1  0  0  0  0
 12 13  1  0  0  0  0
 13 14  2  0  0  0  0
 13 27  1  0  0  0  0
 14 28  1  0  0  0  0
 15 16  1  0  0  0  0
 15 29  1  0  0  0  0
 15 30  1  0  0  0  0
 16 17  1  0  0  0  0
 16 31  1  0  0  0  0
 16 32  1  0  0  0  0
 17 18  1  0  0  0  0
 17 33  1  0  0  0  0
 17 34  1  0  0  0  0
 18 19  1  0  0  0  0
 18 35  1  0  0  0  0
 18 36  1  0  0  0  0
 19 37  1  0  0  0  0
 19 38  1  0  0  0  0
M  END
> <s_m_source_file>
AV-unprocessed.smi

> <i_m_source_file_index>
2743

> <i_lp_mmshare_version>
43012

> <i_f3d_flags>
0

> <s_epik_input>
TiNDW0NIMl1DKD1PKVtOSF1bQ0gyXUMxKFtDSDJdW0NIMl1bQ0gyXVtDSDJdW0NIMl0xKWMyW2NIXVtjSF1uW2NIXVtjSF0y

> <s_epik_cmdline>
J2VwaWtfcHl0aG9uJywgJy1waCcsICc3LjAnLCAnLXRuJywgJzgnLCAnLW1hJywgJzIwMCcsICctbWV0YWxfYmluZGluZycsICctaW1hZScsICc8aW5maWxlLm1hZT4nLCAnLW9tYWUnLCAnPG91dGZpbGUubWFlPic=

> <r_epik_Ionization_Penalty>
0.0541122

> <r_epik_Ionization_Penalty_Charging>
0

> <r_epik_Ionization_Penalty_Neutral>
0.0541122

> <r_epik_State_Penalty>
0.0465294

> <r_epik_Charging_Adjusted_Penalty>
0.0465294

> <i_epik_Tot_Q>
0

> <i_epik_Tot_abs_Q>
0

> <r_epik_Metal_State_Penalty>
0.042555

> <b_epik_Metal_Only>
0

> <s_lp_Force_Field>
OPLS_2005

> <r_lp_Energy>
19.5313

> <b_lp_Chiralities_Consistent>
1

> <s_lp_Variant>
AV-unprocessed.smi:2743-1

> <Gold.Version>
5.8.1

> <Gold.Id.Protein>
6NUR|6NUR_protein|mol2

> <Gold.PLP.Fitness>
39.5753

> <Gold.PLP.PLP>
-34.6279

> <Gold.PLP.part.hbond>
-2.0000

> <Gold.PLP.part.metal>
0.0000

> <Gold.PLP.part.buried>
-4.7849

> <Gold.PLP.part.nonpolar>
-27.9300

> <Gold.PLP.part.repulsive>
0.0683

> <Gold.PLP.ligand.clash>
0.0000

> <Gold.PLP.ligand.torsion>
0.5367

> <Gold.PLP.Chemscore.Hbond>
2.0000

> <Gold.PLP.Chemscore.CHOScore>
0.0000

> <Gold.PLP.Chemscore.Metal>
0.0000

> <Gold.Chemscore.Hbonds>
donor molecule, donor type, donor heavy atom, donor atom, acceptor molecule, acceptor atom, score
      P1  H  6896  6909       L1     5  0.93
      P1  H  7997  8010       L1     1  1.00

> <Gold.PLP.Chemscore.Internal.Correction>
0.0207

> <Gold.Rescore>
     Score         DG    S(hbond)    S(metal)    S(lipo)     H(rot)  DE(clash)    DE(int)     intcor
     17.40     -18.04       1.94        0.00      90.98       1.79       0.02       0.61       ----

> <Gold.Chemscore.Fitness>
17.4011

> <Gold.Chemscore.DG>
-18.0361

> <Gold.Chemscore.ZeroCoef>
-5.4800

> <Gold.Chemscore.Hbond>
1.9439

> <Gold.Chemscore.Metal>
0.0000

> <Gold.Chemscore.Lipo>
90.9794

> <Gold.Chemscore.Internal_Hbond>
0.0000

> <Gold.Chemscore.DEClash>
0.0239

> <Gold.Chemscore.DEInternal>
0.6112

> <Gold.Chemscore.Rot>
1.7895

> <Gold.Chemscore.Internal.Correction>
   9.000000E+99

> <Gold.Chemscore.Hbonds>
donor molecule, donor type, donor heavy atom, donor atom, acceptor molecule, acceptor atom, score
      P1  H  6896  6909       L1     5  0.66
      P1  H  7997  8010       L1     1  0.80

> <Gold.Chemscore.Hbond.Weighted>
-6.4927

> <Gold.Chemscore.Metal.Weighted>
-0.0000

> <Gold.Chemscore.Lipo.Weighted>
-10.6446

> <Gold.Chemscore.Internal_Hbond.Weighted>
0.0000

> <Gold.Chemscore.DEClash.Weighted>
0.0239

> <Gold.Chemscore.DEInternal.Weighted>
0.6112

> <Gold.Chemscore.Rot.Weighted>
4.5812

> <Gold.Chemscore.Internal.Correction.Weighted>
   9.000000E+99

> <Gold.Protein.RotatedTorsions>
[ 6907 6896 6895 6894 ] final  107.84 input  -60.11 | X-H torsion
[ 7974 7965 7964 7962 ] final -153.00 input  175.53 | X-H torsion
[ 8008 7997 7996 7995 ] final    4.27 input   59.86 | X-H torsion
[ 10167 10162 10161 10158 ] final -135.60 input  -65.29 | X-H torsion
[ 10718 10713 10712 10709 ] final   82.86 input   66.30 | X-H torsion
[ 10763 10752 10751 10750 ] final  -32.29 input  -60.55 | X-H torsion
[ 11005 11000 10999 10996 ] final  -19.71 input  -57.11 | X-H torsion

> <Gold.Protein.ActiveResidues>
 VAL166  LYS551  ARG553  GLY616  TRP617  ASP618  TYR619  PRO620  LYS621  CYS622 
 ASP623  PHE694  ASN695  SER759  ASP760  ASP761  ALA762  ILE779  LEU786  VAL792 
 PHE793  MET794  SER795  GLU796  ALA797  LYS798  CYS799  TRP800  GLU811  SER814 

> <Gold.Protein.RotatedAtoms>
  152.5137  133.9175  159.7517 H   0  0  0  0  0  0  0  0  0  0  0  0  # atno 6907 bound_to 6896
  150.9554  133.6494  159.2771 H   0  0  0  0  0  0  0  0  0  0  0  0  # atno 6908 bound_to 6896
  151.3758  135.0936  159.9533 H   0  0  0  0  0  0  0  0  0  0  0  0  # atno 6909 bound_to 6896
  144.7764  140.4585  143.5870 H   0  0  0  0  0  0  0  0  0  0  0  0  # atno 7974 bound_to 7965
  154.7138  140.2698  155.6604 H   0  0  0  0  0  0  0  0  0  0  0  0  # atno 8008 bound_to 7997
  156.2803  140.2748  156.1713 H   0  0  0  0  0  0  0  0  0  0  0  0  # atno 8009 bound_to 7997
  155.0598  140.0371  157.2563 H   0  0  0  0  0  0  0  0  0  0  0  0  # atno 8010 bound_to 7997
  139.8762  143.6896  152.2633 H   0  0  0  0  0  0  0  0  0  0  0  0  # atno 10167 bound_to 10162
  157.6866  131.0066  150.2437 H   0  0  0  0  0  0  0  0  0  0  0  0  # atno 10718 bound_to 10713
  153.8114  135.6882  153.4840 H   0  0  0  0  0  0  0  0  0  0  0  0  # atno 10763 bound_to 10752
  153.1626  135.4574  154.9791 H   0  0  0  0  0  0  0  0  0  0  0  0  # atno 10764 bound_to 10752
  154.7966  135.3321  154.7594 H   0  0  0  0  0  0  0  0  0  0  0  0  # atno 10765 bound_to 10752
  140.8393  133.7938  155.9843 H   0  0  0  0  0  0  0  0  0  0  0  0  # atno 11005 bound_to 11000
  145.6175  139.1520  143.3041 LP  0  0  0  0  0  0  0  0  0  0  0  0  # atno 17320 bound_to 7965
  146.1946  140.6287  142.9130 LP  0  0  0  0  0  0  0  0  0  0  0  0  # atno 17321 bound_to 7965
  139.7238  144.7597  151.0912 LP  0  0  0  0  0  0  0  0  0  0  0  0  # atno 17342 bound_to 10162
  140.7752  143.5174  150.9578 LP  0  0  0  0  0  0  0  0  0  0  0  0  # atno 17343 bound_to 10162
  156.3046  130.3763  149.7718 LP  0  0  0  0  0  0  0  0  0  0  0  0  # atno 17370 bound_to 10713
  156.5337  130.8269  151.3246 LP  0  0  0  0  0  0  0  0  0  0  0  0  # atno 17371 bound_to 10713
  140.8913  134.2492  157.5093 LP  0  0  0  0  0  0  0  0  0  0  0  0  # atno 17394 bound_to 11000
  139.8703  134.9663  156.4556 LP  0  0  0  0  0  0  0  0  0  0  0  0  # atno 17395 bound_to 11000

$$$$
