AV-unprocessed.smi:907|AV-procd|sdf|4112|dock7
  -GOLD-   22720 2 13D 1   1.00000     0.00000
 Structure written by MMmdl.
 54 57  0  0  0  0  0  0  0  0  3 V2000
  149.9164  137.6911  154.8123 O   0  0  0  0  0  0  0  0  0  0  0  0
  149.4573  138.8337  154.8127 C   0  0  0  0  0  0  0  0  0  0  0  0
  148.1628  139.0807  154.5532 N   0  0  0  0  0  0  0  0  0  0  0  0
  147.1716  138.0561  154.2541 C   0  0  0  0  0  0  0  0  0  0  0  0
  146.5171  138.3149  152.8901 C   0  0  0  0  0  0  0  0  0  0  0  0
  145.7399  137.1122  152.3900 C   0  0  0  0  0  0  0  0  0  0  0  0
  144.3652  136.9398  152.6625 C   0  0  0  0  0  0  0  0  0  0  0  0
  143.7009  135.8009  152.1608 C   0  0  0  0  0  0  0  0  0  0  0  0
  144.4233  134.8607  151.3970 C   0  0  0  0  0  0  0  0  0  0  0  0
  145.7941  135.0831  151.1543 C   0  0  0  0  0  0  0  0  0  0  0  0
  146.3953  136.1859  151.6532 N   0  3  0  0  0  0  0  0  0  0  0  0
  150.2162  139.9384  155.0235 N   0  0  0  0  0  0  0  0  0  0  0  0
  149.7304  141.3165  155.1611 C   0  0  0  0  0  0  0  0  0  0  0  0
  149.8195  141.7246  156.6418 C   0  0  0  0  0  0  0  0  0  0  0  0
  151.2028  141.5786  157.1869 N   0  3  0  0  0  0  0  0  0  0  0  0
  151.2704  141.9754  158.6277 C   0  0  2  0  0  0  0  0  0  0  0  0
  150.4995  143.2948  158.8991 C   0  0  0  0  0  0  0  0  0  0  0  0
  151.5367  144.1843  159.6036 C   0  0  1  0  0  0  0  0  0  0  0  0
  151.8188  143.6302  161.0099 C   0  0  0  0  0  0  0  0  0  0  0  0
  152.6349  142.3614  160.7087 C   0  0  0  0  0  0  0  0  0  0  0  0
  152.6838  142.3370  159.1676 C   0  0  2  0  0  0  0  0  0  0  0  0
  152.8084  143.8223  158.8484 C   0  0  0  0  0  0  0  0  0  0  0  0
  151.7829  140.2358  156.8879 C   0  0  0  0  0  0  0  0  0  0  0  0
  151.6266  139.8538  155.4038 C   0  0  0  0  0  0  0  0  0  0  0  0
  147.8510  140.0410  154.5465 H   0  0  0  0  0  0  0  0  0  0  0  0
  147.6564  137.0786  154.2582 H   0  0  0  0  0  0  0  0  0  0  0  0
  146.4120  138.0433  155.0376 H   0  0  0  0  0  0  0  0  0  0  0  0
  145.8421  139.1699  152.9541 H   0  0  0  0  0  0  0  0  0  0  0  0
  147.2785  138.5786  152.1546 H   0  0  0  0  0  0  0  0  0  0  0  0
  143.8239  137.6702  153.2464 H   0  0  0  0  0  0  0  0  0  0  0  0
  142.6493  135.6511  152.3581 H   0  0  0  0  0  0  0  0  0  0  0  0
  143.9326  133.9827  151.0024 H   0  0  0  0  0  0  0  0  0  0  0  0
  146.4228  134.4184  150.5798 H   0  0  0  0  0  0  0  0  0  0  0  0
  150.3495  141.9783  154.5535 H   0  0  0  0  0  0  0  0  0  0  0  0
  148.7116  141.4637  154.8029 H   0  0  0  0  0  0  0  0  0  0  0  0
  149.4712  142.7518  156.7424 H   0  0  0  0  0  0  0  0  0  0  0  0
  149.1365  141.1074  157.2280 H   0  0  0  0  0  0  0  0  0  0  0  0
  150.8549  141.1577  159.2196 H   0  0  0  0  0  0  0  0  0  0  0  0
  150.1889  143.7832  157.9745 H   0  0  0  0  0  0  0  0  0  0  0  0
  149.6065  143.1369  159.5051 H   0  0  0  0  0  0  0  0  0  0  0  0
  151.2809  145.2445  159.5944 H   0  0  0  0  0  0  0  0  0  0  0  0
  152.4079  144.3360  161.5970 H   0  0  0  0  0  0  0  0  0  0  0  0
  150.9024  143.4165  161.5616 H   0  0  0  0  0  0  0  0  0  0  0  0
  153.6391  142.4489  161.1255 H   0  0  0  0  0  0  0  0  0  0  0  0
  152.1804  141.4627  161.1279 H   0  0  0  0  0  0  0  0  0  0  0  0
  153.5085  141.7213  158.8161 H   0  0  0  0  0  0  0  0  0  0  0  0
  152.7585  144.0417  157.7804 H   0  0  0  0  0  0  0  0  0  0  0  0
  153.7056  144.2822  159.2673 H   0  0  0  0  0  0  0  0  0  0  0  0
  152.8476  140.2177  157.1107 H   0  0  0  0  0  0  0  0  0  0  0  0
  151.3051  139.4849  157.5191 H   0  0  0  0  0  0  0  0  0  0  0  0
  152.0516  138.8645  155.2272 H   0  0  0  0  0  0  0  0  0  0  0  0
  152.2068  140.5356  154.7801 H   0  0  0  0  0  0  0  0  0  0  0  0
  151.7772  142.2398  156.6836 H   0  0  0  0  0  0  0  0  0  0  0  0
  147.3877  136.3266  151.4629 H   0  0  0  0  0  0  0  0  0  0  0  0
  1  2  2  0  0  0  0
  2  3  1  0  0  0  0
  2 12  1  0  0  0  0
  3  4  1  0  0  0  0
  3 25  1  0  0  0  0
  4  5  1  0  0  0  0
  4 26  1  0  0  0  0
  4 27  1  0  0  0  0
  5  6  1  0  0  0  0
  5 28  1  0  0  0  0
  5 29  1  0  0  0  0
  6 11  1  0  0  0  0
  6  7  2  0  0  0  0
  7  8  1  0  0  0  0
  7 30  1  0  0  0  0
  8  9  2  0  0  0  0
  8 31  1  0  0  0  0
  9 10  1  0  0  0  0
  9 32  1  0  0  0  0
 10 11  2  0  0  0  0
 10 33  1  0  0  0  0
 11 54  1  0  0  0  0
 12 24  1  0  0  0  0
 12 13  1  0  0  0  0
 13 14  1  0  0  0  0
 13 34  1  0  0  0  0
 13 35  1  0  0  0  0
 14 15  1  0  0  0  0
 14 36  1  0  0  0  0
 14 37  1  0  0  0  0
 15 16  1  0  0  0  0
 15 23  1  0  0  0  0
 15 53  1  0  0  0  0
 16 21  1  0  0  0  0
 16 17  1  0  0  0  0
 16 38  1  0  0  0  0
 17 18  1  0  0  0  0
 17 39  1  0  0  0  0
 17 40  1  0  0  0  0
 18 22  1  0  0  0  0
 18 19  1  0  0  0  0
 18 41  1  0  0  0  0
 19 20  1  0  0  0  0
 19 42  1  0  0  0  0
 19 43  1  0  0  0  0
 20 21  1  0  0  0  0
 20 44  1  0  0  0  0
 20 45  1  0  0  0  0
 21 22  1  0  0  0  0
 21 46  1  0  0  0  0
 22 47  1  0  0  0  0
 22 48  1  0  0  0  0
 23 24  1  0  0  0  0
 23 49  1  0  0  0  0
 23 50  1  0  0  0  0
 24 51  1  0  0  0  0
 24 52  1  0  0  0  0
M  CHG  1  11   1
M  CHG  1  15   1
M  END
> <s_m_source_file>
AV-unprocessed.smi

> <i_m_source_file_index>
907

> <i_lp_mmshare_version>
43012

> <i_f3d_flags>
0

> <s_epik_input>
W0NIMl0xW0NIMl1bQ0BASF0oW0NIMl0yKVtDQEBIXShbQ0gyXVtDQEhdMTIpTihbQ0gyXVtDSDJdMylbQ0gyXVtDSDJdTjNDKD1PKVtOSF1bQ0gyXVtDSDJdYzRbY0hdW2NIXVtjSF1bY0hdbjQ=

> <s_epik_cmdline>
J2VwaWtfcHl0aG9uJywgJy1waCcsICc3LjAnLCAnLXRuJywgJzgnLCAnLW1hJywgJzIwMCcsICctbWV0YWxfYmluZGluZycsICctaW1hZScsICc8aW5maWxlLm1hZT4nLCAnLW9tYWUnLCAnPG91dGZpbGUubWFlPic=

> <r_epik_Ionization_Penalty>
1.63018

> <r_epik_Ionization_Penalty_Charging>
1.63015

> <r_epik_Ionization_Penalty_Neutral>
2.64641e-05

> <r_epik_State_Penalty>
1.72761

> <r_epik_Charging_Adjusted_Penalty>
3.35777

> <i_epik_Tot_Q>
2

> <i_epik_Tot_abs_Q>
2

> <r_epik_Metal_State_Penalty>
1.76501

> <b_epik_Metal_Only>
0

> <s_lp_Force_Field>
OPLS_2005

> <r_lp_Energy>
104.955

> <b_lp_Chiralities_Consistent>
1

> <s_lp_Variant>
AV-unprocessed.smi:907-7

> <Gold.Version>
5.8.1

> <Gold.Id.Protein>
6NUR|6NUR_protein|mol2

> <Gold.PLP.Fitness>
54.6922

> <Gold.PLP.PLP>
-49.8842

> <Gold.PLP.part.hbond>
-1.0000

> <Gold.PLP.part.metal>
0.0000

> <Gold.PLP.part.buried>
-3.7302

> <Gold.PLP.part.nonpolar>
-46.1296

> <Gold.PLP.part.repulsive>
0.3563

> <Gold.PLP.ligand.clash>
0.0000

> <Gold.PLP.ligand.torsion>
0.6442

> <Gold.PLP.Chemscore.Hbond>
2.0000

> <Gold.PLP.Chemscore.CHOScore>
0.0000

> <Gold.PLP.Chemscore.Metal>
0.0000

> <Gold.Chemscore.Hbonds>
donor molecule, donor type, donor heavy atom, donor atom, acceptor molecule, acceptor atom, score
      L1  H    11    54       P1  7948  2.00

> <Gold.PLP.Chemscore.Internal.Correction>
0.0962

> <Gold.Rescore>
     Score         DG    S(hbond)    S(metal)    S(lipo)     H(rot)  DE(clash)    DE(int)     intcor
     19.68     -20.29       1.00        0.00     130.02       1.46       0.11       0.49       ----

> <Gold.Chemscore.Fitness>
19.6803

> <Gold.Chemscore.DG>
-20.2854

> <Gold.Chemscore.ZeroCoef>
-5.4800

> <Gold.Chemscore.Hbond>
0.9951

> <Gold.Chemscore.Metal>
0.0000

> <Gold.Chemscore.Lipo>
130.0198

> <Gold.Chemscore.Internal_Hbond>
0.0000

> <Gold.Chemscore.DEClash>
0.1133

> <Gold.Chemscore.DEInternal>
0.4919

> <Gold.Chemscore.Rot>
1.4572

> <Gold.Chemscore.Internal.Correction>
   9.000000E+99

> <Gold.Chemscore.Hbonds>
donor molecule, donor type, donor heavy atom, donor atom, acceptor molecule, acceptor atom, score
      L1  H    11    54       P1  7948  0.95

> <Gold.Chemscore.Hbond.Weighted>
-3.3236

> <Gold.Chemscore.Metal.Weighted>
-0.0000

> <Gold.Chemscore.Lipo.Weighted>
-15.2123

> <Gold.Chemscore.Internal_Hbond.Weighted>
0.0000

> <Gold.Chemscore.DEClash.Weighted>
0.1133

> <Gold.Chemscore.DEInternal.Weighted>
0.4919

> <Gold.Chemscore.Rot.Weighted>
3.7305

> <Gold.Chemscore.Internal.Correction.Weighted>
   9.000000E+99

> <Gold.Protein.RotatedTorsions>
[ 6907 6896 6895 6894 ] final  -53.41 input  -60.11 | X-H torsion
[ 7974 7965 7964 7962 ] final    8.33 input  175.53 | X-H torsion
[ 8008 7997 7996 7995 ] final   18.05 input   59.86 | X-H torsion
[ 10167 10162 10161 10158 ] final  -17.93 input  -65.29 | X-H torsion
[ 10718 10713 10712 10709 ] final   60.73 input   66.30 | X-H torsion
[ 10763 10752 10751 10750 ] final  -51.23 input  -60.55 | X-H torsion
[ 11005 11000 10999 10996 ] final  129.81 input  -57.11 | X-H torsion

> <Gold.Protein.ActiveResidues>
 VAL166  LYS551  ARG553  GLY616  TRP617  ASP618  TYR619  PRO620  LYS621  CYS622 
 ASP623  PHE694  ASN695  SER759  ASP760  ASP761  ALA762  ILE779  LEU786  VAL792 
 PHE793  MET794  SER795  GLU796  ALA797  LYS798  CYS799  TRP800  GLU811  SER814 

> <Gold.Protein.RotatedAtoms>
  150.8429  134.7728  159.6946 H   0  0  0  0  0  0  0  0  0  0  0  0  # atno 6907 bound_to 6896
  152.4513  134.5385  159.9842 H   0  0  0  0  0  0  0  0  0  0  0  0  # atno 6908 bound_to 6896
  151.5521  133.3378  159.2991 H   0  0  0  0  0  0  0  0  0  0  0  0  # atno 6909 bound_to 6896
  146.2417  139.9950  142.8422 H   0  0  0  0  0  0  0  0  0  0  0  0  # atno 7974 bound_to 7965
  154.9003  140.2999  155.5321 H   0  0  0  0  0  0  0  0  0  0  0  0  # atno 8008 bound_to 7997
  156.3018  140.2408  156.3965 H   0  0  0  0  0  0  0  0  0  0  0  0  # atno 8009 bound_to 7997
  154.8528  140.0408  157.1604 H   0  0  0  0  0  0  0  0  0  0  0  0  # atno 8010 bound_to 7997
  140.7253  143.4966  150.9922 H   0  0  0  0  0  0  0  0  0  0  0  0  # atno 10167 bound_to 10162
  157.5775  130.8955  149.9373 H   0  0  0  0  0  0  0  0  0  0  0  0  # atno 10718 bound_to 10713
  154.1232  135.6531  153.4907 H   0  0  0  0  0  0  0  0  0  0  0  0  # atno 10763 bound_to 10752
  153.0218  135.5275  154.7076 H   0  0  0  0  0  0  0  0  0  0  0  0  # atno 10764 bound_to 10752
  154.6289  135.2974  155.0209 H   0  0  0  0  0  0  0  0  0  0  0  0  # atno 10765 bound_to 10752
  139.9636  134.9596  156.9202 H   0  0  0  0  0  0  0  0  0  0  0  0  # atno 11005 bound_to 11000
  145.1468  140.9601  143.4456 LP  0  0  0  0  0  0  0  0  0  0  0  0  # atno 17320 bound_to 7965
  145.0243  139.3396  143.6056 LP  0  0  0  0  0  0  0  0  0  0  0  0  # atno 17321 bound_to 7965
  139.8674  143.7237  152.3169 LP  0  0  0  0  0  0  0  0  0  0  0  0  # atno 17342 bound_to 10162
  139.7473  144.7543  151.0560 LP  0  0  0  0  0  0  0  0  0  0  0  0  # atno 17343 bound_to 10162
  156.0820  130.3672  150.0561 LP  0  0  0  0  0  0  0  0  0  0  0  0  # atno 17370 bound_to 10713
  156.8706  130.9523  151.3609 LP  0  0  0  0  0  0  0  0  0  0  0  0  # atno 17371 bound_to 10713
  140.5445  134.0687  155.7351 LP  0  0  0  0  0  0  0  0  0  0  0  0  # atno 17394 bound_to 11000
  141.1315  133.9294  157.2525 LP  0  0  0  0  0  0  0  0  0  0  0  0  # atno 17395 bound_to 11000

$$$$
