AV-unprocessed.smi:2098|AV-procd|sdf|8568|dock4
  -GOLD-   2272011293D 1   1.00000     0.00000
 Structure written by MMmdl.
 37 39  0  0  0  0  0  0  0  0  2 V2000
  149.0880  142.5588  157.6068 O   0  0  0  0  0  0  0  0  0  0  0  0
  150.2433  142.0009  157.0122 C   0  0  1  0  0  0  0  0  0  0  0  0
  149.9380  141.6922  155.5396 C   0  0  0  0  0  0  0  0  0  0  0  0
  150.8971  140.7599  155.0578 O   0  0  0  0  0  0  0  0  0  0  0  0
  150.5813  139.4190  155.0986 C   0  0  0  0  0  0  0  0  0  0  0  0
  151.6027  138.5102  154.7518 C   0  0  0  0  0  0  0  0  0  0  0  0
  151.3667  137.1218  154.7622 C   0  0  0  0  0  0  0  0  0  0  0  0
  150.1006  136.6267  155.1239 C   0  0  0  0  0  0  0  0  0  0  0  0
  149.8712  135.2923  155.1334 F   0  0  0  0  0  0  0  0  0  0  0  0
  149.0732  137.5214  155.4759 C   0  0  0  0  0  0  0  0  0  0  0  0
  149.3089  138.9101  155.4642 C   0  0  0  0  0  0  0  0  0  0  0  0
  151.4318  142.9696  157.1778 C   0  0  0  0  0  0  0  0  0  0  0  0
  151.4148  143.6770  158.4645 N   0  0  0  0  0  0  0  0  0  0  0  0
  150.8130  144.8460  158.8145 C   0  0  0  0  0  0  0  0  0  0  0  0
  151.0920  145.0746  160.1281 N   0  3  0  0  0  0  0  0  0  0  0  0
  151.8857  144.0374  160.6235 C   0  0  0  0  0  0  0  0  0  0  0  0
  152.4209  143.8231  161.8899 C   0  0  0  0  0  0  0  0  0  0  0  0
  153.1907  142.6536  162.0617 C   0  0  0  0  0  0  0  0  0  0  0  0
  153.4043  141.7513  160.9993 C   0  0  0  0  0  0  0  0  0  0  0  0
  152.8580  141.9791  159.7190 C   0  0  0  0  0  0  0  0  0  0  0  0
  152.0976  143.1367  159.5586 C   0  0  0  0  0  0  0  0  0  0  0  0
  148.8721  143.3583  157.1515 H   0  0  0  0  0  0  0  0  0  0  0  0
  150.4556  141.0652  157.5306 H   0  0  0  0  0  0  0  0  0  0  0  0
  148.9390  141.2609  155.4545 H   0  0  0  0  0  0  0  0  0  0  0  0
  149.9623  142.6114  154.9516 H   0  0  0  0  0  0  0  0  0  0  0  0
  152.5777  138.8818  154.4721 H   0  0  0  0  0  0  0  0  0  0  0  0
  152.1573  136.4373  154.4921 H   0  0  0  0  0  0  0  0  0  0  0  0
  148.1012  137.1429  155.7555 H   0  0  0  0  0  0  0  0  0  0  0  0
  148.4961  139.5639  155.7414 H   0  0  0  0  0  0  0  0  0  0  0  0
  152.3831  142.4432  157.0912 H   0  0  0  0  0  0  0  0  0  0  0  0
  151.4225  143.7228  156.3885 H   0  0  0  0  0  0  0  0  0  0  0  0
  150.2190  145.4763  158.1686 H   0  0  0  0  0  0  0  0  0  0  0  0
  152.2590  144.5123  162.7057 H   0  0  0  0  0  0  0  0  0  0  0  0
  153.6260  142.4443  163.0282 H   0  0  0  0  0  0  0  0  0  0  0  0
  153.9994  140.8657  161.1694 H   0  0  0  0  0  0  0  0  0  0  0  0
  153.0254  141.2820  158.9111 H   0  0  0  0  0  0  0  0  0  0  0  0
  150.7627  145.8794  160.6457 H   0  0  0  0  0  0  0  0  0  0  0  0
  1  2  1  0  0  0  0
  1 22  1  0  0  0  0
  2  3  1  0  0  0  0
  2 12  1  0  0  0  0
  2 23  1  0  0  0  0
  3  4  1  0  0  0  0
  3 24  1  0  0  0  0
  3 25  1  0  0  0  0
  4  5  1  0  0  0  0
  5 11  1  0  0  0  0
  5  6  2  0  0  0  0
  6  7  1  0  0  0  0
  6 26  1  0  0  0  0
  7  8  2  0  0  0  0
  7 27  1  0  0  0  0
  8  9  1  0  0  0  0
  8 10  1  0  0  0  0
 10 11  2  0  0  0  0
 10 28  1  0  0  0  0
 11 29  1  0  0  0  0
 12 13  1  0  0  0  0
 12 30  1  0  0  0  0
 12 31  1  0  0  0  0
 13 21  1  0  0  0  0
 13 14  1  0  0  0  0
 14 15  2  0  0  0  0
 14 32  1  0  0  0  0
 15 16  1  0  0  0  0
 15 37  1  0  0  0  0
 16 21  2  0  0  0  0
 16 17  1  0  0  0  0
 17 18  2  0  0  0  0
 17 33  1  0  0  0  0
 18 19  1  0  0  0  0
 18 34  1  0  0  0  0
 19 20  2  0  0  0  0
 19 35  1  0  0  0  0
 20 21  1  0  0  0  0
 20 36  1  0  0  0  0
M  CHG  1  15   1
M  END
> <s_m_source_file>
AV-unprocessed.smi

> <i_m_source_file_index>
2098

> <i_lp_mmshare_version>
43012

> <i_f3d_flags>
0

> <s_epik_input>
W2NIXTFbY0hdW2NIXVtjSF1jKGMxMiluKFtjSF1uMilbQ0gyXVtDQEhdKFtPSF0pW0NIMl1PYzNbY0hdW2NIXWMoRilbY0hdW2NIXTM=

> <s_epik_cmdline>
J2VwaWtfcHl0aG9uJywgJy1waCcsICc3LjAnLCAnLXRuJywgJzgnLCAnLW1hJywgJzIwMCcsICctbWV0YWxfYmluZGluZycsICctaW1hZScsICc8aW5maWxlLm1hZT4nLCAnLW9tYWUnLCAnPG91dGZpbGUubWFlPic=

> <r_lp_tautomer_probability>
1

> <r_epik_Ionization_Penalty>
1.3832

> <r_epik_Ionization_Penalty_Charging>
1.38319

> <r_epik_Ionization_Penalty_Neutral>
2.3993e-06

> <r_epik_State_Penalty>
1.46389

> <r_epik_Charging_Adjusted_Penalty>
2.84709

> <i_epik_Tot_Q>
1

> <i_epik_Tot_abs_Q>
1

> <r_epik_Metal_State_Penalty>
5.50438

> <b_epik_Metal_Only>
0

> <s_lp_Force_Field>
OPLS_2005

> <r_lp_Energy>
18.1934

> <b_lp_Chiralities_Consistent>
1

> <s_lp_Variant>
AV-unprocessed.smi:2098-4

> <Gold.Version>
5.8.1

> <Gold.Id.Protein>
6NUR|6NUR_protein|mol2

> <Gold.PLP.Fitness>
55.5667

> <Gold.PLP.PLP>
-49.0469

> <Gold.PLP.part.hbond>
-2.0000

> <Gold.PLP.part.metal>
0.0000

> <Gold.PLP.part.buried>
-4.5754

> <Gold.PLP.part.nonpolar>
-42.3297

> <Gold.PLP.part.repulsive>
0.2425

> <Gold.PLP.ligand.clash>
0.0000

> <Gold.PLP.ligand.torsion>
1.0366

> <Gold.PLP.Chemscore.Hbond>
1.8480

> <Gold.PLP.Chemscore.CHOScore>
1.0024

> <Gold.PLP.Chemscore.Metal>
0.0000

> <Gold.Chemscore.Hbonds>
donor molecule, donor type, donor heavy atom, donor atom, acceptor molecule, acceptor atom, score
      L1  H     1    22       P1  8028  1.00
      P1  H  7989  7998       L1     4  0.86
      L1  C    14    32       P1  8028  0.01
      L1  C    14    32       P1  8029  0.97

> <Gold.PLP.Chemscore.Internal.Correction>
0.0418

> <Gold.Rescore>
     Score         DG    S(hbond)    S(metal)    S(lipo)     H(rot)  DE(clash)    DE(int)     intcor
     16.88     -18.63       1.52        0.00     122.93       2.46       0.67       1.08       ----

> <Gold.Chemscore.Fitness>
16.8811

> <Gold.Chemscore.DG>
-18.6305

> <Gold.Chemscore.ZeroCoef>
-5.4800

> <Gold.Chemscore.Hbond>
1.5154

> <Gold.Chemscore.Metal>
0.0000

> <Gold.Chemscore.Lipo>
122.9294

> <Gold.Chemscore.Internal_Hbond>
0.0000

> <Gold.Chemscore.DEClash>
0.6707

> <Gold.Chemscore.DEInternal>
1.0786

> <Gold.Chemscore.Rot>
2.4584

> <Gold.Chemscore.Internal.Correction>
   9.000000E+99

> <Gold.Chemscore.Hbonds>
donor molecule, donor type, donor heavy atom, donor atom, acceptor molecule, acceptor atom, score
      L1  H     1    22       P1  8028  0.47
      P1  H  7989  7998       L1     4  0.29

> <Gold.Chemscore.Hbond.Weighted>
-5.0613

> <Gold.Chemscore.Metal.Weighted>
-0.0000

> <Gold.Chemscore.Lipo.Weighted>
-14.3827

> <Gold.Chemscore.Internal_Hbond.Weighted>
0.0000

> <Gold.Chemscore.DEClash.Weighted>
0.6707

> <Gold.Chemscore.DEInternal.Weighted>
1.0786

> <Gold.Chemscore.Rot.Weighted>
6.2936

> <Gold.Chemscore.Internal.Correction.Weighted>
   9.000000E+99

> <Gold.Protein.RotatedTorsions>
[ 6907 6896 6895 6894 ] final -127.02 input  -60.11 | X-H torsion
[ 7974 7965 7964 7962 ] final -177.03 input  175.53 | X-H torsion
[ 8008 7997 7996 7995 ] final  140.50 input   59.86 | X-H torsion
[ 10167 10162 10161 10158 ] final  125.08 input  -65.29 | X-H torsion
[ 10718 10713 10712 10709 ] final  -15.47 input   66.30 | X-H torsion
[ 10763 10752 10751 10750 ] final   64.14 input  -60.55 | X-H torsion
[ 11005 11000 10999 10996 ] final  -82.10 input  -57.11 | X-H torsion

> <Gold.Protein.ActiveResidues>
 VAL166  LYS551  ARG553  GLY616  TRP617  ASP618  TYR619  PRO620  LYS621  CYS622 
 ASP623  PHE694  ASN695  SER759  ASP760  ASP761  ALA762  ILE779  LEU786  VAL792 
 PHE793  MET794  SER795  GLU796  ALA797  LYS798  CYS799  TRP800  GLU811  SER814 

> <Gold.Protein.RotatedAtoms>
  150.9029  133.7095  159.2874 H   0  0  0  0  0  0  0  0  0  0  0  0  # atno 6907 bound_to 6896
  151.4608  135.1037  159.9734 H   0  0  0  0  0  0  0  0  0  0  0  0  # atno 6908 bound_to 6896
  152.4887  133.8392  159.7199 H   0  0  0  0  0  0  0  0  0  0  0  0  # atno 6909 bound_to 6896
  144.7127  140.1080  143.6413 H   0  0  0  0  0  0  0  0  0  0  0  0  # atno 7974 bound_to 7965
  156.2978  140.2340  156.4411 H   0  0  0  0  0  0  0  0  0  0  0  0  # atno 8008 bound_to 7997
  154.8185  140.0439  157.1414 H   0  0  0  0  0  0  0  0  0  0  0  0  # atno 8009 bound_to 7997
  154.9342  140.3021  155.5156 H   0  0  0  0  0  0  0  0  0  0  0  0  # atno 8010 bound_to 7997
  139.5705  144.6936  151.3790 H   0  0  0  0  0  0  0  0  0  0  0  0  # atno 10167 bound_to 10162
  156.6012  130.4824  149.6239 H   0  0  0  0  0  0  0  0  0  0  0  0  # atno 10718 bound_to 10713
  153.0044  135.5404  154.6463 H   0  0  0  0  0  0  0  0  0  0  0  0  # atno 10763 bound_to 10752
  154.5706  135.2841  155.0833 H   0  0  0  0  0  0  0  0  0  0  0  0  # atno 10764 bound_to 10752
  154.2000  135.6485  153.5137 H   0  0  0  0  0  0  0  0  0  0  0  0  # atno 10765 bound_to 10752
  141.1664  133.7228  156.8522 H   0  0  0  0  0  0  0  0  0  0  0  0  # atno 11005 bound_to 11000
  145.9479  139.2713  143.1229 LP  0  0  0  0  0  0  0  0  0  0  0  0  # atno 17320 bound_to 7965
  145.9354  140.9018  143.0335 LP  0  0  0  0  0  0  0  0  0  0  0  0  # atno 17321 bound_to 7965
  140.6990  143.7679  150.7372 LP  0  0  0  0  0  0  0  0  0  0  0  0  # atno 17342 bound_to 10162
  140.1184  143.4635  152.2328 LP  0  0  0  0  0  0  0  0  0  0  0  0  # atno 17343 bound_to 10162
  156.2467  130.6883  151.1607 LP  0  0  0  0  0  0  0  0  0  0  0  0  # atno 17370 bound_to 10713
  157.7279  131.0636  150.5845 LP  0  0  0  0  0  0  0  0  0  0  0  0  # atno 17371 bound_to 10713
  140.1908  134.8967  157.3058 LP  0  0  0  0  0  0  0  0  0  0  0  0  # atno 17394 bound_to 11000
  140.2292  134.3929  155.7529 LP  0  0  0  0  0  0  0  0  0  0  0  0  # atno 17395 bound_to 11000

$$$$
