AV-unprocessed.smi:3309|AV-procd|sdf|12716|dock7
  -GOLD-   2272019 53D 1   1.00000     0.00000
 Structure written by MMmdl.
 41 42  0  0  0  0  0  0  0  0  2 V2000
  147.4946  138.3617  154.6769 O   0  0  0  0  0  0  0  0  0  0  0  0
  147.9747  138.9137  153.6868 C   0  0  0  0  0  0  0  0  0  0  0  0
  147.0922  139.2655  152.4850 C   0  0  0  0  0  0  0  0  0  0  0  0
  146.0407  138.1870  152.1707 C   0  0  0  0  0  0  0  0  0  0  0  0
  146.4802  137.3295  151.0528 N   0  3  0  0  0  0  0  0  0  0  0  0
  145.5572  136.2187  150.7497 C   0  0  0  0  0  0  0  0  0  0  0  0
  145.5335  135.1944  151.8937 C   0  0  0  0  0  0  0  0  0  0  0  0
  145.4964  133.8322  151.3976 N   0  0  0  0  0  0  0  0  0  0  0  0
  144.4869  133.1964  150.7057 C   0  0  0  0  0  0  0  0  0  0  0  0
  144.9113  131.9247  150.4463 C   0  0  0  0  0  0  0  0  0  0  0  0
  146.2113  131.8774  151.0231 C   0  0  0  0  0  0  0  0  0  0  0  0
  146.5591  133.0215  151.5904 N   0  0  0  0  0  0  0  0  0  0  0  0
  149.2731  139.2348  153.5810 N   0  0  0  0  0  0  0  0  0  0  0  0
  150.2876  138.9850  154.6023 C   0  0  0  0  0  0  0  0  0  0  0  0
  150.9787  140.2975  155.0199 C   0  0  0  0  0  0  0  0  0  0  0  0
  152.4821  140.0177  154.9798 C   0  0  0  0  0  0  0  0  0  0  0  0
  152.6384  138.9483  153.9037 C   0  0  0  0  0  0  0  0  0  0  0  0
  151.4049  138.0616  154.0761 C   0  0  0  0  0  0  0  0  0  0  0  0
  146.5930  140.2166  152.6784 H   0  0  0  0  0  0  0  0  0  0  0  0
  147.7386  139.4195  151.6200 H   0  0  0  0  0  0  0  0  0  0  0  0
  145.8664  137.5599  153.0466 H   0  0  0  0  0  0  0  0  0  0  0  0
  145.0887  138.6532  151.9111 H   0  0  0  0  0  0  0  0  0  0  0  0
  146.5769  137.9017  150.2261 H   0  0  0  0  0  0  0  0  0  0  0  0
  144.5570  136.6220  150.5854 H   0  0  0  0  0  0  0  0  0  0  0  0
  145.8678  135.7360  149.8220 H   0  0  0  0  0  0  0  0  0  0  0  0
  146.4146  135.3100  152.5262 H   0  0  0  0  0  0  0  0  0  0  0  0
  144.6621  135.3527  152.5311 H   0  0  0  0  0  0  0  0  0  0  0  0
  143.5609  133.6944  150.4577 H   0  0  0  0  0  0  0  0  0  0  0  0
  144.3757  131.1466  149.9226 H   0  0  0  0  0  0  0  0  0  0  0  0
  146.9078  131.0520  151.0454 H   0  0  0  0  0  0  0  0  0  0  0  0
  149.5862  139.6821  152.7316 H   0  0  0  0  0  0  0  0  0  0  0  0
  149.8215  138.5281  155.4774 H   0  0  0  0  0  0  0  0  0  0  0  0
  150.7494  141.0964  154.3127 H   0  0  0  0  0  0  0  0  0  0  0  0
  150.6549  140.6383  156.0039 H   0  0  0  0  0  0  0  0  0  0  0  0
  153.0704  140.9119  154.7725 H   0  0  0  0  0  0  0  0  0  0  0  0
  152.8082  139.6199  155.9419 H   0  0  0  0  0  0  0  0  0  0  0  0
  152.6224  139.4140  152.9174 H   0  0  0  0  0  0  0  0  0  0  0  0
  153.5717  138.3918  153.9953 H   0  0  0  0  0  0  0  0  0  0  0  0
  151.6164  137.2953  154.8231 H   0  0  0  0  0  0  0  0  0  0  0  0
  151.1443  137.5424  153.1526 H   0  0  0  0  0  0  0  0  0  0  0  0
  147.3829  136.9401  151.2850 H   0  0  0  0  0  0  0  0  0  0  0  0
  1  2  2  0  0  0  0
  2  3  1  0  0  0  0
  2 13  1  0  0  0  0
  3  4  1  0  0  0  0
  3 19  1  0  0  0  0
  3 20  1  0  0  0  0
  4  5  1  0  0  0  0
  4 21  1  0  0  0  0
  4 22  1  0  0  0  0
  5  6  1  0  0  0  0
  5 23  1  0  0  0  0
  5 41  1  0  0  0  0
  6  7  1  0  0  0  0
  6 24  1  0  0  0  0
  6 25  1  0  0  0  0
  7  8  1  0  0  0  0
  7 26  1  0  0  0  0
  7 27  1  0  0  0  0
  8 12  1  0  0  0  0
  8  9  1  0  0  0  0
  9 10  2  0  0  0  0
  9 28  1  0  0  0  0
 10 11  1  0  0  0  0
 10 29  1  0  0  0  0
 11 12  2  0  0  0  0
 11 30  1  0  0  0  0
 13 14  1  0  0  0  0
 13 31  1  0  0  0  0
 14 18  1  0  0  0  0
 14 15  1  0  0  0  0
 14 32  1  0  0  0  0
 15 16  1  0  0  0  0
 15 33  1  0  0  0  0
 15 34  1  0  0  0  0
 16 17  1  0  0  0  0
 16 35  1  0  0  0  0
 16 36  1  0  0  0  0
 17 18  1  0  0  0  0
 17 37  1  0  0  0  0
 17 38  1  0  0  0  0
 18 39  1  0  0  0  0
 18 40  1  0  0  0  0
M  CHG  1   5   1
M  END
> <s_m_source_file>
AV-unprocessed.smi

> <i_m_source_file_index>
3309

> <i_lp_mmshare_version>
43012

> <i_f3d_flags>
0

> <s_epik_input>
W0NIMl0xW0NIMl1bQ0gyXVtDSDJdW0NIXTFbTkhdQyg9TylbQ0gyXVtDSDJdW05IXVtDSDJdW0NIMl1uMltjSF1bY0hdW2NIXW4y

> <s_epik_cmdline>
J2VwaWtfcHl0aG9uJywgJy1waCcsICc3LjAnLCAnLXRuJywgJzgnLCAnLW1hJywgJzIwMCcsICctbWV0YWxfYmluZGluZycsICctaW1hZScsICc8aW5maWxlLm1hZT4nLCAnLW9tYWUnLCAnPG91dGZpbGUubWFlPic=

> <r_lp_tautomer_probability>
1

> <r_epik_Ionization_Penalty>
0.00584123

> <r_epik_Ionization_Penalty_Charging>
0.00583842

> <r_epik_Ionization_Penalty_Neutral>
2.81118e-06

> <r_epik_State_Penalty>
-0

> <r_epik_Charging_Adjusted_Penalty>
0.00583842

> <i_epik_Tot_Q>
1

> <i_epik_Tot_abs_Q>
1

> <r_epik_Metal_State_Penalty>
-0

> <b_epik_Metal_Only>
0

> <s_lp_Force_Field>
OPLS_2005

> <r_lp_Energy>
18.8454

> <b_lp_Chiralities_Consistent>
1

> <s_lp_Variant>
AV-unprocessed.smi:3309-1

> <Gold.Version>
5.8.1

> <Gold.Id.Protein>
6NUR|6NUR_protein|mol2

> <Gold.PLP.Fitness>
50.9968

> <Gold.PLP.PLP>
-37.7761

> <Gold.PLP.part.hbond>
-2.8097

> <Gold.PLP.part.metal>
0.0000

> <Gold.PLP.part.buried>
-0.8427

> <Gold.PLP.part.nonpolar>
-35.1830

> <Gold.PLP.part.repulsive>
1.3510

> <Gold.PLP.ligand.clash>
0.0000

> <Gold.PLP.ligand.torsion>
0.9350

> <Gold.PLP.Chemscore.Hbond>
3.0000

> <Gold.PLP.Chemscore.CHOScore>
2.0000

> <Gold.PLP.Chemscore.Metal>
0.0000

> <Gold.Chemscore.Hbonds>
donor molecule, donor type, donor heavy atom, donor atom, acceptor molecule, acceptor atom, score
      L1  H     5    41       P1  7948  2.00
      L1  H    13    31       P1  7957  1.00
      L1  C     9    28       P1 10186  0.31
      L1  C    11    30       P1 10747  1.00

> <Gold.PLP.Chemscore.Internal.Correction>
0.0907

> <Gold.Rescore>
     Score         DG    S(hbond)    S(metal)    S(lipo)     H(rot)  DE(clash)    DE(int)     intcor
     15.34     -16.93       1.99        0.00      90.49       2.27       0.71       0.87       ----

> <Gold.Chemscore.Fitness>
15.3422

> <Gold.Chemscore.DG>
-16.9255

> <Gold.Chemscore.ZeroCoef>
-5.4800

> <Gold.Chemscore.Hbond>
1.9938

> <Gold.Chemscore.Metal>
0.0000

> <Gold.Chemscore.Lipo>
90.4859

> <Gold.Chemscore.Internal_Hbond>
0.0000

> <Gold.Chemscore.DEClash>
0.7117

> <Gold.Chemscore.DEInternal>
0.8716

> <Gold.Chemscore.Rot>
2.2658

> <Gold.Chemscore.Internal.Correction>
   9.000000E+99

> <Gold.Chemscore.Hbonds>
donor molecule, donor type, donor heavy atom, donor atom, acceptor molecule, acceptor atom, score
      L1  H     5    41       P1  7948  1.00
      L1  H    13    31       P1  7957  0.98

> <Gold.Chemscore.Hbond.Weighted>
-6.6592

> <Gold.Chemscore.Metal.Weighted>
-0.0000

> <Gold.Chemscore.Lipo.Weighted>
-10.5869

> <Gold.Chemscore.Internal_Hbond.Weighted>
0.0000

> <Gold.Chemscore.DEClash.Weighted>
0.7117

> <Gold.Chemscore.DEInternal.Weighted>
0.8716

> <Gold.Chemscore.Rot.Weighted>
5.8005

> <Gold.Chemscore.Internal.Correction.Weighted>
   9.000000E+99

> <Gold.Protein.RotatedTorsions>
[ 6907 6896 6895 6894 ] final   98.89 input  -60.11 | X-H torsion
[ 7974 7965 7964 7962 ] final -176.01 input  175.53 | X-H torsion
[ 8008 7997 7996 7995 ] final   75.39 input   59.86 | X-H torsion
[ 10167 10162 10161 10158 ] final   -4.97 input  -65.29 | X-H torsion
[ 10718 10713 10712 10709 ] final   -1.23 input   66.30 | X-H torsion
[ 10763 10752 10751 10750 ] final  -77.26 input  -60.55 | X-H torsion
[ 11005 11000 10999 10996 ] final -160.62 input  -57.11 | X-H torsion

> <Gold.Protein.ActiveResidues>
 VAL166  LYS551  ARG553  GLY616  TRP617  ASP618  TYR619  PRO620  LYS621  CYS622 
 ASP623  PHE694  ASN695  SER759  ASP760  ASP761  ALA762  ILE779  LEU786  VAL792 
 PHE793  MET794  SER795  GLU796  ALA797  LYS798  CYS799  TRP800  GLU811  SER814 

> <Gold.Protein.RotatedAtoms>
  152.5402  134.0512  159.8110 H   0  0  0  0  0  0  0  0  0  0  0  0  # atno 6907 bound_to 6896
  151.0654  133.5502  159.2638 H   0  0  0  0  0  0  0  0  0  0  0  0  # atno 6908 bound_to 6896
  151.2385  135.0588  159.9070 H   0  0  0  0  0  0  0  0  0  0  0  0  # atno 6909 bound_to 6896
  144.7127  140.1235  143.6403 H   0  0  0  0  0  0  0  0  0  0  0  0  # atno 7974 bound_to 7965
  155.8122  140.3473  155.5464 H   0  0  0  0  0  0  0  0  0  0  0  0  # atno 8008 bound_to 7997
  155.8429  140.0944  157.1743 H   0  0  0  0  0  0  0  0  0  0  0  0  # atno 8009 bound_to 7997
  154.4005  140.1391  156.3738 H   0  0  0  0  0  0  0  0  0  0  0  0  # atno 8010 bound_to 7997
  140.6947  143.6362  150.8478 H   0  0  0  0  0  0  0  0  0  0  0  0  # atno 10167 bound_to 10162
  156.8087  130.5417  149.5712 H   0  0  0  0  0  0  0  0  0  0  0  0  # atno 10718 bound_to 10713
  154.5106  135.5770  153.6602 H   0  0  0  0  0  0  0  0  0  0  0  0  # atno 10763 bound_to 10752
  152.9896  135.6157  154.2884 H   0  0  0  0  0  0  0  0  0  0  0  0  # atno 10764 bound_to 10752
  154.2798  135.2851  155.2681 H   0  0  0  0  0  0  0  0  0  0  0  0  # atno 10765 bound_to 10752
  140.6295  134.4666  157.5228 H   0  0  0  0  0  0  0  0  0  0  0  0  # atno 11005 bound_to 11000
  145.9350  139.2631  143.1302 LP  0  0  0  0  0  0  0  0  0  0  0  0  # atno 17320 bound_to 7965
  145.9483  140.8928  143.0272 LP  0  0  0  0  0  0  0  0  0  0  0  0  # atno 17321 bound_to 7965
  140.0078  143.5675  152.2851 LP  0  0  0  0  0  0  0  0  0  0  0  0  # atno 17342 bound_to 10162
  139.6387  144.7652  151.2383 LP  0  0  0  0  0  0  0  0  0  0  0  0  # atno 17343 bound_to 10162
  156.1058  130.6003  150.9967 LP  0  0  0  0  0  0  0  0  0  0  0  0  # atno 17370 bound_to 10713
  157.6517  131.0896  150.8036 LP  0  0  0  0  0  0  0  0  0  0  0  0  # atno 17371 bound_to 10713
  139.9121  134.8322  156.1490 LP  0  0  0  0  0  0  0  0  0  0  0  0  # atno 17394 bound_to 11000
  141.0685  133.6808  156.2093 LP  0  0  0  0  0  0  0  0  0  0  0  0  # atno 17395 bound_to 11000

$$$$
