AV-unprocessed.smi:2137|AV-procd|sdf|8706|dock1
  -GOLD-   2272011463D 1   1.00000     0.00000
 Structure written by MMmdl.
 50 51  0  0  0  0  0  0  0  0  2 V2000
  145.3898  129.1381  151.4313 C   0  0  0  0  0  0  0  0  0  0  0  0
  146.7692  129.7026  151.7983 C   0  0  2  0  0  0  0  0  0  0  0  0
  147.5260  128.7613  152.7503 C   0  0  0  0  0  0  0  0  0  0  0  0
  148.8871  129.3627  153.1215 C   0  0  0  0  0  0  0  0  0  0  0  0
  148.7247  130.7764  153.7024 C   0  0  0  0  0  0  0  0  0  0  0  0
  147.9950  131.6628  152.7592 N   0  3  2  0  0  0  0  0  0  0  0  0
  147.9433  133.0679  153.2361 C   0  0  0  0  0  0  0  0  0  0  0  0
  149.3202  133.5844  153.6961 C   0  0  0  0  0  0  0  0  0  0  0  0
  149.2311  134.7009  154.7517 C   0  0  0  0  0  0  0  0  0  0  0  0
  149.8727  135.9343  154.3106 N   0  0  0  0  0  0  0  0  0  0  0  0
  150.8692  136.5622  154.9536 C   0  0  0  0  0  0  0  0  0  0  0  0
  151.3675  136.1475  155.9995 O   0  0  0  0  0  0  0  0  0  0  0  0
  151.3876  137.8565  154.3194 C   0  0  0  0  0  0  0  0  0  0  0  0
  150.9320  139.0433  155.0538 N   0  0  0  0  0  0  0  0  0  0  0  0
  149.9061  139.8116  154.5331 C   0  0  0  0  0  0  0  0  0  0  0  0
  149.4267  140.9220  155.1345 C   0  0  0  0  0  0  0  0  0  0  0  0
  149.9834  141.3855  156.3991 C   0  0  0  0  0  0  0  0  0  0  0  0
  149.5753  142.3841  156.9939 O   0  0  0  0  0  0  0  0  0  0  0  0
  151.0371  140.5906  156.9053 N   0  0  0  0  0  0  0  0  0  0  0  0
  151.6184  141.0106  158.1637 C   0  0  0  0  0  0  0  0  0  0  0  0
  151.5273  139.4214  156.2778 C   0  0  0  0  0  0  0  0  0  0  0  0
  152.4369  138.7442  156.7629 O   0  0  0  0  0  0  0  0  0  0  0  0
  146.6563  131.1106  152.4171 C   0  0  0  0  0  0  0  0  0  0  0  0
  144.7590  129.0264  152.3138 H   0  0  0  0  0  0  0  0  0  0  0  0
  145.4794  128.1589  150.9603 H   0  0  0  0  0  0  0  0  0  0  0  0
  144.8700  129.7932  150.7316 H   0  0  0  0  0  0  0  0  0  0  0  0
  147.3458  129.7855  150.8756 H   0  0  0  0  0  0  0  0  0  0  0  0
  146.9393  128.5947  153.6549 H   0  0  0  0  0  0  0  0  0  0  0  0
  147.6664  127.7845  152.2856 H   0  0  0  0  0  0  0  0  0  0  0  0
  149.3940  128.7194  153.8417 H   0  0  0  0  0  0  0  0  0  0  0  0
  149.5252  129.4000  152.2375 H   0  0  0  0  0  0  0  0  0  0  0  0
  148.1906  130.7353  154.6532 H   0  0  0  0  0  0  0  0  0  0  0  0
  149.7123  131.1902  153.9102 H   0  0  0  0  0  0  0  0  0  0  0  0
  147.5219  133.7048  152.4570 H   0  0  0  0  0  0  0  0  0  0  0  0
  147.2631  133.1323  154.0866 H   0  0  0  0  0  0  0  0  0  0  0  0
  149.8905  132.7549  154.1158 H   0  0  0  0  0  0  0  0  0  0  0  0
  149.8979  133.9471  152.8464 H   0  0  0  0  0  0  0  0  0  0  0  0
  148.1864  134.9219  154.9719 H   0  0  0  0  0  0  0  0  0  0  0  0
  149.6765  134.3668  155.6905 H   0  0  0  0  0  0  0  0  0  0  0  0
  149.5188  136.3574  153.4642 H   0  0  0  0  0  0  0  0  0  0  0  0
  152.4785  137.8316  154.3065 H   0  0  0  0  0  0  0  0  0  0  0  0
  151.0883  137.8970  153.2706 H   0  0  0  0  0  0  0  0  0  0  0  0
  149.4632  139.5097  153.5950 H   0  0  0  0  0  0  0  0  0  0  0  0
  148.6212  141.4750  154.6735 H   0  0  0  0  0  0  0  0  0  0  0  0
  152.5392  140.4666  158.3731 H   0  0  0  0  0  0  0  0  0  0  0  0
  150.8733  140.8193  158.9375 H   0  0  0  0  0  0  0  0  0  0  0  0
  151.8506  142.0743  158.0867 H   0  0  0  0  0  0  0  0  0  0  0  0
  146.1507  131.7669  151.7096 H   0  0  0  0  0  0  0  0  0  0  0  0
  146.0358  131.0802  153.3146 H   0  0  0  0  0  0  0  0  0  0  0  0
  148.5370  131.6706  151.9069 H   0  0  0  0  0  0  0  0  0  0  0  0
  1  2  1  0  0  0  0
  1 24  1  0  0  0  0
  1 25  1  0  0  0  0
  1 26  1  0  0  0  0
  2 23  1  0  0  0  0
  2  3  1  0  0  0  0
  2 27  1  0  0  0  0
  3  4  1  0  0  0  0
  3 28  1  0  0  0  0
  3 29  1  0  0  0  0
  4  5  1  0  0  0  0
  4 30  1  0  0  0  0
  4 31  1  0  0  0  0
  5  6  1  0  0  0  0
  5 32  1  0  0  0  0
  5 33  1  0  0  0  0
  6  7  1  0  0  0  0
  6 23  1  0  0  0  0
  6 50  1  0  0  0  0
  7  8  1  0  0  0  0
  7 34  1  0  0  0  0
  7 35  1  0  0  0  0
  8  9  1  0  0  0  0
  8 36  1  0  0  0  0
  8 37  1  0  0  0  0
  9 10  1  0  0  0  0
  9 38  1  0  0  0  0
  9 39  1  0  0  0  0
 10 11  1  0  0  0  0
 10 40  1  0  0  0  0
 11 12  2  0  0  0  0
 11 13  1  0  0  0  0
 13 14  1  0  0  0  0
 13 41  1  0  0  0  0
 13 42  1  0  0  0  0
 14 21  1  0  0  0  0
 14 15  1  0  0  0  0
 15 16  2  0  0  0  0
 15 43  1  0  0  0  0
 16 17  1  0  0  0  0
 16 44  1  0  0  0  0
 17 18  2  0  0  0  0
 17 19  1  0  0  0  0
 19 20  1  0  0  0  0
 19 21  1  0  0  0  0
 20 45  1  0  0  0  0
 20 46  1  0  0  0  0
 20 47  1  0  0  0  0
 21 22  2  0  0  0  0
 23 48  1  0  0  0  0
 23 49  1  0  0  0  0
M  CHG  1   6   1
M  END
> <s_m_source_file>
AV-unprocessed.smi

> <i_m_source_file_index>
2137

> <i_lp_mmshare_version>
43012

> <i_f3d_flags>
0

> <s_epik_input>
W0NIM11bQ0BASF0xW0NIMl1bQ0gyXVtDSDJdTihbQ0gyXTEpW0NIMl1bQ0gyXVtDSDJdW05IXUMoPU8pW0NIMl1uMltjSF1bY0hdYyg9TyluKFtDSDNdKWMyPU8=

> <s_epik_cmdline>
J2VwaWtfcHl0aG9uJywgJy1waCcsICc3LjAnLCAnLXRuJywgJzgnLCAnLW1hJywgJzIwMCcsICctbWV0YWxfYmluZGluZycsICctaW1hZScsICc8aW5maWxlLm1hZT4nLCAnLW9tYWUnLCAnPG91dGZpbGUubWFlPic=

> <r_lp_tautomer_probability>
1

> <r_epik_Ionization_Penalty>
0.000384839

> <r_epik_Ionization_Penalty_Charging>
0.000384812

> <r_epik_Ionization_Penalty_Neutral>
2.6907e-08

> <r_epik_State_Penalty>
0.000235226

> <r_epik_Charging_Adjusted_Penalty>
0.000620038

> <i_epik_Tot_Q>
1

> <i_epik_Tot_abs_Q>
1

> <r_epik_Metal_State_Penalty>
-0

> <b_epik_Metal_Only>
0

> <s_lp_Force_Field>
OPLS_2005

> <r_lp_Energy>
29.3938

> <b_lp_Chiralities_Consistent>
1

> <s_lp_Variant>
AV-unprocessed.smi:2137-1

> <Gold.Version>
5.8.1

> <Gold.Id.Protein>
6NUR|6NUR_protein|mol2

> <Gold.PLP.Fitness>
57.4898

> <Gold.PLP.PLP>
-44.2429

> <Gold.PLP.part.hbond>
-5.0000

> <Gold.PLP.part.metal>
0.0000

> <Gold.PLP.part.buried>
-1.3196

> <Gold.PLP.part.nonpolar>
-38.6381

> <Gold.PLP.part.repulsive>
1.4047

> <Gold.PLP.ligand.clash>
0.0000

> <Gold.PLP.ligand.torsion>
0.9730

> <Gold.PLP.Chemscore.Hbond>
4.0000

> <Gold.PLP.Chemscore.CHOScore>
0.9981

> <Gold.PLP.Chemscore.Metal>
0.0000

> <Gold.Chemscore.Hbonds>
donor molecule, donor type, donor heavy atom, donor atom, acceptor molecule, acceptor atom, score
      L1  H     6    50       P1 10747  0.99
      L1  H    10    40       P1  7948  1.00
      P1  H  7997  8009       L1    22  0.16
      P1  H 10752 10764       L1    12  0.56
      L1  C    15    43       P1  7957  1.00

> <Gold.PLP.Chemscore.Internal.Correction>
0.1986

> <Gold.Rescore>
     Score         DG    S(hbond)    S(metal)    S(lipo)     H(rot)  DE(clash)    DE(int)     intcor
     18.05     -20.90       3.27        0.00      88.25       2.27       1.61       1.24       ----

> <Gold.Chemscore.Fitness>
18.0468

> <Gold.Chemscore.DG>
-20.8955

> <Gold.Chemscore.ZeroCoef>
-5.4800

> <Gold.Chemscore.Hbond>
3.2674

> <Gold.Chemscore.Metal>
0.0000

> <Gold.Chemscore.Lipo>
88.2547

> <Gold.Chemscore.Internal_Hbond>
0.0000

> <Gold.Chemscore.DEClash>
1.6135

> <Gold.Chemscore.DEInternal>
1.2351

> <Gold.Chemscore.Rot>
2.2748

> <Gold.Chemscore.Internal.Correction>
   9.000000E+99

> <Gold.Chemscore.Hbonds>
donor molecule, donor type, donor heavy atom, donor atom, acceptor molecule, acceptor atom, score
      L1  H     6    50       P1 10747  0.94
      L1  H    10    40       P1  7948  0.57
      P1  H  7997  8009       L1    22  0.07
      P1  H 10752 10764       L1    12  0.08

> <Gold.Chemscore.Hbond.Weighted>
-10.9130

> <Gold.Chemscore.Metal.Weighted>
-0.0000

> <Gold.Chemscore.Lipo.Weighted>
-10.3258

> <Gold.Chemscore.Internal_Hbond.Weighted>
0.0000

> <Gold.Chemscore.DEClash.Weighted>
1.6135

> <Gold.Chemscore.DEInternal.Weighted>
1.2351

> <Gold.Chemscore.Rot.Weighted>
5.8234

> <Gold.Chemscore.Internal.Correction.Weighted>
   9.000000E+99

> <Gold.Protein.RotatedTorsions>
[ 6907 6896 6895 6894 ] final -105.10 input  -60.11 | X-H torsion
[ 7974 7965 7964 7962 ] final  160.50 input  175.53 | X-H torsion
[ 8008 7997 7996 7995 ] final -165.84 input   59.86 | X-H torsion
[ 10167 10162 10161 10158 ] final  -39.87 input  -65.29 | X-H torsion
[ 10718 10713 10712 10709 ] final  -79.97 input   66.30 | X-H torsion
[ 10763 10752 10751 10750 ] final  -23.12 input  -60.55 | X-H torsion
[ 11005 11000 10999 10996 ] final   74.28 input  -57.11 | X-H torsion

> <Gold.Protein.ActiveResidues>
 VAL166  LYS551  ARG553  GLY616  TRP617  ASP618  TYR619  PRO620  LYS621  CYS622 
 ASP623  PHE694  ASN695  SER759  ASP760  ASP761  ALA762  ILE779  LEU786  VAL792 
 PHE793  MET794  SER795  GLU796  ALA797  LYS798  CYS799  TRP800  GLU811  SER814 

> <Gold.Protein.RotatedAtoms>
  150.7320  134.0177  159.3690 H   0  0  0  0  0  0  0  0  0  0  0  0  # atno 6907 bound_to 6896
  151.8140  135.0670  160.0426 H   0  0  0  0  0  0  0  0  0  0  0  0  # atno 6908 bound_to 6896
  152.3052  133.5659  159.5681 H   0  0  0  0  0  0  0  0  0  0  0  0  # atno 6909 bound_to 6896
  144.7734  139.7766  143.6288 H   0  0  0  0  0  0  0  0  0  0  0  0  # atno 7974 bound_to 7965
  155.8555  140.0970  157.1647 H   0  0  0  0  0  0  0  0  0  0  0  0  # atno 8008 bound_to 7997
  154.3987  140.1375  156.3958 H   0  0  0  0  0  0  0  0  0  0  0  0  # atno 8009 bound_to 7997
  155.7914  140.3455  155.5354 H   0  0  0  0  0  0  0  0  0  0  0  0  # atno 8010 bound_to 7997
  140.7051  143.3188  151.2844 H   0  0  0  0  0  0  0  0  0  0  0  0  # atno 10167 bound_to 10162
  156.0080  130.4561  150.3729 H   0  0  0  0  0  0  0  0  0  0  0  0  # atno 10718 bound_to 10713
  153.6628  135.6975  153.5172 H   0  0  0  0  0  0  0  0  0  0  0  0  # atno 10763 bound_to 10752
  153.2619  135.4242  155.0901 H   0  0  0  0  0  0  0  0  0  0  0  0  # atno 10764 bound_to 10752
  154.8447  135.3557  154.6172 H   0  0  0  0  0  0  0  0  0  0  0  0  # atno 10765 bound_to 10752
  139.9399  134.7419  156.1128 H   0  0  0  0  0  0  0  0  0  0  0  0  # atno 11005 bound_to 11000
  146.1896  139.5130  142.9813 LP  0  0  0  0  0  0  0  0  0  0  0  0  # atno 17320 bound_to 7965
  145.6257  141.0314  143.1890 LP  0  0  0  0  0  0  0  0  0  0  0  0  # atno 17321 bound_to 7965
  139.6635  144.0147  152.2708 LP  0  0  0  0  0  0  0  0  0  0  0  0  # atno 17342 bound_to 10162
  139.9722  144.6486  150.7978 LP  0  0  0  0  0  0  0  0  0  0  0  0  # atno 17343 bound_to 10162
  157.1813  131.0393  151.2747 LP  0  0  0  0  0  0  0  0  0  0  0  0  # atno 17370 bound_to 10713
  157.4143  130.7402  149.6863 LP  0  0  0  0  0  0  0  0  0  0  0  0  # atno 17371 bound_to 10713
  141.1029  133.6670  156.2795 LP  0  0  0  0  0  0  0  0  0  0  0  0  # atno 17394 bound_to 11000
  140.5979  134.5584  157.5512 LP  0  0  0  0  0  0  0  0  0  0  0  0  # atno 17395 bound_to 11000

$$$$
