AV-unprocessed.smi:1133|AV-procd|sdf|4855|dock1
  -GOLD-   22720 3423D 1   1.00000     0.00000
 Structure written by MMmdl.
 42 43  0  0  0  0  0  0  0  0  2 V2000
  148.0468  142.1267  157.7363 C   0  0  0  0  0  0  0  0  0  0  0  0
  148.9501  141.4184  156.7242 C   0  0  0  0  0  0  0  0  0  0  0  0
  149.9655  140.8635  157.1447 O   0  0  0  0  0  0  0  0  0  0  0  0
  148.6052  141.4187  155.4141 N   0  0  0  0  0  0  0  0  0  0  0  0
  149.3639  140.6870  154.3934 C   0  0  0  0  0  0  0  0  0  0  0  0
  148.5330  139.4759  153.9324 C   0  0  0  0  0  0  0  0  0  0  0  0
  147.1417  139.9091  153.4218 C   0  0  0  0  0  0  0  0  0  0  0  0
  146.3191  138.7284  153.1765 N   0  0  0  0  0  0  0  0  0  0  0  0
  146.2087  138.0976  151.9991 C   0  0  0  0  0  0  0  0  0  0  0  0
  146.8070  138.4323  150.9761 O   0  0  0  0  0  0  0  0  0  0  0  0
  145.3593  137.0626  152.0640 N   0  0  0  0  0  0  0  0  0  0  0  0
  145.0255  136.1930  150.9427 C   0  0  0  0  0  0  0  0  0  0  0  0
  144.3900  134.8749  151.4167 C   0  0  0  0  0  0  0  0  0  0  0  0
  144.9112  133.7252  150.6768 N   0  0  0  0  0  0  0  0  0  0  0  0
  144.2743  133.0045  149.6997 C   0  0  0  0  0  0  0  0  0  0  0  0
  145.1504  132.0273  149.3026 C   0  0  0  0  0  0  0  0  0  0  0  0
  146.2828  132.1920  150.0550 N   0  3  0  0  0  0  0  0  0  0  0  0
  146.1351  133.2253  150.8905 C   0  0  0  0  0  0  0  0  0  0  0  0
  146.4421  140.8580  154.4229 C   0  0  0  0  0  0  0  0  0  0  0  0
  147.3770  141.9999  154.8585 C   0  0  0  0  0  0  0  0  0  0  0  0
  147.0392  141.7104  157.7144 H   0  0  0  0  0  0  0  0  0  0  0  0
  147.9949  143.1952  157.5264 H   0  0  0  0  0  0  0  0  0  0  0  0
  148.4344  142.0052  158.7483 H   0  0  0  0  0  0  0  0  0  0  0  0
  149.5666  141.3473  153.5490 H   0  0  0  0  0  0  0  0  0  0  0  0
  150.3395  140.3539  154.7497 H   0  0  0  0  0  0  0  0  0  0  0  0
  149.0673  138.9350  153.1505 H   0  0  0  0  0  0  0  0  0  0  0  0
  148.4223  138.7828  154.7680 H   0  0  0  0  0  0  0  0  0  0  0  0
  147.2882  140.4461  152.4827 H   0  0  0  0  0  0  0  0  0  0  0  0
  145.7869  138.3753  153.9586 H   0  0  0  0  0  0  0  0  0  0  0  0
  144.9150  136.8628  152.9484 H   0  0  0  0  0  0  0  0  0  0  0  0
  144.3583  136.7177  150.2566 H   0  0  0  0  0  0  0  0  0  0  0  0
  145.9411  135.9860  150.3879 H   0  0  0  0  0  0  0  0  0  0  0  0
  144.5863  134.7105  152.4769 H   0  0  0  0  0  0  0  0  0  0  0  0
  143.3063  134.8903  151.2900 H   0  0  0  0  0  0  0  0  0  0  0  0
  143.2719  133.2344  149.3681 H   0  0  0  0  0  0  0  0  0  0  0  0
  145.0551  131.2475  148.5608 H   0  0  0  0  0  0  0  0  0  0  0  0
  146.8605  133.5847  151.5989 H   0  0  0  0  0  0  0  0  0  0  0  0
  145.5355  141.2720  153.9801 H   0  0  0  0  0  0  0  0  0  0  0  0
  146.1271  140.2986  155.3054 H   0  0  0  0  0  0  0  0  0  0  0  0
  146.8570  142.6635  155.5480 H   0  0  0  0  0  0  0  0  0  0  0  0
  147.6316  142.6198  153.9978 H   0  0  0  0  0  0  0  0  0  0  0  0
  147.1132  131.6166  149.9905 H   0  0  0  0  0  0  0  0  0  0  0  0
  1  2  1  0  0  0  0
  1 21  1  0  0  0  0
  1 22  1  0  0  0  0
  1 23  1  0  0  0  0
  2  3  2  0  0  0  0
  2  4  1  0  0  0  0
  4 20  1  0  0  0  0
  4  5  1  0  0  0  0
  5  6  1  0  0  0  0
  5 24  1  0  0  0  0
  5 25  1  0  0  0  0
  6  7  1  0  0  0  0
  6 26  1  0  0  0  0
  6 27  1  0  0  0  0
  7  8  1  0  0  0  0
  7 19  1  0  0  0  0
  7 28  1  0  0  0  0
  8  9  1  0  0  0  0
  8 29  1  0  0  0  0
  9 10  2  0  0  0  0
  9 11  1  0  0  0  0
 11 12  1  0  0  0  0
 11 30  1  0  0  0  0
 12 13  1  0  0  0  0
 12 31  1  0  0  0  0
 12 32  1  0  0  0  0
 13 14  1  0  0  0  0
 13 33  1  0  0  0  0
 13 34  1  0  0  0  0
 14 18  1  0  0  0  0
 14 15  1  0  0  0  0
 15 16  2  0  0  0  0
 15 35  1  0  0  0  0
 16 17  1  0  0  0  0
 16 36  1  0  0  0  0
 17 18  2  0  0  0  0
 17 42  1  0  0  0  0
 18 37  1  0  0  0  0
 19 20  1  0  0  0  0
 19 38  1  0  0  0  0
 19 39  1  0  0  0  0
 20 40  1  0  0  0  0
 20 41  1  0  0  0  0
M  CHG  1  17   1
M  END
> <s_m_source_file>
AV-unprocessed.smi

> <i_m_source_file_index>
1133

> <i_lp_mmshare_version>
43012

> <i_f3d_flags>
0

> <s_epik_input>
W0NIM11DKD1PKU4xW0NIMl1bQ0gyXVtDSF0oW0NIMl1bQ0gyXTEpW05IXUMoPU8pW05IXVtDSDJdW0NIMl1uMltjSF1bY0hdbltjSF0y

> <s_epik_cmdline>
J2VwaWtfcHl0aG9uJywgJy1waCcsICc3LjAnLCAnLXRuJywgJzgnLCAnLW1hJywgJzIwMCcsICctbWV0YWxfYmluZGluZycsICctaW1hZScsICc8aW5maWxlLm1hZT4nLCAnLW9tYWUnLCAnPG91dGZpbGUubWFlPic=

> <r_lp_tautomer_probability>
1

> <r_epik_Ionization_Penalty>
0.255167

> <r_epik_Ionization_Penalty_Charging>
0

> <r_epik_Ionization_Penalty_Neutral>
0.255167

> <r_epik_State_Penalty>
0.246616

> <r_epik_Charging_Adjusted_Penalty>
0.246616

> <i_epik_Tot_Q>
1

> <i_epik_Tot_abs_Q>
1

> <r_epik_Metal_State_Penalty>
0.536415

> <b_epik_Metal_Only>
0

> <s_lp_Force_Field>
OPLS_2005

> <r_lp_Energy>
22.8295

> <b_lp_Chiralities_Consistent>
1

> <s_lp_Variant>
AV-unprocessed.smi:1133-1

> <Gold.Version>
5.8.1

> <Gold.Id.Protein>
6NUR|6NUR_protein|mol2

> <Gold.PLP.Fitness>
42.8216

> <Gold.PLP.PLP>
-35.7886

> <Gold.PLP.part.hbond>
-3.1112

> <Gold.PLP.part.metal>
0.0000

> <Gold.PLP.part.buried>
-2.2620

> <Gold.PLP.part.nonpolar>
-32.5394

> <Gold.PLP.part.repulsive>
0.5461

> <Gold.PLP.ligand.clash>
0.0000

> <Gold.PLP.ligand.torsion>
0.9549

> <Gold.PLP.Chemscore.Hbond>
1.9913

> <Gold.PLP.Chemscore.CHOScore>
0.9655

> <Gold.PLP.Chemscore.Metal>
0.0000

> <Gold.Chemscore.Hbonds>
donor molecule, donor type, donor heavy atom, donor atom, acceptor molecule, acceptor atom, score
      L1  H    17    42       P1 10747  1.00
      P1  H  7954  7966       L1    10  1.00
      L1  C    15    35       P1 10186  0.92

> <Gold.PLP.Chemscore.Internal.Correction>
0.0725

> <Gold.Rescore>
     Score         DG    S(hbond)    S(metal)    S(lipo)     H(rot)  DE(clash)    DE(int)     intcor
     13.43     -14.63       1.99        0.00      66.95       2.08       0.22       0.97       ----

> <Gold.Chemscore.Fitness>
13.4349

> <Gold.Chemscore.DG>
-14.6317

> <Gold.Chemscore.ZeroCoef>
-5.4800

> <Gold.Chemscore.Hbond>
1.9884

> <Gold.Chemscore.Metal>
0.0000

> <Gold.Chemscore.Lipo>
66.9524

> <Gold.Chemscore.Internal_Hbond>
0.0000

> <Gold.Chemscore.DEClash>
0.2242

> <Gold.Chemscore.DEInternal>
0.9725

> <Gold.Chemscore.Rot>
2.0794

> <Gold.Chemscore.Internal.Correction>
   9.000000E+99

> <Gold.Chemscore.Hbonds>
donor molecule, donor type, donor heavy atom, donor atom, acceptor molecule, acceptor atom, score
      L1  H    17    42       P1 10747  0.94
      P1  H  7954  7966       L1    10  0.97

> <Gold.Chemscore.Hbond.Weighted>
-6.6414

> <Gold.Chemscore.Metal.Weighted>
-0.0000

> <Gold.Chemscore.Lipo.Weighted>
-7.8334

> <Gold.Chemscore.Internal_Hbond.Weighted>
0.0000

> <Gold.Chemscore.DEClash.Weighted>
0.2242

> <Gold.Chemscore.DEInternal.Weighted>
0.9725

> <Gold.Chemscore.Rot.Weighted>
5.3232

> <Gold.Chemscore.Internal.Correction.Weighted>
   9.000000E+99

> <Gold.Protein.RotatedTorsions>
[ 6907 6896 6895 6894 ] final  143.63 input  -60.11 | X-H torsion
[ 7974 7965 7964 7962 ] final   33.74 input  175.53 | X-H torsion
[ 8008 7997 7996 7995 ] final   -4.79 input   59.86 | X-H torsion
[ 10167 10162 10161 10158 ] final -131.16 input  -65.29 | X-H torsion
[ 10718 10713 10712 10709 ] final  123.85 input   66.30 | X-H torsion
[ 10763 10752 10751 10750 ] final  -12.80 input  -60.55 | X-H torsion
[ 11005 11000 10999 10996 ] final  172.87 input  -57.11 | X-H torsion

> <Gold.Protein.ActiveResidues>
 VAL166  LYS551  ARG553  GLY616  TRP617  ASP618  TYR619  PRO620  LYS621  CYS622 
 ASP623  PHE694  ASN695  SER759  ASP760  ASP761  ALA762  ILE779  LEU786  VAL792 
 PHE793  MET794  SER795  GLU796  ALA797  LYS798  CYS799  TRP800  GLU811  SER814 

> <Gold.Protein.RotatedAtoms>
  152.2038  133.4860  159.5072 H   0  0  0  0  0  0  0  0  0  0  0  0  # atno 6907 bound_to 6896
  150.6975  134.1556  159.4166 H   0  0  0  0  0  0  0  0  0  0  0  0  # atno 6908 bound_to 6896
  151.9474  135.0185  160.0590 H   0  0  0  0  0  0  0  0  0  0  0  0  # atno 6909 bound_to 6896
  146.1400  139.6359  142.9169 H   0  0  0  0  0  0  0  0  0  0  0  0  # atno 7974 bound_to 7965
  154.6106  140.2475  155.7674 H   0  0  0  0  0  0  0  0  0  0  0  0  # atno 8008 bound_to 7997
  156.2368  140.2947  156.0285 H   0  0  0  0  0  0  0  0  0  0  0  0  # atno 8009 bound_to 7997
  155.2058  140.0395  157.2915 H   0  0  0  0  0  0  0  0  0  0  0  0  # atno 8010 bound_to 7997
  139.9218  143.6373  152.2551 H   0  0  0  0  0  0  0  0  0  0  0  0  # atno 10167 bound_to 10162
  157.5632  131.1088  150.8501 H   0  0  0  0  0  0  0  0  0  0  0  0  # atno 10718 bound_to 10713
  153.5038  135.7017  153.5817 H   0  0  0  0  0  0  0  0  0  0  0  0  # atno 10763 bound_to 10752
  153.3937  135.3889  155.1941 H   0  0  0  0  0  0  0  0  0  0  0  0  # atno 10764 bound_to 10752
  154.8708  135.3864  154.4511 H   0  0  0  0  0  0  0  0  0  0  0  0  # atno 10765 bound_to 10752
  140.3344  134.7330  157.4157 H   0  0  0  0  0  0  0  0  0  0  0  0  # atno 11005 bound_to 11000
  145.5067  141.0436  143.2510 LP  0  0  0  0  0  0  0  0  0  0  0  0  # atno 17320 bound_to 7965
  144.7782  139.6583  143.7165 LP  0  0  0  0  0  0  0  0  0  0  0  0  # atno 17321 bound_to 7965
  139.6855  144.7652  151.1532 LP  0  0  0  0  0  0  0  0  0  0  0  0  # atno 17342 bound_to 10162
  140.7660  143.5663  150.9043 LP  0  0  0  0  0  0  0  0  0  0  0  0  # atno 17343 bound_to 10162
  156.8993  130.5241  149.5283 LP  0  0  0  0  0  0  0  0  0  0  0  0  # atno 17370 bound_to 10713
  156.0683  130.5721  150.9332 LP  0  0  0  0  0  0  0  0  0  0  0  0  # atno 17371 bound_to 10713
  140.0834  134.5700  155.8517 LP  0  0  0  0  0  0  0  0  0  0  0  0  # atno 17394 bound_to 11000
  141.2055  133.6647  156.6185 LP  0  0  0  0  0  0  0  0  0  0  0  0  # atno 17395 bound_to 11000

$$$$
