AV-unprocessed.smi:250|AV-procd|sdf|1933|dock8
  -GOLD-   2262021 53D 1   1.00000     0.00000
 Structure written by MMmdl.
 56 60  0  0  0  0  0  0  0  0  1 V2000
  152.4877  144.2641  160.6598 C   0  0  0  0  0  0  0  0  0  0  0  0
  151.7894  143.7750  159.4777 N   0  0  0  0  0  0  0  0  0  0  0  0
  151.6053  144.4619  158.3380 C   0  0  0  0  0  0  0  0  0  0  0  0
  152.0183  145.5944  158.0955 O   0  0  0  0  0  0  0  0  0  0  0  0
  150.8797  143.7089  157.5061 N   0  0  0  0  0  0  0  0  0  0  0  0
  150.4421  142.4732  158.1194 C   0  0  1  0  0  0  0  0  0  0  0  0
  150.4215  141.2498  157.1712 C   0  0  0  0  0  0  0  0  0  0  0  0
  151.5589  140.3435  157.3314 N   0  0  0  0  0  0  0  0  0  0  0  0
  151.6274  139.3354  156.4242 C   0  0  0  0  0  0  0  0  0  0  0  0
  152.6196  139.3986  155.4985 N   0  0  0  0  0  0  0  0  0  0  0  0
  152.7515  138.4398  154.5781 C   0  0  0  0  0  0  0  0  0  0  0  0
  152.0105  137.3453  154.4029 N   0  0  0  0  0  0  0  0  0  0  0  0
  151.0069  137.2749  155.3233 C   0  0  0  0  0  0  0  0  0  0  0  0
  150.7409  138.2181  156.3579 C   0  0  0  0  0  0  0  0  0  0  0  0
  149.6202  137.8137  157.0763 N   0  0  0  0  0  0  0  0  0  0  0  0
  149.2552  136.6978  156.5085 C   0  0  0  0  0  0  0  0  0  0  0  0
  150.0431  136.2898  155.4572 N   0  0  0  0  0  0  0  0  0  0  0  0
  149.8622  135.0962  154.6423 C   0  0  0  0  0  0  0  0  0  0  0  0
  149.9179  133.7378  155.4084 C   0  0  0  0  0  0  0  0  0  0  0  0
  149.7492  132.6021  154.3593 C   0  0  0  0  0  0  0  0  0  0  0  0
  148.4782  132.6231  153.7401 O   0  0  0  0  0  0  0  0  0  0  0  0
  151.2784  133.5717  156.1356 C   0  0  0  0  0  0  0  0  0  0  0  0
  151.3176  132.3432  157.0648 C   0  0  0  0  0  0  0  0  0  0  0  0
  150.2557  132.4105  158.0087 O   0  0  0  0  0  0  0  0  0  0  0  0
  148.9695  132.4180  157.4013 C   0  0  0  0  0  0  0  0  0  0  0  0
  148.8230  133.6608  156.5046 C   0  0  0  0  0  0  0  0  0  0  0  0
  152.0332  140.0965  158.6869 C   0  0  0  0  0  0  0  0  0  0  0  0
  152.4672  141.4195  159.3126 C   0  0  0  0  0  0  0  0  0  0  0  0
  151.2896  142.4083  159.4008 C   0  0  1  0  0  0  0  0  0  0  0  0
  149.4071  142.6679  158.4065 H   0  0  0  0  0  0  0  0  0  0  0  0
  150.6588  142.1714  160.2590 H   0  0  0  0  0  0  0  0  0  0  0  0
  152.0831  145.2266  160.9754 H   0  0  0  0  0  0  0  0  0  0  0  0
  153.5501  144.3891  160.4485 H   0  0  0  0  0  0  0  0  0  0  0  0
  152.3862  143.5673  161.4922 H   0  0  0  0  0  0  0  0  0  0  0  0
  150.5928  143.9950  156.5812 H   0  0  0  0  0  0  0  0  0  0  0  0
  149.5222  140.6671  157.3749 H   0  0  0  0  0  0  0  0  0  0  0  0
  150.3311  141.5915  156.1394 H   0  0  0  0  0  0  0  0  0  0  0  0
  153.5681  138.5680  153.8832 H   0  0  0  0  0  0  0  0  0  0  0  0
  148.3972  136.1348  156.8466 H   0  0  0  0  0  0  0  0  0  0  0  0
  148.9069  135.1996  154.1265 H   0  0  0  0  0  0  0  0  0  0  0  0
  150.6226  135.1111  153.8601 H   0  0  0  0  0  0  0  0  0  0  0  0
  150.5078  132.6915  153.5809 H   0  0  0  0  0  0  0  0  0  0  0  0
  149.8803  131.6140  154.7962 H   0  0  0  0  0  0  0  0  0  0  0  0
  148.2675  133.5172  153.5172 H   0  0  0  0  0  0  0  0  0  0  0  0
  152.0928  133.5194  155.4122 H   0  0  0  0  0  0  0  0  0  0  0  0
  151.4816  134.4423  156.7582 H   0  0  0  0  0  0  0  0  0  0  0  0
  151.2681  131.4082  156.5068 H   0  0  0  0  0  0  0  0  0  0  0  0
  152.2614  132.3250  157.6099 H   0  0  0  0  0  0  0  0  0  0  0  0
  148.8064  131.4954  156.8439 H   0  0  0  0  0  0  0  0  0  0  0  0
  148.2166  132.4406  158.1891 H   0  0  0  0  0  0  0  0  0  0  0  0
  148.8848  134.5317  157.1557 H   0  0  0  0  0  0  0  0  0  0  0  0
  147.8270  133.6881  156.0620 H   0  0  0  0  0  0  0  0  0  0  0  0
  151.2445  139.6310  159.2790 H   0  0  0  0  0  0  0  0  0  0  0  0
  152.8849  139.4154  158.6731 H   0  0  0  0  0  0  0  0  0  0  0  0
  152.8837  141.2466  160.3052 H   0  0  0  0  0  0  0  0  0  0  0  0
  153.2744  141.8407  158.7102 H   0  0  0  0  0  0  0  0  0  0  0  0
  1  2  1  0  0  0  0
  1 32  1  0  0  0  0
  1 33  1  0  0  0  0
  1 34  1  0  0  0  0
  2 29  1  0  0  0  0
  2  3  1  0  0  0  0
  3  4  2  0  0  0  0
  3  5  1  0  0  0  0
  5  6  1  0  0  0  0
  5 35  1  0  0  0  0
  6 30  1  0  0  0  0
  6 29  1  0  0  0  0
  6  7  1  0  0  0  0
  7  8  1  0  0  0  0
  7 36  1  0  0  0  0
  7 37  1  0  0  0  0
  8  9  1  0  0  0  0
  8 27  1  0  0  0  0
  9 14  1  0  0  0  0
  9 10  2  0  0  0  0
 10 11  1  0  0  0  0
 11 12  2  0  0  0  0
 11 38  1  0  0  0  0
 12 13  1  0  0  0  0
 13 17  1  0  0  0  0
 13 14  2  0  0  0  0
 14 15  1  0  0  0  0
 15 16  2  0  0  0  0
 16 17  1  0  0  0  0
 16 39  1  0  0  0  0
 17 18  1  0  0  0  0
 18 19  1  0  0  0  0
 18 40  1  0  0  0  0
 18 41  1  0  0  0  0
 19 26  1  0  0  0  0
 19 20  1  0  0  0  0
 19 22  1  0  0  0  0
 20 21  1  0  0  0  0
 20 42  1  0  0  0  0
 20 43  1  0  0  0  0
 21 44  1  0  0  0  0
 22 23  1  0  0  0  0
 22 45  1  0  0  0  0
 22 46  1  0  0  0  0
 23 24  1  0  0  0  0
 23 47  1  0  0  0  0
 23 48  1  0  0  0  0
 24 25  1  0  0  0  0
 25 26  1  0  0  0  0
 25 49  1  0  0  0  0
 25 50  1  0  0  0  0
 26 51  1  0  0  0  0
 26 52  1  0  0  0  0
 27 28  1  0  0  0  0
 27 53  1  0  0  0  0
 27 54  1  0  0  0  0
 28 29  1  0  0  0  0
 28 55  1  0  0  0  0
 28 56  1  0  0  0  0
 29 31  1  0  0  0  0
M  END
> <s_m_source_file>
AV-unprocessed.smi

> <i_m_source_file_index>
250

> <i_lp_mmshare_version>
43012

> <i_f3d_flags>
0

> <s_epik_input>
Tz1DKFtOSF0xKU4oW0NIM10pW0NASF0oW0NASF0xMilbQ0gyXVtDSDJdTihbQ0gyXTIpYyhuW2NIXW4zKWMoYzM0KW5bY0hdbjRbQ0gyXUM1KFtDSDJdW09IXSlbQ0gyXVtDSDJdT1tDSDJdW0NIMl01

> <s_epik_cmdline>
J2VwaWtfcHl0aG9uJywgJy1waCcsICc3LjAnLCAnLXRuJywgJzgnLCAnLW1hJywgJzIwMCcsICctbWV0YWxfYmluZGluZycsICctaW1hZScsICc8aW5maWxlLm1hZT4nLCAnLW9tYWUnLCAnPG91dGZpbGUubWFlPic=

> <r_lp_tautomer_probability>
1

> <r_epik_Ionization_Penalty>
0.00229024

> <r_epik_Ionization_Penalty_Charging>
0

> <r_epik_Ionization_Penalty_Neutral>
0.00229024

> <r_epik_State_Penalty>
0.0013961

> <r_epik_Charging_Adjusted_Penalty>
0.0013961

> <i_epik_Tot_Q>
0

> <i_epik_Tot_abs_Q>
0

> <r_epik_Metal_State_Penalty>
-0

> <b_epik_Metal_Only>
0

> <s_lp_Force_Field>
OPLS_2005

> <r_lp_Energy>
68.1887

> <b_lp_Chiralities_Consistent>
1

> <s_lp_Variant>
AV-unprocessed.smi:250-4

> <Gold.Version>
5.8.1

> <Gold.Id.Protein>
6NUR|6NUR_protein|mol2

> <Gold.PLP.Fitness>
49.3371

> <Gold.PLP.PLP>
-41.1447

> <Gold.PLP.part.hbond>
-4.9468

> <Gold.PLP.part.metal>
0.0000

> <Gold.PLP.part.buried>
-3.8351

> <Gold.PLP.part.nonpolar>
-33.3015

> <Gold.PLP.part.repulsive>
0.2405

> <Gold.PLP.ligand.clash>
0.0000

> <Gold.PLP.ligand.torsion>
1.3910

> <Gold.PLP.Chemscore.Hbond>
3.5683

> <Gold.PLP.Chemscore.CHOScore>
0.0000

> <Gold.PLP.Chemscore.Metal>
0.0000

> <Gold.Chemscore.Hbonds>
donor molecule, donor type, donor heavy atom, donor atom, acceptor molecule, acceptor atom, score
      L1  H     5    35       P1  8028  0.71
      P1  H  6896  6908       L1    24  1.00
      P1  H  7997  8009       L1    10  1.00
      P1  H 10752 10763       L1    12  0.83

> <Gold.PLP.Chemscore.Internal.Correction>
0.2694

> <Gold.Rescore>
     Score         DG    S(hbond)    S(metal)    S(lipo)     H(rot)  DE(clash)    DE(int)     intcor
     14.68     -19.13       2.92        0.00      81.72       2.22       2.20       2.25       ----

> <Gold.Chemscore.Fitness>
14.6787

> <Gold.Chemscore.DG>
-19.1272

> <Gold.Chemscore.ZeroCoef>
-5.4800

> <Gold.Chemscore.Hbond>
2.9227

> <Gold.Chemscore.Metal>
0.0000

> <Gold.Chemscore.Lipo>
81.7183

> <Gold.Chemscore.Internal_Hbond>
0.0000

> <Gold.Chemscore.DEClash>
2.1959

> <Gold.Chemscore.DEInternal>
2.2526

> <Gold.Chemscore.Rot>
2.2170

> <Gold.Chemscore.Internal.Correction>
   9.000000E+99

> <Gold.Chemscore.Hbonds>
donor molecule, donor type, donor heavy atom, donor atom, acceptor molecule, acceptor atom, score
      L1  H     5    35       P1  8028  0.68
      P1  H  6896  6908       L1    24  0.35
      P1  H  7997  8009       L1    10  0.76
      P1  H 10752 10763       L1    12  0.69

> <Gold.Chemscore.Hbond.Weighted>
-9.7617

> <Gold.Chemscore.Metal.Weighted>
-0.0000

> <Gold.Chemscore.Lipo.Weighted>
-9.5610

> <Gold.Chemscore.Internal_Hbond.Weighted>
0.0000

> <Gold.Chemscore.DEClash.Weighted>
2.1959

> <Gold.Chemscore.DEInternal.Weighted>
2.2526

> <Gold.Chemscore.Rot.Weighted>
5.6756

> <Gold.Chemscore.Internal.Correction.Weighted>
   9.000000E+99

> <Gold.Protein.RotatedTorsions>
[ 6907 6896 6895 6894 ] final  108.76 input  -60.11 | X-H torsion
[ 7974 7965 7964 7962 ] final   17.39 input  175.53 | X-H torsion
[ 8008 7997 7996 7995 ] final -146.18 input   59.86 | X-H torsion
[ 10167 10162 10161 10158 ] final -131.78 input  -65.29 | X-H torsion
[ 10718 10713 10712 10709 ] final  -76.30 input   66.30 | X-H torsion
[ 10763 10752 10751 10750 ] final   26.26 input  -60.55 | X-H torsion
[ 11005 11000 10999 10996 ] final    6.05 input  -57.11 | X-H torsion

> <Gold.Protein.ActiveResidues>
 VAL166  LYS551  ARG553  GLY616  TRP617  ASP618  TYR619  PRO620  LYS621  CYS622 
 ASP623  PHE694  ASN695  SER759  ASP760  ASP761  ALA762  ILE779  LEU786  VAL792 
 PHE793  MET794  SER795  GLU796  ALA797  LYS798  CYS799  TRP800  GLU811  SER814 

> <Gold.Protein.RotatedAtoms>
  152.5098  133.9042  159.7455 H   0  0  0  0  0  0  0  0  0  0  0  0  # atno 6907 bound_to 6896
  150.9450  133.6604  159.2790 H   0  0  0  0  0  0  0  0  0  0  0  0  # atno 6908 bound_to 6896
  151.3902  135.0960  159.9576 H   0  0  0  0  0  0  0  0  0  0  0  0  # atno 6909 bound_to 6896
  146.2220  139.8610  142.8605 H   0  0  0  0  0  0  0  0  0  0  0  0  # atno 7974 bound_to 7965
  155.5553  140.0620  157.2841 H   0  0  0  0  0  0  0  0  0  0  0  0  # atno 8008 bound_to 7997
  154.4407  140.1895  156.0772 H   0  0  0  0  0  0  0  0  0  0  0  0  # atno 8009 bound_to 7997
  156.0486  140.3287  155.7329 H   0  0  0  0  0  0  0  0  0  0  0  0  # atno 8010 bound_to 7997
  139.9154  143.6445  152.2566 H   0  0  0  0  0  0  0  0  0  0  0  0  # atno 10167 bound_to 10162
  156.0179  130.4462  150.3172 H   0  0  0  0  0  0  0  0  0  0  0  0  # atno 10718 bound_to 10713
  153.0635  135.6564  154.0409 H   0  0  0  0  0  0  0  0  0  0  0  0  # atno 10763 bound_to 10752
  154.0071  135.2932  155.3398 H   0  0  0  0  0  0  0  0  0  0  0  0  # atno 10764 bound_to 10752
  154.6983  135.5255  153.8558 H   0  0  0  0  0  0  0  0  0  0  0  0  # atno 10765 bound_to 10752
  140.5638  134.0167  155.7982 H   0  0  0  0  0  0  0  0  0  0  0  0  # atno 11005 bound_to 11000
  145.2705  141.0107  143.3775 LP  0  0  0  0  0  0  0  0  0  0  0  0  # atno 17320 bound_to 7965
  144.9228  139.4392  143.6533 LP  0  0  0  0  0  0  0  0  0  0  0  0  # atno 17321 bound_to 7965
  139.6907  144.7647  151.1444 LP  0  0  0  0  0  0  0  0  0  0  0  0  # atno 17342 bound_to 10162
  140.7675  143.5593  150.9117 LP  0  0  0  0  0  0  0  0  0  0  0  0  # atno 17343 bound_to 10162
  157.1273  131.0262  151.2984 LP  0  0  0  0  0  0  0  0  0  0  0  0  # atno 17370 bound_to 10713
  157.4579  130.7636  149.7209 LP  0  0  0  0  0  0  0  0  0  0  0  0  # atno 17371 bound_to 10713
  141.1098  133.9634  157.2930 LP  0  0  0  0  0  0  0  0  0  0  0  0  # atno 17394 bound_to 11000
  139.9395  135.0193  156.8662 LP  0  0  0  0  0  0  0  0  0  0  0  0  # atno 17395 bound_to 11000

$$$$
