AV-unprocessed.smi:445|AV-procd|sdf|2591|dock3
  -GOLD-   2262022583D 1   1.00000     0.00000
 Structure written by MMmdl.
 44 45  0  0  0  0  0  0  0  0  3 V2000
  153.6303  141.1860  160.7203 C   0  0  0  0  0  0  0  0  0  0  0  0
  153.3355  142.6925  160.6175 C   0  0  2  0  0  0  0  0  0  0  0  0
  152.2872  143.1377  161.6585 C   0  0  0  0  0  0  0  0  0  0  0  0
  152.0364  144.6530  161.5956 C   0  0  0  0  0  0  0  0  0  0  0  0
  151.6212  145.0932  160.1838 C   0  0  0  0  0  0  0  0  0  0  0  0
  152.6585  144.6536  159.1357 C   0  0  0  0  0  0  0  0  0  0  0  0
  152.9353  143.1374  159.1874 C   0  0  2  0  0  0  0  0  0  0  0  0
  151.7669  142.4028  158.6979 N   0  0  0  0  0  0  0  0  0  0  0  0
  151.2854  142.4209  157.4455 C   0  0  0  0  0  0  0  0  0  0  0  0
  151.7992  143.0635  156.5286 O   0  0  0  0  0  0  0  0  0  0  0  0
  150.0433  141.5541  157.1951 C   0  0  0  0  0  0  0  0  0  0  0  0
  150.1842  140.6621  156.0296 N   0  0  0  0  0  0  0  0  0  0  0  0
  151.3017  139.8083  156.0241 C   0  0  0  0  0  0  0  0  0  0  0  0
  151.5473  138.9549  155.0148 C   0  0  0  0  0  0  0  0  0  0  0  0
  152.7079  138.0902  155.0296 N   0  3  0  0  0  0  0  0  0  0  0  0
  152.7981  137.2096  154.1801 O   0  0  0  0  0  0  0  0  0  0  0  0
  153.5669  138.2607  155.8896 O   0  5  0  0  0  0  0  0  0  0  0  0
  150.6144  138.9305  153.9072 C   0  0  0  0  0  0  0  0  0  0  0  0
  149.5313  139.7488  153.8885 C   0  0  0  0  0  0  0  0  0  0  0  0
  148.5530  139.7580  152.7776 C   0  0  0  0  0  0  0  0  0  0  0  0
  148.5516  138.6439  152.0350 N   0  0  0  0  0  0  0  0  0  0  0  0
  147.7720  140.6639  152.4868 O   0  0  0  0  0  0  0  0  0  0  0  0
  149.2707  140.6930  155.0092 C   0  0  0  0  0  0  0  0  0  0  0  0
  148.3153  141.4721  155.0665 O   0  0  0  0  0  0  0  0  0  0  0  0
  152.7354  140.5860  160.5536 H   0  0  0  0  0  0  0  0  0  0  0  0
  154.0167  140.9308  161.7073 H   0  0  0  0  0  0  0  0  0  0  0  0
  154.3769  140.8823  159.9860 H   0  0  0  0  0  0  0  0  0  0  0  0
  154.2661  143.2078  160.8603 H   0  0  0  0  0  0  0  0  0  0  0  0
  151.3494  142.6051  161.4951 H   0  0  0  0  0  0  0  0  0  0  0  0
  152.6211  142.8679  162.6610 H   0  0  0  0  0  0  0  0  0  0  0  0
  151.2648  144.9321  162.3136 H   0  0  0  0  0  0  0  0  0  0  0  0
  152.9411  145.1850  161.8924 H   0  0  0  0  0  0  0  0  0  0  0  0
  150.6461  144.6700  159.9399 H   0  0  0  0  0  0  0  0  0  0  0  0
  151.5012  146.1764  160.1535 H   0  0  0  0  0  0  0  0  0  0  0  0
  152.3270  144.9429  158.1375 H   0  0  0  0  0  0  0  0  0  0  0  0
  153.5904  145.1923  159.3118 H   0  0  0  0  0  0  0  0  0  0  0  0
  153.7836  142.9453  158.5282 H   0  0  0  0  0  0  0  0  0  0  0  0
  151.2793  141.8364  159.3770 H   0  0  0  0  0  0  0  0  0  0  0  0
  149.8471  140.9782  158.1003 H   0  0  0  0  0  0  0  0  0  0  0  0
  149.1681  142.1960  157.0766 H   0  0  0  0  0  0  0  0  0  0  0  0
  151.9433  139.9042  156.8884 H   0  0  0  0  0  0  0  0  0  0  0  0
  150.8077  138.2418  153.0986 H   0  0  0  0  0  0  0  0  0  0  0  0
  147.9170  138.5545  151.2551 H   0  0  0  0  0  0  0  0  0  0  0  0
  149.1876  137.8929  152.2618 H   0  0  0  0  0  0  0  0  0  0  0  0
  1  2  1  0  0  0  0
  1 25  1  0  0  0  0
  1 26  1  0  0  0  0
  1 27  1  0  0  0  0
  2  7  1  0  0  0  0
  2  3  1  0  0  0  0
  2 28  1  0  0  0  0
  3  4  1  0  0  0  0
  3 29  1  0  0  0  0
  3 30  1  0  0  0  0
  4  5  1  0  0  0  0
  4 31  1  0  0  0  0
  4 32  1  0  0  0  0
  5  6  1  0  0  0  0
  5 33  1  0  0  0  0
  5 34  1  0  0  0  0
  6  7  1  0  0  0  0
  6 35  1  0  0  0  0
  6 36  1  0  0  0  0
  7  8  1  0  0  0  0
  7 37  1  0  0  0  0
  8  9  1  0  0  0  0
  8 38  1  0  0  0  0
  9 10  2  0  0  0  0
  9 11  1  0  0  0  0
 11 12  1  0  0  0  0
 11 39  1  0  0  0  0
 11 40  1  0  0  0  0
 12 23  1  0  0  0  0
 12 13  1  0  0  0  0
 13 14  2  0  0  0  0
 13 41  1  0  0  0  0
 14 15  1  0  0  0  0
 14 18  1  0  0  0  0
 15 16  2  0  0  0  0
 15 17  1  0  0  0  0
 18 19  2  0  0  0  0
 18 42  1  0  0  0  0
 19 20  1  0  0  0  0
 19 23  1  0  0  0  0
 20 21  1  0  0  0  0
 20 22  2  0  0  0  0
 21 43  1  0  0  0  0
 21 44  1  0  0  0  0
 23 24  2  0  0  0  0
M  CHG  1  15   1
M  CHG  1  17  -1
M  END
> <s_m_source_file>
AV-unprocessed.smi

> <i_m_source_file_index>
445

> <i_lp_mmshare_version>
43012

> <i_f3d_flags>
0

> <s_epik_input>
W0NIM11bQ0BASF0xW0NIMl1bQ0gyXVtDSDJdW0NIMl1bQ0BIXTFbTkhdQyg9TylbQ0gyXW4yW2NIXWMoW04rXSg9TylbTy1dKVtjSF1jKGMyPU8pQyg9TylbTkgyXQ==

> <s_epik_cmdline>
J2VwaWtfcHl0aG9uJywgJy1waCcsICc3LjAnLCAnLXRuJywgJzgnLCAnLW1hJywgJzIwMCcsICctbWV0YWxfYmluZGluZycsICctaW1hZScsICc8aW5maWxlLm1hZT4nLCAnLW9tYWUnLCAnPG91dGZpbGUubWFlPic=

> <r_lp_tautomer_probability>
1

> <r_epik_Ionization_Penalty>
2.81321e-06

> <r_epik_Ionization_Penalty_Charging>
2.43777e-12

> <r_epik_Ionization_Penalty_Neutral>
2.81321e-06

> <r_epik_State_Penalty>
-0

> <r_epik_Charging_Adjusted_Penalty>
2.43777e-12

> <i_epik_Tot_Q>
0

> <i_epik_Tot_abs_Q>
2

> <r_epik_Metal_State_Penalty>
-0

> <b_epik_Metal_Only>
0

> <s_lp_Force_Field>
OPLS_2005

> <r_lp_Energy>
27.547

> <b_lp_Chiralities_Consistent>
1

> <s_lp_Variant>
AV-unprocessed.smi:445-3

> <Gold.Version>
5.8.1

> <Gold.Id.Protein>
6NUR|6NUR_protein|mol2

> <Gold.PLP.Fitness>
52.9288

> <Gold.PLP.PLP>
-48.1506

> <Gold.PLP.part.hbond>
-3.5749

> <Gold.PLP.part.metal>
0.0000

> <Gold.PLP.part.buried>
-3.1064

> <Gold.PLP.part.nonpolar>
-43.5496

> <Gold.PLP.part.repulsive>
1.8657

> <Gold.PLP.ligand.clash>
0.0000

> <Gold.PLP.ligand.torsion>
0.4115

> <Gold.PLP.Chemscore.Hbond>
1.8560

> <Gold.PLP.Chemscore.CHOScore>
0.0000

> <Gold.PLP.Chemscore.Metal>
0.0000

> <Gold.Chemscore.Hbonds>
donor molecule, donor type, donor heavy atom, donor atom, acceptor molecule, acceptor atom, score
      L1  H    21    44       P1  7948  0.51
      P1  H  7997  8009       L1    17  0.28
      P1  H 10752 10765       L1    16  0.50

> <Gold.PLP.Chemscore.Internal.Correction>
0.0332

> <Gold.Rescore>
     Score         DG    S(hbond)    S(metal)    S(lipo)     H(rot)  DE(clash)    DE(int)     intcor
     16.26     -20.05       1.88        0.00     108.34       1.71       2.22       1.57       ----

> <Gold.Chemscore.Fitness>
16.2583

> <Gold.Chemscore.DG>
-20.0503

> <Gold.Chemscore.ZeroCoef>
-5.4800

> <Gold.Chemscore.Hbond>
1.8797

> <Gold.Chemscore.Metal>
0.0000

> <Gold.Chemscore.Lipo>
108.3390

> <Gold.Chemscore.Internal_Hbond>
0.0000

> <Gold.Chemscore.DEClash>
2.2228

> <Gold.Chemscore.DEInternal>
1.5693

> <Gold.Chemscore.Rot>
1.7123

> <Gold.Chemscore.Internal.Correction>
   9.000000E+99

> <Gold.Chemscore.Hbonds>
donor molecule, donor type, donor heavy atom, donor atom, acceptor molecule, acceptor atom, score
      L1  H    21    44       P1  7948  0.46
      P1  H  7997  8009       L1    17  0.28
      P1  H 10752 10765       L1    16  0.49

> <Gold.Chemscore.Hbond.Weighted>
-6.2781

> <Gold.Chemscore.Metal.Weighted>
-0.0000

> <Gold.Chemscore.Lipo.Weighted>
-12.6757

> <Gold.Chemscore.Internal_Hbond.Weighted>
0.0000

> <Gold.Chemscore.DEClash.Weighted>
2.2228

> <Gold.Chemscore.DEInternal.Weighted>
1.5693

> <Gold.Chemscore.Rot.Weighted>
4.3835

> <Gold.Chemscore.Internal.Correction.Weighted>
   9.000000E+99

> <Gold.Protein.RotatedTorsions>
[ 6907 6896 6895 6894 ] final   62.37 input  -60.11 | X-H torsion
[ 7974 7965 7964 7962 ] final   87.93 input  175.53 | X-H torsion
[ 8008 7997 7996 7995 ] final  167.56 input   59.86 | X-H torsion
[ 10167 10162 10161 10158 ] final  -99.86 input  -65.29 | X-H torsion
[ 10718 10713 10712 10709 ] final  -35.02 input   66.30 | X-H torsion
[ 10763 10752 10751 10750 ] final  151.34 input  -60.55 | X-H torsion
[ 11005 11000 10999 10996 ] final  -41.45 input  -57.11 | X-H torsion

> <Gold.Protein.ActiveResidues>
 VAL166  LYS551  ARG553  GLY616  TRP617  ASP618  TYR619  PRO620  LYS621  CYS622 
 ASP623  PHE694  ASN695  SER759  ASP760  ASP761  ALA762  ILE779  LEU786  VAL792 
 PHE793  MET794  SER795  GLU796  ALA797  LYS798  CYS799  TRP800  GLU811  SER814 

> <Gold.Protein.RotatedAtoms>
  152.4166  134.6030  160.0004 H   0  0  0  0  0  0  0  0  0  0  0  0  # atno 6907 bound_to 6896
  151.6192  133.3335  159.3092 H   0  0  0  0  0  0  0  0  0  0  0  0  # atno 6908 bound_to 6896
  150.8055  134.7216  159.6706 H   0  0  0  0  0  0  0  0  0  0  0  0  # atno 6909 bound_to 6896
  145.5525  139.2296  143.2505 H   0  0  0  0  0  0  0  0  0  0  0  0  # atno 7974 bound_to 7965
  156.1623  140.1613  156.8591 H   0  0  0  0  0  0  0  0  0  0  0  0  # atno 8008 bound_to 7997
  154.5173  140.0786  156.8140 H   0  0  0  0  0  0  0  0  0  0  0  0  # atno 8009 bound_to 7997
  155.3683  140.3399  155.4245 H   0  0  0  0  0  0  0  0  0  0  0  0  # atno 8010 bound_to 7997
  140.2580  143.3427  152.0653 H   0  0  0  0  0  0  0  0  0  0  0  0  # atno 10167 bound_to 10162
  156.3436  130.4297  149.7766 H   0  0  0  0  0  0  0  0  0  0  0  0  # atno 10718 bound_to 10713
  154.1021  135.2845  155.3249 H   0  0  0  0  0  0  0  0  0  0  0  0  # atno 10763 bound_to 10752
  154.6548  135.5356  153.7948 H   0  0  0  0  0  0  0  0  0  0  0  0  # atno 10764 bound_to 10752
  153.0375  135.6519  154.1184 H   0  0  0  0  0  0  0  0  0  0  0  0  # atno 10765 bound_to 10752
  141.0247  133.6847  156.2460 H   0  0  0  0  0  0  0  0  0  0  0  0  # atno 11005 bound_to 11000
  146.1907  140.6348  142.9147 LP  0  0  0  0  0  0  0  0  0  0  0  0  # atno 17320 bound_to 7965
  144.7522  140.5220  143.6794 LP  0  0  0  0  0  0  0  0  0  0  0  0  # atno 17321 bound_to 7965
  139.5025  144.6737  151.6181 LP  0  0  0  0  0  0  0  0  0  0  0  0  # atno 17342 bound_to 10162
  140.5988  143.9647  150.6372 LP  0  0  0  0  0  0  0  0  0  0  0  0  # atno 17343 bound_to 10162
  156.4993  130.8121  151.3126 LP  0  0  0  0  0  0  0  0  0  0  0  0  # atno 17370 bound_to 10713
  157.7450  130.9950  150.2728 LP  0  0  0  0  0  0  0  0  0  0  0  0  # atno 17371 bound_to 10713
  140.6512  134.5065  157.5577 LP  0  0  0  0  0  0  0  0  0  0  0  0  # atno 17394 bound_to 11000
  139.9168  134.8229  156.1340 LP  0  0  0  0  0  0  0  0  0  0  0  0  # atno 17395 bound_to 11000

$$$$
