AV-unprocessed.smi:2833|AV-procd|sdf|10914|dock9
  -GOLD-   2272015363D 1   1.00000     0.00000
 Structure written by MMmdl.
 28 29  0  0  0  0  0  0  0  0  1 V2000
  149.2694  141.2506  153.1728 O   0  0  0  0  0  0  0  0  0  0  0  0
  148.6043  140.6927  154.2863 C   0  0  0  0  0  0  0  0  0  0  0  0
  149.6157  140.0193  155.2266 C   0  0  2  0  0  0  0  0  0  0  0  0
  150.1029  140.9885  156.3227 C   0  0  0  0  0  0  0  0  0  0  0  0
  151.1285  140.3502  157.1384 N   0  0  0  0  0  0  0  0  0  0  0  0
  151.5297  141.1152  158.2433 C   0  0  0  0  0  0  0  0  0  0  0  0
  151.2270  142.4366  158.2517 N   0  0  0  0  0  0  0  0  0  0  0  0
  151.6155  143.1759  159.3131 C   0  0  0  0  0  0  0  0  0  0  0  0
  152.3187  142.6408  160.4102 C   0  0  0  0  0  0  0  0  0  0  0  0
  152.7845  143.6438  161.7343 Cl  0  0  0  0  0  0  0  0  0  0  0  0
  152.6326  141.2685  160.4010 C   0  0  0  0  0  0  0  0  0  0  0  0
  152.2322  140.4903  159.2977 C   0  0  0  0  0  0  0  0  0  0  0  0
  152.5189  139.1666  159.2553 F   0  0  0  0  0  0  0  0  0  0  0  0
  152.2425  139.8505  156.3433 C   0  0  0  0  0  0  0  0  0  0  0  0
  151.7188  138.9258  155.2323 C   0  0  0  0  0  0  0  0  0  0  0  0
  150.7485  139.6216  154.4549 O   0  0  0  0  0  0  0  0  0  0  0  0
  149.1712  140.6637  152.4386 H   0  0  0  0  0  0  0  0  0  0  0  0
  148.0251  141.4562  154.8066 H   0  0  0  0  0  0  0  0  0  0  0  0
  147.8972  139.9561  153.9037 H   0  0  0  0  0  0  0  0  0  0  0  0
  149.1557  139.1481  155.6980 H   0  0  0  0  0  0  0  0  0  0  0  0
  150.5040  141.8952  155.8669 H   0  0  0  0  0  0  0  0  0  0  0  0
  149.2676  141.2877  156.9573 H   0  0  0  0  0  0  0  0  0  0  0  0
  151.3582  144.2245  159.2845 H   0  0  0  0  0  0  0  0  0  0  0  0
  153.1707  140.8197  161.2230 H   0  0  0  0  0  0  0  0  0  0  0  0
  152.7862  140.6872  155.9020 H   0  0  0  0  0  0  0  0  0  0  0  0
  152.9417  139.3104  156.9828 H   0  0  0  0  0  0  0  0  0  0  0  0
  152.5380  138.6150  154.5841 H   0  0  0  0  0  0  0  0  0  0  0  0
  151.2825  138.0185  155.6530 H   0  0  0  0  0  0  0  0  0  0  0  0
  1  2  1  0  0  0  0
  1 17  1  0  0  0  0
  2  3  1  0  0  0  0
  2 18  1  0  0  0  0
  2 19  1  0  0  0  0
  3 16  1  0  0  0  0
  3  4  1  0  0  0  0
  3 20  1  0  0  0  0
  4  5  1  0  0  0  0
  4 21  1  0  0  0  0
  4 22  1  0  0  0  0
  5  6  1  0  0  0  0
  5 14  1  0  0  0  0
  6 12  1  0  0  0  0
  6  7  2  0  0  0  0
  7  8  1  0  0  0  0
  8  9  2  0  0  0  0
  8 23  1  0  0  0  0
  9 10  1  0  0  0  0
  9 11  1  0  0  0  0
 11 12  2  0  0  0  0
 11 24  1  0  0  0  0
 12 13  1  0  0  0  0
 14 15  1  0  0  0  0
 14 25  1  0  0  0  0
 14 26  1  0  0  0  0
 15 16  1  0  0  0  0
 15 27  1  0  0  0  0
 15 28  1  0  0  0  0
M  END
> <s_m_source_file>
AV-unprocessed.smi

> <i_m_source_file_index>
2833

> <i_lp_mmshare_version>
43012

> <i_f3d_flags>
0

> <s_epik_input>
W09IXVtDSDJdW0NAQEhdMVtDSDJdTihbQ0gyXVtDSDJdTzEpYzJuW2NIXWMoQ2wpW2NIXWMyRg==

> <s_epik_cmdline>
J2VwaWtfcHl0aG9uJywgJy1waCcsICc3LjAnLCAnLXRuJywgJzgnLCAnLW1hJywgJzIwMCcsICctbWV0YWxfYmluZGluZycsICctaW1hZScsICc8aW5maWxlLm1hZT4nLCAnLW9tYWUnLCAnPG91dGZpbGUubWFlPic=

> <r_lp_tautomer_probability>
1

> <r_epik_Ionization_Penalty>
1.06846e-07

> <r_epik_Ionization_Penalty_Charging>
0

> <r_epik_Ionization_Penalty_Neutral>
1.06846e-07

> <r_epik_State_Penalty>
-0

> <r_epik_Charging_Adjusted_Penalty>
0

> <i_epik_Tot_Q>
0

> <i_epik_Tot_abs_Q>
0

> <r_epik_Metal_State_Penalty>
-0

> <b_epik_Metal_Only>
0

> <s_lp_Force_Field>
OPLS_2005

> <r_lp_Energy>
22.731

> <b_lp_Chiralities_Consistent>
1

> <s_lp_Variant>
AV-unprocessed.smi:2833-1

> <Gold.Version>
5.8.1

> <Gold.Id.Protein>
6NUR|6NUR_protein|mol2

> <Gold.PLP.Fitness>
39.1138

> <Gold.PLP.PLP>
-32.4896

> <Gold.PLP.part.hbond>
-3.5297

> <Gold.PLP.part.metal>
0.0000

> <Gold.PLP.part.buried>
-4.0115

> <Gold.PLP.part.nonpolar>
-25.2300

> <Gold.PLP.part.repulsive>
0.1652

> <Gold.PLP.ligand.clash>
0.0000

> <Gold.PLP.ligand.torsion>
0.7037

> <Gold.PLP.Chemscore.Hbond>
2.6413

> <Gold.PLP.Chemscore.CHOScore>
0.0000

> <Gold.PLP.Chemscore.Metal>
0.0000

> <Gold.Chemscore.Hbonds>
donor molecule, donor type, donor heavy atom, donor atom, acceptor molecule, acceptor atom, score
      L1  H     1    17       P1  7957  0.88
      P1  H  7989  7998       L1    16  1.00
      P1  H  8011  8017       L1     1  0.69

> <Gold.PLP.Chemscore.Internal.Correction>
0.1080

> <Gold.Rescore>
     Score         DG    S(hbond)    S(metal)    S(lipo)     H(rot)  DE(clash)    DE(int)     intcor
     12.71     -14.16       1.03        0.00      83.63       1.78       0.60       0.85       ----

> <Gold.Chemscore.Fitness>
12.7128

> <Gold.Chemscore.DG>
-14.1619

> <Gold.Chemscore.ZeroCoef>
-5.4800

> <Gold.Chemscore.Hbond>
1.0321

> <Gold.Chemscore.Metal>
0.0000

> <Gold.Chemscore.Lipo>
83.6293

> <Gold.Chemscore.Internal_Hbond>
0.0000

> <Gold.Chemscore.DEClash>
0.6032

> <Gold.Chemscore.DEInternal>
0.8459

> <Gold.Chemscore.Rot>
1.7773

> <Gold.Chemscore.Internal.Correction>
   9.000000E+99

> <Gold.Chemscore.Hbonds>
donor molecule, donor type, donor heavy atom, donor atom, acceptor molecule, acceptor atom, score
      L1  H     1    17       P1  7957  0.83
      P1  H  7989  7998       L1    16  0.58
      P1  H  8011  8017       L1     1  0.07

> <Gold.Chemscore.Hbond.Weighted>
-3.4472

> <Gold.Chemscore.Metal.Weighted>
-0.0000

> <Gold.Chemscore.Lipo.Weighted>
-9.7846

> <Gold.Chemscore.Internal_Hbond.Weighted>
0.0000

> <Gold.Chemscore.DEClash.Weighted>
0.6032

> <Gold.Chemscore.DEInternal.Weighted>
0.8459

> <Gold.Chemscore.Rot.Weighted>
4.5499

> <Gold.Chemscore.Internal.Correction.Weighted>
   9.000000E+99

> <Gold.Protein.RotatedTorsions>
[ 6907 6896 6895 6894 ] final   -1.19 input  -60.11 | X-H torsion
[ 7974 7965 7964 7962 ] final -123.08 input  175.53 | X-H torsion
[ 8008 7997 7996 7995 ] final   22.24 input   59.86 | X-H torsion
[ 10167 10162 10161 10158 ] final -142.08 input  -65.29 | X-H torsion
[ 10718 10713 10712 10709 ] final   77.79 input   66.30 | X-H torsion
[ 10763 10752 10751 10750 ] final -129.01 input  -60.55 | X-H torsion
[ 11005 11000 10999 10996 ] final  -78.52 input  -57.11 | X-H torsion

> <Gold.Protein.ActiveResidues>
 VAL166  LYS551  ARG553  GLY616  TRP617  ASP618  TYR619  PRO620  LYS621  CYS622 
 ASP623  PHE694  ASN695  SER759  ASP760  ASP761  ALA762  ILE779  LEU786  VAL792 
 PHE793  MET794  SER795  GLU796  ALA797  LYS798  CYS799  TRP800  GLU811  SER814 

> <Gold.Protein.RotatedAtoms>
  151.5501  135.1067  159.9947 H   0  0  0  0  0  0  0  0  0  0  0  0  # atno 6907 bound_to 6896
  152.4495  133.7597  159.6750 H   0  0  0  0  0  0  0  0  0  0  0  0  # atno 6908 bound_to 6896
  150.8419  133.7855  159.3081 H   0  0  0  0  0  0  0  0  0  0  0  0  # atno 6909 bound_to 6896
  145.0225  140.8000  143.4372 H   0  0  0  0  0  0  0  0  0  0  0  0  # atno 7974 bound_to 7965
  154.9627  140.3080  155.5023 H   0  0  0  0  0  0  0  0  0  0  0  0  # atno 8008 bound_to 7997
  156.2975  140.2298  156.4652 H   0  0  0  0  0  0  0  0  0  0  0  0  # atno 8009 bound_to 7997
  154.7950  140.0437  157.1218 H   0  0  0  0  0  0  0  0  0  0  0  0  # atno 8010 bound_to 7997
  139.8123  143.7686  152.2664 H   0  0  0  0  0  0  0  0  0  0  0  0  # atno 10167 bound_to 10162
  157.6722  130.9838  150.1692 H   0  0  0  0  0  0  0  0  0  0  0  0  # atno 10718 bound_to 10713
  154.8757  135.3909  154.3851 H   0  0  0  0  0  0  0  0  0  0  0  0  # atno 10763 bound_to 10752
  153.4593  135.7029  153.6065 H   0  0  0  0  0  0  0  0  0  0  0  0  # atno 10764 bound_to 10752
  153.4570  135.3820  155.2285 H   0  0  0  0  0  0  0  0  0  0  0  0  # atno 10765 bound_to 10752
  141.1665  133.7067  156.7984 H   0  0  0  0  0  0  0  0  0  0  0  0  # atno 11005 bound_to 11000
  145.1876  139.2318  143.5259 LP  0  0  0  0  0  0  0  0  0  0  0  0  # atno 17320 bound_to 7965
  146.3487  140.1665  142.8590 LP  0  0  0  0  0  0  0  0  0  0  0  0  # atno 17321 bound_to 7965
  139.7839  144.7435  151.0050 LP  0  0  0  0  0  0  0  0  0  0  0  0  # atno 17342 bound_to 10162
  140.7817  143.4513  151.0409 LP  0  0  0  0  0  0  0  0  0  0  0  0  # atno 17343 bound_to 10162
  156.2450  130.3694  149.8295 LP  0  0  0  0  0  0  0  0  0  0  0  0  # atno 17370 bound_to 10713
  156.6084  130.8576  151.3448 LP  0  0  0  0  0  0  0  0  0  0  0  0  # atno 17371 bound_to 10713
  140.2274  134.8711  157.3441 LP  0  0  0  0  0  0  0  0  0  0  0  0  # atno 17394 bound_to 11000
  140.1926  134.4353  155.7707 LP  0  0  0  0  0  0  0  0  0  0  0  0  # atno 17395 bound_to 11000

$$$$
