AV-unprocessed.smi:66|AV-procd|sdf|624|dock6
  -GOLD-   2262016513D 1   1.00000     0.00000
 Structure written by MMmdl.
 28 30  0  0  0  0  0  0  0  0  2 V2000
  151.5650  140.1425  154.7146 O   0  0  0  0  0  0  0  0  0  0  0  0
  152.0222  139.6108  155.7498 C   0  0  0  0  0  0  0  0  0  0  0  0
  153.1495  139.0775  155.8510 O   0  5  0  0  0  0  0  0  0  0  0  0
  151.1105  139.6198  156.9883 C   0  0  1  0  0  0  0  0  0  0  0  0
  150.7437  138.1938  157.4369 C   0  0  0  0  0  0  0  0  0  0  0  0
  151.7630  137.8863  158.5337 C   0  0  2  0  0  0  0  0  0  0  0  0
  151.3117  136.8944  159.4319 O   0  0  0  0  0  0  0  0  0  0  0  0
  151.9511  139.2447  159.2100 C   0  0  0  0  0  0  0  0  0  0  0  0
  151.7741  140.2245  158.1442 N   0  0  0  0  0  0  0  0  0  0  0  0
  151.7171  141.6052  158.4384 C   0  0  0  0  0  0  0  0  0  0  0  0
  151.3562  142.4570  157.4479 N   0  0  0  0  0  0  0  0  0  0  0  0
  151.3045  143.7675  157.7175 C   0  0  0  0  0  0  0  0  0  0  0  0
  151.5645  144.4056  158.8681 N   0  0  0  0  0  0  0  0  0  0  0  0
  151.9168  143.5823  159.8640 C   0  0  0  0  0  0  0  0  0  0  0  0
  152.2334  143.9660  161.1601 N   0  0  0  0  0  0  0  0  0  0  0  0
  152.4956  142.7949  161.7367 C   0  0  0  0  0  0  0  0  0  0  0  0
  152.3871  141.7087  160.9555 N   0  0  0  0  0  0  0  0  0  0  0  0
  152.0087  142.1660  159.7029 C   0  0  0  0  0  0  0  0  0  0  0  0
  152.5353  140.7531  161.2522 H   0  0  0  0  0  0  0  0  0  0  0  0
  150.1931  140.1595  156.7515 H   0  0  0  0  0  0  0  0  0  0  0  0
  149.7352  138.1991  157.8533 H   0  0  0  0  0  0  0  0  0  0  0  0
  150.7599  137.4588  156.6306 H   0  0  0  0  0  0  0  0  0  0  0  0
  152.7027  137.5640  158.0831 H   0  0  0  0  0  0  0  0  0  0  0  0
  151.3033  137.2625  160.3019 H   0  0  0  0  0  0  0  0  0  0  0  0
  151.1898  139.4057  159.9754 H   0  0  0  0  0  0  0  0  0  0  0  0
  152.9333  139.3268  159.6771 H   0  0  0  0  0  0  0  0  0  0  0  0
  151.0139  144.3996  156.8915 H   0  0  0  0  0  0  0  0  0  0  0  0
  152.7758  142.7216  162.7773 H   0  0  0  0  0  0  0  0  0  0  0  0
  1  2  2  0  0  0  0
  2  3  1  0  0  0  0
  2  4  1  0  0  0  0
  4  9  1  0  0  0  0
  4  5  1  0  0  0  0
  4 20  1  0  0  0  0
  5  6  1  0  0  0  0
  5 21  1  0  0  0  0
  5 22  1  0  0  0  0
  6  7  1  0  0  0  0
  6  8  1  0  0  0  0
  6 23  1  0  0  0  0
  7 24  1  0  0  0  0
  8  9  1  0  0  0  0
  8 25  1  0  0  0  0
  8 26  1  0  0  0  0
  9 10  1  0  0  0  0
 10 18  1  0  0  0  0
 10 11  2  0  0  0  0
 11 12  1  0  0  0  0
 12 13  2  0  0  0  0
 12 27  1  0  0  0  0
 13 14  1  0  0  0  0
 14 18  2  0  0  0  0
 14 15  1  0  0  0  0
 15 16  2  0  0  0  0
 16 17  1  0  0  0  0
 16 28  1  0  0  0  0
 17 19  1  0  0  0  0
 17 18  1  0  0  0  0
M  CHG  1   3  -1
M  END
> <s_m_source_file>
AV-unprocessed.smi

> <i_m_source_file_index>
66

> <i_lp_mmshare_version>
43012

> <i_f3d_flags>
0

> <s_epik_input>
Tz1DKFtPSF0pW0NAQEhdMVtDSDJdW0NAQEhdKFtPSF0pW0NIMl1OMWMobltjSF1uMiljKGMyMylbbkhdW2NIXW4z

> <s_epik_cmdline>
J2VwaWtfcHl0aG9uJywgJy1waCcsICc3LjAnLCAnLXRuJywgJzgnLCAnLW1hJywgJzIwMCcsICctbWV0YWxfYmluZGluZycsICctaW1hZScsICc8aW5maWxlLm1hZT4nLCAnLW9tYWUnLCAnPG91dGZpbGUubWFlPic=

> <r_lp_tautomer_probability>
0.0419193

> <r_epik_Ionization_Penalty>
0.0157405

> <r_epik_Ionization_Penalty_Charging>
0.000248217

> <r_epik_Ionization_Penalty_Neutral>
0.0154923

> <r_epik_State_Penalty>
1.99742

> <r_epik_Charging_Adjusted_Penalty>
1.99767

> <i_epik_Tot_Q>
-1

> <i_epik_Tot_abs_Q>
1

> <r_epik_Metal_State_Penalty>
2.31035

> <b_epik_Metal_Only>
0

> <s_lp_Force_Field>
OPLS_2005

> <r_lp_Energy>
19.7313

> <b_lp_Chiralities_Consistent>
1

> <s_lp_Variant>
AV-unprocessed.smi:66-8

> <Gold.Version>
5.8.1

> <Gold.Id.Protein>
6NUR|6NUR_protein|mol2

> <Gold.PLP.Fitness>
45.6151

> <Gold.PLP.PLP>
-30.6886

> <Gold.PLP.part.hbond>
-2.8033

> <Gold.PLP.part.metal>
0.0000

> <Gold.PLP.part.buried>
-5.2594

> <Gold.PLP.part.nonpolar>
-22.9895

> <Gold.PLP.part.repulsive>
0.4283

> <Gold.PLP.ligand.clash>
0.0000

> <Gold.PLP.ligand.torsion>
0.1280

> <Gold.PLP.Chemscore.Hbond>
4.0000

> <Gold.PLP.Chemscore.CHOScore>
1.0000

> <Gold.PLP.Chemscore.Metal>
0.0000

> <Gold.Chemscore.Hbonds>
donor molecule, donor type, donor heavy atom, donor atom, acceptor molecule, acceptor atom, score
      P1  H  6896  6909       L1     7  0.90
      P1  H  7989  7998       L1     1  0.70
      P1  H  7997  8009       L1     3  2.00
      L1  C    12    27       P1  8028  1.00

> <Gold.PLP.Chemscore.Internal.Correction>
0.1824

> <Gold.Rescore>
     Score         DG    S(hbond)    S(metal)    S(lipo)     H(rot)  DE(clash)    DE(int)     intcor
     12.98     -13.94       2.96        0.00      26.94       1.78       0.01       0.95       ----

> <Gold.Chemscore.Fitness>
12.9754

> <Gold.Chemscore.DG>
-13.9358

> <Gold.Chemscore.ZeroCoef>
-5.4800

> <Gold.Chemscore.Hbond>
2.9555

> <Gold.Chemscore.Metal>
0.0000

> <Gold.Chemscore.Lipo>
26.9396

> <Gold.Chemscore.Internal_Hbond>
0.0000

> <Gold.Chemscore.DEClash>
0.0110

> <Gold.Chemscore.DEInternal>
0.9494

> <Gold.Chemscore.Rot>
1.7842

> <Gold.Chemscore.Internal.Correction>
   9.000000E+99

> <Gold.Chemscore.Hbonds>
donor molecule, donor type, donor heavy atom, donor atom, acceptor molecule, acceptor atom, score
      P1  H  6896  6909       L1     7  0.18
      P1  H  7989  7998       L1     1  0.69
      P1  H  7997  8009       L1     3  0.85

> <Gold.Chemscore.Hbond.Weighted>
-9.8715

> <Gold.Chemscore.Metal.Weighted>
-0.0000

> <Gold.Chemscore.Lipo.Weighted>
-3.1519

> <Gold.Chemscore.Internal_Hbond.Weighted>
0.0000

> <Gold.Chemscore.DEClash.Weighted>
0.0110

> <Gold.Chemscore.DEInternal.Weighted>
0.9494

> <Gold.Chemscore.Rot.Weighted>
4.5676

> <Gold.Chemscore.Internal.Correction.Weighted>
   9.000000E+99

> <Gold.Protein.RotatedTorsions>
[ 6907 6896 6895 6894 ] final  102.92 input  -60.11 | X-H torsion
[ 7974 7965 7964 7962 ] final -107.65 input  175.53 | X-H torsion
[ 8008 7997 7996 7995 ] final -141.77 input   59.86 | X-H torsion
[ 10167 10162 10161 10158 ] final  -13.10 input  -65.29 | X-H torsion
[ 10718 10713 10712 10709 ] final   -5.21 input   66.30 | X-H torsion
[ 10763 10752 10751 10750 ] final -173.98 input  -60.55 | X-H torsion
[ 11005 11000 10999 10996 ] final  119.85 input  -57.11 | X-H torsion

> <Gold.Protein.ActiveResidues>
 VAL166  LYS551  ARG553  GLY616  TRP617  ASP618  TYR619  PRO620  LYS621  CYS622 
 ASP623  PHE694  ASN695  SER759  ASP760  ASP761  ALA762  ILE779  LEU786  VAL792 
 PHE793  MET794  SER795  GLU796  ALA797  LYS798  CYS799  TRP800  GLU811  SER814 

> <Gold.Protein.RotatedAtoms>
  152.5310  133.9903  159.7847 H   0  0  0  0  0  0  0  0  0  0  0  0  # atno 6907 bound_to 6896
  151.0140  133.5930  159.2686 H   0  0  0  0  0  0  0  0  0  0  0  0  # atno 6908 bound_to 6896
  151.2994  135.0771  159.9286 H   0  0  0  0  0  0  0  0  0  0  0  0  # atno 6909 bound_to 6896
  145.2027  140.9063  143.3360 H   0  0  0  0  0  0  0  0  0  0  0  0  # atno 7974 bound_to 7965
  155.4833  140.0562  157.2964 H   0  0  0  0  0  0  0  0  0  0  0  0  # atno 8008 bound_to 7997
  154.4651  140.2015  156.0091 H   0  0  0  0  0  0  0  0  0  0  0  0  # atno 8009 bound_to 7997
  156.0961  140.3226  155.7883 H   0  0  0  0  0  0  0  0  0  0  0  0  # atno 8010 bound_to 7997
  140.7175  143.5462  150.9353 H   0  0  0  0  0  0  0  0  0  0  0  0  # atno 10167 bound_to 10162
  156.7499  130.5236  149.5806 H   0  0  0  0  0  0  0  0  0  0  0  0  # atno 10718 bound_to 10713
  154.6015  135.2855  155.0530 H   0  0  0  0  0  0  0  0  0  0  0  0  # atno 10763 bound_to 10752
  154.1793  135.6459  153.5034 H   0  0  0  0  0  0  0  0  0  0  0  0  # atno 10764 bound_to 10752
  153.0159  135.5420  154.6736 H   0  0  0  0  0  0  0  0  0  0  0  0  # atno 10765 bound_to 10752
  139.9162  134.9631  156.7717 H   0  0  0  0  0  0  0  0  0  0  0  0  # atno 11005 bound_to 11000
  144.9932  139.3669  143.6204 LP  0  0  0  0  0  0  0  0  0  0  0  0  # atno 17320 bound_to 7965
  146.3414  139.9124  142.8778 LP  0  0  0  0  0  0  0  0  0  0  0  0  # atno 17321 bound_to 7965
  139.9185  143.6634  152.3101 LP  0  0  0  0  0  0  0  0  0  0  0  0  # atno 17342 bound_to 10162
  139.7043  144.7630  151.1220 LP  0  0  0  0  0  0  0  0  0  0  0  0  # atno 17343 bound_to 10162
  156.1408  130.6243  151.0465 LP  0  0  0  0  0  0  0  0  0  0  0  0  # atno 17370 bound_to 10713
  157.6782  131.0845  150.7440 LP  0  0  0  0  0  0  0  0  0  0  0  0  # atno 17371 bound_to 10713
  140.6615  133.9641  155.7807 LP  0  0  0  0  0  0  0  0  0  0  0  0  # atno 17394 bound_to 11000
  141.0640  134.0304  157.3619 LP  0  0  0  0  0  0  0  0  0  0  0  0  # atno 17395 bound_to 11000

$$$$
