AV-unprocessed.smi:2295|AV-procd|sdf|9218|dock4
  -GOLD-   2272012433D 1   1.00000     0.00000
 Structure written by MMmdl.
 37 38  0  0  0  0  0  0  0  0  1 V2000
  150.7701  140.4989  155.4869 C   0  0  0  0  0  0  0  0  0  0  0  0
  149.4322  140.4611  154.7784 C   0  0  0  0  0  0  0  0  0  0  0  0
  148.6088  141.6020  154.7266 C   0  0  0  0  0  0  0  0  0  0  0  0
  147.3763  141.5021  154.0517 C   0  0  0  0  0  0  0  0  0  0  0  0
  146.4379  142.6870  153.9615 C   0  0  0  0  0  0  0  0  0  0  0  0
  146.9533  140.3674  153.4549 N   0  0  0  0  0  0  0  0  0  0  0  0
  147.7380  139.2622  153.4981 C   0  0  0  0  0  0  0  0  0  0  0  0
  147.3827  138.0209  152.9063 N   0  0  0  0  0  0  0  0  0  0  0  0
  146.1518  137.5544  152.6311 C   0  0  0  0  0  0  0  0  0  0  0  0
  145.0992  138.1618  152.8302 O   0  0  0  0  0  0  0  0  0  0  0  0
  146.2086  136.3251  152.0976 N   0  0  0  0  0  0  0  0  0  0  0  0
  145.0596  135.5292  151.6749 C   0  0  0  0  0  0  0  0  0  0  0  0
  145.4782  134.3205  150.8170 C   0  0  2  0  0  0  0  0  0  0  0  0
  144.2868  133.4290  150.4396 C   0  0  0  0  0  0  0  0  0  0  0  0
  144.8472  132.0478  150.0987 C   0  0  0  0  0  0  0  0  0  0  0  0
  145.8527  131.7103  151.1991 C   0  0  0  0  0  0  0  0  0  0  0  0
  146.6924  133.2503  151.6466 S   0  0  0  0  0  0  0  0  0  0  0  0
  148.9879  139.2765  154.1572 C   0  0  0  0  0  0  0  0  0  0  0  0
  150.9899  141.4973  155.8664 H   0  0  0  0  0  0  0  0  0  0  0  0
  151.5687  140.2120  154.8026 H   0  0  0  0  0  0  0  0  0  0  0  0
  150.7711  139.8055  156.3281 H   0  0  0  0  0  0  0  0  0  0  0  0
  148.9126  142.5286  155.1916 H   0  0  0  0  0  0  0  0  0  0  0  0
  146.8886  143.5829  154.3891 H   0  0  0  0  0  0  0  0  0  0  0  0
  145.5142  142.4785  154.5020 H   0  0  0  0  0  0  0  0  0  0  0  0
  146.1874  142.8958  152.9210 H   0  0  0  0  0  0  0  0  0  0  0  0
  148.1550  137.4170  152.6677 H   0  0  0  0  0  0  0  0  0  0  0  0
  147.1181  135.9053  151.9736 H   0  0  0  0  0  0  0  0  0  0  0  0
  144.4628  135.2035  152.5287 H   0  0  0  0  0  0  0  0  0  0  0  0
  144.4139  136.1830  151.0880 H   0  0  0  0  0  0  0  0  0  0  0  0
  145.9446  134.6714  149.8953 H   0  0  0  0  0  0  0  0  0  0  0  0
  143.6055  133.3375  151.2870 H   0  0  0  0  0  0  0  0  0  0  0  0
  143.7159  133.8495  149.6112 H   0  0  0  0  0  0  0  0  0  0  0  0
  144.0614  131.2956  150.0231 H   0  0  0  0  0  0  0  0  0  0  0  0
  145.3559  132.0866  149.1346 H   0  0  0  0  0  0  0  0  0  0  0  0
  145.3308  131.3392  152.0817 H   0  0  0  0  0  0  0  0  0  0  0  0
  146.5671  130.9481  150.8879 H   0  0  0  0  0  0  0  0  0  0  0  0
  149.6033  138.3888  154.1859 H   0  0  0  0  0  0  0  0  0  0  0  0
  1  2  1  0  0  0  0
  1 19  1  0  0  0  0
  1 20  1  0  0  0  0
  1 21  1  0  0  0  0
  2 18  1  0  0  0  0
  2  3  2  0  0  0  0
  3  4  1  0  0  0  0
  3 22  1  0  0  0  0
  4  5  1  0  0  0  0
  4  6  2  0  0  0  0
  5 23  1  0  0  0  0
  5 24  1  0  0  0  0
  5 25  1  0  0  0  0
  6  7  1  0  0  0  0
  7  8  1  0  0  0  0
  7 18  2  0  0  0  0
  8  9  1  0  0  0  0
  8 26  1  0  0  0  0
  9 10  2  0  0  0  0
  9 11  1  0  0  0  0
 11 12  1  0  0  0  0
 11 27  1  0  0  0  0
 12 13  1  0  0  0  0
 12 28  1  0  0  0  0
 12 29  1  0  0  0  0
 13 17  1  0  0  0  0
 13 14  1  0  0  0  0
 13 30  1  0  0  0  0
 14 15  1  0  0  0  0
 14 31  1  0  0  0  0
 14 32  1  0  0  0  0
 15 16  1  0  0  0  0
 15 33  1  0  0  0  0
 15 34  1  0  0  0  0
 16 17  1  0  0  0  0
 16 35  1  0  0  0  0
 16 36  1  0  0  0  0
 18 37  1  0  0  0  0
M  END
> <s_m_source_file>
AV-unprocessed.smi

> <i_m_source_file_index>
2295

> <i_lp_mmshare_version>
43012

> <i_f3d_flags>
0

> <s_epik_input>
W0NIM11jMVtjSF1jKFtDSDNdKW5jKFtjSF0xKVtOSF1DKD1PKVtOSF1bQ0gyXVtDQEBIXTJbQ0gyXVtDSDJdW0NIMl1TMg==

> <s_epik_cmdline>
J2VwaWtfcHl0aG9uJywgJy1waCcsICc3LjAnLCAnLXRuJywgJzgnLCAnLW1hJywgJzIwMCcsICctbWV0YWxfYmluZGluZycsICctaW1hZScsICc8aW5maWxlLm1hZT4nLCAnLW9tYWUnLCAnPG91dGZpbGUubWFlPic=

> <r_lp_tautomer_probability>
1

> <r_epik_Ionization_Penalty>
0.000247769

> <r_epik_Ionization_Penalty_Charging>
0

> <r_epik_Ionization_Penalty_Neutral>
0.000247769

> <r_epik_State_Penalty>
-0

> <r_epik_Charging_Adjusted_Penalty>
0

> <i_epik_Tot_Q>
0

> <i_epik_Tot_abs_Q>
0

> <r_epik_Metal_State_Penalty>
-0

> <b_epik_Metal_Only>
0

> <s_lp_Force_Field>
OPLS_2005

> <r_lp_Energy>
13.4664

> <b_lp_Chiralities_Consistent>
1

> <s_lp_Variant>
AV-unprocessed.smi:2295-1

> <Gold.Version>
5.8.1

> <Gold.Id.Protein>
6NUR|6NUR_protein|mol2

> <Gold.PLP.Fitness>
40.7621

> <Gold.PLP.PLP>
-35.4080

> <Gold.PLP.part.hbond>
-2.0000

> <Gold.PLP.part.metal>
0.0000

> <Gold.PLP.part.buried>
-2.9218

> <Gold.PLP.part.nonpolar>
-33.3053

> <Gold.PLP.part.repulsive>
3.0411

> <Gold.PLP.ligand.clash>
0.0000

> <Gold.PLP.ligand.torsion>
0.2153

> <Gold.PLP.Chemscore.Hbond>
1.9280

> <Gold.PLP.Chemscore.CHOScore>
0.0000

> <Gold.PLP.Chemscore.Metal>
0.0000

> <Gold.Chemscore.Hbonds>
donor molecule, donor type, donor heavy atom, donor atom, acceptor molecule, acceptor atom, score
      L1  H     8    26       P1  7948  1.00
      L1  H    11    27       P1  7948  0.91

> <Gold.PLP.Chemscore.Internal.Correction>
0.0006

> <Gold.Rescore>
     Score         DG    S(hbond)    S(metal)    S(lipo)     H(rot)  DE(clash)    DE(int)     intcor
     16.04     -18.74       1.87        0.00      85.69       1.17       1.29       1.41       ----

> <Gold.Chemscore.Fitness>
16.0353

> <Gold.Chemscore.DG>
-18.7406

> <Gold.Chemscore.ZeroCoef>
-5.4800

> <Gold.Chemscore.Hbond>
1.8658

> <Gold.Chemscore.Metal>
0.0000

> <Gold.Chemscore.Lipo>
85.6949

> <Gold.Chemscore.Internal_Hbond>
0.0000

> <Gold.Chemscore.DEClash>
1.2914

> <Gold.Chemscore.DEInternal>
1.4139

> <Gold.Chemscore.Rot>
1.1709

> <Gold.Chemscore.Internal.Correction>
   9.000000E+99

> <Gold.Chemscore.Hbonds>
donor molecule, donor type, donor heavy atom, donor atom, acceptor molecule, acceptor atom, score
      L1  H     8    26       P1  7948  0.98
      L1  H    11    27       P1  7948  0.90

> <Gold.Chemscore.Hbond.Weighted>
-6.2318

> <Gold.Chemscore.Metal.Weighted>
-0.0000

> <Gold.Chemscore.Lipo.Weighted>
-10.0263

> <Gold.Chemscore.Internal_Hbond.Weighted>
0.0000

> <Gold.Chemscore.DEClash.Weighted>
1.2914

> <Gold.Chemscore.DEInternal.Weighted>
1.4139

> <Gold.Chemscore.Rot.Weighted>
2.9975

> <Gold.Chemscore.Internal.Correction.Weighted>
   9.000000E+99

> <Gold.Protein.RotatedTorsions>
[ 6907 6896 6895 6894 ] final  -28.15 input  -60.11 | X-H torsion
[ 7974 7965 7964 7962 ] final  -77.46 input  175.53 | X-H torsion
[ 8008 7997 7996 7995 ] final  141.15 input   59.86 | X-H torsion
[ 10167 10162 10161 10158 ] final  -93.94 input  -65.29 | X-H torsion
[ 10718 10713 10712 10709 ] final -176.19 input   66.30 | X-H torsion
[ 10763 10752 10751 10750 ] final   31.75 input  -60.55 | X-H torsion
[ 11005 11000 10999 10996 ] final   -6.56 input  -57.11 | X-H torsion

> <Gold.Protein.ActiveResidues>
 VAL166  LYS551  ARG553  GLY616  TRP617  ASP618  TYR619  PRO620  LYS621  CYS622 
 ASP623  PHE694  ASN695  SER759  ASP760  ASP761  ALA762  ILE779  LEU786  VAL792 
 PHE793  MET794  SER795  GLU796  ALA797  LYS798  CYS799  TRP800  GLU811  SER814 

> <Gold.Protein.RotatedAtoms>
  151.1370  135.0160  159.8608 H   0  0  0  0  0  0  0  0  0  0  0  0  # atno 6907 bound_to 6896
  152.5452  134.1543  159.8542 H   0  0  0  0  0  0  0  0  0  0  0  0  # atno 6908 bound_to 6896
  151.1615  133.4796  159.2627 H   0  0  0  0  0  0  0  0  0  0  0  0  # atno 6909 bound_to 6896
  145.5994  140.9412  143.1249 H   0  0  0  0  0  0  0  0  0  0  0  0  # atno 7974 bound_to 7965
  156.2970  140.2322  156.4518 H   0  0  0  0  0  0  0  0  0  0  0  0  # atno 8008 bound_to 7997
  154.8095  140.0444  157.1353 H   0  0  0  0  0  0  0  0  0  0  0  0  # atno 8009 bound_to 7997
  154.9440  140.3033  155.5110 H   0  0  0  0  0  0  0  0  0  0  0  0  # atno 8010 bound_to 7997
  140.3195  143.3057  152.0061 H   0  0  0  0  0  0  0  0  0  0  0  0  # atno 10167 bound_to 10162
  156.8111  130.9586  151.3116 H   0  0  0  0  0  0  0  0  0  0  0  0  # atno 10718 bound_to 10713
  153.0299  135.6431  154.1248 H   0  0  0  0  0  0  0  0  0  0  0  0  # atno 10763 bound_to 10752
  154.0972  135.2862  155.3261 H   0  0  0  0  0  0  0  0  0  0  0  0  # atno 10764 bound_to 10752
  154.6424  135.5455  153.7868 H   0  0  0  0  0  0  0  0  0  0  0  0  # atno 10765 bound_to 10752
  140.7033  133.8971  155.8698 H   0  0  0  0  0  0  0  0  0  0  0  0  # atno 11005 bound_to 11000
  144.7316  139.7708  143.7345 LP  0  0  0  0  0  0  0  0  0  0  0  0  # atno 17320 bound_to 7965
  146.1587  139.4694  143.0002 LP  0  0  0  0  0  0  0  0  0  0  0  0  # atno 17321 bound_to 7965
  139.4877  144.6322  151.7048 LP  0  0  0  0  0  0  0  0  0  0  0  0  # atno 17342 bound_to 10162
  140.5496  144.0447  150.6121 LP  0  0  0  0  0  0  0  0  0  0  0  0  # atno 17343 bound_to 10162
  157.6505  130.8881  149.9624 LP  0  0  0  0  0  0  0  0  0  0  0  0  # atno 17370 bound_to 10713
  156.1044  130.3653  150.0160 LP  0  0  0  0  0  0  0  0  0  0  0  0  # atno 17371 bound_to 10713
  141.0146  134.0974  157.4186 LP  0  0  0  0  0  0  0  0  0  0  0  0  # atno 17394 bound_to 11000
  139.8891  135.0102  156.6659 LP  0  0  0  0  0  0  0  0  0  0  0  0  # atno 17395 bound_to 11000

$$$$
