AV-unprocessed.smi:627|AV-procd|sdf|3113|dock7
  -GOLD-   22720 0 33D 1   1.00000     0.00000
 Structure written by MMmdl.
 40 42  0  0  0  0  0  0  0  0  1 V2000
  155.3984  143.5162  168.2759 C   0  0  0  0  0  0  0  0  0  0  0  0
  156.4185  144.2046  166.9096 S   0  0  0  0  0  0  0  0  0  0  0  0
  156.1881  145.6571  166.8620 O   0  0  0  0  0  0  0  0  0  0  0  0
  157.7898  143.6914  167.0531 O   0  0  0  0  0  0  0  0  0  0  0  0
  155.7088  143.4737  165.4389 C   0  0  0  0  0  0  0  0  0  0  0  0
  156.2215  142.2664  164.9228 C   0  0  0  0  0  0  0  0  0  0  0  0
  155.6474  141.7518  163.7450 C   0  0  0  0  0  0  0  0  0  0  0  0
  154.5884  142.4647  163.1312 C   0  0  0  0  0  0  0  0  0  0  0  0
  153.9402  142.0542  161.9355 N   0  0  0  0  0  0  0  0  0  0  0  0
  153.0205  142.7204  161.2167 C   0  0  0  0  0  0  0  0  0  0  0  0
  152.5755  143.8346  161.4913 O   0  0  0  0  0  0  0  0  0  0  0  0
  152.6545  142.0207  160.1329 N   0  0  0  0  0  0  0  0  0  0  0  0
  151.6978  142.4584  159.1213 C   0  0  0  0  0  0  0  0  0  0  0  0
  151.6960  141.5338  157.9181 C   0  0  0  0  0  0  0  0  0  0  0  0
  150.4625  141.3550  157.0648 C   0  0  0  0  0  0  0  0  0  0  0  0
  150.9468  140.2233  157.9432 C   0  0  0  0  0  0  0  0  0  0  0  0
  151.9334  143.8943  158.6824 C   0  0  0  0  0  0  0  0  0  0  0  0
  150.7833  144.8246  158.3767 C   0  0  0  0  0  0  0  0  0  0  0  0
  151.6756  144.3331  157.2599 C   0  0  0  0  0  0  0  0  0  0  0  0
  154.1803  143.6800  163.7220 C   0  0  0  0  0  0  0  0  0  0  0  0
  154.7222  144.1831  164.8508 N   0  0  0  0  0  0  0  0  0  0  0  0
  155.7554  143.9080  169.2279 H   0  0  0  0  0  0  0  0  0  0  0  0
  155.4788  142.4293  168.2783 H   0  0  0  0  0  0  0  0  0  0  0  0
  154.3571  143.8026  168.1318 H   0  0  0  0  0  0  0  0  0  0  0  0
  157.0325  141.7455  165.4098 H   0  0  0  0  0  0  0  0  0  0  0  0
  156.0379  140.8354  163.3303 H   0  0  0  0  0  0  0  0  0  0  0  0
  154.2689  141.1853  161.5403 H   0  0  0  0  0  0  0  0  0  0  0  0
  153.0769  141.1151  159.9910 H   0  0  0  0  0  0  0  0  0  0  0  0
  150.6967  142.4092  159.5551 H   0  0  0  0  0  0  0  0  0  0  0  0
  152.6426  141.5224  157.3805 H   0  0  0  0  0  0  0  0  0  0  0  0
  149.5511  141.8658  157.3686 H   0  0  0  0  0  0  0  0  0  0  0  0
  150.6056  141.2563  155.9906 H   0  0  0  0  0  0  0  0  0  0  0  0
  151.4122  139.3698  157.4544 H   0  0  0  0  0  0  0  0  0  0  0  0
  150.3626  139.9910  158.8315 H   0  0  0  0  0  0  0  0  0  0  0  0
  152.7944  144.3553  159.1630 H   0  0  0  0  0  0  0  0  0  0  0  0
  149.7738  144.4211  158.4240 H   0  0  0  0  0  0  0  0  0  0  0  0
  150.8846  145.8637  158.6829 H   0  0  0  0  0  0  0  0  0  0  0  0
  152.3707  145.0454  156.8202 H   0  0  0  0  0  0  0  0  0  0  0  0
  151.2517  143.6077  156.5685 H   0  0  0  0  0  0  0  0  0  0  0  0
  153.3895  144.2668  163.2780 H   0  0  0  0  0  0  0  0  0  0  0  0
  1  2  1  0  0  0  0
  1 22  1  0  0  0  0
  1 23  1  0  0  0  0
  1 24  1  0  0  0  0
  2  3  2  0  0  0  0
  2  4  2  0  0  0  0
  2  5  1  0  0  0  0
  5 21  1  0  0  0  0
  5  6  2  0  0  0  0
  6  7  1  0  0  0  0
  6 25  1  0  0  0  0
  7  8  2  0  0  0  0
  7 26  1  0  0  0  0
  8  9  1  0  0  0  0
  8 20  1  0  0  0  0
  9 10  1  0  0  0  0
  9 27  1  0  0  0  0
 10 11  2  0  0  0  0
 10 12  1  0  0  0  0
 12 13  1  0  0  0  0
 12 28  1  0  0  0  0
 13 14  1  0  0  0  0
 13 17  1  0  0  0  0
 13 29  1  0  0  0  0
 14 16  1  0  0  0  0
 14 15  1  0  0  0  0
 14 30  1  0  0  0  0
 15 16  1  0  0  0  0
 15 31  1  0  0  0  0
 15 32  1  0  0  0  0
 16 33  1  0  0  0  0
 16 34  1  0  0  0  0
 17 19  1  0  0  0  0
 17 18  1  0  0  0  0
 17 35  1  0  0  0  0
 18 19  1  0  0  0  0
 18 36  1  0  0  0  0
 18 37  1  0  0  0  0
 19 38  1  0  0  0  0
 19 39  1  0  0  0  0
 20 21  2  0  0  0  0
 20 40  1  0  0  0  0
M  END
> <s_m_source_file>
AV-unprocessed.smi

> <i_m_source_file_index>
627

> <i_lp_mmshare_version>
43012

> <i_f3d_flags>
0

> <s_epik_input>
W0NIM11TKD1PKSg9TyljMVtjSF1bY0hdYyhbY0hdbjEpW05IXUMoPU8pW05IXVtDSF0oW0NIXTJbQ0gyXVtDSDJdMilbQ0hdM1tDSDJdW0NIMl0z

> <s_epik_cmdline>
J2VwaWtfcHl0aG9uJywgJy1waCcsICc3LjAnLCAnLXRuJywgJzgnLCAnLW1hJywgJzIwMCcsICctbWV0YWxfYmluZGluZycsICctaW1hZScsICc8aW5maWxlLm1hZT4nLCAnLW9tYWUnLCAnPG91dGZpbGUubWFlPic=

> <r_lp_tautomer_probability>
1

> <r_epik_Ionization_Penalty>
4.12334e-05

> <r_epik_Ionization_Penalty_Charging>
0

> <r_epik_Ionization_Penalty_Neutral>
4.12334e-05

> <r_epik_State_Penalty>
-0

> <r_epik_Charging_Adjusted_Penalty>
0

> <i_epik_Tot_Q>
0

> <i_epik_Tot_abs_Q>
0

> <r_epik_Metal_State_Penalty>
-0

> <b_epik_Metal_Only>
0

> <s_lp_Force_Field>
OPLS_2005

> <r_lp_Energy>
25.9195

> <b_lp_Chiralities_Consistent>
1

> <s_lp_Variant>
AV-unprocessed.smi:627-1

> <Gold.Version>
5.8.1

> <Gold.Id.Protein>
6NUR|6NUR_protein|mol2

> <Gold.PLP.Fitness>
40.9562

> <Gold.PLP.PLP>
-42.1087

> <Gold.PLP.part.hbond>
-1.1505

> <Gold.PLP.part.metal>
0.0000

> <Gold.PLP.part.buried>
-5.0609

> <Gold.PLP.part.nonpolar>
-35.5095

> <Gold.PLP.part.repulsive>
0.3095

> <Gold.PLP.ligand.clash>
0.0000

> <Gold.PLP.ligand.torsion>
2.6514

> <Gold.PLP.Chemscore.Hbond>
0.0000

> <Gold.PLP.Chemscore.CHOScore>
0.0000

> <Gold.PLP.Chemscore.Metal>
0.0000

> <Gold.PLP.Chemscore.Internal.Correction>
4.1504

> <Gold.Rescore>
     Score         DG    S(hbond)    S(metal)    S(lipo)     H(rot)  DE(clash)    DE(int)     intcor
      8.45     -14.51       0.00        0.00     107.73       1.40       0.50       5.57       ----

> <Gold.Chemscore.Fitness>
8.4465

> <Gold.Chemscore.DG>
-14.5113

> <Gold.Chemscore.ZeroCoef>
-5.4800

> <Gold.Chemscore.Hbond>
0.0000

> <Gold.Chemscore.Metal>
0.0000

> <Gold.Chemscore.Lipo>
107.7320

> <Gold.Chemscore.Internal_Hbond>
0.0000

> <Gold.Chemscore.DEClash>
0.4996

> <Gold.Chemscore.DEInternal>
5.5653

> <Gold.Chemscore.Rot>
1.3958

> <Gold.Chemscore.Internal.Correction>
   9.000000E+99

> <Gold.Chemscore.Hbond.Weighted>
-0.0000

> <Gold.Chemscore.Metal.Weighted>
-0.0000

> <Gold.Chemscore.Lipo.Weighted>
-12.6046

> <Gold.Chemscore.Internal_Hbond.Weighted>
0.0000

> <Gold.Chemscore.DEClash.Weighted>
0.4996

> <Gold.Chemscore.DEInternal.Weighted>
5.5653

> <Gold.Chemscore.Rot.Weighted>
3.5733

> <Gold.Chemscore.Internal.Correction.Weighted>
   9.000000E+99

> <Gold.Protein.RotatedTorsions>
[ 6907 6896 6895 6894 ] final  145.02 input  -60.11 | X-H torsion
[ 7974 7965 7964 7962 ] final   66.81 input  175.53 | X-H torsion
[ 8008 7997 7996 7995 ] final  147.95 input   59.86 | X-H torsion
[ 10167 10162 10161 10158 ] final -116.53 input  -65.29 | X-H torsion
[ 10718 10713 10712 10709 ] final  127.96 input   66.30 | X-H torsion
[ 10763 10752 10751 10750 ] final  128.83 input  -60.55 | X-H torsion
[ 11005 11000 10999 10996 ] final   30.37 input  -57.11 | X-H torsion

> <Gold.Protein.ActiveResidues>
 VAL166  LYS551  ARG553  GLY616  TRP617  ASP618  TYR619  PRO620  LYS621  CYS622 
 ASP623  PHE694  ASN695  SER759  ASP760  ASP761  ALA762  ILE779  LEU786  VAL792 
 PHE793  MET794  SER795  GLU796  ALA797  LYS798  CYS799  TRP800  GLU811  SER814 

> <Gold.Protein.RotatedAtoms>
  152.1863  133.4742  159.4983 H   0  0  0  0  0  0  0  0  0  0  0  0  # atno 6907 bound_to 6896
  150.6943  134.1770  159.4243 H   0  0  0  0  0  0  0  0  0  0  0  0  # atno 6908 bound_to 6896
  151.9683  135.0089  160.0602 H   0  0  0  0  0  0  0  0  0  0  0  0  # atno 6909 bound_to 6896
  145.8222  139.3091  143.1037 H   0  0  0  0  0  0  0  0  0  0  0  0  # atno 7974 bound_to 7965
  156.2808  140.2142  156.5620 H   0  0  0  0  0  0  0  0  0  0  0  0  # atno 8008 bound_to 7997
  154.7205  140.0504  157.0658 H   0  0  0  0  0  0  0  0  0  0  0  0  # atno 8009 bound_to 7997
  155.0484  140.3153  155.4703 H   0  0  0  0  0  0  0  0  0  0  0  0  # atno 8010 bound_to 7997
  140.0782  143.4812  152.1941 H   0  0  0  0  0  0  0  0  0  0  0  0  # atno 10167 bound_to 10162
  157.5287  131.1098  150.9042 H   0  0  0  0  0  0  0  0  0  0  0  0  # atno 10718 bound_to 10713
  153.7319  135.3237  155.3287 H   0  0  0  0  0  0  0  0  0  0  0  0  # atno 10763 bound_to 10752
  154.8323  135.4524  154.1113 H   0  0  0  0  0  0  0  0  0  0  0  0  # atno 10764 bound_to 10752
  153.2263  135.6954  153.8022 H   0  0  0  0  0  0  0  0  0  0  0  0  # atno 10765 bound_to 10752
  140.2951  134.2820  155.7766 H   0  0  0  0  0  0  0  0  0  0  0  0  # atno 11005 bound_to 11000
  145.9663  140.8796  143.0185 LP  0  0  0  0  0  0  0  0  0  0  0  0  # atno 17320 bound_to 7965
  144.6747  140.1882  143.7399 LP  0  0  0  0  0  0  0  0  0  0  0  0  # atno 17321 bound_to 7965
  139.5795  144.7503  151.3677 LP  0  0  0  0  0  0  0  0  0  0  0  0  # atno 17342 bound_to 10162
  140.7091  143.7437  150.7534 LP  0  0  0  0  0  0  0  0  0  0  0  0  # atno 17343 bound_to 10162
  156.9630  130.5462  149.5287 LP  0  0  0  0  0  0  0  0  0  0  0  0  # atno 17370 bound_to 10713
  156.0406  130.5489  150.8761 LP  0  0  0  0  0  0  0  0  0  0  0  0  # atno 17371 bound_to 10713
  141.2139  133.7610  156.9683 LP  0  0  0  0  0  0  0  0  0  0  0  0  # atno 17394 bound_to 11000
  140.1160  134.9447  157.2134 LP  0  0  0  0  0  0  0  0  0  0  0  0  # atno 17395 bound_to 11000

$$$$
