AV-unprocessed.smi:1947|AV-procd|sdf|7866|dock2
  -GOLD-   2272010 13D 1   1.00000     0.00000
 Structure written by MMmdl.
 39 40  0  0  0  0  0  0  0  0  1 V2000
  148.4582  140.8894  154.1127 C   0  0  0  0  0  0  0  0  0  0  0  0
  149.7775  141.0012  154.8934 C   0  0  1  0  0  0  0  0  0  0  0  0
  149.5514  141.5100  156.3310 C   0  0  0  0  0  0  0  0  0  0  0  0
  150.8788  141.6503  157.0931 C   0  0  0  0  0  0  0  0  0  0  0  0
  151.6589  140.3269  157.1024 C   0  0  0  0  0  0  0  0  0  0  0  0
  151.8886  139.8030  155.6746 C   0  0  0  0  0  0  0  0  0  0  0  0
  150.5692  139.6744  154.8907 C   0  0  1  0  0  0  0  0  0  0  0  0
  149.7794  138.6625  155.5033 O   0  0  0  0  0  0  0  0  0  0  0  0
  150.3531  137.3659  155.4565 C   0  0  0  0  0  0  0  0  0  0  0  0
  149.2378  136.3252  155.6354 C   0  0  0  0  0  0  0  0  0  0  0  0
  148.4542  136.1635  154.4150 N   0  0  0  0  0  0  0  0  0  0  0  0
  147.2103  135.6680  154.3553 C   0  0  0  0  0  0  0  0  0  0  0  0
  146.5632  135.3383  155.3490 O   0  0  0  0  0  0  0  0  0  0  0  0
  146.7859  135.5757  153.0849 N   0  0  0  0  0  0  0  0  0  0  0  0
  145.5561  135.0533  152.6129 C   0  0  0  0  0  0  0  0  0  0  0  0
  144.5423  134.9512  153.4805 N   0  0  0  0  0  0  0  0  0  0  0  0
  143.3998  134.4283  152.8869 N   0  0  0  0  0  0  0  0  0  0  0  0
  143.5965  134.1581  151.5930 C   0  0  0  0  0  0  0  0  0  0  0  0
  145.1972  134.5157  150.9692 S   0  0  0  0  0  0  0  0  0  0  0  0
  147.7666  140.1977  154.5937 H   0  0  0  0  0  0  0  0  0  0  0  0
  148.6314  140.5332  153.0970 H   0  0  0  0  0  0  0  0  0  0  0  0
  147.9608  141.8570  154.0427 H   0  0  0  0  0  0  0  0  0  0  0  0
  150.3886  141.7431  154.3772 H   0  0  0  0  0  0  0  0  0  0  0  0
  149.0400  142.4728  156.3097 H   0  0  0  0  0  0  0  0  0  0  0  0
  148.8936  140.8251  156.8680 H   0  0  0  0  0  0  0  0  0  0  0  0
  151.4861  142.4289  156.6296 H   0  0  0  0  0  0  0  0  0  0  0  0
  150.6872  141.9756  158.1160 H   0  0  0  0  0  0  0  0  0  0  0  0
  152.6162  140.4636  157.6059 H   0  0  0  0  0  0  0  0  0  0  0  0
  151.1097  139.5838  157.6819 H   0  0  0  0  0  0  0  0  0  0  0  0
  152.5563  140.4842  155.1457 H   0  0  0  0  0  0  0  0  0  0  0  0
  152.3982  138.8396  155.7087 H   0  0  0  0  0  0  0  0  0  0  0  0
  150.8074  139.4147  153.8571 H   0  0  0  0  0  0  0  0  0  0  0  0
  150.8647  137.2108  154.5051 H   0  0  0  0  0  0  0  0  0  0  0  0
  151.0965  137.2629  156.2479 H   0  0  0  0  0  0  0  0  0  0  0  0
  149.6594  135.3654  155.9373 H   0  0  0  0  0  0  0  0  0  0  0  0
  148.5658  136.6373  156.4353 H   0  0  0  0  0  0  0  0  0  0  0  0
  148.9118  136.4073  153.5489 H   0  0  0  0  0  0  0  0  0  0  0  0
  147.4236  135.8962  152.3711 H   0  0  0  0  0  0  0  0  0  0  0  0
  142.7927  133.7457  151.0015 H   0  0  0  0  0  0  0  0  0  0  0  0
  1  2  1  0  0  0  0
  1 20  1  0  0  0  0
  1 21  1  0  0  0  0
  1 22  1  0  0  0  0
  2  7  1  0  0  0  0
  2  3  1  0  0  0  0
  2 23  1  0  0  0  0
  3  4  1  0  0  0  0
  3 24  1  0  0  0  0
  3 25  1  0  0  0  0
  4  5  1  0  0  0  0
  4 26  1  0  0  0  0
  4 27  1  0  0  0  0
  5  6  1  0  0  0  0
  5 28  1  0  0  0  0
  5 29  1  0  0  0  0
  6  7  1  0  0  0  0
  6 30  1  0  0  0  0
  6 31  1  0  0  0  0
  7  8  1  0  0  0  0
  7 32  1  0  0  0  0
  8  9  1  0  0  0  0
  9 10  1  0  0  0  0
  9 33  1  0  0  0  0
  9 34  1  0  0  0  0
 10 11  1  0  0  0  0
 10 35  1  0  0  0  0
 10 36  1  0  0  0  0
 11 12  1  0  0  0  0
 11 37  1  0  0  0  0
 12 13  2  0  0  0  0
 12 14  1  0  0  0  0
 14 15  1  0  0  0  0
 14 38  1  0  0  0  0
 15 19  1  0  0  0  0
 15 16  2  0  0  0  0
 16 17  1  0  0  0  0
 17 18  2  0  0  0  0
 18 19  1  0  0  0  0
 18 39  1  0  0  0  0
M  END
> <s_m_source_file>
AV-unprocessed.smi

> <i_m_source_file_index>
1947

> <i_lp_mmshare_version>
43012

> <i_f3d_flags>
0

> <s_epik_input>
W0NIM11bQ0BASF0xW0NIMl1bQ0gyXVtDSDJdW0NIMl1bQ0BIXTFPW0NIMl1bQ0gyXVtOSF1DKD1PKVtOSF1jMm5uW2NIXXMy

> <s_epik_cmdline>
J2VwaWtfcHl0aG9uJywgJy1waCcsICc3LjAnLCAnLXRuJywgJzgnLCAnLW1hJywgJzIwMCcsICctbWV0YWxfYmluZGluZycsICctaW1hZScsICc8aW5maWxlLm1hZT4nLCAnLW9tYWUnLCAnPG91dGZpbGUubWFlPic=

> <r_lp_tautomer_probability>
1

> <r_epik_Ionization_Penalty>
0.00220897

> <r_epik_Ionization_Penalty_Charging>
0

> <r_epik_Ionization_Penalty_Neutral>
0.00220897

> <r_epik_State_Penalty>
-0

> <r_epik_Charging_Adjusted_Penalty>
0

> <i_epik_Tot_Q>
0

> <i_epik_Tot_abs_Q>
0

> <r_epik_Metal_State_Penalty>
0.345002

> <b_epik_Metal_Only>
0

> <s_lp_Force_Field>
OPLS_2005

> <r_lp_Energy>
8.88806

> <b_lp_Chiralities_Consistent>
1

> <s_lp_Variant>
AV-unprocessed.smi:1947-2

> <Gold.Version>
5.8.1

> <Gold.Id.Protein>
6NUR|6NUR_protein|mol2

> <Gold.PLP.Fitness>
34.5701

> <Gold.PLP.PLP>
-26.3933

> <Gold.PLP.part.hbond>
-2.0000

> <Gold.PLP.part.metal>
0.0000

> <Gold.PLP.part.buried>
-1.0188

> <Gold.PLP.part.nonpolar>
-23.3711

> <Gold.PLP.part.repulsive>
0.2796

> <Gold.PLP.ligand.clash>
0.0000

> <Gold.PLP.ligand.torsion>
0.4128

> <Gold.PLP.Chemscore.Hbond>
1.9920

> <Gold.PLP.Chemscore.CHOScore>
1.0000

> <Gold.PLP.Chemscore.Metal>
0.0000

> <Gold.Chemscore.Hbonds>
donor molecule, donor type, donor heavy atom, donor atom, acceptor molecule, acceptor atom, score
      L1  H    11    37       P1  7948  0.96
      L1  H    14    38       P1  7948  1.00
      L1  C    18    39       P1 10186  1.00

> <Gold.PLP.Chemscore.Internal.Correction>
0.0263

> <Gold.Rescore>
     Score         DG    S(hbond)    S(metal)    S(lipo)     H(rot)  DE(clash)    DE(int)     intcor
     12.60     -14.47       1.93        0.00      64.20       1.94       0.02       1.85       ----

> <Gold.Chemscore.Fitness>
12.6007

> <Gold.Chemscore.DG>
-14.4736

> <Gold.Chemscore.ZeroCoef>
-5.4800

> <Gold.Chemscore.Hbond>
1.9294

> <Gold.Chemscore.Metal>
0.0000

> <Gold.Chemscore.Lipo>
64.2046

> <Gold.Chemscore.Internal_Hbond>
0.0000

> <Gold.Chemscore.DEClash>
0.0247

> <Gold.Chemscore.DEInternal>
1.8482

> <Gold.Chemscore.Rot>
1.9385

> <Gold.Chemscore.Internal.Correction>
   9.000000E+99

> <Gold.Chemscore.Hbonds>
donor molecule, donor type, donor heavy atom, donor atom, acceptor molecule, acceptor atom, score
      L1  H    11    37       P1  7948  0.92
      L1  H    14    38       P1  7948  0.95

> <Gold.Chemscore.Hbond.Weighted>
-6.4442

> <Gold.Chemscore.Metal.Weighted>
-0.0000

> <Gold.Chemscore.Lipo.Weighted>
-7.5119

> <Gold.Chemscore.Internal_Hbond.Weighted>
0.0000

> <Gold.Chemscore.DEClash.Weighted>
0.0247

> <Gold.Chemscore.DEInternal.Weighted>
1.8482

> <Gold.Chemscore.Rot.Weighted>
4.9625

> <Gold.Chemscore.Internal.Correction.Weighted>
   9.000000E+99

> <Gold.Protein.RotatedTorsions>
[ 6907 6896 6895 6894 ] final  148.49 input  -60.11 | X-H torsion
[ 7974 7965 7964 7962 ] final  -38.97 input  175.53 | X-H torsion
[ 8008 7997 7996 7995 ] final  -23.70 input   59.86 | X-H torsion
[ 10167 10162 10161 10158 ] final  128.35 input  -65.29 | X-H torsion
[ 10718 10713 10712 10709 ] final    1.14 input   66.30 | X-H torsion
[ 10763 10752 10751 10750 ] final  -96.51 input  -60.55 | X-H torsion
[ 11005 11000 10999 10996 ] final   79.83 input  -57.11 | X-H torsion

> <Gold.Protein.ActiveResidues>
 VAL166  LYS551  ARG553  GLY616  TRP617  ASP618  TYR619  PRO620  LYS621  CYS622 
 ASP623  PHE694  ASN695  SER759  ASP760  ASP761  ALA762  ILE779  LEU786  VAL792 
 PHE793  MET794  SER795  GLU796  ALA797  LYS798  CYS799  TRP800  GLU811  SER814 

> <Gold.Protein.RotatedAtoms>
  152.1408  133.4463  159.4765 H   0  0  0  0  0  0  0  0  0  0  0  0  # atno 6907 bound_to 6896
  150.6886  134.2308  159.4442 H   0  0  0  0  0  0  0  0  0  0  0  0  # atno 6908 bound_to 6896
  152.0198  134.9829  160.0621 H   0  0  0  0  0  0  0  0  0  0  0  0  # atno 6909 bound_to 6896
  146.0439  140.6573  142.9074 H   0  0  0  0  0  0  0  0  0  0  0  0  # atno 7974 bound_to 7965
  154.4570  140.1973  156.0351 H   0  0  0  0  0  0  0  0  0  0  0  0  # atno 8008 bound_to 7997
  156.0766  140.3277  155.7613 H   0  0  0  0  0  0  0  0  0  0  0  0  # atno 8009 bound_to 7997
  155.5179  140.0567  157.2903 H   0  0  0  0  0  0  0  0  0  0  0  0  # atno 8010 bound_to 7997
  139.5532  144.6829  151.4262 H   0  0  0  0  0  0  0  0  0  0  0  0  # atno 10167 bound_to 10162
  156.8438  130.5530  149.5675 H   0  0  0  0  0  0  0  0  0  0  0  0  # atno 10718 bound_to 10713
  154.7246  135.5081  153.8866 H   0  0  0  0  0  0  0  0  0  0  0  0  # atno 10763 bound_to 10752
  153.0893  135.6654  153.9894 H   0  0  0  0  0  0  0  0  0  0  0  0  # atno 10764 bound_to 10752
  153.9710  135.3038  155.3406 H   0  0  0  0  0  0  0  0  0  0  0  0  # atno 10765 bound_to 10752
  139.9157  134.7873  156.1829 H   0  0  0  0  0  0  0  0  0  0  0  0  # atno 11005 bound_to 11000
  144.7088  140.3957  143.7097 LP  0  0  0  0  0  0  0  0  0  0  0  0  # atno 17320 bound_to 7965
  145.6839  139.1624  143.2685 LP  0  0  0  0  0  0  0  0  0  0  0  0  # atno 17321 bound_to 7965
  140.6799  143.8106  150.7107 LP  0  0  0  0  0  0  0  0  0  0  0  0  # atno 17342 bound_to 10162
  140.1556  143.4320  152.2102 LP  0  0  0  0  0  0  0  0  0  0  0  0  # atno 17343 bound_to 10162
  156.0866  130.5862  150.9658 LP  0  0  0  0  0  0  0  0  0  0  0  0  # atno 17370 bound_to 10713
  157.6341  131.0918  150.8384 LP  0  0  0  0  0  0  0  0  0  0  0  0  # atno 17371 bound_to 10713
  141.0631  133.6832  156.1991 LP  0  0  0  0  0  0  0  0  0  0  0  0  # atno 17394 bound_to 11000
  140.6629  134.4949  157.5584 LP  0  0  0  0  0  0  0  0  0  0  0  0  # atno 17395 bound_to 11000

$$$$
