AV-unprocessed.smi:1115|AV-procd|sdf|4805|dock7
  -GOLD-   22720 3353D 1   1.00000     0.00000
 Structure written by MMmdl.
 51 52  0  0  0  0  0  0  0  0  2 V2000
  153.3905  142.3262  161.1072 C   0  0  0  0  0  0  0  0  0  0  0  0
  152.2647  142.9653  160.4373 N   0  0  0  0  0  0  0  0  0  0  0  0
  151.9346  144.3550  160.7364 C   0  0  0  0  0  0  0  0  0  0  0  0
  151.5366  142.2670  159.4469 C   0  0  0  0  0  0  0  0  0  0  0  0
  151.9889  141.0261  158.9331 C   0  0  0  0  0  0  0  0  0  0  0  0
  151.2288  140.3676  157.9474 C   0  0  0  0  0  0  0  0  0  0  0  0
  150.0259  140.9594  157.4990 C   0  0  0  0  0  0  0  0  0  0  0  0
  149.1844  140.4070  156.4958 N   0  0  0  0  0  0  0  0  0  0  0  0
  149.0824  139.1263  156.1012 C   0  0  0  0  0  0  0  0  0  0  0  0
  149.6917  138.1779  156.5951 O   0  0  0  0  0  0  0  0  0  0  0  0
  148.1975  138.9966  155.1022 N   0  0  0  0  0  0  0  0  0  0  0  0
  147.8460  137.7428  154.4347 C   0  0  0  0  0  0  0  0  0  0  0  0
  146.4820  137.7837  153.6792 C   0  0  0  0  0  0  0  0  0  0  0  0
  145.3476  137.9255  154.7289 C   0  0  0  0  0  0  0  0  0  0  0  0
  146.4295  139.0237  152.7536 C   0  0  0  0  0  0  0  0  0  0  0  0
  146.3260  136.5035  152.8919 N   0  3  0  0  0  0  0  0  0  0  0  0
  146.3856  135.2354  153.6759 C   0  0  0  0  0  0  0  0  0  0  0  0
  146.3583  134.0088  152.7463 C   0  0  0  0  0  0  0  0  0  0  0  0
  145.2054  134.0467  151.9190 O   0  0  0  0  0  0  0  0  0  0  0  0
  145.1990  135.1983  151.0896 C   0  0  0  0  0  0  0  0  0  0  0  0
  145.1542  136.4574  151.9694 C   0  0  0  0  0  0  0  0  0  0  0  0
  149.6639  142.2005  158.0575 C   0  0  0  0  0  0  0  0  0  0  0  0
  150.3880  142.8337  159.0035 N   0  0  0  0  0  0  0  0  0  0  0  0
  154.1531  142.0374  160.3835 H   0  0  0  0  0  0  0  0  0  0  0  0
  153.0621  141.4364  161.6447 H   0  0  0  0  0  0  0  0  0  0  0  0
  153.8557  142.9969  161.8297 H   0  0  0  0  0  0  0  0  0  0  0  0
  152.0579  144.9768  159.8491 H   0  0  0  0  0  0  0  0  0  0  0  0
  152.5778  144.7588  161.5186 H   0  0  0  0  0  0  0  0  0  0  0  0
  150.9026  144.4388  161.0783 H   0  0  0  0  0  0  0  0  0  0  0  0
  152.9059  140.5673  159.2706 H   0  0  0  0  0  0  0  0  0  0  0  0
  151.5929  139.4339  157.5479 H   0  0  0  0  0  0  0  0  0  0  0  0
  148.5529  141.0604  156.0558 H   0  0  0  0  0  0  0  0  0  0  0  0
  147.7386  139.8316  154.7675 H   0  0  0  0  0  0  0  0  0  0  0  0
  148.6697  137.5556  153.7491 H   0  0  0  0  0  0  0  0  0  0  0  0
  147.8554  136.9108  155.1411 H   0  0  0  0  0  0  0  0  0  0  0  0
  145.4857  138.7956  155.3696 H   0  0  0  0  0  0  0  0  0  0  0  0
  145.2924  137.0510  155.3784 H   0  0  0  0  0  0  0  0  0  0  0  0
  144.3711  138.0705  154.2671 H   0  0  0  0  0  0  0  0  0  0  0  0
  146.4391  139.9494  153.3299 H   0  0  0  0  0  0  0  0  0  0  0  0
  145.5235  139.0398  152.1478 H   0  0  0  0  0  0  0  0  0  0  0  0
  147.2832  139.0686  152.0774 H   0  0  0  0  0  0  0  0  0  0  0  0
  147.3031  135.1640  154.2570 H   0  0  0  0  0  0  0  0  0  0  0  0
  145.5510  135.1889  154.3763 H   0  0  0  0  0  0  0  0  0  0  0  0
  147.2593  133.9671  152.1318 H   0  0  0  0  0  0  0  0  0  0  0  0
  146.3362  133.0926  153.3366 H   0  0  0  0  0  0  0  0  0  0  0  0
  146.0741  135.2050  150.4376 H   0  0  0  0  0  0  0  0  0  0  0  0
  144.3213  135.1606  150.4439 H   0  0  0  0  0  0  0  0  0  0  0  0
  144.2253  136.4536  152.5407 H   0  0  0  0  0  0  0  0  0  0  0  0
  145.1212  137.3231  151.3124 H   0  0  0  0  0  0  0  0  0  0  0  0
  148.7613  142.7023  157.7407 H   0  0  0  0  0  0  0  0  0  0  0  0
  147.1406  136.4727  152.2949 H   0  0  0  0  0  0  0  0  0  0  0  0
  1  2  1  0  0  0  0
  1 24  1  0  0  0  0
  1 25  1  0  0  0  0
  1 26  1  0  0  0  0
  2  3  1  0  0  0  0
  2  4  1  0  0  0  0
  3 27  1  0  0  0  0
  3 28  1  0  0  0  0
  3 29  1  0  0  0  0
  4 23  1  0  0  0  0
  4  5  2  0  0  0  0
  5  6  1  0  0  0  0
  5 30  1  0  0  0  0
  6  7  2  0  0  0  0
  6 31  1  0  0  0  0
  7  8  1  0  0  0  0
  7 22  1  0  0  0  0
  8  9  1  0  0  0  0
  8 32  1  0  0  0  0
  9 10  2  0  0  0  0
  9 11  1  0  0  0  0
 11 12  1  0  0  0  0
 11 33  1  0  0  0  0
 12 13  1  0  0  0  0
 12 34  1  0  0  0  0
 12 35  1  0  0  0  0
 13 14  1  0  0  0  0
 13 15  1  0  0  0  0
 13 16  1  0  0  0  0
 14 36  1  0  0  0  0
 14 37  1  0  0  0  0
 14 38  1  0  0  0  0
 15 39  1  0  0  0  0
 15 40  1  0  0  0  0
 15 41  1  0  0  0  0
 16 21  1  0  0  0  0
 16 17  1  0  0  0  0
 16 51  1  0  0  0  0
 17 18  1  0  0  0  0
 17 42  1  0  0  0  0
 17 43  1  0  0  0  0
 18 19  1  0  0  0  0
 18 44  1  0  0  0  0
 18 45  1  0  0  0  0
 19 20  1  0  0  0  0
 20 21  1  0  0  0  0
 20 46  1  0  0  0  0
 20 47  1  0  0  0  0
 21 48  1  0  0  0  0
 21 49  1  0  0  0  0
 22 23  2  0  0  0  0
 22 50  1  0  0  0  0
M  CHG  1  16   1
M  END
> <s_m_source_file>
AV-unprocessed.smi

> <i_m_source_file_index>
1115

> <i_lp_mmshare_version>
43012

> <i_f3d_flags>
0

> <s_epik_input>
W0NIM11OKFtDSDNdKWMxW2NIXVtjSF1jKFtjSF1uMSlbTkhdQyg9TylbTkhdW0NIMl1DKFtDSDNdKShbQ0gzXSlOMltDSDJdW0NIMl1PW0NIMl1bQ0gyXTI=

> <s_epik_cmdline>
J2VwaWtfcHl0aG9uJywgJy1waCcsICc3LjAnLCAnLXRuJywgJzgnLCAnLW1hJywgJzIwMCcsICctbWV0YWxfYmluZGluZycsICctaW1hZScsICc8aW5maWxlLm1hZT4nLCAnLW9tYWUnLCAnPG91dGZpbGUubWFlPic=

> <r_epik_Ionization_Penalty>
1.14783

> <r_epik_Ionization_Penalty_Charging>
0.602531

> <r_epik_Ionization_Penalty_Neutral>
0.545303

> <r_epik_State_Penalty>
1.19446

> <r_epik_Charging_Adjusted_Penalty>
1.79699

> <i_epik_Tot_Q>
1

> <i_epik_Tot_abs_Q>
1

> <r_epik_Metal_State_Penalty>
0.937982

> <b_epik_Metal_Only>
0

> <s_lp_Force_Field>
OPLS_2005

> <r_lp_Energy>
30.1641

> <b_lp_Chiralities_Consistent>
1

> <s_lp_Variant>
AV-unprocessed.smi:1115-4

> <Gold.Version>
5.8.1

> <Gold.Id.Protein>
6NUR|6NUR_protein|mol2

> <Gold.PLP.Fitness>
40.8797

> <Gold.PLP.PLP>
-32.6019

> <Gold.PLP.part.hbond>
-1.0000

> <Gold.PLP.part.metal>
0.0000

> <Gold.PLP.part.buried>
-3.3853

> <Gold.PLP.part.nonpolar>
-28.4414

> <Gold.PLP.part.repulsive>
0.2301

> <Gold.PLP.ligand.clash>
0.0000

> <Gold.PLP.ligand.torsion>
0.4098

> <Gold.PLP.Chemscore.Hbond>
2.0000

> <Gold.PLP.Chemscore.CHOScore>
1.0000

> <Gold.PLP.Chemscore.Metal>
0.0000

> <Gold.Chemscore.Hbonds>
donor molecule, donor type, donor heavy atom, donor atom, acceptor molecule, acceptor atom, score
      L1  H    16    51       P1  7948  2.00
      L1  C    22    50       P1  8028  0.09

> <Gold.PLP.Chemscore.Internal.Correction>
0.0975

> <Gold.Rescore>
     Score         DG    S(hbond)    S(metal)    S(lipo)     H(rot)  DE(clash)    DE(int)     intcor
     13.90     -14.62       1.00        0.00      81.69       1.46       0.07       0.65       ----

> <Gold.Chemscore.Fitness>
13.9006

> <Gold.Chemscore.DG>
-14.6185

> <Gold.Chemscore.ZeroCoef>
-5.4800

> <Gold.Chemscore.Hbond>
0.9974

> <Gold.Chemscore.Metal>
0.0000

> <Gold.Chemscore.Lipo>
81.6859

> <Gold.Chemscore.Internal_Hbond>
0.0000

> <Gold.Chemscore.DEClash>
0.0694

> <Gold.Chemscore.DEInternal>
0.6485

> <Gold.Chemscore.Rot>
1.4648

> <Gold.Chemscore.Internal.Correction>
   9.000000E+99

> <Gold.Chemscore.Hbonds>
donor molecule, donor type, donor heavy atom, donor atom, acceptor molecule, acceptor atom, score
      L1  H    16    51       P1  7948  0.99

> <Gold.Chemscore.Hbond.Weighted>
-3.3312

> <Gold.Chemscore.Metal.Weighted>
-0.0000

> <Gold.Chemscore.Lipo.Weighted>
-9.5573

> <Gold.Chemscore.Internal_Hbond.Weighted>
0.0000

> <Gold.Chemscore.DEClash.Weighted>
0.0694

> <Gold.Chemscore.DEInternal.Weighted>
0.6485

> <Gold.Chemscore.Rot.Weighted>
3.7499

> <Gold.Chemscore.Internal.Correction.Weighted>
   9.000000E+99

> <Gold.Protein.RotatedTorsions>
[ 6907 6896 6895 6894 ] final -161.70 input  -60.11 | X-H torsion
[ 7974 7965 7964 7962 ] final  -71.58 input  175.53 | X-H torsion
[ 8008 7997 7996 7995 ] final  -66.24 input   59.86 | X-H torsion
[ 10167 10162 10161 10158 ] final -124.31 input  -65.29 | X-H torsion
[ 10718 10713 10712 10709 ] final   19.85 input   66.30 | X-H torsion
[ 10763 10752 10751 10750 ] final  136.20 input  -60.55 | X-H torsion
[ 11005 11000 10999 10996 ] final   94.96 input  -57.11 | X-H torsion

> <Gold.Protein.ActiveResidues>
 VAL166  LYS551  ARG553  GLY616  TRP617  ASP618  TYR619  PRO620  LYS621  CYS622 
 ASP623  PHE694  ASN695  SER759  ASP760  ASP761  ALA762  ILE779  LEU786  VAL792 
 PHE793  MET794  SER795  GLU796  ALA797  LYS798  CYS799  TRP800  GLU811  SER814 

> <Gold.Protein.RotatedAtoms>
  151.3688  133.3862  159.2697 H   0  0  0  0  0  0  0  0  0  0  0  0  # atno 6907 bound_to 6896
  150.9667  134.9048  159.7774 H   0  0  0  0  0  0  0  0  0  0  0  0  # atno 6908 bound_to 6896
  152.5170  134.3649  159.9350 H   0  0  0  0  0  0  0  0  0  0  0  0  # atno 6909 bound_to 6896
  145.6762  140.9204  143.0857 H   0  0  0  0  0  0  0  0  0  0  0  0  # atno 7974 bound_to 7965
  154.4722  140.0917  156.7173 H   0  0  0  0  0  0  0  0  0  0  0  0  # atno 8008 bound_to 7997
  155.4693  140.3464  155.4305 H   0  0  0  0  0  0  0  0  0  0  0  0  # atno 8009 bound_to 7997
  156.1058  140.1434  156.9395 H   0  0  0  0  0  0  0  0  0  0  0  0  # atno 8010 bound_to 7997
  139.9941  143.5609  152.2330 H   0  0  0  0  0  0  0  0  0  0  0  0  # atno 10167 bound_to 10162
  157.1162  130.6530  149.5911 H   0  0  0  0  0  0  0  0  0  0  0  0  # atno 10718 bound_to 10713
  153.8526  135.3077  155.3433 H   0  0  0  0  0  0  0  0  0  0  0  0  # atno 10763 bound_to 10752
  154.7884  135.4796  154.0001 H   0  0  0  0  0  0  0  0  0  0  0  0  # atno 10764 bound_to 10752
  153.1509  135.6843  153.8977 H   0  0  0  0  0  0  0  0  0  0  0  0  # atno 10765 bound_to 10752
  139.8793  134.8873  156.3940 H   0  0  0  0  0  0  0  0  0  0  0  0  # atno 11005 bound_to 11000
  144.7041  139.8637  143.7435 LP  0  0  0  0  0  0  0  0  0  0  0  0  # atno 17320 bound_to 7965
  146.1003  139.3998  143.0351 LP  0  0  0  0  0  0  0  0  0  0  0  0  # atno 17321 bound_to 7965
  139.6319  144.7645  151.2519 LP  0  0  0  0  0  0  0  0  0  0  0  0  # atno 17342 bound_to 10162
  140.7444  143.6465  150.8287 LP  0  0  0  0  0  0  0  0  0  0  0  0  # atno 17343 bound_to 10162
  155.9839  130.4861  150.6955 LP  0  0  0  0  0  0  0  0  0  0  0  0  # atno 17370 bound_to 10713
  157.4516  131.0873  151.0840 LP  0  0  0  0  0  0  0  0  0  0  0  0  # atno 17371 bound_to 10713
  140.9313  133.7577  156.0028 LP  0  0  0  0  0  0  0  0  0  0  0  0  # atno 17394 bound_to 11000
  140.8327  134.3159  157.5343 LP  0  0  0  0  0  0  0  0  0  0  0  0  # atno 17395 bound_to 11000

$$$$
