AV-unprocessed.smi:1434|AV-procd|sdf|5856|dock5
  -GOLD-   22720 5523D 1   1.00000     0.00000
 Structure written by MMmdl.
 44 45  0  0  0  0  0  0  0  0  3 V2000
  146.8376  141.0870  153.6779 C   0  0  0  0  0  0  0  0  0  0  0  0
  147.0071  139.4513  154.5109 S   0  0  0  0  0  0  0  0  0  0  0  0
  147.0316  139.7261  155.9576 O   0  0  0  0  0  0  0  0  0  0  0  0
  145.8803  138.6510  154.0083 O   0  0  0  0  0  0  0  0  0  0  0  0
  148.4207  138.9097  153.9146 N   0  5  0  0  0  0  0  0  0  0  0  0
  149.6040  138.7778  154.7560 C   0  0  1  0  0  0  0  0  0  0  0  0
  150.8099  138.2668  153.9249 C   0  0  0  0  0  0  0  0  0  0  0  0
  152.1605  138.3476  154.6848 C   0  0  0  0  0  0  0  0  0  0  0  0
  152.4132  139.7433  155.3003 C   0  0  0  0  0  0  0  0  0  0  0  0
  151.2415  140.0775  156.1429 N   0  0  0  0  0  0  0  0  0  0  0  0
  151.2571  140.2437  157.4931 C   0  0  0  0  0  0  0  0  0  0  0  0
  150.2518  140.5014  158.1565 O   0  0  0  0  0  0  0  0  0  0  0  0
  152.4656  140.1170  158.0652 N   0  0  0  0  0  0  0  0  0  0  0  0
  152.7269  140.2538  159.4911 C   0  0  0  0  0  0  0  0  0  0  0  0
  153.6871  141.4217  159.7547 C   0  0  0  0  0  0  0  0  0  0  0  0
  152.9542  142.7354  159.9464 C   0  0  0  0  0  0  0  0  0  0  0  0
  152.6707  143.2571  161.2274 C   0  0  0  0  0  0  0  0  0  0  0  0
  151.9942  144.4903  161.3347 C   0  0  0  0  0  0  0  0  0  0  0  0
  151.6153  145.1745  160.1611 C   0  0  0  0  0  0  0  0  0  0  0  0
  151.9257  144.6088  158.9079 C   0  0  0  0  0  0  0  0  0  0  0  0
  152.5771  143.4264  158.8459 N   0  3  0  0  0  0  0  0  0  0  0  0
  149.9835  140.1564  155.3627 C   0  0  0  0  0  0  0  0  0  0  0  0
  145.8711  141.5197  153.9336 H   0  0  0  0  0  0  0  0  0  0  0  0
  146.8987  140.9525  152.5983 H   0  0  0  0  0  0  0  0  0  0  0  0
  147.6288  141.7593  154.0079 H   0  0  0  0  0  0  0  0  0  0  0  0
  149.4360  138.0878  155.5838 H   0  0  0  0  0  0  0  0  0  0  0  0
  150.6352  137.2414  153.5978 H   0  0  0  0  0  0  0  0  0  0  0  0
  150.8961  138.8631  153.0150 H   0  0  0  0  0  0  0  0  0  0  0  0
  152.1873  137.5948  155.4753 H   0  0  0  0  0  0  0  0  0  0  0  0
  152.9743  138.0946  154.0047 H   0  0  0  0  0  0  0  0  0  0  0  0
  153.3705  139.7454  155.8207 H   0  0  0  0  0  0  0  0  0  0  0  0
  152.5049  140.4894  154.5097 H   0  0  0  0  0  0  0  0  0  0  0  0
  153.2520  139.9079  157.4676 H   0  0  0  0  0  0  0  0  0  0  0  0
  151.7876  140.4190  160.0220 H   0  0  0  0  0  0  0  0  0  0  0  0
  153.1511  139.3209  159.8654 H   0  0  0  0  0  0  0  0  0  0  0  0
  154.2885  141.2194  160.6425 H   0  0  0  0  0  0  0  0  0  0  0  0
  154.3881  141.5232  158.9249 H   0  0  0  0  0  0  0  0  0  0  0  0
  152.9697  142.7229  162.1175 H   0  0  0  0  0  0  0  0  0  0  0  0
  151.7696  144.9069  162.3058 H   0  0  0  0  0  0  0  0  0  0  0  0
  151.0959  146.1199  160.2219 H   0  0  0  0  0  0  0  0  0  0  0  0
  151.6755  145.0634  157.9602 H   0  0  0  0  0  0  0  0  0  0  0  0
  150.1229  140.8888  154.5657 H   0  0  0  0  0  0  0  0  0  0  0  0
  149.1504  140.5342  155.9577 H   0  0  0  0  0  0  0  0  0  0  0  0
  152.7929  143.0372  157.9278 H   0  0  0  0  0  0  0  0  0  0  0  0
  1  2  1  0  0  0  0
  1 23  1  0  0  0  0
  1 24  1  0  0  0  0
  1 25  1  0  0  0  0
  2  3  2  0  0  0  0
  2  4  2  0  0  0  0
  2  5  1  0  0  0  0
  5  6  1  0  0  0  0
  6 22  1  0  0  0  0
  6  7  1  0  0  0  0
  6 26  1  0  0  0  0
  7  8  1  0  0  0  0
  7 27  1  0  0  0  0
  7 28  1  0  0  0  0
  8  9  1  0  0  0  0
  8 29  1  0  0  0  0
  8 30  1  0  0  0  0
  9 10  1  0  0  0  0
  9 31  1  0  0  0  0
  9 32  1  0  0  0  0
 10 11  1  0  0  0  0
 10 22  1  0  0  0  0
 11 12  2  0  0  0  0
 11 13  1  0  0  0  0
 13 14  1  0  0  0  0
 13 33  1  0  0  0  0
 14 15  1  0  0  0  0
 14 34  1  0  0  0  0
 14 35  1  0  0  0  0
 15 16  1  0  0  0  0
 15 36  1  0  0  0  0
 15 37  1  0  0  0  0
 16 21  1  0  0  0  0
 16 17  2  0  0  0  0
 17 18  1  0  0  0  0
 17 38  1  0  0  0  0
 18 19  2  0  0  0  0
 18 39  1  0  0  0  0
 19 20  1  0  0  0  0
 19 40  1  0  0  0  0
 20 21  2  0  0  0  0
 20 41  1  0  0  0  0
 21 44  1  0  0  0  0
 22 42  1  0  0  0  0
 22 43  1  0  0  0  0
M  CHG  1   5  -1
M  CHG  1  21   1
M  END
> <s_m_source_file>
AV-unprocessed.smi

> <i_m_source_file_index>
1434

> <i_lp_mmshare_version>
43012

> <i_f3d_flags>
0

> <s_epik_input>
W0NIM11TKD1PKSg9TylbTkhdW0NAQEhdMVtDSDJdW0NIMl1bQ0gyXU4oW0NIMl0xKUMoPU8pW05IXVtDSDJdW0NIMl1jMltjSF1bY0hdW2NIXVtjSF1uMg==

> <s_epik_cmdline>
J2VwaWtfcHl0aG9uJywgJy1waCcsICc3LjAnLCAnLXRuJywgJzgnLCAnLW1hJywgJzIwMCcsICctbWV0YWxfYmluZGluZycsICctaW1hZScsICc8aW5maWxlLm1hZT4nLCAnLW9tYWUnLCAnPG91dGZpbGUubWFlPic=

> <r_epik_Ionization_Penalty>
8.07847

> <r_epik_Ionization_Penalty_Charging>
8.0784

> <r_epik_Ionization_Penalty_Neutral>
6.25603e-05

> <r_epik_State_Penalty>
8.17261

> <r_epik_Charging_Adjusted_Penalty>
16.251

> <i_epik_Tot_Q>
0

> <i_epik_Tot_abs_Q>
2

> <r_epik_Metal_State_Penalty>
4.14042

> <b_epik_Metal_Only>
1

> <s_lp_Force_Field>
OPLS_2005

> <r_lp_Energy>
28.6508

> <b_lp_Chiralities_Consistent>
1

> <s_lp_Variant>
AV-unprocessed.smi:1434-8

> <Gold.Version>
5.8.1

> <Gold.Id.Protein>
6NUR|6NUR_protein|mol2

> <Gold.PLP.Fitness>
45.5361

> <Gold.PLP.PLP>
-46.4620

> <Gold.PLP.part.hbond>
0.0000

> <Gold.PLP.part.metal>
0.0000

> <Gold.PLP.part.buried>
-5.2195

> <Gold.PLP.part.nonpolar>
-41.3158

> <Gold.PLP.part.repulsive>
1.1741

> <Gold.PLP.ligand.clash>
0.0000

> <Gold.PLP.ligand.torsion>
0.9972

> <Gold.PLP.Chemscore.Hbond>
0.0000

> <Gold.PLP.Chemscore.CHOScore>
0.0000

> <Gold.PLP.Chemscore.Metal>
0.0000

> <Gold.PLP.Chemscore.Internal.Correction>
1.0685

> <Gold.Rescore>
     Score         DG    S(hbond)    S(metal)    S(lipo)     H(rot)  DE(clash)    DE(int)     intcor
     14.42     -15.30       0.00        0.00     122.53       1.77       0.00       0.88       ----

> <Gold.Chemscore.Fitness>
14.4161

> <Gold.Chemscore.DG>
-15.2952

> <Gold.Chemscore.ZeroCoef>
-5.4800

> <Gold.Chemscore.Hbond>
0.0000

> <Gold.Chemscore.Metal>
0.0000

> <Gold.Chemscore.Lipo>
122.5329

> <Gold.Chemscore.Internal_Hbond>
0.0000

> <Gold.Chemscore.DEClash>
0.0000

> <Gold.Chemscore.DEInternal>
0.8792

> <Gold.Chemscore.Rot>
1.7661

> <Gold.Chemscore.Internal.Correction>
   9.000000E+99

> <Gold.Chemscore.Hbond.Weighted>
-0.0000

> <Gold.Chemscore.Metal.Weighted>
-0.0000

> <Gold.Chemscore.Lipo.Weighted>
-14.3364

> <Gold.Chemscore.Internal_Hbond.Weighted>
0.0000

> <Gold.Chemscore.DEClash.Weighted>
0.0000

> <Gold.Chemscore.DEInternal.Weighted>
0.8792

> <Gold.Chemscore.Rot.Weighted>
4.5211

> <Gold.Chemscore.Internal.Correction.Weighted>
   9.000000E+99

> <Gold.Protein.RotatedTorsions>
[ 6907 6896 6895 6894 ] final   79.15 input  -60.11 | X-H torsion
[ 7974 7965 7964 7962 ] final  144.16 input  175.53 | X-H torsion
[ 8008 7997 7996 7995 ] final  -26.22 input   59.86 | X-H torsion
[ 10167 10162 10161 10158 ] final  141.16 input  -65.29 | X-H torsion
[ 10718 10713 10712 10709 ] final  -12.86 input   66.30 | X-H torsion
[ 10763 10752 10751 10750 ] final  116.35 input  -60.55 | X-H torsion
[ 11005 11000 10999 10996 ] final -148.60 input  -57.11 | X-H torsion

> <Gold.Protein.ActiveResidues>
 VAL166  LYS551  ARG553  GLY616  TRP617  ASP618  TYR619  PRO620  LYS621  CYS622 
 ASP623  PHE694  ASN695  SER759  ASP760  ASP761  ALA762  ILE779  LEU786  VAL792 
 PHE793  MET794  SER795  GLU796  ALA797  LYS798  CYS799  TRP800  GLU811  SER814 

> <Gold.Protein.RotatedAtoms>
  152.5187  134.3555  159.9266 H   0  0  0  0  0  0  0  0  0  0  0  0  # atno 6907 bound_to 6896
  151.3507  133.3920  159.2687 H   0  0  0  0  0  0  0  0  0  0  0  0  # atno 6908 bound_to 6896
  150.9729  134.9118  159.7857 H   0  0  0  0  0  0  0  0  0  0  0  0  # atno 6909 bound_to 6896
  144.8859  139.5630  143.5821 H   0  0  0  0  0  0  0  0  0  0  0  0  # atno 7974 bound_to 7965
  154.4436  140.1905  156.0740 H   0  0  0  0  0  0  0  0  0  0  0  0  # atno 8008 bound_to 7997
  156.0489  140.3311  155.7301 H   0  0  0  0  0  0  0  0  0  0  0  0  # atno 8009 bound_to 7997
  155.5587  140.0601  157.2824 H   0  0  0  0  0  0  0  0  0  0  0  0  # atno 8010 bound_to 7997
  139.5028  144.6189  151.6099 H   0  0  0  0  0  0  0  0  0  0  0  0  # atno 10167 bound_to 10162
  156.6385  130.4921  149.6103 H   0  0  0  0  0  0  0  0  0  0  0  0  # atno 10718 bound_to 10713
  153.5359  135.3568  155.2697 H   0  0  0  0  0  0  0  0  0  0  0  0  # atno 10763 bound_to 10752
  154.8722  135.4079  154.3098 H   0  0  0  0  0  0  0  0  0  0  0  0  # atno 10764 bound_to 10752
  153.3796  135.7067  153.6643 H   0  0  0  0  0  0  0  0  0  0  0  0  # atno 10765 bound_to 10752
  140.7595  134.3315  157.5105 H   0  0  0  0  0  0  0  0  0  0  0  0  # atno 11005 bound_to 11000
  146.3024  139.7469  142.9081 LP  0  0  0  0  0  0  0  0  0  0  0  0  # atno 17320 bound_to 7965
  145.3870  141.0367  143.3145 LP  0  0  0  0  0  0  0  0  0  0  0  0  # atno 17321 bound_to 7965
  140.5885  143.9822  150.6310 LP  0  0  0  0  0  0  0  0  0  0  0  0  # atno 17342 bound_to 10162
  140.2994  143.3270  152.0986 LP  0  0  0  0  0  0  0  0  0  0  0  0  # atno 17343 bound_to 10162
  156.2178  130.6718  151.1337 LP  0  0  0  0  0  0  0  0  0  0  0  0  # atno 17370 bound_to 10713
  157.7178  131.0699  150.6257 LP  0  0  0  0  0  0  0  0  0  0  0  0  # atno 17371 bound_to 10713
  139.8773  134.9193  156.3223 LP  0  0  0  0  0  0  0  0  0  0  0  0  # atno 17394 bound_to 11000
  140.9676  133.7348  156.0489 LP  0  0  0  0  0  0  0  0  0  0  0  0  # atno 17395 bound_to 11000

$$$$
