AV-unprocessed.smi:652|AV-procd|sdf|3192|dock4
  -GOLD-   22720 0113D 1   1.00000     0.00000
 Structure written by MMmdl.
 48 49  0  0  0  0  0  0  0  0  2 V2000
  145.8975  144.4267  161.4411 C   0  0  0  0  0  0  0  0  0  0  0  0
  147.0733  144.5167  160.4594 C   0  0  0  0  0  0  0  0  0  0  0  0
  147.8033  145.8647  160.5675 C   0  0  0  0  0  0  0  0  0  0  0  0
  146.5868  144.3076  159.0984 N   0  0  0  0  0  0  0  0  0  0  0  0
  146.0244  143.1792  158.6369 C   0  0  0  0  0  0  0  0  0  0  0  0
  145.8698  142.1696  159.3240 O   0  0  0  0  0  0  0  0  0  0  0  0
  145.5739  143.1907  157.1737 C   0  0  0  0  0  0  0  0  0  0  0  0
  145.3625  141.7692  156.6128 C   0  0  0  0  0  0  0  0  0  0  0  0
  146.4634  141.3389  155.7144 N   0  3  1  0  0  0  0  0  0  0  0  0
  146.4178  142.0263  154.4017 C   0  0  0  0  0  0  0  0  0  0  0  0
  147.5490  141.5246  153.4895 C   0  0  0  0  0  0  0  0  0  0  0  0
  148.8004  141.7151  154.1367 O   0  0  0  0  0  0  0  0  0  0  0  0
  148.8981  140.9721  155.3474 C   0  0  1  0  0  0  0  0  0  0  0  0
  150.3041  141.1714  155.9295 C   0  0  0  0  0  0  0  0  0  0  0  0
  150.5597  142.5655  156.2652 N   0  0  0  0  0  0  0  0  0  0  0  0
  151.2059  142.8993  157.4632 C   0  0  0  0  0  0  0  0  0  0  0  0
  151.5850  144.2381  157.6856 C   0  0  0  0  0  0  0  0  0  0  0  0
  152.2359  144.5393  158.8947 C   0  0  0  0  0  0  0  0  0  0  0  0
  152.4591  143.4773  159.7899 C   0  0  0  0  0  0  0  0  0  0  0  0
  152.0732  142.2089  159.5249 N   0  0  0  0  0  0  0  0  0  0  0  0
  151.4537  141.9241  158.3740 N   0  0  0  0  0  0  0  0  0  0  0  0
  147.8118  141.4729  156.3191 C   0  0  0  0  0  0  0  0  0  0  0  0
  146.2369  144.5484  162.4702 H   0  0  0  0  0  0  0  0  0  0  0  0
  145.4008  143.4581  161.3723 H   0  0  0  0  0  0  0  0  0  0  0  0
  145.1528  145.1987  161.2438 H   0  0  0  0  0  0  0  0  0  0  0  0
  147.7763  143.7212  160.7136 H   0  0  0  0  0  0  0  0  0  0  0  0
  148.1822  146.0236  161.5775 H   0  0  0  0  0  0  0  0  0  0  0  0
  147.1407  146.6966  160.3267 H   0  0  0  0  0  0  0  0  0  0  0  0
  148.6553  145.9095  159.8885 H   0  0  0  0  0  0  0  0  0  0  0  0
  146.6805  145.0851  158.4606 H   0  0  0  0  0  0  0  0  0  0  0  0
  144.6609  143.7797  157.0840 H   0  0  0  0  0  0  0  0  0  0  0  0
  146.3391  143.7083  156.5941 H   0  0  0  0  0  0  0  0  0  0  0  0
  145.3094  141.0641  157.4443 H   0  0  0  0  0  0  0  0  0  0  0  0
  144.4080  141.7004  156.0883 H   0  0  0  0  0  0  0  0  0  0  0  0
  145.4546  141.8486  153.9218 H   0  0  0  0  0  0  0  0  0  0  0  0
  146.5087  143.1036  154.5504 H   0  0  0  0  0  0  0  0  0  0  0  0
  147.4109  140.4721  153.2374 H   0  0  0  0  0  0  0  0  0  0  0  0
  147.5483  142.0793  152.5510 H   0  0  0  0  0  0  0  0  0  0  0  0
  148.7413  139.9109  155.1440 H   0  0  0  0  0  0  0  0  0  0  0  0
  150.4391  140.5487  156.8152 H   0  0  0  0  0  0  0  0  0  0  0  0
  151.0450  140.8519  155.1956 H   0  0  0  0  0  0  0  0  0  0  0  0
  150.1373  143.2919  155.7050 H   0  0  0  0  0  0  0  0  0  0  0  0
  151.3854  145.0099  156.9568 H   0  0  0  0  0  0  0  0  0  0  0  0
  152.5527  145.5450  159.1280 H   0  0  0  0  0  0  0  0  0  0  0  0
  152.9553  143.6460  160.7341 H   0  0  0  0  0  0  0  0  0  0  0  0
  147.9924  142.5170  156.5805 H   0  0  0  0  0  0  0  0  0  0  0  0
  147.8705  140.8978  157.2423 H   0  0  0  0  0  0  0  0  0  0  0  0
  146.3184  140.3570  155.5265 H   0  0  0  0  0  0  0  0  0  0  0  0
  1  2  1  0  0  0  0
  1 23  1  0  0  0  0
  1 24  1  0  0  0  0
  1 25  1  0  0  0  0
  2  3  1  0  0  0  0
  2  4  1  0  0  0  0
  2 26  1  0  0  0  0
  3 27  1  0  0  0  0
  3 28  1  0  0  0  0
  3 29  1  0  0  0  0
  4  5  1  0  0  0  0
  4 30  1  0  0  0  0
  5  6  2  0  0  0  0
  5  7  1  0  0  0  0
  7  8  1  0  0  0  0
  7 31  1  0  0  0  0
  7 32  1  0  0  0  0
  8  9  1  0  0  0  0
  8 33  1  0  0  0  0
  8 34  1  0  0  0  0
  9 22  1  0  0  0  0
  9 10  1  0  0  0  0
  9 48  1  0  0  0  0
 10 11  1  0  0  0  0
 10 35  1  0  0  0  0
 10 36  1  0  0  0  0
 11 12  1  0  0  0  0
 11 37  1  0  0  0  0
 11 38  1  0  0  0  0
 12 13  1  0  0  0  0
 13 14  1  0  0  0  0
 13 22  1  0  0  0  0
 13 39  1  0  0  0  0
 14 15  1  0  0  0  0
 14 40  1  0  0  0  0
 14 41  1  0  0  0  0
 15 16  1  0  0  0  0
 15 42  1  0  0  0  0
 16 21  1  0  0  0  0
 16 17  2  0  0  0  0
 17 18  1  0  0  0  0
 17 43  1  0  0  0  0
 18 19  2  0  0  0  0
 18 44  1  0  0  0  0
 19 20  1  0  0  0  0
 19 45  1  0  0  0  0
 20 21  2  0  0  0  0
 22 46  1  0  0  0  0
 22 47  1  0  0  0  0
M  CHG  1   9   1
M  END
> <s_m_source_file>
AV-unprocessed.smi

> <i_m_source_file_index>
652

> <i_lp_mmshare_version>
43012

> <i_f3d_flags>
0

> <s_epik_input>
W0NIM11bQ0hdKFtDSDNdKVtOSF1DKD1PKVtDSDJdW0NIMl1OMVtDSDJdW0NIMl1PW0NASF0oW0NIMl0xKVtDSDJdW05IXWMyW2NIXVtjSF1bY0hdbm4y

> <s_epik_cmdline>
J2VwaWtfcHl0aG9uJywgJy1waCcsICc3LjAnLCAnLXRuJywgJzgnLCAnLW1hJywgJzIwMCcsICctbWV0YWxfYmluZGluZycsICctaW1hZScsICc8aW5maWxlLm1hZT4nLCAnLW9tYWUnLCAnPG91dGZpbGUubWFlPic=

> <r_lp_tautomer_probability>
0.999978

> <r_epik_Ionization_Penalty>
0.433079

> <r_epik_Ionization_Penalty_Charging>
0.413784

> <r_epik_Ionization_Penalty_Neutral>
0.0192945

> <r_epik_State_Penalty>
0.425138

> <r_epik_Charging_Adjusted_Penalty>
0.838922

> <i_epik_Tot_Q>
1

> <i_epik_Tot_abs_Q>
1

> <r_epik_Metal_State_Penalty>
0.422073

> <b_epik_Metal_Only>
0

> <s_lp_Force_Field>
OPLS_2005

> <r_lp_Energy>
21.6039

> <b_lp_Chiralities_Consistent>
1

> <s_lp_Variant>
AV-unprocessed.smi:652-1

> <Gold.Version>
5.8.1

> <Gold.Id.Protein>
6NUR|6NUR_protein|mol2

> <Gold.PLP.Fitness>
53.0850

> <Gold.PLP.PLP>
-44.7376

> <Gold.PLP.part.hbond>
-4.0000

> <Gold.PLP.part.metal>
0.0000

> <Gold.PLP.part.buried>
-8.6190

> <Gold.PLP.part.nonpolar>
-32.5382

> <Gold.PLP.part.repulsive>
0.3673

> <Gold.PLP.ligand.clash>
0.0000

> <Gold.PLP.ligand.torsion>
0.7729

> <Gold.PLP.Chemscore.Hbond>
3.2636

> <Gold.PLP.Chemscore.CHOScore>
0.0000

> <Gold.PLP.Chemscore.Metal>
0.0000

> <Gold.Chemscore.Hbonds>
donor molecule, donor type, donor heavy atom, donor atom, acceptor molecule, acceptor atom, score
      L1  H     4    30       P1  8029  0.90
      L1  H    15    42       P1  8028  0.93
      P1  H  6934  6946       L1     6  0.65
      P1  H  8011  8017       L1    12  0.25

> <Gold.PLP.Chemscore.Internal.Correction>
0.1024

> <Gold.Rescore>
     Score         DG    S(hbond)    S(metal)    S(lipo)     H(rot)  DE(clash)    DE(int)     intcor
     18.93     -19.88       3.00        0.00      86.74       2.26       0.03       0.91       ----

> <Gold.Chemscore.Fitness>
18.9319

> <Gold.Chemscore.DG>
-19.8759

> <Gold.Chemscore.ZeroCoef>
-5.4800

> <Gold.Chemscore.Hbond>
3.0033

> <Gold.Chemscore.Metal>
0.0000

> <Gold.Chemscore.Lipo>
86.7436

> <Gold.Chemscore.Internal_Hbond>
0.0000

> <Gold.Chemscore.DEClash>
0.0323

> <Gold.Chemscore.DEInternal>
0.9117

> <Gold.Chemscore.Rot>
2.2594

> <Gold.Chemscore.Internal.Correction>
   9.000000E+99

> <Gold.Chemscore.Hbonds>
donor molecule, donor type, donor heavy atom, donor atom, acceptor molecule, acceptor atom, score
      L1  H     4    30       P1  8029  0.88
      L1  H    15    42       P1  8028  0.91
      P1  H  6934  6946       L1     6  0.64
      P1  H  8011  8017       L1    12  0.03

> <Gold.Chemscore.Hbond.Weighted>
-10.0311

> <Gold.Chemscore.Metal.Weighted>
-0.0000

> <Gold.Chemscore.Lipo.Weighted>
-10.1490

> <Gold.Chemscore.Internal_Hbond.Weighted>
0.0000

> <Gold.Chemscore.DEClash.Weighted>
0.0323

> <Gold.Chemscore.DEInternal.Weighted>
0.9117

> <Gold.Chemscore.Rot.Weighted>
5.7841

> <Gold.Chemscore.Internal.Correction.Weighted>
   9.000000E+99

> <Gold.Protein.RotatedTorsions>
[ 6907 6896 6895 6894 ] final -146.57 input  -60.11 | X-H torsion
[ 7974 7965 7964 7962 ] final   33.97 input  175.53 | X-H torsion
[ 8008 7997 7996 7995 ] final  151.04 input   59.86 | X-H torsion
[ 10167 10162 10161 10158 ] final  -60.54 input  -65.29 | X-H torsion
[ 10718 10713 10712 10709 ] final -112.47 input   66.30 | X-H torsion
[ 10763 10752 10751 10750 ] final -158.18 input  -60.55 | X-H torsion
[ 11005 11000 10999 10996 ] final  -14.47 input  -57.11 | X-H torsion

> <Gold.Protein.ActiveResidues>
 VAL166  LYS551  ARG553  GLY616  TRP617  ASP618  TYR619  PRO620  LYS621  CYS622 
 ASP623  PHE694  ASN695  SER759  ASP760  ASP761  ALA762  ILE779  LEU786  VAL792 
 PHE793  MET794  SER795  GLU796  ALA797  LYS798  CYS799  TRP800  GLU811  SER814 

> <Gold.Protein.RotatedAtoms>
  151.1434  133.4955  159.2596 H   0  0  0  0  0  0  0  0  0  0  0  0  # atno 6907 bound_to 6896
  151.1630  135.0282  159.8728 H   0  0  0  0  0  0  0  0  0  0  0  0  # atno 6908 bound_to 6896
  152.5462  134.1306  159.8491 H   0  0  0  0  0  0  0  0  0  0  0  0  # atno 6909 bound_to 6896
  146.1384  139.6328  142.9179 H   0  0  0  0  0  0  0  0  0  0  0  0  # atno 7974 bound_to 7965
  156.2690  140.2058  156.6113 H   0  0  0  0  0  0  0  0  0  0  0  0  # atno 8008 bound_to 7997
  154.6829  140.0538  157.0308 H   0  0  0  0  0  0  0  0  0  0  0  0  # atno 8009 bound_to 7997
  155.0975  140.3202  155.4559 H   0  0  0  0  0  0  0  0  0  0  0  0  # atno 8010 bound_to 7997
  140.6065  143.2375  151.5810 H   0  0  0  0  0  0  0  0  0  0  0  0  # atno 10167 bound_to 10162
  156.0708  130.5922  150.8513 H   0  0  0  0  0  0  0  0  0  0  0  0  # atno 10718 bound_to 10713
  154.7577  135.3109  154.8438 H   0  0  0  0  0  0  0  0  0  0  0  0  # atno 10763 bound_to 10752
  153.9208  135.6796  153.4752 H   0  0  0  0  0  0  0  0  0  0  0  0  # atno 10764 bound_to 10752
  153.1175  135.4837  154.9071 H   0  0  0  0  0  0  0  0  0  0  0  0  # atno 10765 bound_to 10752
  140.7868  133.8319  155.9342 H   0  0  0  0  0  0  0  0  0  0  0  0  # atno 11005 bound_to 11000
  145.5102  141.0435  143.2492 LP  0  0  0  0  0  0  0  0  0  0  0  0  # atno 17320 bound_to 7965
  144.7765  139.6618  143.7172 LP  0  0  0  0  0  0  0  0  0  0  0  0  # atno 17321 bound_to 7965
  139.5328  144.2865  152.1187 LP  0  0  0  0  0  0  0  0  0  0  0  0  # atno 17342 bound_to 10162
  140.2056  144.4614  150.6410 LP  0  0  0  0  0  0  0  0  0  0  0  0  # atno 17343 bound_to 10162
  157.5777  131.0946  150.9320 LP  0  0  0  0  0  0  0  0  0  0  0  0  # atno 17370 bound_to 10713
  156.9522  130.5424  149.5283 LP  0  0  0  0  0  0  0  0  0  0  0  0  # atno 17371 bound_to 10713
  140.9429  134.1878  157.4784 LP  0  0  0  0  0  0  0  0  0  0  0  0  # atno 17394 bound_to 11000
  139.8736  134.9879  156.5388 LP  0  0  0  0  0  0  0  0  0  0  0  0  # atno 17395 bound_to 11000

$$$$
