AV-unprocessed.smi:2559|AV-procd|sdf|10036|dock10
  -GOLD-   2272014 83D 1   1.00000     0.00000
 Structure written by MMmdl.
 43 45  0  0  0  0  0  0  0  0  2 V2000
  153.8033  137.3488  159.2501 C   0  0  0  0  0  0  0  0  0  0  0  0
  153.0924  137.8695  158.0785 N   0  0  0  0  0  0  0  0  0  0  0  0
  152.7339  137.0437  157.0464 C   0  0  0  0  0  0  0  0  0  0  0  0
  153.0217  135.8488  157.1258 O   0  0  0  0  0  0  0  0  0  0  0  0
  152.0663  137.5599  155.9575 N   0  5  0  0  0  0  0  0  0  0  0  0
  151.6959  138.8679  155.7840 C   0  0  0  0  0  0  0  0  0  0  0  0
  151.0869  139.3315  154.8228 O   0  0  0  0  0  0  0  0  0  0  0  0
  152.1073  139.7234  156.9222 C   0  0  0  0  0  0  0  0  0  0  0  0
  152.7624  139.2508  158.0175 C   0  0  0  0  0  0  0  0  0  0  0  0
  152.9858  140.2573  158.9430 N   0  0  0  0  0  0  0  0  0  0  0  0
  152.4670  141.3330  158.3492 C   0  0  0  0  0  0  0  0  0  0  0  0
  152.4575  142.5965  158.9447 N   0  0  0  0  0  0  0  0  0  0  0  0
  152.5071  143.8807  158.2447 C   0  0  0  0  0  0  0  0  0  0  0  0
  151.4151  144.8433  158.7448 C   0  0  0  0  0  0  0  0  0  0  0  0
  151.5571  145.0750  160.2551 C   0  0  0  0  0  0  0  0  0  0  0  0
  151.6229  143.7286  160.9903 C   0  0  0  0  0  0  0  0  0  0  0  0
  152.6979  142.8170  160.3702 C   0  0  0  0  0  0  0  0  0  0  0  0
  151.9020  141.0934  157.1334 N   0  0  0  0  0  0  0  0  0  0  0  0
  151.1907  142.0426  156.2747 C   0  0  0  0  0  0  0  0  0  0  0  0
  149.7868  141.5421  155.8818 C   0  0  2  0  0  0  0  0  0  0  0  0
  149.2360  142.4118  154.9118 O   0  0  0  0  0  0  0  0  0  0  0  0
  148.8407  141.4889  157.0932 C   0  0  0  0  0  0  0  0  0  0  0  0
  148.3386  142.7769  157.3815 O   0  0  0  0  0  0  0  0  0  0  0  0
  154.7055  136.8144  158.9494 H   0  0  0  0  0  0  0  0  0  0  0  0
  153.1661  136.6581  159.8031 H   0  0  0  0  0  0  0  0  0  0  0  0
  154.1117  138.1350  159.9386 H   0  0  0  0  0  0  0  0  0  0  0  0
  153.4894  144.3266  158.4063 H   0  0  0  0  0  0  0  0  0  0  0  0
  152.4307  143.7323  157.1684 H   0  0  0  0  0  0  0  0  0  0  0  0
  151.4801  145.7935  158.2143 H   0  0  0  0  0  0  0  0  0  0  0  0
  150.4288  144.4338  158.5272 H   0  0  0  0  0  0  0  0  0  0  0  0
  152.4672  145.6427  160.4527 H   0  0  0  0  0  0  0  0  0  0  0  0
  150.7262  145.6738  160.6287 H   0  0  0  0  0  0  0  0  0  0  0  0
  151.8344  143.8909  162.0474 H   0  0  0  0  0  0  0  0  0  0  0  0
  150.6517  143.2348  160.9407 H   0  0  0  0  0  0  0  0  0  0  0  0
  152.7043  141.8588  160.8911 H   0  0  0  0  0  0  0  0  0  0  0  0
  153.6894  143.2507  160.5063 H   0  0  0  0  0  0  0  0  0  0  0  0
  151.1136  142.9977  156.7854 H   0  0  0  0  0  0  0  0  0  0  0  0
  151.7791  142.2678  155.3890 H   0  0  0  0  0  0  0  0  0  0  0  0
  149.8769  140.5475  155.4441 H   0  0  0  0  0  0  0  0  0  0  0  0
  149.4016  143.3031  155.1786 H   0  0  0  0  0  0  0  0  0  0  0  0
  147.9838  140.8508  156.8750 H   0  0  0  0  0  0  0  0  0  0  0  0
  149.3366  141.0700  157.9698 H   0  0  0  0  0  0  0  0  0  0  0  0
  148.7998  143.4043  156.8466 H   0  0  0  0  0  0  0  0  0  0  0  0
  1  2  1  0  0  0  0
  1 24  1  0  0  0  0
  1 25  1  0  0  0  0
  1 26  1  0  0  0  0
  2  9  1  0  0  0  0
  2  3  1  0  0  0  0
  3  4  2  0  0  0  0
  3  5  1  0  0  0  0
  5  6  1  0  0  0  0
  6  7  2  0  0  0  0
  6  8  1  0  0  0  0
  8 18  1  0  0  0  0
  8  9  2  0  0  0  0
  9 10  1  0  0  0  0
 10 11  2  0  0  0  0
 11 12  1  0  0  0  0
 11 18  1  0  0  0  0
 12 17  1  0  0  0  0
 12 13  1  0  0  0  0
 13 14  1  0  0  0  0
 13 27  1  0  0  0  0
 13 28  1  0  0  0  0
 14 15  1  0  0  0  0
 14 29  1  0  0  0  0
 14 30  1  0  0  0  0
 15 16  1  0  0  0  0
 15 31  1  0  0  0  0
 15 32  1  0  0  0  0
 16 17  1  0  0  0  0
 16 33  1  0  0  0  0
 16 34  1  0  0  0  0
 17 35  1  0  0  0  0
 17 36  1  0  0  0  0
 18 19  1  0  0  0  0
 19 20  1  0  0  0  0
 19 37  1  0  0  0  0
 19 38  1  0  0  0  0
 20 21  1  0  0  0  0
 20 22  1  0  0  0  0
 20 39  1  0  0  0  0
 21 40  1  0  0  0  0
 22 23  1  0  0  0  0
 22 41  1  0  0  0  0
 22 42  1  0  0  0  0
 23 43  1  0  0  0  0
M  CHG  1   5  -1
M  END
> <s_m_source_file>
AV-unprocessed.smi

> <i_m_source_file_index>
2559

> <i_lp_mmshare_version>
43012

> <i_f3d_flags>
0

> <s_epik_input>
Tz1jMVtuSF1jKD1PKW4oW0NIM10pYyhjMTIpbmMobjJbQ0gyXVtDQEhdKFtPSF0pW0NIMl1bT0hdKU4zW0NIMl1bQ0gyXVtDSDJdW0NIMl1bQ0gyXTM=

> <s_epik_cmdline>
J2VwaWtfcHl0aG9uJywgJy1waCcsICc3LjAnLCAnLXRuJywgJzgnLCAnLW1hJywgJzIwMCcsICctbWV0YWxfYmluZGluZycsICctaW1hZScsICc8aW5maWxlLm1hZT4nLCAnLW9tYWUnLCAnPG91dGZpbGUubWFlPic=

> <r_lp_tautomer_probability>
1

> <r_epik_Ionization_Penalty>
5.90509

> <r_epik_Ionization_Penalty_Charging>
0.0759636

> <r_epik_Ionization_Penalty_Neutral>
5.82913

> <r_epik_State_Penalty>
5.18635

> <r_epik_Charging_Adjusted_Penalty>
5.26231

> <i_epik_Tot_Q>
-1

> <i_epik_Tot_abs_Q>
1

> <r_epik_Metal_State_Penalty>
1.25614

> <b_epik_Metal_Only>
1

> <s_lp_Force_Field>
OPLS_2005

> <r_lp_Energy>
44.2417

> <b_lp_Chiralities_Consistent>
1

> <s_lp_Variant>
AV-unprocessed.smi:2559-3

> <Gold.Version>
5.8.1

> <Gold.Id.Protein>
6NUR|6NUR_protein|mol2

> <Gold.PLP.Fitness>
52.1697

> <Gold.PLP.PLP>
-41.0382

> <Gold.PLP.part.hbond>
-4.9069

> <Gold.PLP.part.metal>
0.0000

> <Gold.PLP.part.buried>
-5.4079

> <Gold.PLP.part.nonpolar>
-29.7481

> <Gold.PLP.part.repulsive>
0.0813

> <Gold.PLP.ligand.clash>
0.0414

> <Gold.PLP.ligand.torsion>
0.5317

> <Gold.PLP.Chemscore.Hbond>
3.8775

> <Gold.PLP.Chemscore.CHOScore>
0.0000

> <Gold.PLP.Chemscore.Metal>
0.0000

> <Gold.Chemscore.Hbonds>
donor molecule, donor type, donor heavy atom, donor atom, acceptor molecule, acceptor atom, score
      L1  H    21    40       P1  8028  1.00
      L1  H    23    43       P1  8028  1.00
      P1  H  7989  7998       L1     7  0.83
      P1  H 10752 10764       L1     4  1.00

> <Gold.PLP.Chemscore.Internal.Correction>
0.6038

> <Gold.Rescore>
     Score         DG    S(hbond)    S(metal)    S(lipo)     H(rot)  DE(clash)    DE(int)     intcor
     14.99     -18.96       3.28        0.00      85.75       2.93       0.81       3.16       ----

> <Gold.Chemscore.Fitness>
14.9928

> <Gold.Chemscore.DG>
-18.9576

> <Gold.Chemscore.ZeroCoef>
-5.4800

> <Gold.Chemscore.Hbond>
3.2795

> <Gold.Chemscore.Metal>
0.0000

> <Gold.Chemscore.Lipo>
85.7476

> <Gold.Chemscore.Internal_Hbond>
0.0000

> <Gold.Chemscore.DEClash>
0.8079

> <Gold.Chemscore.DEInternal>
3.1569

> <Gold.Chemscore.Rot>
2.9330

> <Gold.Chemscore.Internal.Correction>
   9.000000E+99

> <Gold.Chemscore.Hbonds>
donor molecule, donor type, donor heavy atom, donor atom, acceptor molecule, acceptor atom, score
      L1  H    21    40       P1  8028  0.93
      L1  H    23    43       P1  8028  0.63
      P1  H  7989  7998       L1     7  0.82
      P1  H 10752 10764       L1     4  0.50

> <Gold.Chemscore.Hbond.Weighted>
-10.9535

> <Gold.Chemscore.Metal.Weighted>
-0.0000

> <Gold.Chemscore.Lipo.Weighted>
-10.0325

> <Gold.Chemscore.Internal_Hbond.Weighted>
0.0000

> <Gold.Chemscore.DEClash.Weighted>
0.8079

> <Gold.Chemscore.DEInternal.Weighted>
3.1569

> <Gold.Chemscore.Rot.Weighted>
7.5084

> <Gold.Chemscore.Internal.Correction.Weighted>
   9.000000E+99

> <Gold.Protein.RotatedTorsions>
[ 6907 6896 6895 6894 ] final   66.32 input  -60.11 | X-H torsion
[ 7974 7965 7964 7962 ] final  -63.48 input  175.53 | X-H torsion
[ 8008 7997 7996 7995 ] final   20.54 input   59.86 | X-H torsion
[ 10167 10162 10161 10158 ] final  -22.20 input  -65.29 | X-H torsion
[ 10718 10713 10712 10709 ] final   83.61 input   66.30 | X-H torsion
[ 10763 10752 10751 10750 ] final    0.41 input  -60.55 | X-H torsion
[ 11005 11000 10999 10996 ] final  -70.12 input  -57.11 | X-H torsion

> <Gold.Protein.ActiveResidues>
 VAL166  LYS551  ARG553  GLY616  TRP617  ASP618  TYR619  PRO620  LYS621  CYS622 
 ASP623  PHE694  ASN695  SER759  ASP760  ASP761  ALA762  ILE779  LEU786  VAL792 
 PHE793  MET794  SER795  GLU796  ALA797  LYS798  CYS799  TRP800  GLU811  SER814 

> <Gold.Protein.RotatedAtoms>
  152.4472  134.5469  159.9855 H   0  0  0  0  0  0  0  0  0  0  0  0  # atno 6907 bound_to 6896
  151.5551  133.3406  159.2968 H   0  0  0  0  0  0  0  0  0  0  0  0  # atno 6908 bound_to 6896
  150.8391  134.7709  159.6981 H   0  0  0  0  0  0  0  0  0  0  0  0  # atno 6909 bound_to 6896
  145.7785  140.8775  143.0343 H   0  0  0  0  0  0  0  0  0  0  0  0  # atno 7974 bound_to 7965
  154.9372  140.3048  155.5138 H   0  0  0  0  0  0  0  0  0  0  0  0  # atno 8008 bound_to 7997
  156.2999  140.2343  156.4375 H   0  0  0  0  0  0  0  0  0  0  0  0  # atno 8009 bound_to 7997
  154.8180  140.0425  157.1379 H   0  0  0  0  0  0  0  0  0  0  0  0  # atno 8010 bound_to 7997
  140.7285  143.4556  151.0452 H   0  0  0  0  0  0  0  0  0  0  0  0  # atno 10167 bound_to 10162
  157.6882  131.0098  150.2549 H   0  0  0  0  0  0  0  0  0  0  0  0  # atno 10718 bound_to 10713
  153.3211  135.6969  153.7030 H   0  0  0  0  0  0  0  0  0  0  0  0  # atno 10763 bound_to 10752
  153.5870  135.3487  155.2897 H   0  0  0  0  0  0  0  0  0  0  0  0  # atno 10764 bound_to 10752
  154.8597  135.4308  154.2375 H   0  0  0  0  0  0  0  0  0  0  0  0  # atno 10765 bound_to 10752
  141.1568  133.6782  156.6704 H   0  0  0  0  0  0  0  0  0  0  0  0  # atno 11005 bound_to 11000
  144.6800  139.9955  143.7484 LP  0  0  0  0  0  0  0  0  0  0  0  0  # atno 17320 bound_to 7965
  146.0098  139.3160  143.0877 LP  0  0  0  0  0  0  0  0  0  0  0  0  # atno 17321 bound_to 7965
  139.8237  143.7785  152.3178 LP  0  0  0  0  0  0  0  0  0  0  0  0  # atno 17342 bound_to 10162
  139.7877  144.7422  150.9999 LP  0  0  0  0  0  0  0  0  0  0  0  0  # atno 17343 bound_to 10162
  156.3139  130.3776  149.7637 LP  0  0  0  0  0  0  0  0  0  0  0  0  # atno 17370 bound_to 10713
  156.5228  130.8223  151.3210 LP  0  0  0  0  0  0  0  0  0  0  0  0  # atno 17371 bound_to 10713
  140.3179  134.8032  157.4229 LP  0  0  0  0  0  0  0  0  0  0  0  0  # atno 17394 bound_to 11000
  140.1122  134.5330  155.8256 LP  0  0  0  0  0  0  0  0  0  0  0  0  # atno 17395 bound_to 11000

$$$$
