AV-unprocessed.smi:20|AV-procd|sdf|113|dock7
  -GOLD-   2262015273D 1   1.00000     0.00000
 Structure written by MMmdl.
 57 61  0  0  0  0  0  0  0  0  1 V2000
  151.3056  129.7481  155.4853 O   0  0  0  0  0  0  0  0  0  0  0  0
  150.3894  130.5589  155.5982 C   0  0  0  0  0  0  0  0  0  0  0  0
  150.5915  132.0644  155.6116 C   0  0  0  0  0  0  0  0  0  0  0  0
  149.1635  132.6210  155.3947 C   0  0  2  0  0  0  0  0  0  0  0  0
  148.8846  132.9150  153.8962 C   0  0  0  0  0  0  0  0  0  0  0  0
  149.6286  134.1679  153.4017 C   0  0  0  0  0  0  0  0  0  0  0  0
  149.3379  135.3744  154.3049 C   0  0  0  0  0  0  0  0  0  0  0  0
  149.6183  135.0519  155.7024 N   0  0  0  0  0  0  0  0  0  0  0  0
  149.7698  136.1278  156.5162 C   0  0  0  0  0  0  0  0  0  0  0  0
  149.0636  136.2070  157.6762 N   0  0  0  0  0  0  0  0  0  0  0  0
  149.2010  137.2654  158.4801 C   0  0  0  0  0  0  0  0  0  0  0  0
  149.9760  138.3394  158.3203 N   0  0  0  0  0  0  0  0  0  0  0  0
  150.6907  138.2653  157.1613 C   0  0  0  0  0  0  0  0  0  0  0  0
  150.6498  137.2051  156.2121 C   0  0  0  0  0  0  0  0  0  0  0  0
  151.5274  137.4723  155.1680 N   0  0  0  0  0  0  0  0  0  0  0  0
  152.0472  138.6289  155.4760 C   0  0  0  0  0  0  0  0  0  0  0  0
  151.5859  139.1877  156.6466 N   0  0  0  0  0  0  0  0  0  0  0  0
  152.0039  140.4525  157.2294 C   0  0  0  0  0  0  0  0  0  0  0  0
  150.8351  141.4257  157.5448 C   0  0  2  0  0  0  0  0  0  0  0  0
  149.8610  141.4719  156.3438 C   0  0  0  0  0  0  0  0  0  0  0  0
  150.3793  142.2667  155.2965 O   0  0  0  0  0  0  0  0  0  0  0  0
  151.3170  142.8580  157.9159 C   0  0  2  0  0  0  0  0  0  0  0  0
  152.1966  142.9749  159.1503 C   0  0  0  0  0  0  0  0  0  0  0  0
  152.0751  144.4511  159.5023 C   0  0  0  0  0  0  0  0  0  0  0  0
  150.7410  144.8046  159.1682 O   0  0  0  0  0  0  0  0  0  0  0  0
  150.1863  143.8266  158.2943 C   0  0  0  0  0  0  0  0  0  0  0  0
  148.8898  133.8948  156.2268 C   0  0  0  0  0  0  0  0  0  0  0  0
  148.2706  131.4492  155.8686 C   0  0  0  0  0  0  0  0  0  0  0  0
  149.0975  130.2669  155.7260 N   0  0  0  0  0  0  0  0  0  0  0  0
  150.9928  132.3495  156.5848 H   0  0  0  0  0  0  0  0  0  0  0  0
  151.3048  132.3742  154.8486 H   0  0  0  0  0  0  0  0  0  0  0  0
  149.1491  132.0571  153.2765 H   0  0  0  0  0  0  0  0  0  0  0  0
  147.8152  133.0747  153.7514 H   0  0  0  0  0  0  0  0  0  0  0  0
  150.7027  133.9848  153.3740 H   0  0  0  0  0  0  0  0  0  0  0  0
  149.3340  134.3940  152.3767 H   0  0  0  0  0  0  0  0  0  0  0  0
  149.9198  136.2296  153.9626 H   0  0  0  0  0  0  0  0  0  0  0  0
  148.2881  135.6577  154.2169 H   0  0  0  0  0  0  0  0  0  0  0  0
  148.6019  137.2513  159.3785 H   0  0  0  0  0  0  0  0  0  0  0  0
  152.7853  139.1109  154.8513 H   0  0  0  0  0  0  0  0  0  0  0  0
  152.5842  140.2593  158.1322 H   0  0  0  0  0  0  0  0  0  0  0  0
  152.6973  140.9017  156.5182 H   0  0  0  0  0  0  0  0  0  0  0  0
  150.2736  141.0347  158.3944 H   0  0  0  0  0  0  0  0  0  0  0  0
  149.6918  140.4796  155.9279 H   0  0  0  0  0  0  0  0  0  0  0  0
  148.8884  141.8603  156.6476 H   0  0  0  0  0  0  0  0  0  0  0  0
  149.9360  143.1016  155.3043 H   0  0  0  0  0  0  0  0  0  0  0  0
  151.8628  143.2815  157.0710 H   0  0  0  0  0  0  0  0  0  0  0  0
  151.8069  142.3599  159.9626 H   0  0  0  0  0  0  0  0  0  0  0  0
  153.2337  142.6970  158.9703 H   0  0  0  0  0  0  0  0  0  0  0  0
  152.2935  144.6522  160.5512 H   0  0  0  0  0  0  0  0  0  0  0  0
  152.7572  145.0445  158.8921 H   0  0  0  0  0  0  0  0  0  0  0  0
  149.7421  144.3037  157.4206 H   0  0  0  0  0  0  0  0  0  0  0  0
  149.3929  143.3069  158.8331 H   0  0  0  0  0  0  0  0  0  0  0  0
  147.8224  134.1206  156.2167 H   0  0  0  0  0  0  0  0  0  0  0  0
  149.1655  133.7177  157.2677 H   0  0  0  0  0  0  0  0  0  0  0  0
  148.0016  131.5515  156.9211 H   0  0  0  0  0  0  0  0  0  0  0  0
  147.3460  131.3563  155.2979 H   0  0  0  0  0  0  0  0  0  0  0  0
  148.7229  129.3293  155.7436 H   0  0  0  0  0  0  0  0  0  0  0  0
  1  2  2  0  0  0  0
  2 29  1  0  0  0  0
  2  3  1  0  0  0  0
  3  4  1  0  0  0  0
  3 30  1  0  0  0  0
  3 31  1  0  0  0  0
  4 27  1  0  0  0  0
  4  5  1  0  0  0  0
  4 28  1  0  0  0  0
  5  6  1  0  0  0  0
  5 32  1  0  0  0  0
  5 33  1  0  0  0  0
  6  7  1  0  0  0  0
  6 34  1  0  0  0  0
  6 35  1  0  0  0  0
  7  8  1  0  0  0  0
  7 36  1  0  0  0  0
  7 37  1  0  0  0  0
  8  9  1  0  0  0  0
  8 27  1  0  0  0  0
  9 14  1  0  0  0  0
  9 10  2  0  0  0  0
 10 11  1  0  0  0  0
 11 12  2  0  0  0  0
 11 38  1  0  0  0  0
 12 13  1  0  0  0  0
 13 17  1  0  0  0  0
 13 14  2  0  0  0  0
 14 15  1  0  0  0  0
 15 16  2  0  0  0  0
 16 17  1  0  0  0  0
 16 39  1  0  0  0  0
 17 18  1  0  0  0  0
 18 19  1  0  0  0  0
 18 40  1  0  0  0  0
 18 41  1  0  0  0  0
 19 20  1  0  0  0  0
 19 22  1  0  0  0  0
 19 42  1  0  0  0  0
 20 21  1  0  0  0  0
 20 43  1  0  0  0  0
 20 44  1  0  0  0  0
 21 45  1  0  0  0  0
 22 26  1  0  0  0  0
 22 23  1  0  0  0  0
 22 46  1  0  0  0  0
 23 24  1  0  0  0  0
 23 47  1  0  0  0  0
 23 48  1  0  0  0  0
 24 25  1  0  0  0  0
 24 49  1  0  0  0  0
 24 50  1  0  0  0  0
 25 26  1  0  0  0  0
 26 51  1  0  0  0  0
 26 52  1  0  0  0  0
 27 53  1  0  0  0  0
 27 54  1  0  0  0  0
 28 29  1  0  0  0  0
 28 55  1  0  0  0  0
 28 56  1  0  0  0  0
 29 57  1  0  0  0  0
M  END
> <s_m_source_file>
AV-unprocessed.smi

> <i_m_source_file_index>
20

> <i_lp_mmshare_version>
43012

> <i_f3d_flags>
0

> <s_epik_input>
W0NIMl0xW05IXUMoPU8pW0NIMl1bQ0BAXTEyW0NIMl1bQ0gyXVtDSDJdTihbQ0gyXTIpYyhuW2NIXW4zKWMoYzM0KW5bY0hdbjRbQ0gyXVtDQEhdKFtDSDJdW09IXSlbQ0BASF01W0NIMl1bQ0gyXU9bQ0gyXTU=

> <s_epik_cmdline>
J2VwaWtfcHl0aG9uJywgJy1waCcsICc3LjAnLCAnLXRuJywgJzgnLCAnLW1hJywgJzIwMCcsICctbWV0YWxfYmluZGluZycsICctaW1hZScsICc8aW5maWxlLm1hZT4nLCAnLW9tYWUnLCAnPG91dGZpbGUubWFlPic=

> <r_lp_tautomer_probability>
1

> <r_epik_Ionization_Penalty>
0.0019697

> <r_epik_Ionization_Penalty_Charging>
0

> <r_epik_Ionization_Penalty_Neutral>
0.0019697

> <r_epik_State_Penalty>
0.00113613

> <r_epik_Charging_Adjusted_Penalty>
0.00113613

> <i_epik_Tot_Q>
0

> <i_epik_Tot_abs_Q>
0

> <r_epik_Metal_State_Penalty>
-0

> <b_epik_Metal_Only>
0

> <s_lp_Force_Field>
OPLS_2005

> <r_lp_Energy>
60.2496

> <b_lp_Chiralities_Consistent>
1

> <s_lp_Variant>
AV-unprocessed.smi:20-1

> <Gold.Version>
5.8.1

> <Gold.Id.Protein>
6NUR|6NUR_protein|mol2

> <Gold.PLP.Fitness>
45.1302

> <Gold.PLP.PLP>
-39.2945

> <Gold.PLP.part.hbond>
-2.3827

> <Gold.PLP.part.metal>
0.0000

> <Gold.PLP.part.buried>
-6.1049

> <Gold.PLP.part.nonpolar>
-31.2237

> <Gold.PLP.part.repulsive>
0.2569

> <Gold.PLP.ligand.clash>
0.0000

> <Gold.PLP.ligand.torsion>
0.4153

> <Gold.PLP.Chemscore.Hbond>
2.0772

> <Gold.PLP.Chemscore.CHOScore>
0.0000

> <Gold.PLP.Chemscore.Metal>
0.0000

> <Gold.Chemscore.Hbonds>
donor molecule, donor type, donor heavy atom, donor atom, acceptor molecule, acceptor atom, score
      L1  H    21    45       P1  8028  1.00
      P1  H 10752 10763       L1    15  0.05

> <Gold.PLP.Chemscore.Internal.Correction>
0.4346

> <Gold.Rescore>
     Score         DG    S(hbond)    S(metal)    S(lipo)     H(rot)  DE(clash)    DE(int)     intcor
     13.41     -13.68       1.32        0.00      92.32       2.74       0.01       0.26       ----

> <Gold.Chemscore.Fitness>
13.4145

> <Gold.Chemscore.DG>
-13.6768

> <Gold.Chemscore.ZeroCoef>
-5.4800

> <Gold.Chemscore.Hbond>
1.3213

> <Gold.Chemscore.Metal>
0.0000

> <Gold.Chemscore.Lipo>
92.3232

> <Gold.Chemscore.Internal_Hbond>
0.0000

> <Gold.Chemscore.DEClash>
0.0060

> <Gold.Chemscore.DEInternal>
0.2563

> <Gold.Chemscore.Rot>
2.7415

> <Gold.Chemscore.Internal.Correction>
   9.000000E+99

> <Gold.Chemscore.Hbonds>
donor molecule, donor type, donor heavy atom, donor atom, acceptor molecule, acceptor atom, score
      L1  H    21    45       P1  8028  0.99
      P1  H 10752 10763       L1    15  0.08

> <Gold.Chemscore.Hbond.Weighted>
-4.4132

> <Gold.Chemscore.Metal.Weighted>
-0.0000

> <Gold.Chemscore.Lipo.Weighted>
-10.8018

> <Gold.Chemscore.Internal_Hbond.Weighted>
0.0000

> <Gold.Chemscore.DEClash.Weighted>
0.0060

> <Gold.Chemscore.DEInternal.Weighted>
0.2563

> <Gold.Chemscore.Rot.Weighted>
7.0182

> <Gold.Chemscore.Internal.Correction.Weighted>
   9.000000E+99

> <Gold.Protein.RotatedTorsions>
[ 6907 6896 6895 6894 ] final  -84.29 input  -60.11 | X-H torsion
[ 7974 7965 7964 7962 ] final -167.25 input  175.53 | X-H torsion
[ 8008 7997 7996 7995 ] final   60.25 input   59.86 | X-H torsion
[ 10167 10162 10161 10158 ] final   68.44 input  -65.29 | X-H torsion
[ 10718 10713 10712 10709 ] final   14.93 input   66.30 | X-H torsion
[ 10763 10752 10751 10750 ] final   55.83 input  -60.55 | X-H torsion
[ 11005 11000 10999 10996 ] final -152.17 input  -57.11 | X-H torsion

> <Gold.Protein.ActiveResidues>
 VAL166  LYS551  ARG553  GLY616  TRP617  ASP618  TYR619  PRO620  LYS621  CYS622 
 ASP623  PHE694  ASN695  SER759  ASP760  ASP761  ALA762  ILE779  LEU786  VAL792 
 PHE793  MET794  SER795  GLU796  ALA797  LYS798  CYS799  TRP800  GLU811  SER814 

> <Gold.Protein.RotatedAtoms>
  150.6878  134.3382  159.4856 H   0  0  0  0  0  0  0  0  0  0  0  0  # atno 6907 bound_to 6896
  152.1238  134.9183  160.0571 H   0  0  0  0  0  0  0  0  0  0  0  0  # atno 6908 bound_to 6896
  152.0379  133.3930  159.4361 H   0  0  0  0  0  0  0  0  0  0  0  0  # atno 6909 bound_to 6896
  144.7227  140.2546  143.6273 H   0  0  0  0  0  0  0  0  0  0  0  0  # atno 7974 bound_to 7965
  155.5793  140.3491  155.4536 H   0  0  0  0  0  0  0  0  0  0  0  0  # atno 8008 bound_to 7997
  156.0385  140.1290  157.0206 H   0  0  0  0  0  0  0  0  0  0  0  0  # atno 8009 bound_to 7997
  154.4382  140.1029  156.6188 H   0  0  0  0  0  0  0  0  0  0  0  0  # atno 8010 bound_to 7997
  140.0787  144.5090  150.7177 H   0  0  0  0  0  0  0  0  0  0  0  0  # atno 10167 bound_to 10162
  157.0462  130.6251  149.5759 H   0  0  0  0  0  0  0  0  0  0  0  0  # atno 10718 bound_to 10713
  152.9822  135.5697  154.5130 H   0  0  0  0  0  0  0  0  0  0  0  0  # atno 10763 bound_to 10752
  154.4631  135.2782  155.1700 H   0  0  0  0  0  0  0  0  0  0  0  0  # atno 10764 bound_to 10752
  154.3280  135.6255  153.5591 H   0  0  0  0  0  0  0  0  0  0  0  0  # atno 10765 bound_to 10752
  140.7218  134.3719  157.5182 H   0  0  0  0  0  0  0  0  0  0  0  0  # atno 11005 bound_to 11000
  145.8194  139.2037  143.1946 LP  0  0  0  0  0  0  0  0  0  0  0  0  # atno 17320 bound_to 7965
  146.0527  140.8053  142.9774 LP  0  0  0  0  0  0  0  0  0  0  0  0  # atno 17321 bound_to 7965
  140.7089  143.2489  151.4642 LP  0  0  0  0  0  0  0  0  0  0  0  0  # atno 17342 bound_to 10162
  139.5792  144.1748  152.1946 LP  0  0  0  0  0  0  0  0  0  0  0  0  # atno 17343 bound_to 10162
  156.0022  130.5103  150.7703 LP  0  0  0  0  0  0  0  0  0  0  0  0  # atno 17370 bound_to 10713
  157.5065  131.0922  151.0250 LP  0  0  0  0  0  0  0  0  0  0  0  0  # atno 17371 bound_to 10713
  139.8846  134.8960  156.2691 LP  0  0  0  0  0  0  0  0  0  0  0  0  # atno 17394 bound_to 11000
  140.9997  133.7159  156.0941 LP  0  0  0  0  0  0  0  0  0  0  0  0  # atno 17395 bound_to 11000

$$$$
