AV-unprocessed.smi:652|AV-procd|sdf|3198|dock10
  -GOLD-   22720 0133D 1   1.00000     0.00000
 Structure written by MMmdl.
 49 50  0  0  0  0  0  0  0  0  3 V2000
  143.5678  146.6386  155.7871 C   0  0  0  0  0  0  0  0  0  0  0  0
  144.1755  146.0372  154.5097 C   0  0  0  0  0  0  0  0  0  0  0  0
  143.1671  146.0302  153.3531 C   0  0  0  0  0  0  0  0  0  0  0  0
  144.6412  144.6749  154.7550 N   0  0  0  0  0  0  0  0  0  0  0  0
  145.3980  143.9481  153.9178 C   0  0  0  0  0  0  0  0  0  0  0  0
  145.7922  144.3675  152.8293 O   0  0  0  0  0  0  0  0  0  0  0  0
  145.7579  142.5357  154.3925 C   0  0  0  0  0  0  0  0  0  0  0  0
  146.8111  141.8401  153.5036 C   0  0  0  0  0  0  0  0  0  0  0  0
  147.8082  141.0725  154.2919 N   0  3  1  0  0  0  0  0  0  0  0  0
  148.5088  140.0576  153.4696 C   0  0  0  0  0  0  0  0  0  0  0  0
  149.4974  139.2549  154.3291 C   0  0  0  0  0  0  0  0  0  0  0  0
  150.4171  140.1452  154.9485 O   0  0  0  0  0  0  0  0  0  0  0  0
  149.7767  141.0660  155.8238 C   0  0  1  0  0  0  0  0  0  0  0  0
  150.8823  141.9021  156.4955 C   0  0  0  0  0  0  0  0  0  0  0  0
  150.3960  143.1707  157.0224 N   0  0  0  0  0  0  0  0  0  0  0  0
  150.8737  143.7055  158.2280 C   0  0  0  0  0  0  0  0  0  0  0  0
  151.8552  143.0938  159.0433 C   0  0  0  0  0  0  0  0  0  0  0  0
  152.2413  143.7469  160.2263 C   0  0  0  0  0  0  0  0  0  0  0  0
  151.6238  144.9741  160.5246 C   0  0  0  0  0  0  0  0  0  0  0  0
  150.6867  145.5420  159.7333 N   0  0  0  0  0  0  0  0  0  0  0  0
  150.3395  144.8934  158.6079 N   0  3  0  0  0  0  0  0  0  0  0  0
  148.7911  141.9275  155.0044 C   0  0  0  0  0  0  0  0  0  0  0  0
  143.2207  147.6574  155.6122 H   0  0  0  0  0  0  0  0  0  0  0  0
  144.2989  146.6781  156.5952 H   0  0  0  0  0  0  0  0  0  0  0  0
  142.7166  146.0534  156.1361 H   0  0  0  0  0  0  0  0  0  0  0  0
  145.0242  146.6526  154.2054 H   0  0  0  0  0  0  0  0  0  0  0  0
  142.8247  147.0401  153.1263 H   0  0  0  0  0  0  0  0  0  0  0  0
  142.2902  145.4279  153.5933 H   0  0  0  0  0  0  0  0  0  0  0  0
  143.6127  145.6235  152.4447 H   0  0  0  0  0  0  0  0  0  0  0  0
  144.3616  144.2535  155.6291 H   0  0  0  0  0  0  0  0  0  0  0  0
  146.1127  142.6041  155.4210 H   0  0  0  0  0  0  0  0  0  0  0  0
  144.8417  141.9441  154.4127 H   0  0  0  0  0  0  0  0  0  0  0  0
  146.2995  141.1443  152.8360 H   0  0  0  0  0  0  0  0  0  0  0  0
  147.3205  142.5640  152.8653 H   0  0  0  0  0  0  0  0  0  0  0  0
  147.7839  139.3789  153.0181 H   0  0  0  0  0  0  0  0  0  0  0  0
  149.0389  140.5503  152.6529 H   0  0  0  0  0  0  0  0  0  0  0  0
  148.9724  138.6672  155.0840 H   0  0  0  0  0  0  0  0  0  0  0  0
  150.0512  138.5517  153.7067 H   0  0  0  0  0  0  0  0  0  0  0  0
  149.2336  140.5029  156.5848 H   0  0  0  0  0  0  0  0  0  0  0  0
  151.3558  141.3341  157.2964 H   0  0  0  0  0  0  0  0  0  0  0  0
  151.6736  142.1117  155.7751 H   0  0  0  0  0  0  0  0  0  0  0  0
  149.6819  143.6651  156.5062 H   0  0  0  0  0  0  0  0  0  0  0  0
  152.3111  142.1501  158.7847 H   0  0  0  0  0  0  0  0  0  0  0  0
  152.9870  143.3239  160.8832 H   0  0  0  0  0  0  0  0  0  0  0  0
  151.8864  145.5161  161.4215 H   0  0  0  0  0  0  0  0  0  0  0  0
  149.3362  142.5346  154.2796 H   0  0  0  0  0  0  0  0  0  0  0  0
  148.2737  142.6158  155.6716 H   0  0  0  0  0  0  0  0  0  0  0  0
  147.2911  140.5611  154.9930 H   0  0  0  0  0  0  0  0  0  0  0  0
  149.6359  145.3198  158.0047 H   0  0  0  0  0  0  0  0  0  0  0  0
  1  2  1  0  0  0  0
  1 23  1  0  0  0  0
  1 24  1  0  0  0  0
  1 25  1  0  0  0  0
  2  3  1  0  0  0  0
  2  4  1  0  0  0  0
  2 26  1  0  0  0  0
  3 27  1  0  0  0  0
  3 28  1  0  0  0  0
  3 29  1  0  0  0  0
  4  5  1  0  0  0  0
  4 30  1  0  0  0  0
  5  6  2  0  0  0  0
  5  7  1  0  0  0  0
  7  8  1  0  0  0  0
  7 31  1  0  0  0  0
  7 32  1  0  0  0  0
  8  9  1  0  0  0  0
  8 33  1  0  0  0  0
  8 34  1  0  0  0  0
  9 22  1  0  0  0  0
  9 10  1  0  0  0  0
  9 48  1  0  0  0  0
 10 11  1  0  0  0  0
 10 35  1  0  0  0  0
 10 36  1  0  0  0  0
 11 12  1  0  0  0  0
 11 37  1  0  0  0  0
 11 38  1  0  0  0  0
 12 13  1  0  0  0  0
 13 14  1  0  0  0  0
 13 22  1  0  0  0  0
 13 39  1  0  0  0  0
 14 15  1  0  0  0  0
 14 40  1  0  0  0  0
 14 41  1  0  0  0  0
 15 16  1  0  0  0  0
 15 42  1  0  0  0  0
 16 21  1  0  0  0  0
 16 17  2  0  0  0  0
 17 18  1  0  0  0  0
 17 43  1  0  0  0  0
 18 19  2  0  0  0  0
 18 44  1  0  0  0  0
 19 20  1  0  0  0  0
 19 45  1  0  0  0  0
 20 21  2  0  0  0  0
 21 49  1  0  0  0  0
 22 46  1  0  0  0  0
 22 47  1  0  0  0  0
M  CHG  1   9   1
M  CHG  1  21   1
M  END
> <s_m_source_file>
AV-unprocessed.smi

> <i_m_source_file_index>
652

> <i_lp_mmshare_version>
43012

> <i_f3d_flags>
0

> <s_epik_input>
W0NIM11bQ0hdKFtDSDNdKVtOSF1DKD1PKVtDSDJdW0NIMl1OMVtDSDJdW0NIMl1PW0NASF0oW0NIMl0xKVtDSDJdW05IXWMyW2NIXVtjSF1bY0hdbm4y

> <s_epik_cmdline>
J2VwaWtfcHl0aG9uJywgJy1waCcsICc3LjAnLCAnLXRuJywgJzgnLCAnLW1hJywgJzIwMCcsICctbWV0YWxfYmluZGluZycsICctaW1hZScsICc8aW5maWxlLm1hZT4nLCAnLW9tYWUnLCAnPG91dGZpbGUubWFlPic=

> <r_lp_tautomer_probability>
0.966961

> <r_epik_Ionization_Penalty>
2.79885

> <r_epik_Ionization_Penalty_Charging>
2.79884

> <r_epik_Ionization_Penalty_Neutral>
3.2567e-06

> <r_epik_State_Penalty>
2.43203

> <r_epik_Charging_Adjusted_Penalty>
5.23087

> <i_epik_Tot_Q>
2

> <i_epik_Tot_abs_Q>
2

> <r_epik_Metal_State_Penalty>
2.43963

> <b_epik_Metal_Only>
0

> <s_lp_Force_Field>
OPLS_2005

> <r_lp_Energy>
31.8116

> <b_lp_Chiralities_Consistent>
1

> <s_lp_Variant>
AV-unprocessed.smi:652-7

> <Gold.Version>
5.8.1

> <Gold.Id.Protein>
6NUR|6NUR_protein|mol2

> <Gold.PLP.Fitness>
54.9473

> <Gold.PLP.PLP>
-41.7737

> <Gold.PLP.part.hbond>
-4.4877

> <Gold.PLP.part.metal>
0.0000

> <Gold.PLP.part.buried>
-2.2645

> <Gold.PLP.part.nonpolar>
-37.0757

> <Gold.PLP.part.repulsive>
0.7646

> <Gold.PLP.ligand.clash>
0.0000

> <Gold.PLP.ligand.torsion>
0.9504

> <Gold.PLP.Chemscore.Hbond>
5.0000

> <Gold.PLP.Chemscore.CHOScore>
0.0000

> <Gold.PLP.Chemscore.Metal>
0.0000

> <Gold.Chemscore.Hbonds>
donor molecule, donor type, donor heavy atom, donor atom, acceptor molecule, acceptor atom, score
      L1  H    15    42       P1  8028  2.00
      L1  H    21    49       P1  8029  1.90
      P1  H  7989  7998       L1    12  1.00

> <Gold.PLP.Chemscore.Internal.Correction>
0.0744

> <Gold.Rescore>
     Score         DG    S(hbond)    S(metal)    S(lipo)     H(rot)  DE(clash)    DE(int)     intcor
     15.62     -18.48       2.10        0.00     102.31       2.33       2.05       0.81       ----

> <Gold.Chemscore.Fitness>
15.6186

> <Gold.Chemscore.DG>
-18.4837

> <Gold.Chemscore.ZeroCoef>
-5.4800

> <Gold.Chemscore.Hbond>
2.0973

> <Gold.Chemscore.Metal>
0.0000

> <Gold.Chemscore.Lipo>
102.3071

> <Gold.Chemscore.Internal_Hbond>
0.0000

> <Gold.Chemscore.DEClash>
2.0524

> <Gold.Chemscore.DEInternal>
0.8126

> <Gold.Chemscore.Rot>
2.3326

> <Gold.Chemscore.Internal.Correction>
   9.000000E+99

> <Gold.Chemscore.Hbonds>
donor molecule, donor type, donor heavy atom, donor atom, acceptor molecule, acceptor atom, score
      L1  H    15    42       P1  8028  0.97
      L1  H    21    49       P1  8029  0.21
      P1  H  7989  7998       L1    12  0.54

> <Gold.Chemscore.Hbond.Weighted>
-7.0051

> <Gold.Chemscore.Metal.Weighted>
-0.0000

> <Gold.Chemscore.Lipo.Weighted>
-11.9699

> <Gold.Chemscore.Internal_Hbond.Weighted>
0.0000

> <Gold.Chemscore.DEClash.Weighted>
2.0524

> <Gold.Chemscore.DEInternal.Weighted>
0.8126

> <Gold.Chemscore.Rot.Weighted>
5.9714

> <Gold.Chemscore.Internal.Correction.Weighted>
   9.000000E+99

> <Gold.Protein.RotatedTorsions>
[ 6907 6896 6895 6894 ] final  -42.43 input  -60.11 | X-H torsion
[ 7974 7965 7964 7962 ] final -151.44 input  175.53 | X-H torsion
[ 8008 7997 7996 7995 ] final  -91.88 input   59.86 | X-H torsion
[ 10167 10162 10161 10158 ] final -139.89 input  -65.29 | X-H torsion
[ 10718 10713 10712 10709 ] final -164.25 input   66.30 | X-H torsion
[ 10763 10752 10751 10750 ] final   80.15 input  -60.55 | X-H torsion
[ 11005 11000 10999 10996 ] final   45.13 input  -57.11 | X-H torsion

> <Gold.Protein.ActiveResidues>
 VAL166  LYS551  ARG553  GLY616  TRP617  ASP618  TYR619  PRO620  LYS621  CYS622 
 ASP623  PHE694  ASN695  SER759  ASP760  ASP761  ALA762  ILE779  LEU786  VAL792 
 PHE793  MET794  SER795  GLU796  ALA797  LYS798  CYS799  TRP800  GLU811  SER814 

> <Gold.Protein.RotatedAtoms>
  150.9553  134.8948  159.7697 H   0  0  0  0  0  0  0  0  0  0  0  0  # atno 6907 bound_to 6896
  152.5136  134.3748  159.9340 H   0  0  0  0  0  0  0  0  0  0  0  0  # atno 6908 bound_to 6896
  151.3762  133.3797  159.2740 H   0  0  0  0  0  0  0  0  0  0  0  0  # atno 6909 bound_to 6896
  144.7850  140.4798  143.5812 H   0  0  0  0  0  0  0  0  0  0  0  0  # atno 7974 bound_to 7965
  154.7162  140.0515  157.0597 H   0  0  0  0  0  0  0  0  0  0  0  0  # atno 8008 bound_to 7997
  155.0488  140.3177  155.4680 H   0  0  0  0  0  0  0  0  0  0  0  0  # atno 8009 bound_to 7997
  156.2803  140.2119  156.5613 H   0  0  0  0  0  0  0  0  0  0  0  0  # atno 8010 bound_to 7997
  139.8335  143.7416  152.2665 H   0  0  0  0  0  0  0  0  0  0  0  0  # atno 10167 bound_to 10162
  156.6363  130.8950  151.2987 H   0  0  0  0  0  0  0  0  0  0  0  0  # atno 10718 bound_to 10713
  153.1010  135.4813  154.8867 H   0  0  0  0  0  0  0  0  0  0  0  0  # atno 10763 bound_to 10752
  154.7379  135.3075  154.8782 H   0  0  0  0  0  0  0  0  0  0  0  0  # atno 10764 bound_to 10752
  153.9399  135.6835  153.4798 H   0  0  0  0  0  0  0  0  0  0  0  0  # atno 10765 bound_to 10752
  140.1488  134.4488  155.8396 H   0  0  0  0  0  0  0  0  0  0  0  0  # atno 11005 bound_to 11000
  145.5947  139.1498  143.3163 LP  0  0  0  0  0  0  0  0  0  0  0  0  # atno 17320 bound_to 7965
  146.2077  140.6071  142.9073 LP  0  0  0  0  0  0  0  0  0  0  0  0  # atno 17321 bound_to 7965
  139.7631  144.7500  151.0335 LP  0  0  0  0  0  0  0  0  0  0  0  0  # atno 17342 bound_to 10162
  140.7804  143.4729  151.0122 LP  0  0  0  0  0  0  0  0  0  0  0  0  # atno 17343 bound_to 10162
  157.7185  130.9527  150.1345 LP  0  0  0  0  0  0  0  0  0  0  0  0  # atno 17370 bound_to 10713
  156.2194  130.3673  149.8573 LP  0  0  0  0  0  0  0  0  0  0  0  0  # atno 17371 bound_to 10713
  141.2196  133.6863  156.7383 LP  0  0  0  0  0  0  0  0  0  0  0  0  # atno 17394 bound_to 11000
  140.2630  134.8451  157.3777 LP  0  0  0  0  0  0  0  0  0  0  0  0  # atno 17395 bound_to 11000

$$$$
