AV-unprocessed.smi:1852|AV-procd|sdf|7526|dock1
  -GOLD-   22720 9233D 1   1.00000     0.00000
 Structure written by MMmdl.
 46 48  0  0  0  0  0  0  0  0  2 V2000
  149.4981  136.4106  162.6420 C   0  0  0  0  0  0  0  0  0  0  0  0
  149.5016  136.0645  161.1671 C   0  0  0  0  0  0  0  0  0  0  0  0
  148.9886  134.8299  160.7243 C   0  0  0  0  0  0  0  0  0  0  0  0
  148.9942  134.5176  159.3528 C   0  0  0  0  0  0  0  0  0  0  0  0
  149.5115  135.4363  158.4161 C   0  0  0  0  0  0  0  0  0  0  0  0
  149.5044  135.0880  156.9392 C   0  0  0  0  0  0  0  0  0  0  0  0
  150.0299  136.6787  158.8480 C   0  0  0  0  0  0  0  0  0  0  0  0
  150.5245  137.5282  157.8814 O   0  0  0  0  0  0  0  0  0  0  0  0
  150.9439  138.8298  158.2677 C   0  0  0  0  0  0  0  0  0  0  0  0
  151.6903  139.4861  157.0981 C   0  0  0  0  0  0  0  0  0  0  0  0
  151.4823  140.9425  157.0598 N   0  0  0  0  0  0  0  0  0  0  0  0
  150.5340  141.6816  156.4142 C   0  0  0  0  0  0  0  0  0  0  0  0
  149.4186  141.1717  155.5553 C   0  0  0  0  0  0  0  0  0  0  0  0
  148.4516  142.2049  155.2042 N   0  0  0  0  0  0  0  0  0  0  0  0
  147.1827  141.9763  154.8363 C   0  0  0  0  0  0  0  0  0  0  0  0
  146.6697  140.8609  154.7643 O   0  0  0  0  0  0  0  0  0  0  0  0
  150.7876  142.9922  156.6907 N   0  3  0  0  0  0  0  0  0  0  0  0
  151.9111  143.0944  157.5113 C   0  0  0  0  0  0  0  0  0  0  0  0
  152.5501  144.2092  158.0456 C   0  0  0  0  0  0  0  0  0  0  0  0
  153.6877  143.9652  158.8425 C   0  0  0  0  0  0  0  0  0  0  0  0
  154.1493  142.6547  159.0809 C   0  0  0  0  0  0  0  0  0  0  0  0
  153.4912  141.5327  158.5364 C   0  0  0  0  0  0  0  0  0  0  0  0
  152.3652  141.7816  157.7511 C   0  0  0  0  0  0  0  0  0  0  0  0
  150.0198  136.9837  160.2327 C   0  0  0  0  0  0  0  0  0  0  0  0
  149.1965  135.5574  163.2504 H   0  0  0  0  0  0  0  0  0  0  0  0
  148.8048  137.2297  162.8348 H   0  0  0  0  0  0  0  0  0  0  0  0
  150.4934  136.7201  162.9621 H   0  0  0  0  0  0  0  0  0  0  0  0
  148.5897  134.1184  161.4324 H   0  0  0  0  0  0  0  0  0  0  0  0
  148.5975  133.5684  159.0236 H   0  0  0  0  0  0  0  0  0  0  0  0
  150.5244  135.0396  156.5576 H   0  0  0  0  0  0  0  0  0  0  0  0
  148.9614  135.8456  156.3732 H   0  0  0  0  0  0  0  0  0  0  0  0
  149.0272  134.1247  156.7577 H   0  0  0  0  0  0  0  0  0  0  0  0
  150.0787  139.4400  158.5317 H   0  0  0  0  0  0  0  0  0  0  0  0
  151.5994  138.7764  159.1379 H   0  0  0  0  0  0  0  0  0  0  0  0
  152.7606  139.2993  157.1817 H   0  0  0  0  0  0  0  0  0  0  0  0
  151.3833  139.0525  156.1467 H   0  0  0  0  0  0  0  0  0  0  0  0
  149.8436  140.7709  154.6348 H   0  0  0  0  0  0  0  0  0  0  0  0
  148.9119  140.3401  156.0460 H   0  0  0  0  0  0  0  0  0  0  0  0
  148.7742  143.1614  155.2267 H   0  0  0  0  0  0  0  0  0  0  0  0
  146.6641  142.9204  154.6083 H   0  0  0  0  0  0  0  0  0  0  0  0
  152.2004  145.2143  157.8618 H   0  0  0  0  0  0  0  0  0  0  0  0
  154.2178  144.7999  159.2780 H   0  0  0  0  0  0  0  0  0  0  0  0
  155.0270  142.5057  159.6930 H   0  0  0  0  0  0  0  0  0  0  0  0
  153.8591  140.5344  158.7213 H   0  0  0  0  0  0  0  0  0  0  0  0
  150.4099  137.9195  160.6035 H   0  0  0  0  0  0  0  0  0  0  0  0
  150.2309  143.7603  156.3389 H   0  0  0  0  0  0  0  0  0  0  0  0
  1  2  1  0  0  0  0
  1 25  1  0  0  0  0
  1 26  1  0  0  0  0
  1 27  1  0  0  0  0
  2 24  1  0  0  0  0
  2  3  2  0  0  0  0
  3  4  1  0  0  0  0
  3 28  1  0  0  0  0
  4  5  2  0  0  0  0
  4 29  1  0  0  0  0
  5  6  1  0  0  0  0
  5  7  1  0  0  0  0
  6 30  1  0  0  0  0
  6 31  1  0  0  0  0
  6 32  1  0  0  0  0
  7  8  1  0  0  0  0
  7 24  2  0  0  0  0
  8  9  1  0  0  0  0
  9 10  1  0  0  0  0
  9 33  1  0  0  0  0
  9 34  1  0  0  0  0
 10 11  1  0  0  0  0
 10 35  1  0  0  0  0
 10 36  1  0  0  0  0
 11 23  1  0  0  0  0
 11 12  1  0  0  0  0
 12 13  1  0  0  0  0
 12 17  2  0  0  0  0
 13 14  1  0  0  0  0
 13 37  1  0  0  0  0
 13 38  1  0  0  0  0
 14 15  1  0  0  0  0
 14 39  1  0  0  0  0
 15 16  2  0  0  0  0
 15 40  1  0  0  0  0
 17 18  1  0  0  0  0
 17 46  1  0  0  0  0
 18 23  2  0  0  0  0
 18 19  1  0  0  0  0
 19 20  2  0  0  0  0
 19 41  1  0  0  0  0
 20 21  1  0  0  0  0
 20 42  1  0  0  0  0
 21 22  2  0  0  0  0
 21 43  1  0  0  0  0
 22 23  1  0  0  0  0
 22 44  1  0  0  0  0
 24 45  1  0  0  0  0
M  CHG  1  17   1
M  END
> <s_m_source_file>
AV-unprocessed.smi

> <i_m_source_file_index>
1852

> <i_lp_mmshare_version>
43012

> <i_f3d_flags>
0

> <s_epik_input>
W0NIM11jMVtjSF1bY0hdYyhbQ0gzXSljKFtjSF0xKU9bQ0gyXVtDSDJdbihjKG4yKVtDSDJdW05IXVtDSF09TyljKGMyMylbY0hdW2NIXVtjSF1bY0hdMw==

> <s_epik_cmdline>
J2VwaWtfcHl0aG9uJywgJy1waCcsICc3LjAnLCAnLXRuJywgJzgnLCAnLW1hJywgJzIwMCcsICctbWV0YWxfYmluZGluZycsICctaW1hZScsICc8aW5maWxlLm1hZT4nLCAnLW9tYWUnLCAnPG91dGZpbGUubWFlPic=

> <r_lp_tautomer_probability>
1

> <r_epik_Ionization_Penalty>
1.39865

> <r_epik_Ionization_Penalty_Charging>
1.39865

> <r_epik_Ionization_Penalty_Neutral>
7.38905e-08

> <r_epik_State_Penalty>
1.48061

> <r_epik_Charging_Adjusted_Penalty>
2.87925

> <i_epik_Tot_Q>
1

> <i_epik_Tot_abs_Q>
1

> <r_epik_Metal_State_Penalty>
1.53473

> <b_epik_Metal_Only>
0

> <s_lp_Force_Field>
OPLS_2005

> <r_lp_Energy>
13.537

> <b_lp_Chiralities_Consistent>
1

> <s_lp_Variant>
AV-unprocessed.smi:1852-2

> <Gold.Version>
5.8.1

> <Gold.Id.Protein>
6NUR|6NUR_protein|mol2

> <Gold.PLP.Fitness>
54.7666

> <Gold.PLP.PLP>
-47.2665

> <Gold.PLP.part.hbond>
-2.0000

> <Gold.PLP.part.metal>
0.0000

> <Gold.PLP.part.buried>
-6.8501

> <Gold.PLP.part.nonpolar>
-39.6326

> <Gold.PLP.part.repulsive>
0.4075

> <Gold.PLP.ligand.clash>
0.0000

> <Gold.PLP.ligand.torsion>
0.9036

> <Gold.PLP.Chemscore.Hbond>
3.0000

> <Gold.PLP.Chemscore.CHOScore>
0.0000

> <Gold.PLP.Chemscore.Metal>
0.0000

> <Gold.Chemscore.Hbonds>
donor molecule, donor type, donor heavy atom, donor atom, acceptor molecule, acceptor atom, score
      L1  H    14    39       P1  8028  1.00
      L1  H    17    46       P1  8028  2.00

> <Gold.PLP.Chemscore.Internal.Correction>
0.3073

> <Gold.Rescore>
     Score         DG    S(hbond)    S(metal)    S(lipo)     H(rot)  DE(clash)    DE(int)     intcor
     18.83     -19.77       1.99        0.00     118.69       2.44       0.04       0.90       ----

> <Gold.Chemscore.Fitness>
18.8295

> <Gold.Chemscore.DG>
-19.7732

> <Gold.Chemscore.ZeroCoef>
-5.4800

> <Gold.Chemscore.Hbond>
1.9928

> <Gold.Chemscore.Metal>
0.0000

> <Gold.Chemscore.Lipo>
118.6877

> <Gold.Chemscore.Internal_Hbond>
0.0000

> <Gold.Chemscore.DEClash>
0.0426

> <Gold.Chemscore.DEInternal>
0.9012

> <Gold.Chemscore.Rot>
2.4411

> <Gold.Chemscore.Internal.Correction>
   9.000000E+99

> <Gold.Chemscore.Hbonds>
donor molecule, donor type, donor heavy atom, donor atom, acceptor molecule, acceptor atom, score
      L1  H    14    39       P1  8028  0.98
      L1  H    17    46       P1  8028  1.00

> <Gold.Chemscore.Hbond.Weighted>
-6.6561

> <Gold.Chemscore.Metal.Weighted>
-0.0000

> <Gold.Chemscore.Lipo.Weighted>
-13.8865

> <Gold.Chemscore.Internal_Hbond.Weighted>
0.0000

> <Gold.Chemscore.DEClash.Weighted>
0.0426

> <Gold.Chemscore.DEInternal.Weighted>
0.9012

> <Gold.Chemscore.Rot.Weighted>
6.2493

> <Gold.Chemscore.Internal.Correction.Weighted>
   9.000000E+99

> <Gold.Protein.RotatedTorsions>
[ 6907 6896 6895 6894 ] final   -2.48 input  -60.11 | X-H torsion
[ 7974 7965 7964 7962 ] final   79.19 input  175.53 | X-H torsion
[ 8008 7997 7996 7995 ] final   17.69 input   59.86 | X-H torsion
[ 10167 10162 10161 10158 ] final -117.71 input  -65.29 | X-H torsion
[ 10718 10713 10712 10709 ] final -174.13 input   66.30 | X-H torsion
[ 10763 10752 10751 10750 ] final -138.00 input  -60.55 | X-H torsion
[ 11005 11000 10999 10996 ] final  -78.31 input  -57.11 | X-H torsion

> <Gold.Protein.ActiveResidues>
 VAL166  LYS551  ARG553  GLY616  TRP617  ASP618  TYR619  PRO620  LYS621  CYS622 
 ASP623  PHE694  ASN695  SER759  ASP760  ASP761  ALA762  ILE779  LEU786  VAL792 
 PHE793  MET794  SER795  GLU796  ALA797  LYS798  CYS799  TRP800  GLU811  SER814 

> <Gold.Protein.RotatedAtoms>
  151.5292  135.1068  159.9897 H   0  0  0  0  0  0  0  0  0  0  0  0  # atno 6907 bound_to 6896
  152.4586  133.7771  159.6841 H   0  0  0  0  0  0  0  0  0  0  0  0  # atno 6908 bound_to 6896
  150.8539  133.7679  159.3040 H   0  0  0  0  0  0  0  0  0  0  0  0  # atno 6909 bound_to 6896
  145.6675  139.2487  143.1887 H   0  0  0  0  0  0  0  0  0  0  0  0  # atno 7974 bound_to 7965
  154.8950  140.2992  155.5349 H   0  0  0  0  0  0  0  0  0  0  0  0  # atno 8008 bound_to 7997
  156.3020  140.2417  156.3906 H   0  0  0  0  0  0  0  0  0  0  0  0  # atno 8009 bound_to 7997
  154.8579  140.0406  157.1635 H   0  0  0  0  0  0  0  0  0  0  0  0  # atno 8010 bound_to 7997
  140.0654  143.4928  152.2009 H   0  0  0  0  0  0  0  0  0  0  0  0  # atno 10167 bound_to 10162
  156.7806  130.9482  151.3120 H   0  0  0  0  0  0  0  0  0  0  0  0  # atno 10718 bound_to 10713
  154.8648  135.3625  154.5314 H   0  0  0  0  0  0  0  0  0  0  0  0  # atno 10763 bound_to 10752
  153.5940  135.7014  153.5416 H   0  0  0  0  0  0  0  0  0  0  0  0  # atno 10764 bound_to 10752
  153.3349  135.4114  155.1487 H   0  0  0  0  0  0  0  0  0  0  0  0  # atno 10765 bound_to 10752
  141.1664  133.7058  156.7952 H   0  0  0  0  0  0  0  0  0  0  0  0  # atno 11005 bound_to 11000
  146.1074  140.7471  142.9520 LP  0  0  0  0  0  0  0  0  0  0  0  0  # atno 17320 bound_to 7965
  144.7068  140.3884  143.7112 LP  0  0  0  0  0  0  0  0  0  0  0  0  # atno 17321 bound_to 7965
  139.5868  144.7534  151.3500 LP  0  0  0  0  0  0  0  0  0  0  0  0  # atno 17342 bound_to 10162
  140.7151  143.7287  150.7640 LP  0  0  0  0  0  0  0  0  0  0  0  0  # atno 17343 bound_to 10162
  157.6648  130.8998  149.9908 LP  0  0  0  0  0  0  0  0  0  0  0  0  # atno 17370 bound_to 10713
  156.1220  130.3645  149.9871 LP  0  0  0  0  0  0  0  0  0  0  0  0  # atno 17371 bound_to 10713
  140.2296  134.8696  157.3463 LP  0  0  0  0  0  0  0  0  0  0  0  0  # atno 17394 bound_to 11000
  140.1904  134.4378  155.7719 LP  0  0  0  0  0  0  0  0  0  0  0  0  # atno 17395 bound_to 11000

$$$$
