AV-unprocessed.smi:62|AV-procd|sdf|606|dock10
  -GOLD-   2262016503D 1   1.00000     0.00000
 Structure written by MMmdl.
 30 31  0  0  0  0  0  0  0  0  2 V2000
  151.7608  145.5582  159.2520 C   0  0  0  0  0  0  0  0  0  0  0  0
  151.9490  144.1399  159.0358 N   0  0  0  0  0  0  0  0  0  0  0  0
  151.3292  143.3185  158.1225 C   0  0  0  0  0  0  0  0  0  0  0  0
  151.8285  142.0557  158.2821 C   0  0  0  0  0  0  0  0  0  0  0  0
  151.4364  140.8407  157.4748 C   0  0  0  0  0  0  0  0  0  0  0  0
  150.6489  141.1820  156.2941 N   0  0  0  0  0  0  0  0  0  0  0  0
  149.2937  141.6171  156.5881 C   0  0  0  0  0  0  0  0  0  0  0  0
  148.4908  141.4470  155.2908 C   0  0  0  0  0  0  0  0  0  0  0  0
  149.3667  140.5245  154.4270 C   0  0  2  0  0  0  0  0  0  0  0  0
  148.6498  139.4324  153.8904 O   0  0  0  0  0  0  0  0  0  0  0  0
  150.4678  140.0695  155.3860 C   0  0  0  0  0  0  0  0  0  0  0  0
  152.7728  142.2133  159.3536 C   0  0  0  0  0  0  0  0  0  0  0  0
  153.5832  141.0658  159.8972 C   0  0  0  0  0  0  0  0  0  0  0  0
  153.7146  140.0160  159.2306 O   0  0  0  0  0  0  0  0  0  0  0  0
  154.1035  141.2034  161.0267 O   0  5  0  0  0  0  0  0  0  0  0  0
  152.8358  143.4651  159.7902 N   0  0  0  0  0  0  0  0  0  0  0  0
  150.9320  145.9226  158.6442 H   0  0  0  0  0  0  0  0  0  0  0  0
  152.6681  146.0957  158.9749 H   0  0  0  0  0  0  0  0  0  0  0  0
  151.5385  145.7466  160.3028 H   0  0  0  0  0  0  0  0  0  0  0  0
  150.5898  143.6964  157.4322 H   0  0  0  0  0  0  0  0  0  0  0  0
  152.3255  140.2908  157.1657 H   0  0  0  0  0  0  0  0  0  0  0  0
  150.8743  140.1387  158.0924 H   0  0  0  0  0  0  0  0  0  0  0  0
  148.8583  140.9826  157.3618 H   0  0  0  0  0  0  0  0  0  0  0  0
  149.2745  142.6442  156.9537 H   0  0  0  0  0  0  0  0  0  0  0  0
  147.5087  141.0206  155.4997 H   0  0  0  0  0  0  0  0  0  0  0  0
  148.3397  142.4053  154.7928 H   0  0  0  0  0  0  0  0  0  0  0  0
  149.8075  141.0991  153.6112 H   0  0  0  0  0  0  0  0  0  0  0  0
  148.6967  139.4784  152.9478 H   0  0  0  0  0  0  0  0  0  0  0  0
  151.3936  139.8174  154.8677 H   0  0  0  0  0  0  0  0  0  0  0  0
  150.1418  139.1875  155.9406 H   0  0  0  0  0  0  0  0  0  0  0  0
  1  2  1  0  0  0  0
  1 17  1  0  0  0  0
  1 18  1  0  0  0  0
  1 19  1  0  0  0  0
  2 16  1  0  0  0  0
  2  3  1  0  0  0  0
  3  4  2  0  0  0  0
  3 20  1  0  0  0  0
  4  5  1  0  0  0  0
  4 12  1  0  0  0  0
  5  6  1  0  0  0  0
  5 21  1  0  0  0  0
  5 22  1  0  0  0  0
  6 11  1  0  0  0  0
  6  7  1  0  0  0  0
  7  8  1  0  0  0  0
  7 23  1  0  0  0  0
  7 24  1  0  0  0  0
  8  9  1  0  0  0  0
  8 25  1  0  0  0  0
  8 26  1  0  0  0  0
  9 10  1  0  0  0  0
  9 11  1  0  0  0  0
  9 27  1  0  0  0  0
 10 28  1  0  0  0  0
 11 29  1  0  0  0  0
 11 30  1  0  0  0  0
 12 13  1  0  0  0  0
 12 16  2  0  0  0  0
 13 14  2  0  0  0  0
 13 15  1  0  0  0  0
M  CHG  1  15  -1
M  END
> <s_m_source_file>
AV-unprocessed.smi

> <i_m_source_file_index>
62

> <i_lp_mmshare_version>
43012

> <i_f3d_flags>
0

> <s_epik_input>
W0NIM11uMVtjSF1jKGMobjEpQyg9TylbT0hdKVtDSDJdTjJbQ0gyXVtDSDJdW0NAQEhdKFtPSF0pW0NIMl0y

> <s_epik_cmdline>
J2VwaWtfcHl0aG9uJywgJy1waCcsICc3LjAnLCAnLXRuJywgJzgnLCAnLW1hJywgJzIwMCcsICctbWV0YWxfYmluZGluZycsICctaW1hZScsICc8aW5maWxlLm1hZT4nLCAnLW9tYWUnLCAnPG91dGZpbGUubWFlPic=

> <r_epik_Ionization_Penalty>
1.46526

> <r_epik_Ionization_Penalty_Charging>
0.000523675

> <r_epik_Ionization_Penalty_Neutral>
1.46474

> <r_epik_State_Penalty>
1.55202

> <r_epik_Charging_Adjusted_Penalty>
1.55254

> <i_epik_Tot_Q>
-1

> <i_epik_Tot_abs_Q>
1

> <r_epik_Metal_State_Penalty>
1.552

> <b_epik_Metal_Only>
0

> <s_lp_Force_Field>
OPLS_2005

> <r_lp_Energy>
37.4103

> <b_lp_Chiralities_Consistent>
1

> <s_lp_Variant>
AV-unprocessed.smi:62-6

> <Gold.Version>
5.8.1

> <Gold.Id.Protein>
6NUR|6NUR_protein|mol2

> <Gold.PLP.Fitness>
44.4133

> <Gold.PLP.PLP>
-33.9753

> <Gold.PLP.part.hbond>
-2.0625

> <Gold.PLP.part.metal>
0.0000

> <Gold.PLP.part.buried>
-3.1194

> <Gold.PLP.part.nonpolar>
-28.3596

> <Gold.PLP.part.repulsive>
0.0515

> <Gold.PLP.ligand.clash>
0.0000

> <Gold.PLP.ligand.torsion>
0.3386

> <Gold.PLP.Chemscore.Hbond>
2.9840

> <Gold.PLP.Chemscore.CHOScore>
0.7182

> <Gold.PLP.Chemscore.Metal>
0.0000

> <Gold.Chemscore.Hbonds>
donor molecule, donor type, donor heavy atom, donor atom, acceptor molecule, acceptor atom, score
      L1  H    10    28       P1  7957  0.88
      P1  H  7997  8010       L1    14  0.68
      L1  C     3    20       P1  8028  0.71

> <Gold.PLP.Chemscore.Internal.Correction>
0.0085

> <Gold.Rescore>
     Score         DG    S(hbond)    S(metal)    S(lipo)     H(rot)  DE(clash)    DE(int)     intcor
     14.82     -16.19       1.91        0.00      75.72       1.77       0.05       1.32       ----

> <Gold.Chemscore.Fitness>
14.8209

> <Gold.Chemscore.DG>
-16.1935

> <Gold.Chemscore.ZeroCoef>
-5.4800

> <Gold.Chemscore.Hbond>
1.9099

> <Gold.Chemscore.Metal>
0.0000

> <Gold.Chemscore.Lipo>
75.7159

> <Gold.Chemscore.Internal_Hbond>
0.0000

> <Gold.Chemscore.DEClash>
0.0491

> <Gold.Chemscore.DEInternal>
1.3235

> <Gold.Chemscore.Rot>
1.7674

> <Gold.Chemscore.Internal.Correction>
   9.000000E+99

> <Gold.Chemscore.Hbonds>
donor molecule, donor type, donor heavy atom, donor atom, acceptor molecule, acceptor atom, score
      L1  H    10    28       P1  7957  0.83
      P1  H  7997  8010       L1    14  0.33

> <Gold.Chemscore.Hbond.Weighted>
-6.3792

> <Gold.Chemscore.Metal.Weighted>
-0.0000

> <Gold.Chemscore.Lipo.Weighted>
-8.8588

> <Gold.Chemscore.Internal_Hbond.Weighted>
0.0000

> <Gold.Chemscore.DEClash.Weighted>
0.0491

> <Gold.Chemscore.DEInternal.Weighted>
1.3235

> <Gold.Chemscore.Rot.Weighted>
4.5245

> <Gold.Chemscore.Internal.Correction.Weighted>
   9.000000E+99

> <Gold.Protein.RotatedTorsions>
[ 6907 6896 6895 6894 ] final  130.57 input  -60.11 | X-H torsion
[ 7974 7965 7964 7962 ] final  102.57 input  175.53 | X-H torsion
[ 8008 7997 7996 7995 ] final   13.31 input   59.86 | X-H torsion
[ 10167 10162 10161 10158 ] final   85.33 input  -65.29 | X-H torsion
[ 10718 10713 10712 10709 ] final  -33.52 input   66.30 | X-H torsion
[ 10763 10752 10751 10750 ] final  151.58 input  -60.55 | X-H torsion
[ 11005 11000 10999 10996 ] final  128.45 input  -57.11 | X-H torsion

> <Gold.Protein.ActiveResidues>
 VAL166  LYS551  ARG553  GLY616  TRP617  ASP618  TYR619  PRO620  LYS621  CYS622 
 ASP623  PHE694  ASN695  SER759  ASP760  ASP761  ALA762  ILE779  LEU786  VAL792 
 PHE793  MET794  SER795  GLU796  ALA797  LYS798  CYS799  TRP800  GLU811  SER814 

> <Gold.Protein.RotatedAtoms>
  152.3513  133.6183  159.5946 H   0  0  0  0  0  0  0  0  0  0  0  0  # atno 6907 bound_to 6896
  150.7540  133.9569  159.3512 H   0  0  0  0  0  0  0  0  0  0  0  0  # atno 6908 bound_to 6896
  151.7420  135.0853  160.0368 H   0  0  0  0  0  0  0  0  0  0  0  0  # atno 6909 bound_to 6896
  145.3574  139.2425  143.3525 H   0  0  0  0  0  0  0  0  0  0  0  0  # atno 7974 bound_to 7965
  154.8327  140.2902  155.5711 H   0  0  0  0  0  0  0  0  0  0  0  0  # atno 8008 bound_to 7997
  156.3006  140.2529  156.3187 H   0  0  0  0  0  0  0  0  0  0  0  0  # atno 8009 bound_to 7997
  154.9213  140.0386  157.1988 H   0  0  0  0  0  0  0  0  0  0  0  0  # atno 8010 bound_to 7997
  139.8988  144.6342  150.8659 H   0  0  0  0  0  0  0  0  0  0  0  0  # atno 10167 bound_to 10162
  156.3617  130.4325  149.7618 H   0  0  0  0  0  0  0  0  0  0  0  0  # atno 10718 bound_to 10713
  154.1061  135.2842  155.3241 H   0  0  0  0  0  0  0  0  0  0  0  0  # atno 10763 bound_to 10752
  154.6522  135.5365  153.7919 H   0  0  0  0  0  0  0  0  0  0  0  0  # atno 10764 bound_to 10752
  153.0362  135.6513  154.1222 H   0  0  0  0  0  0  0  0  0  0  0  0  # atno 10765 bound_to 10752
  139.9561  134.9612  156.9004 H   0  0  0  0  0  0  0  0  0  0  0  0  # atno 11005 bound_to 11000
  146.2942  140.4202  142.8728 LP  0  0  0  0  0  0  0  0  0  0  0  0  # atno 17320 bound_to 7965
  144.8672  140.7222  143.6070 LP  0  0  0  0  0  0  0  0  0  0  0  0  # atno 17321 bound_to 7965
  140.7711  143.3453  151.2125 LP  0  0  0  0  0  0  0  0  0  0  0  0  # atno 17342 bound_to 10162
  139.7044  143.9480  152.2920 LP  0  0  0  0  0  0  0  0  0  0  0  0  # atno 17343 bound_to 10162
  156.4779  130.8027  151.3043 LP  0  0  0  0  0  0  0  0  0  0  0  0  # atno 17370 bound_to 10713
  157.7474  131.0015  150.2965 LP  0  0  0  0  0  0  0  0  0  0  0  0  # atno 17371 bound_to 10713
  140.5605  134.0539  155.7397 LP  0  0  0  0  0  0  0  0  0  0  0  0  # atno 17394 bound_to 11000
  141.1233  133.9425  157.2686 LP  0  0  0  0  0  0  0  0  0  0  0  0  # atno 17395 bound_to 11000

$$$$
