AV-unprocessed.smi:3116|AV-procd|sdf|11871|dock9
  -GOLD-   2272017253D 1   1.00000     0.00000
 Structure written by MMmdl.
 33 33  0  0  0  0  0  0  0  0  1 V2000
  147.4945  141.4761  154.9605 C   0  0  0  0  0  0  0  0  0  0  0  0
  149.0173  141.3811  154.7242 C   0  0  1  0  0  0  0  0  0  0  0  0
  149.7628  142.1574  155.7287 N   0  0  0  0  0  0  0  0  0  0  0  0
  149.7999  141.5451  157.0556 C   0  0  2  0  0  0  0  0  0  0  0  0
  148.6546  142.1466  157.8971 C   0  0  0  0  0  0  0  0  0  0  0  0
  151.2070  141.7905  157.6643 C   0  0  2  0  0  0  0  0  0  0  0  0
  151.4962  140.8676  158.8648 C   0  0  0  0  0  0  0  0  0  0  0  0
  151.4079  143.1834  158.0457 N   0  0  0  0  0  0  0  0  0  0  0  0
  151.2296  144.3129  157.2735 C   0  0  0  0  0  0  0  0  0  0  0  0
  151.5361  145.3929  158.0510 C   0  0  0  0  0  0  0  0  0  0  0  0
  151.8971  144.8176  159.3009 C   0  0  0  0  0  0  0  0  0  0  0  0
  151.8201  143.4972  159.2954 N   0  0  0  0  0  0  0  0  0  0  0  0
  149.5003  139.9237  154.7428 C   0  0  0  0  0  0  0  0  0  0  0  0
  148.5763  138.9841  154.5247 N   0  0  0  0  0  0  0  0  0  0  0  0
  150.6814  139.6395  154.9356 O   0  0  0  0  0  0  0  0  0  0  0  0
  146.9469  140.8294  154.2738 H   0  0  0  0  0  0  0  0  0  0  0  0
  147.1192  142.4868  154.8043 H   0  0  0  0  0  0  0  0  0  0  0  0
  147.2286  141.1826  155.9769 H   0  0  0  0  0  0  0  0  0  0  0  0
  149.2359  141.7677  153.7278 H   0  0  0  0  0  0  0  0  0  0  0  0
  149.3999  143.0957  155.8169 H   0  0  0  0  0  0  0  0  0  0  0  0
  149.6457  140.4683  156.9877 H   0  0  0  0  0  0  0  0  0  0  0  0
  148.5890  141.6772  158.8787 H   0  0  0  0  0  0  0  0  0  0  0  0
  147.6844  142.0072  157.4205 H   0  0  0  0  0  0  0  0  0  0  0  0
  148.7963  143.2167  158.0515 H   0  0  0  0  0  0  0  0  0  0  0  0
  151.9516  141.5735  156.8960 H   0  0  0  0  0  0  0  0  0  0  0  0
  151.4747  139.8169  158.5748 H   0  0  0  0  0  0  0  0  0  0  0  0
  150.7625  141.0031  159.6601 H   0  0  0  0  0  0  0  0  0  0  0  0
  152.4823  141.0674  159.2847 H   0  0  0  0  0  0  0  0  0  0  0  0
  150.9023  144.2554  156.2460 H   0  0  0  0  0  0  0  0  0  0  0  0
  151.5067  146.4349  157.7696 H   0  0  0  0  0  0  0  0  0  0  0  0
  152.2109  145.3166  160.2058 H   0  0  0  0  0  0  0  0  0  0  0  0
  148.8392  138.0094  154.5203 H   0  0  0  0  0  0  0  0  0  0  0  0
  147.6176  139.2546  154.3593 H   0  0  0  0  0  0  0  0  0  0  0  0
  1  2  1  0  0  0  0
  1 16  1  0  0  0  0
  1 17  1  0  0  0  0
  1 18  1  0  0  0  0
  2  3  1  0  0  0  0
  2 13  1  0  0  0  0
  2 19  1  0  0  0  0
  3  4  1  0  0  0  0
  3 20  1  0  0  0  0
  4  5  1  0  0  0  0
  4  6  1  0  0  0  0
  4 21  1  0  0  0  0
  5 22  1  0  0  0  0
  5 23  1  0  0  0  0
  5 24  1  0  0  0  0
  6  7  1  0  0  0  0
  6  8  1  0  0  0  0
  6 25  1  0  0  0  0
  7 26  1  0  0  0  0
  7 27  1  0  0  0  0
  7 28  1  0  0  0  0
  8 12  1  0  0  0  0
  8  9  1  0  0  0  0
  9 10  2  0  0  0  0
  9 29  1  0  0  0  0
 10 11  1  0  0  0  0
 10 30  1  0  0  0  0
 11 12  2  0  0  0  0
 11 31  1  0  0  0  0
 13 14  1  0  0  0  0
 13 15  2  0  0  0  0
 14 32  1  0  0  0  0
 14 33  1  0  0  0  0
M  END
> <s_m_source_file>
AV-unprocessed.smi

> <i_m_source_file_index>
3116

> <i_lp_mmshare_version>
43012

> <i_f3d_flags>
0

> <s_epik_input>
W05IMl1DKD1PKVtDQEhdKFtDSDNdKVtOSF1bQ0BIXShbQ0gzXSlbQ0BIXShbQ0gzXSluMVtjSF1bY0hdW2NIXW4x

> <s_epik_cmdline>
J2VwaWtfcHl0aG9uJywgJy1waCcsICc3LjAnLCAnLXRuJywgJzgnLCAnLW1hJywgJzIwMCcsICctbWV0YWxfYmluZGluZycsICctaW1hZScsICc8aW5maWxlLm1hZT4nLCAnLW9tYWUnLCAnPG91dGZpbGUubWFlPic=

> <r_lp_tautomer_probability>
1

> <r_epik_Ionization_Penalty>
0.865977

> <r_epik_Ionization_Penalty_Charging>
0

> <r_epik_Ionization_Penalty_Neutral>
0.865977

> <r_epik_State_Penalty>
0.901888

> <r_epik_Charging_Adjusted_Penalty>
0.901888

> <i_epik_Tot_Q>
0

> <i_epik_Tot_abs_Q>
0

> <r_epik_Metal_State_Penalty>
0.901181

> <b_epik_Metal_Only>
0

> <s_lp_Force_Field>
OPLS_2005

> <r_lp_Energy>
9.31489

> <b_lp_Chiralities_Consistent>
1

> <s_lp_Variant>
AV-unprocessed.smi:3116-10

> <Gold.Version>
5.8.1

> <Gold.Id.Protein>
6NUR|6NUR_protein|mol2

> <Gold.PLP.Fitness>
40.2878

> <Gold.PLP.PLP>
-34.0676

> <Gold.PLP.part.hbond>
-2.4134

> <Gold.PLP.part.metal>
0.0000

> <Gold.PLP.part.buried>
-4.0098

> <Gold.PLP.part.nonpolar>
-27.7321

> <Gold.PLP.part.repulsive>
0.1371

> <Gold.PLP.ligand.clash>
0.0000

> <Gold.PLP.ligand.torsion>
1.4357

> <Gold.PLP.Chemscore.Hbond>
2.0000

> <Gold.PLP.Chemscore.CHOScore>
1.0000

> <Gold.PLP.Chemscore.Metal>
0.0000

> <Gold.Chemscore.Hbonds>
donor molecule, donor type, donor heavy atom, donor atom, acceptor molecule, acceptor atom, score
      L1  H     3    20       P1  8028  1.00
      P1  H  7989  7998       L1    15  0.78
      L1  C     9    29       P1  8028  0.84

> <Gold.PLP.Chemscore.Internal.Correction>
0.0917

> <Gold.Rescore>
     Score         DG    S(hbond)    S(metal)    S(lipo)     H(rot)  DE(clash)    DE(int)     intcor
     13.69     -14.73       1.98        0.00      74.73       2.38       0.06       0.98       ----

> <Gold.Chemscore.Fitness>
13.6943

> <Gold.Chemscore.DG>
-14.7332

> <Gold.Chemscore.ZeroCoef>
-5.4800

> <Gold.Chemscore.Hbond>
1.9796

> <Gold.Chemscore.Metal>
0.0000

> <Gold.Chemscore.Lipo>
74.7307

> <Gold.Chemscore.Internal_Hbond>
0.0000

> <Gold.Chemscore.DEClash>
0.0628

> <Gold.Chemscore.DEInternal>
0.9761

> <Gold.Chemscore.Rot>
2.3836

> <Gold.Chemscore.Internal.Correction>
   9.000000E+99

> <Gold.Chemscore.Hbonds>
donor molecule, donor type, donor heavy atom, donor atom, acceptor molecule, acceptor atom, score
      L1  H     3    20       P1  8028  1.00
      P1  H  7989  7998       L1    15  0.23

> <Gold.Chemscore.Hbond.Weighted>
-6.6117

> <Gold.Chemscore.Metal.Weighted>
-0.0000

> <Gold.Chemscore.Lipo.Weighted>
-8.7435

> <Gold.Chemscore.Internal_Hbond.Weighted>
0.0000

> <Gold.Chemscore.DEClash.Weighted>
0.0628

> <Gold.Chemscore.DEInternal.Weighted>
0.9761

> <Gold.Chemscore.Rot.Weighted>
6.1020

> <Gold.Chemscore.Internal.Correction.Weighted>
   9.000000E+99

> <Gold.Protein.RotatedTorsions>
[ 6907 6896 6895 6894 ] final  -11.71 input  -60.11 | X-H torsion
[ 7974 7965 7964 7962 ] final   29.34 input  175.53 | X-H torsion
[ 8008 7997 7996 7995 ] final   81.80 input   59.86 | X-H torsion
[ 10167 10162 10161 10158 ] final  123.31 input  -65.29 | X-H torsion
[ 10718 10713 10712 10709 ] final  130.40 input   66.30 | X-H torsion
[ 10763 10752 10751 10750 ] final  104.57 input  -60.55 | X-H torsion
[ 11005 11000 10999 10996 ] final   87.46 input  -57.11 | X-H torsion

> <Gold.Protein.ActiveResidues>
 VAL166  LYS551  ARG553  GLY616  TRP617  ASP618  TYR619  PRO620  LYS621  CYS622 
 ASP623  PHE694  ASN695  SER759  ASP760  ASP761  ALA762  ILE779  LEU786  VAL792 
 PHE793  MET794  SER795  GLU796  ALA797  LYS798  CYS799  TRP800  GLU811  SER814 

> <Gold.Protein.RotatedAtoms>
  151.3820  135.0941  159.9498 H   0  0  0  0  0  0  0  0  0  0  0  0  # atno 6907 bound_to 6896
  152.5105  133.9063  159.7476 H   0  0  0  0  0  0  0  0  0  0  0  0  # atno 6908 bound_to 6896
  150.9498  133.6506  159.2803 H   0  0  0  0  0  0  0  0  0  0  0  0  # atno 6909 bound_to 6896
  146.1677  139.6935  142.8989 H   0  0  0  0  0  0  0  0  0  0  0  0  # atno 7974 bound_to 7965
  155.9021  140.3432  155.6034 H   0  0  0  0  0  0  0  0  0  0  0  0  # atno 8008 bound_to 7997
  155.7488  140.0817  157.2230 H   0  0  0  0  0  0  0  0  0  0  0  0  # atno 8009 bound_to 7997
  154.4045  140.1557  156.2687 H   0  0  0  0  0  0  0  0  0  0  0  0  # atno 8010 bound_to 7997
  139.5807  144.6984  151.3536 H   0  0  0  0  0  0  0  0  0  0  0  0  # atno 10167 bound_to 10162
  157.5066  131.1095  150.9353 H   0  0  0  0  0  0  0  0  0  0  0  0  # atno 10718 bound_to 10713
  153.3678  135.3938  155.1766 H   0  0  0  0  0  0  0  0  0  0  0  0  # atno 10763 bound_to 10752
  154.8689  135.3695  154.5017 H   0  0  0  0  0  0  0  0  0  0  0  0  # atno 10764 bound_to 10752
  153.5482  135.7083  153.5664 H   0  0  0  0  0  0  0  0  0  0  0  0  # atno 10765 bound_to 10752
  139.8919  134.8424  156.2864 H   0  0  0  0  0  0  0  0  0  0  0  0  # atno 11005 bound_to 11000
  145.4424  141.0423  143.2850 LP  0  0  0  0  0  0  0  0  0  0  0  0  # atno 17320 bound_to 7965
  144.8116  139.5951  143.7027 LP  0  0  0  0  0  0  0  0  0  0  0  0  # atno 17321 bound_to 7965
  140.7085  143.7451  150.7525 LP  0  0  0  0  0  0  0  0  0  0  0  0  # atno 17342 bound_to 10162
  140.0983  143.4812  152.2440 LP  0  0  0  0  0  0  0  0  0  0  0  0  # atno 17343 bound_to 10162
  157.0007  130.5598  149.5311 LP  0  0  0  0  0  0  0  0  0  0  0  0  # atno 17370 bound_to 10713
  156.0262  130.5355  150.8412 LP  0  0  0  0  0  0  0  0  0  0  0  0  # atno 17371 bound_to 10713
  141.0005  133.7154  156.0953 LP  0  0  0  0  0  0  0  0  0  0  0  0  # atno 17394 bound_to 11000
  140.7504  134.4051  157.5542 LP  0  0  0  0  0  0  0  0  0  0  0  0  # atno 17395 bound_to 11000

$$$$
