AV-unprocessed.smi:1831|AV-procd|sdf|7456|dock4
  -GOLD-   22720 9143D 1   1.00000     0.00000
 Structure written by MMmdl.
 41 42  0  0  0  0  0  0  0  0  2 V2000
  135.5423  138.5515  155.7073 C   0  0  0  0  0  0  0  0  0  0  0  0
  136.8278  137.8365  155.4660 C   0  0  0  0  0  0  0  0  0  0  0  0
  137.5162  137.2315  156.4425 N   0  0  0  0  0  0  0  0  0  0  0  0
  138.6806  136.6349  155.9771 N   0  0  0  0  0  0  0  0  0  0  0  0
  138.8386  136.8078  154.6617 C   0  0  0  0  0  0  0  0  0  0  0  0
  139.9876  136.2485  154.0486 N   0  0  0  0  0  0  0  0  0  0  0  0
  141.2454  136.2250  154.5183 C   0  0  0  0  0  0  0  0  0  0  0  0
  141.6126  136.6933  155.5957 O   0  0  0  0  0  0  0  0  0  0  0  0
  142.0736  135.6154  153.6573 N   0  0  0  0  0  0  0  0  0  0  0  0
  143.5111  135.4411  153.8442 C   0  0  0  0  0  0  0  0  0  0  0  0
  144.1916  134.8366  152.6004 C   0  0  2  0  0  0  0  0  0  0  0  0
  144.4028  135.8020  151.4354 C   0  0  0  0  0  0  0  0  0  0  0  0
  144.5369  134.8612  150.2442 C   0  0  0  0  0  0  0  0  0  0  0  0
  143.5602  133.7789  150.4971 N   0  3  1  0  0  0  0  0  0  0  0  0
  143.8234  132.4927  149.7915 C   0  0  0  0  0  0  0  0  0  0  0  0
  145.1484  131.8519  150.2473 C   0  0  0  0  0  0  0  0  0  0  0  0
  143.8518  132.6934  148.2641 C   0  0  0  0  0  0  0  0  0  0  0  0
  143.4042  133.6751  151.9711 C   0  0  0  0  0  0  0  0  0  0  0  0
  137.5600  137.7292  153.8702 S   0  0  0  0  0  0  0  0  0  0  0  0
  135.1188  138.2665  156.6709 H   0  0  0  0  0  0  0  0  0  0  0  0
  134.8245  138.3040  154.9252 H   0  0  0  0  0  0  0  0  0  0  0  0
  135.7096  139.6287  155.7023 H   0  0  0  0  0  0  0  0  0  0  0  0
  139.8325  135.8241  153.1459 H   0  0  0  0  0  0  0  0  0  0  0  0
  141.6828  135.2612  152.7963 H   0  0  0  0  0  0  0  0  0  0  0  0
  143.9364  136.4244  154.0479 H   0  0  0  0  0  0  0  0  0  0  0  0
  143.7159  134.8341  154.7280 H   0  0  0  0  0  0  0  0  0  0  0  0
  145.1708  134.4517  152.8908 H   0  0  0  0  0  0  0  0  0  0  0  0
  143.5283  136.4413  151.3051 H   0  0  0  0  0  0  0  0  0  0  0  0
  145.2754  136.4431  151.5661 H   0  0  0  0  0  0  0  0  0  0  0  0
  144.3477  135.3678  149.2972 H   0  0  0  0  0  0  0  0  0  0  0  0
  145.5473  134.4495  150.2160 H   0  0  0  0  0  0  0  0  0  0  0  0
  143.0143  131.8016  150.0331 H   0  0  0  0  0  0  0  0  0  0  0  0
  145.3507  130.9369  149.6895 H   0  0  0  0  0  0  0  0  0  0  0  0
  145.1301  131.5779  151.3023 H   0  0  0  0  0  0  0  0  0  0  0  0
  145.9905  132.5265  150.0897 H   0  0  0  0  0  0  0  0  0  0  0  0
  144.0620  131.7543  147.7513 H   0  0  0  0  0  0  0  0  0  0  0  0
  144.6238  133.4069  147.9734 H   0  0  0  0  0  0  0  0  0  0  0  0
  142.9005  133.0576  147.8770 H   0  0  0  0  0  0  0  0  0  0  0  0
  143.7746  132.7264  152.3614 H   0  0  0  0  0  0  0  0  0  0  0  0
  142.3410  133.7348  152.2067 H   0  0  0  0  0  0  0  0  0  0  0  0
  142.6762  134.1248  150.1519 H   0  0  0  0  0  0  0  0  0  0  0  0
  1  2  1  0  0  0  0
  1 20  1  0  0  0  0
  1 21  1  0  0  0  0
  1 22  1  0  0  0  0
  2 19  1  0  0  0  0
  2  3  2  0  0  0  0
  3  4  1  0  0  0  0
  4  5  2  0  0  0  0
  5  6  1  0  0  0  0
  5 19  1  0  0  0  0
  6  7  1  0  0  0  0
  6 23  1  0  0  0  0
  7  8  2  0  0  0  0
  7  9  1  0  0  0  0
  9 10  1  0  0  0  0
  9 24  1  0  0  0  0
 10 11  1  0  0  0  0
 10 25  1  0  0  0  0
 10 26  1  0  0  0  0
 11 18  1  0  0  0  0
 11 12  1  0  0  0  0
 11 27  1  0  0  0  0
 12 13  1  0  0  0  0
 12 28  1  0  0  0  0
 12 29  1  0  0  0  0
 13 14  1  0  0  0  0
 13 30  1  0  0  0  0
 13 31  1  0  0  0  0
 14 15  1  0  0  0  0
 14 18  1  0  0  0  0
 14 41  1  0  0  0  0
 15 16  1  0  0  0  0
 15 17  1  0  0  0  0
 15 32  1  0  0  0  0
 16 33  1  0  0  0  0
 16 34  1  0  0  0  0
 16 35  1  0  0  0  0
 17 36  1  0  0  0  0
 17 37  1  0  0  0  0
 17 38  1  0  0  0  0
 18 39  1  0  0  0  0
 18 40  1  0  0  0  0
M  CHG  1  14   1
M  END
> <s_m_source_file>
AV-unprocessed.smi

> <i_m_source_file_index>
1831

> <i_lp_mmshare_version>
43012

> <i_f3d_flags>
0

> <s_epik_input>
W0NIM11jMW5uYyhzMSlbTkhdQyg9TylbTkhdW0NIMl1bQ0BASF0yW0NIMl1bQ0gyXU4oW0NIMl0yKVtDSF0oW0NIM10pW0NIM10=

> <s_epik_cmdline>
J2VwaWtfcHl0aG9uJywgJy1waCcsICc3LjAnLCAnLXRuJywgJzgnLCAnLW1hJywgJzIwMCcsICctbWV0YWxfYmluZGluZycsICctaW1hZScsICc8aW5maWxlLm1hZT4nLCAnLW9tYWUnLCAnPG91dGZpbGUubWFlPic=

> <r_lp_tautomer_probability>
1

> <r_epik_Ionization_Penalty>
0.00080807

> <r_epik_Ionization_Penalty_Charging>
0.000218981

> <r_epik_Ionization_Penalty_Neutral>
0.00058909

> <r_epik_State_Penalty>
-0

> <r_epik_Charging_Adjusted_Penalty>
0.000218981

> <i_epik_Tot_Q>
1

> <i_epik_Tot_abs_Q>
1

> <r_epik_Metal_State_Penalty>
0.236062

> <b_epik_Metal_Only>
0

> <s_lp_Force_Field>
OPLS_2005

> <r_lp_Energy>
28.9112

> <b_lp_Chiralities_Consistent>
1

> <s_lp_Variant>
AV-unprocessed.smi:1831-1

> <Gold.Version>
5.8.1

> <Gold.Id.Protein>
6NUR|6NUR_protein|mol2

> <Gold.PLP.Fitness>
40.6100

> <Gold.PLP.PLP>
-32.5369

> <Gold.PLP.part.hbond>
-3.0005

> <Gold.PLP.part.metal>
0.0000

> <Gold.PLP.part.buried>
-2.5640

> <Gold.PLP.part.nonpolar>
-26.6620

> <Gold.PLP.part.repulsive>
0.2556

> <Gold.PLP.ligand.clash>
0.0000

> <Gold.PLP.ligand.torsion>
0.4837

> <Gold.PLP.Chemscore.Hbond>
3.0000

> <Gold.PLP.Chemscore.CHOScore>
0.0000

> <Gold.PLP.Chemscore.Metal>
0.0000

> <Gold.Chemscore.Hbonds>
donor molecule, donor type, donor heavy atom, donor atom, acceptor molecule, acceptor atom, score
      L1  H    14    41       P1 10186  2.00
      P1  H 11000 11005       L1     4  0.84

> <Gold.PLP.Chemscore.Internal.Correction>
0.0406

> <Gold.Rescore>
     Score         DG    S(hbond)    S(metal)    S(lipo)     H(rot)  DE(clash)    DE(int)     intcor
     15.83     -16.71       1.83        0.00      77.45       1.54       0.22       0.65       ----

> <Gold.Chemscore.Fitness>
15.8332

> <Gold.Chemscore.DG>
-16.7096

> <Gold.Chemscore.ZeroCoef>
-5.4800

> <Gold.Chemscore.Hbond>
1.8291

> <Gold.Chemscore.Metal>
0.0000

> <Gold.Chemscore.Lipo>
77.4512

> <Gold.Chemscore.Internal_Hbond>
0.0000

> <Gold.Chemscore.DEClash>
0.2224

> <Gold.Chemscore.DEInternal>
0.6541

> <Gold.Chemscore.Rot>
1.5396

> <Gold.Chemscore.Internal.Correction>
   9.000000E+99

> <Gold.Chemscore.Hbonds>
donor molecule, donor type, donor heavy atom, donor atom, acceptor molecule, acceptor atom, score
      L1  H    14    41       P1 10186  0.96
      P1  H 11000 11005       L1     4  0.33

> <Gold.Chemscore.Hbond.Weighted>
-6.1091

> <Gold.Chemscore.Metal.Weighted>
-0.0000

> <Gold.Chemscore.Lipo.Weighted>
-9.0618

> <Gold.Chemscore.Internal_Hbond.Weighted>
0.0000

> <Gold.Chemscore.DEClash.Weighted>
0.2224

> <Gold.Chemscore.DEInternal.Weighted>
0.6541

> <Gold.Chemscore.Rot.Weighted>
3.9413

> <Gold.Chemscore.Internal.Correction.Weighted>
   9.000000E+99

> <Gold.Protein.RotatedTorsions>
[ 6907 6896 6895 6894 ] final  -53.12 input  -60.11 | X-H torsion
[ 7974 7965 7964 7962 ] final  111.47 input  175.53 | X-H torsion
[ 8008 7997 7996 7995 ] final  142.83 input   59.86 | X-H torsion
[ 10167 10162 10161 10158 ] final   90.69 input  -65.29 | X-H torsion
[ 10718 10713 10712 10709 ] final  115.03 input   66.30 | X-H torsion
[ 10763 10752 10751 10750 ] final -158.94 input  -60.55 | X-H torsion
[ 11005 11000 10999 10996 ] final   95.12 input  -57.11 | X-H torsion

> <Gold.Protein.ActiveResidues>
 VAL166  LYS551  ARG553  GLY616  TRP617  ASP618  TYR619  PRO620  LYS621  CYS622 
 ASP623  PHE694  ASN695  SER759  ASP760  ASP761  ALA762  ILE779  LEU786  VAL792 
 PHE793  MET794  SER795  GLU796  ALA797  LYS798  CYS799  TRP800  GLU811  SER814 

> <Gold.Protein.RotatedAtoms>
  150.8455  134.7763  159.6966 H   0  0  0  0  0  0  0  0  0  0  0  0  # atno 6907 bound_to 6896
  152.4533  134.5343  159.9830 H   0  0  0  0  0  0  0  0  0  0  0  0  # atno 6908 bound_to 6896
  151.5474  133.3385  159.2982 H   0  0  0  0  0  0  0  0  0  0  0  0  # atno 6909 bound_to 6896
  145.2418  139.2775  143.4113 H   0  0  0  0  0  0  0  0  0  0  0  0  # atno 7974 bound_to 7965
  156.2942  140.2278  156.4792 H   0  0  0  0  0  0  0  0  0  0  0  0  # atno 8008 bound_to 7997
  154.7868  140.0457  157.1191 H   0  0  0  0  0  0  0  0  0  0  0  0  # atno 8009 bound_to 7997
  154.9693  140.3064  155.4998 H   0  0  0  0  0  0  0  0  0  0  0  0  # atno 8010 bound_to 7997
  139.8448  144.6623  150.9240 H   0  0  0  0  0  0  0  0  0  0  0  0  # atno 10167 bound_to 10162
  157.6246  131.1007  150.7270 H   0  0  0  0  0  0  0  0  0  0  0  0  # atno 10718 bound_to 10713
  154.7515  135.3093  154.8548 H   0  0  0  0  0  0  0  0  0  0  0  0  # atno 10763 bound_to 10752
  153.9333  135.6783  153.4749 H   0  0  0  0  0  0  0  0  0  0  0  0  # atno 10764 bound_to 10752
  153.1112  135.4866  154.8966 H   0  0  0  0  0  0  0  0  0  0  0  0  # atno 10765 bound_to 10752
  139.8792  134.8882  156.3964 H   0  0  0  0  0  0  0  0  0  0  0  0  # atno 11005 bound_to 11000
  146.3326  140.2784  142.8609 LP  0  0  0  0  0  0  0  0  0  0  0  0  # atno 17320 bound_to 7965
  144.9582  140.8248  143.5530 LP  0  0  0  0  0  0  0  0  0  0  0  0  # atno 17321 bound_to 7965
  140.7794  143.3880  151.1360 LP  0  0  0  0  0  0  0  0  0  0  0  0  # atno 17342 bound_to 10162
  139.7523  143.8760  152.3080 LP  0  0  0  0  0  0  0  0  0  0  0  0  # atno 17343 bound_to 10162
  156.7621  130.4802  149.5435 LP  0  0  0  0  0  0  0  0  0  0  0  0  # atno 17370 bound_to 10713
  156.1411  130.6245  151.0469 LP  0  0  0  0  0  0  0  0  0  0  0  0  # atno 17371 bound_to 10713
  140.9297  133.7588  156.0009 LP  0  0  0  0  0  0  0  0  0  0  0  0  # atno 17394 bound_to 11000
  140.8345  134.3139  157.5337 LP  0  0  0  0  0  0  0  0  0  0  0  0  # atno 17395 bound_to 11000

$$$$
