AV-unprocessed.smi:1209|AV-procd|sdf|5070|dock2
  -GOLD-   22720 4113D 1   1.00000     0.00000
 Structure written by MMmdl.
 48 50  0  0  0  0  0  0  0  0  1 V2000
  146.3847  134.7813  162.1324 C   0  0  0  0  0  0  0  0  0  0  0  0
  146.9833  135.7115  161.1340 C   0  0  0  0  0  0  0  0  0  0  0  0
  148.2163  135.7842  160.5512 C   0  0  0  0  0  0  0  0  0  0  0  0
  148.1155  136.9123  159.6913 C   0  0  0  0  0  0  0  0  0  0  0  0
  149.1677  137.4904  158.7828 C   0  0  0  0  0  0  0  0  0  0  0  0
  148.9854  137.1398  157.3699 N   0  0  0  0  0  0  0  0  0  0  0  0
  149.0761  135.6966  157.1650 C   0  0  0  0  0  0  0  0  0  0  0  0
  149.9463  137.8262  156.5040 C   0  0  0  0  0  0  0  0  0  0  0  0
  151.4345  137.5941  156.8454 C   0  0  1  0  0  0  0  0  0  0  0  0
  151.8612  136.3834  156.2485 O   0  0  0  0  0  0  0  0  0  0  0  0
  152.3280  138.7393  156.3290 C   0  0  0  0  0  0  0  0  0  0  0  0
  151.7812  140.0512  156.6275 N   0  0  0  0  0  0  0  0  0  0  0  0
  150.9292  140.7640  155.8659 C   0  0  0  0  0  0  0  0  0  0  0  0
  150.5485  141.9519  156.3267 N   0  0  0  0  0  0  0  0  0  0  0  0
  151.2320  142.0167  157.5291 C   0  0  0  0  0  0  0  0  0  0  0  0
  151.2602  143.0284  158.5137 C   0  0  0  0  0  0  0  0  0  0  0  0
  152.0398  142.8804  159.6831 C   0  0  0  0  0  0  0  0  0  0  0  0
  152.0398  143.9930  160.7167 C   0  0  0  0  0  0  0  0  0  0  0  0
  152.8078  141.7047  159.8810 C   0  0  0  0  0  0  0  0  0  0  0  0
  153.6509  141.5225  161.1307 C   0  0  0  0  0  0  0  0  0  0  0  0
  152.7918  140.6847  158.9066 C   0  0  0  0  0  0  0  0  0  0  0  0
  152.0124  140.8436  157.7470 C   0  0  0  0  0  0  0  0  0  0  0  0
  146.9188  137.4734  159.7566 N   0  0  0  0  0  0  0  0  0  0  0  0
  146.1881  136.7119  160.6756 O   0  0  0  0  0  0  0  0  0  0  0  0
  147.0437  133.9332  162.3184 H   0  0  0  0  0  0  0  0  0  0  0  0
  145.4291  134.3950  161.7773 H   0  0  0  0  0  0  0  0  0  0  0  0
  146.2138  135.2913  163.0806 H   0  0  0  0  0  0  0  0  0  0  0  0
  149.0603  135.1305  160.7124 H   0  0  0  0  0  0  0  0  0  0  0  0
  149.1481  138.5733  158.8999 H   0  0  0  0  0  0  0  0  0  0  0  0
  150.1578  137.1753  159.1148 H   0  0  0  0  0  0  0  0  0  0  0  0
  148.9285  135.4436  156.1146 H   0  0  0  0  0  0  0  0  0  0  0  0
  148.3101  135.1663  157.7310 H   0  0  0  0  0  0  0  0  0  0  0  0
  150.0514  135.3155  157.4708 H   0  0  0  0  0  0  0  0  0  0  0  0
  149.7521  137.5910  155.4559 H   0  0  0  0  0  0  0  0  0  0  0  0
  149.7596  138.8973  156.5944 H   0  0  0  0  0  0  0  0  0  0  0  0
  151.5597  137.5153  157.9266 H   0  0  0  0  0  0  0  0  0  0  0  0
  151.2067  135.7212  156.4092 H   0  0  0  0  0  0  0  0  0  0  0  0
  153.3284  138.6699  156.7581 H   0  0  0  0  0  0  0  0  0  0  0  0
  152.4484  138.6627  155.2475 H   0  0  0  0  0  0  0  0  0  0  0  0
  150.5685  140.3887  154.9193 H   0  0  0  0  0  0  0  0  0  0  0  0
  150.6742  143.9232  158.3630 H   0  0  0  0  0  0  0  0  0  0  0  0
  151.6520  143.6291  161.6684 H   0  0  0  0  0  0  0  0  0  0  0  0
  151.4184  144.8311  160.4002 H   0  0  0  0  0  0  0  0  0  0  0  0
  153.0509  144.3685  160.8751 H   0  0  0  0  0  0  0  0  0  0  0  0
  154.1679  140.5625  161.1256 H   0  0  0  0  0  0  0  0  0  0  0  0
  153.0251  141.5603  162.0225 H   0  0  0  0  0  0  0  0  0  0  0  0
  154.4039  142.3076  161.2009 H   0  0  0  0  0  0  0  0  0  0  0  0
  153.3707  139.7838  159.0453 H   0  0  0  0  0  0  0  0  0  0  0  0
  1  2  1  0  0  0  0
  1 25  1  0  0  0  0
  1 26  1  0  0  0  0
  1 27  1  0  0  0  0
  2 24  1  0  0  0  0
  2  3  2  0  0  0  0
  3  4  1  0  0  0  0
  3 28  1  0  0  0  0
  4  5  1  0  0  0  0
  4 23  2  0  0  0  0
  5  6  1  0  0  0  0
  5 29  1  0  0  0  0
  5 30  1  0  0  0  0
  6  7  1  0  0  0  0
  6  8  1  0  0  0  0
  7 31  1  0  0  0  0
  7 32  1  0  0  0  0
  7 33  1  0  0  0  0
  8  9  1  0  0  0  0
  8 34  1  0  0  0  0
  8 35  1  0  0  0  0
  9 10  1  0  0  0  0
  9 11  1  0  0  0  0
  9 36  1  0  0  0  0
 10 37  1  0  0  0  0
 11 12  1  0  0  0  0
 11 38  1  0  0  0  0
 11 39  1  0  0  0  0
 12 22  1  0  0  0  0
 12 13  1  0  0  0  0
 13 14  2  0  0  0  0
 13 40  1  0  0  0  0
 14 15  1  0  0  0  0
 15 22  2  0  0  0  0
 15 16  1  0  0  0  0
 16 17  2  0  0  0  0
 16 41  1  0  0  0  0
 17 18  1  0  0  0  0
 17 19  1  0  0  0  0
 18 42  1  0  0  0  0
 18 43  1  0  0  0  0
 18 44  1  0  0  0  0
 19 20  1  0  0  0  0
 19 21  2  0  0  0  0
 20 45  1  0  0  0  0
 20 46  1  0  0  0  0
 20 47  1  0  0  0  0
 21 22  1  0  0  0  0
 21 48  1  0  0  0  0
 23 24  1  0  0  0  0
M  END
> <s_m_source_file>
AV-unprocessed.smi

> <i_m_source_file_index>
1209

> <i_lp_mmshare_version>
43012

> <i_f3d_flags>
0

> <s_epik_input>
W0NIM11jMVtjSF1jKG5vMSlbQ0gyXU4oW0NIM10pW0NIMl1bQ0BIXShbT0hdKVtDSDJdbihbY0hdbjIpYyhjMjMpW2NIXWMoW0NIM10pYyhbY0hdMylbQ0gzXQ==

> <s_epik_cmdline>
J2VwaWtfcHl0aG9uJywgJy1waCcsICc3LjAnLCAnLXRuJywgJzgnLCAnLW1hJywgJzIwMCcsICctbWV0YWxfYmluZGluZycsICctaW1hZScsICc8aW5maWxlLm1hZT4nLCAnLW9tYWUnLCAnPG91dGZpbGUubWFlPic=

> <r_epik_Ionization_Penalty>
0.103258

> <r_epik_Ionization_Penalty_Charging>
0

> <r_epik_Ionization_Penalty_Neutral>
0.103258

> <r_epik_State_Penalty>
0.0919675

> <r_epik_Charging_Adjusted_Penalty>
0.0919675

> <i_epik_Tot_Q>
0

> <i_epik_Tot_abs_Q>
0

> <r_epik_Metal_State_Penalty>
0.0812522

> <b_epik_Metal_Only>
0

> <s_lp_Force_Field>
OPLS_2005

> <r_lp_Energy>
16.8498

> <b_lp_Chiralities_Consistent>
1

> <s_lp_Variant>
AV-unprocessed.smi:1209-2

> <Gold.Version>
5.8.1

> <Gold.Id.Protein>
6NUR|6NUR_protein|mol2

> <Gold.PLP.Fitness>
46.7535

> <Gold.PLP.PLP>
-42.5471

> <Gold.PLP.part.hbond>
-2.0000

> <Gold.PLP.part.metal>
0.0000

> <Gold.PLP.part.buried>
-6.1034

> <Gold.PLP.part.nonpolar>
-35.8641

> <Gold.PLP.part.repulsive>
0.0916

> <Gold.PLP.ligand.clash>
0.0000

> <Gold.PLP.ligand.torsion>
0.9948

> <Gold.PLP.Chemscore.Hbond>
1.9500

> <Gold.PLP.Chemscore.CHOScore>
0.0000

> <Gold.PLP.Chemscore.Metal>
0.0000

> <Gold.Chemscore.Hbonds>
donor molecule, donor type, donor heavy atom, donor atom, acceptor molecule, acceptor atom, score
      P1  H  6934  6947       L1    23  0.85
      P1  H 10752 10764       L1    10  1.00

> <Gold.PLP.Chemscore.Internal.Correction>
0.3459

> <Gold.Rescore>
     Score         DG    S(hbond)    S(metal)    S(lipo)     H(rot)  DE(clash)    DE(int)     intcor
     16.66     -18.66       1.64        0.00     119.28       2.45       0.11       1.90       ----

> <Gold.Chemscore.Fitness>
16.6599

> <Gold.Chemscore.DG>
-18.6630

> <Gold.Chemscore.ZeroCoef>
-5.4800

> <Gold.Chemscore.Hbond>
1.6436

> <Gold.Chemscore.Metal>
0.0000

> <Gold.Chemscore.Lipo>
119.2792

> <Gold.Chemscore.Internal_Hbond>
0.0000

> <Gold.Chemscore.DEClash>
0.1058

> <Gold.Chemscore.DEInternal>
1.8973

> <Gold.Chemscore.Rot>
2.4462

> <Gold.Chemscore.Internal.Correction>
   9.000000E+99

> <Gold.Chemscore.Hbonds>
donor molecule, donor type, donor heavy atom, donor atom, acceptor molecule, acceptor atom, score
      P1  H  6934  6947       L1    23  0.07
      P1  H 10752 10764       L1    10  0.44

> <Gold.Chemscore.Hbond.Weighted>
-5.4896

> <Gold.Chemscore.Metal.Weighted>
-0.0000

> <Gold.Chemscore.Lipo.Weighted>
-13.9557

> <Gold.Chemscore.Internal_Hbond.Weighted>
0.0000

> <Gold.Chemscore.DEClash.Weighted>
0.1058

> <Gold.Chemscore.DEInternal.Weighted>
1.8973

> <Gold.Chemscore.Rot.Weighted>
6.2623

> <Gold.Chemscore.Internal.Correction.Weighted>
   9.000000E+99

> <Gold.Protein.RotatedTorsions>
[ 6907 6896 6895 6894 ] final -133.08 input  -60.11 | X-H torsion
[ 7974 7965 7964 7962 ] final   47.13 input  175.53 | X-H torsion
[ 8008 7997 7996 7995 ] final   -4.62 input   59.86 | X-H torsion
[ 10167 10162 10161 10158 ] final -124.07 input  -65.29 | X-H torsion
[ 10718 10713 10712 10709 ] final  -76.79 input   66.30 | X-H torsion
[ 10763 10752 10751 10750 ] final  -25.62 input  -60.55 | X-H torsion
[ 11005 11000 10999 10996 ] final -143.36 input  -57.11 | X-H torsion

> <Gold.Protein.ActiveResidues>
 VAL166  LYS551  ARG553  GLY616  TRP617  ASP618  TYR619  PRO620  LYS621  CYS622 
 ASP623  PHE694  ASN695  SER759  ASP760  ASP761  ALA762  ILE779  LEU786  VAL792 
 PHE793  MET794  SER795  GLU796  ALA797  LYS798  CYS799  TRP800  GLU811  SER814 

> <Gold.Protein.RotatedAtoms>
  150.9698  133.6356  159.2739 H   0  0  0  0  0  0  0  0  0  0  0  0  # atno 6907 bound_to 6896
  151.3649  135.0910  159.9456 H   0  0  0  0  0  0  0  0  0  0  0  0  # atno 6908 bound_to 6896
  152.5179  133.9264  159.7614 H   0  0  0  0  0  0  0  0  0  0  0  0  # atno 6909 bound_to 6896
  146.0326  139.4782  142.9828 H   0  0  0  0  0  0  0  0  0  0  0  0  # atno 7974 bound_to 7965
  154.6124  140.2479  155.7652 H   0  0  0  0  0  0  0  0  0  0  0  0  # atno 8008 bound_to 7997
  156.2378  140.2944  156.0311 H   0  0  0  0  0  0  0  0  0  0  0  0  # atno 8009 bound_to 7997
  155.2031  140.0395  157.2911 H   0  0  0  0  0  0  0  0  0  0  0  0  # atno 8010 bound_to 7997
  139.9967  143.5583  152.2320 H   0  0  0  0  0  0  0  0  0  0  0  0  # atno 10167 bound_to 10162
  156.0164  130.4474  150.3247 H   0  0  0  0  0  0  0  0  0  0  0  0  # atno 10718 bound_to 10713
  153.7028  135.6955  153.5058 H   0  0  0  0  0  0  0  0  0  0  0  0  # atno 10763 bound_to 10752
  153.2330  135.4331  155.0614 H   0  0  0  0  0  0  0  0  0  0  0  0  # atno 10764 bound_to 10752
  154.8339  135.3489  154.6567 H   0  0  0  0  0  0  0  0  0  0  0  0  # atno 10765 bound_to 10752
  140.8133  134.2718  157.4932 H   0  0  0  0  0  0  0  0  0  0  0  0  # atno 11005 bound_to 11000
  145.7015  141.0134  143.1501 LP  0  0  0  0  0  0  0  0  0  0  0  0  # atno 17320 bound_to 7965
  144.7037  139.8650  143.7436 LP  0  0  0  0  0  0  0  0  0  0  0  0  # atno 17321 bound_to 7965
  139.6301  144.7643  151.2555 LP  0  0  0  0  0  0  0  0  0  0  0  0  # atno 17342 bound_to 10162
  140.7434  143.6495  150.8262 LP  0  0  0  0  0  0  0  0  0  0  0  0  # atno 17343 bound_to 10162
  157.1346  131.0281  151.2954 LP  0  0  0  0  0  0  0  0  0  0  0  0  # atno 17370 bound_to 10713
  157.4522  130.7605  149.7161 LP  0  0  0  0  0  0  0  0  0  0  0  0  # atno 17371 bound_to 10713
  139.8712  134.9495  156.4028 LP  0  0  0  0  0  0  0  0  0  0  0  0  # atno 17394 bound_to 11000
  140.9175  133.7668  155.9866 LP  0  0  0  0  0  0  0  0  0  0  0  0  # atno 17395 bound_to 11000

$$$$
