AV-unprocessed.smi:334|AV-procd|sdf|2369|dock2
  -GOLD-   2262022283D 1   1.00000     0.00000
 Structure written by MMmdl.
 44 46  0  0  0  0  0  0  0  0  3 V2000
  153.4475  142.8639  162.8264 C   0  0  0  0  0  0  0  0  0  0  0  0
  153.4398  142.4456  161.3470 C   0  0  1  0  0  0  0  0  0  0  0  0
  153.4848  140.9858  161.2805 N   0  0  0  0  0  0  0  0  0  0  0  0
  154.3967  140.2533  160.6222 C   0  0  0  0  0  0  0  0  0  0  0  0
  155.3501  140.7402  160.0135 O   0  0  0  0  0  0  0  0  0  0  0  0
  154.1974  138.7322  160.6694 C   0  0  0  0  0  0  0  0  0  0  0  0
  154.2965  138.1821  162.0321 N   0  0  0  0  0  0  0  0  0  0  0  0
  155.0432  138.9206  162.9718 C   0  0  0  0  0  0  0  0  0  0  0  0
  155.2015  138.5071  164.2445 C   0  0  0  0  0  0  0  0  0  0  0  0
  155.9732  139.2766  165.1958 N   0  3  0  0  0  0  0  0  0  0  0  0
  156.5292  140.3005  164.8112 O   0  0  0  0  0  0  0  0  0  0  0  0
  156.0503  138.8844  166.3565 O   0  5  0  0  0  0  0  0  0  0  0  0
  154.5731  137.2587  164.6310 C   0  0  0  0  0  0  0  0  0  0  0  0
  153.8598  136.5466  163.7367 C   0  0  0  0  0  0  0  0  0  0  0  0
  153.6880  136.9987  162.3524 C   0  0  0  0  0  0  0  0  0  0  0  0
  153.0368  136.3528  161.5308 O   0  0  0  0  0  0  0  0  0  0  0  0
  152.1951  142.9771  160.5926 C   0  0  1  0  0  0  0  0  0  0  0  0
  152.1051  144.5229  160.5662 C   0  0  0  0  0  0  0  0  0  0  0  0
  151.9648  144.8459  159.0682 C   0  0  2  0  0  0  0  0  0  0  0  0
  150.5810  144.3905  158.5714 C   0  0  0  0  0  0  0  0  0  0  0  0
  150.7170  142.8568  158.5575 C   0  0  0  0  0  0  0  0  0  0  0  0
  152.1500  142.6367  159.0793 C   0  0  1  0  0  0  0  0  0  0  0  0
  152.8877  143.8088  158.4419 C   0  0  0  0  0  0  0  0  0  0  0  0
  153.4718  143.9477  162.9380 H   0  0  0  0  0  0  0  0  0  0  0  0
  154.3234  142.4666  163.3402 H   0  0  0  0  0  0  0  0  0  0  0  0
  152.5622  142.4972  163.3472 H   0  0  0  0  0  0  0  0  0  0  0  0
  154.3330  142.8664  160.8828 H   0  0  0  0  0  0  0  0  0  0  0  0
  152.7417  140.4921  161.7534 H   0  0  0  0  0  0  0  0  0  0  0  0
  153.2265  138.5051  160.2269 H   0  0  0  0  0  0  0  0  0  0  0  0
  154.9277  138.2442  160.0208 H   0  0  0  0  0  0  0  0  0  0  0  0
  155.4763  139.8318  162.5849 H   0  0  0  0  0  0  0  0  0  0  0  0
  154.6713  136.8846  165.6396 H   0  0  0  0  0  0  0  0  0  0  0  0
  153.4023  135.6181  164.0457 H   0  0  0  0  0  0  0  0  0  0  0  0
  151.3081  142.5654  161.0775 H   0  0  0  0  0  0  0  0  0  0  0  0
  151.2663  144.8991  161.1524 H   0  0  0  0  0  0  0  0  0  0  0  0
  153.0127  144.9845  160.9570 H   0  0  0  0  0  0  0  0  0  0  0  0
  152.2000  145.8814  158.8205 H   0  0  0  0  0  0  0  0  0  0  0  0
  149.7760  144.7320  159.2232 H   0  0  0  0  0  0  0  0  0  0  0  0
  150.3833  144.7674  157.5671 H   0  0  0  0  0  0  0  0  0  0  0  0
  149.9656  142.3648  159.1762 H   0  0  0  0  0  0  0  0  0  0  0  0
  150.6129  142.4737  157.5416 H   0  0  0  0  0  0  0  0  0  0  0  0
  152.5432  141.6550  158.8164 H   0  0  0  0  0  0  0  0  0  0  0  0
  152.8521  143.8007  157.3511 H   0  0  0  0  0  0  0  0  0  0  0  0
  153.9262  143.8988  158.7641 H   0  0  0  0  0  0  0  0  0  0  0  0
  1  2  1  0  0  0  0
  1 24  1  0  0  0  0
  1 25  1  0  0  0  0
  1 26  1  0  0  0  0
  2  3  1  0  0  0  0
  2 17  1  0  0  0  0
  2 27  1  0  0  0  0
  3  4  1  0  0  0  0
  3 28  1  0  0  0  0
  4  5  2  0  0  0  0
  4  6  1  0  0  0  0
  6  7  1  0  0  0  0
  6 29  1  0  0  0  0
  6 30  1  0  0  0  0
  7 15  1  0  0  0  0
  7  8  1  0  0  0  0
  8  9  2  0  0  0  0
  8 31  1  0  0  0  0
  9 10  1  0  0  0  0
  9 13  1  0  0  0  0
 10 11  2  0  0  0  0
 10 12  1  0  0  0  0
 13 14  2  0  0  0  0
 13 32  1  0  0  0  0
 14 15  1  0  0  0  0
 14 33  1  0  0  0  0
 15 16  2  0  0  0  0
 17 22  1  0  0  0  0
 17 18  1  0  0  0  0
 17 34  1  0  0  0  0
 18 19  1  0  0  0  0
 18 35  1  0  0  0  0
 18 36  1  0  0  0  0
 19 23  1  0  0  0  0
 19 20  1  0  0  0  0
 19 37  1  0  0  0  0
 20 21  1  0  0  0  0
 20 38  1  0  0  0  0
 20 39  1  0  0  0  0
 21 22  1  0  0  0  0
 21 40  1  0  0  0  0
 21 41  1  0  0  0  0
 22 23  1  0  0  0  0
 22 42  1  0  0  0  0
 23 43  1  0  0  0  0
 23 44  1  0  0  0  0
M  CHG  1  10   1
M  CHG  1  12  -1
M  END
> <s_m_source_file>
AV-unprocessed.smi

> <i_m_source_file_index>
334

> <i_lp_mmshare_version>
43012

> <i_f3d_flags>
0

> <s_epik_input>
W0NIMl0xW0NIMl1bQ0BIXShbQ0gyXTIpW0NAQEhdKFtDSDJdW0NAQEhdMTIpW0NASF0oW0NIM10pW05IXUMoPU8pW0NIMl1uM1tjSF1jKFtOK10oPU8pW08tXSlbY0hdW2NIXWMzPU8=

> <s_epik_cmdline>
J2VwaWtfcHl0aG9uJywgJy1waCcsICc3LjAnLCAnLXRuJywgJzgnLCAnLW1hJywgJzIwMCcsICctbWV0YWxfYmluZGluZycsICctaW1hZScsICc8aW5maWxlLm1hZT4nLCAnLW9tYWUnLCAnPG91dGZpbGUubWFlPic=

> <r_lp_tautomer_probability>
1

> <r_epik_Ionization_Penalty>
2.17081e-08

> <r_epik_Ionization_Penalty_Charging>
8.1195e-11

> <r_epik_Ionization_Penalty_Neutral>
2.16269e-08

> <r_epik_State_Penalty>
-0

> <r_epik_Charging_Adjusted_Penalty>
8.1195e-11

> <i_epik_Tot_Q>
0

> <i_epik_Tot_abs_Q>
2

> <r_epik_Metal_State_Penalty>
-0

> <b_epik_Metal_Only>
0

> <s_lp_Force_Field>
OPLS_2005

> <r_lp_Energy>
62.1709

> <b_lp_Chiralities_Consistent>
1

> <s_lp_Variant>
AV-unprocessed.smi:334-8

> <Gold.Version>
5.8.1

> <Gold.Id.Protein>
6NUR|6NUR_protein|mol2

> <Gold.PLP.Fitness>
56.2817

> <Gold.PLP.PLP>
-54.0589

> <Gold.PLP.part.hbond>
-2.1568

> <Gold.PLP.part.metal>
0.0000

> <Gold.PLP.part.buried>
-6.7883

> <Gold.PLP.part.nonpolar>
-45.8198

> <Gold.PLP.part.repulsive>
0.1556

> <Gold.PLP.ligand.clash>
0.0000

> <Gold.PLP.ligand.torsion>
0.3955

> <Gold.PLP.Chemscore.Hbond>
0.9913

> <Gold.PLP.Chemscore.CHOScore>
0.0000

> <Gold.PLP.Chemscore.Metal>
0.0000

> <Gold.Chemscore.Hbonds>
donor molecule, donor type, donor heavy atom, donor atom, acceptor molecule, acceptor atom, score
      P1  H  6896  6907       L1    16  0.54

> <Gold.PLP.Chemscore.Internal.Correction>
0.0401

> <Gold.Rescore>
     Score         DG    S(hbond)    S(metal)    S(lipo)     H(rot)  DE(clash)    DE(int)     intcor
     20.61     -21.12       1.00        0.00     143.41       1.75       0.06       0.46       ----

> <Gold.Chemscore.Fitness>
20.6057

> <Gold.Chemscore.DG>
-21.1250

> <Gold.Chemscore.ZeroCoef>
-5.4800

> <Gold.Chemscore.Hbond>
0.9997

> <Gold.Chemscore.Metal>
0.0000

> <Gold.Chemscore.Lipo>
143.4123

> <Gold.Chemscore.Internal_Hbond>
0.0000

> <Gold.Chemscore.DEClash>
0.0583

> <Gold.Chemscore.DEInternal>
0.4610

> <Gold.Chemscore.Rot>
1.7474

> <Gold.Chemscore.Internal.Correction>
   9.000000E+99

> <Gold.Chemscore.Hbonds>
donor molecule, donor type, donor heavy atom, donor atom, acceptor molecule, acceptor atom, score
      P1  H  6896  6907       L1    16  0.54

> <Gold.Chemscore.Hbond.Weighted>
-3.3391

> <Gold.Chemscore.Metal.Weighted>
-0.0000

> <Gold.Chemscore.Lipo.Weighted>
-16.7792

> <Gold.Chemscore.Internal_Hbond.Weighted>
0.0000

> <Gold.Chemscore.DEClash.Weighted>
0.0583

> <Gold.Chemscore.DEInternal.Weighted>
0.4610

> <Gold.Chemscore.Rot.Weighted>
4.4733

> <Gold.Chemscore.Internal.Correction.Weighted>
   9.000000E+99

> <Gold.Protein.RotatedTorsions>
[ 6907 6896 6895 6894 ] final   34.64 input  -60.11 | X-H torsion
[ 7974 7965 7964 7962 ] final -135.90 input  175.53 | X-H torsion
[ 8008 7997 7996 7995 ] final  175.60 input   59.86 | X-H torsion
[ 10167 10162 10161 10158 ] final  175.78 input  -65.29 | X-H torsion
[ 10718 10713 10712 10709 ] final  109.66 input   66.30 | X-H torsion
[ 10763 10752 10751 10750 ] final    5.53 input  -60.55 | X-H torsion
[ 11005 11000 10999 10996 ] final -137.07 input  -57.11 | X-H torsion

> <Gold.Protein.ActiveResidues>
 VAL166  LYS551  ARG553  GLY616  TRP617  ASP618  TYR619  PRO620  LYS621  CYS622 
 ASP623  PHE694  ASN695  SER759  ASP760  ASP761  ALA762  ILE779  LEU786  VAL792 
 PHE793  MET794  SER795  GLU796  ALA797  LYS798  CYS799  TRP800  GLU811  SER814 

> <Gold.Protein.RotatedAtoms>
  152.1052  134.9313  160.0568 H   0  0  0  0  0  0  0  0  0  0  0  0  # atno 6907 bound_to 6896
  152.0512  133.4015  159.4386 H   0  0  0  0  0  0  0  0  0  0  0  0  # atno 6908 bound_to 6896
  150.6841  134.3226  159.4836 H   0  0  0  0  0  0  0  0  0  0  0  0  # atno 6909 bound_to 6896
  144.8973  140.6724  143.5107 H   0  0  0  0  0  0  0  0  0  0  0  0  # atno 7974 bound_to 7965
  156.0853  140.1405  156.9661 H   0  0  0  0  0  0  0  0  0  0  0  0  # atno 8008 bound_to 7997
  154.4609  140.0943  156.6938 H   0  0  0  0  0  0  0  0  0  0  0  0  # atno 8009 bound_to 7997
  155.5009  140.3451  155.4373 H   0  0  0  0  0  0  0  0  0  0  0  0  # atno 8010 bound_to 7997
  139.5189  144.2992  152.0394 H   0  0  0  0  0  0  0  0  0  0  0  0  # atno 10167 bound_to 10162
  157.6531  131.0918  150.6487 H   0  0  0  0  0  0  0  0  0  0  0  0  # atno 10718 bound_to 10713
  153.2583  135.6920  153.7605 H   0  0  0  0  0  0  0  0  0  0  0  0  # atno 10763 bound_to 10752
  153.6674  135.3350  155.3145 H   0  0  0  0  0  0  0  0  0  0  0  0  # atno 10764 bound_to 10752
  154.8421  135.4491  154.1565 H   0  0  0  0  0  0  0  0  0  0  0  0  # atno 10765 bound_to 10752
  140.8746  134.2008  157.4630 H   0  0  0  0  0  0  0  0  0  0  0  0  # atno 11005 bound_to 11000
  145.3677  139.1666  143.4349 LP  0  0  0  0  0  0  0  0  0  0  0  0  # atno 17320 bound_to 7965
  146.3089  140.3746  142.8677 LP  0  0  0  0  0  0  0  0  0  0  0  0  # atno 17321 bound_to 7965
  140.2440  144.4239  150.6248 LP  0  0  0  0  0  0  0  0  0  0  0  0  # atno 17342 bound_to 10162
  140.6271  143.2182  151.6574 LP  0  0  0  0  0  0  0  0  0  0  0  0  # atno 17343 bound_to 10162
  156.6796  130.4563  149.5632 LP  0  0  0  0  0  0  0  0  0  0  0  0  # atno 17370 bound_to 10713
  156.1939  130.6577  151.1092 LP  0  0  0  0  0  0  0  0  0  0  0  0  # atno 17371 bound_to 10713
  139.8714  134.9790  156.5018 LP  0  0  0  0  0  0  0  0  0  0  0  0  # atno 17394 bound_to 11000
  140.8533  133.8115  155.9191 LP  0  0  0  0  0  0  0  0  0  0  0  0  # atno 17395 bound_to 11000

$$$$
