AV-unprocessed.smi:55|AV-procd|sdf|562|dock3
  -GOLD-   2262016463D 1   1.00000     0.00000
 Structure written by MMmdl.
 31 32  0  0  0  0  0  0  0  0  1 V2000
  151.8861  144.9008  157.8551 C   0  0  0  0  0  0  0  0  0  0  0  0
  151.7434  143.4211  158.1707 C   0  0  0  0  0  0  0  0  0  0  0  0
  151.0085  142.5803  157.3988 C   0  0  0  0  0  0  0  0  0  0  0  0
  150.8589  141.2254  157.6602 N   0  0  0  0  0  0  0  0  0  0  0  0
  150.0224  140.3439  156.7607 C   0  0  1  0  0  0  0  0  0  0  0  0
  149.2682  141.1809  155.7266 C   0  0  0  0  0  0  0  0  0  0  0  0
  149.3640  140.2964  154.5014 C   0  0  1  0  0  0  0  0  0  0  0  0
  149.2415  141.0573  153.3173 O   0  0  0  0  0  0  0  0  0  0  0  0
  150.7562  139.6804  154.6604 C   0  0  2  0  0  0  0  0  0  0  0  0
  150.9237  138.3454  153.9192 C   0  0  0  0  0  0  0  0  0  0  0  0
  149.8152  137.5091  154.1729 O   0  0  0  0  0  0  0  0  0  0  0  0
  150.8645  139.4688  156.0682 O   0  0  0  0  0  0  0  0  0  0  0  0
  151.4826  140.6684  158.7962 C   0  0  0  0  0  0  0  0  0  0  0  0
  151.3766  139.4830  159.1082 O   0  0  0  0  0  0  0  0  0  0  0  0
  152.2400  141.5305  159.5875 N   0  0  0  0  0  0  0  0  0  0  0  0
  152.4252  142.8957  159.3567 C   0  0  0  0  0  0  0  0  0  0  0  0
  153.1185  143.5538  160.1306 O   0  0  0  0  0  0  0  0  0  0  0  0
  149.3681  139.7376  157.3888 H   0  0  0  0  0  0  0  0  0  0  0  0
  148.5932  139.5248  154.5359 H   0  0  0  0  0  0  0  0  0  0  0  0
  151.5114  140.4027  154.3441 H   0  0  0  0  0  0  0  0  0  0  0  0
  152.6909  141.1351  160.3998 H   0  0  0  0  0  0  0  0  0  0  0  0
  151.3535  145.1735  156.9436 H   0  0  0  0  0  0  0  0  0  0  0  0
  152.9360  145.1622  157.7183 H   0  0  0  0  0  0  0  0  0  0  0  0
  151.4856  145.5046  158.6702 H   0  0  0  0  0  0  0  0  0  0  0  0
  150.5105  142.9941  156.5352 H   0  0  0  0  0  0  0  0  0  0  0  0
  148.2469  141.3859  156.0489 H   0  0  0  0  0  0  0  0  0  0  0  0
  149.7889  142.1267  155.5658 H   0  0  0  0  0  0  0  0  0  0  0  0
  149.0665  140.4694  152.5982 H   0  0  0  0  0  0  0  0  0  0  0  0
  151.0481  138.4995  152.8469 H   0  0  0  0  0  0  0  0  0  0  0  0
  151.8129  137.8259  154.2777 H   0  0  0  0  0  0  0  0  0  0  0  0
  149.5530  137.1034  153.3607 H   0  0  0  0  0  0  0  0  0  0  0  0
  1  2  1  0  0  0  0
  1 22  1  0  0  0  0
  1 23  1  0  0  0  0
  1 24  1  0  0  0  0
  2 16  1  0  0  0  0
  2  3  2  0  0  0  0
  3  4  1  0  0  0  0
  3 25  1  0  0  0  0
  4  5  1  0  0  0  0
  4 13  1  0  0  0  0
  5 18  1  0  0  0  0
  5 12  1  0  0  0  0
  5  6  1  0  0  0  0
  6  7  1  0  0  0  0
  6 26  1  0  0  0  0
  6 27  1  0  0  0  0
  7 19  1  0  0  0  0
  7  8  1  0  0  0  0
  7  9  1  0  0  0  0
  8 28  1  0  0  0  0
  9 20  1  0  0  0  0
  9 10  1  0  0  0  0
  9 12  1  0  0  0  0
 10 11  1  0  0  0  0
 10 29  1  0  0  0  0
 10 30  1  0  0  0  0
 11 31  1  0  0  0  0
 13 14  2  0  0  0  0
 13 15  1  0  0  0  0
 15 21  1  0  0  0  0
 15 16  1  0  0  0  0
 16 17  2  0  0  0  0
M  END
> <s_m_source_file>
AV-unprocessed.smi

> <i_m_source_file_index>
55

> <i_lp_mmshare_version>
43012

> <i_f3d_flags>
0

> <s_epik_input>
Tz1jMVtuSF1jKD1PKW4oW2NIXWMxW0NIM10pW0NAQEhdMltDSDJdW0NAQEhdKFtPSF0pW0NAQEhdKE8yKVtDSDJdW09IXQ==

> <s_epik_cmdline>
J2VwaWtfcHl0aG9uJywgJy1waCcsICc3LjAnLCAnLXRuJywgJzgnLCAnLW1hJywgJzIwMCcsICctbWV0YWxfYmluZGluZycsICctaW1hZScsICc8aW5maWxlLm1hZT4nLCAnLW9tYWUnLCAnPG91dGZpbGUubWFlPic=

> <r_lp_tautomer_probability>
0.999537

> <r_epik_Ionization_Penalty>
0.00121888

> <r_epik_Ionization_Penalty_Charging>
0.00121876

> <r_epik_Ionization_Penalty_Neutral>
1.19946e-07

> <r_epik_State_Penalty>
0.000805124

> <r_epik_Charging_Adjusted_Penalty>
0.00202389

> <i_epik_Tot_Q>
0

> <i_epik_Tot_abs_Q>
0

> <r_epik_Metal_State_Penalty>
0.662472

> <b_epik_Metal_Only>
0

> <s_epik_Chemistry_Notes>
This compound contains an acetal/aminal-like group ( X-CH(R)-Y where X, Y are N, S, or O) that may be acid/base labile, releasing an aldehyde.

> <s_lp_Force_Field>
OPLS_2005

> <r_lp_Energy>
25.0544

> <b_lp_Chiralities_Consistent>
1

> <s_lp_Variant>
AV-unprocessed.smi:55-2

> <Gold.Version>
5.8.1

> <Gold.Id.Protein>
6NUR|6NUR_protein|mol2

> <Gold.PLP.Fitness>
43.0714

> <Gold.PLP.PLP>
-32.5077

> <Gold.PLP.part.hbond>
-3.6525

> <Gold.PLP.part.metal>
0.0000

> <Gold.PLP.part.buried>
-3.8466

> <Gold.PLP.part.nonpolar>
-24.5564

> <Gold.PLP.part.repulsive>
0.1318

> <Gold.PLP.ligand.clash>
0.0000

> <Gold.PLP.ligand.torsion>
0.2218

> <Gold.PLP.Chemscore.Hbond>
2.6680

> <Gold.PLP.Chemscore.CHOScore>
0.9979

> <Gold.PLP.Chemscore.Metal>
0.0000

> <Gold.Chemscore.Hbonds>
donor molecule, donor type, donor heavy atom, donor atom, acceptor molecule, acceptor atom, score
      L1  H     8    28       P1  7957  0.83
      L1  H    11    31       P1  7948  1.00
      P1  H  8011  8017       L1     8  0.80
      L1  C     3    25       P1  8028  1.00

> <Gold.PLP.Chemscore.Internal.Correction>
0.0096

> <Gold.Rescore>
     Score         DG    S(hbond)    S(metal)    S(lipo)     H(rot)  DE(clash)    DE(int)     intcor
     11.81     -12.45       1.84        0.00      66.57       2.73       0.35       0.29       ----

> <Gold.Chemscore.Fitness>
11.8074

> <Gold.Chemscore.DG>
-12.4502

> <Gold.Chemscore.ZeroCoef>
-5.4800

> <Gold.Chemscore.Hbond>
1.8438

> <Gold.Chemscore.Metal>
0.0000

> <Gold.Chemscore.Lipo>
66.5712

> <Gold.Chemscore.Internal_Hbond>
0.0000

> <Gold.Chemscore.DEClash>
0.3485

> <Gold.Chemscore.DEInternal>
0.2942

> <Gold.Chemscore.Rot>
2.7253

> <Gold.Chemscore.Internal.Correction>
   9.000000E+99

> <Gold.Chemscore.Hbonds>
donor molecule, donor type, donor heavy atom, donor atom, acceptor molecule, acceptor atom, score
      L1  H     8    28       P1  7957  0.82
      L1  H    11    31       P1  7948  0.82
      P1  H  8011  8017       L1     8  0.12

> <Gold.Chemscore.Hbond.Weighted>
-6.1582

> <Gold.Chemscore.Metal.Weighted>
-0.0000

> <Gold.Chemscore.Lipo.Weighted>
-7.7888

> <Gold.Chemscore.Internal_Hbond.Weighted>
0.0000

> <Gold.Chemscore.DEClash.Weighted>
0.3485

> <Gold.Chemscore.DEInternal.Weighted>
0.2942

> <Gold.Chemscore.Rot.Weighted>
6.9769

> <Gold.Chemscore.Internal.Correction.Weighted>
   9.000000E+99

> <Gold.Protein.RotatedTorsions>
[ 6907 6896 6895 6894 ] final  139.25 input  -60.11 | X-H torsion
[ 7974 7965 7964 7962 ] final -152.01 input  175.53 | X-H torsion
[ 8008 7997 7996 7995 ] final   24.44 input   59.86 | X-H torsion
[ 10167 10162 10161 10158 ] final    1.25 input  -65.29 | X-H torsion
[ 10718 10713 10712 10709 ] final -133.12 input   66.30 | X-H torsion
[ 10763 10752 10751 10750 ] final    4.89 input  -60.55 | X-H torsion
[ 11005 11000 10999 10996 ] final  -31.90 input  -57.11 | X-H torsion

> <Gold.Protein.ActiveResidues>
 VAL166  LYS551  ARG553  GLY616  TRP617  ASP618  TYR619  PRO620  LYS621  CYS622 
 ASP623  PHE694  ASN695  SER759  ASP760  ASP761  ALA762  ILE779  LEU786  VAL792 
 PHE793  MET794  SER795  GLU796  ALA797  LYS798  CYS799  TRP800  GLU811  SER814 

> <Gold.Protein.RotatedAtoms>
  152.2571  133.5265  159.5359 H   0  0  0  0  0  0  0  0  0  0  0  0  # atno 6907 bound_to 6896
  150.7112  134.0880  159.3930 H   0  0  0  0  0  0  0  0  0  0  0  0  # atno 6908 bound_to 6896
  151.8799  135.0457  160.0538 H   0  0  0  0  0  0  0  0  0  0  0  0  # atno 6909 bound_to 6896
  144.7818  140.4720  143.5834 H   0  0  0  0  0  0  0  0  0  0  0  0  # atno 7974 bound_to 7965
  154.9963  140.3120  155.4885 H   0  0  0  0  0  0  0  0  0  0  0  0  # atno 8008 bound_to 7997
  156.2932  140.2240  156.5011 H   0  0  0  0  0  0  0  0  0  0  0  0  # atno 8009 bound_to 7997
  154.7658  140.0456  157.0999 H   0  0  0  0  0  0  0  0  0  0  0  0  # atno 8010 bound_to 7997
  140.6691  143.7097  150.7887 H   0  0  0  0  0  0  0  0  0  0  0  0  # atno 10167 bound_to 10162
  156.2417  130.7099  151.0963 H   0  0  0  0  0  0  0  0  0  0  0  0  # atno 10718 bound_to 10713
  153.2659  135.6927  153.7531 H   0  0  0  0  0  0  0  0  0  0  0  0  # atno 10763 bound_to 10752
  153.6572  135.3366  155.3118 H   0  0  0  0  0  0  0  0  0  0  0  0  # atno 10764 bound_to 10752
  154.8447  135.4468  154.1665 H   0  0  0  0  0  0  0  0  0  0  0  0  # atno 10765 bound_to 10752
  140.9507  133.7223  156.1215 H   0  0  0  0  0  0  0  0  0  0  0  0  # atno 11005 bound_to 11000
  145.6030  139.1505  143.3118 LP  0  0  0  0  0  0  0  0  0  0  0  0  # atno 17320 bound_to 7965
  146.2030  140.6150  142.9094 LP  0  0  0  0  0  0  0  0  0  0  0  0  # atno 17321 bound_to 7965
  140.0780  143.4997  152.2545 LP  0  0  0  0  0  0  0  0  0  0  0  0  # atno 17342 bound_to 10162
  139.5952  144.7564  151.3303 LP  0  0  0  0  0  0  0  0  0  0  0  0  # atno 17343 bound_to 10162
  157.7178  131.0700  150.6259 LP  0  0  0  0  0  0  0  0  0  0  0  0  # atno 17370 bound_to 10713
  156.6332  130.4438  149.5779 LP  0  0  0  0  0  0  0  0  0  0  0  0  # atno 17371 bound_to 10713
  140.7607  134.3943  157.5526 LP  0  0  0  0  0  0  0  0  0  0  0  0  # atno 17394 bound_to 11000
  139.8846  134.8959  156.2690 LP  0  0  0  0  0  0  0  0  0  0  0  0  # atno 17395 bound_to 11000

$$$$
