AV-unprocessed.smi:2095|AV-procd|sdf|8561|dock7
  -GOLD-   2272011283D 1   1.00000     0.00000
 Structure written by MMmdl.
 42 43  0  0  0  0  0  0  0  0  2 V2000
  146.1193  132.3167  149.6513 C   0  0  0  0  0  0  0  0  0  0  0  0
  146.3897  133.5012  150.5895 C   0  0  1  0  0  0  0  0  0  0  0  0
  145.1428  134.3880  150.7517 C   0  0  0  0  0  0  0  0  0  0  0  0
  145.4328  135.5473  151.7144 C   0  0  0  0  0  0  0  0  0  0  0  0
  145.9503  135.0228  153.0625 C   0  0  0  0  0  0  0  0  0  0  0  0
  147.1622  134.1813  152.8672 N   0  3  1  0  0  0  0  0  0  0  0  0
  147.8881  133.8048  154.1151 C   0  0  1  0  0  0  0  0  0  0  0  0
  149.2581  133.1855  153.7795 C   0  0  0  0  0  0  0  0  0  0  0  0
  147.9932  134.9672  155.1352 C   0  0  0  0  0  0  0  0  0  0  0  0
  148.6481  136.1415  154.5697 N   0  0  0  0  0  0  0  0  0  0  0  0
  149.1503  137.1600  155.2857 C   0  0  0  0  0  0  0  0  0  0  0  0
  149.1096  137.2061  156.5148 O   0  0  0  0  0  0  0  0  0  0  0  0
  149.8105  138.2935  154.4992 C   0  0  0  0  0  0  0  0  0  0  0  0
  151.1419  138.5775  155.0012 N   0  0  0  0  0  0  0  0  0  0  0  0
  151.6406  139.6589  155.6038 C   0  0  0  0  0  0  0  0  0  0  0  0
  152.9244  139.5085  155.8923 N   0  0  0  0  0  0  0  0  0  0  0  0
  153.2061  138.2362  155.4232 N   0  0  0  0  0  0  0  0  0  0  0  0
  152.1523  137.6785  154.8937 N   0  0  0  0  0  0  0  0  0  0  0  0
  146.8930  133.0271  151.9681 C   0  0  0  0  0  0  0  0  0  0  0  0
  145.3412  131.6643  150.0492 H   0  0  0  0  0  0  0  0  0  0  0  0
  147.0178  131.7152  149.5090 H   0  0  0  0  0  0  0  0  0  0  0  0
  145.7951  132.6605  148.6686 H   0  0  0  0  0  0  0  0  0  0  0  0
  147.1758  134.1058  150.1344 H   0  0  0  0  0  0  0  0  0  0  0  0
  144.8282  134.7804  149.7839 H   0  0  0  0  0  0  0  0  0  0  0  0
  144.3103  133.7946  151.1329 H   0  0  0  0  0  0  0  0  0  0  0  0
  146.1721  136.2168  151.2725 H   0  0  0  0  0  0  0  0  0  0  0  0
  144.5297  136.1394  151.8662 H   0  0  0  0  0  0  0  0  0  0  0  0
  146.1734  135.8694  153.7110 H   0  0  0  0  0  0  0  0  0  0  0  0
  145.1660  134.4438  153.5512 H   0  0  0  0  0  0  0  0  0  0  0  0
  147.3111  133.0033  154.5787 H   0  0  0  0  0  0  0  0  0  0  0  0
  149.7209  132.7453  154.6632 H   0  0  0  0  0  0  0  0  0  0  0  0
  149.9545  133.9239  153.3827 H   0  0  0  0  0  0  0  0  0  0  0  0
  149.1583  132.3896  153.0409 H   0  0  0  0  0  0  0  0  0  0  0  0
  147.0014  135.2819  155.4600 H   0  0  0  0  0  0  0  0  0  0  0  0
  148.5268  134.6553  156.0339 H   0  0  0  0  0  0  0  0  0  0  0  0
  148.7210  136.1863  153.5630 H   0  0  0  0  0  0  0  0  0  0  0  0
  149.8849  138.0241  153.4447 H   0  0  0  0  0  0  0  0  0  0  0  0
  149.1986  139.1947  154.5597 H   0  0  0  0  0  0  0  0  0  0  0  0
  151.0701  140.5488  155.8252 H   0  0  0  0  0  0  0  0  0  0  0  0
  146.1611  132.3616  152.4279 H   0  0  0  0  0  0  0  0  0  0  0  0
  147.8065  132.4464  151.8328 H   0  0  0  0  0  0  0  0  0  0  0  0
  147.8141  134.7589  152.3558 H   0  0  0  0  0  0  0  0  0  0  0  0
  1  2  1  0  0  0  0
  1 20  1  0  0  0  0
  1 21  1  0  0  0  0
  1 22  1  0  0  0  0
  2 19  1  0  0  0  0
  2  3  1  0  0  0  0
  2 23  1  0  0  0  0
  3  4  1  0  0  0  0
  3 24  1  0  0  0  0
  3 25  1  0  0  0  0
  4  5  1  0  0  0  0
  4 26  1  0  0  0  0
  4 27  1  0  0  0  0
  5  6  1  0  0  0  0
  5 28  1  0  0  0  0
  5 29  1  0  0  0  0
  6  7  1  0  0  0  0
  6 19  1  0  0  0  0
  6 42  1  0  0  0  0
  7  8  1  0  0  0  0
  7  9  1  0  0  0  0
  7 30  1  0  0  0  0
  8 31  1  0  0  0  0
  8 32  1  0  0  0  0
  8 33  1  0  0  0  0
  9 10  1  0  0  0  0
  9 34  1  0  0  0  0
  9 35  1  0  0  0  0
 10 11  1  0  0  0  0
 10 36  1  0  0  0  0
 11 12  2  0  0  0  0
 11 13  1  0  0  0  0
 13 14  1  0  0  0  0
 13 37  1  0  0  0  0
 13 38  1  0  0  0  0
 14 18  1  0  0  0  0
 14 15  1  0  0  0  0
 15 16  2  0  0  0  0
 15 39  1  0  0  0  0
 16 17  1  0  0  0  0
 17 18  2  0  0  0  0
 19 40  1  0  0  0  0
 19 41  1  0  0  0  0
M  CHG  1   6   1
M  END
> <s_m_source_file>
AV-unprocessed.smi

> <i_m_source_file_index>
2095

> <i_lp_mmshare_version>
43012

> <i_f3d_flags>
0

> <s_epik_input>
W0NIM11bQ0BASF0xW0NIMl1bQ0gyXVtDSDJdTihbQ0gyXTEpW0NASF0oW0NIM10pW0NIMl1bTkhdQyg9TylbQ0gyXW4yW2NIXW5ubjI=

> <s_epik_cmdline>
J2VwaWtfcHl0aG9uJywgJy1waCcsICc3LjAnLCAnLXRuJywgJzgnLCAnLW1hJywgJzIwMCcsICctbWV0YWxfYmluZGluZycsICctaW1hZScsICc8aW5maWxlLm1hZT4nLCAnLW9tYWUnLCAnPG91dGZpbGUubWFlPic=

> <r_lp_tautomer_probability>
1

> <r_epik_Ionization_Penalty>
0.00268321

> <r_epik_Ionization_Penalty_Charging>
0.00267875

> <r_epik_Ionization_Penalty_Neutral>
4.46125e-06

> <r_epik_State_Penalty>
0.00186642

> <r_epik_Charging_Adjusted_Penalty>
0.00454517

> <i_epik_Tot_Q>
1

> <i_epik_Tot_abs_Q>
1

> <r_epik_Metal_State_Penalty>
-0

> <b_epik_Metal_Only>
0

> <s_lp_Force_Field>
OPLS_2005

> <r_lp_Energy>
22.3019

> <b_lp_Chiralities_Consistent>
1

> <s_lp_Variant>
AV-unprocessed.smi:2095-8

> <Gold.Version>
5.8.1

> <Gold.Id.Protein>
6NUR|6NUR_protein|mol2

> <Gold.PLP.Fitness>
48.0996

> <Gold.PLP.PLP>
-34.8037

> <Gold.PLP.part.hbond>
-4.7722

> <Gold.PLP.part.metal>
0.0000

> <Gold.PLP.part.buried>
-5.3445

> <Gold.PLP.part.nonpolar>
-26.3104

> <Gold.PLP.part.repulsive>
0.1241

> <Gold.PLP.ligand.clash>
0.0000

> <Gold.PLP.ligand.torsion>
0.3643

> <Gold.PLP.Chemscore.Hbond>
4.6400

> <Gold.PLP.Chemscore.CHOScore>
0.0000

> <Gold.PLP.Chemscore.Metal>
0.0000

> <Gold.Chemscore.Hbonds>
donor molecule, donor type, donor heavy atom, donor atom, acceptor molecule, acceptor atom, score
      L1  H     6    42       P1  7948  2.00
      L1  H    10    36       P1  7948  1.00
      P1  H  7997  8009       L1    16  1.00
      P1  H 10752 10764       L1    18  0.36

> <Gold.PLP.Chemscore.Internal.Correction>
0.1046

> <Gold.Rescore>
     Score         DG    S(hbond)    S(metal)    S(lipo)     H(rot)  DE(clash)    DE(int)     intcor
     15.67     -16.08       3.18        0.00      57.78       2.64       0.12       0.28       ----

> <Gold.Chemscore.Fitness>
15.6737

> <Gold.Chemscore.DG>
-16.0797

> <Gold.Chemscore.ZeroCoef>
-5.4800

> <Gold.Chemscore.Hbond>
3.1760

> <Gold.Chemscore.Metal>
0.0000

> <Gold.Chemscore.Lipo>
57.7807

> <Gold.Chemscore.Internal_Hbond>
0.0000

> <Gold.Chemscore.DEClash>
0.1230

> <Gold.Chemscore.DEInternal>
0.2829

> <Gold.Chemscore.Rot>
2.6439

> <Gold.Chemscore.Internal.Correction>
   9.000000E+99

> <Gold.Chemscore.Hbonds>
donor molecule, donor type, donor heavy atom, donor atom, acceptor molecule, acceptor atom, score
      L1  H     6    42       P1  7948  0.74
      L1  H    10    36       P1  7948  1.00
      P1  H  7997  8009       L1    16  0.49
      P1  H 10752 10764       L1    18  0.11

> <Gold.Chemscore.Hbond.Weighted>
-10.6078

> <Gold.Chemscore.Metal.Weighted>
-0.0000

> <Gold.Chemscore.Lipo.Weighted>
-6.7603

> <Gold.Chemscore.Internal_Hbond.Weighted>
0.0000

> <Gold.Chemscore.DEClash.Weighted>
0.1230

> <Gold.Chemscore.DEInternal.Weighted>
0.2829

> <Gold.Chemscore.Rot.Weighted>
6.7685

> <Gold.Chemscore.Internal.Correction.Weighted>
   9.000000E+99

> <Gold.Protein.RotatedTorsions>
[ 6907 6896 6895 6894 ] final -142.35 input  -60.11 | X-H torsion
[ 7974 7965 7964 7962 ] final -116.56 input  175.53 | X-H torsion
[ 8008 7997 7996 7995 ] final -158.30 input   59.86 | X-H torsion
[ 10167 10162 10161 10158 ] final  112.02 input  -65.29 | X-H torsion
[ 10718 10713 10712 10709 ] final   91.69 input   66.30 | X-H torsion
[ 10763 10752 10751 10750 ] final  -71.90 input  -60.55 | X-H torsion
[ 11005 11000 10999 10996 ] final   86.43 input  -57.11 | X-H torsion

> <Gold.Protein.ActiveResidues>
 VAL166  LYS551  ARG553  GLY616  TRP617  ASP618  TYR619  PRO620  LYS621  CYS622 
 ASP623  PHE694  ASN695  SER759  ASP760  ASP761  ALA762  ILE779  LEU786  VAL792 
 PHE793  MET794  SER795  GLU796  ALA797  LYS798  CYS799  TRP800  GLU811  SER814 

> <Gold.Protein.RotatedAtoms>
  151.0859  133.5353  159.2617 H   0  0  0  0  0  0  0  0  0  0  0  0  # atno 6907 bound_to 6896
  151.2239  135.0528  159.8970 H   0  0  0  0  0  0  0  0  0  0  0  0  # atno 6908 bound_to 6896
  152.5429  134.0658  159.8226 H   0  0  0  0  0  0  0  0  0  0  0  0  # atno 6909 bound_to 6896
  145.0954  140.8517  143.3958 H   0  0  0  0  0  0  0  0  0  0  0  0  # atno 7974 bound_to 7965
  155.7455  140.0820  157.2225 H   0  0  0  0  0  0  0  0  0  0  0  0  # atno 8008 bound_to 7997
  154.4017  140.1570  156.2720 H   0  0  0  0  0  0  0  0  0  0  0  0  # atno 8009 bound_to 7997
  155.8980  140.3411  155.6007 H   0  0  0  0  0  0  0  0  0  0  0  0  # atno 8010 bound_to 7997
  139.6567  144.7129  151.1943 H   0  0  0  0  0  0  0  0  0  0  0  0  # atno 10167 bound_to 10162
  157.6960  131.0416  150.3767 H   0  0  0  0  0  0  0  0  0  0  0  0  # atno 10718 bound_to 10713
  154.4382  135.5947  153.6112 H   0  0  0  0  0  0  0  0  0  0  0  0  # atno 10763 bound_to 10752
  152.9803  135.5991  154.3756 H   0  0  0  0  0  0  0  0  0  0  0  0  # atno 10764 bound_to 10752
  154.3602  135.2841  155.2303 H   0  0  0  0  0  0  0  0  0  0  0  0  # atno 10765 bound_to 10752
  139.8945  134.8354  156.2719 H   0  0  0  0  0  0  0  0  0  0  0  0  # atno 11005 bound_to 11000
  145.1017  139.2818  143.5683 LP  0  0  0  0  0  0  0  0  0  0  0  0  # atno 17320 bound_to 7965
  146.3531  140.0586  142.8631 LP  0  0  0  0  0  0  0  0  0  0  0  0  # atno 17321 bound_to 7965
  140.7562  143.6060  150.8652 LP  0  0  0  0  0  0  0  0  0  0  0  0  # atno 17342 bound_to 10162
  139.9714  143.6053  152.2972 LP  0  0  0  0  0  0  0  0  0  0  0  0  # atno 17343 bound_to 10162
  156.4186  130.3948  149.6841 LP  0  0  0  0  0  0  0  0  0  0  0  0  # atno 17370 bound_to 10713
  156.4100  130.7717  151.2730 LP  0  0  0  0  0  0  0  0  0  0  0  0  # atno 17371 bound_to 10713
  141.0095  133.7104  156.1088 LP  0  0  0  0  0  0  0  0  0  0  0  0  # atno 17394 bound_to 11000
  140.7387  134.4174  157.5557 LP  0  0  0  0  0  0  0  0  0  0  0  0  # atno 17395 bound_to 11000

$$$$
