AV-unprocessed.smi:1447|AV-procd|sdf|5891|dock4
  -GOLD-   22720 5573D 1   1.00000     0.00000
 Structure written by MMmdl.
 48 50  0  0  0  0  0  0  0  0  2 V2000
  153.2663  138.6876  154.6928 C   0  0  0  0  0  0  0  0  0  0  0  0
  152.4474  137.5334  154.7521 O   0  0  0  0  0  0  0  0  0  0  0  0
  151.1071  137.7953  154.3703 C   0  0  0  0  0  0  0  0  0  0  0  0
  150.5675  139.0054  155.1506 C   0  0  0  0  0  0  0  0  0  0  0  0
  149.3127  139.5084  154.5797 N   0  0  0  0  0  0  0  0  0  0  0  0
  148.3873  138.5168  154.2992 N   0  0  0  0  0  0  0  0  0  0  0  0
  147.2334  138.8252  153.8015 C   0  0  0  0  0  0  0  0  0  0  0  0
  146.2129  137.7876  153.4858 C   0  0  0  0  0  0  0  0  0  0  0  0
  145.0375  137.9014  153.8371 O   0  0  0  0  0  0  0  0  0  0  0  0
  146.6654  136.7272  152.7919 N   0  0  0  0  0  0  0  0  0  0  0  0
  145.8577  135.5865  152.3727 C   0  0  2  0  0  0  0  0  0  0  0  0
  146.7034  134.3034  152.4223 C   0  0  0  0  0  0  0  0  0  0  0  0
  145.9107  133.0940  151.8985 C   0  0  0  0  0  0  0  0  0  0  0  0
  145.4092  133.3390  150.5236 N   0  3  1  0  0  0  0  0  0  0  0  0
  144.7404  132.1484  149.9553 C   0  0  0  0  0  0  0  0  0  0  0  0
  143.7861  132.4689  148.8285 C   0  0  0  0  0  0  0  0  0  0  0  0
  143.2493  132.1130  150.1971 C   0  0  0  0  0  0  0  0  0  0  0  0
  144.5511  134.5479  150.4591 C   0  0  0  0  0  0  0  0  0  0  0  0
  145.3124  135.7918  150.9465 C   0  0  0  0  0  0  0  0  0  0  0  0
  146.8866  140.2092  153.5285 C   0  0  0  0  0  0  0  0  0  0  0  0
  147.7990  141.1657  153.8076 C   0  0  0  0  0  0  0  0  0  0  0  0
  149.1114  140.8448  154.3710 C   0  0  0  0  0  0  0  0  0  0  0  0
  149.9564  141.7000  154.6330 O   0  0  0  0  0  0  0  0  0  0  0  0
  154.2803  138.4333  155.0009 H   0  0  0  0  0  0  0  0  0  0  0  0
  152.8981  139.4681  155.3597 H   0  0  0  0  0  0  0  0  0  0  0  0
  153.3123  139.0855  153.6782 H   0  0  0  0  0  0  0  0  0  0  0  0
  151.0738  138.0113  153.3013 H   0  0  0  0  0  0  0  0  0  0  0  0
  150.4801  136.9186  154.5428 H   0  0  0  0  0  0  0  0  0  0  0  0
  150.4570  138.7559  156.2070 H   0  0  0  0  0  0  0  0  0  0  0  0
  151.3117  139.8033  155.1236 H   0  0  0  0  0  0  0  0  0  0  0  0
  147.6445  136.7123  152.5436 H   0  0  0  0  0  0  0  0  0  0  0  0
  145.0199  135.4721  153.0633 H   0  0  0  0  0  0  0  0  0  0  0  0
  147.6070  134.4296  151.8236 H   0  0  0  0  0  0  0  0  0  0  0  0
  147.0334  134.1124  153.4442 H   0  0  0  0  0  0  0  0  0  0  0  0
  146.5507  132.2109  151.9019 H   0  0  0  0  0  0  0  0  0  0  0  0
  145.0708  132.8785  152.5610 H   0  0  0  0  0  0  0  0  0  0  0  0
  145.3201  131.2269  149.9433 H   0  0  0  0  0  0  0  0  0  0  0  0
  143.6940  133.5053  148.5083 H   0  0  0  0  0  0  0  0  0  0  0  0
  143.6734  131.7274  148.0400 H   0  0  0  0  0  0  0  0  0  0  0  0
  142.7827  131.1366  150.3107 H   0  0  0  0  0  0  0  0  0  0  0  0
  142.8008  132.9134  150.7827 H   0  0  0  0  0  0  0  0  0  0  0  0
  144.2166  134.7057  149.4330 H   0  0  0  0  0  0  0  0  0  0  0  0
  143.6558  134.3943  151.0638 H   0  0  0  0  0  0  0  0  0  0  0  0
  144.6513  136.6587  150.9144 H   0  0  0  0  0  0  0  0  0  0  0  0
  146.1340  136.0054  150.2612 H   0  0  0  0  0  0  0  0  0  0  0  0
  145.9259  140.4755  153.1120 H   0  0  0  0  0  0  0  0  0  0  0  0
  147.5543  142.1990  153.6097 H   0  0  0  0  0  0  0  0  0  0  0  0
  146.2164  133.5221  149.9448 H   0  0  0  0  0  0  0  0  0  0  0  0
  1  2  1  0  0  0  0
  1 24  1  0  0  0  0
  1 25  1  0  0  0  0
  1 26  1  0  0  0  0
  2  3  1  0  0  0  0
  3  4  1  0  0  0  0
  3 27  1  0  0  0  0
  3 28  1  0  0  0  0
  4  5  1  0  0  0  0
  4 29  1  0  0  0  0
  4 30  1  0  0  0  0
  5 22  1  0  0  0  0
  5  6  1  0  0  0  0
  6  7  2  0  0  0  0
  7  8  1  0  0  0  0
  7 20  1  0  0  0  0
  8  9  2  0  0  0  0
  8 10  1  0  0  0  0
 10 11  1  0  0  0  0
 10 31  1  0  0  0  0
 11 19  1  0  0  0  0
 11 12  1  0  0  0  0
 11 32  1  0  0  0  0
 12 13  1  0  0  0  0
 12 33  1  0  0  0  0
 12 34  1  0  0  0  0
 13 14  1  0  0  0  0
 13 35  1  0  0  0  0
 13 36  1  0  0  0  0
 14 15  1  0  0  0  0
 14 18  1  0  0  0  0
 14 48  1  0  0  0  0
 15 17  1  0  0  0  0
 15 16  1  0  0  0  0
 15 37  1  0  0  0  0
 16 17  1  0  0  0  0
 16 38  1  0  0  0  0
 16 39  1  0  0  0  0
 17 40  1  0  0  0  0
 17 41  1  0  0  0  0
 18 19  1  0  0  0  0
 18 42  1  0  0  0  0
 18 43  1  0  0  0  0
 19 44  1  0  0  0  0
 19 45  1  0  0  0  0
 20 21  2  0  0  0  0
 20 46  1  0  0  0  0
 21 22  1  0  0  0  0
 21 47  1  0  0  0  0
 22 23  2  0  0  0  0
M  CHG  1  14   1
M  END
> <s_m_source_file>
AV-unprocessed.smi

> <i_m_source_file_index>
1447

> <i_lp_mmshare_version>
43012

> <i_f3d_flags>
0

> <s_epik_input>
W0NIM11PW0NIMl1bQ0gyXW4xbmMoW2NIXVtjSF1jMT1PKUMoPU8pW05IXVtDSF0yW0NIMl1bQ0gyXU4oW0NIMl1bQ0gyXTIpW0NIXTNbQ0gyXVtDSDJdMw==

> <s_epik_cmdline>
J2VwaWtfcHl0aG9uJywgJy1waCcsICc3LjAnLCAnLXRuJywgJzgnLCAnLW1hJywgJzIwMCcsICctbWV0YWxfYmluZGluZycsICctaW1hZScsICc8aW5maWxlLm1hZT4nLCAnLW9tYWUnLCAnPG91dGZpbGUubWFlPic=

> <r_lp_tautomer_probability>
1

> <r_epik_Ionization_Penalty>
0.168623

> <r_epik_Ionization_Penalty_Charging>
0.16862

> <r_epik_Ionization_Penalty_Neutral>
2.93027e-06

> <r_epik_State_Penalty>
0.157986

> <r_epik_Charging_Adjusted_Penalty>
0.326605

> <i_epik_Tot_Q>
1

> <i_epik_Tot_abs_Q>
1

> <r_epik_Metal_State_Penalty>
0.157986

> <b_epik_Metal_Only>
0

> <s_lp_Force_Field>
OPLS_2005

> <r_lp_Energy>
46.6346

> <b_lp_Chiralities_Consistent>
1

> <s_lp_Variant>
AV-unprocessed.smi:1447-1

> <Gold.Version>
5.8.1

> <Gold.Id.Protein>
6NUR|6NUR_protein|mol2

> <Gold.PLP.Fitness>
43.6287

> <Gold.PLP.PLP>
-40.9240

> <Gold.PLP.part.hbond>
-3.9406

> <Gold.PLP.part.metal>
0.0000

> <Gold.PLP.part.buried>
0.3453

> <Gold.PLP.part.nonpolar>
-39.4443

> <Gold.PLP.part.repulsive>
0.6614

> <Gold.PLP.ligand.clash>
0.0000

> <Gold.PLP.ligand.torsion>
2.0353

> <Gold.PLP.Chemscore.Hbond>
1.8094

> <Gold.PLP.Chemscore.CHOScore>
0.0000

> <Gold.PLP.Chemscore.Metal>
0.0000

> <Gold.Chemscore.Hbonds>
donor molecule, donor type, donor heavy atom, donor atom, acceptor molecule, acceptor atom, score
      L1  H    10    31       P1  7948  1.00
      P1  H  7989  7998       L1    23  0.19
      P1  H  8011  8017       L1    23  0.01
      P1  H 10752 10763       L1     2  0.61

> <Gold.PLP.Chemscore.Internal.Correction>
1.3472

> <Gold.Rescore>
     Score         DG    S(hbond)    S(metal)    S(lipo)     H(rot)  DE(clash)    DE(int)     intcor
     15.98     -18.74       1.62        0.00     105.65       1.76       0.65       2.11       ----

> <Gold.Chemscore.Fitness>
15.9820

> <Gold.Chemscore.DG>
-18.7435

> <Gold.Chemscore.ZeroCoef>
-5.4800

> <Gold.Chemscore.Hbond>
1.6196

> <Gold.Chemscore.Metal>
0.0000

> <Gold.Chemscore.Lipo>
105.6544

> <Gold.Chemscore.Internal_Hbond>
0.0000

> <Gold.Chemscore.DEClash>
0.6534

> <Gold.Chemscore.DEInternal>
2.1081

> <Gold.Chemscore.Rot>
1.7608

> <Gold.Chemscore.Internal.Correction>
   9.000000E+99

> <Gold.Chemscore.Hbonds>
donor molecule, donor type, donor heavy atom, donor atom, acceptor molecule, acceptor atom, score
      L1  H    10    31       P1  7948  0.94
      P1  H  7989  7998       L1    23  0.04
      P1  H 10752 10763       L1     2  0.48

> <Gold.Chemscore.Hbond.Weighted>
-5.4096

> <Gold.Chemscore.Metal.Weighted>
-0.0000

> <Gold.Chemscore.Lipo.Weighted>
-12.3616

> <Gold.Chemscore.Internal_Hbond.Weighted>
0.0000

> <Gold.Chemscore.DEClash.Weighted>
0.6534

> <Gold.Chemscore.DEInternal.Weighted>
2.1081

> <Gold.Chemscore.Rot.Weighted>
4.5077

> <Gold.Chemscore.Internal.Correction.Weighted>
   9.000000E+99

> <Gold.Protein.RotatedTorsions>
[ 6907 6896 6895 6894 ] final   25.04 input  -60.11 | X-H torsion
[ 7974 7965 7964 7962 ] final  119.21 input  175.53 | X-H torsion
[ 8008 7997 7996 7995 ] final   -6.22 input   59.86 | X-H torsion
[ 10167 10162 10161 10158 ] final  -76.32 input  -65.29 | X-H torsion
[ 10718 10713 10712 10709 ] final -164.98 input   66.30 | X-H torsion
[ 10763 10752 10751 10750 ] final   50.42 input  -60.55 | X-H torsion
[ 11005 11000 10999 10996 ] final   14.11 input  -57.11 | X-H torsion

> <Gold.Protein.ActiveResidues>
 VAL166  LYS551  ARG553  GLY616  TRP617  ASP618  TYR619  PRO620  LYS621  CYS622 
 ASP623  PHE694  ASN695  SER759  ASP760  ASP761  ALA762  ILE779  LEU786  VAL792 
 PHE793  MET794  SER795  GLU796  ALA797  LYS798  CYS799  TRP800  GLU811  SER814 

> <Gold.Protein.RotatedAtoms>
  151.9665  135.0098  160.0550 H   0  0  0  0  0  0  0  0  0  0  0  0  # atno 6907 bound_to 6896
  152.1821  133.4710  159.4972 H   0  0  0  0  0  0  0  0  0  0  0  0  # atno 6908 bound_to 6896
  150.6919  134.1737  159.4265 H   0  0  0  0  0  0  0  0  0  0  0  0  # atno 6909 bound_to 6896
  145.1459  139.3240  143.4592 H   0  0  0  0  0  0  0  0  0  0  0  0  # atno 7974 bound_to 7965
  154.5960  140.2438  155.7856 H   0  0  0  0  0  0  0  0  0  0  0  0  # atno 8008 bound_to 7997
  156.2279  140.2976  156.0067 H   0  0  0  0  0  0  0  0  0  0  0  0  # atno 8009 bound_to 7997
  155.2292  140.0403  157.2950 H   0  0  0  0  0  0  0  0  0  0  0  0  # atno 8010 bound_to 7997
  140.4867  143.2389  151.7972 H   0  0  0  0  0  0  0  0  0  0  0  0  # atno 10167 bound_to 10162
  156.6469  130.8991  151.3006 H   0  0  0  0  0  0  0  0  0  0  0  0  # atno 10718 bound_to 10713
  152.9785  135.5879  154.4249 H   0  0  0  0  0  0  0  0  0  0  0  0  # atno 10763 bound_to 10752
  154.3869  135.2767  155.2180 H   0  0  0  0  0  0  0  0  0  0  0  0  # atno 10764 bound_to 10752
  154.4069  135.6090  153.5984 H   0  0  0  0  0  0  0  0  0  0  0  0  # atno 10765 bound_to 10752
  140.4732  134.1010  155.7736 H   0  0  0  0  0  0  0  0  0  0  0  0  # atno 11005 bound_to 11000
  146.3500  140.1514  142.8592 LP  0  0  0  0  0  0  0  0  0  0  0  0  # atno 17320 bound_to 7965
  145.0482  140.8998  143.5011 LP  0  0  0  0  0  0  0  0  0  0  0  0  # atno 17321 bound_to 7965
  139.4843  144.4702  151.9434 LP  0  0  0  0  0  0  0  0  0  0  0  0  # atno 17342 bound_to 10162
  140.3789  144.2762  150.5911 LP  0  0  0  0  0  0  0  0  0  0  0  0  # atno 17343 bound_to 10162
  157.7153  130.9490  150.1234 LP  0  0  0  0  0  0  0  0  0  0  0  0  # atno 17370 bound_to 10713
  156.2115  130.3667  149.8664 LP  0  0  0  0  0  0  0  0  0  0  0  0  # atno 17371 bound_to 10713
  141.1567  133.8869  157.1958 LP  0  0  0  0  0  0  0  0  0  0  0  0  # atno 17394 bound_to 11000
  139.9872  135.0077  156.9891 LP  0  0  0  0  0  0  0  0  0  0  0  0  # atno 17395 bound_to 11000

$$$$
