AV-unprocessed.smi:1768|AV-procd|sdf|7143|dock5
  -GOLD-   22720 8383D 1   1.00000     0.00000
 Structure written by MMmdl.
 33 34  0  0  0  0  0  0  0  0  1 V2000
  150.2538  135.3198  155.1988 C   0  0  0  0  0  0  0  0  0  0  0  0
  150.9344  136.3905  155.9811 C   0  0  0  0  0  0  0  0  0  0  0  0
  152.2254  136.3261  156.3288 N   0  0  0  0  0  0  0  0  0  0  0  0
  152.6317  137.4385  157.0528 N   0  0  0  0  0  0  0  0  0  0  0  0
  151.6308  138.3115  157.2313 C   0  0  0  0  0  0  0  0  0  0  0  0
  151.7663  139.5355  157.9382 N   0  0  0  0  0  0  0  0  0  0  0  0
  152.8317  139.9914  158.6201 C   0  0  0  0  0  0  0  0  0  0  0  0
  153.9070  139.4033  158.7358 O   0  0  0  0  0  0  0  0  0  0  0  0
  152.5784  141.1919  159.1624 N   0  0  0  0  0  0  0  0  0  0  0  0
  153.5082  141.9857  159.9648 C   0  0  2  0  0  0  0  0  0  0  0  0
  153.5569  141.4028  161.3847 C   0  0  0  0  0  0  0  0  0  0  0  0
  153.0843  143.4689  159.9675 C   0  0  2  0  0  0  0  0  0  0  0  0
  151.7689  143.7645  160.6918 C   0  0  0  0  0  0  0  0  0  0  0  0
  151.3409  145.0553  160.0331 C   0  0  0  0  0  0  0  0  0  0  0  0
  151.7524  144.8141  158.5845 C   0  0  0  0  0  0  0  0  0  0  0  0
  152.8720  143.9332  158.6355 O   0  0  0  0  0  0  0  0  0  0  0  0
  150.0954  137.8388  156.5232 S   0  0  0  0  0  0  0  0  0  0  0  0
  150.9845  134.6318  154.7720 H   0  0  0  0  0  0  0  0  0  0  0  0
  149.6753  135.7606  154.3868 H   0  0  0  0  0  0  0  0  0  0  0  0
  149.5798  134.7580  155.8455 H   0  0  0  0  0  0  0  0  0  0  0  0
  150.9549  140.1354  157.9227 H   0  0  0  0  0  0  0  0  0  0  0  0
  151.6655  141.5941  159.0084 H   0  0  0  0  0  0  0  0  0  0  0  0
  154.5141  141.9173  159.5466 H   0  0  0  0  0  0  0  0  0  0  0  0
  154.2711  141.9419  162.0077 H   0  0  0  0  0  0  0  0  0  0  0  0
  153.8627  140.3560  161.3699 H   0  0  0  0  0  0  0  0  0  0  0  0
  152.5826  141.4591  161.8712 H   0  0  0  0  0  0  0  0  0  0  0  0
  153.8726  144.0827  160.4075 H   0  0  0  0  0  0  0  0  0  0  0  0
  151.0340  142.9832  160.4910 H   0  0  0  0  0  0  0  0  0  0  0  0
  151.8862  143.8552  161.7720 H   0  0  0  0  0  0  0  0  0  0  0  0
  150.2771  145.2655  160.1459 H   0  0  0  0  0  0  0  0  0  0  0  0
  151.9028  145.8920  160.4504 H   0  0  0  0  0  0  0  0  0  0  0  0
  150.9491  144.3192  158.0375 H   0  0  0  0  0  0  0  0  0  0  0  0
  151.9969  145.7397  158.0632 H   0  0  0  0  0  0  0  0  0  0  0  0
  1  2  1  0  0  0  0
  1 18  1  0  0  0  0
  1 19  1  0  0  0  0
  1 20  1  0  0  0  0
  2 17  1  0  0  0  0
  2  3  2  0  0  0  0
  3  4  1  0  0  0  0
  4  5  2  0  0  0  0
  5  6  1  0  0  0  0
  5 17  1  0  0  0  0
  6  7  1  0  0  0  0
  6 21  1  0  0  0  0
  7  8  2  0  0  0  0
  7  9  1  0  0  0  0
  9 10  1  0  0  0  0
  9 22  1  0  0  0  0
 10 11  1  0  0  0  0
 10 12  1  0  0  0  0
 10 23  1  0  0  0  0
 11 24  1  0  0  0  0
 11 25  1  0  0  0  0
 11 26  1  0  0  0  0
 12 16  1  0  0  0  0
 12 13  1  0  0  0  0
 12 27  1  0  0  0  0
 13 14  1  0  0  0  0
 13 28  1  0  0  0  0
 13 29  1  0  0  0  0
 14 15  1  0  0  0  0
 14 30  1  0  0  0  0
 14 31  1  0  0  0  0
 15 16  1  0  0  0  0
 15 32  1  0  0  0  0
 15 33  1  0  0  0  0
M  END
> <s_m_source_file>
AV-unprocessed.smi

> <i_m_source_file_index>
1768

> <i_lp_mmshare_version>
43012

> <i_f3d_flags>
0

> <s_epik_input>
W0NIM11jMW5uYyhzMSlbTkhdQyg9TylbTkhdW0NASF0oW0NIM10pW0NAQEhdMltDSDJdW0NIMl1bQ0gyXU8y

> <s_epik_cmdline>
J2VwaWtfcHl0aG9uJywgJy1waCcsICc3LjAnLCAnLXRuJywgJzgnLCAnLW1hJywgJzIwMCcsICctbWV0YWxfYmluZGluZycsICctaW1hZScsICc8aW5maWxlLm1hZT4nLCAnLW9tYWUnLCAnPG91dGZpbGUubWFlPic=

> <r_lp_tautomer_probability>
1

> <r_epik_Ionization_Penalty>
0.000523083

> <r_epik_Ionization_Penalty_Charging>
0

> <r_epik_Ionization_Penalty_Neutral>
0.000523083

> <r_epik_State_Penalty>
-0

> <r_epik_Charging_Adjusted_Penalty>
0

> <i_epik_Tot_Q>
0

> <i_epik_Tot_abs_Q>
0

> <r_epik_Metal_State_Penalty>
0.223408

> <b_epik_Metal_Only>
0

> <s_lp_Force_Field>
OPLS_2005

> <r_lp_Energy>
16.8922

> <b_lp_Chiralities_Consistent>
1

> <s_lp_Variant>
AV-unprocessed.smi:1768-1

> <Gold.Version>
5.8.1

> <Gold.Id.Protein>
6NUR|6NUR_protein|mol2

> <Gold.PLP.Fitness>
37.0923

> <Gold.PLP.PLP>
-31.7750

> <Gold.PLP.part.hbond>
-2.0000

> <Gold.PLP.part.metal>
0.0000

> <Gold.PLP.part.buried>
-5.4479

> <Gold.PLP.part.nonpolar>
-24.5690

> <Gold.PLP.part.repulsive>
0.1820

> <Gold.PLP.ligand.clash>
0.0000

> <Gold.PLP.ligand.torsion>
0.3332

> <Gold.PLP.Chemscore.Hbond>
1.9920

> <Gold.PLP.Chemscore.CHOScore>
0.0000

> <Gold.PLP.Chemscore.Metal>
0.0000

> <Gold.Chemscore.Hbonds>
donor molecule, donor type, donor heavy atom, donor atom, acceptor molecule, acceptor atom, score
      P1  H  7997  8010       L1     8  0.98
      P1  H 10752 10765       L1     3  1.00

> <Gold.PLP.Chemscore.Internal.Correction>
0.0077

> <Gold.Rescore>
     Score         DG    S(hbond)    S(metal)    S(lipo)     H(rot)  DE(clash)    DE(int)     intcor
     16.36     -18.00       1.94        0.00      80.01       1.29       0.01       1.63       ----

> <Gold.Chemscore.Fitness>
16.3610

> <Gold.Chemscore.DG>
-18.0043

> <Gold.Chemscore.ZeroCoef>
-5.4800

> <Gold.Chemscore.Hbond>
1.9372

> <Gold.Chemscore.Metal>
0.0000

> <Gold.Chemscore.Lipo>
80.0103

> <Gold.Chemscore.Internal_Hbond>
0.0000

> <Gold.Chemscore.DEClash>
0.0089

> <Gold.Chemscore.DEInternal>
1.6344

> <Gold.Chemscore.Rot>
1.2919

> <Gold.Chemscore.Internal.Correction>
   9.000000E+99

> <Gold.Chemscore.Hbonds>
donor molecule, donor type, donor heavy atom, donor atom, acceptor molecule, acceptor atom, score
      P1  H  7997  8010       L1     8  0.64
      P1  H 10752 10765       L1     3  0.48

> <Gold.Chemscore.Hbond.Weighted>
-6.4702

> <Gold.Chemscore.Metal.Weighted>
-0.0000

> <Gold.Chemscore.Lipo.Weighted>
-9.3612

> <Gold.Chemscore.Internal_Hbond.Weighted>
0.0000

> <Gold.Chemscore.DEClash.Weighted>
0.0089

> <Gold.Chemscore.DEInternal.Weighted>
1.6344

> <Gold.Chemscore.Rot.Weighted>
3.3072

> <Gold.Chemscore.Internal.Correction.Weighted>
   9.000000E+99

> <Gold.Protein.RotatedTorsions>
[ 6907 6896 6895 6894 ] final  172.46 input  -60.11 | X-H torsion
[ 7974 7965 7964 7962 ] final  107.32 input  175.53 | X-H torsion
[ 8008 7997 7996 7995 ] final   -3.70 input   59.86 | X-H torsion
[ 10167 10162 10161 10158 ] final  168.37 input  -65.29 | X-H torsion
[ 10718 10713 10712 10709 ] final -112.63 input   66.30 | X-H torsion
[ 10763 10752 10751 10750 ] final -162.74 input  -60.55 | X-H torsion
[ 11005 11000 10999 10996 ] final   54.10 input  -57.11 | X-H torsion

> <Gold.Protein.ActiveResidues>
 VAL166  LYS551  ARG553  GLY616  TRP617  ASP618  TYR619  PRO620  LYS621  CYS622 
 ASP623  PHE694  ASN695  SER759  ASP760  ASP761  ALA762  ILE779  LEU786  VAL792 
 PHE793  MET794  SER795  GLU796  ALA797  LYS798  CYS799  TRP800  GLU811  SER814 

> <Gold.Protein.RotatedAtoms>
  151.7839  133.3352  159.3479 H   0  0  0  0  0  0  0  0  0  0  0  0  # atno 6907 bound_to 6896
  150.7416  134.5905  159.5994 H   0  0  0  0  0  0  0  0  0  0  0  0  # atno 6908 bound_to 6896
  152.3257  134.7326  160.0354 H   0  0  0  0  0  0  0  0  0  0  0  0  # atno 6909 bound_to 6896
  145.2951  139.2587  143.3844 H   0  0  0  0  0  0  0  0  0  0  0  0  # atno 7974 bound_to 7965
  154.6221  140.2502  155.7536 H   0  0  0  0  0  0  0  0  0  0  0  0  # atno 8008 bound_to 7997
  156.2433  140.2924  156.0454 H   0  0  0  0  0  0  0  0  0  0  0  0  # atno 8009 bound_to 7997
  155.1880  140.0391  157.2885 H   0  0  0  0  0  0  0  0  0  0  0  0  # atno 8010 bound_to 7997
  139.4966  144.3821  151.9610 H   0  0  0  0  0  0  0  0  0  0  0  0  # atno 10167 bound_to 10162
  156.0717  130.5930  150.8534 H   0  0  0  0  0  0  0  0  0  0  0  0  # atno 10718 bound_to 10713
  154.7187  135.3021  154.9082 H   0  0  0  0  0  0  0  0  0  0  0  0  # atno 10763 bound_to 10752
  153.9961  135.6712  153.4760 H   0  0  0  0  0  0  0  0  0  0  0  0  # atno 10764 bound_to 10752
  153.0815  135.5006  154.8429 H   0  0  0  0  0  0  0  0  0  0  0  0  # atno 10765 bound_to 10752
  140.0714  134.5465  155.9043 H   0  0  0  0  0  0  0  0  0  0  0  0  # atno 11005 bound_to 11000
  146.3171  140.3452  142.8651 LP  0  0  0  0  0  0  0  0  0  0  0  0  # atno 17320 bound_to 7965
  144.9140  140.7791  143.5790 LP  0  0  0  0  0  0  0  0  0  0  0  0  # atno 17321 bound_to 7965
  140.3258  144.3375  150.5999 LP  0  0  0  0  0  0  0  0  0  0  0  0  # atno 17342 bound_to 10162
  140.5686  143.2183  151.7640 LP  0  0  0  0  0  0  0  0  0  0  0  0  # atno 17343 bound_to 10162
  157.5791  131.0946  150.9299 LP  0  0  0  0  0  0  0  0  0  0  0  0  # atno 17370 bound_to 10713
  156.9498  130.5415  149.5282 LP  0  0  0  0  0  0  0  0  0  0  0  0  # atno 17371 bound_to 10713
  141.2013  133.6618  156.5943 LP  0  0  0  0  0  0  0  0  0  0  0  0  # atno 17394 bound_to 11000
  140.3622  134.7678  157.4541 LP  0  0  0  0  0  0  0  0  0  0  0  0  # atno 17395 bound_to 11000

$$$$
