AV-unprocessed.smi:1809|AV-procd|sdf|7321|dock7
  -GOLD-   22720 8573D 1   1.00000     0.00000
 Structure written by MMmdl.
 39 41  0  0  0  0  0  0  0  0  3 V2000
  145.7782  134.1590  161.7593 C   0  0  0  0  0  0  0  0  0  0  0  0
  146.4913  135.1734  160.9326 C   0  0  0  0  0  0  0  0  0  0  0  0
  146.4905  136.4753  161.2285 N   0  0  0  0  0  0  0  0  0  0  0  0
  147.2245  137.2191  160.3160 N   0  0  0  0  0  0  0  0  0  0  0  0
  147.7777  136.4710  159.3512 C   0  0  0  0  0  0  0  0  0  0  0  0
  148.5248  137.0023  158.3690 N   0  5  0  0  0  0  0  0  0  0  0  0
  149.7588  137.4821  158.6417 C   0  0  0  0  0  0  0  0  0  0  0  0
  150.3277  137.4593  159.7356 O   0  0  0  0  0  0  0  0  0  0  0  0
  150.3757  138.0174  157.5790 N   0  0  0  0  0  0  0  0  0  0  0  0
  151.7152  138.5950  157.5750 C   0  0  0  0  0  0  0  0  0  0  0  0
  151.8230  139.7857  158.5425 C   0  0  2  0  0  0  0  0  0  0  0  0
  151.0623  141.0257  158.0185 C   0  0  0  0  0  0  0  0  0  0  0  0
  151.3064  142.1407  158.9514 N   0  3  2  0  0  0  0  0  0  0  0  0
  150.6615  143.4363  158.6791 C   0  0  0  0  0  0  0  0  0  0  0  0
  151.5387  144.4728  159.4098 C   0  0  0  0  0  0  0  0  0  0  0  0
  152.7681  143.6969  159.9182 C   0  0  0  0  0  0  0  0  0  0  0  0
  152.7379  142.4186  159.0862 C   0  0  1  0  0  0  0  0  0  0  0  0
  153.4392  141.1721  159.6414 C   0  0  0  0  0  0  0  0  0  0  0  0
  153.2085  140.1050  158.7205 O   0  0  0  0  0  0  0  0  0  0  0  0
  147.4055  134.7529  159.4940 S   0  0  0  0  0  0  0  0  0  0  0  0
  146.3717  133.9135  162.6400 H   0  0  0  0  0  0  0  0  0  0  0  0
  145.6127  133.2490  161.1824 H   0  0  0  0  0  0  0  0  0  0  0  0
  144.8118  134.5463  162.0831 H   0  0  0  0  0  0  0  0  0  0  0  0
  149.8735  138.0181  156.7030 H   0  0  0  0  0  0  0  0  0  0  0  0
  152.4266  137.8175  157.8545 H   0  0  0  0  0  0  0  0  0  0  0  0
  151.9764  138.9028  156.5610 H   0  0  0  0  0  0  0  0  0  0  0  0
  151.4037  139.5034  159.5100 H   0  0  0  0  0  0  0  0  0  0  0  0
  151.4012  141.2939  157.0166 H   0  0  0  0  0  0  0  0  0  0  0  0
  149.9923  140.8236  157.9597 H   0  0  0  0  0  0  0  0  0  0  0  0
  150.6614  143.6344  157.6061 H   0  0  0  0  0  0  0  0  0  0  0  0
  149.6281  143.4403  159.0268 H   0  0  0  0  0  0  0  0  0  0  0  0
  151.8356  145.2655  158.7220 H   0  0  0  0  0  0  0  0  0  0  0  0
  151.0049  144.9402  160.2382 H   0  0  0  0  0  0  0  0  0  0  0  0
  153.6985  144.2537  159.8018 H   0  0  0  0  0  0  0  0  0  0  0  0
  152.6467  143.4609  160.9765 H   0  0  0  0  0  0  0  0  0  0  0  0
  153.1443  142.6433  158.0972 H   0  0  0  0  0  0  0  0  0  0  0  0
  154.5118  141.3435  159.7319 H   0  0  0  0  0  0  0  0  0  0  0  0
  153.0646  140.9080  160.6316 H   0  0  0  0  0  0  0  0  0  0  0  0
  150.9853  141.8453  159.8626 H   0  0  0  0  0  0  0  0  0  0  0  0
  1  2  1  0  0  0  0
  1 21  1  0  0  0  0
  1 22  1  0  0  0  0
  1 23  1  0  0  0  0
  2 20  1  0  0  0  0
  2  3  2  0  0  0  0
  3  4  1  0  0  0  0
  4  5  2  0  0  0  0
  5  6  1  0  0  0  0
  5 20  1  0  0  0  0
  6  7  1  0  0  0  0
  7  8  2  0  0  0  0
  7  9  1  0  0  0  0
  9 10  1  0  0  0  0
  9 24  1  0  0  0  0
 10 11  1  0  0  0  0
 10 25  1  0  0  0  0
 10 26  1  0  0  0  0
 11 19  1  0  0  0  0
 11 12  1  0  0  0  0
 11 27  1  0  0  0  0
 12 13  1  0  0  0  0
 12 28  1  0  0  0  0
 12 29  1  0  0  0  0
 13 17  1  0  0  0  0
 13 14  1  0  0  0  0
 13 39  1  0  0  0  0
 14 15  1  0  0  0  0
 14 30  1  0  0  0  0
 14 31  1  0  0  0  0
 15 16  1  0  0  0  0
 15 32  1  0  0  0  0
 15 33  1  0  0  0  0
 16 17  1  0  0  0  0
 16 34  1  0  0  0  0
 16 35  1  0  0  0  0
 17 18  1  0  0  0  0
 17 36  1  0  0  0  0
 18 19  1  0  0  0  0
 18 37  1  0  0  0  0
 18 38  1  0  0  0  0
M  CHG  1   6  -1
M  CHG  1  13   1
M  END
> <s_m_source_file>
AV-unprocessed.smi

> <i_m_source_file_index>
1809

> <i_lp_mmshare_version>
43012

> <i_f3d_flags>
0

> <s_epik_input>
W0NIM11jMW5uYyhzMSlbTkhdQyg9TylbTkhdW0NIMl1bQ0BIXShbQ0gyXTIpT1tDSDJdW0NAQEhdKE4yMylbQ0gyXVtDSDJdW0NIMl0z

> <s_epik_cmdline>
J2VwaWtfcHl0aG9uJywgJy1waCcsICc3LjAnLCAnLXRuJywgJzgnLCAnLW1hJywgJzIwMCcsICctbWV0YWxfYmluZGluZycsICctaW1hZScsICc8aW5maWxlLm1hZT4nLCAnLW9tYWUnLCAnPG91dGZpbGUubWFlPic=

> <r_lp_tautomer_probability>
1

> <r_epik_Ionization_Penalty>
3.2601

> <r_epik_Ionization_Penalty_Charging>
3.1406

> <r_epik_Ionization_Penalty_Neutral>
0.119497

> <r_epik_State_Penalty>
3.08894

> <r_epik_Charging_Adjusted_Penalty>
6.22954

> <i_epik_Tot_Q>
0

> <i_epik_Tot_abs_Q>
2

> <r_epik_Metal_State_Penalty>
0.510807

> <b_epik_Metal_Only>
1

> <s_lp_Force_Field>
OPLS_2005

> <r_lp_Energy>
28.6606

> <b_lp_Chiralities_Consistent>
1

> <s_lp_Variant>
AV-unprocessed.smi:1809-13

> <Gold.Version>
5.8.1

> <Gold.Id.Protein>
6NUR|6NUR_protein|mol2

> <Gold.PLP.Fitness>
43.1632

> <Gold.PLP.PLP>
-36.4140

> <Gold.PLP.part.hbond>
-4.0000

> <Gold.PLP.part.metal>
0.0000

> <Gold.PLP.part.buried>
-4.5423

> <Gold.PLP.part.nonpolar>
-27.5946

> <Gold.PLP.part.repulsive>
0.1579

> <Gold.PLP.ligand.clash>
0.0000

> <Gold.PLP.ligand.torsion>
0.7466

> <Gold.PLP.Chemscore.Hbond>
2.7440

> <Gold.PLP.Chemscore.CHOScore>
0.0000

> <Gold.PLP.Chemscore.Metal>
0.0000

> <Gold.Chemscore.Hbonds>
donor molecule, donor type, donor heavy atom, donor atom, acceptor molecule, acceptor atom, score
      P1  H  6934  6947       L1     4  1.00
      P1  H  7997  8009       L1    19  0.63

> <Gold.PLP.Chemscore.Internal.Correction>
0.0103

> <Gold.Rescore>
     Score         DG    S(hbond)    S(metal)    S(lipo)     H(rot)  DE(clash)    DE(int)     intcor
     19.66     -20.49       2.31        0.00      91.31       1.32       0.03       0.80       ----

> <Gold.Chemscore.Fitness>
19.6600

> <Gold.Chemscore.DG>
-20.4926

> <Gold.Chemscore.ZeroCoef>
-5.4800

> <Gold.Chemscore.Hbond>
2.3113

> <Gold.Chemscore.Metal>
0.0000

> <Gold.Chemscore.Lipo>
91.3148

> <Gold.Chemscore.Internal_Hbond>
0.0000

> <Gold.Chemscore.DEClash>
0.0310

> <Gold.Chemscore.DEInternal>
0.8016

> <Gold.Chemscore.Rot>
1.3246

> <Gold.Chemscore.Internal.Correction>
   9.000000E+99

> <Gold.Chemscore.Hbonds>
donor molecule, donor type, donor heavy atom, donor atom, acceptor molecule, acceptor atom, score
      P1  H  6934  6947       L1     4  0.60
      P1  H  7997  8009       L1    19  0.48

> <Gold.Chemscore.Hbond.Weighted>
-7.7197

> <Gold.Chemscore.Metal.Weighted>
-0.0000

> <Gold.Chemscore.Lipo.Weighted>
-10.6838

> <Gold.Chemscore.Internal_Hbond.Weighted>
0.0000

> <Gold.Chemscore.DEClash.Weighted>
0.0310

> <Gold.Chemscore.DEInternal.Weighted>
0.8016

> <Gold.Chemscore.Rot.Weighted>
3.3910

> <Gold.Chemscore.Internal.Correction.Weighted>
   9.000000E+99

> <Gold.Protein.RotatedTorsions>
[ 6907 6896 6895 6894 ] final   79.93 input  -60.11 | X-H torsion
[ 7974 7965 7964 7962 ] final  -94.18 input  175.53 | X-H torsion
[ 8008 7997 7996 7995 ] final  144.41 input   59.86 | X-H torsion
[ 10167 10162 10161 10158 ] final  -82.81 input  -65.29 | X-H torsion
[ 10718 10713 10712 10709 ] final  -50.02 input   66.30 | X-H torsion
[ 10763 10752 10751 10750 ] final    3.70 input  -60.55 | X-H torsion
[ 11005 11000 10999 10996 ] final   98.38 input  -57.11 | X-H torsion

> <Gold.Protein.ActiveResidues>
 VAL166  LYS551  ARG553  GLY616  TRP617  ASP618  TYR619  PRO620  LYS621  CYS622 
 ASP623  PHE694  ASN695  SER759  ASP760  ASP761  ALA762  ILE779  LEU786  VAL792 
 PHE793  MET794  SER795  GLU796  ALA797  LYS798  CYS799  TRP800  GLU811  SER814 

> <Gold.Protein.RotatedAtoms>
  152.5216  134.3436  159.9225 H   0  0  0  0  0  0  0  0  0  0  0  0  # atno 6907 bound_to 6896
  151.3386  133.3965  159.2677 H   0  0  0  0  0  0  0  0  0  0  0  0  # atno 6908 bound_to 6896
  150.9822  134.9193  159.7908 H   0  0  0  0  0  0  0  0  0  0  0  0  # atno 6909 bound_to 6896
  145.3766  140.9512  143.2417 H   0  0  0  0  0  0  0  0  0  0  0  0  # atno 7974 bound_to 7965
  156.2909  140.2236  156.5048 H   0  0  0  0  0  0  0  0  0  0  0  0  # atno 8008 bound_to 7997
  154.7659  140.0470  157.1033 H   0  0  0  0  0  0  0  0  0  0  0  0  # atno 8009 bound_to 7997
  154.9933  140.3093  155.4900 H   0  0  0  0  0  0  0  0  0  0  0  0  # atno 8010 bound_to 7997
  140.4285  143.2557  151.8792 H   0  0  0  0  0  0  0  0  0  0  0  0  # atno 10167 bound_to 10162
  156.1839  130.4151  149.9467 H   0  0  0  0  0  0  0  0  0  0  0  0  # atno 10718 bound_to 10713
  153.2802  135.6940  153.7393 H   0  0  0  0  0  0  0  0  0  0  0  0  # atno 10763 bound_to 10752
  153.6384  135.3398  155.3064 H   0  0  0  0  0  0  0  0  0  0  0  0  # atno 10764 bound_to 10752
  154.8492  135.4425  154.1852 H   0  0  0  0  0  0  0  0  0  0  0  0  # atno 10765 bound_to 10752
  139.8772  134.9046  156.4448 H   0  0  0  0  0  0  0  0  0  0  0  0  # atno 11005 bound_to 11000
  144.8537  139.5282  143.6844 LP  0  0  0  0  0  0  0  0  0  0  0  0  # atno 17320 bound_to 7965
  146.2861  139.7008  142.9194 LP  0  0  0  0  0  0  0  0  0  0  0  0  # atno 17321 bound_to 7965
  139.4784  144.5361  151.8597 LP  0  0  0  0  0  0  0  0  0  0  0  0  # atno 17342 bound_to 10162
  140.4454  144.1929  150.5894 LP  0  0  0  0  0  0  0  0  0  0  0  0  # atno 17343 bound_to 10162
  156.7229  130.9014  151.3619 LP  0  0  0  0  0  0  0  0  0  0  0  0  # atno 17370 bound_to 10713
  157.6886  130.9210  150.0453 LP  0  0  0  0  0  0  0  0  0  0  0  0  # atno 17371 bound_to 10713
  140.8974  133.7804  155.9640 LP  0  0  0  0  0  0  0  0  0  0  0  0  # atno 17394 bound_to 11000
  140.8688  134.2751  157.5200 LP  0  0  0  0  0  0  0  0  0  0  0  0  # atno 17395 bound_to 11000

$$$$
