AV-unprocessed.smi:1669|AV-procd|sdf|6688|dock4
  -GOLD-   22720 7413D 1   1.00000     0.00000
 Structure written by MMmdl.
 47 49  0  0  0  0  0  0  0  0  1 V2000
  146.3045  141.2194  153.0861 C   0  0  0  0  0  0  0  0  0  0  0  0
  147.3515  140.3576  153.6280 N   0  0  0  0  0  0  0  0  0  0  0  0
  148.5633  141.1333  153.9161 C   0  0  0  0  0  0  0  0  0  0  0  0
  149.6068  140.3749  154.7187 C   0  0  0  0  0  0  0  0  0  0  0  0
  150.2315  139.2333  154.1728 C   0  0  0  0  0  0  0  0  0  0  0  0
  151.2001  138.5324  154.9175 C   0  0  0  0  0  0  0  0  0  0  0  0
  151.5488  138.9713  156.2095 C   0  0  0  0  0  0  0  0  0  0  0  0
  150.9296  140.1119  156.7561 C   0  0  0  0  0  0  0  0  0  0  0  0
  149.9615  140.8136  156.0117 C   0  0  0  0  0  0  0  0  0  0  0  0
  147.6188  139.2583  152.6987 C   0  0  0  0  0  0  0  0  0  0  0  0
  146.3748  138.4724  152.2246 C   0  0  1  0  0  0  0  0  0  0  0  0
  146.5708  138.1128  150.8733 O   0  0  0  0  0  0  0  0  0  0  0  0
  146.1255  137.1759  153.0211 C   0  0  0  0  0  0  0  0  0  0  0  0
  145.0604  136.3583  152.4537 N   0  0  0  0  0  0  0  0  0  0  0  0
  143.7275  136.6162  152.4306 C   0  0  0  0  0  0  0  0  0  0  0  0
  143.1574  137.8728  153.0272 C   0  0  0  0  0  0  0  0  0  0  0  0
  142.3728  138.6300  152.1278 O   0  0  0  0  0  0  0  0  0  0  0  0
  142.9703  135.6793  151.8546 N   0  0  0  0  0  0  0  0  0  0  0  0
  143.8960  134.7349  151.4593 C   0  0  0  0  0  0  0  0  0  0  0  0
  143.7214  133.5011  150.7927 C   0  0  0  0  0  0  0  0  0  0  0  0
  144.8343  132.6897  150.4896 C   0  0  0  0  0  0  0  0  0  0  0  0
  146.1347  133.0998  150.8477 C   0  0  0  0  0  0  0  0  0  0  0  0
  146.3304  134.3250  151.5135 C   0  0  0  0  0  0  0  0  0  0  0  0
  145.2158  135.1314  151.8145 C   0  0  0  0  0  0  0  0  0  0  0  0
  145.3968  140.6488  152.8878 H   0  0  0  0  0  0  0  0  0  0  0  0
  146.6221  141.6861  152.1525 H   0  0  0  0  0  0  0  0  0  0  0  0
  146.0387  142.0099  153.7881 H   0  0  0  0  0  0  0  0  0  0  0  0
  149.0543  141.4387  152.9939 H   0  0  0  0  0  0  0  0  0  0  0  0
  148.3001  142.0558  154.4363 H   0  0  0  0  0  0  0  0  0  0  0  0
  149.9671  138.8923  153.1826 H   0  0  0  0  0  0  0  0  0  0  0  0
  151.6756  137.6582  154.4980 H   0  0  0  0  0  0  0  0  0  0  0  0
  152.2908  138.4334  156.7809 H   0  0  0  0  0  0  0  0  0  0  0  0
  151.1972  140.4486  157.7470 H   0  0  0  0  0  0  0  0  0  0  0  0
  149.4907  141.6876  156.4379 H   0  0  0  0  0  0  0  0  0  0  0  0
  148.1297  139.6389  151.8126 H   0  0  0  0  0  0  0  0  0  0  0  0
  148.3298  138.5813  153.1719 H   0  0  0  0  0  0  0  0  0  0  0  0
  145.4774  139.0848  152.2730 H   0  0  0  0  0  0  0  0  0  0  0  0
  145.7771  138.3049  150.3972 H   0  0  0  0  0  0  0  0  0  0  0  0
  147.0361  136.5789  153.0746 H   0  0  0  0  0  0  0  0  0  0  0  0
  145.8668  137.4149  154.0532 H   0  0  0  0  0  0  0  0  0  0  0  0
  142.5404  137.6126  153.8868 H   0  0  0  0  0  0  0  0  0  0  0  0
  143.9678  138.5090  153.3822 H   0  0  0  0  0  0  0  0  0  0  0  0
  142.7595  139.4875  152.0393 H   0  0  0  0  0  0  0  0  0  0  0  0
  142.7290  133.1787  150.5145 H   0  0  0  0  0  0  0  0  0  0  0  0
  144.6895  131.7481  149.9803 H   0  0  0  0  0  0  0  0  0  0  0  0
  146.9821  132.4727  150.6122 H   0  0  0  0  0  0  0  0  0  0  0  0
  147.3256  134.6382  151.7921 H   0  0  0  0  0  0  0  0  0  0  0  0
  1  2  1  0  0  0  0
  1 25  1  0  0  0  0
  1 26  1  0  0  0  0
  1 27  1  0  0  0  0
  2  3  1  0  0  0  0
  2 10  1  0  0  0  0
  3  4  1  0  0  0  0
  3 28  1  0  0  0  0
  3 29  1  0  0  0  0
  4  9  1  0  0  0  0
  4  5  2  0  0  0  0
  5  6  1  0  0  0  0
  5 30  1  0  0  0  0
  6  7  2  0  0  0  0
  6 31  1  0  0  0  0
  7  8  1  0  0  0  0
  7 32  1  0  0  0  0
  8  9  2  0  0  0  0
  8 33  1  0  0  0  0
  9 34  1  0  0  0  0
 10 11  1  0  0  0  0
 10 35  1  0  0  0  0
 10 36  1  0  0  0  0
 11 12  1  0  0  0  0
 11 13  1  0  0  0  0
 11 37  1  0  0  0  0
 12 38  1  0  0  0  0
 13 14  1  0  0  0  0
 13 39  1  0  0  0  0
 13 40  1  0  0  0  0
 14 24  1  0  0  0  0
 14 15  1  0  0  0  0
 15 16  1  0  0  0  0
 15 18  2  0  0  0  0
 16 17  1  0  0  0  0
 16 41  1  0  0  0  0
 16 42  1  0  0  0  0
 17 43  1  0  0  0  0
 18 19  1  0  0  0  0
 19 24  2  0  0  0  0
 19 20  1  0  0  0  0
 20 21  2  0  0  0  0
 20 44  1  0  0  0  0
 21 22  1  0  0  0  0
 21 45  1  0  0  0  0
 22 23  2  0  0  0  0
 22 46  1  0  0  0  0
 23 24  1  0  0  0  0
 23 47  1  0  0  0  0
M  END
> <s_m_source_file>
AV-unprocessed.smi

> <i_m_source_file_index>
1669

> <i_lp_mmshare_version>
43012

> <i_f3d_flags>
0

> <s_epik_input>
W2NIXTFbY0hdW2NIXVtjSF1bY0hdYzFbQ0gyXU4oW0NIM10pW0NIMl1bQ0BIXShbT0hdKVtDSDJdbihjKG4yKVtDSDJdW09IXSljKGMyMylbY0hdW2NIXVtjSF1bY0hdMw==

> <s_epik_cmdline>
J2VwaWtfcHl0aG9uJywgJy1waCcsICc3LjAnLCAnLXRuJywgJzgnLCAnLW1hJywgJzIwMCcsICctbWV0YWxfYmluZGluZycsICctaW1hZScsICc8aW5maWxlLm1hZT4nLCAnLW9tYWUnLCAnPG91dGZpbGUubWFlPic=

> <r_epik_Ionization_Penalty>
1.56301

> <r_epik_Ionization_Penalty_Charging>
0

> <r_epik_Ionization_Penalty_Neutral>
1.56301

> <r_epik_State_Penalty>
1.64771

> <r_epik_Charging_Adjusted_Penalty>
1.64771

> <i_epik_Tot_Q>
0

> <i_epik_Tot_abs_Q>
0

> <r_epik_Metal_State_Penalty>
1.61258

> <b_epik_Metal_Only>
0

> <s_lp_Force_Field>
OPLS_2005

> <r_lp_Energy>
25.3744

> <b_lp_Chiralities_Consistent>
1

> <s_lp_Variant>
AV-unprocessed.smi:1669-6

> <Gold.Version>
5.8.1

> <Gold.Id.Protein>
6NUR|6NUR_protein|mol2

> <Gold.PLP.Fitness>
47.3772

> <Gold.PLP.PLP>
-39.5424

> <Gold.PLP.part.hbond>
-3.8616

> <Gold.PLP.part.metal>
0.0000

> <Gold.PLP.part.buried>
3.7203

> <Gold.PLP.part.nonpolar>
-39.5846

> <Gold.PLP.part.repulsive>
0.3418

> <Gold.PLP.ligand.clash>
0.0000

> <Gold.PLP.ligand.torsion>
0.7387

> <Gold.PLP.Chemscore.Hbond>
3.0000

> <Gold.PLP.Chemscore.CHOScore>
0.0000

> <Gold.PLP.Chemscore.Metal>
0.0000

> <Gold.Chemscore.Hbonds>
donor molecule, donor type, donor heavy atom, donor atom, acceptor molecule, acceptor atom, score
      L1  H    12    38       P1 10171  1.00
      L1  H    17    43       P1 10175  0.49
      P1  H  7954  7966       L1    12  1.00

> <Gold.PLP.Chemscore.Internal.Correction>
0.3121

> <Gold.Rescore>
     Score         DG    S(hbond)    S(metal)    S(lipo)     H(rot)  DE(clash)    DE(int)     intcor
     16.79     -20.68       2.90        0.00     114.03       3.06       2.83       1.06       ----

> <Gold.Chemscore.Fitness>
16.7862

> <Gold.Chemscore.DG>
-20.6823

> <Gold.Chemscore.ZeroCoef>
-5.4800

> <Gold.Chemscore.Hbond>
2.9033

> <Gold.Chemscore.Metal>
0.0000

> <Gold.Chemscore.Lipo>
114.0252

> <Gold.Chemscore.Internal_Hbond>
0.0000

> <Gold.Chemscore.DEClash>
2.8311

> <Gold.Chemscore.DEInternal>
1.0650

> <Gold.Chemscore.Rot>
3.0609

> <Gold.Chemscore.Internal.Correction>
   9.000000E+99

> <Gold.Chemscore.Hbonds>
donor molecule, donor type, donor heavy atom, donor atom, acceptor molecule, acceptor atom, score
      L1  H    12    38       P1 10171  0.97
      L1  H    17    43       P1 10175  0.23
      P1  H  7954  7966       L1    12  0.94

> <Gold.Chemscore.Hbond.Weighted>
-9.6972

> <Gold.Chemscore.Metal.Weighted>
-0.0000

> <Gold.Chemscore.Lipo.Weighted>
-13.3409

> <Gold.Chemscore.Internal_Hbond.Weighted>
0.0000

> <Gold.Chemscore.DEClash.Weighted>
2.8311

> <Gold.Chemscore.DEInternal.Weighted>
1.0650

> <Gold.Chemscore.Rot.Weighted>
7.8358

> <Gold.Chemscore.Internal.Correction.Weighted>
   9.000000E+99

> <Gold.Protein.RotatedTorsions>
[ 6907 6896 6895 6894 ] final  -46.17 input  -60.11 | X-H torsion
[ 7974 7965 7964 7962 ] final   79.58 input  175.53 | X-H torsion
[ 8008 7997 7996 7995 ] final   16.34 input   59.86 | X-H torsion
[ 10167 10162 10161 10158 ] final  -43.24 input  -65.29 | X-H torsion
[ 10718 10713 10712 10709 ] final  -67.56 input   66.30 | X-H torsion
[ 10763 10752 10751 10750 ] final  -35.83 input  -60.55 | X-H torsion
[ 11005 11000 10999 10996 ] final -102.63 input  -57.11 | X-H torsion

> <Gold.Protein.ActiveResidues>
 VAL166  LYS551  ARG553  GLY616  TRP617  ASP618  TYR619  PRO620  LYS621  CYS622 
 ASP623  PHE694  ASN695  SER759  ASP760  ASP761  ALA762  ILE779  LEU786  VAL792 
 PHE793  MET794  SER795  GLU796  ALA797  LYS798  CYS799  TRP800  GLU811  SER814 

> <Gold.Protein.RotatedAtoms>
  150.9141  134.8558  159.7444 H   0  0  0  0  0  0  0  0  0  0  0  0  # atno 6907 bound_to 6896
  152.4959  134.4315  159.9523 H   0  0  0  0  0  0  0  0  0  0  0  0  # atno 6908 bound_to 6896
  151.4355  133.3618  159.2809 H   0  0  0  0  0  0  0  0  0  0  0  0  # atno 6909 bound_to 6896
  145.6624  139.2475  143.1915 H   0  0  0  0  0  0  0  0  0  0  0  0  # atno 7974 bound_to 7965
  154.8755  140.2965  155.5456 H   0  0  0  0  0  0  0  0  0  0  0  0  # atno 8008 bound_to 7997
  156.3022  140.2452  156.3684 H   0  0  0  0  0  0  0  0  0  0  0  0  # atno 8009 bound_to 7997
  154.8772  140.0399  157.1749 H   0  0  0  0  0  0  0  0  0  0  0  0  # atno 8010 bound_to 7997
  140.6941  143.2993  151.3324 H   0  0  0  0  0  0  0  0  0  0  0  0  # atno 10167 bound_to 10162
  156.0551  130.4280  150.1872 H   0  0  0  0  0  0  0  0  0  0  0  0  # atno 10718 bound_to 10713
  153.8697  135.6832  153.4775 H   0  0  0  0  0  0  0  0  0  0  0  0  # atno 10763 bound_to 10752
  153.1294  135.4704  154.9323 H   0  0  0  0  0  0  0  0  0  0  0  0  # atno 10764 bound_to 10752
  154.7720  135.3241  154.8121 H   0  0  0  0  0  0  0  0  0  0  0  0  # atno 10765 bound_to 10752
  141.1181  133.8574  157.1383 H   0  0  0  0  0  0  0  0  0  0  0  0  # atno 11005 bound_to 11000
  146.1114  140.7423  142.9501 LP  0  0  0  0  0  0  0  0  0  0  0  0  # atno 17320 bound_to 7965
  144.7084  140.3945  143.7099 LP  0  0  0  0  0  0  0  0  0  0  0  0  # atno 17321 bound_to 7965
  139.6375  144.0602  152.2528 LP  0  0  0  0  0  0  0  0  0  0  0  0  # atno 17342 bound_to 10162
  140.0097  144.6233  150.7658 LP  0  0  0  0  0  0  0  0  0  0  0  0  # atno 17343 bound_to 10162
  156.9950  130.9905  151.3405 LP  0  0  0  0  0  0  0  0  0  0  0  0  # atno 17370 bound_to 10713
  157.5514  130.8184  149.8149 LP  0  0  0  0  0  0  0  0  0  0  0  0  # atno 17371 bound_to 10713
  140.0117  134.9985  157.0410 LP  0  0  0  0  0  0  0  0  0  0  0  0  # atno 17394 bound_to 11000
  140.4587  134.1506  155.7189 LP  0  0  0  0  0  0  0  0  0  0  0  0  # atno 17395 bound_to 11000

$$$$
