AV-unprocessed.smi:883|AV-procd|sdf|4039|dock3
  -GOLD-   22720 1533D 1   1.00000     0.00000
 Structure written by MMmdl.
 29 31  0  0  0  0  0  0  0  0  1 V2000
  150.9099  136.4994  154.5267 N   0  0  0  0  0  0  0  0  0  0  0  0
  150.9109  137.5950  154.8987 C   0  0  0  0  0  0  0  0  0  0  0  0
  150.9129  138.9706  155.3654 C   0  0  0  0  0  0  0  0  0  0  0  0
  150.0216  139.9182  154.8249 C   0  0  0  0  0  0  0  0  0  0  0  0
  150.0580  141.2390  155.3136 C   0  0  0  0  0  0  0  0  0  0  0  0
  150.9853  141.5658  156.3256 C   0  0  0  0  0  0  0  0  0  0  0  0
  151.0140  142.8822  156.8076 N   0  0  0  0  0  0  0  0  0  0  0  0
  151.9335  143.2827  157.8684 C   0  0  1  0  0  0  0  0  0  0  0  0
  152.3017  144.7673  157.8141 C   0  0  0  0  0  0  0  0  0  0  0  0
  151.9684  145.2273  159.2406 C   0  0  1  0  0  0  0  0  0  0  0  0
  150.4544  145.3538  159.4519 C   0  0  0  0  0  0  0  0  0  0  0  0
  150.0243  143.8889  159.4975 C   0  0  0  0  0  0  0  0  0  0  0  0
  151.3625  143.1572  159.2956 C   0  0  2  0  0  0  0  0  0  0  0  0
  152.2332  144.0448  159.9768 O   0  0  0  0  0  0  0  0  0  0  0  0
  151.8462  140.6565  156.8421 N   0  0  0  0  0  0  0  0  0  0  0  0
  151.8062  139.3913  156.3713 C   0  0  0  0  0  0  0  0  0  0  0  0
  149.3193  139.6437  154.0508 H   0  0  0  0  0  0  0  0  0  0  0  0
  149.3834  141.9839  154.9174 H   0  0  0  0  0  0  0  0  0  0  0  0
  150.2737  143.5182  156.5492 H   0  0  0  0  0  0  0  0  0  0  0  0
  152.8503  142.6963  157.7908 H   0  0  0  0  0  0  0  0  0  0  0  0
  153.3656  144.8844  157.6052 H   0  0  0  0  0  0  0  0  0  0  0  0
  151.7464  145.3326  157.0641 H   0  0  0  0  0  0  0  0  0  0  0  0
  152.5347  146.0994  159.5682 H   0  0  0  0  0  0  0  0  0  0  0  0
  150.2335  145.8461  160.3997 H   0  0  0  0  0  0  0  0  0  0  0  0
  149.9680  145.9149  158.6535 H   0  0  0  0  0  0  0  0  0  0  0  0
  149.6020  143.6498  160.4741 H   0  0  0  0  0  0  0  0  0  0  0  0
  149.2805  143.6386  158.7411 H   0  0  0  0  0  0  0  0  0  0  0  0
  151.3711  142.1406  159.6895 H   0  0  0  0  0  0  0  0  0  0  0  0
  152.5082  138.6994  156.8144 H   0  0  0  0  0  0  0  0  0  0  0  0
  1  2  3  0  0  0  0
  2  3  1  0  0  0  0
  3 16  1  0  0  0  0
  3  4  2  0  0  0  0
  4  5  1  0  0  0  0
  4 17  1  0  0  0  0
  5  6  2  0  0  0  0
  5 18  1  0  0  0  0
  6  7  1  0  0  0  0
  6 15  1  0  0  0  0
  7  8  1  0  0  0  0
  7 19  1  0  0  0  0
  8 13  1  0  0  0  0
  8  9  1  0  0  0  0
  8 20  1  0  0  0  0
  9 10  1  0  0  0  0
  9 21  1  0  0  0  0
  9 22  1  0  0  0  0
 10 14  1  0  0  0  0
 10 11  1  0  0  0  0
 10 23  1  0  0  0  0
 11 12  1  0  0  0  0
 11 24  1  0  0  0  0
 11 25  1  0  0  0  0
 12 13  1  0  0  0  0
 12 26  1  0  0  0  0
 12 27  1  0  0  0  0
 13 14  1  0  0  0  0
 13 28  1  0  0  0  0
 15 16  2  0  0  0  0
 16 29  1  0  0  0  0
M  END
> <s_m_source_file>
AV-unprocessed.smi

> <i_m_source_file_index>
883

> <i_lp_mmshare_version>
43012

> <i_f3d_flags>
0

> <s_epik_input>
TiNDYzFbY0hdW2NIXWMobltjSF0xKVtOSF1bQ0BIXShbQ0gyXVtDQEBIXTIzKVtDQEBIXShPMylbQ0gyXVtDSDJdMg==

> <s_epik_cmdline>
J2VwaWtfcHl0aG9uJywgJy1waCcsICc3LjAnLCAnLXRuJywgJzgnLCAnLW1hJywgJzIwMCcsICctbWV0YWxfYmluZGluZycsICctaW1hZScsICc8aW5maWxlLm1hZT4nLCAnLW9tYWUnLCAnPG91dGZpbGUubWFlPic=

> <r_lp_tautomer_probability>
1

> <r_epik_Ionization_Penalty>
1.50983e-05

> <r_epik_Ionization_Penalty_Charging>
0

> <r_epik_Ionization_Penalty_Neutral>
1.50983e-05

> <r_epik_State_Penalty>
-0

> <r_epik_Charging_Adjusted_Penalty>
0

> <i_epik_Tot_Q>
0

> <i_epik_Tot_abs_Q>
0

> <r_epik_Metal_State_Penalty>
-0

> <b_epik_Metal_Only>
0

> <s_lp_Force_Field>
OPLS_2005

> <r_lp_Energy>
39.3985

> <b_lp_Chiralities_Consistent>
1

> <s_lp_Variant>
AV-unprocessed.smi:883-2

> <Gold.Version>
5.8.1

> <Gold.Id.Protein>
6NUR|6NUR_protein|mol2

> <Gold.PLP.Fitness>
39.1021

> <Gold.PLP.PLP>
-33.8330

> <Gold.PLP.part.hbond>
-2.0000

> <Gold.PLP.part.metal>
0.0000

> <Gold.PLP.part.buried>
-3.0951

> <Gold.PLP.part.nonpolar>
-28.4574

> <Gold.PLP.part.repulsive>
1.3142

> <Gold.PLP.ligand.clash>
0.0000

> <Gold.PLP.ligand.torsion>
0.3701

> <Gold.PLP.Chemscore.Hbond>
2.0000

> <Gold.PLP.Chemscore.CHOScore>
0.0000

> <Gold.PLP.Chemscore.Metal>
0.0000

> <Gold.Chemscore.Hbonds>
donor molecule, donor type, donor heavy atom, donor atom, acceptor molecule, acceptor atom, score
      L1  H     7    19       P1  8028  0.99
      P1  H 10752 10764       L1     1  0.59

> <Gold.PLP.Chemscore.Internal.Correction>
0.0092

> <Gold.Rescore>
     Score         DG    S(hbond)    S(metal)    S(lipo)     H(rot)  DE(clash)    DE(int)     intcor
     18.86     -19.99       1.94        0.00      90.55       1.00       0.77       0.36       ----

> <Gold.Chemscore.Fitness>
18.8640

> <Gold.Chemscore.DG>
-19.9875

> <Gold.Chemscore.ZeroCoef>
-5.4800

> <Gold.Chemscore.Hbond>
1.9379

> <Gold.Chemscore.Metal>
0.0000

> <Gold.Chemscore.Lipo>
90.5548

> <Gold.Chemscore.Internal_Hbond>
0.0000

> <Gold.Chemscore.DEClash>
0.7653

> <Gold.Chemscore.DEInternal>
0.3583

> <Gold.Chemscore.Rot>
1.0000

> <Gold.Chemscore.Internal.Correction>
   9.000000E+99

> <Gold.Chemscore.Hbonds>
donor molecule, donor type, donor heavy atom, donor atom, acceptor molecule, acceptor atom, score
      L1  H     7    19       P1  8028  0.92
      P1  H 10752 10764       L1     1  0.50

> <Gold.Chemscore.Hbond.Weighted>
-6.4726

> <Gold.Chemscore.Metal.Weighted>
-0.0000

> <Gold.Chemscore.Lipo.Weighted>
-10.5949

> <Gold.Chemscore.Internal_Hbond.Weighted>
0.0000

> <Gold.Chemscore.DEClash.Weighted>
0.7653

> <Gold.Chemscore.DEInternal.Weighted>
0.3583

> <Gold.Chemscore.Rot.Weighted>
2.5600

> <Gold.Chemscore.Internal.Correction.Weighted>
   9.000000E+99

> <Gold.Protein.RotatedTorsions>
[ 6907 6896 6895 6894 ] final  125.89 input  -60.11 | X-H torsion
[ 7974 7965 7964 7962 ] final  175.98 input  175.53 | X-H torsion
[ 8008 7997 7996 7995 ] final  -33.52 input   59.86 | X-H torsion
[ 10167 10162 10161 10158 ] final  129.88 input  -65.29 | X-H torsion
[ 10718 10713 10712 10709 ] final   68.88 input   66.30 | X-H torsion
[ 10763 10752 10751 10750 ] final  -65.91 input  -60.55 | X-H torsion
[ 11005 11000 10999 10996 ] final  117.97 input  -57.11 | X-H torsion

> <Gold.Protein.ActiveResidues>
 VAL166  LYS551  ARG553  GLY616  TRP617  ASP618  TYR619  PRO620  LYS621  CYS622 
 ASP623  PHE694  ASN695  SER759  ASP760  ASP761  ALA762  ILE779  LEU786  VAL792 
 PHE793  MET794  SER795  GLU796  ALA797  LYS798  CYS799  TRP800  GLU811  SER814 

> <Gold.Protein.RotatedAtoms>
  152.3952  133.6736  159.6269 H   0  0  0  0  0  0  0  0  0  0  0  0  # atno 6907 bound_to 6896
  150.7852  133.8887  159.3316 H   0  0  0  0  0  0  0  0  0  0  0  0  # atno 6908 bound_to 6896
  151.6665  135.0983  160.0241 H   0  0  0  0  0  0  0  0  0  0  0  0  # atno 6909 bound_to 6896
  144.7192  140.0028  143.6440 H   0  0  0  0  0  0  0  0  0  0  0  0  # atno 7974 bound_to 7965
  154.4147  140.1708  156.1901 H   0  0  0  0  0  0  0  0  0  0  0  0  # atno 8008 bound_to 7997
  155.9611  140.3393  155.6467 H   0  0  0  0  0  0  0  0  0  0  0  0  # atno 8009 bound_to 7997
  155.6748  140.0716  157.2497 H   0  0  0  0  0  0  0  0  0  0  0  0  # atno 8010 bound_to 7997
  139.5457  144.6771  151.4482 H   0  0  0  0  0  0  0  0  0  0  0  0  # atno 10167 bound_to 10162
  157.6315  130.9397  150.0438 H   0  0  0  0  0  0  0  0  0  0  0  0  # atno 10718 bound_to 10713
  154.3520  135.6134  153.5648 H   0  0  0  0  0  0  0  0  0  0  0  0  # atno 10763 bound_to 10752
  152.9798  135.5795  154.4732 H   0  0  0  0  0  0  0  0  0  0  0  0  # atno 10764 bound_to 10752
  154.4455  135.2851  155.1795 H   0  0  0  0  0  0  0  0  0  0  0  0  # atno 10765 bound_to 10752
  139.9093  134.9615  156.7431 H   0  0  0  0  0  0  0  0  0  0  0  0  # atno 11005 bound_to 11000
  146.0321  139.3344  143.0749 LP  0  0  0  0  0  0  0  0  0  0  0  0  # atno 17320 bound_to 7965
  145.8440  140.9565  143.0784 LP  0  0  0  0  0  0  0  0  0  0  0  0  # atno 17321 bound_to 7965
  140.6703  143.8307  150.6992 LP  0  0  0  0  0  0  0  0  0  0  0  0  # atno 17342 bound_to 10162
  140.1729  143.4179  152.1988 LP  0  0  0  0  0  0  0  0  0  0  0  0  # atno 17343 bound_to 10162
  156.1521  130.3642  149.9422 LP  0  0  0  0  0  0  0  0  0  0  0  0  # atno 17370 bound_to 10713
  156.7440  130.9090  151.3634 LP  0  0  0  0  0  0  0  0  0  0  0  0  # atno 17371 bound_to 10713
  140.6833  133.9455  155.7923 LP  0  0  0  0  0  0  0  0  0  0  0  0  # atno 17394 bound_to 11000
  141.0494  134.0506  157.3802 LP  0  0  0  0  0  0  0  0  0  0  0  0  # atno 17395 bound_to 11000

$$$$
