AV-unprocessed.smi:2247|AV-procd|sdf|9093|dock8
  -GOLD-   2272012293D 1   1.00000     0.00000
 Structure written by MMmdl.
 33 34  0  0  0  0  0  0  0  0  2 V2000
  152.7690  143.8576  162.3549 C   0  0  0  0  0  0  0  0  0  0  0  0
  152.5573  142.6541  161.4180 C   0  0  0  0  0  0  0  0  0  0  0  0
  153.7813  141.7244  161.4021 C   0  0  0  0  0  0  0  0  0  0  0  0
  152.2033  143.0526  160.0480 N   0  0  0  0  0  0  0  0  0  0  0  0
  152.0949  144.4440  159.6400 C   0  0  0  0  0  0  0  0  0  0  0  0
  151.9836  144.3980  158.1130 C   0  0  0  0  0  0  0  0  0  0  0  0
  151.6265  142.9504  157.7396 C   0  0  2  0  0  0  0  0  0  0  0  0
  150.2030  142.8585  157.4205 N   0  0  0  0  0  0  0  0  0  0  0  0
  149.4836  141.7299  157.3345 C   0  0  0  0  0  0  0  0  0  0  0  0
  150.0237  140.6390  157.5314 O   0  0  0  0  0  0  0  0  0  0  0  0
  148.1842  141.9368  157.0233 N   0  5  0  0  0  0  0  0  0  0  0  0
  147.7460  141.6773  155.7810 C   0  0  0  0  0  0  0  0  0  0  0  0
  146.4730  141.6396  155.3833 N   0  0  0  0  0  0  0  0  0  0  0  0
  146.5080  141.3446  154.0290 C   0  0  0  0  0  0  0  0  0  0  0  0
  147.8196  141.2229  153.6595 C   0  0  0  0  0  0  0  0  0  0  0  0
  148.6102  141.4342  154.7550 O   0  0  0  0  0  0  0  0  0  0  0  0
  151.9244  142.2108  159.0427 C   0  0  0  0  0  0  0  0  0  0  0  0
  151.9290  140.9822  159.1174 O   0  0  0  0  0  0  0  0  0  0  0  0
  152.9396  143.5238  163.3788 H   0  0  0  0  0  0  0  0  0  0  0  0
  151.8936  144.5077  162.3668 H   0  0  0  0  0  0  0  0  0  0  0  0
  153.6315  144.4564  162.0614 H   0  0  0  0  0  0  0  0  0  0  0  0
  151.7177  142.0885  161.8258 H   0  0  0  0  0  0  0  0  0  0  0  0
  154.0298  141.3866  162.4085 H   0  0  0  0  0  0  0  0  0  0  0  0
  154.6569  142.2306  160.9946 H   0  0  0  0  0  0  0  0  0  0  0  0
  153.5977  140.8367  160.7956 H   0  0  0  0  0  0  0  0  0  0  0  0
  151.1964  144.8833  160.0753 H   0  0  0  0  0  0  0  0  0  0  0  0
  152.9572  145.0293  159.9614 H   0  0  0  0  0  0  0  0  0  0  0  0
  151.2683  145.1290  157.7333 H   0  0  0  0  0  0  0  0  0  0  0  0
  152.9514  144.6487  157.6764 H   0  0  0  0  0  0  0  0  0  0  0  0
  152.2517  142.5858  156.9228 H   0  0  0  0  0  0  0  0  0  0  0  0
  149.7173  143.7279  157.2569 H   0  0  0  0  0  0  0  0  0  0  0  0
  145.6072  141.2475  153.4417 H   0  0  0  0  0  0  0  0  0  0  0  0
  148.3232  141.0071  152.7291 H   0  0  0  0  0  0  0  0  0  0  0  0
  1  2  1  0  0  0  0
  1 19  1  0  0  0  0
  1 20  1  0  0  0  0
  1 21  1  0  0  0  0
  2  3  1  0  0  0  0
  2  4  1  0  0  0  0
  2 22  1  0  0  0  0
  3 23  1  0  0  0  0
  3 24  1  0  0  0  0
  3 25  1  0  0  0  0
  4 17  1  0  0  0  0
  4  5  1  0  0  0  0
  5  6  1  0  0  0  0
  5 26  1  0  0  0  0
  5 27  1  0  0  0  0
  6  7  1  0  0  0  0
  6 28  1  0  0  0  0
  6 29  1  0  0  0  0
  7  8  1  0  0  0  0
  7 17  1  0  0  0  0
  7 30  1  0  0  0  0
  8  9  1  0  0  0  0
  8 31  1  0  0  0  0
  9 10  2  0  0  0  0
  9 11  1  0  0  0  0
 11 12  1  0  0  0  0
 12 16  1  0  0  0  0
 12 13  2  0  0  0  0
 13 14  1  0  0  0  0
 14 15  2  0  0  0  0
 14 32  1  0  0  0  0
 15 16  1  0  0  0  0
 15 33  1  0  0  0  0
 17 18  2  0  0  0  0
M  CHG  1  11  -1
M  END
> <s_m_source_file>
AV-unprocessed.smi

> <i_m_source_file_index>
2247

> <i_lp_mmshare_version>
43012

> <i_f3d_flags>
0

> <s_epik_input>
W0NIM11bQ0hdKFtDSDNdKU4xW0NIMl1bQ0gyXVtDQEhdKEMxPU8pW05IXUMoPU8pW05IXWMybltjSF1bY0hdbzI=

> <s_epik_cmdline>
J2VwaWtfcHl0aG9uJywgJy1waCcsICc3LjAnLCAnLXRuJywgJzgnLCAnLW1hJywgJzIwMCcsICctbWV0YWxfYmluZGluZycsICctaW1hZScsICc8aW5maWxlLm1hZT4nLCAnLW9tYWUnLCAnPG91dGZpbGUubWFlPic=

> <r_lp_tautomer_probability>
0.785861

> <r_epik_Ionization_Penalty>
8.37364

> <r_epik_Ionization_Penalty_Charging>
6.20178

> <r_epik_Ionization_Penalty_Neutral>
2.17186

> <r_epik_State_Penalty>
6.22234

> <r_epik_Charging_Adjusted_Penalty>
12.4241

> <i_epik_Tot_Q>
-1

> <i_epik_Tot_abs_Q>
1

> <r_epik_Metal_State_Penalty>
2.14252

> <b_epik_Metal_Only>
1

> <s_lp_Force_Field>
OPLS_2005

> <r_lp_Energy>
16.3016

> <b_lp_Chiralities_Consistent>
1

> <s_lp_Variant>
AV-unprocessed.smi:2247-8

> <Gold.Version>
5.8.1

> <Gold.Id.Protein>
6NUR|6NUR_protein|mol2

> <Gold.PLP.Fitness>
44.5626

> <Gold.PLP.PLP>
-37.9185

> <Gold.PLP.part.hbond>
-1.0000

> <Gold.PLP.part.metal>
0.0000

> <Gold.PLP.part.buried>
-5.8117

> <Gold.PLP.part.nonpolar>
-31.9806

> <Gold.PLP.part.repulsive>
0.4352

> <Gold.PLP.ligand.clash>
0.0000

> <Gold.PLP.ligand.torsion>
0.8692

> <Gold.PLP.Chemscore.Hbond>
0.7680

> <Gold.PLP.Chemscore.CHOScore>
2.0000

> <Gold.PLP.Chemscore.Metal>
0.0000

> <Gold.Chemscore.Hbonds>
donor molecule, donor type, donor heavy atom, donor atom, acceptor molecule, acceptor atom, score
      L1  H     8    31       P1  8028  0.75
      L1  C    14    32       P1 10175  1.00
      L1  C    15    33       P1  7957  1.00

> <Gold.PLP.Chemscore.Internal.Correction>
0.0786

> <Gold.Rescore>
     Score         DG    S(hbond)    S(metal)    S(lipo)     H(rot)  DE(clash)    DE(int)     intcor
     11.21     -15.15       0.86        0.00      87.08       1.32       0.09       3.85       ----

> <Gold.Chemscore.Fitness>
11.2082

> <Gold.Chemscore.DG>
-15.1463

> <Gold.Chemscore.ZeroCoef>
-5.4800

> <Gold.Chemscore.Hbond>
0.8571

> <Gold.Chemscore.Metal>
0.0000

> <Gold.Chemscore.Lipo>
87.0756

> <Gold.Chemscore.Internal_Hbond>
0.0000

> <Gold.Chemscore.DEClash>
0.0903

> <Gold.Chemscore.DEInternal>
3.8478

> <Gold.Chemscore.Rot>
1.3219

> <Gold.Chemscore.Internal.Correction>
   9.000000E+99

> <Gold.Chemscore.Hbonds>
donor molecule, donor type, donor heavy atom, donor atom, acceptor molecule, acceptor atom, score
      L1  H     8    31       P1  8028  0.58

> <Gold.Chemscore.Hbond.Weighted>
-2.8627

> <Gold.Chemscore.Metal.Weighted>
-0.0000

> <Gold.Chemscore.Lipo.Weighted>
-10.1878

> <Gold.Chemscore.Internal_Hbond.Weighted>
0.0000

> <Gold.Chemscore.DEClash.Weighted>
0.0903

> <Gold.Chemscore.DEInternal.Weighted>
3.8478

> <Gold.Chemscore.Rot.Weighted>
3.3842

> <Gold.Chemscore.Internal.Correction.Weighted>
   9.000000E+99

> <Gold.Protein.RotatedTorsions>
[ 6907 6896 6895 6894 ] final -136.24 input  -60.11 | X-H torsion
[ 7974 7965 7964 7962 ] final  112.83 input  175.53 | X-H torsion
[ 8008 7997 7996 7995 ] final   -2.52 input   59.86 | X-H torsion
[ 10167 10162 10161 10158 ] final -133.12 input  -65.29 | X-H torsion
[ 10718 10713 10712 10709 ] final   37.15 input   66.30 | X-H torsion
[ 10763 10752 10751 10750 ] final  -35.67 input  -60.55 | X-H torsion
[ 11005 11000 10999 10996 ] final  -21.17 input  -57.11 | X-H torsion

> <Gold.Protein.ActiveResidues>
 VAL166  LYS551  ARG553  GLY616  TRP617  ASP618  TYR619  PRO620  LYS621  CYS622 
 ASP623  PHE694  ASN695  SER759  ASP760  ASP761  ALA762  ILE779  LEU786  VAL792 
 PHE793  MET794  SER795  GLU796  ALA797  LYS798  CYS799  TRP800  GLU811  SER814 

> <Gold.Protein.RotatedAtoms>
  151.0076  133.5995  159.2686 H   0  0  0  0  0  0  0  0  0  0  0  0  # atno 6907 bound_to 6896
  151.3159  135.0805  159.9298 H   0  0  0  0  0  0  0  0  0  0  0  0  # atno 6908 bound_to 6896
  152.5291  133.9733  159.7826 H   0  0  0  0  0  0  0  0  0  0  0  0  # atno 6909 bound_to 6896
  145.2246  139.2847  143.4200 H   0  0  0  0  0  0  0  0  0  0  0  0  # atno 7974 bound_to 7965
  154.6349  140.2532  155.7390 H   0  0  0  0  0  0  0  0  0  0  0  0  # atno 8008 bound_to 7997
  156.2499  140.2899  156.0637 H   0  0  0  0  0  0  0  0  0  0  0  0  # atno 8009 bound_to 7997
  155.1687  140.0386  157.2848 H   0  0  0  0  0  0  0  0  0  0  0  0  # atno 8010 bound_to 7997
  139.9015  143.6602  152.2594 H   0  0  0  0  0  0  0  0  0  0  0  0  # atno 10167 bound_to 10162
  157.3435  130.7560  149.6928 H   0  0  0  0  0  0  0  0  0  0  0  0  # atno 10718 bound_to 10713
  153.8670  135.6834  153.4777 H   0  0  0  0  0  0  0  0  0  0  0  0  # atno 10763 bound_to 10752
  153.1309  135.4698  154.9345 H   0  0  0  0  0  0  0  0  0  0  0  0  # atno 10764 bound_to 10752
  154.7732  135.3245  154.8096 H   0  0  0  0  0  0  0  0  0  0  0  0  # atno 10765 bound_to 10752
  140.8535  133.7839  155.9993 H   0  0  0  0  0  0  0  0  0  0  0  0  # atno 11005 bound_to 11000
  146.3368  140.2562  142.8600 LP  0  0  0  0  0  0  0  0  0  0  0  0  # atno 17320 bound_to 7965
  144.9734  140.8390  143.5441 LP  0  0  0  0  0  0  0  0  0  0  0  0  # atno 17321 bound_to 7965
  139.7021  144.7633  151.1256 LP  0  0  0  0  0  0  0  0  0  0  0  0  # atno 17342 bound_to 10162
  140.7706  143.5444  150.9276 LP  0  0  0  0  0  0  0  0  0  0  0  0  # atno 17343 bound_to 10162
  155.9711  130.4161  150.4214 LP  0  0  0  0  0  0  0  0  0  0  0  0  # atno 17370 bound_to 10713
  157.2265  131.0494  151.2517 LP  0  0  0  0  0  0  0  0  0  0  0  0  # atno 17371 bound_to 10713
  140.8763  134.2665  157.5166 LP  0  0  0  0  0  0  0  0  0  0  0  0  # atno 17394 bound_to 11000
  139.8704  134.9593  156.4327 LP  0  0  0  0  0  0  0  0  0  0  0  0  # atno 17395 bound_to 11000

$$$$
