AV-unprocessed.smi:2321|AV-procd|sdf|9283|dock6
  -GOLD-   2272012503D 1   1.00000     0.00000
 Structure written by MMmdl.
 36 37  0  0  0  0  0  0  0  0  1 V2000
  145.0613  137.0930  153.6922 O   0  0  0  0  0  0  0  0  0  0  0  0
  146.1753  136.8241  153.2485 C   0  0  0  0  0  0  0  0  0  0  0  0
  146.4766  135.7143  152.5463 N   0  0  0  0  0  0  0  0  0  0  0  0
  145.6314  134.6376  152.1649 C   0  0  0  0  0  0  0  0  0  0  0  0
  144.2462  134.7671  151.9010 C   0  0  0  0  0  0  0  0  0  0  0  0
  143.5168  133.6141  151.5474 C   0  0  0  0  0  0  0  0  0  0  0  0
  144.0667  132.3847  151.4541 N   0  0  0  0  0  0  0  0  0  0  0  0
  145.3844  132.2630  151.7206 C   0  0  0  0  0  0  0  0  0  0  0  0
  146.2043  133.3507  152.0821 C   0  0  0  0  0  0  0  0  0  0  0  0
  147.5208  133.1593  152.3408 F   0  0  0  0  0  0  0  0  0  0  0  0
  147.2111  137.6669  153.4179 N   0  0  0  0  0  0  0  0  0  0  0  0
  147.2359  138.9508  154.1228 C   0  0  2  0  0  0  0  0  0  0  0  0
  147.1301  140.0964  153.1005 C   0  0  0  0  0  0  0  0  0  0  0  0
  147.2042  141.4671  153.7895 C   0  0  0  0  0  0  0  0  0  0  0  0
  148.4843  141.5998  154.6292 C   0  0  0  0  0  0  0  0  0  0  0  0
  148.6042  140.4639  155.6669 C   0  0  2  0  0  0  0  0  0  0  0  0
  149.8775  140.5986  156.5274 C   0  0  0  0  0  0  0  0  0  0  0  0
  149.8928  139.6855  157.4990 F   0  0  0  0  0  0  0  0  0  0  0  0
  150.9610  140.4375  155.7677 F   0  0  0  0  0  0  0  0  0  0  0  0
  149.9317  141.8127  157.0756 F   0  0  0  0  0  0  0  0  0  0  0  0
  148.5231  139.0919  154.9636 C   0  0  0  0  0  0  0  0  0  0  0  0
  147.4169  135.6690  152.1814 H   0  0  0  0  0  0  0  0  0  0  0  0
  143.7305  135.7120  151.9736 H   0  0  0  0  0  0  0  0  0  0  0  0
  142.4591  133.6811  151.3397 H   0  0  0  0  0  0  0  0  0  0  0  0
  145.7979  131.2680  151.6454 H   0  0  0  0  0  0  0  0  0  0  0  0
  148.0832  137.3902  152.9904 H   0  0  0  0  0  0  0  0  0  0  0  0
  146.3689  139.0185  154.7826 H   0  0  0  0  0  0  0  0  0  0  0  0
  147.9345  140.0164  152.3676 H   0  0  0  0  0  0  0  0  0  0  0  0
  146.1956  140.0170  152.5438 H   0  0  0  0  0  0  0  0  0  0  0  0
  147.1668  142.2599  153.0419 H   0  0  0  0  0  0  0  0  0  0  0  0
  146.3310  141.6040  154.4283 H   0  0  0  0  0  0  0  0  0  0  0  0
  149.3525  141.5911  153.9692 H   0  0  0  0  0  0  0  0  0  0  0  0
  148.4881  142.5683  155.1302 H   0  0  0  0  0  0  0  0  0  0  0  0
  147.7489  140.5403  156.3403 H   0  0  0  0  0  0  0  0  0  0  0  0
  148.5682  138.2973  155.7088 H   0  0  0  0  0  0  0  0  0  0  0  0
  149.3951  138.9578  154.3220 H   0  0  0  0  0  0  0  0  0  0  0  0
  1  2  2  0  0  0  0
  2  3  1  0  0  0  0
  2 11  1  0  0  0  0
  3  4  1  0  0  0  0
  3 22  1  0  0  0  0
  4  9  1  0  0  0  0
  4  5  2  0  0  0  0
  5  6  1  0  0  0  0
  5 23  1  0  0  0  0
  6  7  2  0  0  0  0
  6 24  1  0  0  0  0
  7  8  1  0  0  0  0
  8  9  2  0  0  0  0
  8 25  1  0  0  0  0
  9 10  1  0  0  0  0
 11 12  1  0  0  0  0
 11 26  1  0  0  0  0
 12 21  1  0  0  0  0
 12 13  1  0  0  0  0
 12 27  1  0  0  0  0
 13 14  1  0  0  0  0
 13 28  1  0  0  0  0
 13 29  1  0  0  0  0
 14 15  1  0  0  0  0
 14 30  1  0  0  0  0
 14 31  1  0  0  0  0
 15 16  1  0  0  0  0
 15 32  1  0  0  0  0
 15 33  1  0  0  0  0
 16 17  1  0  0  0  0
 16 21  1  0  0  0  0
 16 34  1  0  0  0  0
 17 18  1  0  0  0  0
 17 19  1  0  0  0  0
 17 20  1  0  0  0  0
 21 35  1  0  0  0  0
 21 36  1  0  0  0  0
M  END
> <s_m_source_file>
AV-unprocessed.smi

> <i_m_source_file_index>
2321

> <i_lp_mmshare_version>
43012

> <i_f3d_flags>
0

> <s_epik_input>
RkMoRikoRilbQ0BASF0oW0NIMl0xKVtDSDJdW0NIMl1bQ0gyXVtDQEhdMVtOSF1DKD1PKVtOSF1jMltjSF1bY0hdbltjSF1jMkY=

> <s_epik_cmdline>
J2VwaWtfcHl0aG9uJywgJy1waCcsICc3LjAnLCAnLXRuJywgJzgnLCAnLW1hJywgJzIwMCcsICctbWV0YWxfYmluZGluZycsICctaW1hZScsICc8aW5maWxlLm1hZT4nLCAnLW9tYWUnLCAnPG91dGZpbGUubWFlPic=

> <r_epik_Ionization_Penalty>
0.00319438

> <r_epik_Ionization_Penalty_Charging>
0

> <r_epik_Ionization_Penalty_Neutral>
0.00319438

> <r_epik_State_Penalty>
0.00222511

> <r_epik_Charging_Adjusted_Penalty>
0.00222511

> <i_epik_Tot_Q>
0

> <i_epik_Tot_abs_Q>
0

> <r_epik_Metal_State_Penalty>
-0

> <b_epik_Metal_Only>
0

> <s_lp_Force_Field>
OPLS_2005

> <r_lp_Energy>
26.7556

> <b_lp_Chiralities_Consistent>
1

> <s_lp_Variant>
AV-unprocessed.smi:2321-3

> <Gold.Version>
5.8.1

> <Gold.Id.Protein>
6NUR|6NUR_protein|mol2

> <Gold.PLP.Fitness>
39.6873

> <Gold.PLP.PLP>
-31.7548

> <Gold.PLP.part.hbond>
-2.0000

> <Gold.PLP.part.metal>
0.0000

> <Gold.PLP.part.buried>
-3.3789

> <Gold.PLP.part.nonpolar>
-27.3016

> <Gold.PLP.part.repulsive>
0.3402

> <Gold.PLP.ligand.clash>
0.0000

> <Gold.PLP.ligand.torsion>
0.5066

> <Gold.PLP.Chemscore.Hbond>
1.9760

> <Gold.PLP.Chemscore.CHOScore>
1.0000

> <Gold.PLP.Chemscore.Metal>
0.0000

> <Gold.Chemscore.Hbonds>
donor molecule, donor type, donor heavy atom, donor atom, acceptor molecule, acceptor atom, score
      L1  H     3    22       P1  7948  1.00
      L1  H    11    26       P1  7948  0.96
      L1  C     6    24       P1 10186  1.00

> <Gold.PLP.Chemscore.Internal.Correction>
0.0177

> <Gold.Rescore>
     Score         DG    S(hbond)    S(metal)    S(lipo)     H(rot)  DE(clash)    DE(int)     intcor
     16.23     -16.74       1.91        0.00      63.65       1.00       0.07       0.44       ----

> <Gold.Chemscore.Fitness>
16.2264

> <Gold.Chemscore.DG>
-16.7364

> <Gold.Chemscore.ZeroCoef>
-5.4800

> <Gold.Chemscore.Hbond>
1.9069

> <Gold.Chemscore.Metal>
0.0000

> <Gold.Chemscore.Lipo>
63.6524

> <Gold.Chemscore.Internal_Hbond>
0.0000

> <Gold.Chemscore.DEClash>
0.0710

> <Gold.Chemscore.DEInternal>
0.4390

> <Gold.Chemscore.Rot>
1.0000

> <Gold.Chemscore.Internal.Correction>
   9.000000E+99

> <Gold.Chemscore.Hbonds>
donor molecule, donor type, donor heavy atom, donor atom, acceptor molecule, acceptor atom, score
      L1  H     3    22       P1  7948  0.99
      L1  H    11    26       P1  7948  0.92

> <Gold.Chemscore.Hbond.Weighted>
-6.3691

> <Gold.Chemscore.Metal.Weighted>
-0.0000

> <Gold.Chemscore.Lipo.Weighted>
-7.4473

> <Gold.Chemscore.Internal_Hbond.Weighted>
0.0000

> <Gold.Chemscore.DEClash.Weighted>
0.0710

> <Gold.Chemscore.DEInternal.Weighted>
0.4390

> <Gold.Chemscore.Rot.Weighted>
2.5600

> <Gold.Chemscore.Internal.Correction.Weighted>
   9.000000E+99

> <Gold.Protein.RotatedTorsions>
[ 6907 6896 6895 6894 ] final  150.26 input  -60.11 | X-H torsion
[ 7974 7965 7964 7962 ] final  -99.68 input  175.53 | X-H torsion
[ 8008 7997 7996 7995 ] final   74.25 input   59.86 | X-H torsion
[ 10167 10162 10161 10158 ] final   37.47 input  -65.29 | X-H torsion
[ 10718 10713 10712 10709 ] final  -29.63 input   66.30 | X-H torsion
[ 10763 10752 10751 10750 ] final  -87.58 input  -60.55 | X-H torsion
[ 11005 11000 10999 10996 ] final    8.91 input  -57.11 | X-H torsion

> <Gold.Protein.ActiveResidues>
 VAL166  LYS551  ARG553  GLY616  TRP617  ASP618  TYR619  PRO620  LYS621  CYS622 
 ASP623  PHE694  ASN695  SER759  ASP760  ASP761  ALA762  ILE779  LEU786  VAL792 
 PHE793  MET794  SER795  GLU796  ALA797  LYS798  CYS799  TRP800  GLU811  SER814 

> <Gold.Protein.RotatedAtoms>
  152.1168  133.4331  159.4656 H   0  0  0  0  0  0  0  0  0  0  0  0  # atno 6907 bound_to 6896
  150.6870  134.2582  159.4548 H   0  0  0  0  0  0  0  0  0  0  0  0  # atno 6908 bound_to 6896
  152.0456  134.9685  160.0625 H   0  0  0  0  0  0  0  0  0  0  0  0  # atno 6909 bound_to 6896
  145.3043  140.9385  143.2805 H   0  0  0  0  0  0  0  0  0  0  0  0  # atno 7974 bound_to 7965
  155.7956  140.3478  155.5374 H   0  0  0  0  0  0  0  0  0  0  0  0  # atno 8008 bound_to 7997
  155.8590  140.0968  157.1646 H   0  0  0  0  0  0  0  0  0  0  0  0  # atno 8009 bound_to 7997
  154.4011  140.1362  156.3924 H   0  0  0  0  0  0  0  0  0  0  0  0  # atno 8010 bound_to 7997
  140.4029  144.1698  150.6134 H   0  0  0  0  0  0  0  0  0  0  0  0  # atno 10167 bound_to 10162
  156.4100  130.4406  149.7259 H   0  0  0  0  0  0  0  0  0  0  0  0  # atno 10718 bound_to 10713
  154.6351  135.5408  153.7725 H   0  0  0  0  0  0  0  0  0  0  0  0  # atno 10763 bound_to 10752
  153.0304  135.6445  154.1243 H   0  0  0  0  0  0  0  0  0  0  0  0  # atno 10764 bound_to 10752
  154.1170  135.2923  155.3197 H   0  0  0  0  0  0  0  0  0  0  0  0  # atno 10765 bound_to 10752
  140.5317  134.0460  155.7875 H   0  0  0  0  0  0  0  0  0  0  0  0  # atno 11005 bound_to 11000
  144.9067  139.4580  143.6606 LP  0  0  0  0  0  0  0  0  0  0  0  0  # atno 17320 bound_to 7965
  146.3141  139.7852  142.8997 LP  0  0  0  0  0  0  0  0  0  0  0  0  # atno 17321 bound_to 7965
  140.4720  143.2409  151.9076 LP  0  0  0  0  0  0  0  0  0  0  0  0  # atno 17342 bound_to 10162
  139.4784  144.5360  151.8598 LP  0  0  0  0  0  0  0  0  0  0  0  0  # atno 17343 bound_to 10162
  156.4241  130.7783  151.2801 LP  0  0  0  0  0  0  0  0  0  0  0  0  # atno 17370 bound_to 10713
  157.7506  131.0174  150.3583 LP  0  0  0  0  0  0  0  0  0  0  0  0  # atno 17371 bound_to 10713
  141.1278  133.9354  157.2600 LP  0  0  0  0  0  0  0  0  0  0  0  0  # atno 17394 bound_to 11000
  139.9551  135.0167  156.9104 LP  0  0  0  0  0  0  0  0  0  0  0  0  # atno 17395 bound_to 11000

$$$$
