AV-unprocessed.smi:2254|AV-procd|sdf|9124|dock5
  -GOLD-   2272012333D 1   1.00000     0.00000
 Structure written by MMmdl.
 41 42  0  0  0  0  0  0  0  0  1 V2000
  152.0126  144.1875  160.6689 C   0  0  0  0  0  0  0  0  0  0  0  0
  151.9323  143.1760  159.5392 C   0  0  0  0  0  0  0  0  0  0  0  0
  151.0616  143.5037  158.4958 N   0  0  0  0  0  0  0  0  0  0  0  0
  150.9235  142.6980  157.4943 C   0  0  0  0  0  0  0  0  0  0  0  0
  151.6293  141.4852  157.4193 N   0  0  0  0  0  0  0  0  0  0  0  0
  151.3801  140.6541  156.2294 C   0  0  0  0  0  0  0  0  0  0  0  0
  150.1963  141.1809  155.3866 C   0  0  1  0  0  0  0  0  0  0  0  0
  150.1512  140.5347  154.1305 O   0  0  0  0  0  0  0  0  0  0  0  0
  148.8329  140.9627  156.0652 C   0  0  0  0  0  0  0  0  0  0  0  0
  147.8253  141.6749  155.3645 O   0  0  0  0  0  0  0  0  0  0  0  0
  146.5354  141.5190  155.9314 C   0  0  0  0  0  0  0  0  0  0  0  0
  145.6069  142.6473  155.5265 C   0  0  0  0  0  0  0  0  0  0  0  0
  145.6252  143.1435  154.2057 C   0  0  0  0  0  0  0  0  0  0  0  0
  144.7700  144.1993  153.8341 C   0  0  0  0  0  0  0  0  0  0  0  0
  143.8979  144.7678  154.7830 C   0  0  0  0  0  0  0  0  0  0  0  0
  142.8502  146.0607  154.3271 Cl  0  0  0  0  0  0  0  0  0  0  0  0
  143.8837  144.2817  156.1050 C   0  0  0  0  0  0  0  0  0  0  0  0
  144.7386  143.2258  156.4768 C   0  0  0  0  0  0  0  0  0  0  0  0
  152.5110  141.0974  158.3852 C   0  0  0  0  0  0  0  0  0  0  0  0
  153.1428  140.0428  158.2997 O   0  0  0  0  0  0  0  0  0  0  0  0
  152.6516  142.0207  159.5230 C   0  0  0  0  0  0  0  0  0  0  0  0
  153.6138  141.6107  160.6310 C   0  0  0  0  0  0  0  0  0  0  0  0
  153.0339  144.5517  160.7844 H   0  0  0  0  0  0  0  0  0  0  0  0
  151.6941  143.7360  161.6088 H   0  0  0  0  0  0  0  0  0  0  0  0
  151.3713  145.0488  160.4775 H   0  0  0  0  0  0  0  0  0  0  0  0
  150.2616  142.9093  156.6525 H   0  0  0  0  0  0  0  0  0  0  0  0
  152.2767  140.5541  155.6142 H   0  0  0  0  0  0  0  0  0  0  0  0
  151.1645  139.6322  156.5491 H   0  0  0  0  0  0  0  0  0  0  0  0
  150.3119  142.2496  155.2009 H   0  0  0  0  0  0  0  0  0  0  0  0
  149.3591  140.7953  153.6852 H   0  0  0  0  0  0  0  0  0  0  0  0
  148.5897  139.8992  156.0432 H   0  0  0  0  0  0  0  0  0  0  0  0
  148.8667  141.2617  157.1144 H   0  0  0  0  0  0  0  0  0  0  0  0
  146.0937  140.5769  155.6031 H   0  0  0  0  0  0  0  0  0  0  0  0
  146.6160  141.4810  157.0190 H   0  0  0  0  0  0  0  0  0  0  0  0
  146.2921  142.7147  153.4723 H   0  0  0  0  0  0  0  0  0  0  0  0
  144.7846  144.5723  152.8205 H   0  0  0  0  0  0  0  0  0  0  0  0
  143.2185  144.7183  156.8355 H   0  0  0  0  0  0  0  0  0  0  0  0
  144.7244  142.8601  157.4932 H   0  0  0  0  0  0  0  0  0  0  0  0
  153.3139  140.6512  161.0537 H   0  0  0  0  0  0  0  0  0  0  0  0
  153.6586  142.3280  161.4488 H   0  0  0  0  0  0  0  0  0  0  0  0
  154.6229  141.5038  160.2317 H   0  0  0  0  0  0  0  0  0  0  0  0
  1  2  1  0  0  0  0
  1 23  1  0  0  0  0
  1 24  1  0  0  0  0
  1 25  1  0  0  0  0
  2 21  2  0  0  0  0
  2  3  1  0  0  0  0
  3  4  2  0  0  0  0
  4  5  1  0  0  0  0
  4 26  1  0  0  0  0
  5  6  1  0  0  0  0
  5 19  1  0  0  0  0
  6  7  1  0  0  0  0
  6 27  1  0  0  0  0
  6 28  1  0  0  0  0
  7  8  1  0  0  0  0
  7  9  1  0  0  0  0
  7 29  1  0  0  0  0
  8 30  1  0  0  0  0
  9 10  1  0  0  0  0
  9 31  1  0  0  0  0
  9 32  1  0  0  0  0
 10 11  1  0  0  0  0
 11 12  1  0  0  0  0
 11 33  1  0  0  0  0
 11 34  1  0  0  0  0
 12 18  1  0  0  0  0
 12 13  2  0  0  0  0
 13 14  1  0  0  0  0
 13 35  1  0  0  0  0
 14 15  2  0  0  0  0
 14 36  1  0  0  0  0
 15 16  1  0  0  0  0
 15 17  1  0  0  0  0
 17 18  2  0  0  0  0
 17 37  1  0  0  0  0
 18 38  1  0  0  0  0
 19 20  2  0  0  0  0
 19 21  1  0  0  0  0
 21 22  1  0  0  0  0
 22 39  1  0  0  0  0
 22 40  1  0  0  0  0
 22 41  1  0  0  0  0
M  END
> <s_m_source_file>
AV-unprocessed.smi

> <i_m_source_file_index>
2254

> <i_lp_mmshare_version>
43012

> <i_f3d_flags>
0

> <s_epik_input>
W0NIM11jMW5bY0hdbihjKD1PKWMxW0NIM10pW0NIMl1bQ0BIXShbT0hdKVtDSDJdT1tDSDJdYzJbY0hdW2NIXWMoQ2wpW2NIXVtjSF0y

> <s_epik_cmdline>
J2VwaWtfcHl0aG9uJywgJy1waCcsICc3LjAnLCAnLXRuJywgJzgnLCAnLW1hJywgJzIwMCcsICctbWV0YWxfYmluZGluZycsICctaW1hZScsICc8aW5maWxlLm1hZT4nLCAnLW9tYWUnLCAnPG91dGZpbGUubWFlPic=

> <r_lp_tautomer_probability>
1

> <r_epik_Ionization_Penalty>
5.36e-05

> <r_epik_Ionization_Penalty_Charging>
1.17753e-07

> <r_epik_Ionization_Penalty_Neutral>
5.34822e-05

> <r_epik_State_Penalty>
-0

> <r_epik_Charging_Adjusted_Penalty>
1.17753e-07

> <i_epik_Tot_Q>
0

> <i_epik_Tot_abs_Q>
0

> <r_epik_Metal_State_Penalty>
-0

> <b_epik_Metal_Only>
0

> <s_lp_Force_Field>
OPLS_2005

> <r_lp_Energy>
22.8907

> <b_lp_Chiralities_Consistent>
1

> <s_lp_Variant>
AV-unprocessed.smi:2254-2

> <Gold.Version>
5.8.1

> <Gold.Id.Protein>
6NUR|6NUR_protein|mol2

> <Gold.PLP.Fitness>
52.2189

> <Gold.PLP.PLP>
-46.6887

> <Gold.PLP.part.hbond>
-2.9541

> <Gold.PLP.part.metal>
0.0000

> <Gold.PLP.part.buried>
-5.7838

> <Gold.PLP.part.nonpolar>
-37.3480

> <Gold.PLP.part.repulsive>
0.2645

> <Gold.PLP.ligand.clash>
1.9179

> <Gold.PLP.ligand.torsion>
0.5564

> <Gold.PLP.Chemscore.Hbond>
1.8160

> <Gold.PLP.Chemscore.CHOScore>
1.0000

> <Gold.PLP.Chemscore.Metal>
0.0000

> <Gold.Chemscore.Hbonds>
donor molecule, donor type, donor heavy atom, donor atom, acceptor molecule, acceptor atom, score
      P1  H  7989  7998       L1     8  0.78
      P1  H  7997  8009       L1    20  1.00
      L1  C     4    26       P1  8028  1.00

> <Gold.PLP.Chemscore.Internal.Correction>
0.1130

> <Gold.Rescore>
     Score         DG    S(hbond)    S(metal)    S(lipo)     H(rot)  DE(clash)    DE(int)     intcor
     14.64     -15.48       1.41        0.00     100.32       2.52       0.35       0.49       ----

> <Gold.Chemscore.Fitness>
14.6390

> <Gold.Chemscore.DG>
-15.4776

> <Gold.Chemscore.ZeroCoef>
-5.4800

> <Gold.Chemscore.Hbond>
1.4078

> <Gold.Chemscore.Metal>
0.0000

> <Gold.Chemscore.Lipo>
100.3163

> <Gold.Chemscore.Internal_Hbond>
0.0000

> <Gold.Chemscore.DEClash>
0.3459

> <Gold.Chemscore.DEInternal>
0.4928

> <Gold.Chemscore.Rot>
2.5162

> <Gold.Chemscore.Internal.Correction>
   9.000000E+99

> <Gold.Chemscore.Hbonds>
donor molecule, donor type, donor heavy atom, donor atom, acceptor molecule, acceptor atom, score
      P1  H  7989  7998       L1     8  0.30
      P1  H  7997  8009       L1    20  0.87

> <Gold.Chemscore.Hbond.Weighted>
-4.7020

> <Gold.Chemscore.Metal.Weighted>
-0.0000

> <Gold.Chemscore.Lipo.Weighted>
-11.7370

> <Gold.Chemscore.Internal_Hbond.Weighted>
0.0000

> <Gold.Chemscore.DEClash.Weighted>
0.3459

> <Gold.Chemscore.DEInternal.Weighted>
0.4928

> <Gold.Chemscore.Rot.Weighted>
6.4414

> <Gold.Chemscore.Internal.Correction.Weighted>
   9.000000E+99

> <Gold.Protein.RotatedTorsions>
[ 6907 6896 6895 6894 ] final  -91.42 input  -60.11 | X-H torsion
[ 7974 7965 7964 7962 ] final -147.71 input  175.53 | X-H torsion
[ 8008 7997 7996 7995 ] final  155.78 input   59.86 | X-H torsion
[ 10167 10162 10161 10158 ] final  115.34 input  -65.29 | X-H torsion
[ 10718 10713 10712 10709 ] final  151.85 input   66.30 | X-H torsion
[ 10763 10752 10751 10750 ] final    0.99 input  -60.55 | X-H torsion
[ 11005 11000 10999 10996 ] final   86.40 input  -57.11 | X-H torsion

> <Gold.Protein.ActiveResidues>
 VAL166  LYS551  ARG553  GLY616  TRP617  ASP618  TYR619  PRO620  LYS621  CYS622 
 ASP623  PHE694  ASN695  SER759  ASP760  ASP761  ALA762  ILE779  LEU786  VAL792 
 PHE793  MET794  SER795  GLU796  ALA797  LYS798  CYS799  TRP800  GLU811  SER814 

> <Gold.Protein.RotatedAtoms>
  150.6892  134.2280  159.4422 H   0  0  0  0  0  0  0  0  0  0  0  0  # atno 6907 bound_to 6896
  152.0232  134.9808  160.0580 H   0  0  0  0  0  0  0  0  0  0  0  0  # atno 6908 bound_to 6896
  152.1377  133.4410  159.4788 H   0  0  0  0  0  0  0  0  0  0  0  0  # atno 6909 bound_to 6896
  144.8076  140.5292  143.5664 H   0  0  0  0  0  0  0  0  0  0  0  0  # atno 7974 bound_to 7965
  156.2459  140.1930  156.6854 H   0  0  0  0  0  0  0  0  0  0  0  0  # atno 8008 bound_to 7997
  154.6291  140.0598  156.9736 H   0  0  0  0  0  0  0  0  0  0  0  0  # atno 8009 bound_to 7997
  155.1740  140.3270  155.4390 H   0  0  0  0  0  0  0  0  0  0  0  0  # atno 8010 bound_to 7997
  139.6324  144.7116  151.2405 H   0  0  0  0  0  0  0  0  0  0  0  0  # atno 10167 bound_to 10162
  157.2654  131.0806  151.1637 H   0  0  0  0  0  0  0  0  0  0  0  0  # atno 10718 bound_to 10713
  153.3136  135.6964  153.7093 H   0  0  0  0  0  0  0  0  0  0  0  0  # atno 10763 bound_to 10752
  153.5961  135.3471  155.2929 H   0  0  0  0  0  0  0  0  0  0  0  0  # atno 10764 bound_to 10752
  154.8581  135.4329  154.2281 H   0  0  0  0  0  0  0  0  0  0  0  0  # atno 10765 bound_to 10752
  139.8945  134.8352  156.2715 H   0  0  0  0  0  0  0  0  0  0  0  0  # atno 11005 bound_to 11000
  145.5401  139.1475  143.3452 LP  0  0  0  0  0  0  0  0  0  0  0  0  # atno 17320 bound_to 7965
  146.2370  140.5540  142.8950 LP  0  0  0  0  0  0  0  0  0  0  0  0  # atno 17321 bound_to 7965
  140.7446  143.6457  150.8294 LP  0  0  0  0  0  0  0  0  0  0  0  0  # atno 17342 bound_to 10162
  140.0083  143.5669  152.2849 LP  0  0  0  0  0  0  0  0  0  0  0  0  # atno 17343 bound_to 10162
  157.3130  130.6899  149.6226 LP  0  0  0  0  0  0  0  0  0  0  0  0  # atno 17370 bound_to 10713
  155.9663  130.4358  150.5106 LP  0  0  0  0  0  0  0  0  0  0  0  0  # atno 17371 bound_to 10713
  141.0097  133.7102  156.1092 LP  0  0  0  0  0  0  0  0  0  0  0  0  # atno 17394 bound_to 11000
  140.7384  134.4178  157.5558 LP  0  0  0  0  0  0  0  0  0  0  0  0  # atno 17395 bound_to 11000

$$$$
