AV-unprocessed.smi:1959|AV-procd|sdf|7913|dock7
  -GOLD-   2272010 83D 1   1.00000     0.00000
 Structure written by MMmdl.
 44 45  0  0  0  0  0  0  0  0  1 V2000
  153.8568  141.4810  161.4241 C   0  0  0  0  0  0  0  0  0  0  0  0
  153.0222  142.5166  160.7299 C   0  0  0  0  0  0  0  0  0  0  0  0
  152.3996  143.6675  161.2892 C   0  0  0  0  0  0  0  0  0  0  0  0
  151.7711  144.2591  160.2299 C   0  0  0  0  0  0  0  0  0  0  0  0
  150.9456  145.5021  160.1707 C   0  0  0  0  0  0  0  0  0  0  0  0
  152.0284  143.4735  159.1202 N   0  0  0  0  0  0  0  0  0  0  0  0
  151.5936  143.6586  157.7424 C   0  0  0  0  0  0  0  0  0  0  0  0
  151.0676  142.3701  157.0976 C   0  0  0  0  0  0  0  0  0  0  0  0
  151.7926  141.3845  156.9514 O   0  0  0  0  0  0  0  0  0  0  0  0
  149.7827  142.3991  156.7126 N   0  0  0  0  0  0  0  0  0  0  0  0
  149.0592  141.3026  156.0726 C   0  0  1  0  0  0  0  0  0  0  0  0
  149.1446  141.4229  154.5431 C   0  0  0  0  0  0  0  0  0  0  0  0
  149.4910  139.9150  156.6088 C   0  0  0  0  0  0  0  0  0  0  0  0
  150.7005  139.3239  156.0275 N   0  0  0  0  0  0  0  0  0  0  0  0
  150.3979  138.6793  154.7533 C   0  0  0  0  0  0  0  0  0  0  0  0
  151.6470  138.0540  154.1098 C   0  0  0  0  0  0  0  0  0  0  0  0
  152.2291  137.1209  155.0130 O   0  0  0  0  0  0  0  0  0  0  0  0
  152.5852  137.7138  156.2572 C   0  0  0  0  0  0  0  0  0  0  0  0
  151.3430  138.3488  156.9071 C   0  0  0  0  0  0  0  0  0  0  0  0
  152.7970  142.4067  159.4310 N   0  0  0  0  0  0  0  0  0  0  0  0
  154.0170  141.7396  162.4711 H   0  0  0  0  0  0  0  0  0  0  0  0
  154.8357  141.3849  160.9537 H   0  0  0  0  0  0  0  0  0  0  0  0
  153.3737  140.5042  161.3943 H   0  0  0  0  0  0  0  0  0  0  0  0
  152.4119  144.0075  162.3141 H   0  0  0  0  0  0  0  0  0  0  0  0
  150.8694  145.9664  161.1540 H   0  0  0  0  0  0  0  0  0  0  0  0
  149.9352  145.2823  159.8254 H   0  0  0  0  0  0  0  0  0  0  0  0
  151.3872  146.2300  159.4901 H   0  0  0  0  0  0  0  0  0  0  0  0
  150.8141  144.4209  157.7213 H   0  0  0  0  0  0  0  0  0  0  0  0
  152.4274  144.0416  157.1514 H   0  0  0  0  0  0  0  0  0  0  0  0
  149.2633  143.2507  156.8696 H   0  0  0  0  0  0  0  0  0  0  0  0
  148.0065  141.4276  156.3333 H   0  0  0  0  0  0  0  0  0  0  0  0
  148.5764  140.6292  154.0574 H   0  0  0  0  0  0  0  0  0  0  0  0
  150.1744  141.3594  154.1901 H   0  0  0  0  0  0  0  0  0  0  0  0
  148.7373  142.3752  154.2023 H   0  0  0  0  0  0  0  0  0  0  0  0
  149.5755  139.9408  157.6963 H   0  0  0  0  0  0  0  0  0  0  0  0
  148.6591  139.2391  156.4056 H   0  0  0  0  0  0  0  0  0  0  0  0
  149.6430  137.9050  154.9002 H   0  0  0  0  0  0  0  0  0  0  0  0
  149.9673  139.4061  154.0635 H   0  0  0  0  0  0  0  0  0  0  0  0
  151.3808  137.5383  153.1870 H   0  0  0  0  0  0  0  0  0  0  0  0
  152.3750  138.8238  153.8489 H   0  0  0  0  0  0  0  0  0  0  0  0
  153.0044  136.9479  156.9098 H   0  0  0  0  0  0  0  0  0  0  0  0
  153.3634  138.4625  156.0999 H   0  0  0  0  0  0  0  0  0  0  0  0
  151.6526  138.8231  157.8368 H   0  0  0  0  0  0  0  0  0  0  0  0
  150.6322  137.5651  157.1736 H   0  0  0  0  0  0  0  0  0  0  0  0
  1  2  1  0  0  0  0
  1 21  1  0  0  0  0
  1 22  1  0  0  0  0
  1 23  1  0  0  0  0
  2 20  2  0  0  0  0
  2  3  1  0  0  0  0
  3  4  2  0  0  0  0
  3 24  1  0  0  0  0
  4  5  1  0  0  0  0
  4  6  1  0  0  0  0
  5 25  1  0  0  0  0
  5 26  1  0  0  0  0
  5 27  1  0  0  0  0
  6  7  1  0  0  0  0
  6 20  1  0  0  0  0
  7  8  1  0  0  0  0
  7 28  1  0  0  0  0
  7 29  1  0  0  0  0
  8  9  2  0  0  0  0
  8 10  1  0  0  0  0
 10 11  1  0  0  0  0
 10 30  1  0  0  0  0
 11 12  1  0  0  0  0
 11 13  1  0  0  0  0
 11 31  1  0  0  0  0
 12 32  1  0  0  0  0
 12 33  1  0  0  0  0
 12 34  1  0  0  0  0
 13 14  1  0  0  0  0
 13 35  1  0  0  0  0
 13 36  1  0  0  0  0
 14 19  1  0  0  0  0
 14 15  1  0  0  0  0
 15 16  1  0  0  0  0
 15 37  1  0  0  0  0
 15 38  1  0  0  0  0
 16 17  1  0  0  0  0
 16 39  1  0  0  0  0
 16 40  1  0  0  0  0
 17 18  1  0  0  0  0
 18 19  1  0  0  0  0
 18 41  1  0  0  0  0
 18 42  1  0  0  0  0
 19 43  1  0  0  0  0
 19 44  1  0  0  0  0
M  END
> <s_m_source_file>
AV-unprocessed.smi

> <i_m_source_file_index>
1959

> <i_lp_mmshare_version>
43012

> <i_f3d_flags>
0

> <s_epik_input>
W0NIM11jMVtjSF1jKFtDSDNdKW4objEpW0NIMl1DKD1PKVtOSF1bQ0BIXShbQ0gzXSlbQ0gyXU4yW0NIMl1bQ0gyXU9bQ0gyXVtDSDJdMg==

> <s_epik_cmdline>
J2VwaWtfcHl0aG9uJywgJy1waCcsICc3LjAnLCAnLXRuJywgJzgnLCAnLW1hJywgJzIwMCcsICctbWV0YWxfYmluZGluZycsICctaW1hZScsICc8aW5maWxlLm1hZT4nLCAnLW9tYWUnLCAnPG91dGZpbGUubWFlPic=

> <r_lp_tautomer_probability>
1

> <r_epik_Ionization_Penalty>
0.197284

> <r_epik_Ionization_Penalty_Charging>
0

> <r_epik_Ionization_Penalty_Neutral>
0.197284

> <r_epik_State_Penalty>
0.186684

> <r_epik_Charging_Adjusted_Penalty>
0.186684

> <i_epik_Tot_Q>
0

> <i_epik_Tot_abs_Q>
0

> <r_epik_Metal_State_Penalty>
0.186639

> <b_epik_Metal_Only>
0

> <s_lp_Force_Field>
OPLS_2005

> <r_lp_Energy>
28.5782

> <b_lp_Chiralities_Consistent>
1

> <s_lp_Variant>
AV-unprocessed.smi:1959-2

> <Gold.Version>
5.8.1

> <Gold.Id.Protein>
6NUR|6NUR_protein|mol2

> <Gold.PLP.Fitness>
45.7490

> <Gold.PLP.PLP>
-42.3413

> <Gold.PLP.part.hbond>
-2.0000

> <Gold.PLP.part.metal>
0.0000

> <Gold.PLP.part.buried>
-5.3061

> <Gold.PLP.part.nonpolar>
-34.9542

> <Gold.PLP.part.repulsive>
0.1249

> <Gold.PLP.ligand.clash>
0.0000

> <Gold.PLP.ligand.torsion>
0.9558

> <Gold.PLP.Chemscore.Hbond>
1.7520

> <Gold.PLP.Chemscore.CHOScore>
0.0000

> <Gold.PLP.Chemscore.Metal>
0.0000

> <Gold.Chemscore.Hbonds>
donor molecule, donor type, donor heavy atom, donor atom, acceptor molecule, acceptor atom, score
      L1  H    10    30       P1  8028  0.61
      P1  H 10752 10763       L1    17  0.82

> <Gold.PLP.Chemscore.Internal.Correction>
0.0633

> <Gold.Rescore>
     Score         DG    S(hbond)    S(metal)    S(lipo)     H(rot)  DE(clash)    DE(int)     intcor
     12.30     -19.07       1.53        0.00     109.67       1.70       0.42       6.34       ----

> <Gold.Chemscore.Fitness>
12.3048

> <Gold.Chemscore.DG>
-19.0669

> <Gold.Chemscore.ZeroCoef>
-5.4800

> <Gold.Chemscore.Hbond>
1.5257

> <Gold.Chemscore.Metal>
0.0000

> <Gold.Chemscore.Lipo>
109.6656

> <Gold.Chemscore.Internal_Hbond>
0.0000

> <Gold.Chemscore.DEClash>
0.4189

> <Gold.Chemscore.DEInternal>
6.3432

> <Gold.Chemscore.Rot>
1.6952

> <Gold.Chemscore.Internal.Correction>
   9.000000E+99

> <Gold.Chemscore.Hbonds>
donor molecule, donor type, donor heavy atom, donor atom, acceptor molecule, acceptor atom, score
      L1  H    10    30       P1  8028  0.59
      P1  H 10752 10763       L1    17  0.79

> <Gold.Chemscore.Hbond.Weighted>
-5.0959

> <Gold.Chemscore.Metal.Weighted>
-0.0000

> <Gold.Chemscore.Lipo.Weighted>
-12.8309

> <Gold.Chemscore.Internal_Hbond.Weighted>
0.0000

> <Gold.Chemscore.DEClash.Weighted>
0.4189

> <Gold.Chemscore.DEInternal.Weighted>
6.3432

> <Gold.Chemscore.Rot.Weighted>
4.3398

> <Gold.Chemscore.Internal.Correction.Weighted>
   9.000000E+99

> <Gold.Protein.RotatedTorsions>
[ 6907 6896 6895 6894 ] final  110.23 input  -60.11 | X-H torsion
[ 7974 7965 7964 7962 ] final    8.30 input  175.53 | X-H torsion
[ 8008 7997 7996 7995 ] final  147.09 input   59.86 | X-H torsion
[ 10167 10162 10161 10158 ] final   91.65 input  -65.29 | X-H torsion
[ 10718 10713 10712 10709 ] final -164.71 input   66.30 | X-H torsion
[ 10763 10752 10751 10750 ] final   57.49 input  -60.55 | X-H torsion
[ 11005 11000 10999 10996 ] final   28.25 input  -57.11 | X-H torsion

> <Gold.Protein.ActiveResidues>
 VAL166  LYS551  ARG553  GLY616  TRP617  ASP618  TYR619  PRO620  LYS621  CYS622 
 ASP623  PHE694  ASN695  SER759  ASP760  ASP761  ALA762  ILE779  LEU786  VAL792 
 PHE793  MET794  SER795  GLU796  ALA797  LYS798  CYS799  TRP800  GLU811  SER814 

> <Gold.Protein.RotatedAtoms>
  152.5029  133.8829  159.7355 H   0  0  0  0  0  0  0  0  0  0  0  0  # atno 6907 bound_to 6896
  150.9287  133.6784  159.2822 H   0  0  0  0  0  0  0  0  0  0  0  0  # atno 6908 bound_to 6896
  151.4135  135.0993  159.9645 H   0  0  0  0  0  0  0  0  0  0  0  0  # atno 6909 bound_to 6896
  146.2418  139.9954  142.8421 H   0  0  0  0  0  0  0  0  0  0  0  0  # atno 7974 bound_to 7965
  156.2835  140.2165  156.5482 H   0  0  0  0  0  0  0  0  0  0  0  0  # atno 8008 bound_to 7997
  154.7313  140.0495  157.0751 H   0  0  0  0  0  0  0  0  0  0  0  0  # atno 8009 bound_to 7997
  155.0350  140.3139  155.4748 H   0  0  0  0  0  0  0  0  0  0  0  0  # atno 8010 bound_to 7997
  139.8354  144.6667  150.9349 H   0  0  0  0  0  0  0  0  0  0  0  0  # atno 10167 bound_to 10162
  156.6430  130.8976  151.2999 H   0  0  0  0  0  0  0  0  0  0  0  0  # atno 10718 bound_to 10713
  152.9851  135.5639  154.5400 H   0  0  0  0  0  0  0  0  0  0  0  0  # atno 10763 bound_to 10752
  154.4856  135.2790  155.1539 H   0  0  0  0  0  0  0  0  0  0  0  0  # atno 10764 bound_to 10752
  154.3029  135.6304  153.5485 H   0  0  0  0  0  0  0  0  0  0  0  0  # atno 10765 bound_to 10752
  140.3176  134.2579  155.7723 H   0  0  0  0  0  0  0  0  0  0  0  0  # atno 11005 bound_to 11000
  145.1464  140.9599  143.4458 LP  0  0  0  0  0  0  0  0  0  0  0  0  # atno 17320 bound_to 7965
  145.0247  139.3393  143.6055 LP  0  0  0  0  0  0  0  0  0  0  0  0  # atno 17321 bound_to 7965
  140.7803  143.3962  151.1226 LP  0  0  0  0  0  0  0  0  0  0  0  0  # atno 17342 bound_to 10162
  139.7612  143.8632  152.3100 LP  0  0  0  0  0  0  0  0  0  0  0  0  # atno 17343 bound_to 10162
  157.7165  130.9504  150.1275 LP  0  0  0  0  0  0  0  0  0  0  0  0  # atno 17370 bound_to 10713
  156.2144  130.3669  149.8631 LP  0  0  0  0  0  0  0  0  0  0  0  0  # atno 17371 bound_to 10713
  141.2094  133.7750  156.9999 LP  0  0  0  0  0  0  0  0  0  0  0  0  # atno 17394 bound_to 11000
  140.0970  134.9558  157.1864 LP  0  0  0  0  0  0  0  0  0  0  0  0  # atno 17395 bound_to 11000

$$$$
