AV-unprocessed.smi:1239|AV-procd|sdf|5185|dock1
  -GOLD-   22720 4263D 1   1.00000     0.00000
 Structure written by MMmdl.
 48 49  0  0  0  0  0  0  0  0  2 V2000
  146.9030  142.2763  154.1136 C   0  0  0  0  0  0  0  0  0  0  0  0
  147.2920  140.9597  154.8243 C   0  0  2  0  0  0  0  0  0  0  0  0
  145.9931  140.2965  155.3481 C   0  0  0  0  0  0  0  0  0  0  0  0
  145.3055  139.5498  154.2971 N   0  0  0  0  0  0  0  0  0  0  0  0
  145.5000  138.2555  154.0097 C   0  0  0  0  0  0  0  0  0  0  0  0
  146.2891  137.5351  154.6201 O   0  0  0  0  0  0  0  0  0  0  0  0
  144.7372  137.8692  152.9720 N   0  0  0  0  0  0  0  0  0  0  0  0
  144.6539  136.5913  152.3521 C   0  0  0  0  0  0  0  0  0  0  0  0
  145.8120  135.7859  152.3536 C   0  0  0  0  0  0  0  0  0  0  0  0
  145.7853  134.5134  151.7466 C   0  0  0  0  0  0  0  0  0  0  0  0
  144.5962  134.0507  151.1316 C   0  0  0  0  0  0  0  0  0  0  0  0
  144.4885  132.7902  150.5052 N   0  0  0  0  0  0  0  0  0  0  0  0
  143.9128  132.6917  149.1685 C   0  0  0  0  0  0  0  0  0  0  0  0
  144.9303  131.5917  151.2064 C   0  0  0  0  0  0  0  0  0  0  0  0
  143.5124  134.8641  151.1460 N   0  3  0  0  0  0  0  0  0  0  0  0
  143.4939  136.0888  151.7151 C   0  0  0  0  0  0  0  0  0  0  0  0
  148.3425  141.1316  155.8520 N   0  0  0  0  0  0  0  0  0  0  0  0
  149.5446  141.7843  155.3240 C   0  0  0  0  0  0  0  0  0  0  0  0
  150.6287  141.9861  156.3969 C   0  0  0  0  0  0  0  0  0  0  0  0
  150.0969  142.7386  157.4792 O   0  0  0  0  0  0  0  0  0  0  0  0
  148.9675  142.1078  158.0684 C   0  0  0  0  0  0  0  0  0  0  0  0
  147.8738  141.9054  157.0056 C   0  0  0  0  0  0  0  0  0  0  0  0
  146.0540  142.1289  153.4455 H   0  0  0  0  0  0  0  0  0  0  0  0
  147.7113  142.6632  153.4940 H   0  0  0  0  0  0  0  0  0  0  0  0
  146.6264  143.0509  154.8295 H   0  0  0  0  0  0  0  0  0  0  0  0
  147.6851  140.2955  154.0529 H   0  0  0  0  0  0  0  0  0  0  0  0
  146.2419  139.6437  156.1866 H   0  0  0  0  0  0  0  0  0  0  0  0
  145.3069  141.0330  155.7649 H   0  0  0  0  0  0  0  0  0  0  0  0
  144.6417  140.0688  153.7406 H   0  0  0  0  0  0  0  0  0  0  0  0
  144.1773  138.5932  152.5460 H   0  0  0  0  0  0  0  0  0  0  0  0
  146.7204  136.1369  152.8215 H   0  0  0  0  0  0  0  0  0  0  0  0
  146.6816  133.9117  151.7645 H   0  0  0  0  0  0  0  0  0  0  0  0
  144.5083  133.2586  148.4521 H   0  0  0  0  0  0  0  0  0  0  0  0
  142.8945  133.0818  149.1597 H   0  0  0  0  0  0  0  0  0  0  0  0
  143.8764  131.6572  148.8265 H   0  0  0  0  0  0  0  0  0  0  0  0
  144.3534  131.4477  152.1205 H   0  0  0  0  0  0  0  0  0  0  0  0
  145.9862  131.6673  151.4674 H   0  0  0  0  0  0  0  0  0  0  0  0
  144.8044  130.7020  150.5891 H   0  0  0  0  0  0  0  0  0  0  0  0
  142.5533  136.6099  151.6250 H   0  0  0  0  0  0  0  0  0  0  0  0
  149.9842  141.1890  154.5256 H   0  0  0  0  0  0  0  0  0  0  0  0
  149.2808  142.7501  154.8902 H   0  0  0  0  0  0  0  0  0  0  0  0
  150.9985  141.0251  156.7579 H   0  0  0  0  0  0  0  0  0  0  0  0
  151.4814  142.5204  155.9779 H   0  0  0  0  0  0  0  0  0  0  0  0
  149.2618  141.1530  158.5074 H   0  0  0  0  0  0  0  0  0  0  0  0
  148.5951  142.7321  158.8807 H   0  0  0  0  0  0  0  0  0  0  0  0
  147.5084  142.8787  156.6739 H   0  0  0  0  0  0  0  0  0  0  0  0
  147.0375  141.4027  157.4892 H   0  0  0  0  0  0  0  0  0  0  0  0
  142.6577  134.5334  150.6981 H   0  0  0  0  0  0  0  0  0  0  0  0
  1  2  1  0  0  0  0
  1 23  1  0  0  0  0
  1 24  1  0  0  0  0
  1 25  1  0  0  0  0
  2  3  1  0  0  0  0
  2 17  1  0  0  0  0
  2 26  1  0  0  0  0
  3  4  1  0  0  0  0
  3 27  1  0  0  0  0
  3 28  1  0  0  0  0
  4  5  1  0  0  0  0
  4 29  1  0  0  0  0
  5  6  2  0  0  0  0
  5  7  1  0  0  0  0
  7  8  1  0  0  0  0
  7 30  1  0  0  0  0
  8 16  1  0  0  0  0
  8  9  2  0  0  0  0
  9 10  1  0  0  0  0
  9 31  1  0  0  0  0
 10 11  2  0  0  0  0
 10 32  1  0  0  0  0
 11 12  1  0  0  0  0
 11 15  1  0  0  0  0
 12 13  1  0  0  0  0
 12 14  1  0  0  0  0
 13 33  1  0  0  0  0
 13 34  1  0  0  0  0
 13 35  1  0  0  0  0
 14 36  1  0  0  0  0
 14 37  1  0  0  0  0
 14 38  1  0  0  0  0
 15 16  2  0  0  0  0
 15 48  1  0  0  0  0
 16 39  1  0  0  0  0
 17 22  1  0  0  0  0
 17 18  1  0  0  0  0
 18 19  1  0  0  0  0
 18 40  1  0  0  0  0
 18 41  1  0  0  0  0
 19 20  1  0  0  0  0
 19 42  1  0  0  0  0
 19 43  1  0  0  0  0
 20 21  1  0  0  0  0
 21 22  1  0  0  0  0
 21 44  1  0  0  0  0
 21 45  1  0  0  0  0
 22 46  1  0  0  0  0
 22 47  1  0  0  0  0
M  CHG  1  15   1
M  END
> <s_m_source_file>
AV-unprocessed.smi

> <i_m_source_file_index>
1239

> <i_lp_mmshare_version>
43012

> <i_f3d_flags>
0

> <s_epik_input>
W0NIMl0xW0NIMl1PW0NIMl1bQ0gyXU4xW0NASF0oW0NIM10pW0NIMl1bTkhdQyg9TylbTkhdYzJbY0hdW2NIXWMoTihbQ0gzXSlbQ0gzXSluW2NIXTI=

> <s_epik_cmdline>
J2VwaWtfcHl0aG9uJywgJy1waCcsICc3LjAnLCAnLXRuJywgJzgnLCAnLW1hJywgJzIwMCcsICctbWV0YWxfYmluZGluZycsICctaW1hZScsICc8aW5maWxlLm1hZT4nLCAnLW9tYWUnLCAnPG91dGZpbGUubWFlPic=

> <r_lp_tautomer_probability>
0.999994

> <r_epik_Ionization_Penalty>
0.528791

> <r_epik_Ionization_Penalty_Charging>
0.26278

> <r_epik_Ionization_Penalty_Neutral>
0.26601

> <r_epik_State_Penalty>
0.520375

> <r_epik_Charging_Adjusted_Penalty>
0.783156

> <i_epik_Tot_Q>
1

> <i_epik_Tot_abs_Q>
1

> <r_epik_Metal_State_Penalty>
0.806531

> <b_epik_Metal_Only>
0

> <s_lp_Force_Field>
OPLS_2005

> <r_lp_Energy>
44.5879

> <b_lp_Chiralities_Consistent>
1

> <s_lp_Variant>
AV-unprocessed.smi:1239-1

> <Gold.Version>
5.8.1

> <Gold.Id.Protein>
6NUR|6NUR_protein|mol2

> <Gold.PLP.Fitness>
44.0123

> <Gold.PLP.PLP>
-35.0139

> <Gold.PLP.part.hbond>
-3.0000

> <Gold.PLP.part.metal>
0.0000

> <Gold.PLP.part.buried>
-5.9032

> <Gold.PLP.part.nonpolar>
-26.3860

> <Gold.PLP.part.repulsive>
0.2785

> <Gold.PLP.ligand.clash>
0.0000

> <Gold.PLP.ligand.torsion>
1.5452

> <Gold.PLP.Chemscore.Hbond>
3.9913

> <Gold.PLP.Chemscore.CHOScore>
0.0000

> <Gold.PLP.Chemscore.Metal>
0.0000

> <Gold.Chemscore.Hbonds>
donor molecule, donor type, donor heavy atom, donor atom, acceptor molecule, acceptor atom, score
      L1  H     4    29       P1 10175  1.00
      L1  H     7    30       P1 10175  0.99
      L1  H    15    48       P1 10186  1.90

> <Gold.PLP.Chemscore.Internal.Correction>
0.1150

> <Gold.Rescore>
     Score         DG    S(hbond)    S(metal)    S(lipo)     H(rot)  DE(clash)    DE(int)     intcor
     15.23     -17.87       2.26        0.00      73.20       1.46       0.10       2.55       ----

> <Gold.Chemscore.Fitness>
15.2263

> <Gold.Chemscore.DG>
-17.8706

> <Gold.Chemscore.ZeroCoef>
-5.4800

> <Gold.Chemscore.Hbond>
2.2650

> <Gold.Chemscore.Metal>
0.0000

> <Gold.Chemscore.Lipo>
73.1970

> <Gold.Chemscore.Internal_Hbond>
0.0000

> <Gold.Chemscore.DEClash>
0.0987

> <Gold.Chemscore.DEInternal>
2.5456

> <Gold.Chemscore.Rot>
1.4604

> <Gold.Chemscore.Internal.Correction>
   9.000000E+99

> <Gold.Chemscore.Hbonds>
donor molecule, donor type, donor heavy atom, donor atom, acceptor molecule, acceptor atom, score
      L1  H     4    29       P1 10175  0.99
      L1  H     7    30       P1 10175  0.94
      L1  H    15    48       P1 10186  0.21

> <Gold.Chemscore.Hbond.Weighted>
-7.5651

> <Gold.Chemscore.Metal.Weighted>
-0.0000

> <Gold.Chemscore.Lipo.Weighted>
-8.5641

> <Gold.Chemscore.Internal_Hbond.Weighted>
0.0000

> <Gold.Chemscore.DEClash.Weighted>
0.0987

> <Gold.Chemscore.DEInternal.Weighted>
2.5456

> <Gold.Chemscore.Rot.Weighted>
3.7385

> <Gold.Chemscore.Internal.Correction.Weighted>
   9.000000E+99

> <Gold.Protein.RotatedTorsions>
[ 6907 6896 6895 6894 ] final  104.85 input  -60.11 | X-H torsion
[ 7974 7965 7964 7962 ] final  169.72 input  175.53 | X-H torsion
[ 8008 7997 7996 7995 ] final -105.94 input   59.86 | X-H torsion
[ 10167 10162 10161 10158 ] final  -22.71 input  -65.29 | X-H torsion
[ 10718 10713 10712 10709 ] final -153.35 input   66.30 | X-H torsion
[ 10763 10752 10751 10750 ] final -105.14 input  -60.55 | X-H torsion
[ 11005 11000 10999 10996 ] final   53.58 input  -57.11 | X-H torsion

> <Gold.Protein.ActiveResidues>
 VAL166  LYS551  ARG553  GLY616  TRP617  ASP618  TYR619  PRO620  LYS621  CYS622 
 ASP623  PHE694  ASN695  SER759  ASP760  ASP761  ALA762  ILE779  LEU786  VAL792 
 PHE793  MET794  SER795  GLU796  ALA797  LYS798  CYS799  TRP800  GLU811  SER814 

> <Gold.Protein.RotatedAtoms>
  152.5250  133.9615  159.7719 H   0  0  0  0  0  0  0  0  0  0  0  0  # atno 6907 bound_to 6896
  150.9905  133.6146  159.2716 H   0  0  0  0  0  0  0  0  0  0  0  0  # atno 6908 bound_to 6896
  151.3291  135.0843  159.9385 H   0  0  0  0  0  0  0  0  0  0  0  0  # atno 6909 bound_to 6896
  144.7346  139.9096  143.6414 H   0  0  0  0  0  0  0  0  0  0  0  0  # atno 7974 bound_to 7965
  154.9072  140.0411  157.1926 H   0  0  0  0  0  0  0  0  0  0  0  0  # atno 8008 bound_to 7997
  154.8384  140.2910  155.5654 H   0  0  0  0  0  0  0  0  0  0  0  0  # atno 8009 bound_to 7997
  156.2991  140.2487  156.3322 H   0  0  0  0  0  0  0  0  0  0  0  0  # atno 8010 bound_to 7997
  140.7286  143.4510  151.0517 H   0  0  0  0  0  0  0  0  0  0  0  0  # atno 10167 bound_to 10162
  156.4846  130.8319  151.2545 H   0  0  0  0  0  0  0  0  0  0  0  0  # atno 10718 bound_to 10713
  154.7927  135.4760  154.0088 H   0  0  0  0  0  0  0  0  0  0  0  0  # atno 10763 bound_to 10752
  153.1655  135.6816  153.8689 H   0  0  0  0  0  0  0  0  0  0  0  0  # atno 10764 bound_to 10752
  153.8288  135.3194  155.3395 H   0  0  0  0  0  0  0  0  0  0  0  0  # atno 10765 bound_to 10752
  140.0755  134.5410  155.9001 H   0  0  0  0  0  0  0  0  0  0  0  0  # atno 11005 bound_to 11000
  146.1011  139.4006  143.0346 LP  0  0  0  0  0  0  0  0  0  0  0  0  # atno 17320 bound_to 7965
  145.7577  140.9947  143.1216 LP  0  0  0  0  0  0  0  0  0  0  0  0  # atno 17321 bound_to 7965
  139.8186  143.7852  152.3175 LP  0  0  0  0  0  0  0  0  0  0  0  0  # atno 17342 bound_to 10162
  139.7926  144.7404  150.9934 LP  0  0  0  0  0  0  0  0  0  0  0  0  # atno 17343 bound_to 10162
  157.7480  131.0033  150.3034 LP  0  0  0  0  0  0  0  0  0  0  0  0  # atno 17370 bound_to 10713
  156.3487  130.3827  149.7347 LP  0  0  0  0  0  0  0  0  0  0  0  0  # atno 17371 bound_to 10713
  141.2028  133.6627  156.6026 LP  0  0  0  0  0  0  0  0  0  0  0  0  # atno 17394 bound_to 11000
  140.3563  134.7725  157.4503 LP  0  0  0  0  0  0  0  0  0  0  0  0  # atno 17395 bound_to 11000

$$$$
