AV-unprocessed.smi:67|AV-procd|sdf|629|dock10
  -GOLD-   2262016523D 1   1.00000     0.00000
 Structure written by MMmdl.
 49 51  0  0  0  0  0  0  0  0  3 V2000
  145.7602  139.1663  155.0991 O   0  0  0  0  0  0  0  0  0  0  0  0
  147.0497  139.6951  155.3597 C   0  0  1  0  0  0  0  0  0  0  0  0
  147.9791  138.5327  155.7770 C   0  0  0  0  0  0  0  0  0  0  0  0
  149.2379  139.0166  156.4063 N   0  3  2  0  0  0  0  0  0  0  0  0
  150.3820  139.0554  155.4578 C   0  0  0  0  0  0  0  0  0  0  0  0
  151.6006  139.7552  156.0825 C   0  0  0  0  0  0  0  0  0  0  0  0
  151.9738  139.1019  157.4290 C   0  0  1  0  0  0  0  0  0  0  0  0
  153.1606  139.6168  158.0375 O   0  0  0  0  0  0  0  0  0  0  0  0
  153.1544  140.5984  159.0106 C   0  0  0  0  0  0  0  0  0  0  0  0
  153.7890  140.5223  160.2757 C   0  0  0  0  0  0  0  0  0  0  0  0
  153.7124  141.5986  161.1800 C   0  0  0  0  0  0  0  0  0  0  0  0
  153.0003  142.7626  160.8397 C   0  0  0  0  0  0  0  0  0  0  0  0
  152.3548  142.8549  159.5896 C   0  0  0  0  0  0  0  0  0  0  0  0
  151.5872  144.1111  159.2046 C   0  0  0  0  0  0  0  0  0  0  0  0
  152.1365  144.6428  158.1133 F   0  0  0  0  0  0  0  0  0  0  0  0
  150.3115  143.8216  158.9460 F   0  0  0  0  0  0  0  0  0  0  0  0
  151.6185  145.0150  160.1845 F   0  0  0  0  0  0  0  0  0  0  0  0
  152.4444  141.7738  158.6868 C   0  0  0  0  0  0  0  0  0  0  0  0
  150.7665  138.9592  158.3787 C   0  0  0  0  0  0  0  0  0  0  0  0
  149.5861  138.2895  157.6559 C   0  0  0  0  0  0  0  0  0  0  0  0
  147.5291  140.5103  154.1540 C   0  0  0  0  0  0  0  0  0  0  0  0
  146.8119  141.8531  154.3065 C   0  0  0  0  0  0  0  0  0  0  0  0
  146.6054  142.0443  155.7548 N   0  3  0  0  0  0  0  0  0  0  0  0
  146.9087  140.7743  156.4470 C   0  0  0  0  0  0  0  0  0  0  0  0
  145.7782  138.2304  155.2340 H   0  0  0  0  0  0  0  0  0  0  0  0
  147.4594  137.8511  156.4529 H   0  0  0  0  0  0  0  0  0  0  0  0
  148.2063  137.9386  154.8900 H   0  0  0  0  0  0  0  0  0  0  0  0
  150.6415  138.0387  155.1585 H   0  0  0  0  0  0  0  0  0  0  0  0
  150.0932  139.5903  154.5520 H   0  0  0  0  0  0  0  0  0  0  0  0
  152.4477  139.6926  155.3986 H   0  0  0  0  0  0  0  0  0  0  0  0
  151.3793  140.8144  156.1846 H   0  0  0  0  0  0  0  0  0  0  0  0
  152.2615  138.0795  157.1791 H   0  0  0  0  0  0  0  0  0  0  0  0
  154.3466  139.6584  160.5920 H   0  0  0  0  0  0  0  0  0  0  0  0
  154.2037  141.5314  162.1396 H   0  0  0  0  0  0  0  0  0  0  0  0
  152.9548  143.5819  161.5419 H   0  0  0  0  0  0  0  0  0  0  0  0
  151.9606  141.8448  157.7234 H   0  0  0  0  0  0  0  0  0  0  0  0
  151.0513  138.3607  159.2447 H   0  0  0  0  0  0  0  0  0  0  0  0
  150.4349  139.9155  158.7745 H   0  0  0  0  0  0  0  0  0  0  0  0
  148.7277  138.2603  158.3263 H   0  0  0  0  0  0  0  0  0  0  0  0
  149.8321  137.2536  157.4166 H   0  0  0  0  0  0  0  0  0  0  0  0
  148.6051  140.6765  154.2231 H   0  0  0  0  0  0  0  0  0  0  0  0
  147.3286  140.0292  153.1957 H   0  0  0  0  0  0  0  0  0  0  0  0
  147.3723  142.6795  153.8686 H   0  0  0  0  0  0  0  0  0  0  0  0
  145.8351  141.8148  153.8225 H   0  0  0  0  0  0  0  0  0  0  0  0
  147.2170  142.7705  156.1005 H   0  0  0  0  0  0  0  0  0  0  0  0
  146.1552  140.5348  157.1988 H   0  0  0  0  0  0  0  0  0  0  0  0
  147.8572  140.9095  156.9688 H   0  0  0  0  0  0  0  0  0  0  0  0
  145.6437  142.3071  155.9192 H   0  0  0  0  0  0  0  0  0  0  0  0
  149.0622  139.9772  156.6663 H   0  0  0  0  0  0  0  0  0  0  0  0
  1  2  1  0  0  0  0
  1 25  1  0  0  0  0
  2 24  1  0  0  0  0
  2  3  1  0  0  0  0
  2 21  1  0  0  0  0
  3  4  1  0  0  0  0
  3 26  1  0  0  0  0
  3 27  1  0  0  0  0
  4 20  1  0  0  0  0
  4  5  1  0  0  0  0
  4 49  1  0  0  0  0
  5  6  1  0  0  0  0
  5 28  1  0  0  0  0
  5 29  1  0  0  0  0
  6  7  1  0  0  0  0
  6 30  1  0  0  0  0
  6 31  1  0  0  0  0
  7  8  1  0  0  0  0
  7 19  1  0  0  0  0
  7 32  1  0  0  0  0
  8  9  1  0  0  0  0
  9 18  1  0  0  0  0
  9 10  2  0  0  0  0
 10 11  1  0  0  0  0
 10 33  1  0  0  0  0
 11 12  2  0  0  0  0
 11 34  1  0  0  0  0
 12 13  1  0  0  0  0
 12 35  1  0  0  0  0
 13 14  1  0  0  0  0
 13 18  2  0  0  0  0
 14 15  1  0  0  0  0
 14 16  1  0  0  0  0
 14 17  1  0  0  0  0
 18 36  1  0  0  0  0
 19 20  1  0  0  0  0
 19 37  1  0  0  0  0
 19 38  1  0  0  0  0
 20 39  1  0  0  0  0
 20 40  1  0  0  0  0
 21 22  1  0  0  0  0
 21 41  1  0  0  0  0
 21 42  1  0  0  0  0
 22 23  1  0  0  0  0
 22 43  1  0  0  0  0
 22 44  1  0  0  0  0
 23 24  1  0  0  0  0
 23 45  1  0  0  0  0
 23 48  1  0  0  0  0
 24 46  1  0  0  0  0
 24 47  1  0  0  0  0
M  CHG  1   4   1
M  CHG  1  23   1
M  END
> <s_m_source_file>
AV-unprocessed.smi

> <i_m_source_file_index>
67

> <i_lp_mmshare_version>
43012

> <i_f3d_flags>
0

> <s_epik_input>
W0NIMl0xW05IXVtDSDJdW0NIMl1bQ0BAXTEoW09IXSlbQ0gyXU4yW0NIMl1bQ0gyXVtDSF0oW0NIMl1bQ0gyXTIpT2MzW2NIXVtjSF1bY0hdYyhDKEYpKEYpRilbY0hdMw==

> <s_epik_cmdline>
J2VwaWtfcHl0aG9uJywgJy1waCcsICc3LjAnLCAnLXRuJywgJzgnLCAnLW1hJywgJzIwMCcsICctbWV0YWxfYmluZGluZycsICctaW1hZScsICc8aW5maWxlLm1hZT4nLCAnLW9tYWUnLCAnPG91dGZpbGUubWFlPic=

> <r_lp_tautomer_probability>
1

> <r_epik_Ionization_Penalty>
0.0989853

> <r_epik_Ionization_Penalty_Charging>
0.0989662

> <r_epik_Ionization_Penalty_Neutral>
1.91014e-05

> <r_epik_State_Penalty>
0.0852826

> <r_epik_Charging_Adjusted_Penalty>
0.184249

> <i_epik_Tot_Q>
2

> <i_epik_Tot_abs_Q>
2

> <r_epik_Metal_State_Penalty>
0.0849414

> <b_epik_Metal_Only>
0

> <s_lp_Force_Field>
OPLS_2005

> <r_lp_Energy>
60.8706

> <b_lp_Chiralities_Consistent>
1

> <s_lp_Variant>
AV-unprocessed.smi:67-1

> <Gold.Version>
5.8.1

> <Gold.Id.Protein>
6NUR|6NUR_protein|mol2

> <Gold.PLP.Fitness>
58.2558

> <Gold.PLP.PLP>
-51.1930

> <Gold.PLP.part.hbond>
-2.5831

> <Gold.PLP.part.metal>
0.0000

> <Gold.PLP.part.buried>
-5.5411

> <Gold.PLP.part.nonpolar>
-42.4445

> <Gold.PLP.part.repulsive>
0.0986

> <Gold.PLP.ligand.clash>
0.9936

> <Gold.PLP.ligand.torsion>
1.1515

> <Gold.PLP.Chemscore.Hbond>
3.0000

> <Gold.PLP.Chemscore.CHOScore>
0.0000

> <Gold.PLP.Chemscore.Metal>
0.0000

> <Gold.Chemscore.Hbonds>
donor molecule, donor type, donor heavy atom, donor atom, acceptor molecule, acceptor atom, score
      P1  H  7997  8009       L1     8  1.00

> <Gold.PLP.Chemscore.Internal.Correction>
1.3594

> <Gold.Rescore>
     Score         DG    S(hbond)    S(metal)    S(lipo)     H(rot)  DE(clash)    DE(int)     intcor
     15.69     -17.11       1.06        0.00     118.01       2.24       0.16       1.26       ----

> <Gold.Chemscore.Fitness>
15.6933

> <Gold.Chemscore.DG>
-17.1138

> <Gold.Chemscore.ZeroCoef>
-5.4800

> <Gold.Chemscore.Hbond>
1.0625

> <Gold.Chemscore.Metal>
0.0000

> <Gold.Chemscore.Lipo>
118.0091

> <Gold.Chemscore.Internal_Hbond>
0.0000

> <Gold.Chemscore.DEClash>
0.1647

> <Gold.Chemscore.DEInternal>
1.2558

> <Gold.Chemscore.Rot>
2.2352

> <Gold.Chemscore.Internal.Correction>
   9.000000E+99

> <Gold.Chemscore.Hbonds>
donor molecule, donor type, donor heavy atom, donor atom, acceptor molecule, acceptor atom, score
      P1  H  7997  8009       L1     8  0.53

> <Gold.Chemscore.Hbond.Weighted>
-3.5489

> <Gold.Chemscore.Metal.Weighted>
-0.0000

> <Gold.Chemscore.Lipo.Weighted>
-13.8071

> <Gold.Chemscore.Internal_Hbond.Weighted>
0.0000

> <Gold.Chemscore.DEClash.Weighted>
0.1647

> <Gold.Chemscore.DEInternal.Weighted>
1.2558

> <Gold.Chemscore.Rot.Weighted>
5.7221

> <Gold.Chemscore.Internal.Correction.Weighted>
   9.000000E+99

> <Gold.Protein.RotatedTorsions>
[ 6907 6896 6895 6894 ] final   94.47 input  -60.11 | X-H torsion
[ 7974 7965 7964 7962 ] final   24.74 input  175.53 | X-H torsion
[ 8008 7997 7996 7995 ] final  168.48 input   59.86 | X-H torsion
[ 10167 10162 10161 10158 ] final  -27.04 input  -65.29 | X-H torsion
[ 10718 10713 10712 10709 ] final -176.11 input   66.30 | X-H torsion
[ 10763 10752 10751 10750 ] final -138.29 input  -60.55 | X-H torsion
[ 11005 11000 10999 10996 ] final -126.48 input  -57.11 | X-H torsion

> <Gold.Protein.ActiveResidues>
 VAL166  LYS551  ARG553  GLY616  TRP617  ASP618  TYR619  PRO620  LYS621  CYS622 
 ASP623  PHE694  ASN695  SER759  ASP760  ASP761  ALA762  ILE779  LEU786  VAL792 
 PHE793  MET794  SER795  GLU796  ALA797  LYS798  CYS799  TRP800  GLU811  SER814 

> <Gold.Protein.RotatedAtoms>
  152.5449  134.1189  159.8390 H   0  0  0  0  0  0  0  0  0  0  0  0  # atno 6907 bound_to 6896
  151.1247  133.5072  159.2608 H   0  0  0  0  0  0  0  0  0  0  0  0  # atno 6908 bound_to 6896
  151.1740  135.0341  159.8818 H   0  0  0  0  0  0  0  0  0  0  0  0  # atno 6909 bound_to 6896
  146.1923  139.7563  142.8823 H   0  0  0  0  0  0  0  0  0  0  0  0  # atno 7974 bound_to 7965
  156.1543  140.1589  156.8718 H   0  0  0  0  0  0  0  0  0  0  0  0  # atno 8008 bound_to 7997
  154.5100  140.0803  156.8008 H   0  0  0  0  0  0  0  0  0  0  0  0  # atno 8009 bound_to 7997
  155.3834  140.3406  155.4250 H   0  0  0  0  0  0  0  0  0  0  0  0  # atno 8010 bound_to 7997
  140.7279  143.4127  151.1079 H   0  0  0  0  0  0  0  0  0  0  0  0  # atno 10167 bound_to 10162
  156.8098  130.9582  151.3116 H   0  0  0  0  0  0  0  0  0  0  0  0  # atno 10718 bound_to 10713
  154.8640  135.3616  154.5361 H   0  0  0  0  0  0  0  0  0  0  0  0  # atno 10763 bound_to 10752
  153.5985  135.7013  153.5399 H   0  0  0  0  0  0  0  0  0  0  0  0  # atno 10764 bound_to 10752
  153.3311  135.4124  155.1458 H   0  0  0  0  0  0  0  0  0  0  0  0  # atno 10765 bound_to 10752
  140.9677  134.0848  157.3902 H   0  0  0  0  0  0  0  0  0  0  0  0  # atno 11005 bound_to 11000
  145.3754  141.0350  143.3207 LP  0  0  0  0  0  0  0  0  0  0  0  0  # atno 17320 bound_to 7965
  144.8510  139.5321  143.6856 LP  0  0  0  0  0  0  0  0  0  0  0  0  # atno 17321 bound_to 7965
  139.7762  143.8422  152.3129 LP  0  0  0  0  0  0  0  0  0  0  0  0  # atno 17342 bound_to 10162
  139.8357  144.7233  150.9394 LP  0  0  0  0  0  0  0  0  0  0  0  0  # atno 17343 bound_to 10162
  157.6511  130.8885  149.9636 LP  0  0  0  0  0  0  0  0  0  0  0  0  # atno 17370 bound_to 10713
  156.1051  130.3653  150.0148 LP  0  0  0  0  0  0  0  0  0  0  0  0  # atno 17371 bound_to 10713
  139.8901  135.0109  156.6715 LP  0  0  0  0  0  0  0  0  0  0  0  0  # atno 17394 bound_to 11000
  140.7374  133.9007  155.8254 LP  0  0  0  0  0  0  0  0  0  0  0  0  # atno 17395 bound_to 11000

$$$$
