AV-unprocessed.smi:367|AV-procd|sdf|2433|dock10
  -GOLD-   2262022373D 1   1.00000     0.00000
 Structure written by MMmdl.
 21 21  0  0  0  0  0  0  0  0  3 V2000
  152.7830  143.2153  160.7417 C   0  0  0  0  0  0  0  0  0  0  0  0
  152.3918  142.2034  159.6860 C   0  0  0  0  0  0  0  0  0  0  0  0
  151.3368  142.4002  158.9916 N   0  0  0  0  0  0  0  0  0  0  0  0
  150.9668  141.4599  158.0146 C   0  0  0  0  0  0  0  0  0  0  0  0
  149.6907  141.7660  157.2501 C   0  0  0  0  0  0  0  0  0  0  0  0
  151.7168  140.3432  157.7881 C   0  0  0  0  0  0  0  0  0  0  0  0
  151.3426  139.2791  156.7519 C   0  0  0  0  0  0  0  0  0  0  0  0
  151.8683  139.5360  155.3343 C   0  0  0  0  0  0  0  0  0  0  0  0
  151.0073  139.7470  154.4520 O   0  0  0  0  0  0  0  0  0  0  0  0
  153.1047  139.5180  155.1425 O   0  5  0  0  0  0  0  0  0  0  0  0
  152.9309  140.1592  158.6044 C   0  0  0  0  0  0  0  0  0  0  0  0
  153.6519  139.1765  158.4352 O   0  0  0  0  0  0  0  0  0  0  0  0
  153.2151  141.1097  159.5413 N   0  5  0  0  0  0  0  0  0  0  0  0
  152.1131  144.0760  160.7294 H   0  0  0  0  0  0  0  0  0  0  0  0
  153.7990  143.5711  160.5683 H   0  0  0  0  0  0  0  0  0  0  0  0
  152.7392  142.7617  161.7323 H   0  0  0  0  0  0  0  0  0  0  0  0
  148.9338  141.0079  157.4518 H   0  0  0  0  0  0  0  0  0  0  0  0
  149.8822  141.7895  156.1773 H   0  0  0  0  0  0  0  0  0  0  0  0
  149.2811  142.7351  157.5367 H   0  0  0  0  0  0  0  0  0  0  0  0
  151.6739  138.2905  157.0702 H   0  0  0  0  0  0  0  0  0  0  0  0
  150.2560  139.2088  156.7030 H   0  0  0  0  0  0  0  0  0  0  0  0
  1  2  1  0  0  0  0
  1 14  1  0  0  0  0
  1 15  1  0  0  0  0
  1 16  1  0  0  0  0
  2 13  1  0  0  0  0
  2  3  2  0  0  0  0
  3  4  1  0  0  0  0
  4  5  1  0  0  0  0
  4  6  2  0  0  0  0
  5 17  1  0  0  0  0
  5 18  1  0  0  0  0
  5 19  1  0  0  0  0
  6  7  1  0  0  0  0
  6 11  1  0  0  0  0
  7  8  1  0  0  0  0
  7 20  1  0  0  0  0
  7 21  1  0  0  0  0
  8  9  2  0  0  0  0
  8 10  1  0  0  0  0
 11 12  2  0  0  0  0
 11 13  1  0  0  0  0
M  CHG  1  10  -1
M  CHG  1  13  -1
M  END
> <s_m_source_file>
AV-unprocessed.smi

> <i_m_source_file_index>
367

> <i_lp_mmshare_version>
43012

> <i_f3d_flags>
0

> <s_epik_input>
W0NIM11jMW5jKFtDSDNdKWMoYyg9TylbbkhdMSlbQ0gyXUMoPU8pW09IXQ==

> <s_epik_cmdline>
J2VwaWtfcHl0aG9uJywgJy1waCcsICc3LjAnLCAnLXRuJywgJzgnLCAnLW1hJywgJzIwMCcsICctbWV0YWxfYmluZGluZycsICctaW1hZScsICc8aW5maWxlLm1hZT4nLCAnLW9tYWUnLCAnPG91dGZpbGUubWFlPic=

> <r_lp_tautomer_probability>
0.839158

> <r_epik_Ionization_Penalty>
8.1762

> <r_epik_Ionization_Penalty_Charging>
0.00175347

> <r_epik_Ionization_Penalty_Neutral>
8.17445

> <r_epik_State_Penalty>
5.46366

> <r_epik_Charging_Adjusted_Penalty>
5.46542

> <i_epik_Tot_Q>
-2

> <i_epik_Tot_abs_Q>
2

> <r_epik_Metal_State_Penalty>
1.48615

> <b_epik_Metal_Only>
1

> <s_lp_Force_Field>
OPLS_2005

> <r_lp_Energy>
12.8552

> <b_lp_Chiralities_Consistent>
1

> <s_lp_Variant>
AV-unprocessed.smi:367-3

> <Gold.Version>
5.8.1

> <Gold.Id.Protein>
6NUR|6NUR_protein|mol2

> <Gold.PLP.Fitness>
34.5801

> <Gold.PLP.PLP>
-23.4917

> <Gold.PLP.part.hbond>
-3.7434

> <Gold.PLP.part.metal>
0.0000

> <Gold.PLP.part.buried>
-2.0831

> <Gold.PLP.part.nonpolar>
-16.2377

> <Gold.PLP.part.repulsive>
0.1255

> <Gold.PLP.ligand.clash>
0.0000

> <Gold.PLP.ligand.torsion>
0.3962

> <Gold.PLP.Chemscore.Hbond>
3.9600

> <Gold.PLP.Chemscore.CHOScore>
0.0000

> <Gold.PLP.Chemscore.Metal>
0.0000

> <Gold.Chemscore.Hbonds>
donor molecule, donor type, donor heavy atom, donor atom, acceptor molecule, acceptor atom, score
      P1  H  7989  7998       L1     9  1.00
      P1  H  7997  8008       L1    10  2.00
      P1  H  7997  8010       L1    12  0.93

> <Gold.PLP.Chemscore.Internal.Correction>
0.0007

> <Gold.Rescore>
     Score         DG    S(hbond)    S(metal)    S(lipo)     H(rot)  DE(clash)    DE(int)     intcor
     13.44     -13.98       2.58        0.00      32.33       1.53       0.09       0.44       ----

> <Gold.Chemscore.Fitness>
13.4448

> <Gold.Chemscore.DG>
-13.9761

> <Gold.Chemscore.ZeroCoef>
-5.4800

> <Gold.Chemscore.Hbond>
2.5823

> <Gold.Chemscore.Metal>
0.0000

> <Gold.Chemscore.Lipo>
32.3268

> <Gold.Chemscore.Internal_Hbond>
0.0000

> <Gold.Chemscore.DEClash>
0.0921

> <Gold.Chemscore.DEInternal>
0.4392

> <Gold.Chemscore.Rot>
1.5278

> <Gold.Chemscore.Internal.Correction>
   9.000000E+99

> <Gold.Chemscore.Hbonds>
donor molecule, donor type, donor heavy atom, donor atom, acceptor molecule, acceptor atom, score
      P1  H  7989  7998       L1     9  0.54
      P1  H  7997  8008       L1    10  0.94
      P1  H  7997  8010       L1    12  0.20

> <Gold.Chemscore.Hbond.Weighted>
-8.6250

> <Gold.Chemscore.Metal.Weighted>
-0.0000

> <Gold.Chemscore.Lipo.Weighted>
-3.7822

> <Gold.Chemscore.Internal_Hbond.Weighted>
0.0000

> <Gold.Chemscore.DEClash.Weighted>
0.0921

> <Gold.Chemscore.DEInternal.Weighted>
0.4392

> <Gold.Chemscore.Rot.Weighted>
3.9111

> <Gold.Chemscore.Internal.Correction.Weighted>
   9.000000E+99

> <Gold.Protein.RotatedTorsions>
[ 6907 6896 6895 6894 ] final  -40.51 input  -60.11 | X-H torsion
[ 7974 7965 7964 7962 ] final  -54.62 input  175.53 | X-H torsion
[ 8008 7997 7996 7995 ] final    2.52 input   59.86 | X-H torsion
[ 10167 10162 10161 10158 ] final  134.22 input  -65.29 | X-H torsion
[ 10718 10713 10712 10709 ] final   87.40 input   66.30 | X-H torsion
[ 10763 10752 10751 10750 ] final  170.15 input  -60.55 | X-H torsion
[ 11005 11000 10999 10996 ] final -134.30 input  -57.11 | X-H torsion

> <Gold.Protein.ActiveResidues>
 VAL166  LYS551  ARG553  GLY616  TRP617  ASP618  TYR619  PRO620  LYS621  CYS622 
 ASP623  PHE694  ASN695  SER759  ASP760  ASP761  ALA762  ILE779  LEU786  VAL792 
 PHE793  MET794  SER795  GLU796  ALA797  LYS798  CYS799  TRP800  GLU811  SER814 

> <Gold.Protein.RotatedAtoms>
  150.9777  134.9138  159.7825 H   0  0  0  0  0  0  0  0  0  0  0  0  # atno 6907 bound_to 6896
  152.5211  134.3454  159.9242 H   0  0  0  0  0  0  0  0  0  0  0  0  # atno 6908 bound_to 6896
  151.3462  133.3902  159.2710 H   0  0  0  0  0  0  0  0  0  0  0  0  # atno 6909 bound_to 6896
  145.8835  140.8126  142.9828 H   0  0  0  0  0  0  0  0  0  0  0  0  # atno 7974 bound_to 7965
  154.6926  140.2656  155.6797 H   0  0  0  0  0  0  0  0  0  0  0  0  # atno 8008 bound_to 7997
  156.2737  140.2788  156.1433 H   0  0  0  0  0  0  0  0  0  0  0  0  # atno 8009 bound_to 7997
  155.0875  140.0373  157.2648 H   0  0  0  0  0  0  0  0  0  0  0  0  # atno 8010 bound_to 7997
  139.5265  144.6578  151.5109 H   0  0  0  0  0  0  0  0  0  0  0  0  # atno 10167 bound_to 10162
  157.6939  131.0254  150.3117 H   0  0  0  0  0  0  0  0  0  0  0  0  # atno 10718 bound_to 10713
  154.3935  135.2754  155.2140 H   0  0  0  0  0  0  0  0  0  0  0  0  # atno 10763 bound_to 10752
  154.4196  135.6003  153.6005 H   0  0  0  0  0  0  0  0  0  0  0  0  # atno 10764 bound_to 10752
  152.9832  135.5969  154.4193 H   0  0  0  0  0  0  0  0  0  0  0  0  # atno 10765 bound_to 10752
  140.9002  134.1700  157.4466 H   0  0  0  0  0  0  0  0  0  0  0  0  # atno 11005 bound_to 11000
  144.6728  140.1420  143.7436 LP  0  0  0  0  0  0  0  0  0  0  0  0  # atno 17320 bound_to 7965
  145.8995  139.2422  143.1502 LP  0  0  0  0  0  0  0  0  0  0  0  0  # atno 17321 bound_to 7965
  140.6411  143.8886  150.6693 LP  0  0  0  0  0  0  0  0  0  0  0  0  # atno 17342 bound_to 10162
  140.2221  143.3800  152.1634 LP  0  0  0  0  0  0  0  0  0  0  0  0  # atno 17343 bound_to 10162
  156.3618  130.3848  149.7245 LP  0  0  0  0  0  0  0  0  0  0  0  0  # atno 17370 bound_to 10713
  156.4689  130.7987  151.3005 LP  0  0  0  0  0  0  0  0  0  0  0  0  # atno 17371 bound_to 10713
  139.8741  134.9895  156.5459 LP  0  0  0  0  0  0  0  0  0  0  0  0  # atno 17394 bound_to 11000
  140.8239  133.8332  155.8921 LP  0  0  0  0  0  0  0  0  0  0  0  0  # atno 17395 bound_to 11000

$$$$
