AV-unprocessed.smi:2594|AV-procd|sdf|10167|dock6
  -GOLD-   2272014183D 1   1.00000     0.00000
 Structure written by MMmdl.
 29 30  0  0  0  0  0  0  0  0  1 V2000
  151.5324  141.0797  157.5521 O   0  0  0  0  0  0  0  0  0  0  0  0
  150.9797  142.1200  157.1904 C   0  0  0  0  0  0  0  0  0  0  0  0
  151.3714  143.4743  157.7966 C   0  0  0  0  0  0  0  0  0  0  0  0
  151.7930  143.3823  159.1952 N   0  0  0  0  0  0  0  0  0  0  0  0
  152.6607  142.3937  159.5417 N   0  0  0  0  0  0  0  0  0  0  0  0
  152.9335  142.4262  160.7933 C   0  0  0  0  0  0  0  0  0  0  0  0
  152.1487  143.7042  161.7301 S   0  0  0  0  0  0  0  0  0  0  0  0
  151.3707  144.2331  160.2129 C   0  0  0  0  0  0  0  0  0  0  0  0
  150.6032  145.1911  160.1414 O   0  0  0  0  0  0  0  0  0  0  0  0
  150.0290  142.1547  156.2447 N   0  0  0  0  0  0  0  0  0  0  0  0
  149.5196  140.9938  155.5240 C   0  0  0  0  0  0  0  0  0  0  0  0
  148.5480  141.4037  154.4051 C   0  0  1  0  0  0  0  0  0  0  0  0
  148.0759  140.2364  153.5420 C   0  0  0  0  0  0  0  0  0  0  0  0
  146.7881  140.7863  152.9724 C   0  0  0  0  0  0  0  0  0  0  0  0
  146.2280  141.5743  154.1544 C   0  0  0  0  0  0  0  0  0  0  0  0
  147.3498  141.9487  154.9516 O   0  0  0  0  0  0  0  0  0  0  0  0
  152.1697  143.9069  157.1911 H   0  0  0  0  0  0  0  0  0  0  0  0
  150.5262  144.1611  157.7261 H   0  0  0  0  0  0  0  0  0  0  0  0
  153.5978  141.7452  161.3248 H   0  0  0  0  0  0  0  0  0  0  0  0
  149.6351  143.0515  155.9995 H   0  0  0  0  0  0  0  0  0  0  0  0
  150.3514  140.4205  155.1112 H   0  0  0  0  0  0  0  0  0  0  0  0
  149.0165  140.3394  156.2367 H   0  0  0  0  0  0  0  0  0  0  0  0
  149.0011  142.1582  153.7595 H   0  0  0  0  0  0  0  0  0  0  0  0
  148.7978  139.9553  152.7749 H   0  0  0  0  0  0  0  0  0  0  0  0
  147.8678  139.3593  154.1568 H   0  0  0  0  0  0  0  0  0  0  0  0
  147.0065  141.4592  152.1423 H   0  0  0  0  0  0  0  0  0  0  0  0
  146.1095  140.0115  152.6145 H   0  0  0  0  0  0  0  0  0  0  0  0
  145.6606  142.4484  153.8337 H   0  0  0  0  0  0  0  0  0  0  0  0
  145.5704  140.9470  154.7575 H   0  0  0  0  0  0  0  0  0  0  0  0
  1  2  2  0  0  0  0
  2  3  1  0  0  0  0
  2 10  1  0  0  0  0
  3  4  1  0  0  0  0
  3 17  1  0  0  0  0
  3 18  1  0  0  0  0
  4  8  1  0  0  0  0
  4  5  1  0  0  0  0
  5  6  2  0  0  0  0
  6  7  1  0  0  0  0
  6 19  1  0  0  0  0
  7  8  1  0  0  0  0
  8  9  2  0  0  0  0
 10 11  1  0  0  0  0
 10 20  1  0  0  0  0
 11 12  1  0  0  0  0
 11 21  1  0  0  0  0
 11 22  1  0  0  0  0
 12 16  1  0  0  0  0
 12 13  1  0  0  0  0
 12 23  1  0  0  0  0
 13 14  1  0  0  0  0
 13 24  1  0  0  0  0
 13 25  1  0  0  0  0
 14 15  1  0  0  0  0
 14 26  1  0  0  0  0
 14 27  1  0  0  0  0
 15 16  1  0  0  0  0
 15 28  1  0  0  0  0
 15 29  1  0  0  0  0
M  END
> <s_m_source_file>
AV-unprocessed.smi

> <i_m_source_file_index>
2594

> <i_lp_mmshare_version>
43012

> <i_f3d_flags>
0

> <s_epik_input>
TzFbQ0gyXVtDSDJdW0NIMl1bQ0BIXTFbQ0gyXVtOSF1DKD1PKVtDSDJdbjJuW2NIXXNjMj1P

> <s_epik_cmdline>
J2VwaWtfcHl0aG9uJywgJy1waCcsICc3LjAnLCAnLXRuJywgJzgnLCAnLW1hJywgJzIwMCcsICctbWV0YWxfYmluZGluZycsICctaW1hZScsICc8aW5maWxlLm1hZT4nLCAnLW9tYWUnLCAnPG91dGZpbGUubWFlPic=

> <r_lp_tautomer_probability>
1

> <r_epik_Ionization_Penalty>
2.49222e-07

> <r_epik_Ionization_Penalty_Charging>
1.4085e-08

> <r_epik_Ionization_Penalty_Neutral>
2.35137e-07

> <r_epik_State_Penalty>
-0

> <r_epik_Charging_Adjusted_Penalty>
1.4085e-08

> <i_epik_Tot_Q>
0

> <i_epik_Tot_abs_Q>
0

> <r_epik_Metal_State_Penalty>
-0

> <b_epik_Metal_Only>
0

> <s_lp_Force_Field>
OPLS_2005

> <r_lp_Energy>
18.288

> <b_lp_Chiralities_Consistent>
1

> <s_lp_Variant>
AV-unprocessed.smi:2594-2

> <Gold.Version>
5.8.1

> <Gold.Id.Protein>
6NUR|6NUR_protein|mol2

> <Gold.PLP.Fitness>
37.2711

> <Gold.PLP.PLP>
-35.4250

> <Gold.PLP.part.hbond>
-1.0000

> <Gold.PLP.part.metal>
0.0000

> <Gold.PLP.part.buried>
-4.5533

> <Gold.PLP.part.nonpolar>
-30.1838

> <Gold.PLP.part.repulsive>
1.3107

> <Gold.PLP.ligand.clash>
0.0000

> <Gold.PLP.ligand.torsion>
0.5844

> <Gold.PLP.Chemscore.Hbond>
1.0000

> <Gold.PLP.Chemscore.CHOScore>
0.0000

> <Gold.PLP.Chemscore.Metal>
0.0000

> <Gold.Chemscore.Hbonds>
donor molecule, donor type, donor heavy atom, donor atom, acceptor molecule, acceptor atom, score
      L1  H    10    20       P1  8028  1.00

> <Gold.PLP.Chemscore.Internal.Correction>
0.0149

> <Gold.Rescore>
     Score         DG    S(hbond)    S(metal)    S(lipo)     H(rot)  DE(clash)    DE(int)     intcor
     10.06     -11.91       1.00        0.00      70.07       2.00       0.27       1.58       ----

> <Gold.Chemscore.Fitness>
10.0639

> <Gold.Chemscore.DG>
-11.9090

> <Gold.Chemscore.ZeroCoef>
-5.4800

> <Gold.Chemscore.Hbond>
0.9997

> <Gold.Chemscore.Metal>
0.0000

> <Gold.Chemscore.Lipo>
70.0657

> <Gold.Chemscore.Internal_Hbond>
0.0000

> <Gold.Chemscore.DEClash>
0.2677

> <Gold.Chemscore.DEInternal>
1.5774

> <Gold.Chemscore.Rot>
1.9952

> <Gold.Chemscore.Internal.Correction>
   9.000000E+99

> <Gold.Chemscore.Hbonds>
donor molecule, donor type, donor heavy atom, donor atom, acceptor molecule, acceptor atom, score
      L1  H    10    20       P1  8028  1.00

> <Gold.Chemscore.Hbond.Weighted>
-3.3391

> <Gold.Chemscore.Metal.Weighted>
-0.0000

> <Gold.Chemscore.Lipo.Weighted>
-8.1977

> <Gold.Chemscore.Internal_Hbond.Weighted>
0.0000

> <Gold.Chemscore.DEClash.Weighted>
0.2677

> <Gold.Chemscore.DEInternal.Weighted>
1.5774

> <Gold.Chemscore.Rot.Weighted>
5.1077

> <Gold.Chemscore.Internal.Correction.Weighted>
   9.000000E+99

> <Gold.Protein.RotatedTorsions>
[ 6907 6896 6895 6894 ] final  161.45 input  -60.11 | X-H torsion
[ 7974 7965 7964 7962 ] final   76.96 input  175.53 | X-H torsion
[ 8008 7997 7996 7995 ] final  161.76 input   59.86 | X-H torsion
[ 10167 10162 10161 10158 ] final  -67.77 input  -65.29 | X-H torsion
[ 10718 10713 10712 10709 ] final   27.42 input   66.30 | X-H torsion
[ 10763 10752 10751 10750 ] final  137.06 input  -60.55 | X-H torsion
[ 11005 11000 10999 10996 ] final -157.46 input  -57.11 | X-H torsion

> <Gold.Protein.ActiveResidues>
 VAL166  LYS551  ARG553  GLY616  TRP617  ASP618  TYR619  PRO620  LYS621  CYS622 
 ASP623  PHE694  ASN695  SER759  ASP760  ASP761  ALA762  ILE779  LEU786  VAL792 
 PHE793  MET794  SER795  GLU796  ALA797  LYS798  CYS799  TRP800  GLU811  SER814 

> <Gold.Protein.RotatedAtoms>
  151.9555  133.3679  159.4015 H   0  0  0  0  0  0  0  0  0  0  0  0  # atno 6907 bound_to 6896
  150.6973  134.4296  159.5251 H   0  0  0  0  0  0  0  0  0  0  0  0  # atno 6908 bound_to 6896
  152.1976  134.8617  160.0562 H   0  0  0  0  0  0  0  0  0  0  0  0  # atno 6909 bound_to 6896
  145.6962  139.2568  143.1731 H   0  0  0  0  0  0  0  0  0  0  0  0  # atno 7974 bound_to 7965
  156.2080  140.1769  156.7757 H   0  0  0  0  0  0  0  0  0  0  0  0  # atno 8008 bound_to 7997
  154.5683  140.0687  156.8955 H   0  0  0  0  0  0  0  0  0  0  0  0  # atno 8009 bound_to 7997
  155.2721  140.3343  155.4267 H   0  0  0  0  0  0  0  0  0  0  0  0  # atno 8010 bound_to 7997
  140.5558  143.2312  151.6825 H   0  0  0  0  0  0  0  0  0  0  0  0  # atno 10167 bound_to 10162
  157.2199  130.6974  149.6265 H   0  0  0  0  0  0  0  0  0  0  0  0  # atno 10718 bound_to 10713
  153.8668  135.3060  155.3440 H   0  0  0  0  0  0  0  0  0  0  0  0  # atno 10763 bound_to 10752
  154.7824  135.4828  153.9875 H   0  0  0  0  0  0  0  0  0  0  0  0  # atno 10764 bound_to 10752
  153.1429  135.6828  153.9094 H   0  0  0  0  0  0  0  0  0  0  0  0  # atno 10765 bound_to 10752
  140.6644  134.4315  157.5233 H   0  0  0  0  0  0  0  0  0  0  0  0  # atno 11005 bound_to 11000
  146.0838  140.7733  142.9628 LP  0  0  0  0  0  0  0  0  0  0  0  0  # atno 17320 bound_to 7965
  144.6982  140.3531  143.7178 LP  0  0  0  0  0  0  0  0  0  0  0  0  # atno 17321 bound_to 7965
  139.5047  144.3744  152.0438 LP  0  0  0  0  0  0  0  0  0  0  0  0  # atno 17342 bound_to 10162
  140.2866  144.3801  150.6102 LP  0  0  0  0  0  0  0  0  0  0  0  0  # atno 17343 bound_to 10162
  155.9683  130.4523  150.5769 LP  0  0  0  0  0  0  0  0  0  0  0  0  # atno 17370 bound_to 10713
  157.3586  131.0746  151.1655 LP  0  0  0  0  0  0  0  0  0  0  0  0  # atno 17371 bound_to 10713
  139.9002  134.8573  156.1928 LP  0  0  0  0  0  0  0  0  0  0  0  0  # atno 17394 bound_to 11000
  141.0441  133.6922  156.1651 LP  0  0  0  0  0  0  0  0  0  0  0  0  # atno 17395 bound_to 11000

$$$$
