AV-unprocessed.smi:2144|AV-procd|sdf|8733|dock4
  -GOLD-   2272011503D 1   1.00000     0.00000
 Structure written by MMmdl.
 41 43  0  0  0  0  0  0  0  0  2 V2000
  150.8248  140.0486  154.6683 O   0  0  0  0  0  0  0  0  0  0  0  0
  149.9247  140.7055  155.5364 C   0  0  0  0  0  0  0  0  0  0  0  0
  150.6081  141.5426  156.5712 C   0  0  0  0  0  0  0  0  0  0  0  0
  150.3864  142.8664  156.8148 N   0  3  0  0  0  0  0  0  0  0  0  0
  151.2136  143.3039  157.8497 C   0  0  0  0  0  0  0  0  0  0  0  0
  151.3470  144.5548  158.4440 C   0  0  0  0  0  0  0  0  0  0  0  0
  152.2952  144.6636  159.4825 C   0  0  0  0  0  0  0  0  0  0  0  0
  153.0656  143.5561  159.8928 C   0  0  0  0  0  0  0  0  0  0  0  0
  152.9200  142.2921  159.2835 C   0  0  0  0  0  0  0  0  0  0  0  0
  151.9802  142.1934  158.2579 C   0  0  0  0  0  0  0  0  0  0  0  0
  151.5711  141.1301  157.4456 N   0  0  0  0  0  0  0  0  0  0  0  0
  152.1938  139.8091  157.6270 C   0  0  0  0  0  0  0  0  0  0  0  0
  152.2575  139.3702  159.1040 C   0  0  1  0  0  0  0  0  0  0  0  0
  151.7018  138.0752  159.2203 O   0  0  0  0  0  0  0  0  0  0  0  0
  153.7010  139.3357  159.6309 C   0  0  0  0  0  0  0  0  0  0  0  0
  153.7699  138.4164  160.7130 O   0  0  0  0  0  0  0  0  0  0  0  0
  154.4473  138.7938  161.8532 C   0  0  0  0  0  0  0  0  0  0  0  0
  154.9428  140.1018  162.0884 C   0  0  0  0  0  0  0  0  0  0  0  0
  155.6246  140.4023  163.2840 C   0  0  0  0  0  0  0  0  0  0  0  0
  155.8199  139.4047  164.2567 C   0  0  0  0  0  0  0  0  0  0  0  0
  155.3321  138.1043  164.0323 C   0  0  0  0  0  0  0  0  0  0  0  0
  154.6500  137.8025  162.8376 C   0  0  0  0  0  0  0  0  0  0  0  0
  154.1847  136.5468  162.6347 F   0  0  0  0  0  0  0  0  0  0  0  0
  150.5448  139.1511  154.5684 H   0  0  0  0  0  0  0  0  0  0  0  0
  149.2622  141.3353  154.9425 H   0  0  0  0  0  0  0  0  0  0  0  0
  149.3045  139.9602  156.0350 H   0  0  0  0  0  0  0  0  0  0  0  0
  150.7581  145.4045  158.1309 H   0  0  0  0  0  0  0  0  0  0  0  0
  152.4346  145.6157  159.9739 H   0  0  0  0  0  0  0  0  0  0  0  0
  153.7827  143.6781  160.6916 H   0  0  0  0  0  0  0  0  0  0  0  0
  153.5140  141.4494  159.6054 H   0  0  0  0  0  0  0  0  0  0  0  0
  151.6220  139.0879  157.0416 H   0  0  0  0  0  0  0  0  0  0  0  0
  153.1909  139.8376  157.1855 H   0  0  0  0  0  0  0  0  0  0  0  0
  151.6677  140.0598  159.7091 H   0  0  0  0  0  0  0  0  0  0  0  0
  152.1449  137.5034  158.6125 H   0  0  0  0  0  0  0  0  0  0  0  0
  154.3993  139.0765  158.8329 H   0  0  0  0  0  0  0  0  0  0  0  0
  153.9721  140.3247  160.0042 H   0  0  0  0  0  0  0  0  0  0  0  0
  154.8130  140.8941  161.3672 H   0  0  0  0  0  0  0  0  0  0  0  0
  155.9986  141.4011  163.4545 H   0  0  0  0  0  0  0  0  0  0  0  0
  156.3428  139.6361  165.1731 H   0  0  0  0  0  0  0  0  0  0  0  0
  155.4813  137.3362  164.7766 H   0  0  0  0  0  0  0  0  0  0  0  0
  149.7141  143.4246  156.3043 H   0  0  0  0  0  0  0  0  0  0  0  0
  1  2  1  0  0  0  0
  1 24  1  0  0  0  0
  2  3  1  0  0  0  0
  2 25  1  0  0  0  0
  2 26  1  0  0  0  0
  3 11  1  0  0  0  0
  3  4  2  0  0  0  0
  4  5  1  0  0  0  0
  4 41  1  0  0  0  0
  5 10  2  0  0  0  0
  5  6  1  0  0  0  0
  6  7  2  0  0  0  0
  6 27  1  0  0  0  0
  7  8  1  0  0  0  0
  7 28  1  0  0  0  0
  8  9  2  0  0  0  0
  8 29  1  0  0  0  0
  9 10  1  0  0  0  0
  9 30  1  0  0  0  0
 10 11  1  0  0  0  0
 11 12  1  0  0  0  0
 12 13  1  0  0  0  0
 12 31  1  0  0  0  0
 12 32  1  0  0  0  0
 13 14  1  0  0  0  0
 13 15  1  0  0  0  0
 13 33  1  0  0  0  0
 14 34  1  0  0  0  0
 15 16  1  0  0  0  0
 15 35  1  0  0  0  0
 15 36  1  0  0  0  0
 16 17  1  0  0  0  0
 17 22  1  0  0  0  0
 17 18  2  0  0  0  0
 18 19  1  0  0  0  0
 18 37  1  0  0  0  0
 19 20  2  0  0  0  0
 19 38  1  0  0  0  0
 20 21  1  0  0  0  0
 20 39  1  0  0  0  0
 21 22  2  0  0  0  0
 21 40  1  0  0  0  0
 22 23  1  0  0  0  0
M  CHG  1   4   1
M  END
> <s_m_source_file>
AV-unprocessed.smi

> <i_m_source_file_index>
2144

> <i_lp_mmshare_version>
43012

> <i_f3d_flags>
0

> <s_epik_input>
W2NIXTFbY0hdW2NIXVtjSF1jKGMxMiluKGMobjIpW0NIMl1bT0hdKVtDSDJdW0NASF0oW09IXSlbQ0gyXU9jM1tjSF1bY0hdW2NIXVtjSF1jM0Y=

> <s_epik_cmdline>
J2VwaWtfcHl0aG9uJywgJy1waCcsICc3LjAnLCAnLXRuJywgJzgnLCAnLW1hJywgJzIwMCcsICctbWV0YWxfYmluZGluZycsICctaW1hZScsICc8aW5maWxlLm1hZT4nLCAnLW9tYWUnLCAnPG91dGZpbGUubWFlPic=

> <r_lp_tautomer_probability>
1

> <r_epik_Ionization_Penalty>
1.44003

> <r_epik_Ionization_Penalty_Charging>
1.43917

> <r_epik_Ionization_Penalty_Neutral>
0.000858184

> <r_epik_State_Penalty>
1.52442

> <r_epik_Charging_Adjusted_Penalty>
2.96359

> <i_epik_Tot_Q>
1

> <i_epik_Tot_abs_Q>
1

> <r_epik_Metal_State_Penalty>
5.57019

> <b_epik_Metal_Only>
0

> <s_lp_Force_Field>
OPLS_2005

> <r_lp_Energy>
20.1924

> <b_lp_Chiralities_Consistent>
1

> <s_lp_Variant>
AV-unprocessed.smi:2144-4

> <Gold.Version>
5.8.1

> <Gold.Id.Protein>
6NUR|6NUR_protein|mol2

> <Gold.PLP.Fitness>
54.5182

> <Gold.PLP.PLP>
-48.5195

> <Gold.PLP.part.hbond>
-2.0000

> <Gold.PLP.part.metal>
0.0000

> <Gold.PLP.part.buried>
-6.4170

> <Gold.PLP.part.nonpolar>
-41.1290

> <Gold.PLP.part.repulsive>
0.0374

> <Gold.PLP.ligand.clash>
0.0000

> <Gold.PLP.ligand.torsion>
1.5520

> <Gold.PLP.Chemscore.Hbond>
3.0000

> <Gold.PLP.Chemscore.CHOScore>
0.0000

> <Gold.PLP.Chemscore.Metal>
0.0000

> <Gold.Chemscore.Hbonds>
donor molecule, donor type, donor heavy atom, donor atom, acceptor molecule, acceptor atom, score
      L1  H     4    41       P1  8028  2.00
      P1  H  7989  7998       L1     1  1.00

> <Gold.PLP.Chemscore.Internal.Correction>
0.1027

> <Gold.Rescore>
     Score         DG    S(hbond)    S(metal)    S(lipo)     H(rot)  DE(clash)    DE(int)     intcor
     17.84     -19.24       1.99        0.00     133.26       3.31       0.05       1.35       ----

> <Gold.Chemscore.Fitness>
17.8376

> <Gold.Chemscore.DG>
-19.2403

> <Gold.Chemscore.ZeroCoef>
-5.4800

> <Gold.Chemscore.Hbond>
1.9913

> <Gold.Chemscore.Metal>
0.0000

> <Gold.Chemscore.Lipo>
133.2617

> <Gold.Chemscore.Internal_Hbond>
0.0000

> <Gold.Chemscore.DEClash>
0.0544

> <Gold.Chemscore.DEInternal>
1.3482

> <Gold.Chemscore.Rot>
3.3134

> <Gold.Chemscore.Internal.Correction>
   9.000000E+99

> <Gold.Chemscore.Hbonds>
donor molecule, donor type, donor heavy atom, donor atom, acceptor molecule, acceptor atom, score
      L1  H     4    41       P1  8028  1.00
      P1  H  7989  7998       L1     1  0.97

> <Gold.Chemscore.Hbond.Weighted>
-6.6510

> <Gold.Chemscore.Metal.Weighted>
-0.0000

> <Gold.Chemscore.Lipo.Weighted>
-15.5916

> <Gold.Chemscore.Internal_Hbond.Weighted>
0.0000

> <Gold.Chemscore.DEClash.Weighted>
0.0544

> <Gold.Chemscore.DEInternal.Weighted>
1.3482

> <Gold.Chemscore.Rot.Weighted>
8.4823

> <Gold.Chemscore.Internal.Correction.Weighted>
   9.000000E+99

> <Gold.Protein.RotatedTorsions>
[ 6907 6896 6895 6894 ] final -108.06 input  -60.11 | X-H torsion
[ 7974 7965 7964 7962 ] final  150.66 input  175.53 | X-H torsion
[ 8008 7997 7996 7995 ] final  145.12 input   59.86 | X-H torsion
[ 10167 10162 10161 10158 ] final -148.53 input  -65.29 | X-H torsion
[ 10718 10713 10712 10709 ] final  128.34 input   66.30 | X-H torsion
[ 10763 10752 10751 10750 ] final   -0.79 input  -60.55 | X-H torsion
[ 11005 11000 10999 10996 ] final  -15.64 input  -57.11 | X-H torsion

> <Gold.Protein.ActiveResidues>
 VAL166  LYS551  ARG553  GLY616  TRP617  ASP618  TYR619  PRO620  LYS621  CYS622 
 ASP623  PHE694  ASN695  SER759  ASP760  ASP761  ALA762  ILE779  LEU786  VAL792 
 PHE793  MET794  SER795  GLU796  ALA797  LYS798  CYS799  TRP800  GLU811  SER814 

> <Gold.Protein.RotatedAtoms>
  150.7479  133.9734  159.3552 H   0  0  0  0  0  0  0  0  0  0  0  0  # atno 6907 bound_to 6896
  151.7669  135.0794  160.0363 H   0  0  0  0  0  0  0  0  0  0  0  0  # atno 6908 bound_to 6896
  152.3365  133.5980  159.5882 H   0  0  0  0  0  0  0  0  0  0  0  0  # atno 6909 bound_to 6896
  144.8348  139.6437  143.6043 H   0  0  0  0  0  0  0  0  0  0  0  0  # atno 7974 bound_to 7965
  156.2891  140.2217  156.5164 H   0  0  0  0  0  0  0  0  0  0  0  0  # atno 8008 bound_to 7997
  154.7566  140.0476  157.0960 H   0  0  0  0  0  0  0  0  0  0  0  0  # atno 8009 bound_to 7997
  155.0043  140.3105  155.4858 H   0  0  0  0  0  0  0  0  0  0  0  0  # atno 8010 bound_to 7997
  139.7524  143.8499  152.2589 H   0  0  0  0  0  0  0  0  0  0  0  0  # atno 10167 bound_to 10162
  157.5254  131.1098  150.9091 H   0  0  0  0  0  0  0  0  0  0  0  0  # atno 10718 bound_to 10713
  153.3364  135.6978  153.6904 H   0  0  0  0  0  0  0  0  0  0  0  0  # atno 10763 bound_to 10752
  153.5686  135.3520  155.2829 H   0  0  0  0  0  0  0  0  0  0  0  0  # atno 10764 bound_to 10752
  154.8628  135.4267  154.2566 H   0  0  0  0  0  0  0  0  0  0  0  0  # atno 10765 bound_to 10752
  140.7987  133.8231  155.9449 H   0  0  0  0  0  0  0  0  0  0  0  0  # atno 11005 bound_to 11000
  146.2648  139.6493  142.9337 LP  0  0  0  0  0  0  0  0  0  0  0  0  # atno 17320 bound_to 7965
  145.4818  141.0438  143.2641 LP  0  0  0  0  0  0  0  0  0  0  0  0  # atno 17321 bound_to 7965
  139.8481  144.7178  150.9248 LP  0  0  0  0  0  0  0  0  0  0  0  0  # atno 17342 bound_to 10162
  140.7799  143.3924  151.1288 LP  0  0  0  0  0  0  0  0  0  0  0  0  # atno 17343 bound_to 10162
  156.9689  130.5483  149.5289 LP  0  0  0  0  0  0  0  0  0  0  0  0  # atno 17370 bound_to 10713
  156.0383  130.5468  150.8708 LP  0  0  0  0  0  0  0  0  0  0  0  0  # atno 17371 bound_to 10713
  140.9317  134.2013  157.4859 LP  0  0  0  0  0  0  0  0  0  0  0  0  # atno 17394 bound_to 11000
  139.8724  134.9835  156.5202 LP  0  0  0  0  0  0  0  0  0  0  0  0  # atno 17395 bound_to 11000

$$$$
