AV-unprocessed.smi:3084|AV-procd|sdf|11748|dock2
  -GOLD-   2272017143D 1   1.00000     0.00000
 Structure written by MMmdl.
 27 28  0  0  0  0  0  0  0  0  2 V2000
  152.1674  139.3127  155.3879 C   0  0  0  0  0  0  0  0  0  0  0  0
  152.7511  139.1022  156.6052 N   0  0  0  0  0  0  0  0  0  0  0  0
  152.1709  140.0703  157.3002 C   0  0  0  0  0  0  0  0  0  0  0  0
  151.3231  140.8122  156.5854 N   0  0  0  0  0  0  0  0  0  0  0  0
  150.4929  141.9376  156.9737 C   0  0  0  0  0  0  0  0  0  0  0  0
  151.2704  143.0277  157.7398 C   0  0  2  0  0  0  0  0  0  0  0  0
  151.8895  142.5150  159.0605 C   0  0  0  0  0  0  0  0  0  0  0  0
  152.6061  143.6427  159.8195 C   0  0  0  0  0  0  0  0  0  0  0  0
  151.6567  144.8293  160.0371 C   0  0  0  0  0  0  0  0  0  0  0  0
  151.0614  145.3003  158.7009 C   0  0  0  0  0  0  0  0  0  0  0  0
  150.3827  144.1836  158.0072 N   0  3  0  0  0  0  0  0  0  0  0  0
  151.2992  140.3225  155.3236 N   0  0  0  0  0  0  0  0  0  0  0  0
  152.3870  138.7023  154.5242 H   0  0  0  0  0  0  0  0  0  0  0  0
  152.3696  140.2421  158.3481 H   0  0  0  0  0  0  0  0  0  0  0  0
  150.0444  142.3545  156.0709 H   0  0  0  0  0  0  0  0  0  0  0  0
  149.6718  141.5611  157.5855 H   0  0  0  0  0  0  0  0  0  0  0  0
  152.0768  143.3856  157.0975 H   0  0  0  0  0  0  0  0  0  0  0  0
  151.1092  142.0889  159.6928 H   0  0  0  0  0  0  0  0  0  0  0  0
  152.5995  141.7111  158.8633 H   0  0  0  0  0  0  0  0  0  0  0  0
  152.9762  143.2760  160.7774 H   0  0  0  0  0  0  0  0  0  0  0  0
  153.4788  143.9699  159.2527 H   0  0  0  0  0  0  0  0  0  0  0  0
  150.8537  144.5373  160.7155 H   0  0  0  0  0  0  0  0  0  0  0  0
  152.1876  145.6501  160.5204 H   0  0  0  0  0  0  0  0  0  0  0  0
  150.3438  146.1036  158.8686 H   0  0  0  0  0  0  0  0  0  0  0  0
  151.8445  145.7014  158.0560 H   0  0  0  0  0  0  0  0  0  0  0  0
  150.0169  144.5227  157.1288 H   0  0  0  0  0  0  0  0  0  0  0  0
  149.6129  143.8707  158.5811 H   0  0  0  0  0  0  0  0  0  0  0  0
  1 12  2  0  0  0  0
  1  2  1  0  0  0  0
  1 13  1  0  0  0  0
  2  3  2  0  0  0  0
  3  4  1  0  0  0  0
  3 14  1  0  0  0  0
  4  5  1  0  0  0  0
  4 12  1  0  0  0  0
  5  6  1  0  0  0  0
  5 15  1  0  0  0  0
  5 16  1  0  0  0  0
  6 11  1  0  0  0  0
  6  7  1  0  0  0  0
  6 17  1  0  0  0  0
  7  8  1  0  0  0  0
  7 18  1  0  0  0  0
  7 19  1  0  0  0  0
  8  9  1  0  0  0  0
  8 20  1  0  0  0  0
  8 21  1  0  0  0  0
  9 10  1  0  0  0  0
  9 22  1  0  0  0  0
  9 23  1  0  0  0  0
 10 11  1  0  0  0  0
 10 24  1  0  0  0  0
 10 25  1  0  0  0  0
 11 26  1  0  0  0  0
 11 27  1  0  0  0  0
M  CHG  1  11   1
M  END
> <s_m_source_file>
AV-unprocessed.smi

> <i_m_source_file_index>
3084

> <i_lp_mmshare_version>
43012

> <i_f3d_flags>
0

> <s_epik_input>
bjFbY0hdbltjSF1uMVtDSDJdW0NAQEhdMltDSDJdW0NIMl1bQ0gyXVtDSDJdW05IXTI=

> <s_epik_cmdline>
J2VwaWtfcHl0aG9uJywgJy1waCcsICc3LjAnLCAnLXRuJywgJzgnLCAnLW1hJywgJzIwMCcsICctbWV0YWxfYmluZGluZycsICctaW1hZScsICc8aW5maWxlLm1hZT4nLCAnLW9tYWUnLCAnPG91dGZpbGUubWFlPic=

> <r_lp_tautomer_probability>
1

> <r_epik_Ionization_Penalty>
0.000475214

> <r_epik_Ionization_Penalty_Charging>
0.000474443

> <r_epik_Ionization_Penalty_Neutral>
7.70992e-07

> <r_epik_State_Penalty>
0.000294136

> <r_epik_Charging_Adjusted_Penalty>
0.000768579

> <i_epik_Tot_Q>
1

> <i_epik_Tot_abs_Q>
1

> <r_epik_Metal_State_Penalty>
-0

> <b_epik_Metal_Only>
0

> <s_lp_Force_Field>
OPLS_2005

> <r_lp_Energy>
15.8084

> <b_lp_Chiralities_Consistent>
1

> <s_lp_Variant>
AV-unprocessed.smi:3084-1

> <Gold.Version>
5.8.1

> <Gold.Id.Protein>
6NUR|6NUR_protein|mol2

> <Gold.PLP.Fitness>
41.0459

> <Gold.PLP.PLP>
-30.5388

> <Gold.PLP.part.hbond>
-3.7049

> <Gold.PLP.part.metal>
0.0000

> <Gold.PLP.part.buried>
-3.3447

> <Gold.PLP.part.nonpolar>
-23.2346

> <Gold.PLP.part.repulsive>
0.0844

> <Gold.PLP.ligand.clash>
0.0000

> <Gold.PLP.ligand.torsion>
0.1146

> <Gold.PLP.Chemscore.Hbond>
3.5772

> <Gold.PLP.Chemscore.CHOScore>
0.0000

> <Gold.PLP.Chemscore.Metal>
0.0000

> <Gold.Chemscore.Hbonds>
donor molecule, donor type, donor heavy atom, donor atom, acceptor molecule, acceptor atom, score
      L1  H    11    26       P1  8028  2.00
      P1  H  7989  7998       L1    12  0.89
      P1  H  7997  8008       L1     2  0.65

> <Gold.PLP.Chemscore.Internal.Correction>
0.0047

> <Gold.Rescore>
     Score         DG    S(hbond)    S(metal)    S(lipo)     H(rot)  DE(clash)    DE(int)     intcor
     14.37     -14.60       1.77        0.00      60.38       1.51       0.13       0.10       ----

> <Gold.Chemscore.Fitness>
14.3690

> <Gold.Chemscore.DG>
-14.6010

> <Gold.Chemscore.ZeroCoef>
-5.4800

> <Gold.Chemscore.Hbond>
1.7705

> <Gold.Chemscore.Metal>
0.0000

> <Gold.Chemscore.Lipo>
60.3805

> <Gold.Chemscore.Internal_Hbond>
0.0000

> <Gold.Chemscore.DEClash>
0.1343

> <Gold.Chemscore.DEInternal>
0.0977

> <Gold.Chemscore.Rot>
1.5066

> <Gold.Chemscore.Internal.Correction>
   9.000000E+99

> <Gold.Chemscore.Hbonds>
donor molecule, donor type, donor heavy atom, donor atom, acceptor molecule, acceptor atom, score
      L1  H    11    26       P1  8028  0.45
      P1  H  7989  7998       L1    12  0.17
      P1  H  7997  8008       L1     2  0.01

> <Gold.Chemscore.Hbond.Weighted>
-5.9134

> <Gold.Chemscore.Metal.Weighted>
-0.0000

> <Gold.Chemscore.Lipo.Weighted>
-7.0645

> <Gold.Chemscore.Internal_Hbond.Weighted>
0.0000

> <Gold.Chemscore.DEClash.Weighted>
0.1343

> <Gold.Chemscore.DEInternal.Weighted>
0.0977

> <Gold.Chemscore.Rot.Weighted>
3.8569

> <Gold.Chemscore.Internal.Correction.Weighted>
   9.000000E+99

> <Gold.Protein.RotatedTorsions>
[ 6907 6896 6895 6894 ] final  169.77 input  -60.11 | X-H torsion
[ 7974 7965 7964 7962 ] final   36.23 input  175.53 | X-H torsion
[ 8008 7997 7996 7995 ] final  -44.50 input   59.86 | X-H torsion
[ 10167 10162 10161 10158 ] final -141.35 input  -65.29 | X-H torsion
[ 10718 10713 10712 10709 ] final   83.92 input   66.30 | X-H torsion
[ 10763 10752 10751 10750 ] final  -81.13 input  -60.55 | X-H torsion
[ 11005 11000 10999 10996 ] final   77.29 input  -57.11 | X-H torsion

> <Gold.Protein.ActiveResidues>
 VAL166  LYS551  ARG553  GLY616  TRP617  ASP618  TYR619  PRO620  LYS621  CYS622 
 ASP623  PHE694  ASN695  SER759  ASP760  ASP761  ALA762  ILE779  LEU786  VAL792 
 PHE793  MET794  SER795  GLU796  ALA797  LYS798  CYS799  TRP800  GLU811  SER814 

> <Gold.Protein.RotatedAtoms>
  151.8266  133.3402  159.3600 H   0  0  0  0  0  0  0  0  0  0  0  0  # atno 6907 bound_to 6896
  150.7277  134.5522  159.5810 H   0  0  0  0  0  0  0  0  0  0  0  0  # atno 6908 bound_to 6896
  152.2966  134.7660  160.0418 H   0  0  0  0  0  0  0  0  0  0  0  0  # atno 6909 bound_to 6896
  146.1226  139.6043  142.9280 H   0  0  0  0  0  0  0  0  0  0  0  0  # atno 7974 bound_to 7965
  154.3997  140.1420  156.3693 H   0  0  0  0  0  0  0  0  0  0  0  0  # atno 8008 bound_to 7997
  155.8107  140.3473  155.5435 H   0  0  0  0  0  0  0  0  0  0  0  0  # atno 8009 bound_to 7997
  155.8389  140.0923  157.1737 H   0  0  0  0  0  0  0  0  0  0  0  0  # atno 8010 bound_to 7997
  139.8193  143.7596  152.2666 H   0  0  0  0  0  0  0  0  0  0  0  0  # atno 10167 bound_to 10162
  157.6888  131.0111  150.2596 H   0  0  0  0  0  0  0  0  0  0  0  0  # atno 10718 bound_to 10713
  154.5598  135.5637  153.6996 H   0  0  0  0  0  0  0  0  0  0  0  0  # atno 10763 bound_to 10752
  153.0014  135.6271  154.2261 H   0  0  0  0  0  0  0  0  0  0  0  0  # atno 10764 bound_to 10752
  154.2198  135.2870  155.2908 H   0  0  0  0  0  0  0  0  0  0  0  0  # atno 10765 bound_to 10752
  139.9261  134.7671  156.1504 H   0  0  0  0  0  0  0  0  0  0  0  0  # atno 11005 bound_to 11000
  145.5434  141.0419  143.2318 LP  0  0  0  0  0  0  0  0  0  0  0  0  # atno 17320 bound_to 7965
  144.7611  139.6954  143.7234 LP  0  0  0  0  0  0  0  0  0  0  0  0  # atno 17321 bound_to 7965
  139.7769  144.7458  151.0143 LP  0  0  0  0  0  0  0  0  0  0  0  0  # atno 17342 bound_to 10162
  140.7814  143.4584  151.0313 LP  0  0  0  0  0  0  0  0  0  0  0  0  # atno 17343 bound_to 10162
  156.3177  130.3781  149.7603 LP  0  0  0  0  0  0  0  0  0  0  0  0  # atno 17370 bound_to 10713
  156.5183  130.8203  151.3194 LP  0  0  0  0  0  0  0  0  0  0  0  0  # atno 17371 bound_to 10713
  141.0819  133.6751  156.2353 LP  0  0  0  0  0  0  0  0  0  0  0  0  # atno 17394 bound_to 11000
  140.6334  134.5241  157.5562 LP  0  0  0  0  0  0  0  0  0  0  0  0  # atno 17395 bound_to 11000

$$$$
