AV-unprocessed.smi:2782|AV-procd|sdf|10721|dock1
  -GOLD-   2272015163D 1   1.00000     0.00000
 Structure written by MMmdl.
 38 39  0  0  0  0  0  0  0  0  1 V2000
  151.1364  144.1876  157.6596 C   0  0  0  0  0  0  0  0  0  0  0  0
  151.6609  143.7857  159.0228 C   0  0  0  0  0  0  0  0  0  0  0  0
  151.3054  144.5242  160.1685 C   0  0  0  0  0  0  0  0  0  0  0  0
  151.7970  144.1420  161.4297 C   0  0  0  0  0  0  0  0  0  0  0  0
  152.6432  143.0226  161.5509 C   0  0  0  0  0  0  0  0  0  0  0  0
  153.2311  142.5741  163.1121 Cl  0  0  0  0  0  0  0  0  0  0  0  0
  153.0099  142.2724  160.4115 C   0  0  0  0  0  0  0  0  0  0  0  0
  153.8407  141.1893  160.6077 O   0  0  0  0  0  0  0  0  0  0  0  0
  154.4479  140.5818  159.4739 C   0  0  0  0  0  0  0  0  0  0  0  0
  154.9880  139.1922  159.8526 C   0  0  2  0  0  0  0  0  0  0  0  0
  155.6926  138.6814  158.7386 O   0  0  0  0  0  0  0  0  0  0  0  0
  153.8785  138.2081  160.2837 C   0  0  0  0  0  0  0  0  0  0  0  0
  154.3366  137.2809  161.3248 N   0  0  0  0  0  0  0  0  0  0  0  0
  154.5214  137.8719  162.5631 N   0  0  0  0  0  0  0  0  0  0  0  0
  154.9221  137.1800  163.5790 C   0  0  0  0  0  0  0  0  0  0  0  0
  155.0962  137.8986  164.8841 C   0  0  0  0  0  0  0  0  0  0  0  0
  155.1836  135.7622  163.4188 C   0  0  0  0  0  0  0  0  0  0  0  0
  154.9996  135.1880  162.2106 C   0  0  0  0  0  0  0  0  0  0  0  0
  154.5431  135.9582  161.0556 C   0  0  0  0  0  0  0  0  0  0  0  0
  154.3565  135.4626  159.9445 O   0  0  0  0  0  0  0  0  0  0  0  0
  152.5105  142.6670  159.1442 C   0  0  0  0  0  0  0  0  0  0  0  0
  150.4235  145.0095  157.7330 H   0  0  0  0  0  0  0  0  0  0  0  0
  150.6346  143.3447  157.1831 H   0  0  0  0  0  0  0  0  0  0  0  0
  151.9587  144.5054  157.0183 H   0  0  0  0  0  0  0  0  0  0  0  0
  150.6566  145.3838  160.0857 H   0  0  0  0  0  0  0  0  0  0  0  0
  151.5229  144.7094  162.3069 H   0  0  0  0  0  0  0  0  0  0  0  0
  153.7451  140.5037  158.6426 H   0  0  0  0  0  0  0  0  0  0  0  0
  155.2827  141.2030  159.1451 H   0  0  0  0  0  0  0  0  0  0  0  0
  155.7102  139.3248  160.6589 H   0  0  0  0  0  0  0  0  0  0  0  0
  156.1812  137.9221  159.0172 H   0  0  0  0  0  0  0  0  0  0  0  0
  153.0212  138.7668  160.6641 H   0  0  0  0  0  0  0  0  0  0  0  0
  153.4956  137.6623  159.4189 H   0  0  0  0  0  0  0  0  0  0  0  0
  155.3377  137.2031  165.6882 H   0  0  0  0  0  0  0  0  0  0  0  0
  154.1838  138.4266  165.1634 H   0  0  0  0  0  0  0  0  0  0  0  0
  155.9037  138.6284  164.8193 H   0  0  0  0  0  0  0  0  0  0  0  0
  155.5217  135.1790  164.2626 H   0  0  0  0  0  0  0  0  0  0  0  0
  155.1942  134.1322  162.0924 H   0  0  0  0  0  0  0  0  0  0  0  0
  152.7656  142.1241  158.2469 H   0  0  0  0  0  0  0  0  0  0  0  0
  1  2  1  0  0  0  0
  1 22  1  0  0  0  0
  1 23  1  0  0  0  0
  1 24  1  0  0  0  0
  2 21  1  0  0  0  0
  2  3  2  0  0  0  0
  3  4  1  0  0  0  0
  3 25  1  0  0  0  0
  4  5  2  0  0  0  0
  4 26  1  0  0  0  0
  5  6  1  0  0  0  0
  5  7  1  0  0  0  0
  7  8  1  0  0  0  0
  7 21  2  0  0  0  0
  8  9  1  0  0  0  0
  9 10  1  0  0  0  0
  9 27  1  0  0  0  0
  9 28  1  0  0  0  0
 10 11  1  0  0  0  0
 10 12  1  0  0  0  0
 10 29  1  0  0  0  0
 11 30  1  0  0  0  0
 12 13  1  0  0  0  0
 12 31  1  0  0  0  0
 12 32  1  0  0  0  0
 13 19  1  0  0  0  0
 13 14  1  0  0  0  0
 14 15  2  0  0  0  0
 15 16  1  0  0  0  0
 15 17  1  0  0  0  0
 16 33  1  0  0  0  0
 16 34  1  0  0  0  0
 16 35  1  0  0  0  0
 17 18  2  0  0  0  0
 17 36  1  0  0  0  0
 18 19  1  0  0  0  0
 18 37  1  0  0  0  0
 19 20  2  0  0  0  0
 21 38  1  0  0  0  0
M  END
> <s_m_source_file>
AV-unprocessed.smi

> <i_m_source_file_index>
2782

> <i_lp_mmshare_version>
43012

> <i_f3d_flags>
0

> <s_epik_input>
W0NIM11jMVtjSF1bY0hdYyhDbCljKFtjSF0xKU9bQ0gyXVtDQEhdKFtPSF0pW0NIMl1uMm5jKFtDSDNdKVtjSF1bY0hdYzI9Tw==

> <s_epik_cmdline>
J2VwaWtfcHl0aG9uJywgJy1waCcsICc3LjAnLCAnLXRuJywgJzgnLCAnLW1hJywgJzIwMCcsICctbWV0YWxfYmluZGluZycsICctaW1hZScsICc8aW5maWxlLm1hZT4nLCAnLW9tYWUnLCAnPG91dGZpbGUubWFlPic=

> <r_lp_tautomer_probability>
1

> <r_epik_Ionization_Penalty>
2.96353e-07

> <r_epik_Ionization_Penalty_Charging>
1.79179e-07

> <r_epik_Ionization_Penalty_Neutral>
1.17174e-07

> <r_epik_State_Penalty>
-0

> <r_epik_Charging_Adjusted_Penalty>
1.79179e-07

> <i_epik_Tot_Q>
0

> <i_epik_Tot_abs_Q>
0

> <r_epik_Metal_State_Penalty>
-0

> <b_epik_Metal_Only>
0

> <s_lp_Force_Field>
OPLS_2005

> <r_lp_Energy>
32.0669

> <b_lp_Chiralities_Consistent>
1

> <s_lp_Variant>
AV-unprocessed.smi:2782-1

> <Gold.Version>
5.8.1

> <Gold.Id.Protein>
6NUR|6NUR_protein|mol2

> <Gold.PLP.Fitness>
55.4311

> <Gold.PLP.PLP>
-50.9148

> <Gold.PLP.part.hbond>
-2.0000

> <Gold.PLP.part.metal>
0.0000

> <Gold.PLP.part.buried>
-4.8242

> <Gold.PLP.part.nonpolar>
-42.7232

> <Gold.PLP.part.repulsive>
0.0000

> <Gold.PLP.ligand.clash>
0.0000

> <Gold.PLP.ligand.torsion>
0.7711

> <Gold.PLP.Chemscore.Hbond>
2.0000

> <Gold.PLP.Chemscore.CHOScore>
0.0000

> <Gold.PLP.Chemscore.Metal>
0.0000

> <Gold.Chemscore.Hbonds>
donor molecule, donor type, donor heavy atom, donor atom, acceptor molecule, acceptor atom, score
      P1  H  6896  6909       L1    20  0.96
      P1  H  7997  8008       L1    11  1.00

> <Gold.PLP.Chemscore.Internal.Correction>
0.0585

> <Gold.Rescore>
     Score         DG    S(hbond)    S(metal)    S(lipo)     H(rot)  DE(clash)    DE(int)     intcor
     21.80     -22.82       1.92        0.00     142.02       2.22       0.23       0.80       ----

> <Gold.Chemscore.Fitness>
21.7965

> <Gold.Chemscore.DG>
-22.8194

> <Gold.Chemscore.ZeroCoef>
-5.4800

> <Gold.Chemscore.Hbond>
1.9178

> <Gold.Chemscore.Metal>
0.0000

> <Gold.Chemscore.Lipo>
142.0227

> <Gold.Chemscore.Internal_Hbond>
0.0000

> <Gold.Chemscore.DEClash>
0.2262

> <Gold.Chemscore.DEInternal>
0.7966

> <Gold.Chemscore.Rot>
2.2199

> <Gold.Chemscore.Internal.Correction>
   9.000000E+99

> <Gold.Chemscore.Hbonds>
donor molecule, donor type, donor heavy atom, donor atom, acceptor molecule, acceptor atom, score
      P1  H  6896  6909       L1    20  0.54
      P1  H  7997  8008       L1    11  0.55

> <Gold.Chemscore.Hbond.Weighted>
-6.4056

> <Gold.Chemscore.Metal.Weighted>
-0.0000

> <Gold.Chemscore.Lipo.Weighted>
-16.6167

> <Gold.Chemscore.Internal_Hbond.Weighted>
0.0000

> <Gold.Chemscore.DEClash.Weighted>
0.2262

> <Gold.Chemscore.DEInternal.Weighted>
0.7966

> <Gold.Chemscore.Rot.Weighted>
5.6829

> <Gold.Chemscore.Internal.Correction.Weighted>
   9.000000E+99

> <Gold.Protein.RotatedTorsions>
[ 6907 6896 6895 6894 ] final -174.66 input  -60.11 | X-H torsion
[ 7974 7965 7964 7962 ] final   51.38 input  175.53 | X-H torsion
[ 8008 7997 7996 7995 ] final -143.53 input   59.86 | X-H torsion
[ 10167 10162 10161 10158 ] final    4.23 input  -65.29 | X-H torsion
[ 10718 10713 10712 10709 ] final -147.96 input   66.30 | X-H torsion
[ 10763 10752 10751 10750 ] final   94.94 input  -60.55 | X-H torsion
[ 11005 11000 10999 10996 ] final   89.48 input  -57.11 | X-H torsion

> <Gold.Protein.ActiveResidues>
 VAL166  LYS551  ARG553  GLY616  TRP617  ASP618  TYR619  PRO620  LYS621  CYS622 
 ASP623  PHE694  ASN695  SER759  ASP760  ASP761  ALA762  ILE779  LEU786  VAL792 
 PHE793  MET794  SER795  GLU796  ALA797  LYS798  CYS799  TRP800  GLU811  SER814 

> <Gold.Protein.RotatedAtoms>
  151.5759  133.3384  159.2998 H   0  0  0  0  0  0  0  0  0  0  0  0  # atno 6907 bound_to 6896
  150.8341  134.7609  159.6889 H   0  0  0  0  0  0  0  0  0  0  0  0  # atno 6908 bound_to 6896
  152.4420  134.5578  159.9937 H   0  0  0  0  0  0  0  0  0  0  0  0  # atno 6909 bound_to 6896
  145.9919  139.4348  143.0068 H   0  0  0  0  0  0  0  0  0  0  0  0  # atno 7974 bound_to 7965
  155.5121  140.0584  157.2921 H   0  0  0  0  0  0  0  0  0  0  0  0  # atno 8008 bound_to 7997
  154.4548  140.1967  156.0360 H   0  0  0  0  0  0  0  0  0  0  0  0  # atno 8009 bound_to 7997
  156.0777  140.3251  155.7659 H   0  0  0  0  0  0  0  0  0  0  0  0  # atno 8010 bound_to 7997
  140.6545  143.7462  150.7630 H   0  0  0  0  0  0  0  0  0  0  0  0  # atno 10167 bound_to 10162
  156.4142  130.7996  151.2216 H   0  0  0  0  0  0  0  0  0  0  0  0  # atno 10718 bound_to 10713
  153.2474  135.4272  155.0762 H   0  0  0  0  0  0  0  0  0  0  0  0  # atno 10763 bound_to 10752
  154.8367  135.3417  154.6562 H   0  0  0  0  0  0  0  0  0  0  0  0  # atno 10764 bound_to 10752
  153.6984  135.7030  153.5127 H   0  0  0  0  0  0  0  0  0  0  0  0  # atno 10765 bound_to 10752
  139.8874  134.8554  156.3147 H   0  0  0  0  0  0  0  0  0  0  0  0  # atno 11005 bound_to 11000
  145.7617  140.9933  143.1196 LP  0  0  0  0  0  0  0  0  0  0  0  0  # atno 17320 bound_to 7965
  144.6892  139.9338  143.7472 LP  0  0  0  0  0  0  0  0  0  0  0  0  # atno 17321 bound_to 7965
  140.1119  143.4691  152.2365 LP  0  0  0  0  0  0  0  0  0  0  0  0  # atno 17342 bound_to 10162
  139.5765  144.7490  151.3751 LP  0  0  0  0  0  0  0  0  0  0  0  0  # atno 17343 bound_to 10162
  157.7507  131.0248  150.3893 LP  0  0  0  0  0  0  0  0  0  0  0  0  # atno 17370 bound_to 10713
  156.4197  130.3950  149.6834 LP  0  0  0  0  0  0  0  0  0  0  0  0  # atno 17371 bound_to 10713
  140.9826  133.7258  156.0695 LP  0  0  0  0  0  0  0  0  0  0  0  0  # atno 17394 bound_to 11000
  140.7729  134.3812  157.5504 LP  0  0  0  0  0  0  0  0  0  0  0  0  # atno 17395 bound_to 11000

$$$$
