AV-unprocessed.smi:1709|AV-procd|sdf|6895|dock6
  -GOLD-   22720 8103D 1   1.00000     0.00000
 Structure written by MMmdl.
 43 45  0  0  0  0  0  0  0  0  2 V2000
  147.7784  132.9450  152.5421 C   0  0  0  0  0  0  0  0  0  0  0  0
  146.3993  132.9928  151.9037 C   0  0  0  0  0  0  0  0  0  0  0  0
  145.7691  131.7841  151.5384 C   0  0  0  0  0  0  0  0  0  0  0  0
  144.4958  131.8259  150.9462 C   0  0  0  0  0  0  0  0  0  0  0  0
  143.9039  133.0831  150.7411 C   0  0  0  0  0  0  0  0  0  0  0  0
  144.4995  134.2429  151.0865 N   0  0  0  0  0  0  0  0  0  0  0  0
  145.7280  134.2226  151.6659 C   0  0  0  0  0  0  0  0  0  0  0  0
  146.4359  135.4037  152.0499 N   0  0  0  0  0  0  0  0  0  0  0  0
  146.0307  136.5248  152.6833 C   0  0  0  0  0  0  0  0  0  0  0  0
  144.8630  136.6656  153.0422 O   0  0  0  0  0  0  0  0  0  0  0  0
  146.9715  137.4604  152.8926 N   0  0  0  0  0  0  0  0  0  0  0  0
  146.7753  138.7340  153.5810 C   0  0  2  0  0  0  0  0  0  0  0  0
  146.5726  139.9111  152.6072 C   0  0  0  0  0  0  0  0  0  0  0  0
  147.4058  141.0538  153.1961 C   0  0  0  0  0  0  0  0  0  0  0  0
  148.5280  140.3510  153.8284 N   0  3  1  0  0  0  0  0  0  0  0  0
  149.4237  141.1134  154.7216 C   0  0  0  0  0  0  0  0  0  0  0  0
  150.6129  140.2086  155.1095 C   0  0  0  0  0  0  0  0  0  0  0  0
  150.1511  138.8483  155.6791 C   0  0  0  0  0  0  0  0  0  0  0  0
  149.1193  138.1620  154.7585 C   0  0  0  0  0  0  0  0  0  0  0  0
  147.9720  139.1473  154.4698 C   0  0  2  0  0  0  0  0  0  0  0  0
  148.1162  131.9177  152.6818 H   0  0  0  0  0  0  0  0  0  0  0  0
  147.7652  133.4279  153.5196 H   0  0  0  0  0  0  0  0  0  0  0  0
  148.5077  133.4554  151.9125 H   0  0  0  0  0  0  0  0  0  0  0  0
  146.2537  130.8337  151.7086 H   0  0  0  0  0  0  0  0  0  0  0  0
  143.9873  130.9184  150.6561 H   0  0  0  0  0  0  0  0  0  0  0  0
  142.9271  133.1616  150.2878 H   0  0  0  0  0  0  0  0  0  0  0  0
  147.3994  135.4229  151.7482 H   0  0  0  0  0  0  0  0  0  0  0  0
  147.9051  137.2595  152.5616 H   0  0  0  0  0  0  0  0  0  0  0  0
  145.8870  138.6640  154.2121 H   0  0  0  0  0  0  0  0  0  0  0  0
  146.9612  139.6569  151.6196 H   0  0  0  0  0  0  0  0  0  0  0  0
  145.5230  140.1812  152.4869 H   0  0  0  0  0  0  0  0  0  0  0  0
  147.7424  141.7636  152.4398 H   0  0  0  0  0  0  0  0  0  0  0  0
  146.8359  141.5955  153.9527 H   0  0  0  0  0  0  0  0  0  0  0  0
  149.7822  142.0069  154.2094 H   0  0  0  0  0  0  0  0  0  0  0  0
  148.8793  141.4434  155.6078 H   0  0  0  0  0  0  0  0  0  0  0  0
  151.2289  140.0321  154.2267 H   0  0  0  0  0  0  0  0  0  0  0  0
  151.2520  140.7187  155.8309 H   0  0  0  0  0  0  0  0  0  0  0  0
  151.0106  138.1949  155.8308 H   0  0  0  0  0  0  0  0  0  0  0  0
  149.7072  139.0041  156.6631 H   0  0  0  0  0  0  0  0  0  0  0  0
  149.5973  137.8503  153.8288 H   0  0  0  0  0  0  0  0  0  0  0  0
  148.7392  137.2604  155.2393 H   0  0  0  0  0  0  0  0  0  0  0  0
  147.5475  139.4544  155.4282 H   0  0  0  0  0  0  0  0  0  0  0  0
  149.1001  140.0192  153.0652 H   0  0  0  0  0  0  0  0  0  0  0  0
  1  2  1  0  0  0  0
  1 21  1  0  0  0  0
  1 22  1  0  0  0  0
  1 23  1  0  0  0  0
  2  7  1  0  0  0  0
  2  3  2  0  0  0  0
  3  4  1  0  0  0  0
  3 24  1  0  0  0  0
  4  5  2  0  0  0  0
  4 25  1  0  0  0  0
  5  6  1  0  0  0  0
  5 26  1  0  0  0  0
  6  7  2  0  0  0  0
  7  8  1  0  0  0  0
  8  9  1  0  0  0  0
  8 27  1  0  0  0  0
  9 10  2  0  0  0  0
  9 11  1  0  0  0  0
 11 12  1  0  0  0  0
 11 28  1  0  0  0  0
 12 20  1  0  0  0  0
 12 13  1  0  0  0  0
 12 29  1  0  0  0  0
 13 14  1  0  0  0  0
 13 30  1  0  0  0  0
 13 31  1  0  0  0  0
 14 15  1  0  0  0  0
 14 32  1  0  0  0  0
 14 33  1  0  0  0  0
 15 20  1  0  0  0  0
 15 16  1  0  0  0  0
 15 43  1  0  0  0  0
 16 17  1  0  0  0  0
 16 34  1  0  0  0  0
 16 35  1  0  0  0  0
 17 18  1  0  0  0  0
 17 36  1  0  0  0  0
 17 37  1  0  0  0  0
 18 19  1  0  0  0  0
 18 38  1  0  0  0  0
 18 39  1  0  0  0  0
 19 20  1  0  0  0  0
 19 40  1  0  0  0  0
 19 41  1  0  0  0  0
 20 42  1  0  0  0  0
M  CHG  1  15   1
M  END
> <s_m_source_file>
AV-unprocessed.smi

> <i_m_source_file_index>
1709

> <i_lp_mmshare_version>
43012

> <i_f3d_flags>
0

> <s_epik_input>
W0NIM11jMVtjSF1bY0hdW2NIXW5jMVtOSF1DKD1PKVtOSF1bQ0BIXShbQ0gyXVtDSDJdMilbQ0BASF0oTjIzKVtDSDJdW0NIMl1bQ0gyXVtDSDJdMw==

> <s_epik_cmdline>
J2VwaWtfcHl0aG9uJywgJy1waCcsICc3LjAnLCAnLXRuJywgJzgnLCAnLW1hJywgJzIwMCcsICctbWV0YWxfYmluZGluZycsICctaW1hZScsICc8aW5maWxlLm1hZT4nLCAnLW9tYWUnLCAnPG91dGZpbGUubWFlPic=

> <r_epik_Ionization_Penalty>
0.00101524

> <r_epik_Ionization_Penalty_Charging>
0.000974069

> <r_epik_Ionization_Penalty_Neutral>
4.11757e-05

> <r_epik_State_Penalty>
0.000633842

> <r_epik_Charging_Adjusted_Penalty>
0.00160791

> <i_epik_Tot_Q>
1

> <i_epik_Tot_abs_Q>
1

> <r_epik_Metal_State_Penalty>
-0

> <b_epik_Metal_Only>
0

> <s_lp_Force_Field>
OPLS_2005

> <r_lp_Energy>
46.0593

> <b_lp_Chiralities_Consistent>
1

> <s_lp_Variant>
AV-unprocessed.smi:1709-5

> <Gold.Version>
5.8.1

> <Gold.Id.Protein>
6NUR|6NUR_protein|mol2

> <Gold.PLP.Fitness>
41.4464

> <Gold.PLP.PLP>
-30.8426

> <Gold.PLP.part.hbond>
-3.0000

> <Gold.PLP.part.metal>
0.0000

> <Gold.PLP.part.buried>
-0.3933

> <Gold.PLP.part.nonpolar>
-28.2885

> <Gold.PLP.part.repulsive>
0.5023

> <Gold.PLP.ligand.clash>
0.0000

> <Gold.PLP.ligand.torsion>
0.6624

> <Gold.PLP.Chemscore.Hbond>
2.9760

> <Gold.PLP.Chemscore.CHOScore>
1.0000

> <Gold.PLP.Chemscore.Metal>
0.0000

> <Gold.Chemscore.Hbonds>
donor molecule, donor type, donor heavy atom, donor atom, acceptor molecule, acceptor atom, score
      L1  H     8    27       P1  7948  0.98
      L1  H    11    28       P1  7948  1.00
      L1  H    15    43       P1  7957  1.00
      L1  C     5    26       P1 10186  1.00

> <Gold.PLP.Chemscore.Internal.Correction>
0.0006

> <Gold.Rescore>
     Score         DG    S(hbond)    S(metal)    S(lipo)     H(rot)  DE(clash)    DE(int)     intcor
     20.66     -21.82       2.67        0.00      85.20       1.00       0.54       0.61       ----

> <Gold.Chemscore.Fitness>
20.6648

> <Gold.Chemscore.DG>
-21.8156

> <Gold.Chemscore.ZeroCoef>
-5.4800

> <Gold.Chemscore.Hbond>
2.6727

> <Gold.Chemscore.Metal>
0.0000

> <Gold.Chemscore.Lipo>
85.2036

> <Gold.Chemscore.Internal_Hbond>
0.0000

> <Gold.Chemscore.DEClash>
0.5360

> <Gold.Chemscore.DEInternal>
0.6148

> <Gold.Chemscore.Rot>
1.0000

> <Gold.Chemscore.Internal.Correction>
   9.000000E+99

> <Gold.Chemscore.Hbonds>
donor molecule, donor type, donor heavy atom, donor atom, acceptor molecule, acceptor atom, score
      L1  H     8    27       P1  7948  0.91
      L1  H    11    28       P1  7948  0.94
      L1  H    15    43       P1  7957  0.93

> <Gold.Chemscore.Hbond.Weighted>
-8.9268

> <Gold.Chemscore.Metal.Weighted>
-0.0000

> <Gold.Chemscore.Lipo.Weighted>
-9.9688

> <Gold.Chemscore.Internal_Hbond.Weighted>
0.0000

> <Gold.Chemscore.DEClash.Weighted>
0.5360

> <Gold.Chemscore.DEInternal.Weighted>
0.6148

> <Gold.Chemscore.Rot.Weighted>
2.5600

> <Gold.Chemscore.Internal.Correction.Weighted>
   9.000000E+99

> <Gold.Protein.RotatedTorsions>
[ 6907 6896 6895 6894 ] final   21.47 input  -60.11 | X-H torsion
[ 7974 7965 7964 7962 ] final   12.61 input  175.53 | X-H torsion
[ 8008 7997 7996 7995 ] final   57.18 input   59.86 | X-H torsion
[ 10167 10162 10161 10158 ] final  147.24 input  -65.29 | X-H torsion
[ 10718 10713 10712 10709 ] final   87.47 input   66.30 | X-H torsion
[ 10763 10752 10751 10750 ] final  140.50 input  -60.55 | X-H torsion
[ 11005 11000 10999 10996 ] final  146.59 input  -57.11 | X-H torsion

> <Gold.Protein.ActiveResidues>
 VAL166  LYS551  ARG553  GLY616  TRP617  ASP618  TYR619  PRO620  LYS621  CYS622 
 ASP623  PHE694  ASN695  SER759  ASP760  ASP761  ALA762  ILE779  LEU786  VAL792 
 PHE793  MET794  SER795  GLU796  ALA797  LYS798  CYS799  TRP800  GLU811  SER814 

> <Gold.Protein.RotatedAtoms>
  151.9123  135.0333  160.0515 H   0  0  0  0  0  0  0  0  0  0  0  0  # atno 6907 bound_to 6896
  152.2269  133.5023  159.5202 H   0  0  0  0  0  0  0  0  0  0  0  0  # atno 6908 bound_to 6896
  150.7015  134.1185  159.4068 H   0  0  0  0  0  0  0  0  0  0  0  0  # atno 6909 bound_to 6896
  146.2347  139.9311  142.8496 H   0  0  0  0  0  0  0  0  0  0  0  0  # atno 7974 bound_to 7965
  155.5295  140.3481  155.4423 H   0  0  0  0  0  0  0  0  0  0  0  0  # atno 8008 bound_to 7997
  156.0728  140.1367  156.9835 H   0  0  0  0  0  0  0  0  0  0  0  0  # atno 8009 bound_to 7997
  154.4537  140.0962  156.6670 H   0  0  0  0  0  0  0  0  0  0  0  0  # atno 8010 bound_to 7997
  139.4893  144.5770  151.6946 H   0  0  0  0  0  0  0  0  0  0  0  0  # atno 10167 bound_to 10162
  157.6940  131.0256  150.3128 H   0  0  0  0  0  0  0  0  0  0  0  0  # atno 10718 bound_to 10713
  153.9237  135.2997  155.3447 H   0  0  0  0  0  0  0  0  0  0  0  0  # atno 10763 bound_to 10752
  154.7562  135.4956  153.9382 H   0  0  0  0  0  0  0  0  0  0  0  0  # atno 10764 bound_to 10752
  153.1128  135.6763  153.9574 H   0  0  0  0  0  0  0  0  0  0  0  0  # atno 10765 bound_to 10752
  140.0806  134.9099  157.1494 H   0  0  0  0  0  0  0  0  0  0  0  0  # atno 11005 bound_to 11000
  145.2044  140.9868  143.4137 LP  0  0  0  0  0  0  0  0  0  0  0  0  # atno 17320 bound_to 7965
  144.9746  139.3845  143.6292 LP  0  0  0  0  0  0  0  0  0  0  0  0  # atno 17321 bound_to 7965
  140.5368  144.0643  150.6073 LP  0  0  0  0  0  0  0  0  0  0  0  0  # atno 17342 bound_to 10162
  140.3651  143.2886  152.0340 LP  0  0  0  0  0  0  0  0  0  0  0  0  # atno 17343 bound_to 10162
  156.3627  130.3849  149.7239 LP  0  0  0  0  0  0  0  0  0  0  0  0  # atno 17370 bound_to 10713
  156.4680  130.7983  151.3001 LP  0  0  0  0  0  0  0  0  0  0  0  0  # atno 17371 bound_to 10713
  140.3493  134.2616  155.7200 LP  0  0  0  0  0  0  0  0  0  0  0  0  # atno 17394 bound_to 11000
  141.2045  133.7884  157.0283 LP  0  0  0  0  0  0  0  0  0  0  0  0  # atno 17395 bound_to 11000

$$$$
