AV-unprocessed.smi:1082|AV-procd|sdf|4712|dock1
  -GOLD-   22720 3233D 1   1.00000     0.00000
 Structure written by MMmdl.
 48 50  0  0  0  0  0  0  0  0  2 V2000
  149.2743  132.6283  155.3693 O   0  0  0  0  0  0  0  0  0  0  0  0
  149.0125  133.3436  154.4021 C   0  0  0  0  0  0  0  0  0  0  0  0
  149.4358  134.6098  154.2845 N   0  0  0  0  0  0  0  0  0  0  0  0
  150.2606  135.3064  155.2644 C   0  0  0  0  0  0  0  0  0  0  0  0
  150.9041  136.5668  154.6582 C   0  0  0  0  0  0  0  0  0  0  0  0
  149.8994  137.6013  154.3165 N   0  3  0  0  0  0  0  0  0  0  0  0
  148.7859  137.7116  155.2898 C   0  0  0  0  0  0  0  0  0  0  0  0
  148.5702  139.2068  155.5565 C   0  0  0  0  0  0  0  0  0  0  0  0
  149.2846  139.9051  154.4057 C   0  0  0  0  0  0  0  0  0  0  0  0
  150.4437  138.9604  154.1065 C   0  0  0  0  0  0  0  0  0  0  0  0
  148.3021  132.9651  153.3271 N   0  0  0  0  0  0  0  0  0  0  0  0
  147.7100  131.6962  153.0726 C   0  0  0  0  0  0  0  0  0  0  0  0
  148.2350  130.4917  153.5997 C   0  0  0  0  0  0  0  0  0  0  0  0
  147.5761  129.2795  153.3257 C   0  0  0  0  0  0  0  0  0  0  0  0
  146.4095  129.3150  152.5412 C   0  0  0  0  0  0  0  0  0  0  0  0
  145.8882  130.4557  152.0448 N   0  0  0  0  0  0  0  0  0  0  0  0
  146.5215  131.6260  152.3008 C   0  0  0  0  0  0  0  0  0  0  0  0
  145.9432  132.8047  151.7952 N   0  0  0  0  0  0  0  0  0  0  0  0
  144.8537  133.3338  152.6084 C   0  0  0  0  0  0  0  0  0  0  0  0
  143.6964  133.6282  151.6496 C   0  0  0  0  0  0  0  0  0  0  0  0
  144.3894  133.8097  150.3043 C   0  0  0  0  0  0  0  0  0  0  0  0
  145.5412  132.8116  150.3922 C   0  0  0  0  0  0  0  0  0  0  0  0
  149.1754  135.1241  153.4555 H   0  0  0  0  0  0  0  0  0  0  0  0
  149.6190  135.5713  156.1047 H   0  0  0  0  0  0  0  0  0  0  0  0
  151.0264  134.6349  155.6568 H   0  0  0  0  0  0  0  0  0  0  0  0
  151.6034  136.9954  155.3780 H   0  0  0  0  0  0  0  0  0  0  0  0
  151.4851  136.3107  153.7708 H   0  0  0  0  0  0  0  0  0  0  0  0
  147.8956  137.2608  154.8503 H   0  0  0  0  0  0  0  0  0  0  0  0
  148.9962  137.1842  156.2215 H   0  0  0  0  0  0  0  0  0  0  0  0
  147.5156  139.4756  155.6232 H   0  0  0  0  0  0  0  0  0  0  0  0
  149.0439  139.4830  156.4996 H   0  0  0  0  0  0  0  0  0  0  0  0
  148.6232  139.9706  153.5406 H   0  0  0  0  0  0  0  0  0  0  0  0
  149.6128  140.9139  154.6581 H   0  0  0  0  0  0  0  0  0  0  0  0
  151.2572  139.1483  154.8094 H   0  0  0  0  0  0  0  0  0  0  0  0
  150.8333  139.0887  153.0961 H   0  0  0  0  0  0  0  0  0  0  0  0
  148.2592  133.6229  152.5623 H   0  0  0  0  0  0  0  0  0  0  0  0
  149.1179  130.4802  154.2204 H   0  0  0  0  0  0  0  0  0  0  0  0
  147.9533  128.3450  153.7139 H   0  0  0  0  0  0  0  0  0  0  0  0
  145.8754  128.4045  152.3133 H   0  0  0  0  0  0  0  0  0  0  0  0
  144.5471  132.6505  153.4021 H   0  0  0  0  0  0  0  0  0  0  0  0
  145.1982  134.2542  153.0800 H   0  0  0  0  0  0  0  0  0  0  0  0
  143.0288  132.7665  151.6041 H   0  0  0  0  0  0  0  0  0  0  0  0
  143.1073  134.4956  151.9484 H   0  0  0  0  0  0  0  0  0  0  0  0
  143.7314  133.6263  149.4545 H   0  0  0  0  0  0  0  0  0  0  0  0
  144.7792  134.8251  150.2210 H   0  0  0  0  0  0  0  0  0  0  0  0
  146.3733  133.1070  149.7528 H   0  0  0  0  0  0  0  0  0  0  0  0
  145.2034  131.8281  150.0646 H   0  0  0  0  0  0  0  0  0  0  0  0
  149.4730  137.3254  153.4434 H   0  0  0  0  0  0  0  0  0  0  0  0
  1  2  2  0  0  0  0
  2  3  1  0  0  0  0
  2 11  1  0  0  0  0
  3  4  1  0  0  0  0
  3 23  1  0  0  0  0
  4  5  1  0  0  0  0
  4 24  1  0  0  0  0
  4 25  1  0  0  0  0
  5  6  1  0  0  0  0
  5 26  1  0  0  0  0
  5 27  1  0  0  0  0
  6 10  1  0  0  0  0
  6  7  1  0  0  0  0
  6 48  1  0  0  0  0
  7  8  1  0  0  0  0
  7 28  1  0  0  0  0
  7 29  1  0  0  0  0
  8  9  1  0  0  0  0
  8 30  1  0  0  0  0
  8 31  1  0  0  0  0
  9 10  1  0  0  0  0
  9 32  1  0  0  0  0
  9 33  1  0  0  0  0
 10 34  1  0  0  0  0
 10 35  1  0  0  0  0
 11 12  1  0  0  0  0
 11 36  1  0  0  0  0
 12 17  1  0  0  0  0
 12 13  2  0  0  0  0
 13 14  1  0  0  0  0
 13 37  1  0  0  0  0
 14 15  2  0  0  0  0
 14 38  1  0  0  0  0
 15 16  1  0  0  0  0
 15 39  1  0  0  0  0
 16 17  2  0  0  0  0
 17 18  1  0  0  0  0
 18 22  1  0  0  0  0
 18 19  1  0  0  0  0
 19 20  1  0  0  0  0
 19 40  1  0  0  0  0
 19 41  1  0  0  0  0
 20 21  1  0  0  0  0
 20 42  1  0  0  0  0
 20 43  1  0  0  0  0
 21 22  1  0  0  0  0
 21 44  1  0  0  0  0
 21 45  1  0  0  0  0
 22 46  1  0  0  0  0
 22 47  1  0  0  0  0
M  CHG  1   6   1
M  END
> <s_m_source_file>
AV-unprocessed.smi

> <i_m_source_file_index>
1082

> <i_lp_mmshare_version>
43012

> <i_f3d_flags>
0

> <s_epik_input>
W0NIMl0xW0NIMl1bQ0gyXVtDSDJdTjFbQ0gyXVtDSDJdW05IXUMoPU8pW05IXWMyW2NIXVtjSF1bY0hdbmMyTjNbQ0gyXVtDSDJdW0NIMl1bQ0gyXTM=

> <s_epik_cmdline>
J2VwaWtfcHl0aG9uJywgJy1waCcsICc3LjAnLCAnLXRuJywgJzgnLCAnLW1hJywgJzIwMCcsICctbWV0YWxfYmluZGluZycsICctaW1hZScsICc8aW5maWxlLm1hZT4nLCAnLW9tYWUnLCAnPG91dGZpbGUubWFlPic=

> <r_lp_tautomer_probability>
1

> <r_epik_Ionization_Penalty>
0.0844881

> <r_epik_Ionization_Penalty_Charging>
0.00210487

> <r_epik_Ionization_Penalty_Neutral>
0.0823833

> <r_epik_State_Penalty>
0.0725565

> <r_epik_Charging_Adjusted_Penalty>
0.0746613

> <i_epik_Tot_Q>
1

> <i_epik_Tot_abs_Q>
1

> <r_epik_Metal_State_Penalty>
0.064294

> <b_epik_Metal_Only>
0

> <s_lp_Force_Field>
OPLS_2005

> <r_lp_Energy>
55.3809

> <b_lp_Chiralities_Consistent>
1

> <s_lp_Variant>
AV-unprocessed.smi:1082-1

> <Gold.Version>
5.8.1

> <Gold.Id.Protein>
6NUR|6NUR_protein|mol2

> <Gold.PLP.Fitness>
40.5038

> <Gold.PLP.PLP>
-33.2283

> <Gold.PLP.part.hbond>
-2.0000

> <Gold.PLP.part.metal>
0.0000

> <Gold.PLP.part.buried>
-4.2563

> <Gold.PLP.part.nonpolar>
-27.0869

> <Gold.PLP.part.repulsive>
0.3387

> <Gold.PLP.ligand.clash>
0.0000

> <Gold.PLP.ligand.torsion>
0.9314

> <Gold.PLP.Chemscore.Hbond>
3.0000

> <Gold.PLP.Chemscore.CHOScore>
0.0000

> <Gold.PLP.Chemscore.Metal>
0.0000

> <Gold.Chemscore.Hbonds>
donor molecule, donor type, donor heavy atom, donor atom, acceptor molecule, acceptor atom, score
      L1  H     3    23       P1  7948  0.95
      L1  H     6    48       P1  7948  2.00

> <Gold.PLP.Chemscore.Internal.Correction>
0.1382

> <Gold.Rescore>
     Score         DG    S(hbond)    S(metal)    S(lipo)     H(rot)  DE(clash)    DE(int)     intcor
     14.32     -16.53       1.69        0.00      81.10       1.60       0.03       2.17       ----

> <Gold.Chemscore.Fitness>
14.3194

> <Gold.Chemscore.DG>
-16.5252

> <Gold.Chemscore.ZeroCoef>
-5.4800

> <Gold.Chemscore.Hbond>
1.6922

> <Gold.Chemscore.Metal>
0.0000

> <Gold.Chemscore.Lipo>
81.0998

> <Gold.Chemscore.Internal_Hbond>
0.0000

> <Gold.Chemscore.DEClash>
0.0347

> <Gold.Chemscore.DEInternal>
2.1711

> <Gold.Chemscore.Rot>
1.5998

> <Gold.Chemscore.Internal.Correction>
   9.000000E+99

> <Gold.Chemscore.Hbonds>
donor molecule, donor type, donor heavy atom, donor atom, acceptor molecule, acceptor atom, score
      L1  H     3    23       P1  7948  0.21
      L1  H     6    48       P1  7948  0.91

> <Gold.Chemscore.Hbond.Weighted>
-5.6521

> <Gold.Chemscore.Metal.Weighted>
-0.0000

> <Gold.Chemscore.Lipo.Weighted>
-9.4887

> <Gold.Chemscore.Internal_Hbond.Weighted>
0.0000

> <Gold.Chemscore.DEClash.Weighted>
0.0347

> <Gold.Chemscore.DEInternal.Weighted>
2.1711

> <Gold.Chemscore.Rot.Weighted>
4.0956

> <Gold.Chemscore.Internal.Correction.Weighted>
   9.000000E+99

> <Gold.Protein.RotatedTorsions>
[ 6907 6896 6895 6894 ] final   54.57 input  -60.11 | X-H torsion
[ 7974 7965 7964 7962 ] final -118.60 input  175.53 | X-H torsion
[ 8008 7997 7996 7995 ] final  -61.52 input   59.86 | X-H torsion
[ 10167 10162 10161 10158 ] final -158.25 input  -65.29 | X-H torsion
[ 10718 10713 10712 10709 ] final  -85.86 input   66.30 | X-H torsion
[ 10763 10752 10751 10750 ] final  134.56 input  -60.55 | X-H torsion
[ 11005 11000 10999 10996 ] final   -4.64 input  -57.11 | X-H torsion

> <Gold.Protein.ActiveResidues>
 VAL166  LYS551  ARG553  GLY616  TRP617  ASP618  TYR619  PRO620  LYS621  CYS622 
 ASP623  PHE694  ASN695  SER759  ASP760  ASP761  ALA762  ILE779  LEU786  VAL792 
 PHE793  MET794  SER795  GLU796  ALA797  LYS798  CYS799  TRP800  GLU811  SER814 

> <Gold.Protein.RotatedAtoms>
  152.3452  134.7080  160.0252 H   0  0  0  0  0  0  0  0  0  0  0  0  # atno 6907 bound_to 6896
  151.7452  133.3319  159.3384 H   0  0  0  0  0  0  0  0  0  0  0  0  # atno 6908 bound_to 6896
  150.7505  134.6175  159.6163 H   0  0  0  0  0  0  0  0  0  0  0  0  # atno 6909 bound_to 6896
  145.0720  140.8366  143.4090 H   0  0  0  0  0  0  0  0  0  0  0  0  # atno 7974 bound_to 7965
  154.4452  140.1016  156.6444 H   0  0  0  0  0  0  0  0  0  0  0  0  # atno 8008 bound_to 7997
  155.5467  140.3485  155.4440 H   0  0  0  0  0  0  0  0  0  0  0  0  # atno 8009 bound_to 7997
  156.0558  140.1315  156.9987 H   0  0  0  0  0  0  0  0  0  0  0  0  # atno 8010 bound_to 7997
  139.6707  143.9750  152.2282 H   0  0  0  0  0  0  0  0  0  0  0  0  # atno 10167 bound_to 10162
  155.9993  130.4745  150.4627 H   0  0  0  0  0  0  0  0  0  0  0  0  # atno 10718 bound_to 10713
  153.8256  135.3110  155.3414 H   0  0  0  0  0  0  0  0  0  0  0  0  # atno 10763 bound_to 10752
  154.7994  135.4735  154.0243 H   0  0  0  0  0  0  0  0  0  0  0  0  # atno 10764 bound_to 10752
  153.1666  135.6870  153.8757 H   0  0  0  0  0  0  0  0  0  0  0  0  # atno 10765 bound_to 10752
  140.6825  133.9141  155.8564 H   0  0  0  0  0  0  0  0  0  0  0  0  # atno 11005 bound_to 11000
  145.1281  139.2650  143.5553 LP  0  0  0  0  0  0  0  0  0  0  0  0  # atno 17320 bound_to 7965
  146.3529  140.0924  142.8612 LP  0  0  0  0  0  0  0  0  0  0  0  0  # atno 17321 bound_to 7965
  139.9514  144.6618  150.8168 LP  0  0  0  0  0  0  0  0  0  0  0  0  # atno 17342 bound_to 10162
  140.7617  143.3180  151.2688 LP  0  0  0  0  0  0  0  0  0  0  0  0  # atno 17343 bound_to 10162
  157.2650  131.0575  151.2296 LP  0  0  0  0  0  0  0  0  0  0  0  0  # atno 17370 bound_to 10713
  157.3397  130.7027  149.6374 LP  0  0  0  0  0  0  0  0  0  0  0  0  # atno 17371 bound_to 10713
  141.0306  134.0761  157.4018 LP  0  0  0  0  0  0  0  0  0  0  0  0  # atno 17394 bound_to 11000
  139.8947  135.0137  156.6966 LP  0  0  0  0  0  0  0  0  0  0  0  0  # atno 17395 bound_to 11000

$$$$
