AV-unprocessed.smi:785|AV-procd|sdf|3720|dock1
  -GOLD-   22720 1143D 1   1.00000     0.00000
 Structure written by MMmdl.
 35 36  0  0  0  0  0  0  0  0  1 V2000
  147.8899  135.4731  160.3952 C   0  0  0  0  0  0  0  0  0  0  0  0
  148.5991  136.3778  159.4467 C   0  0  0  0  0  0  0  0  0  0  0  0
  149.9202  136.3557  159.2519 N   0  0  0  0  0  0  0  0  0  0  0  0
  150.3437  137.3036  158.3138 C   0  0  0  0  0  0  0  0  0  0  0  0
  151.7998  137.4177  157.9657 C   0  0  0  0  0  0  0  0  0  0  0  0
  152.6338  137.6490  159.2269 C   0  0  0  0  0  0  0  0  0  0  0  0
  152.8523  136.7170  160.0006 O   0  0  0  0  0  0  0  0  0  0  0  0
  153.1015  138.8927  159.4183 N   0  0  0  0  0  0  0  0  0  0  0  0
  153.9187  139.3150  160.5489 C   0  0  0  0  0  0  0  0  0  0  0  0
  154.5469  140.6981  160.3030 C   0  0  0  0  0  0  0  0  0  0  0  0
  153.7328  141.5021  159.3994 N   0  0  0  0  0  0  0  0  0  0  0  0
  152.9543  142.5301  159.7695 C   0  0  0  0  0  0  0  0  0  0  0  0
  152.8492  142.9055  160.9382 O   0  0  0  0  0  0  0  0  0  0  0  0
  152.2273  143.1782  158.6367 C   0  0  0  0  0  0  0  0  0  0  0  0
  152.6159  144.5964  158.2709 C   0  0  0  0  0  0  0  0  0  0  0  0
  151.3023  144.3331  158.9632 C   0  0  0  0  0  0  0  0  0  0  0  0
  149.3111  138.0442  157.7926 C   0  0  0  0  0  0  0  0  0  0  0  0
  147.7734  137.5860  158.4709 S   0  0  0  0  0  0  0  0  0  0  0  0
  148.5612  134.6944  160.7587 H   0  0  0  0  0  0  0  0  0  0  0  0
  147.0442  134.9991  159.8969 H   0  0  0  0  0  0  0  0  0  0  0  0
  147.5204  136.0433  161.2475 H   0  0  0  0  0  0  0  0  0  0  0  0
  152.1505  136.5141  157.4647 H   0  0  0  0  0  0  0  0  0  0  0  0
  151.9657  138.2382  157.2664 H   0  0  0  0  0  0  0  0  0  0  0  0
  152.8740  139.5973  158.7316 H   0  0  0  0  0  0  0  0  0  0  0  0
  153.2778  139.3431  161.4307 H   0  0  0  0  0  0  0  0  0  0  0  0
  154.6924  138.5724  160.7515 H   0  0  0  0  0  0  0  0  0  0  0  0
  154.6378  141.2429  161.2430 H   0  0  0  0  0  0  0  0  0  0  0  0
  155.5581  140.5955  159.9054 H   0  0  0  0  0  0  0  0  0  0  0  0
  153.7632  141.2585  158.4198 H   0  0  0  0  0  0  0  0  0  0  0  0
  151.9253  142.5279  157.8168 H   0  0  0  0  0  0  0  0  0  0  0  0
  153.3957  145.0892  158.8492 H   0  0  0  0  0  0  0  0  0  0  0  0
  152.5938  144.8567  157.2147 H   0  0  0  0  0  0  0  0  0  0  0  0
  150.3899  144.4153  158.3764 H   0  0  0  0  0  0  0  0  0  0  0  0
  151.2113  144.6506  160.0006 H   0  0  0  0  0  0  0  0  0  0  0  0
  149.3624  138.8311  157.0549 H   0  0  0  0  0  0  0  0  0  0  0  0
  1  2  1  0  0  0  0
  1 19  1  0  0  0  0
  1 20  1  0  0  0  0
  1 21  1  0  0  0  0
  2 18  1  0  0  0  0
  2  3  2  0  0  0  0
  3  4  1  0  0  0  0
  4  5  1  0  0  0  0
  4 17  2  0  0  0  0
  5  6  1  0  0  0  0
  5 22  1  0  0  0  0
  5 23  1  0  0  0  0
  6  7  2  0  0  0  0
  6  8  1  0  0  0  0
  8  9  1  0  0  0  0
  8 24  1  0  0  0  0
  9 10  1  0  0  0  0
  9 25  1  0  0  0  0
  9 26  1  0  0  0  0
 10 11  1  0  0  0  0
 10 27  1  0  0  0  0
 10 28  1  0  0  0  0
 11 12  1  0  0  0  0
 11 29  1  0  0  0  0
 12 13  2  0  0  0  0
 12 14  1  0  0  0  0
 14 16  1  0  0  0  0
 14 15  1  0  0  0  0
 14 30  1  0  0  0  0
 15 16  1  0  0  0  0
 15 31  1  0  0  0  0
 15 32  1  0  0  0  0
 16 33  1  0  0  0  0
 16 34  1  0  0  0  0
 17 18  1  0  0  0  0
 17 35  1  0  0  0  0
M  END
> <s_m_source_file>
AV-unprocessed.smi

> <i_m_source_file_index>
785

> <i_lp_mmshare_version>
43012

> <i_f3d_flags>
0

> <s_epik_input>
W0NIM11jMW5jKFtjSF1zMSlbQ0gyXUMoPU8pW05IXVtDSDJdW0NIMl1bTkhdQyg9TylbQ0hdMltDSDJdW0NIMl0y

> <s_epik_cmdline>
J2VwaWtfcHl0aG9uJywgJy1waCcsICc3LjAnLCAnLXRuJywgJzgnLCAnLW1hJywgJzIwMCcsICctbWV0YWxfYmluZGluZycsICctaW1hZScsICc8aW5maWxlLm1hZT4nLCAnLW9tYWUnLCAnPG91dGZpbGUubWFlPic=

> <r_lp_tautomer_probability>
1

> <r_epik_Ionization_Penalty>
4.93122e-05

> <r_epik_Ionization_Penalty_Charging>
0

> <r_epik_Ionization_Penalty_Neutral>
4.93122e-05

> <r_epik_State_Penalty>
-0

> <r_epik_Charging_Adjusted_Penalty>
0

> <i_epik_Tot_Q>
0

> <i_epik_Tot_abs_Q>
0

> <r_epik_Metal_State_Penalty>
-0

> <b_epik_Metal_Only>
0

> <s_lp_Force_Field>
OPLS_2005

> <r_lp_Energy>
2.28636

> <b_lp_Chiralities_Consistent>
1

> <s_lp_Variant>
AV-unprocessed.smi:785-1

> <Gold.Version>
5.8.1

> <Gold.Id.Protein>
6NUR|6NUR_protein|mol2

> <Gold.PLP.Fitness>
37.7608

> <Gold.PLP.PLP>
-33.7337

> <Gold.PLP.part.hbond>
-2.0000

> <Gold.PLP.part.metal>
0.0000

> <Gold.PLP.part.buried>
-6.5064

> <Gold.PLP.part.nonpolar>
-26.4097

> <Gold.PLP.part.repulsive>
0.2058

> <Gold.PLP.ligand.clash>
0.0000

> <Gold.PLP.ligand.torsion>
0.6480

> <Gold.PLP.Chemscore.Hbond>
1.7273

> <Gold.PLP.Chemscore.CHOScore>
0.0000

> <Gold.PLP.Chemscore.Metal>
0.0000

> <Gold.Chemscore.Hbonds>
donor molecule, donor type, donor heavy atom, donor atom, acceptor molecule, acceptor atom, score
      P1  H  6896  6907       L1     7  0.99
      P1  H  6896  6909       L1     3  0.80

> <Gold.PLP.Chemscore.Internal.Correction>
0.1414

> <Gold.Rescore>
     Score         DG    S(hbond)    S(metal)    S(lipo)     H(rot)  DE(clash)    DE(int)     intcor
     14.13     -14.89       1.79        0.00      76.61       2.16       0.01       0.76       ----

> <Gold.Chemscore.Fitness>
14.1282

> <Gold.Chemscore.DG>
-14.8932

> <Gold.Chemscore.ZeroCoef>
-5.4800

> <Gold.Chemscore.Hbond>
1.7881

> <Gold.Chemscore.Metal>
0.0000

> <Gold.Chemscore.Lipo>
76.6122

> <Gold.Chemscore.Internal_Hbond>
0.0000

> <Gold.Chemscore.DEClash>
0.0050

> <Gold.Chemscore.DEInternal>
0.7600

> <Gold.Chemscore.Rot>
2.1573

> <Gold.Chemscore.Internal.Correction>
   9.000000E+99

> <Gold.Chemscore.Hbonds>
donor molecule, donor type, donor heavy atom, donor atom, acceptor molecule, acceptor atom, score
      P1  H  6896  6907       L1     7  0.93
      P1  H  6896  6909       L1     3  0.65

> <Gold.Chemscore.Hbond.Weighted>
-5.9724

> <Gold.Chemscore.Metal.Weighted>
-0.0000

> <Gold.Chemscore.Lipo.Weighted>
-8.9636

> <Gold.Chemscore.Internal_Hbond.Weighted>
0.0000

> <Gold.Chemscore.DEClash.Weighted>
0.0050

> <Gold.Chemscore.DEInternal.Weighted>
0.7600

> <Gold.Chemscore.Rot.Weighted>
5.5228

> <Gold.Chemscore.Internal.Correction.Weighted>
   9.000000E+99

> <Gold.Protein.RotatedTorsions>
[ 6907 6896 6895 6894 ] final   48.16 input  -60.11 | X-H torsion
[ 7974 7965 7964 7962 ] final   -8.54 input  175.53 | X-H torsion
[ 8008 7997 7996 7995 ] final   -9.26 input   59.86 | X-H torsion
[ 10167 10162 10161 10158 ] final   21.43 input  -65.29 | X-H torsion
[ 10718 10713 10712 10709 ] final  174.34 input   66.30 | X-H torsion
[ 10763 10752 10751 10750 ] final  125.25 input  -60.55 | X-H torsion
[ 11005 11000 10999 10996 ] final  -78.98 input  -57.11 | X-H torsion

> <Gold.Protein.ActiveResidues>
 VAL166  LYS551  ARG553  GLY616  TRP617  ASP618  TYR619  PRO620  LYS621  CYS622 
 ASP623  PHE694  ASN695  SER759  ASP760  ASP761  ALA762  ILE779  LEU786  VAL792 
 PHE793  MET794  SER795  GLU796  ALA797  LYS798  CYS799  TRP800  GLU811  SER814 

> <Gold.Protein.RotatedAtoms>
  152.2764  134.7877  160.0404 H   0  0  0  0  0  0  0  0  0  0  0  0  # atno 6907 bound_to 6896
  151.8472  133.3428  159.3670 H   0  0  0  0  0  0  0  0  0  0  0  0  # atno 6908 bound_to 6896
  150.7172  134.5263  159.5722 H   0  0  0  0  0  0  0  0  0  0  0  0  # atno 6909 bound_to 6896
  146.2277  140.2483  142.8346 H   0  0  0  0  0  0  0  0  0  0  0  0  # atno 7974 bound_to 7965
  154.5663  140.2359  155.8258 H   0  0  0  0  0  0  0  0  0  0  0  0  # atno 8008 bound_to 7997
  156.2071  140.3036  155.9609 H   0  0  0  0  0  0  0  0  0  0  0  0  # atno 8009 bound_to 7997
  155.2795  140.0422  157.3005 H   0  0  0  0  0  0  0  0  0  0  0  0  # atno 8010 bound_to 7997
  140.5427  143.9648  150.6529 H   0  0  0  0  0  0  0  0  0  0  0  0  # atno 10167 bound_to 10162
  156.9510  131.0031  151.2948 H   0  0  0  0  0  0  0  0  0  0  0  0  # atno 10718 bound_to 10713
  153.6743  135.3325  155.3161 H   0  0  0  0  0  0  0  0  0  0  0  0  # atno 10763 bound_to 10752
  154.8482  135.4394  154.1672 H   0  0  0  0  0  0  0  0  0  0  0  0  # atno 10764 bound_to 10752
  153.2672  135.6997  153.7594 H   0  0  0  0  0  0  0  0  0  0  0  0  # atno 10765 bound_to 10752
  141.1666  133.7086  156.8054 H   0  0  0  0  0  0  0  0  0  0  0  0  # atno 11005 bound_to 11000
  144.9431  140.8100  143.5618 LP  0  0  0  0  0  0  0  0  0  0  0  0  # atno 17320 bound_to 7965
  145.2436  139.2061  143.4979 LP  0  0  0  0  0  0  0  0  0  0  0  0  # atno 17321 bound_to 7965
  140.3053  143.3233  152.0932 LP  0  0  0  0  0  0  0  0  0  0  0  0  # atno 17342 bound_to 10162
  139.4995  144.6671  151.6331 LP  0  0  0  0  0  0  0  0  0  0  0  0  # atno 17343 bound_to 10162
  157.5722  130.8318  149.8407 LP  0  0  0  0  0  0  0  0  0  0  0  0  # atno 17370 bound_to 10713
  156.0363  130.3750  150.1552 LP  0  0  0  0  0  0  0  0  0  0  0  0  # atno 17371 bound_to 10713
  140.2226  134.8746  157.3393 LP  0  0  0  0  0  0  0  0  0  0  0  0  # atno 17394 bound_to 11000
  140.1972  134.4299  155.7682 LP  0  0  0  0  0  0  0  0  0  0  0  0  # atno 17395 bound_to 11000

$$$$
