AV-unprocessed.smi:3194|AV-procd|sdf|12211|dock4
  -GOLD-   2272018 43D 1   1.00000     0.00000
 Structure written by MMmdl.
 27 27  0  0  0  0  0  0  0  0  2 V2000
  147.2517  140.7777  156.4002 C   0  0  0  0  0  0  0  0  0  0  0  0
  148.4187  140.6142  155.4152 C   0  0  1  0  0  0  0  0  0  0  0  0
  148.0900  141.2501  154.0503 C   0  0  0  0  0  0  0  0  0  0  0  0
  149.2397  141.3333  153.2310 O   0  0  0  0  0  0  0  0  0  0  0  0
  149.6051  141.2551  155.9869 N   0  5  0  0  0  0  0  0  0  0  0  0
  150.8260  140.6561  156.1025 C   0  0  0  0  0  0  0  0  0  0  0  0
  151.5223  140.1045  155.2426 O   0  0  0  0  0  0  0  0  0  0  0  0
  151.3490  140.6992  157.5539 C   0  0  0  0  0  0  0  0  0  0  0  0
  150.4302  140.1696  158.3665 F   0  0  0  0  0  0  0  0  0  0  0  0
  152.4488  139.9456  157.6543 F   0  0  0  0  0  0  0  0  0  0  0  0
  151.6391  142.1367  157.9855 C   0  0  0  0  0  0  0  0  0  0  0  0
  152.2545  142.4147  159.2280 C   0  0  0  0  0  0  0  0  0  0  0  0
  152.5120  143.7556  159.5707 C   0  0  0  0  0  0  0  0  0  0  0  0
  152.1461  144.7699  158.6661 C   0  0  0  0  0  0  0  0  0  0  0  0
  151.5383  144.3949  157.4520 C   0  0  0  0  0  0  0  0  0  0  0  0
  151.2870  143.1127  157.1134 N   0  0  0  0  0  0  0  0  0  0  0  0
  148.5585  139.5431  155.2586 H   0  0  0  0  0  0  0  0  0  0  0  0
  146.3467  140.3072  156.0151 H   0  0  0  0  0  0  0  0  0  0  0  0
  147.0271  141.8292  156.5836 H   0  0  0  0  0  0  0  0  0  0  0  0
  147.4784  140.3125  157.3602 H   0  0  0  0  0  0  0  0  0  0  0  0
  147.3463  140.6508  153.5247 H   0  0  0  0  0  0  0  0  0  0  0  0
  147.6649  142.2469  154.1754 H   0  0  0  0  0  0  0  0  0  0  0  0
  149.2402  140.5961  152.6413 H   0  0  0  0  0  0  0  0  0  0  0  0
  152.5355  141.6172  159.8996 H   0  0  0  0  0  0  0  0  0  0  0  0
  152.9842  144.0011  160.5104 H   0  0  0  0  0  0  0  0  0  0  0  0
  152.3290  145.8092  158.8951 H   0  0  0  0  0  0  0  0  0  0  0  0
  151.2448  145.1457  156.7333 H   0  0  0  0  0  0  0  0  0  0  0  0
  1  2  1  0  0  0  0
  1 18  1  0  0  0  0
  1 19  1  0  0  0  0
  1 20  1  0  0  0  0
  2 17  1  0  0  0  0
  2  3  1  0  0  0  0
  2  5  1  0  0  0  0
  3  4  1  0  0  0  0
  3 21  1  0  0  0  0
  3 22  1  0  0  0  0
  4 23  1  0  0  0  0
  5  6  1  0  0  0  0
  6  7  2  0  0  0  0
  6  8  1  0  0  0  0
  8  9  1  0  0  0  0
  8 10  1  0  0  0  0
  8 11  1  0  0  0  0
 11 16  1  0  0  0  0
 11 12  2  0  0  0  0
 12 13  1  0  0  0  0
 12 24  1  0  0  0  0
 13 14  2  0  0  0  0
 13 25  1  0  0  0  0
 14 15  1  0  0  0  0
 14 26  1  0  0  0  0
 15 16  2  0  0  0  0
 15 27  1  0  0  0  0
M  CHG  1   5  -1
M  END
> <s_m_source_file>
AV-unprocessed.smi

> <i_m_source_file_index>
3194

> <i_lp_mmshare_version>
43012

> <i_f3d_flags>
0

> <s_epik_input>
W09IXVtDSDJdW0NASF0oW0NIM10pW05IXUMoPU8pQyhGKShGKWMxW2NIXVtjSF1bY0hdW2NIXW4x

> <s_epik_cmdline>
J2VwaWtfcHl0aG9uJywgJy1waCcsICc3LjAnLCAnLXRuJywgJzgnLCAnLW1hJywgJzIwMCcsICctbWV0YWxfYmluZGluZycsICctaW1hZScsICc8aW5maWxlLm1hZT4nLCAnLW9tYWUnLCAnPG91dGZpbGUubWFlPic=

> <r_lp_tautomer_probability>
1

> <r_epik_Ionization_Penalty>
5.78943

> <r_epik_Ionization_Penalty_Charging>
5.78942

> <r_epik_Ionization_Penalty_Neutral>
4.0054e-06

> <r_epik_State_Penalty>
5.78939

> <r_epik_Charging_Adjusted_Penalty>
11.5788

> <i_epik_Tot_Q>
-1

> <i_epik_Tot_abs_Q>
1

> <r_epik_Metal_State_Penalty>
1.76064

> <b_epik_Metal_Only>
1

> <s_lp_Force_Field>
OPLS_2005

> <r_lp_Energy>
17.1269

> <b_lp_Chiralities_Consistent>
1

> <s_lp_Variant>
AV-unprocessed.smi:3194-3

> <Gold.Version>
5.8.1

> <Gold.Id.Protein>
6NUR|6NUR_protein|mol2

> <Gold.PLP.Fitness>
41.7922

> <Gold.PLP.PLP>
-33.0782

> <Gold.PLP.part.hbond>
-3.6368

> <Gold.PLP.part.metal>
0.0000

> <Gold.PLP.part.buried>
-2.1680

> <Gold.PLP.part.nonpolar>
-26.5536

> <Gold.PLP.part.repulsive>
0.2276

> <Gold.PLP.ligand.clash>
0.3642

> <Gold.PLP.ligand.torsion>
0.9119

> <Gold.PLP.Chemscore.Hbond>
2.9280

> <Gold.PLP.Chemscore.CHOScore>
0.6894

> <Gold.PLP.Chemscore.Metal>
0.0000

> <Gold.Chemscore.Hbonds>
donor molecule, donor type, donor heavy atom, donor atom, acceptor molecule, acceptor atom, score
      L1  H     4    23       P1  7957  0.93
      P1  H  7989  7998       L1     7  1.00
      P1  H  8011  8017       L1     4  0.96
      L1  C    15    27       P1  8028  0.62

> <Gold.PLP.Chemscore.Internal.Correction>
0.0500

> <Gold.Rescore>
     Score         DG    S(hbond)    S(metal)    S(lipo)     H(rot)  DE(clash)    DE(int)     intcor
     12.87     -15.39       2.33        0.00      71.36       2.43       0.00       2.52       ----

> <Gold.Chemscore.Fitness>
12.8750

> <Gold.Chemscore.DG>
-15.3931

> <Gold.Chemscore.ZeroCoef>
-5.4800

> <Gold.Chemscore.Hbond>
2.3290

> <Gold.Chemscore.Metal>
0.0000

> <Gold.Chemscore.Lipo>
71.3605

> <Gold.Chemscore.Internal_Hbond>
0.0000

> <Gold.Chemscore.DEClash>
0.0005

> <Gold.Chemscore.DEInternal>
2.5177

> <Gold.Chemscore.Rot>
2.4277

> <Gold.Chemscore.Internal.Correction>
   9.000000E+99

> <Gold.Chemscore.Hbonds>
donor molecule, donor type, donor heavy atom, donor atom, acceptor molecule, acceptor atom, score
      L1  H     4    23       P1  7957  0.89
      P1  H  7989  7998       L1     7  0.93
      P1  H  8011  8017       L1     4  0.26

> <Gold.Chemscore.Hbond.Weighted>
-7.7788

> <Gold.Chemscore.Metal.Weighted>
-0.0000

> <Gold.Chemscore.Lipo.Weighted>
-8.3492

> <Gold.Chemscore.Internal_Hbond.Weighted>
0.0000

> <Gold.Chemscore.DEClash.Weighted>
0.0005

> <Gold.Chemscore.DEInternal.Weighted>
2.5177

> <Gold.Chemscore.Rot.Weighted>
6.2149

> <Gold.Chemscore.Internal.Correction.Weighted>
   9.000000E+99

> <Gold.Protein.RotatedTorsions>
[ 6907 6896 6895 6894 ] final   90.19 input  -60.11 | X-H torsion
[ 7974 7965 7964 7962 ] final   27.32 input  175.53 | X-H torsion
[ 8008 7997 7996 7995 ] final   13.65 input   59.86 | X-H torsion
[ 10167 10162 10161 10158 ] final   44.13 input  -65.29 | X-H torsion
[ 10718 10713 10712 10709 ] final   34.35 input   66.30 | X-H torsion
[ 10763 10752 10751 10750 ] final -148.16 input  -60.55 | X-H torsion
[ 11005 11000 10999 10996 ] final   76.14 input  -57.11 | X-H torsion

> <Gold.Protein.ActiveResidues>
 VAL166  LYS551  ARG553  GLY616  TRP617  ASP618  TYR619  PRO620  LYS621  CYS622 
 ASP623  PHE694  ASN695  SER759  ASP760  ASP761  ALA762  ILE779  LEU786  VAL792 
 PHE793  MET794  SER795  GLU796  ALA797  LYS798  CYS799  TRP800  GLU811  SER814 

> <Gold.Protein.RotatedAtoms>
  152.5442  134.1851  159.8650 H   0  0  0  0  0  0  0  0  0  0  0  0  # atno 6907 bound_to 6896
  151.1850  133.4695  159.2602 H   0  0  0  0  0  0  0  0  0  0  0  0  # atno 6908 bound_to 6896
  151.1140  135.0054  159.8563 H   0  0  0  0  0  0  0  0  0  0  0  0  # atno 6909 bound_to 6896
  146.1790  139.7207  142.8913 H   0  0  0  0  0  0  0  0  0  0  0  0  # atno 7974 bound_to 7965
  154.8374  140.2909  155.5682 H   0  0  0  0  0  0  0  0  0  0  0  0  # atno 8008 bound_to 7997
  156.3009  140.2520  156.3242 H   0  0  0  0  0  0  0  0  0  0  0  0  # atno 8009 bound_to 7997
  154.9163  140.0387  157.1963 H   0  0  0  0  0  0  0  0  0  0  0  0  # atno 8010 bound_to 7997
  140.3374  144.2512  150.6160 H   0  0  0  0  0  0  0  0  0  0  0  0  # atno 10167 bound_to 10162
  157.3092  130.7390  149.6714 H   0  0  0  0  0  0  0  0  0  0  0  0  # atno 10718 bound_to 10713
  154.8248  135.3341  154.6930 H   0  0  0  0  0  0  0  0  0  0  0  0  # atno 10763 bound_to 10752
  153.7558  135.6936  153.4940 H   0  0  0  0  0  0  0  0  0  0  0  0  # atno 10764 bound_to 10752
  153.2145  135.4470  155.0368 H   0  0  0  0  0  0  0  0  0  0  0  0  # atno 10765 bound_to 10752
  139.9311  134.7576  156.1359 H   0  0  0  0  0  0  0  0  0  0  0  0  # atno 11005 bound_to 11000
  145.4129  141.0398  143.3007 LP  0  0  0  0  0  0  0  0  0  0  0  0  # atno 17320 bound_to 7965
  144.8284  139.5670  143.6955 LP  0  0  0  0  0  0  0  0  0  0  0  0  # atno 17321 bound_to 7965
  140.5340  143.2237  151.8192 LP  0  0  0  0  0  0  0  0  0  0  0  0  # atno 17342 bound_to 10162
  139.4846  144.4684  151.9456 LP  0  0  0  0  0  0  0  0  0  0  0  0  # atno 17343 bound_to 10162
  155.9676  130.4256  150.4662 LP  0  0  0  0  0  0  0  0  0  0  0  0  # atno 17370 bound_to 10713
  157.2658  131.0576  151.2291 LP  0  0  0  0  0  0  0  0  0  0  0  0  # atno 17371 bound_to 10713
  141.0900  133.6718  156.2521 LP  0  0  0  0  0  0  0  0  0  0  0  0  # atno 17394 bound_to 11000
  140.6199  134.5372  157.5546 LP  0  0  0  0  0  0  0  0  0  0  0  0  # atno 17395 bound_to 11000

$$$$
