AV-unprocessed.smi:127|AV-procd|sdf|1153|dock8
  -GOLD-   2262018293D 1   1.00000     0.00000
 Structure written by MMmdl.
 28 29  0  0  0  0  0  0  0  0  2 V2000
  151.9851  137.0053  155.9582 O   0  0  0  0  0  0  0  0  0  0  0  0
  152.2185  138.1103  156.4948 C   0  0  0  0  0  0  0  0  0  0  0  0
  152.7734  139.0850  155.9424 O   0  5  0  0  0  0  0  0  0  0  0  0
  151.7838  138.2864  157.9529 C   0  0  0  0  0  0  0  0  0  0  0  0
  152.1896  139.5693  158.5099 N   0  0  0  0  0  0  0  0  0  0  0  0
  153.1317  139.5602  159.5701 C   0  0  0  0  0  0  0  0  0  0  0  0
  153.6995  138.5296  159.9364 O   0  0  0  0  0  0  0  0  0  0  0  0
  153.3751  140.8633  160.1793 C   0  0  0  0  0  0  0  0  0  0  0  0
  154.2727  140.9758  161.1733 F   0  0  0  0  0  0  0  0  0  0  0  0
  152.7149  141.9639  159.7607 C   0  0  0  0  0  0  0  0  0  0  0  0
  151.7723  141.9389  158.7473 N   0  0  0  0  0  0  0  0  0  0  0  0
  151.0548  143.1957  158.3067 C   0  0  2  0  0  0  0  0  0  0  0  0
  152.0660  144.2387  157.8176 C   0  0  0  0  0  0  0  0  0  0  0  0
  152.3029  145.0529  159.0708 C   0  0  0  0  0  0  0  0  0  0  0  0
  150.9232  145.0261  159.7187 C   0  0  0  0  0  0  0  0  0  0  0  0
  150.3796  143.7468  159.4013 O   0  0  0  0  0  0  0  0  0  0  0  0
  151.4860  140.7238  158.0868 C   0  0  0  0  0  0  0  0  0  0  0  0
  150.6608  140.6864  157.1708 O   0  0  0  0  0  0  0  0  0  0  0  0
  150.7012  138.1927  158.0512 H   0  0  0  0  0  0  0  0  0  0  0  0
  152.1901  137.4925  158.5816 H   0  0  0  0  0  0  0  0  0  0  0  0
  152.9445  142.8998  160.2478 H   0  0  0  0  0  0  0  0  0  0  0  0
  150.3338  142.8855  157.5488 H   0  0  0  0  0  0  0  0  0  0  0  0
  152.9673  143.7850  157.4034 H   0  0  0  0  0  0  0  0  0  0  0  0
  151.5915  144.8494  157.0484 H   0  0  0  0  0  0  0  0  0  0  0  0
  153.0327  144.5560  159.7111 H   0  0  0  0  0  0  0  0  0  0  0  0
  152.6593  146.0625  158.8657 H   0  0  0  0  0  0  0  0  0  0  0  0
  150.9616  145.1888  160.7960 H   0  0  0  0  0  0  0  0  0  0  0  0
  150.2837  145.7938  159.2811 H   0  0  0  0  0  0  0  0  0  0  0  0
  1  2  2  0  0  0  0
  2  3  1  0  0  0  0
  2  4  1  0  0  0  0
  4  5  1  0  0  0  0
  4 19  1  0  0  0  0
  4 20  1  0  0  0  0
  5 17  1  0  0  0  0
  5  6  1  0  0  0  0
  6  7  2  0  0  0  0
  6  8  1  0  0  0  0
  8  9  1  0  0  0  0
  8 10  2  0  0  0  0
 10 11  1  0  0  0  0
 10 21  1  0  0  0  0
 11 12  1  0  0  0  0
 11 17  1  0  0  0  0
 12 16  1  0  0  0  0
 12 13  1  0  0  0  0
 12 22  1  0  0  0  0
 13 14  1  0  0  0  0
 13 23  1  0  0  0  0
 13 24  1  0  0  0  0
 14 15  1  0  0  0  0
 14 25  1  0  0  0  0
 14 26  1  0  0  0  0
 15 16  1  0  0  0  0
 15 27  1  0  0  0  0
 15 28  1  0  0  0  0
 17 18  2  0  0  0  0
M  CHG  1   3  -1
M  END
> <s_m_source_file>
AV-unprocessed.smi

> <i_m_source_file_index>
127

> <i_lp_mmshare_version>
43012

> <i_f3d_flags>
0

> <s_epik_input>
Tz1DKFtPSF0pW0NIMl1uMWMoPU8pYyhGKVtjSF1uKGMxPU8pW0NAQEhdMltDSDJdW0NIMl1bQ0gyXU8y

> <s_epik_cmdline>
J2VwaWtfcHl0aG9uJywgJy1waCcsICc3LjAnLCAnLXRuJywgJzgnLCAnLW1hJywgJzIwMCcsICctbWV0YWxfYmluZGluZycsICctaW1hZScsICc8aW5maWxlLm1hZT4nLCAnLW9tYWUnLCAnPG91dGZpbGUubWFlPic=

> <r_lp_tautomer_probability>
1

> <r_epik_Ionization_Penalty>
0.00125813

> <r_epik_Ionization_Penalty_Charging>
0.00125813

> <r_epik_Ionization_Penalty_Neutral>
6.20402e-12

> <r_epik_State_Penalty>
0.000832915

> <r_epik_Charging_Adjusted_Penalty>
0.00209104

> <i_epik_Tot_Q>
-1

> <i_epik_Tot_abs_Q>
1

> <r_epik_Metal_State_Penalty>
-0

> <b_epik_Metal_Only>
0

> <s_epik_Chemistry_Notes>
This compound contains an acetal/aminal-like group ( X-CH(R)-Y where X, Y are N, S, or O) that may be acid/base labile, releasing an aldehyde.

> <s_lp_Force_Field>
OPLS_2005

> <r_lp_Energy>
23.3893

> <b_lp_Chiralities_Consistent>
1

> <s_lp_Variant>
AV-unprocessed.smi:127-1

> <Gold.Version>
5.8.1

> <Gold.Id.Protein>
6NUR|6NUR_protein|mol2

> <Gold.PLP.Fitness>
49.3361

> <Gold.PLP.PLP>
-37.5786

> <Gold.PLP.part.hbond>
-2.0747

> <Gold.PLP.part.metal>
0.0000

> <Gold.PLP.part.buried>
-6.3326

> <Gold.PLP.part.nonpolar>
-30.1313

> <Gold.PLP.part.repulsive>
0.1348

> <Gold.PLP.ligand.clash>
0.0000

> <Gold.PLP.ligand.torsion>
0.1197

> <Gold.PLP.Chemscore.Hbond>
3.9840

> <Gold.PLP.Chemscore.CHOScore>
0.0000

> <Gold.PLP.Chemscore.Metal>
0.0000

> <Gold.Chemscore.Hbonds>
donor molecule, donor type, donor heavy atom, donor atom, acceptor molecule, acceptor atom, score
      P1  H  7997  8009       L1     3  2.00
      P1  H 10752 10764       L1     1  1.62

> <Gold.PLP.Chemscore.Internal.Correction>
0.0448

> <Gold.Rescore>
     Score         DG    S(hbond)    S(metal)    S(lipo)     H(rot)  DE(clash)    DE(int)     intcor
     13.58     -13.84       1.96        0.00      60.91       2.08       0.01       0.25       ----

> <Gold.Chemscore.Fitness>
13.5810

> <Gold.Chemscore.DG>
-13.8367

> <Gold.Chemscore.ZeroCoef>
-5.4800

> <Gold.Chemscore.Hbond>
1.9598

> <Gold.Chemscore.Metal>
0.0000

> <Gold.Chemscore.Lipo>
60.9124

> <Gold.Chemscore.Internal_Hbond>
0.0000

> <Gold.Chemscore.DEClash>
0.0073

> <Gold.Chemscore.DEInternal>
0.2483

> <Gold.Chemscore.Rot>
2.0765

> <Gold.Chemscore.Internal.Correction>
   9.000000E+99

> <Gold.Chemscore.Hbonds>
donor molecule, donor type, donor heavy atom, donor atom, acceptor molecule, acceptor atom, score
      P1  H  7997  8009       L1     3  1.00
      P1  H 10752 10764       L1     1  0.77

> <Gold.Chemscore.Hbond.Weighted>
-6.5458

> <Gold.Chemscore.Metal.Weighted>
-0.0000

> <Gold.Chemscore.Lipo.Weighted>
-7.1268

> <Gold.Chemscore.Internal_Hbond.Weighted>
0.0000

> <Gold.Chemscore.DEClash.Weighted>
0.0073

> <Gold.Chemscore.DEInternal.Weighted>
0.2483

> <Gold.Chemscore.Rot.Weighted>
5.3159

> <Gold.Chemscore.Internal.Correction.Weighted>
   9.000000E+99

> <Gold.Protein.RotatedTorsions>
[ 6907 6896 6895 6894 ] final   37.60 input  -60.11 | X-H torsion
[ 7974 7965 7964 7962 ] final   -8.87 input  175.53 | X-H torsion
[ 8008 7997 7996 7995 ] final -157.70 input   59.86 | X-H torsion
[ 10167 10162 10161 10158 ] final -143.37 input  -65.29 | X-H torsion
[ 10718 10713 10712 10709 ] final  -59.05 input   66.30 | X-H torsion
[ 10763 10752 10751 10750 ] final  -42.79 input  -60.55 | X-H torsion
[ 11005 11000 10999 10996 ] final  148.86 input  -57.11 | X-H torsion

> <Gold.Protein.ActiveResidues>
 VAL166  LYS551  ARG553  GLY616  TRP617  ASP618  TYR619  PRO620  LYS621  CYS622 
 ASP623  PHE694  ASN695  SER759  ASP760  ASP761  ALA762  ILE779  LEU786  VAL792 
 PHE793  MET794  SER795  GLU796  ALA797  LYS798  CYS799  TRP800  GLU811  SER814 

> <Gold.Protein.RotatedAtoms>
  152.1453  134.9030  160.0551 H   0  0  0  0  0  0  0  0  0  0  0  0  # atno 6907 bound_to 6896
  152.0083  133.3846  159.4217 H   0  0  0  0  0  0  0  0  0  0  0  0  # atno 6908 bound_to 6896
  150.6869  134.3680  159.5023 H   0  0  0  0  0  0  0  0  0  0  0  0  # atno 6909 bound_to 6896
  146.2268  140.2532  142.8348 H   0  0  0  0  0  0  0  0  0  0  0  0  # atno 7974 bound_to 7965
  155.7364  140.0808  157.2266 H   0  0  0  0  0  0  0  0  0  0  0  0  # atno 8008 bound_to 7997
  154.4027  140.1586  156.2621 H   0  0  0  0  0  0  0  0  0  0  0  0  # atno 8009 bound_to 7997
  155.9061  140.3407  155.6066 H   0  0  0  0  0  0  0  0  0  0  0  0  # atno 8010 bound_to 7997
  139.7999  143.7847  152.2657 H   0  0  0  0  0  0  0  0  0  0  0  0  # atno 10167 bound_to 10162
  156.1090  130.4177  150.0661 H   0  0  0  0  0  0  0  0  0  0  0  0  # atno 10718 bound_to 10713
  153.9848  135.6712  153.4751 H   0  0  0  0  0  0  0  0  0  0  0  0  # atno 10763 bound_to 10752
  153.0732  135.4963  154.8345 H   0  0  0  0  0  0  0  0  0  0  0  0  # atno 10764 bound_to 10752
  154.7143  135.3104  154.9110 H   0  0  0  0  0  0  0  0  0  0  0  0  # atno 10765 bound_to 10752
  140.0996  134.8991  157.1775 H   0  0  0  0  0  0  0  0  0  0  0  0  # atno 11005 bound_to 11000
  144.9396  140.8063  143.5639 LP  0  0  0  0  0  0  0  0  0  0  0  0  # atno 17320 bound_to 7965
  145.2483  139.2043  143.4956 LP  0  0  0  0  0  0  0  0  0  0  0  0  # atno 17321 bound_to 7965
  139.7964  144.7391  150.9884 LP  0  0  0  0  0  0  0  0  0  0  0  0  # atno 17342 bound_to 10162
  140.7820  143.4389  151.0581 LP  0  0  0  0  0  0  0  0  0  0  0  0  # atno 17343 bound_to 10162
  156.8629  130.9498  151.3616 LP  0  0  0  0  0  0  0  0  0  0  0  0  # atno 17370 bound_to 10713
  157.6270  130.8699  149.9206 LP  0  0  0  0  0  0  0  0  0  0  0  0  # atno 17371 bound_to 10713
  140.3239  134.2886  155.7241 LP  0  0  0  0  0  0  0  0  0  0  0  0  # atno 17394 bound_to 11000
  141.2102  133.7727  156.9949 LP  0  0  0  0  0  0  0  0  0  0  0  0  # atno 17395 bound_to 11000

$$$$
