AV-unprocessed.smi:12|AV-procd|sdf|67|dock1
  -GOLD-   2262015183D 1   1.00000     0.00000
 Structure written by MMmdl.
 41 44  0  0  0  0  0  0  0  0  1 V2000
  146.9373  134.6545  162.7875 C   0  0  0  0  0  0  0  0  0  0  0  0
  147.0596  135.5416  161.5617 C   0  0  0  0  0  0  0  0  0  0  0  0
  148.0327  135.3520  160.6394 C   0  0  0  0  0  0  0  0  0  0  0  0
  148.1017  136.1833  159.5565 N   0  0  0  0  0  0  0  0  0  0  0  0
  147.1554  137.2170  159.4076 C   0  0  0  0  0  0  0  0  0  0  0  0
  146.1963  137.4648  160.2443 N   0  0  0  0  0  0  0  0  0  0  0  0
  146.0820  136.6446  161.3831 C   0  0  0  0  0  0  0  0  0  0  0  0
  145.1896  136.8408  162.2070 O   0  0  0  0  0  0  0  0  0  0  0  0
  147.4190  137.8860  158.2532 O   0  0  0  0  0  0  0  0  0  0  0  0
  148.5143  137.2672  157.5554 C   0  0  1  0  0  0  0  0  0  0  0  0
  149.7196  138.1898  157.4349 C   0  0  1  0  0  0  0  0  0  0  0  0
  149.3443  139.5206  157.1413 O   0  0  0  0  0  0  0  0  0  0  0  0
  150.4296  137.9961  158.7745 C   0  0  2  0  0  0  0  0  0  0  0  0
  151.9124  138.3890  158.7744 C   0  0  0  0  0  0  0  0  0  0  0  0
  152.0314  139.7877  158.9786 O   0  0  0  0  0  0  0  0  0  0  0  0
  152.1119  140.6209  157.9232 C   0  0  0  0  0  0  0  0  0  0  0  0
  152.2074  140.2363  156.7560 O   0  0  0  0  0  0  0  0  0  0  0  0
  152.0728  142.0594  158.3163 C   0  0  0  0  0  0  0  0  0  0  0  0
  151.6683  143.0265  157.3664 C   0  0  0  0  0  0  0  0  0  0  0  0
  151.6211  144.3920  157.7082 C   0  0  0  0  0  0  0  0  0  0  0  0
  151.9772  144.8071  159.0045 C   0  0  0  0  0  0  0  0  0  0  0  0
  152.3809  143.8552  159.9586 C   0  0  0  0  0  0  0  0  0  0  0  0
  152.4293  142.4890  159.6188 C   0  0  0  0  0  0  0  0  0  0  0  0
  150.3076  136.5879  158.9547 O   0  0  0  0  0  0  0  0  0  0  0  0
  149.0738  136.1474  158.4609 C   0  0  1  0  0  0  0  0  0  0  0  0
  147.7098  133.8850  162.7998 H   0  0  0  0  0  0  0  0  0  0  0  0
  145.9668  134.1577  162.8037 H   0  0  0  0  0  0  0  0  0  0  0  0
  147.0368  135.2475  163.6974 H   0  0  0  0  0  0  0  0  0  0  0  0
  148.7574  134.5582  160.7489 H   0  0  0  0  0  0  0  0  0  0  0  0
  148.1854  136.8669  156.5957 H   0  0  0  0  0  0  0  0  0  0  0  0
  150.3637  137.8274  156.6321 H   0  0  0  0  0  0  0  0  0  0  0  0
  149.9700  139.8818  156.5319 H   0  0  0  0  0  0  0  0  0  0  0  0
  149.8958  138.5047  159.5794 H   0  0  0  0  0  0  0  0  0  0  0  0
  152.4344  137.8641  159.5755 H   0  0  0  0  0  0  0  0  0  0  0  0
  152.3820  138.1011  157.8328 H   0  0  0  0  0  0  0  0  0  0  0  0
  151.3902  142.7319  156.3648 H   0  0  0  0  0  0  0  0  0  0  0  0
  151.3114  145.1214  156.9745 H   0  0  0  0  0  0  0  0  0  0  0  0
  151.9406  145.8544  159.2662 H   0  0  0  0  0  0  0  0  0  0  0  0
  152.6545  144.1728  160.9540 H   0  0  0  0  0  0  0  0  0  0  0  0
  152.7436  141.7853  160.3758 H   0  0  0  0  0  0  0  0  0  0  0  0
  149.0553  135.1327  158.0621 H   0  0  0  0  0  0  0  0  0  0  0  0
  1  2  1  0  0  0  0
  1 26  1  0  0  0  0
  1 27  1  0  0  0  0
  1 28  1  0  0  0  0
  2  7  1  0  0  0  0
  2  3  2  0  0  0  0
  3  4  1  0  0  0  0
  3 29  1  0  0  0  0
  4 25  1  0  0  0  0
  4  5  1  0  0  0  0
  5  6  2  0  0  0  0
  5  9  1  0  0  0  0
  6  7  1  0  0  0  0
  7  8  2  0  0  0  0
  9 10  1  0  0  0  0
 10 25  1  0  0  0  0
 10 11  1  0  0  0  0
 10 30  1  0  0  0  0
 11 12  1  0  0  0  0
 11 13  1  0  0  0  0
 11 31  1  0  0  0  0
 12 32  1  0  0  0  0
 13 14  1  0  0  0  0
 13 24  1  0  0  0  0
 13 33  1  0  0  0  0
 14 15  1  0  0  0  0
 14 34  1  0  0  0  0
 14 35  1  0  0  0  0
 15 16  1  0  0  0  0
 16 17  2  0  0  0  0
 16 18  1  0  0  0  0
 18 23  1  0  0  0  0
 18 19  2  0  0  0  0
 19 20  1  0  0  0  0
 19 36  1  0  0  0  0
 20 21  2  0  0  0  0
 20 37  1  0  0  0  0
 21 22  1  0  0  0  0
 21 38  1  0  0  0  0
 22 23  2  0  0  0  0
 22 39  1  0  0  0  0
 23 40  1  0  0  0  0
 24 25  1  0  0  0  0
 25 41  1  0  0  0  0
M  END
> <s_m_source_file>
AV-unprocessed.smi

> <i_m_source_file_index>
12

> <i_lp_mmshare_version>
43012

> <i_f3d_flags>
0

> <s_epik_input>
W0NIM11jKFtjSF0xKWMoPU8pbmMobjEyKU9bQ0BIXTNbQ0BASF0yT1tDQEBIXShbQ0BASF0zW09IXSlbQ0gyXU9DKD1PKWM0W2NIXVtjSF1bY0hdW2NIXVtjSF00

> <s_epik_cmdline>
J2VwaWtfcHl0aG9uJywgJy1waCcsICc3LjAnLCAnLXRuJywgJzgnLCAnLW1hJywgJzIwMCcsICctbWV0YWxfYmluZGluZycsICctaW1hZScsICc8aW5maWxlLm1hZT4nLCAnLW9tYWUnLCAnPG91dGZpbGUubWFlPic=

> <r_lp_tautomer_probability>
0.933681

> <r_epik_Ionization_Penalty>
0.00399549

> <r_epik_Ionization_Penalty_Charging>
3.09373e-09

> <r_epik_Ionization_Penalty_Neutral>
0.00399549

> <r_epik_State_Penalty>
0.00284953

> <r_epik_Charging_Adjusted_Penalty>
0.00284953

> <i_epik_Tot_Q>
0

> <i_epik_Tot_abs_Q>
0

> <r_epik_Metal_State_Penalty>
-0

> <b_epik_Metal_Only>
0

> <s_epik_Chemistry_Notes>
This compound has an ester and may undergo hydrolysis at high or low pH. This compound contains an acetal/aminal-like group ( X-CH(R)-Y where X, Y are N, S, or O) that may be acid/base labile, releasing an aldehyde.

> <s_lp_Force_Field>
OPLS_2005

> <r_lp_Energy>
46.3609

> <b_lp_Chiralities_Consistent>
1

> <s_lp_Variant>
AV-unprocessed.smi:12-7

> <Gold.Version>
5.8.1

> <Gold.Id.Protein>
6NUR|6NUR_protein|mol2

> <Gold.PLP.Fitness>
48.9196

> <Gold.PLP.PLP>
-42.5809

> <Gold.PLP.part.hbond>
-3.0000

> <Gold.PLP.part.metal>
0.0000

> <Gold.PLP.part.buried>
-4.6615

> <Gold.PLP.part.nonpolar>
-34.5341

> <Gold.PLP.part.repulsive>
0.0000

> <Gold.PLP.ligand.clash>
0.0000

> <Gold.PLP.ligand.torsion>
0.6758

> <Gold.PLP.Chemscore.Hbond>
2.5500

> <Gold.PLP.Chemscore.CHOScore>
0.0000

> <Gold.PLP.Chemscore.Metal>
0.0000

> <Gold.Chemscore.Hbonds>
donor molecule, donor type, donor heavy atom, donor atom, acceptor molecule, acceptor atom, score
      P1  H  6896  6908       L1    24  1.00
      P1  H  6934  6947       L1     6  0.55
      P1  H  7997  8008       L1    17  0.68

> <Gold.PLP.Chemscore.Internal.Correction>
0.0404

> <Gold.Rescore>
     Score         DG    S(hbond)    S(metal)    S(lipo)     H(rot)  DE(clash)    DE(int)     intcor
     17.12     -18.18       1.84        0.00     103.78       2.18       0.19       0.88       ----

> <Gold.Chemscore.Fitness>
17.1188

> <Gold.Chemscore.DG>
-18.1849

> <Gold.Chemscore.ZeroCoef>
-5.4800

> <Gold.Chemscore.Hbond>
1.8392

> <Gold.Chemscore.Metal>
0.0000

> <Gold.Chemscore.Lipo>
103.7833

> <Gold.Chemscore.Internal_Hbond>
0.0000

> <Gold.Chemscore.DEClash>
0.1911

> <Gold.Chemscore.DEInternal>
0.8750

> <Gold.Chemscore.Rot>
2.1800

> <Gold.Chemscore.Internal.Correction>
   9.000000E+99

> <Gold.Chemscore.Hbonds>
donor molecule, donor type, donor heavy atom, donor atom, acceptor molecule, acceptor atom, score
      P1  H  6896  6908       L1    24  0.64
      P1  H  6934  6947       L1     6  0.01
      P1  H  7997  8008       L1    17  0.17

> <Gold.Chemscore.Hbond.Weighted>
-6.1430

> <Gold.Chemscore.Metal.Weighted>
-0.0000

> <Gold.Chemscore.Lipo.Weighted>
-12.1426

> <Gold.Chemscore.Internal_Hbond.Weighted>
0.0000

> <Gold.Chemscore.DEClash.Weighted>
0.1911

> <Gold.Chemscore.DEInternal.Weighted>
0.8750

> <Gold.Chemscore.Rot.Weighted>
5.5807

> <Gold.Chemscore.Internal.Correction.Weighted>
   9.000000E+99

> <Gold.Protein.RotatedTorsions>
[ 6907 6896 6895 6894 ] final -144.99 input  -60.11 | X-H torsion
[ 7974 7965 7964 7962 ] final   17.76 input  175.53 | X-H torsion
[ 8008 7997 7996 7995 ] final  -55.68 input   59.86 | X-H torsion
[ 10167 10162 10161 10158 ] final -114.24 input  -65.29 | X-H torsion
[ 10718 10713 10712 10709 ] final  177.64 input   66.30 | X-H torsion
[ 10763 10752 10751 10750 ] final  -61.28 input  -60.55 | X-H torsion
[ 11005 11000 10999 10996 ] final -155.39 input  -57.11 | X-H torsion

> <Gold.Protein.ActiveResidues>
 VAL166  LYS551  ARG553  GLY616  TRP617  ASP618  TYR619  PRO620  LYS621  CYS622 
 ASP623  PHE694  ASN695  SER759  ASP760  ASP761  ALA762  ILE779  LEU786  VAL792 
 PHE793  MET794  SER795  GLU796  ALA797  LYS798  CYS799  TRP800  GLU811  SER814 

> <Gold.Protein.RotatedAtoms>
  151.1216  133.5100  159.2601 H   0  0  0  0  0  0  0  0  0  0  0  0  # atno 6907 bound_to 6896
  151.1856  135.0379  159.8821 H   0  0  0  0  0  0  0  0  0  0  0  0  # atno 6908 bound_to 6896
  152.5456  134.1062  159.8392 H   0  0  0  0  0  0  0  0  0  0  0  0  # atno 6909 bound_to 6896
  146.2208  139.8556  142.8614 H   0  0  0  0  0  0  0  0  0  0  0  0  # atno 7974 bound_to 7965
  154.4203  140.1147  156.5515 H   0  0  0  0  0  0  0  0  0  0  0  0  # atno 8008 bound_to 7997
  155.6405  140.3496  155.4694 H   0  0  0  0  0  0  0  0  0  0  0  0  # atno 8009 bound_to 7997
  155.9875  140.1172  157.0659 H   0  0  0  0  0  0  0  0  0  0  0  0  # atno 8010 bound_to 7997
  140.1031  143.4594  152.1799 H   0  0  0  0  0  0  0  0  0  0  0  0  # atno 10167 bound_to 10162
  156.9024  130.9883  151.3033 H   0  0  0  0  0  0  0  0  0  0  0  0  # atno 10718 bound_to 10713
  154.2822  135.6269  153.5351 H   0  0  0  0  0  0  0  0  0  0  0  0  # atno 10763 bound_to 10752
  152.9864  135.5635  154.5483 H   0  0  0  0  0  0  0  0  0  0  0  0  # atno 10764 bound_to 10752
  154.5076  135.2875  155.1345 H   0  0  0  0  0  0  0  0  0  0  0  0  # atno 10765 bound_to 10752
  140.6870  134.4082  157.5222 H   0  0  0  0  0  0  0  0  0  0  0  0  # atno 11005 bound_to 11000
  145.2757  141.0123  143.3746 LP  0  0  0  0  0  0  0  0  0  0  0  0  # atno 17320 bound_to 7965
  144.9189  139.4436  143.6551 LP  0  0  0  0  0  0  0  0  0  0  0  0  # atno 17321 bound_to 7965
  139.5660  144.7435  151.4022 LP  0  0  0  0  0  0  0  0  0  0  0  0  # atno 17342 bound_to 10162
  140.6967  143.7733  150.7337 LP  0  0  0  0  0  0  0  0  0  0  0  0  # atno 17343 bound_to 10162
  157.6018  130.8518  149.8814 LP  0  0  0  0  0  0  0  0  0  0  0  0  # atno 17370 bound_to 10713
  156.0575  130.3705  150.1057 LP  0  0  0  0  0  0  0  0  0  0  0  0  # atno 17371 bound_to 10713
  139.8934  134.8730  156.2223 LP  0  0  0  0  0  0  0  0  0  0  0  0  # atno 17394 bound_to 11000
  141.0272  133.7009  156.1367 LP  0  0  0  0  0  0  0  0  0  0  0  0  # atno 17395 bound_to 11000

$$$$
