AV-unprocessed.smi:155|AV-procd|sdf|1271|dock8
  -GOLD-   2262018533D 1   1.00000     0.00000
 Structure written by MMmdl.
 63 66  0  0  0  0  0  0  0  0  2 V2000
  143.9189  132.3303  149.9632 C   0  0  0  0  0  0  0  0  0  0  0  0
  144.6187  132.2443  151.2404 N   0  0  0  0  0  0  0  0  0  0  0  0
  145.1022  130.8800  151.4058 C   0  0  0  0  0  0  0  0  0  0  0  0
  145.7533  133.1646  151.2879 C   0  0  0  0  0  0  0  0  0  0  0  0
  145.3365  134.6310  151.0173 C   0  0  0  0  0  0  0  0  0  0  0  0
  145.9802  135.6186  151.9230 N   0  3  2  0  0  0  0  0  0  0  0  0
  145.9469  135.2125  153.3504 C   0  0  0  0  0  0  0  0  0  0  0  0
  146.8883  136.0450  154.2366 C   0  0  0  0  0  0  0  0  0  0  0  0
  146.3604  137.4577  154.5358 C   0  0  0  0  0  0  0  0  0  0  0  0
  146.6082  138.4227  153.4620 N   0  0  0  0  0  0  0  0  0  0  0  0
  147.1860  139.6059  153.8017 C   0  0  0  0  0  0  0  0  0  0  0  0
  146.6367  140.7641  153.3462 N   0  0  0  0  0  0  0  0  0  0  0  0
  147.1863  141.9427  153.6530 C   0  0  0  0  0  0  0  0  0  0  0  0
  148.2675  142.1910  154.3934 N   0  0  0  0  0  0  0  0  0  0  0  0
  148.8192  141.0360  154.8625 C   0  0  0  0  0  0  0  0  0  0  0  0
  148.3489  139.7141  154.6197 C   0  0  0  0  0  0  0  0  0  0  0  0
  149.1640  138.7987  155.2779 N   0  0  0  0  0  0  0  0  0  0  0  0
  150.0701  139.5356  155.8611 C   0  0  0  0  0  0  0  0  0  0  0  0
  149.9378  140.8903  155.6616 N   0  0  0  0  0  0  0  0  0  0  0  0
  150.7942  141.9391  156.1839 C   0  0  0  0  0  0  0  0  0  0  0  0
  150.5532  142.1912  157.6871 C   0  0  2  0  0  0  0  0  0  0  0  0
  149.2790  142.7676  157.8946 O   0  0  0  0  0  0  0  0  0  0  0  0
  151.6186  143.0803  158.3596 C   0  0  1  0  0  0  0  0  0  0  0  0
  151.7368  144.4798  157.7511 C   0  0  0  0  0  0  0  0  0  0  0  0
  152.2985  145.2727  158.9083 C   0  0  0  0  0  0  0  0  0  0  0  0
  151.5483  144.6626  160.0870 C   0  0  0  0  0  0  0  0  0  0  0  0
  151.3277  143.2981  159.7404 O   0  0  0  0  0  0  0  0  0  0  0  0
  146.6251  138.0260  152.0524 C   0  0  0  0  0  0  0  0  0  0  0  0
  145.5322  137.0132  151.6810 C   0  0  0  0  0  0  0  0  0  0  0  0
  143.4924  133.3204  149.8093 H   0  0  0  0  0  0  0  0  0  0  0  0
  143.0947  131.6167  149.9328 H   0  0  0  0  0  0  0  0  0  0  0  0
  144.5862  132.1124  149.1280 H   0  0  0  0  0  0  0  0  0  0  0  0
  145.6054  130.7643  152.3667 H   0  0  0  0  0  0  0  0  0  0  0  0
  145.8052  130.6079  150.6170 H   0  0  0  0  0  0  0  0  0  0  0  0
  144.2725  130.1726  151.3833 H   0  0  0  0  0  0  0  0  0  0  0  0
  146.2106  133.1249  152.2777 H   0  0  0  0  0  0  0  0  0  0  0  0
  146.5200  132.8228  150.5916 H   0  0  0  0  0  0  0  0  0  0  0  0
  145.5417  134.9240  149.9870 H   0  0  0  0  0  0  0  0  0  0  0  0
  144.2541  134.7179  151.1180 H   0  0  0  0  0  0  0  0  0  0  0  0
  144.9284  135.2504  153.7383 H   0  0  0  0  0  0  0  0  0  0  0  0
  146.2636  134.1712  153.4167 H   0  0  0  0  0  0  0  0  0  0  0  0
  146.9807  135.5233  155.1898 H   0  0  0  0  0  0  0  0  0  0  0  0
  147.8970  136.0801  153.8222 H   0  0  0  0  0  0  0  0  0  0  0  0
  145.2937  137.4315  154.7609 H   0  0  0  0  0  0  0  0  0  0  0  0
  146.8551  137.7938  155.4478 H   0  0  0  0  0  0  0  0  0  0  0  0
  146.6901  142.8112  153.2450 H   0  0  0  0  0  0  0  0  0  0  0  0
  150.8654  139.1087  156.4549 H   0  0  0  0  0  0  0  0  0  0  0  0
  151.8290  141.6477  156.0038 H   0  0  0  0  0  0  0  0  0  0  0  0
  150.6227  142.8483  155.6063 H   0  0  0  0  0  0  0  0  0  0  0  0
  150.5363  141.2332  158.2089 H   0  0  0  0  0  0  0  0  0  0  0  0
  149.2132  143.5444  157.3604 H   0  0  0  0  0  0  0  0  0  0  0  0
  152.6003  142.6070  158.2959 H   0  0  0  0  0  0  0  0  0  0  0  0
  152.3745  144.5050  156.8671 H   0  0  0  0  0  0  0  0  0  0  0  0
  150.7589  144.8742  157.4738 H   0  0  0  0  0  0  0  0  0  0  0  0
  153.3694  145.0885  159.0053 H   0  0  0  0  0  0  0  0  0  0  0  0
  152.1415  146.3472  158.8110 H   0  0  0  0  0  0  0  0  0  0  0  0
  152.0969  144.7541  161.0247 H   0  0  0  0  0  0  0  0  0  0  0  0
  150.5794  145.1475  160.2125 H   0  0  0  0  0  0  0  0  0  0  0  0
  146.4584  138.9209  151.4508 H   0  0  0  0  0  0  0  0  0  0  0  0
  147.6120  137.6504  151.7782 H   0  0  0  0  0  0  0  0  0  0  0  0
  145.3413  137.1273  150.6130 H   0  0  0  0  0  0  0  0  0  0  0  0
  144.5879  137.2299  152.1829 H   0  0  0  0  0  0  0  0  0  0  0  0
  146.9554  135.6014  151.6607 H   0  0  0  0  0  0  0  0  0  0  0  0
  1  2  1  0  0  0  0
  1 30  1  0  0  0  0
  1 31  1  0  0  0  0
  1 32  1  0  0  0  0
  2  3  1  0  0  0  0
  2  4  1  0  0  0  0
  3 33  1  0  0  0  0
  3 34  1  0  0  0  0
  3 35  1  0  0  0  0
  4  5  1  0  0  0  0
  4 36  1  0  0  0  0
  4 37  1  0  0  0  0
  5  6  1  0  0  0  0
  5 38  1  0  0  0  0
  5 39  1  0  0  0  0
  6 29  1  0  0  0  0
  6  7  1  0  0  0  0
  6 63  1  0  0  0  0
  7  8  1  0  0  0  0
  7 40  1  0  0  0  0
  7 41  1  0  0  0  0
  8  9  1  0  0  0  0
  8 42  1  0  0  0  0
  8 43  1  0  0  0  0
  9 10  1  0  0  0  0
  9 44  1  0  0  0  0
  9 45  1  0  0  0  0
 10 11  1  0  0  0  0
 10 28  1  0  0  0  0
 11 16  1  0  0  0  0
 11 12  2  0  0  0  0
 12 13  1  0  0  0  0
 13 14  2  0  0  0  0
 13 46  1  0  0  0  0
 14 15  1  0  0  0  0
 15 19  1  0  0  0  0
 15 16  2  0  0  0  0
 16 17  1  0  0  0  0
 17 18  2  0  0  0  0
 18 19  1  0  0  0  0
 18 47  1  0  0  0  0
 19 20  1  0  0  0  0
 20 21  1  0  0  0  0
 20 48  1  0  0  0  0
 20 49  1  0  0  0  0
 21 22  1  0  0  0  0
 21 23  1  0  0  0  0
 21 50  1  0  0  0  0
 22 51  1  0  0  0  0
 23 27  1  0  0  0  0
 23 24  1  0  0  0  0
 23 52  1  0  0  0  0
 24 25  1  0  0  0  0
 24 53  1  0  0  0  0
 24 54  1  0  0  0  0
 25 26  1  0  0  0  0
 25 55  1  0  0  0  0
 25 56  1  0  0  0  0
 26 27  1  0  0  0  0
 26 57  1  0  0  0  0
 26 58  1  0  0  0  0
 28 29  1  0  0  0  0
 28 59  1  0  0  0  0
 28 60  1  0  0  0  0
 29 61  1  0  0  0  0
 29 62  1  0  0  0  0
M  CHG  1   6   1
M  END
> <s_m_source_file>
AV-unprocessed.smi

> <i_m_source_file_index>
155

> <i_lp_mmshare_version>
43012

> <i_f3d_flags>
0

> <s_epik_input>
W0NIM11OKFtDSDNdKVtDSDJdW0NIMl1OMVtDSDJdW0NIMl1bQ0gyXU4oW0NIMl1bQ0gyXTEpYyhuW2NIXW4yKWMoYzIzKW5bY0hdbjNbQ0gyXVtDQEhdKFtPSF0pW0NAQEhdNFtDSDJdW0NIMl1bQ0gyXU80

> <s_epik_cmdline>
J2VwaWtfcHl0aG9uJywgJy1waCcsICc3LjAnLCAnLXRuJywgJzgnLCAnLW1hJywgJzIwMCcsICctbWV0YWxfYmluZGluZycsICctaW1hZScsICc8aW5maWxlLm1hZT4nLCAnLW9tYWUnLCAnPG91dGZpbGUubWFlPic=

> <r_epik_Ionization_Penalty>
0.0619615

> <r_epik_Ionization_Penalty_Charging>
0.0161638

> <r_epik_Ionization_Penalty_Neutral>
0.0457976

> <r_epik_State_Penalty>
0.403408

> <r_epik_Charging_Adjusted_Penalty>
0.419572

> <i_epik_Tot_Q>
1

> <i_epik_Tot_abs_Q>
1

> <r_epik_Metal_State_Penalty>
0.404222

> <b_epik_Metal_Only>
0

> <s_lp_Force_Field>
OPLS_2005

> <r_lp_Energy>
57.0558

> <b_lp_Chiralities_Consistent>
1

> <s_lp_Variant>
AV-unprocessed.smi:155-5

> <Gold.Version>
5.8.1

> <Gold.Id.Protein>
6NUR|6NUR_protein|mol2

> <Gold.PLP.Fitness>
56.5190

> <Gold.PLP.PLP>
-50.3448

> <Gold.PLP.part.hbond>
-3.0000

> <Gold.PLP.part.metal>
0.0000

> <Gold.PLP.part.buried>
-2.3652

> <Gold.PLP.part.nonpolar>
-46.2574

> <Gold.PLP.part.repulsive>
1.7269

> <Gold.PLP.ligand.clash>
0.0000

> <Gold.PLP.ligand.torsion>
1.6584

> <Gold.PLP.Chemscore.Hbond>
3.0593

> <Gold.PLP.Chemscore.CHOScore>
0.0000

> <Gold.PLP.Chemscore.Metal>
0.0000

> <Gold.Chemscore.Hbonds>
donor molecule, donor type, donor heavy atom, donor atom, acceptor molecule, acceptor atom, score
      L1  H     6    63       P1  7948  1.82
      L1  H    22    51       P1  8028  0.88

> <Gold.PLP.Chemscore.Internal.Correction>
0.3131

> <Gold.Rescore>
     Score         DG    S(hbond)    S(metal)    S(lipo)     H(rot)  DE(clash)    DE(int)     intcor
     13.46     -19.03       1.78        0.00     122.62       2.63       3.83       1.74       ----

> <Gold.Chemscore.Fitness>
13.4605

> <Gold.Chemscore.DG>
-19.0313

> <Gold.Chemscore.ZeroCoef>
-5.4800

> <Gold.Chemscore.Hbond>
1.7796

> <Gold.Chemscore.Metal>
0.0000

> <Gold.Chemscore.Lipo>
122.6187

> <Gold.Chemscore.Internal_Hbond>
0.0000

> <Gold.Chemscore.DEClash>
3.8280

> <Gold.Chemscore.DEInternal>
1.7428

> <Gold.Chemscore.Rot>
2.6324

> <Gold.Chemscore.Internal.Correction>
   9.000000E+99

> <Gold.Chemscore.Hbonds>
donor molecule, donor type, donor heavy atom, donor atom, acceptor molecule, acceptor atom, score
      L1  H     6    63       P1  7948  0.85
      L1  H    22    51       P1  8028  0.43

> <Gold.Chemscore.Hbond.Weighted>
-5.9438

> <Gold.Chemscore.Metal.Weighted>
-0.0000

> <Gold.Chemscore.Lipo.Weighted>
-14.3464

> <Gold.Chemscore.Internal_Hbond.Weighted>
0.0000

> <Gold.Chemscore.DEClash.Weighted>
3.8280

> <Gold.Chemscore.DEInternal.Weighted>
1.7428

> <Gold.Chemscore.Rot.Weighted>
6.7389

> <Gold.Chemscore.Internal.Correction.Weighted>
   9.000000E+99

> <Gold.Protein.RotatedTorsions>
[ 6907 6896 6895 6894 ] final -173.67 input  -60.11 | X-H torsion
[ 7974 7965 7964 7962 ] final  100.81 input  175.53 | X-H torsion
[ 8008 7997 7996 7995 ] final  173.95 input   59.86 | X-H torsion
[ 10167 10162 10161 10158 ] final  -80.94 input  -65.29 | X-H torsion
[ 10718 10713 10712 10709 ] final   91.75 input   66.30 | X-H torsion
[ 10763 10752 10751 10750 ] final  148.76 input  -60.55 | X-H torsion
[ 11005 11000 10999 10996 ] final   80.48 input  -57.11 | X-H torsion

> <Gold.Protein.ActiveResidues>
 VAL166  LYS551  ARG553  GLY616  TRP617  ASP618  TYR619  PRO620  LYS621  CYS622 
 ASP623  PHE694  ASN695  SER759  ASP760  ASP761  ALA762  ILE779  LEU786  VAL792 
 PHE793  MET794  SER795  GLU796  ALA797  LYS798  CYS799  TRP800  GLU811  SER814 

> <Gold.Protein.RotatedAtoms>
  151.5599  133.3405  159.2968 H   0  0  0  0  0  0  0  0  0  0  0  0  # atno 6907 bound_to 6896
  150.8429  134.7730  159.6958 H   0  0  0  0  0  0  0  0  0  0  0  0  # atno 6908 bound_to 6896
  152.4493  134.5436  159.9898 H   0  0  0  0  0  0  0  0  0  0  0  0  # atno 6909 bound_to 6896
  145.3807  139.2380  143.3405 H   0  0  0  0  0  0  0  0  0  0  0  0  # atno 7974 bound_to 7965
  156.1023  140.1447  156.9450 H   0  0  0  0  0  0  0  0  0  0  0  0  # atno 8008 bound_to 7997
  154.4711  140.0909  156.7191 H   0  0  0  0  0  0  0  0  0  0  0  0  # atno 8009 bound_to 7997
  155.4738  140.3442  155.4332 H   0  0  0  0  0  0  0  0  0  0  0  0  # atno 8010 bound_to 7997
  140.4457  143.2499  151.8561 H   0  0  0  0  0  0  0  0  0  0  0  0  # atno 10167 bound_to 10162
  157.6960  131.0418  150.3777 H   0  0  0  0  0  0  0  0  0  0  0  0  # atno 10718 bound_to 10713
  154.0601  135.2875  155.3326 H   0  0  0  0  0  0  0  0  0  0  0  0  # atno 10763 bound_to 10752
  154.6814  135.5262  153.8271 H   0  0  0  0  0  0  0  0  0  0  0  0  # atno 10764 bound_to 10752
  153.0526  135.6582  154.0790 H   0  0  0  0  0  0  0  0  0  0  0  0  # atno 10765 bound_to 10752
  139.9133  134.7923  156.1915 H   0  0  0  0  0  0  0  0  0  0  0  0  # atno 11005 bound_to 11000
  146.2843  140.4473  142.8764 LP  0  0  0  0  0  0  0  0  0  0  0  0  # atno 17320 bound_to 7965
  144.8510  140.7001  143.6168 LP  0  0  0  0  0  0  0  0  0  0  0  0  # atno 17321 bound_to 7965
  139.4792  144.5178  151.8844 LP  0  0  0  0  0  0  0  0  0  0  0  0  # atno 17342 bound_to 10162
  140.4266  144.2172  150.5887 LP  0  0  0  0  0  0  0  0  0  0  0  0  # atno 17343 bound_to 10162
  156.4194  130.3950  149.6835 LP  0  0  0  0  0  0  0  0  0  0  0  0  # atno 17370 bound_to 10713
  156.4092  130.7713  151.2725 LP  0  0  0  0  0  0  0  0  0  0  0  0  # atno 17371 bound_to 10713
  141.0581  133.6855  156.1899 LP  0  0  0  0  0  0  0  0  0  0  0  0  # atno 17394 bound_to 11000
  140.6705  134.4873  157.5587 LP  0  0  0  0  0  0  0  0  0  0  0  0  # atno 17395 bound_to 11000

$$$$
