AV-unprocessed.smi:2489|AV-procd|sdf|9802|dock9
  -GOLD-   2272013433D 1   1.00000     0.00000
 Structure written by MMmdl.
 33 34  0  0  0  0  0  0  0  0  1 V2000
  152.4633  138.4093  154.4400 C   0  0  0  0  0  0  0  0  0  0  0  0
  151.0576  138.5391  154.5987 O   0  0  0  0  0  0  0  0  0  0  0  0
  150.5796  139.7417  155.0663 C   0  0  0  0  0  0  0  0  0  0  0  0
  149.5044  140.4875  154.4166 C   0  0  0  0  0  0  0  0  0  0  0  0
  149.1157  141.6485  154.9645 C   0  0  0  0  0  0  0  0  0  0  0  0
  149.6993  142.1561  156.1162 N   0  0  0  0  0  0  0  0  0  0  0  0
  150.7406  141.4933  156.7903 C   0  0  0  0  0  0  0  0  0  0  0  0
  151.3308  141.9161  157.8704 N   0  0  0  0  0  0  0  0  0  0  0  0
  150.9793  143.1048  158.5040 C   0  0  0  0  0  0  0  0  0  0  0  0
  149.9040  143.7111  158.4895 O   0  0  0  0  0  0  0  0  0  0  0  0
  152.1471  143.6851  159.3142 C   0  0  1  0  0  0  0  0  0  0  0  0
  151.7196  144.8404  160.2357 C   0  0  0  0  0  0  0  0  0  0  0  0
  152.3722  144.4950  161.5587 C   0  0  0  0  0  0  0  0  0  0  0  0
  152.3639  142.9717  161.5262 C   0  0  2  0  0  0  0  0  0  0  0  0
  153.3795  142.3175  162.4685 C   0  0  0  0  0  0  0  0  0  0  0  0
  152.6769  142.6730  160.1725 O   0  0  0  0  0  0  0  0  0  0  0  0
  151.1547  140.2332  156.1889 C   0  0  0  0  0  0  0  0  0  0  0  0
  152.6908  137.4117  154.0648 H   0  0  0  0  0  0  0  0  0  0  0  0
  152.9857  138.5286  155.3902 H   0  0  0  0  0  0  0  0  0  0  0  0
  152.8535  139.1275  153.7176 H   0  0  0  0  0  0  0  0  0  0  0  0
  149.0164  140.1403  153.5186 H   0  0  0  0  0  0  0  0  0  0  0  0
  148.3300  142.2638  154.5512 H   0  0  0  0  0  0  0  0  0  0  0  0
  152.9529  144.0051  158.6511 H   0  0  0  0  0  0  0  0  0  0  0  0
  152.0428  145.8118  159.8609 H   0  0  0  0  0  0  0  0  0  0  0  0
  150.6359  144.8780  160.3592 H   0  0  0  0  0  0  0  0  0  0  0  0
  153.3965  144.8697  161.5757 H   0  0  0  0  0  0  0  0  0  0  0  0
  151.8425  144.9074  162.4180 H   0  0  0  0  0  0  0  0  0  0  0  0
  151.3592  142.6037  161.7407 H   0  0  0  0  0  0  0  0  0  0  0  0
  153.1639  142.5627  163.5086 H   0  0  0  0  0  0  0  0  0  0  0  0
  154.3940  142.6509  162.2481 H   0  0  0  0  0  0  0  0  0  0  0  0
  153.3572  141.2320  162.3702 H   0  0  0  0  0  0  0  0  0  0  0  0
  151.9455  139.6473  156.6350 H   0  0  0  0  0  0  0  0  0  0  0  0
  149.3380  143.0372  156.4535 H   0  0  0  0  0  0  0  0  0  0  0  0
  1  2  1  0  0  0  0
  1 18  1  0  0  0  0
  1 19  1  0  0  0  0
  1 20  1  0  0  0  0
  2  3  1  0  0  0  0
  3 17  2  0  0  0  0
  3  4  1  0  0  0  0
  4  5  2  0  0  0  0
  4 21  1  0  0  0  0
  5  6  1  0  0  0  0
  5 22  1  0  0  0  0
  6  7  1  0  0  0  0
  6 33  1  0  0  0  0
  7  8  2  0  0  0  0
  7 17  1  0  0  0  0
  8  9  1  0  0  0  0
  9 10  2  0  0  0  0
  9 11  1  0  0  0  0
 11 16  1  0  0  0  0
 11 12  1  0  0  0  0
 11 23  1  0  0  0  0
 12 13  1  0  0  0  0
 12 24  1  0  0  0  0
 12 25  1  0  0  0  0
 13 14  1  0  0  0  0
 13 26  1  0  0  0  0
 13 27  1  0  0  0  0
 14 15  1  0  0  0  0
 14 16  1  0  0  0  0
 14 28  1  0  0  0  0
 15 29  1  0  0  0  0
 15 30  1  0  0  0  0
 15 31  1  0  0  0  0
 17 32  1  0  0  0  0
M  END
> <s_m_source_file>
AV-unprocessed.smi

> <i_m_source_file_index>
2489

> <i_lp_mmshare_version>
43012

> <i_f3d_flags>
0

> <s_epik_input>
W0NIM11PYzFbY0hdW2NIXW5jKFtjSF0xKVtOSF1DKD1PKVtDQEBIXTJbQ0gyXVtDSDJdW0NASF0oTzIpW0NIM10=

> <s_epik_cmdline>
J2VwaWtfcHl0aG9uJywgJy1waCcsICc3LjAnLCAnLXRuJywgJzgnLCAnLW1hJywgJzIwMCcsICctbWV0YWxfYmluZGluZycsICctaW1hZScsICc8aW5maWxlLm1hZT4nLCAnLW9tYWUnLCAnPG91dGZpbGUubWFlPic=

> <r_epik_Ionization_Penalty>
0.410206

> <r_epik_Ionization_Penalty_Charging>
0.410206

> <r_epik_Ionization_Penalty_Neutral>
6.57528e-13

> <r_epik_State_Penalty>
1.30987

> <r_epik_Charging_Adjusted_Penalty>
1.72007

> <i_epik_Tot_Q>
0

> <i_epik_Tot_abs_Q>
0

> <r_epik_Metal_State_Penalty>
1.32171

> <b_epik_Metal_Only>
0

> <s_lp_Force_Field>
OPLS_2005

> <r_lp_Energy>
36.1754

> <b_lp_Chiralities_Consistent>
1

> <s_lp_Variant>
AV-unprocessed.smi:2489-8

> <Gold.Version>
5.8.1

> <Gold.Id.Protein>
6NUR|6NUR_protein|mol2

> <Gold.PLP.Fitness>
40.7520

> <Gold.PLP.PLP>
-38.7218

> <Gold.PLP.part.hbond>
-1.0000

> <Gold.PLP.part.metal>
0.0000

> <Gold.PLP.part.buried>
-3.4222

> <Gold.PLP.part.nonpolar>
-33.6878

> <Gold.PLP.part.repulsive>
0.4762

> <Gold.PLP.ligand.clash>
0.0000

> <Gold.PLP.ligand.torsion>
0.4103

> <Gold.PLP.Chemscore.Hbond>
0.7040

> <Gold.PLP.Chemscore.CHOScore>
0.2443

> <Gold.PLP.Chemscore.Metal>
0.0000

> <Gold.Chemscore.Hbonds>
donor molecule, donor type, donor heavy atom, donor atom, acceptor molecule, acceptor atom, score
      L1  H     6    33       P1  8028  0.72
      L1  C     5    22       P1  8028  0.23

> <Gold.PLP.Chemscore.Internal.Correction>
0.0059

> <Gold.Rescore>
     Score         DG    S(hbond)    S(metal)    S(lipo)     H(rot)  DE(clash)    DE(int)     intcor
     13.88     -15.86       0.67        0.00      96.38       1.23       0.27       1.71       ----

> <Gold.Chemscore.Fitness>
13.8848

> <Gold.Chemscore.DG>
-15.8620

> <Gold.Chemscore.ZeroCoef>
-5.4800

> <Gold.Chemscore.Hbond>
0.6722

> <Gold.Chemscore.Metal>
0.0000

> <Gold.Chemscore.Lipo>
96.3790

> <Gold.Chemscore.Internal_Hbond>
0.0000

> <Gold.Chemscore.DEClash>
0.2675

> <Gold.Chemscore.DEInternal>
1.7098

> <Gold.Chemscore.Rot>
1.2264

> <Gold.Chemscore.Internal.Correction>
   9.000000E+99

> <Gold.Chemscore.Hbonds>
donor molecule, donor type, donor heavy atom, donor atom, acceptor molecule, acceptor atom, score
      L1  H     6    33       P1  8028  0.72

> <Gold.Chemscore.Hbond.Weighted>
-2.2452

> <Gold.Chemscore.Metal.Weighted>
-0.0000

> <Gold.Chemscore.Lipo.Weighted>
-11.2763

> <Gold.Chemscore.Internal_Hbond.Weighted>
0.0000

> <Gold.Chemscore.DEClash.Weighted>
0.2675

> <Gold.Chemscore.DEInternal.Weighted>
1.7098

> <Gold.Chemscore.Rot.Weighted>
3.1396

> <Gold.Chemscore.Internal.Correction.Weighted>
   9.000000E+99

> <Gold.Protein.RotatedTorsions>
[ 6907 6896 6895 6894 ] final  113.30 input  -60.11 | X-H torsion
[ 7974 7965 7964 7962 ] final  145.59 input  175.53 | X-H torsion
[ 8008 7997 7996 7995 ] final  119.84 input   59.86 | X-H torsion
[ 10167 10162 10161 10158 ] final  128.81 input  -65.29 | X-H torsion
[ 10718 10713 10712 10709 ] final  159.92 input   66.30 | X-H torsion
[ 10763 10752 10751 10750 ] final  114.34 input  -60.55 | X-H torsion
[ 11005 11000 10999 10996 ] final   78.78 input  -57.11 | X-H torsion

> <Gold.Protein.ActiveResidues>
 VAL166  LYS551  ARG553  GLY616  TRP617  ASP618  TYR619  PRO620  LYS621  CYS622 
 ASP623  PHE694  ASN695  SER759  ASP760  ASP761  ALA762  ILE779  LEU786  VAL792 
 PHE793  MET794  SER795  GLU796  ALA797  LYS798  CYS799  TRP800  GLU811  SER814 

> <Gold.Protein.RotatedAtoms>
  152.4868  133.8394  159.7144 H   0  0  0  0  0  0  0  0  0  0  0  0  # atno 6907 bound_to 6896
  150.8962  133.7169  159.2898 H   0  0  0  0  0  0  0  0  0  0  0  0  # atno 6908 bound_to 6896
  151.4625  135.1043  159.9781 H   0  0  0  0  0  0  0  0  0  0  0  0  # atno 6909 bound_to 6896
  144.8740  139.5802  143.5874 H   0  0  0  0  0  0  0  0  0  0  0  0  # atno 7974 bound_to 7965
  156.2615  140.2844  156.1055 H   0  0  0  0  0  0  0  0  0  0  0  0  # atno 8008 bound_to 7997
  155.1314  140.0394  157.2793 H   0  0  0  0  0  0  0  0  0  0  0  0  # atno 8009 bound_to 7997
  154.6597  140.2563  155.7129 H   0  0  0  0  0  0  0  0  0  0  0  0  # atno 8010 bound_to 7997
  139.5508  144.6812  151.4329 H   0  0  0  0  0  0  0  0  0  0  0  0  # atno 10167 bound_to 10162
  157.1576  131.0579  151.2248 H   0  0  0  0  0  0  0  0  0  0  0  0  # atno 10718 bound_to 10713
  153.5058  135.3628  155.2562 H   0  0  0  0  0  0  0  0  0  0  0  0  # atno 10763 bound_to 10752
  154.8745  135.4011  154.3426 H   0  0  0  0  0  0  0  0  0  0  0  0  # atno 10764 bound_to 10752
  153.4070  135.7076  153.6452 H   0  0  0  0  0  0  0  0  0  0  0  0  # atno 10765 bound_to 10752
  139.9199  134.7790  156.1693 H   0  0  0  0  0  0  0  0  0  0  0  0  # atno 11005 bound_to 11000
  146.2950  139.7250  142.9133 LP  0  0  0  0  0  0  0  0  0  0  0  0  # atno 17320 bound_to 7965
  145.4078  141.0393  143.3034 LP  0  0  0  0  0  0  0  0  0  0  0  0  # atno 17321 bound_to 7965
  140.6770  143.8167  150.7071 LP  0  0  0  0  0  0  0  0  0  0  0  0  # atno 17342 bound_to 10162
  140.1609  143.4277  152.2068 LP  0  0  0  0  0  0  0  0  0  0  0  0  # atno 17343 bound_to 10162
  157.4162  130.7412  149.6877 LP  0  0  0  0  0  0  0  0  0  0  0  0  # atno 17370 bound_to 10713
  155.9759  130.4082  150.3814 LP  0  0  0  0  0  0  0  0  0  0  0  0  # atno 17371 bound_to 10713
  141.0710  133.6797  156.2140 LP  0  0  0  0  0  0  0  0  0  0  0  0  # atno 17394 bound_to 11000
  140.6507  134.5070  157.5577 LP  0  0  0  0  0  0  0  0  0  0  0  0  # atno 17395 bound_to 11000

$$$$
