AV-unprocessed.smi:735|AV-procd|sdf|3532|dock3
  -GOLD-   22720 0523D 1   1.00000     0.00000
 Structure written by MMmdl.
 16 16  0  0  0  0  0  0  0  0  3 V2000
  151.3106  137.1846  155.0011 O   0  0  0  0  0  0  0  0  0  0  0  0
  151.4051  138.3575  155.4276 C   0  0  0  0  0  0  0  0  0  0  0  0
  152.4661  139.0202  155.4725 O   0  5  0  0  0  0  0  0  0  0  0  0
  150.1376  139.0110  155.9994 C   0  0  0  0  0  0  0  0  0  0  0  0
  149.2303  139.0831  155.0221 F   0  0  0  0  0  0  0  0  0  0  0  0
  149.6195  138.2180  156.9414 F   0  0  0  0  0  0  0  0  0  0  0  0
  150.4385  140.4146  156.5284 C   0  0  0  0  0  0  0  0  0  0  0  0
  151.2887  140.6425  157.5960 C   0  0  0  0  0  0  0  0  0  0  0  0
  151.6616  141.8303  158.1186 N   0  5  0  0  0  0  0  0  0  0  0  0
  151.1572  142.9440  157.5147 C   0  0  0  0  0  0  0  0  0  0  0  0
  151.4145  144.0910  157.8737 O   0  0  0  0  0  0  0  0  0  0  0  0
  150.3183  142.7948  156.4527 N   0  0  0  0  0  0  0  0  0  0  0  0
  149.8966  141.6271  155.8938 C   0  0  0  0  0  0  0  0  0  0  0  0
  149.1164  141.6427  154.9428 O   0  0  0  0  0  0  0  0  0  0  0  0
  149.9645  143.6439  156.0377 H   0  0  0  0  0  0  0  0  0  0  0  0
  151.7381  139.7525  158.0866 H   0  0  0  0  0  0  0  0  0  0  0  0
  1  2  2  0  0  0  0
  2  3  1  0  0  0  0
  2  4  1  0  0  0  0
  4  5  1  0  0  0  0
  4  6  1  0  0  0  0
  4  7  1  0  0  0  0
  7 13  1  0  0  0  0
  7  8  2  0  0  0  0
  8  9  1  0  0  0  0
  8 16  1  0  0  0  0
  9 10  1  0  0  0  0
 10 11  2  0  0  0  0
 10 12  1  0  0  0  0
 12 15  1  0  0  0  0
 12 13  1  0  0  0  0
 13 14  2  0  0  0  0
M  CHG  1   3  -1
M  CHG  1   9  -1
M  END
> <s_m_source_file>
AV-unprocessed.smi

> <i_m_source_file_index>
735

> <i_lp_mmshare_version>
43012

> <i_f3d_flags>
0

> <s_epik_input>
Tz1DKFtPSF0pQyhGKShGKWMxW2NIXVtuSF1jKD1PKVtuSF1jMT1P

> <s_epik_cmdline>
J2VwaWtfcHl0aG9uJywgJy1waCcsICc3LjAnLCAnLXRuJywgJzgnLCAnLW1hJywgJzIwMCcsICctbWV0YWxfYmluZGluZycsICctaW1hZScsICc8aW5maWxlLm1hZT4nLCAnLW9tYWUnLCAnPG91dGZpbGUubWFlPic=

> <r_lp_tautomer_probability>
0.998954

> <r_epik_Ionization_Penalty>
1.12544

> <r_epik_Ionization_Penalty_Charging>
4.09586e-06

> <r_epik_Ionization_Penalty_Neutral>
1.12544

> <r_epik_State_Penalty>
0.173947

> <r_epik_Charging_Adjusted_Penalty>
0.173951

> <i_epik_Tot_Q>
-2

> <i_epik_Tot_abs_Q>
2

> <r_epik_Metal_State_Penalty>
0.0317114

> <b_epik_Metal_Only>
0

> <s_lp_Force_Field>
OPLS_2005

> <r_lp_Energy>
15.2406

> <b_lp_Chiralities_Consistent>
1

> <s_lp_Variant>
AV-unprocessed.smi:735-1

> <Gold.Version>
5.8.1

> <Gold.Id.Protein>
6NUR|6NUR_protein|mol2

> <Gold.PLP.Fitness>
39.6812

> <Gold.PLP.PLP>
-25.0296

> <Gold.PLP.part.hbond>
-5.6825

> <Gold.PLP.part.metal>
0.0000

> <Gold.PLP.part.buried>
-3.2285

> <Gold.PLP.part.nonpolar>
-16.4422

> <Gold.PLP.part.repulsive>
0.6352

> <Gold.PLP.ligand.clash>
0.0000

> <Gold.PLP.ligand.torsion>
0.1102

> <Gold.PLP.Chemscore.Hbond>
4.9378

> <Gold.PLP.Chemscore.CHOScore>
0.0000

> <Gold.PLP.Chemscore.Metal>
0.0000

> <Gold.Chemscore.Hbonds>
donor molecule, donor type, donor heavy atom, donor atom, acceptor molecule, acceptor atom, score
      L1  H    12    15       P1  8028  1.00
      P1  H  7997  8008       L1     3  0.62
      P1  H 10752 10763       L1     1  0.08

> <Gold.PLP.Chemscore.Internal.Correction>
0.0586

> <Gold.Rescore>
     Score         DG    S(hbond)    S(metal)    S(lipo)     H(rot)  DE(clash)    DE(int)     intcor
      8.20     -11.30       2.48        0.00      18.47       1.81       0.00       3.10       ----

> <Gold.Chemscore.Fitness>
8.1957

> <Gold.Chemscore.DG>
-11.2973

> <Gold.Chemscore.ZeroCoef>
-5.4800

> <Gold.Chemscore.Hbond>
2.4792

> <Gold.Chemscore.Metal>
0.0000

> <Gold.Chemscore.Lipo>
18.4710

> <Gold.Chemscore.Internal_Hbond>
0.0000

> <Gold.Chemscore.DEClash>
0.0038

> <Gold.Chemscore.DEInternal>
3.0978

> <Gold.Chemscore.Rot>
1.8064

> <Gold.Chemscore.Internal.Correction>
   9.000000E+99

> <Gold.Chemscore.Hbonds>
donor molecule, donor type, donor heavy atom, donor atom, acceptor molecule, acceptor atom, score
      L1  H    12    15       P1  8028  0.96
      P1  H  7997  8008       L1     3  0.31
      P1  H 10752 10763       L1     1  0.08

> <Gold.Chemscore.Hbond.Weighted>
-8.2806

> <Gold.Chemscore.Metal.Weighted>
-0.0000

> <Gold.Chemscore.Lipo.Weighted>
-2.1611

> <Gold.Chemscore.Internal_Hbond.Weighted>
0.0000

> <Gold.Chemscore.DEClash.Weighted>
0.0038

> <Gold.Chemscore.DEInternal.Weighted>
3.0978

> <Gold.Chemscore.Rot.Weighted>
4.6244

> <Gold.Chemscore.Internal.Correction.Weighted>
   9.000000E+99

> <Gold.Protein.RotatedTorsions>
[ 6907 6896 6895 6894 ] final   16.90 input  -60.11 | X-H torsion
[ 7974 7965 7964 7962 ] final  154.60 input  175.53 | X-H torsion
[ 8008 7997 7996 7995 ] final  -25.99 input   59.86 | X-H torsion
[ 10167 10162 10161 10158 ] final  176.38 input  -65.29 | X-H torsion
[ 10718 10713 10712 10709 ] final -163.35 input   66.30 | X-H torsion
[ 10763 10752 10751 10750 ] final   30.31 input  -60.55 | X-H torsion
[ 11005 11000 10999 10996 ] final -124.90 input  -57.11 | X-H torsion

> <Gold.Protein.ActiveResidues>
 VAL166  LYS551  ARG553  GLY616  TRP617  ASP618  TYR619  PRO620  LYS621  CYS622 
 ASP623  PHE694  ASN695  SER759  ASP760  ASP761  ALA762  ILE779  LEU786  VAL792 
 PHE793  MET794  SER795  GLU796  ALA797  LYS798  CYS799  TRP800  GLU811  SER814 

> <Gold.Protein.RotatedAtoms>
  151.8412  135.0589  160.0448 H   0  0  0  0  0  0  0  0  0  0  0  0  # atno 6907 bound_to 6896
  152.2807  133.5463  159.5504 H   0  0  0  0  0  0  0  0  0  0  0  0  # atno 6908 bound_to 6896
  150.7188  134.0484  159.3832 H   0  0  0  0  0  0  0  0  0  0  0  0  # atno 6909 bound_to 6896
  144.8078  139.6956  143.6154 H   0  0  0  0  0  0  0  0  0  0  0  0  # atno 7974 bound_to 7965
  154.4447  140.1911  156.0705 H   0  0  0  0  0  0  0  0  0  0  0  0  # atno 8008 bound_to 7997
  156.0514  140.3308  155.7329 H   0  0  0  0  0  0  0  0  0  0  0  0  # atno 8009 bound_to 7997
  155.5551  140.0598  157.2832 H   0  0  0  0  0  0  0  0  0  0  0  0  # atno 8010 bound_to 7997
  139.5212  144.2922  152.0453 H   0  0  0  0  0  0  0  0  0  0  0  0  # atno 10167 bound_to 10162
  156.6234  130.8900  151.2962 H   0  0  0  0  0  0  0  0  0  0  0  0  # atno 10718 bound_to 10713
  153.0379  135.6467  154.1026 H   0  0  0  0  0  0  0  0  0  0  0  0  # atno 10763 bound_to 10752
  154.0737  135.2878  155.3305 H   0  0  0  0  0  0  0  0  0  0  0  0  # atno 10764 bound_to 10752
  154.6577  135.5403  153.8043 H   0  0  0  0  0  0  0  0  0  0  0  0  # atno 10765 bound_to 10752
  140.9804  134.0681  157.3771 H   0  0  0  0  0  0  0  0  0  0  0  0  # atno 11005 bound_to 11000
  146.2372  139.5929  142.9516 LP  0  0  0  0  0  0  0  0  0  0  0  0  # atno 17320 bound_to 7965
  145.5396  141.0422  143.2338 LP  0  0  0  0  0  0  0  0  0  0  0  0  # atno 17321 bound_to 7965
  140.2373  144.4306  150.6275 LP  0  0  0  0  0  0  0  0  0  0  0  0  # atno 17342 bound_to 10162
  140.6315  143.2188  151.6486 LP  0  0  0  0  0  0  0  0  0  0  0  0  # atno 17343 bound_to 10162
  157.7221  130.9572  150.1481 LP  0  0  0  0  0  0  0  0  0  0  0  0  # atno 17370 bound_to 10713
  156.2293  130.3680  149.8464 LP  0  0  0  0  0  0  0  0  0  0  0  0  # atno 17371 bound_to 10713
  139.8948  135.0137  156.6969 LP  0  0  0  0  0  0  0  0  0  0  0  0  # atno 17394 bound_to 11000
  140.7195  133.9153  155.8137 LP  0  0  0  0  0  0  0  0  0  0  0  0  # atno 17395 bound_to 11000

$$$$
