AV-unprocessed.smi:99|AV-procd|sdf|893|dock5
  -GOLD-   2262017383D 1   1.00000     0.00000
 Structure written by MMmdl.
 52 55  0  0  0  0  0  0  0  0  2 V2000
  146.3518  136.5147  158.2186 O   0  0  0  0  0  0  0  0  0  0  0  0
  146.6267  135.4050  158.6801 C   0  0  0  0  0  0  0  0  0  0  0  0
  146.7518  134.2947  157.9268 O   0  0  0  0  0  0  0  0  0  0  0  0
  146.5532  134.3654  156.5244 C   0  0  0  0  0  0  0  0  0  0  0  0
  147.8539  134.8345  155.8495 C   0  0  2  0  0  0  0  0  0  0  0  0
  148.4207  135.8751  156.6467 O   0  0  0  0  0  0  0  0  0  0  0  0
  148.2014  137.1387  156.0783 C   0  0  1  0  0  0  0  0  0  0  0  0
  149.5334  137.7645  155.7246 N   0  0  0  0  0  0  0  0  0  0  0  0
  150.3357  137.2248  154.7328 C   0  0  0  0  0  0  0  0  0  0  0  0
  151.5169  137.7857  154.4021 C   0  0  0  0  0  0  0  0  0  0  0  0
  151.9601  138.9880  155.1012 C   0  0  0  0  0  0  0  0  0  0  0  0
  153.0436  139.4857  154.8014 O   0  0  0  0  0  0  0  0  0  0  0  0
  151.1441  139.5101  156.0616 N   0  5  0  0  0  0  0  0  0  0  0  0
  149.9448  138.9496  156.3932 C   0  0  0  0  0  0  0  0  0  0  0  0
  149.1917  139.4257  157.2429 O   0  0  0  0  0  0  0  0  0  0  0  0
  147.3582  136.9497  154.8104 C   0  0  2  0  0  0  0  0  0  0  0  0
  145.9903  137.1888  155.0838 O   0  0  0  0  0  0  0  0  0  0  0  0
  147.6571  135.4941  154.4832 C   0  0  2  0  0  0  0  0  0  0  0  0
  146.6828  134.8728  153.6523 O   0  0  0  0  0  0  0  0  0  0  0  0
  146.9036  133.6547  153.1141 C   0  0  0  0  0  0  0  0  0  0  0  0
  147.7640  132.8715  153.5208 O   0  0  0  0  0  0  0  0  0  0  0  0
  145.9928  133.3566  151.9717 C   0  0  0  0  0  0  0  0  0  0  0  0
  145.2504  134.4072  151.3839 C   0  0  0  0  0  0  0  0  0  0  0  0
  144.3846  134.1556  150.3019 C   0  0  0  0  0  0  0  0  0  0  0  0
  144.2509  132.8499  149.7948 C   0  0  0  0  0  0  0  0  0  0  0  0
  144.9828  131.7959  150.3718 C   0  0  0  0  0  0  0  0  0  0  0  0
  145.8489  132.0456  151.4539 C   0  0  0  0  0  0  0  0  0  0  0  0
  146.8588  135.1533  160.1320 C   0  0  0  0  0  0  0  0  0  0  0  0
  147.0566  136.2507  161.0025 C   0  0  0  0  0  0  0  0  0  0  0  0
  147.2804  136.0448  162.3778 C   0  0  0  0  0  0  0  0  0  0  0  0
  147.3070  134.7387  162.9001 C   0  0  0  0  0  0  0  0  0  0  0  0
  147.1103  133.6387  162.0451 C   0  0  0  0  0  0  0  0  0  0  0  0
  146.8879  133.8426  160.6691 C   0  0  0  0  0  0  0  0  0  0  0  0
  146.2785  133.3724  156.1665 H   0  0  0  0  0  0  0  0  0  0  0  0
  145.7287  135.0395  156.2905 H   0  0  0  0  0  0  0  0  0  0  0  0
  148.5470  133.9971  155.7646 H   0  0  0  0  0  0  0  0  0  0  0  0
  147.7524  137.7951  156.8256 H   0  0  0  0  0  0  0  0  0  0  0  0
  150.0196  136.3406  154.2003 H   0  0  0  0  0  0  0  0  0  0  0  0
  152.1286  137.3528  153.6244 H   0  0  0  0  0  0  0  0  0  0  0  0
  147.6761  137.6247  154.0146 H   0  0  0  0  0  0  0  0  0  0  0  0
  145.5690  136.3605  155.2539 H   0  0  0  0  0  0  0  0  0  0  0  0
  148.6252  135.4566  153.9807 H   0  0  0  0  0  0  0  0  0  0  0  0
  145.3373  135.4178  151.7564 H   0  0  0  0  0  0  0  0  0  0  0  0
  143.8232  134.9662  149.8609 H   0  0  0  0  0  0  0  0  0  0  0  0
  143.5876  132.6565  148.9646 H   0  0  0  0  0  0  0  0  0  0  0  0
  144.8807  130.7930  149.9842 H   0  0  0  0  0  0  0  0  0  0  0  0
  146.3952  131.2135  151.8734 H   0  0  0  0  0  0  0  0  0  0  0  0
  147.0406  137.2631  160.6247 H   0  0  0  0  0  0  0  0  0  0  0  0
  147.4320  136.8904  163.0325 H   0  0  0  0  0  0  0  0  0  0  0  0
  147.4779  134.5811  163.9549 H   0  0  0  0  0  0  0  0  0  0  0  0
  147.1299  132.6356  162.4450 H   0  0  0  0  0  0  0  0  0  0  0  0
  146.7405  132.9761  160.0409 H   0  0  0  0  0  0  0  0  0  0  0  0
  1  2  2  0  0  0  0
  2  3  1  0  0  0  0
  2 28  1  0  0  0  0
  3  4  1  0  0  0  0
  4  5  1  0  0  0  0
  4 34  1  0  0  0  0
  4 35  1  0  0  0  0
  5 18  1  0  0  0  0
  5  6  1  0  0  0  0
  5 36  1  0  0  0  0
  6  7  1  0  0  0  0
  7  8  1  0  0  0  0
  7 16  1  0  0  0  0
  7 37  1  0  0  0  0
  8 14  1  0  0  0  0
  8  9  1  0  0  0  0
  9 10  2  0  0  0  0
  9 38  1  0  0  0  0
 10 11  1  0  0  0  0
 10 39  1  0  0  0  0
 11 12  2  0  0  0  0
 11 13  1  0  0  0  0
 13 14  1  0  0  0  0
 14 15  2  0  0  0  0
 16 17  1  0  0  0  0
 16 18  1  0  0  0  0
 16 40  1  0  0  0  0
 17 41  1  0  0  0  0
 18 19  1  0  0  0  0
 18 42  1  0  0  0  0
 19 20  1  0  0  0  0
 20 21  2  0  0  0  0
 20 22  1  0  0  0  0
 22 27  1  0  0  0  0
 22 23  2  0  0  0  0
 23 24  1  0  0  0  0
 23 43  1  0  0  0  0
 24 25  2  0  0  0  0
 24 44  1  0  0  0  0
 25 26  1  0  0  0  0
 25 45  1  0  0  0  0
 26 27  2  0  0  0  0
 26 46  1  0  0  0  0
 27 47  1  0  0  0  0
 28 33  1  0  0  0  0
 28 29  2  0  0  0  0
 29 30  1  0  0  0  0
 29 48  1  0  0  0  0
 30 31  2  0  0  0  0
 30 49  1  0  0  0  0
 31 32  1  0  0  0  0
 31 50  1  0  0  0  0
 32 33  2  0  0  0  0
 32 51  1  0  0  0  0
 33 52  1  0  0  0  0
M  CHG  1  13  -1
M  END
> <s_m_source_file>
AV-unprocessed.smi

> <i_m_source_file_index>
99

> <i_lp_mmshare_version>
43012

> <i_f3d_flags>
0

> <s_epik_input>
W2NIXTFbY0hdW2NIXVtjSF1bY0hdYzFDKD1PKU9bQ0gyXVtDQEBIXTJPW0NAQEhdKG4zW2NIXVtjSF1jKD1PKVtuSF1jMz1PKVtDQEBIXShbT0hdKVtDQEhdMk9DKD1PKWM0W2NIXVtjSF1bY0hdW2NIXVtjSF00

> <s_epik_cmdline>
J2VwaWtfcHl0aG9uJywgJy1waCcsICc3LjAnLCAnLXRuJywgJzgnLCAnLW1hJywgJzIwMCcsICctbWV0YWxfYmluZGluZycsICctaW1hZScsICc8aW5maWxlLm1hZT4nLCAnLW9tYWUnLCAnPG91dGZpbGUubWFlPic=

> <r_lp_tautomer_probability>
1

> <r_epik_Ionization_Penalty>
2.89159

> <r_epik_Ionization_Penalty_Charging>
2.1077e-08

> <r_epik_Ionization_Penalty_Neutral>
2.89159

> <r_epik_State_Penalty>
2.88671

> <r_epik_Charging_Adjusted_Penalty>
2.88671

> <i_epik_Tot_Q>
-1

> <i_epik_Tot_abs_Q>
1

> <r_epik_Metal_State_Penalty>
0.0727308

> <b_epik_Metal_Only>
1

> <s_epik_Chemistry_Notes>
This compound has an ester and may undergo hydrolysis at high or low pH. This compound contains an acetal/aminal-like group ( X-CH(R)-Y where X, Y are N, S, or O) that may be acid/base labile, releasing an aldehyde.

> <s_lp_Force_Field>
OPLS_2005

> <r_lp_Energy>
46.9153

> <b_lp_Chiralities_Consistent>
1

> <s_lp_Variant>
AV-unprocessed.smi:99-29

> <Gold.Version>
5.8.1

> <Gold.Id.Protein>
6NUR|6NUR_protein|mol2

> <Gold.PLP.Fitness>
49.6311

> <Gold.PLP.PLP>
-45.3081

> <Gold.PLP.part.hbond>
-2.0000

> <Gold.PLP.part.metal>
0.0000

> <Gold.PLP.part.buried>
-5.9913

> <Gold.PLP.part.nonpolar>
-38.2764

> <Gold.PLP.part.repulsive>
0.3037

> <Gold.PLP.ligand.clash>
0.0000

> <Gold.PLP.ligand.torsion>
0.8789

> <Gold.PLP.Chemscore.Hbond>
1.0056

> <Gold.PLP.Chemscore.CHOScore>
0.9750

> <Gold.PLP.Chemscore.Metal>
0.0000

> <Gold.Chemscore.Hbonds>
donor molecule, donor type, donor heavy atom, donor atom, acceptor molecule, acceptor atom, score
      P1  H  7989  7998       L1    12  0.02
      P1  H  7997  8010       L1    12  1.00
      L1  C     9    38       P1  7948  0.94

> <Gold.PLP.Chemscore.Internal.Correction>
0.1391

> <Gold.Rescore>
     Score         DG    S(hbond)    S(metal)    S(lipo)     H(rot)  DE(clash)    DE(int)     intcor
      9.05     -13.65       1.00        0.00     109.83       3.13       0.26       4.34       ----

> <Gold.Chemscore.Fitness>
9.0450

> <Gold.Chemscore.DG>
-13.6454

> <Gold.Chemscore.ZeroCoef>
-5.4800

> <Gold.Chemscore.Hbond>
0.9999

> <Gold.Chemscore.Metal>
0.0000

> <Gold.Chemscore.Lipo>
109.8315

> <Gold.Chemscore.Internal_Hbond>
0.0000

> <Gold.Chemscore.DEClash>
0.2566

> <Gold.Chemscore.DEInternal>
4.3438

> <Gold.Chemscore.Rot>
3.1346

> <Gold.Chemscore.Internal.Correction>
   9.000000E+99

> <Gold.Chemscore.Hbonds>
donor molecule, donor type, donor heavy atom, donor atom, acceptor molecule, acceptor atom, score
      P1  H  7997  8010       L1    12  0.99

> <Gold.Chemscore.Hbond.Weighted>
-3.3397

> <Gold.Chemscore.Metal.Weighted>
-0.0000

> <Gold.Chemscore.Lipo.Weighted>
-12.8503

> <Gold.Chemscore.Internal_Hbond.Weighted>
0.0000

> <Gold.Chemscore.DEClash.Weighted>
0.2566

> <Gold.Chemscore.DEInternal.Weighted>
4.3438

> <Gold.Chemscore.Rot.Weighted>
8.0246

> <Gold.Chemscore.Internal.Correction.Weighted>
   9.000000E+99

> <Gold.Protein.RotatedTorsions>
[ 6907 6896 6895 6894 ] final -115.30 input  -60.11 | X-H torsion
[ 7974 7965 7964 7962 ] final   56.09 input  175.53 | X-H torsion
[ 8008 7997 7996 7995 ] final  120.95 input   59.86 | X-H torsion
[ 10167 10162 10161 10158 ] final  -48.18 input  -65.29 | X-H torsion
[ 10718 10713 10712 10709 ] final   29.66 input   66.30 | X-H torsion
[ 10763 10752 10751 10750 ] final -134.38 input  -60.55 | X-H torsion
[ 11005 11000 10999 10996 ] final   29.26 input  -57.11 | X-H torsion

> <Gold.Protein.ActiveResidues>
 VAL166  LYS551  ARG553  GLY616  TRP617  ASP618  TYR619  PRO620  LYS621  CYS622 
 ASP623  PHE694  ASN695  SER759  ASP760  ASP761  ALA762  ILE779  LEU786  VAL792 
 PHE793  MET794  SER795  GLU796  ALA797  LYS798  CYS799  TRP800  GLU811  SER814 

> <Gold.Protein.RotatedAtoms>
  150.7968  133.8677  159.3249 H   0  0  0  0  0  0  0  0  0  0  0  0  # atno 6907 bound_to 6896
  151.6500  135.1001  160.0168 H   0  0  0  0  0  0  0  0  0  0  0  0  # atno 6908 bound_to 6896
  152.4050  133.6836  159.6384 H   0  0  0  0  0  0  0  0  0  0  0  0  # atno 6909 bound_to 6896
  145.9435  139.3909  143.0349 H   0  0  0  0  0  0  0  0  0  0  0  0  # atno 7974 bound_to 7965
  156.2665  140.2819  156.1231 H   0  0  0  0  0  0  0  0  0  0  0  0  # atno 8008 bound_to 7997
  155.1134  140.0391  157.2748 H   0  0  0  0  0  0  0  0  0  0  0  0  # atno 8009 bound_to 7997
  154.6725  140.2591  155.6998 H   0  0  0  0  0  0  0  0  0  0  0  0  # atno 8010 bound_to 7997
  140.6742  143.2751  151.4034 H   0  0  0  0  0  0  0  0  0  0  0  0  # atno 10167 bound_to 10162
  157.2495  130.7108  149.6398 H   0  0  0  0  0  0  0  0  0  0  0  0  # atno 10718 bound_to 10713
  154.8720  135.3736  154.4726 H   0  0  0  0  0  0  0  0  0  0  0  0  # atno 10763 bound_to 10752
  153.5385  135.7027  153.5653 H   0  0  0  0  0  0  0  0  0  0  0  0  # atno 10764 bound_to 10752
  153.3825  135.3993  155.1831 H   0  0  0  0  0  0  0  0  0  0  0  0  # atno 10765 bound_to 10752
  140.3068  134.2694  155.7742 H   0  0  0  0  0  0  0  0  0  0  0  0  # atno 11005 bound_to 11000
  145.8268  140.9651  143.0870 LP  0  0  0  0  0  0  0  0  0  0  0  0  # atno 17320 bound_to 7965
  144.6783  140.0111  143.7484 LP  0  0  0  0  0  0  0  0  0  0  0  0  # atno 17321 bound_to 7965
  139.6026  144.1264  152.2214 LP  0  0  0  0  0  0  0  0  0  0  0  0  # atno 17342 bound_to 10162
  140.0653  144.5823  150.7232 LP  0  0  0  0  0  0  0  0  0  0  0  0  # atno 17343 bound_to 10162
  155.9667  130.4432  150.5413 LP  0  0  0  0  0  0  0  0  0  0  0  0  # atno 17370 bound_to 10713
  157.3293  131.0696  151.1873 LP  0  0  0  0  0  0  0  0  0  0  0  0  # atno 17371 bound_to 10713
  141.2116  133.7682  156.9849 LP  0  0  0  0  0  0  0  0  0  0  0  0  # atno 17394 bound_to 11000
  140.1060  134.9506  157.1994 LP  0  0  0  0  0  0  0  0  0  0  0  0  # atno 17395 bound_to 11000

$$$$
