AV-unprocessed.smi:3193|AV-procd|sdf|12207|dock4
  -GOLD-   2272018 43D 1   1.00000     0.00000
 Structure written by MMmdl.
 41 42  0  0  0  0  0  0  0  0  3 V2000
  152.5012  144.9652  158.3536 C   0  0  0  0  0  0  0  0  0  0  0  0
  151.4339  144.0752  159.0228 C   0  0  2  0  0  0  0  0  0  0  0  0
  151.5879  144.0626  160.5586 C   0  0  0  0  0  0  0  0  0  0  0  0
  152.8039  143.2408  161.0183 C   0  0  0  0  0  0  0  0  0  0  0  0
  152.7494  141.8105  160.4626 C   0  0  0  0  0  0  0  0  0  0  0  0
  152.6066  141.8060  158.9322 C   0  0  0  0  0  0  0  0  0  0  0  0
  151.3778  142.6240  158.4738 C   0  0  2  0  0  0  0  0  0  0  0  0
  151.1780  142.5761  156.9455 C   0  0  0  0  0  0  0  0  0  0  0  0
  149.7469  142.5314  156.5836 N   0  3  0  0  0  0  0  0  0  0  0  0
  149.3282  141.2627  155.9529 C   0  0  0  0  0  0  0  0  0  0  0  0
  148.1130  141.4543  155.0299 C   0  0  0  0  0  0  0  0  0  0  0  0
  147.8934  140.3158  154.1301 N   0  0  0  0  0  0  0  0  0  0  0  0
  146.8888  140.1669  153.2077 C   0  0  0  0  0  0  0  0  0  0  0  0
  147.0999  138.9613  152.5896 C   0  0  0  0  0  0  0  0  0  0  0  0
  148.2279  138.4289  153.1537 N   0  3  0  0  0  0  0  0  0  0  0  0
  148.7120  139.2556  154.0865 C   0  0  0  0  0  0  0  0  0  0  0  0
  153.5059  144.5584  158.4640 H   0  0  0  0  0  0  0  0  0  0  0  0
  152.5038  145.9631  158.7927 H   0  0  0  0  0  0  0  0  0  0  0  0
  152.3096  145.0903  157.2882 H   0  0  0  0  0  0  0  0  0  0  0  0
  150.4716  144.5425  158.8084 H   0  0  0  0  0  0  0  0  0  0  0  0
  151.6619  145.0818  160.9397 H   0  0  0  0  0  0  0  0  0  0  0  0
  150.6864  143.6413  161.0055 H   0  0  0  0  0  0  0  0  0  0  0  0
  153.7257  143.7258  160.6963 H   0  0  0  0  0  0  0  0  0  0  0  0
  152.8401  143.2130  162.1076 H   0  0  0  0  0  0  0  0  0  0  0  0
  153.6472  141.2647  160.7543 H   0  0  0  0  0  0  0  0  0  0  0  0
  151.9077  141.2795  160.9088 H   0  0  0  0  0  0  0  0  0  0  0  0
  153.5150  142.2028  158.4780 H   0  0  0  0  0  0  0  0  0  0  0  0
  152.5242  140.7745  158.5892 H   0  0  0  0  0  0  0  0  0  0  0  0
  150.4971  142.1608  158.9228 H   0  0  0  0  0  0  0  0  0  0  0  0
  151.6195  143.4623  156.4872 H   0  0  0  0  0  0  0  0  0  0  0  0
  151.6835  141.7082  156.5201 H   0  0  0  0  0  0  0  0  0  0  0  0
  149.2040  142.6691  157.4242 H   0  0  0  0  0  0  0  0  0  0  0  0
  150.1645  140.8347  155.3983 H   0  0  0  0  0  0  0  0  0  0  0  0
  149.0728  140.5504  156.7386 H   0  0  0  0  0  0  0  0  0  0  0  0
  147.2075  141.5714  155.6265 H   0  0  0  0  0  0  0  0  0  0  0  0
  148.2187  142.3625  154.4342 H   0  0  0  0  0  0  0  0  0  0  0  0
  146.1182  140.9102  153.0602 H   0  0  0  0  0  0  0  0  0  0  0  0
  146.5500  138.4576  151.8076 H   0  0  0  0  0  0  0  0  0  0  0  0
  149.5931  139.0963  154.6828 H   0  0  0  0  0  0  0  0  0  0  0  0
  149.5563  143.2906  155.9455 H   0  0  0  0  0  0  0  0  0  0  0  0
  148.6434  137.5417  152.8964 H   0  0  0  0  0  0  0  0  0  0  0  0
  1  2  1  0  0  0  0
  1 17  1  0  0  0  0
  1 18  1  0  0  0  0
  1 19  1  0  0  0  0
  2  7  1  0  0  0  0
  2  3  1  0  0  0  0
  2 20  1  0  0  0  0
  3  4  1  0  0  0  0
  3 21  1  0  0  0  0
  3 22  1  0  0  0  0
  4  5  1  0  0  0  0
  4 23  1  0  0  0  0
  4 24  1  0  0  0  0
  5  6  1  0  0  0  0
  5 25  1  0  0  0  0
  5 26  1  0  0  0  0
  6  7  1  0  0  0  0
  6 27  1  0  0  0  0
  6 28  1  0  0  0  0
  7  8  1  0  0  0  0
  7 29  1  0  0  0  0
  8  9  1  0  0  0  0
  8 30  1  0  0  0  0
  8 31  1  0  0  0  0
  9 10  1  0  0  0  0
  9 32  1  0  0  0  0
  9 40  1  0  0  0  0
 10 11  1  0  0  0  0
 10 33  1  0  0  0  0
 10 34  1  0  0  0  0
 11 12  1  0  0  0  0
 11 35  1  0  0  0  0
 11 36  1  0  0  0  0
 12 16  1  0  0  0  0
 12 13  1  0  0  0  0
 13 14  2  0  0  0  0
 13 37  1  0  0  0  0
 14 15  1  0  0  0  0
 14 38  1  0  0  0  0
 15 16  2  0  0  0  0
 15 41  1  0  0  0  0
 16 39  1  0  0  0  0
M  CHG  1   9   1
M  CHG  1  15   1
M  END
> <s_m_source_file>
AV-unprocessed.smi

> <i_m_source_file_index>
3193

> <i_lp_mmshare_version>
43012

> <i_f3d_flags>
0

> <s_epik_input>
W0NIM11bQ0BASF0xW0NIMl1bQ0gyXVtDSDJdW0NIMl1bQ0BIXTFbQ0gyXVtOSF1bQ0gyXVtDSDJdbjJbY0hdW2NIXW5bY0hdMg==

> <s_epik_cmdline>
J2VwaWtfcHl0aG9uJywgJy1waCcsICc3LjAnLCAnLXRuJywgJzgnLCAnLW1hJywgJzIwMCcsICctbWV0YWxfYmluZGluZycsICctaW1hZScsICc8aW5maWxlLm1hZT4nLCAnLW9tYWUnLCAnPG91dGZpbGUubWFlPic=

> <r_lp_tautomer_probability>
1

> <r_epik_Ionization_Penalty>
1.50262

> <r_epik_Ionization_Penalty_Charging>
0.00193432

> <r_epik_Ionization_Penalty_Neutral>
1.50068

> <r_epik_State_Penalty>
1.11854

> <r_epik_Charging_Adjusted_Penalty>
1.12048

> <i_epik_Tot_Q>
2

> <i_epik_Tot_abs_Q>
2

> <r_epik_Metal_State_Penalty>
5.11322

> <b_epik_Metal_Only>
0

> <s_lp_Force_Field>
OPLS_2005

> <r_lp_Energy>
29.0126

> <b_lp_Chiralities_Consistent>
1

> <s_lp_Variant>
AV-unprocessed.smi:3193-7

> <Gold.Version>
5.8.1

> <Gold.Id.Protein>
6NUR|6NUR_protein|mol2

> <Gold.PLP.Fitness>
53.0074

> <Gold.PLP.PLP>
-40.1472

> <Gold.PLP.part.hbond>
-2.9557

> <Gold.PLP.part.metal>
0.0000

> <Gold.PLP.part.buried>
-3.7003

> <Gold.PLP.part.nonpolar>
-34.1365

> <Gold.PLP.part.repulsive>
0.0993

> <Gold.PLP.ligand.clash>
0.0000

> <Gold.PLP.ligand.torsion>
1.0271

> <Gold.PLP.Chemscore.Hbond>
4.0000

> <Gold.PLP.Chemscore.CHOScore>
0.9482

> <Gold.PLP.Chemscore.Metal>
0.0000

> <Gold.Chemscore.Hbonds>
donor molecule, donor type, donor heavy atom, donor atom, acceptor molecule, acceptor atom, score
      L1  H     9    40       P1  8028  1.98
      L1  H    15    41       P1  7948  2.00
      L1  C    13    37       P1 10175  0.95

> <Gold.PLP.Chemscore.Internal.Correction>
0.0698

> <Gold.Rescore>
     Score         DG    S(hbond)    S(metal)    S(lipo)     H(rot)  DE(clash)    DE(int)     intcor
     19.38     -20.52       1.92        0.00     117.01       1.98       0.13       1.01       ----

> <Gold.Chemscore.Fitness>
19.3788

> <Gold.Chemscore.DG>
-20.5203

> <Gold.Chemscore.ZeroCoef>
-5.4800

> <Gold.Chemscore.Hbond>
1.9198

> <Gold.Chemscore.Metal>
0.0000

> <Gold.Chemscore.Lipo>
117.0114

> <Gold.Chemscore.Internal_Hbond>
0.0000

> <Gold.Chemscore.DEClash>
0.1329

> <Gold.Chemscore.DEInternal>
1.0086

> <Gold.Chemscore.Rot>
1.9774

> <Gold.Chemscore.Internal.Correction>
   9.000000E+99

> <Gold.Chemscore.Hbonds>
donor molecule, donor type, donor heavy atom, donor atom, acceptor molecule, acceptor atom, score
      L1  H     9    40       P1  8028  0.93
      L1  H    15    41       P1  7948  0.98

> <Gold.Chemscore.Hbond.Weighted>
-6.4121

> <Gold.Chemscore.Metal.Weighted>
-0.0000

> <Gold.Chemscore.Lipo.Weighted>
-13.6903

> <Gold.Chemscore.Internal_Hbond.Weighted>
0.0000

> <Gold.Chemscore.DEClash.Weighted>
0.1329

> <Gold.Chemscore.DEInternal.Weighted>
1.0086

> <Gold.Chemscore.Rot.Weighted>
5.0622

> <Gold.Chemscore.Internal.Correction.Weighted>
   9.000000E+99

> <Gold.Protein.RotatedTorsions>
[ 6907 6896 6895 6894 ] final  -12.21 input  -60.11 | X-H torsion
[ 7974 7965 7964 7962 ] final  -62.06 input  175.53 | X-H torsion
[ 8008 7997 7996 7995 ] final  -96.65 input   59.86 | X-H torsion
[ 10167 10162 10161 10158 ] final  -51.28 input  -65.29 | X-H torsion
[ 10718 10713 10712 10709 ] final -129.95 input   66.30 | X-H torsion
[ 10763 10752 10751 10750 ] final -109.51 input  -60.55 | X-H torsion
[ 11005 11000 10999 10996 ] final -105.77 input  -57.11 | X-H torsion

> <Gold.Protein.ActiveResidues>
 VAL166  LYS551  ARG553  GLY616  TRP617  ASP618  TYR619  PRO620  LYS621  CYS622 
 ASP623  PHE694  ASN695  SER759  ASP760  ASP761  ALA762  ILE779  LEU786  VAL792 
 PHE793  MET794  SER795  GLU796  ALA797  LYS798  CYS799  TRP800  GLU811  SER814 

> <Gold.Protein.RotatedAtoms>
  151.3741  135.0928  159.9474 H   0  0  0  0  0  0  0  0  0  0  0  0  # atno 6907 bound_to 6896
  152.5127  133.9136  159.7510 H   0  0  0  0  0  0  0  0  0  0  0  0  # atno 6908 bound_to 6896
  150.9556  133.6446  159.2793 H   0  0  0  0  0  0  0  0  0  0  0  0  # atno 6909 bound_to 6896
  145.7959  140.8683  143.0256 H   0  0  0  0  0  0  0  0  0  0  0  0  # atno 7974 bound_to 7965
  154.7772  140.0469  157.1099 H   0  0  0  0  0  0  0  0  0  0  0  0  # atno 8008 bound_to 7997
  154.9748  140.3094  155.4952 H   0  0  0  0  0  0  0  0  0  0  0  0  # atno 8009 bound_to 7997
  156.2931  140.2246  156.4843 H   0  0  0  0  0  0  0  0  0  0  0  0  # atno 8010 bound_to 7997
  140.6596  143.2625  151.4481 H   0  0  0  0  0  0  0  0  0  0  0  0  # atno 10167 bound_to 10162
  156.2097  130.6910  151.0635 H   0  0  0  0  0  0  0  0  0  0  0  0  # atno 10718 bound_to 10713
  154.8197  135.4598  154.0743 H   0  0  0  0  0  0  0  0  0  0  0  0  # atno 10763 bound_to 10752
  153.2107  135.6881  153.8124 H   0  0  0  0  0  0  0  0  0  0  0  0  # atno 10764 bound_to 10752
  153.7576  135.3289  155.3308 H   0  0  0  0  0  0  0  0  0  0  0  0  # atno 10765 bound_to 10752
  141.1037  133.8836  157.1774 H   0  0  0  0  0  0  0  0  0  0  0  0  # atno 11005 bound_to 11000
  144.6775  140.0190  143.7484 LP  0  0  0  0  0  0  0  0  0  0  0  0  # atno 17320 bound_to 7965
  145.9928  139.3029  143.0974 LP  0  0  0  0  0  0  0  0  0  0  0  0  # atno 17321 bound_to 7965
  139.5826  144.1675  152.1988 LP  0  0  0  0  0  0  0  0  0  0  0  0  # atno 17342 bound_to 10162
  140.1005  144.5544  150.6992 LP  0  0  0  0  0  0  0  0  0  0  0  0  # atno 17343 bound_to 10162
  157.7032  131.0767  150.6754 LP  0  0  0  0  0  0  0  0  0  0  0  0  # atno 17370 bound_to 10713
  156.6813  130.4568  149.5627 LP  0  0  0  0  0  0  0  0  0  0  0  0  # atno 17371 bound_to 10713
  139.9899  135.0068  156.9950 LP  0  0  0  0  0  0  0  0  0  0  0  0  # atno 17394 bound_to 11000
  140.4956  134.1149  155.7241 LP  0  0  0  0  0  0  0  0  0  0  0  0  # atno 17395 bound_to 11000

$$$$
