AV-unprocessed.smi:1795|AV-procd|sdf|7249|dock10
  -GOLD-   22720 8503D 1   1.00000     0.00000
 Structure written by MMmdl.
 48 49  0  0  0  0  0  0  0  0  2 V2000
  147.9457  140.5190  154.0650 C   0  0  0  0  0  0  0  0  0  0  0  0
  148.7650  139.2236  154.0410 C   0  0  2  0  0  0  0  0  0  0  0  0
  148.1054  138.1036  154.8657 C   0  0  0  0  0  0  0  0  0  0  0  0
  148.9480  136.8771  154.8749 N   0  3  2  0  0  0  0  0  0  0  0  0
  148.2794  135.7264  155.5672 C   0  0  1  0  0  0  0  0  0  0  0  0
  148.1613  136.0248  157.0795 C   0  0  0  0  0  0  0  0  0  0  0  0
  146.8955  135.3513  154.9665 C   0  0  0  0  0  0  0  0  0  0  0  0
  147.0030  134.4795  153.7994 N   0  0  0  0  0  0  0  0  0  0  0  0
  147.2165  133.1549  153.8333 C   0  0  0  0  0  0  0  0  0  0  0  0
  147.3171  132.5130  154.8795 O   0  0  0  0  0  0  0  0  0  0  0  0
  147.3297  132.4536  152.4730 C   0  0  0  0  0  0  0  0  0  0  0  0
  146.0880  132.5316  151.6855 N   0  0  0  0  0  0  0  0  0  0  0  0
  145.7299  133.7937  151.1704 C   0  0  0  0  0  0  0  0  0  0  0  0
  144.6177  133.9727  150.4404 C   0  0  0  0  0  0  0  0  0  0  0  0
  143.7766  132.8273  150.1853 C   0  0  0  0  0  0  0  0  0  0  0  0
  144.1077  131.6163  150.6759 C   0  0  0  0  0  0  0  0  0  0  0  0
  145.3212  131.4164  151.4766 C   0  0  0  0  0  0  0  0  0  0  0  0
  145.6296  130.3143  151.9326 O   0  0  0  0  0  0  0  0  0  0  0  0
  150.3153  137.2226  155.3517 C   0  0  0  0  0  0  0  0  0  0  0  0
  150.9146  138.3783  154.5266 C   0  0  2  0  0  0  0  0  0  0  0  0
  152.2891  138.8094  155.0503 C   0  0  0  0  0  0  0  0  0  0  0  0
  150.0466  139.5019  154.5889 O   0  0  0  0  0  0  0  0  0  0  0  0
  146.9484  140.3610  153.6537 H   0  0  0  0  0  0  0  0  0  0  0  0
  148.4288  141.2967  153.4727 H   0  0  0  0  0  0  0  0  0  0  0  0
  147.8327  140.8973  155.0814 H   0  0  0  0  0  0  0  0  0  0  0  0
  148.8751  138.9023  153.0035 H   0  0  0  0  0  0  0  0  0  0  0  0
  147.9476  138.4414  155.8915 H   0  0  0  0  0  0  0  0  0  0  0  0
  147.1211  137.8985  154.4490 H   0  0  0  0  0  0  0  0  0  0  0  0
  148.9205  134.8519  155.4434 H   0  0  0  0  0  0  0  0  0  0  0  0
  147.7807  135.1666  157.6322 H   0  0  0  0  0  0  0  0  0  0  0  0
  147.4847  136.8602  157.2621 H   0  0  0  0  0  0  0  0  0  0  0  0
  149.1170  136.2708  157.5382 H   0  0  0  0  0  0  0  0  0  0  0  0
  146.2577  134.9019  155.7297 H   0  0  0  0  0  0  0  0  0  0  0  0
  146.3775  136.2428  154.6139 H   0  0  0  0  0  0  0  0  0  0  0  0
  146.9267  134.9203  152.8940 H   0  0  0  0  0  0  0  0  0  0  0  0
  148.1637  132.9006  151.9302 H   0  0  0  0  0  0  0  0  0  0  0  0
  147.6089  131.4078  152.6169 H   0  0  0  0  0  0  0  0  0  0  0  0
  146.4079  134.5999  151.4106 H   0  0  0  0  0  0  0  0  0  0  0  0
  144.3574  134.9481  150.0564 H   0  0  0  0  0  0  0  0  0  0  0  0
  142.8766  132.9427  149.5991 H   0  0  0  0  0  0  0  0  0  0  0  0
  143.4656  130.7711  150.4752 H   0  0  0  0  0  0  0  0  0  0  0  0
  150.2757  137.4912  156.4088 H   0  0  0  0  0  0  0  0  0  0  0  0
  150.9867  136.3701  155.2531 H   0  0  0  0  0  0  0  0  0  0  0  0
  151.0243  138.0675  153.4859 H   0  0  0  0  0  0  0  0  0  0  0  0
  153.0027  137.9861  155.0069 H   0  0  0  0  0  0  0  0  0  0  0  0
  152.2299  139.1468  156.0856 H   0  0  0  0  0  0  0  0  0  0  0  0
  152.6928  139.6296  154.4559 H   0  0  0  0  0  0  0  0  0  0  0  0
  149.0617  136.5920  153.9124 H   0  0  0  0  0  0  0  0  0  0  0  0
  1  2  1  0  0  0  0
  1 23  1  0  0  0  0
  1 24  1  0  0  0  0
  1 25  1  0  0  0  0
  2 22  1  0  0  0  0
  2  3  1  0  0  0  0
  2 26  1  0  0  0  0
  3  4  1  0  0  0  0
  3 27  1  0  0  0  0
  3 28  1  0  0  0  0
  4  5  1  0  0  0  0
  4 19  1  0  0  0  0
  4 48  1  0  0  0  0
  5  6  1  0  0  0  0
  5  7  1  0  0  0  0
  5 29  1  0  0  0  0
  6 30  1  0  0  0  0
  6 31  1  0  0  0  0
  6 32  1  0  0  0  0
  7  8  1  0  0  0  0
  7 33  1  0  0  0  0
  7 34  1  0  0  0  0
  8  9  1  0  0  0  0
  8 35  1  0  0  0  0
  9 10  2  0  0  0  0
  9 11  1  0  0  0  0
 11 12  1  0  0  0  0
 11 36  1  0  0  0  0
 11 37  1  0  0  0  0
 12 17  1  0  0  0  0
 12 13  1  0  0  0  0
 13 14  2  0  0  0  0
 13 38  1  0  0  0  0
 14 15  1  0  0  0  0
 14 39  1  0  0  0  0
 15 16  2  0  0  0  0
 15 40  1  0  0  0  0
 16 17  1  0  0  0  0
 16 41  1  0  0  0  0
 17 18  2  0  0  0  0
 19 20  1  0  0  0  0
 19 42  1  0  0  0  0
 19 43  1  0  0  0  0
 20 21  1  0  0  0  0
 20 22  1  0  0  0  0
 20 44  1  0  0  0  0
 21 45  1  0  0  0  0
 21 46  1  0  0  0  0
 21 47  1  0  0  0  0
M  CHG  1   4   1
M  END
> <s_m_source_file>
AV-unprocessed.smi

> <i_m_source_file_index>
1795

> <i_lp_mmshare_version>
43012

> <i_f3d_flags>
0

> <s_epik_input>
W0NIM11bQ0BASF0xW0NIMl1OKFtDSDJdW0NASF0oTzEpW0NIM10pW0NASF0oW0NIM10pW0NIMl1bTkhdQyg9TylbQ0gyXW4yW2NIXVtjSF1bY0hdW2NIXWMyPU8=

> <s_epik_cmdline>
J2VwaWtfcHl0aG9uJywgJy1waCcsICc3LjAnLCAnLXRuJywgJzgnLCAnLW1hJywgJzIwMCcsICctbWV0YWxfYmluZGluZycsICctaW1hZScsICc8aW5maWxlLm1hZT4nLCAnLW9tYWUnLCAnPG91dGZpbGUubWFlPic=

> <r_lp_tautomer_probability>
1

> <r_epik_Ionization_Penalty>
0.656654

> <r_epik_Ionization_Penalty_Charging>
0.656654

> <r_epik_Ionization_Penalty_Neutral>
8.90321e-08

> <r_epik_State_Penalty>
0.675641

> <r_epik_Charging_Adjusted_Penalty>
1.33229

> <i_epik_Tot_Q>
1

> <i_epik_Tot_abs_Q>
1

> <r_epik_Metal_State_Penalty>
0.675691

> <b_epik_Metal_Only>
0

> <s_lp_Force_Field>
OPLS_2005

> <r_lp_Energy>
27.2799

> <b_lp_Chiralities_Consistent>
1

> <s_lp_Variant>
AV-unprocessed.smi:1795-13

> <Gold.Version>
5.8.1

> <Gold.Id.Protein>
6NUR|6NUR_protein|mol2

> <Gold.PLP.Fitness>
50.3262

> <Gold.PLP.PLP>
-37.9701

> <Gold.PLP.part.hbond>
-3.0000

> <Gold.PLP.part.metal>
0.0000

> <Gold.PLP.part.buried>
-2.0816

> <Gold.PLP.part.nonpolar>
-33.0761

> <Gold.PLP.part.repulsive>
0.3127

> <Gold.PLP.ligand.clash>
0.0000

> <Gold.PLP.ligand.torsion>
0.5479

> <Gold.PLP.Chemscore.Hbond>
3.4640

> <Gold.PLP.Chemscore.CHOScore>
1.0000

> <Gold.PLP.Chemscore.Metal>
0.0000

> <Gold.Chemscore.Hbonds>
donor molecule, donor type, donor heavy atom, donor atom, acceptor molecule, acceptor atom, score
      L1  H     4    48       P1  7948  1.82
      P1  H  7989  7998       L1    22  0.11

> <Gold.PLP.Chemscore.Internal.Correction>
0.0600

> <Gold.Rescore>
     Score         DG    S(hbond)    S(metal)    S(lipo)     H(rot)  DE(clash)    DE(int)     intcor
     12.62     -13.93       0.99        0.00      85.40       1.89       0.50       0.82       ----

> <Gold.Chemscore.Fitness>
12.6155

> <Gold.Chemscore.DG>
-13.9334

> <Gold.Chemscore.ZeroCoef>
-5.4800

> <Gold.Chemscore.Hbond>
0.9858

> <Gold.Chemscore.Metal>
0.0000

> <Gold.Chemscore.Lipo>
85.3981

> <Gold.Chemscore.Internal_Hbond>
0.0000

> <Gold.Chemscore.DEClash>
0.4999

> <Gold.Chemscore.DEInternal>
0.8181

> <Gold.Chemscore.Rot>
1.8870

> <Gold.Chemscore.Internal.Correction>
   9.000000E+99

> <Gold.Chemscore.Hbonds>
donor molecule, donor type, donor heavy atom, donor atom, acceptor molecule, acceptor atom, score
      L1  H     4    48       P1  7948  0.86
      P1  H  7989  7998       L1    22  0.01

> <Gold.Chemscore.Hbond.Weighted>
-3.2926

> <Gold.Chemscore.Metal.Weighted>
-0.0000

> <Gold.Chemscore.Lipo.Weighted>
-9.9916

> <Gold.Chemscore.Internal_Hbond.Weighted>
0.0000

> <Gold.Chemscore.DEClash.Weighted>
0.4999

> <Gold.Chemscore.DEInternal.Weighted>
0.8181

> <Gold.Chemscore.Rot.Weighted>
4.8308

> <Gold.Chemscore.Internal.Correction.Weighted>
   9.000000E+99

> <Gold.Protein.RotatedTorsions>
[ 6907 6896 6895 6894 ] final  -96.25 input  -60.11 | X-H torsion
[ 7974 7965 7964 7962 ] final  -18.96 input  175.53 | X-H torsion
[ 8008 7997 7996 7995 ] final  107.11 input   59.86 | X-H torsion
[ 10167 10162 10161 10158 ] final  114.22 input  -65.29 | X-H torsion
[ 10718 10713 10712 10709 ] final   -8.79 input   66.30 | X-H torsion
[ 10763 10752 10751 10750 ] final -113.17 input  -60.55 | X-H torsion
[ 11005 11000 10999 10996 ] final   95.93 input  -57.11 | X-H torsion

> <Gold.Protein.ActiveResidues>
 VAL166  LYS551  ARG553  GLY616  TRP617  ASP618  TYR619  PRO620  LYS621  CYS622 
 ASP623  PHE694  ASN695  SER759  ASP760  ASP761  ALA762  ILE779  LEU786  VAL792 
 PHE793  MET794  SER795  GLU796  ALA797  LYS798  CYS799  TRP800  GLU811  SER814 

> <Gold.Protein.RotatedAtoms>
  150.6984  134.1532  159.4148 H   0  0  0  0  0  0  0  0  0  0  0  0  # atno 6907 bound_to 6896
  151.9514  135.0165  160.0551 H   0  0  0  0  0  0  0  0  0  0  0  0  # atno 6908 bound_to 6896
  152.2007  133.4804  159.5094 H   0  0  0  0  0  0  0  0  0  0  0  0  # atno 6909 bound_to 6896
  146.1866  140.3994  142.8474 H   0  0  0  0  0  0  0  0  0  0  0  0  # atno 7974 bound_to 7965
  156.1798  140.3100  155.9127 H   0  0  0  0  0  0  0  0  0  0  0  0  # atno 8008 bound_to 7997
  155.3409  140.0466  157.3062 H   0  0  0  0  0  0  0  0  0  0  0  0  # atno 8009 bound_to 7997
  154.5330  140.2236  155.8782 H   0  0  0  0  0  0  0  0  0  0  0  0  # atno 8010 bound_to 7997
  139.6404  144.7123  151.2248 H   0  0  0  0  0  0  0  0  0  0  0  0  # atno 10167 bound_to 10162
  156.6974  130.5083  149.5926 H   0  0  0  0  0  0  0  0  0  0  0  0  # atno 10718 bound_to 10713
  154.8384  135.4464  154.1308 H   0  0  0  0  0  0  0  0  0  0  0  0  # atno 10763 bound_to 10752
  153.2519  135.6927  153.7676 H   0  0  0  0  0  0  0  0  0  0  0  0  # atno 10764 bound_to 10752
  153.6985  135.3375  155.3195 H   0  0  0  0  0  0  0  0  0  0  0  0  # atno 10765 bound_to 10752
  139.8785  134.8924  156.4083 H   0  0  0  0  0  0  0  0  0  0  0  0  # atno 11005 bound_to 11000
  144.8408  140.6854  143.6230 LP  0  0  0  0  0  0  0  0  0  0  0  0  # atno 17320 bound_to 7965
  145.3920  139.1614  143.4224 LP  0  0  0  0  0  0  0  0  0  0  0  0  # atno 17321 bound_to 7965
  140.7488  143.6322  150.8413 LP  0  0  0  0  0  0  0  0  0  0  0  0  # atno 17342 bound_to 10162
  139.9958  143.5797  152.2893 LP  0  0  0  0  0  0  0  0  0  0  0  0  # atno 17343 bound_to 10162
  156.1753  130.6464  151.0887 LP  0  0  0  0  0  0  0  0  0  0  0  0  # atno 17370 bound_to 10713
  157.6986  131.0785  150.6892 LP  0  0  0  0  0  0  0  0  0  0  0  0  # atno 17371 bound_to 10713
  140.9218  133.7639  155.9916 LP  0  0  0  0  0  0  0  0  0  0  0  0  # atno 17394 bound_to 11000
  140.8430  134.3043  157.5306 LP  0  0  0  0  0  0  0  0  0  0  0  0  # atno 17395 bound_to 11000

$$$$
