AV-unprocessed.smi:1865|AV-procd|sdf|7555|dock2
  -GOLD-   22720 9273D 1   1.00000     0.00000
 Structure written by MMmdl.
 41 42  0  0  0  0  0  0  0  0  2 V2000
  151.3352  138.6860  158.7387 O   0  0  0  0  0  0  0  0  0  0  0  0
  152.0943  139.5772  158.3569 C   0  0  0  0  0  0  0  0  0  0  0  0
  153.3802  139.8888  159.1284 C   0  0  0  0  0  0  0  0  0  0  0  0
  153.6434  141.3996  159.2765 C   0  0  0  0  0  0  0  0  0  0  0  0
  152.9267  142.0200  160.4892 C   0  0  0  0  0  0  0  0  0  0  0  0
  152.8556  143.5476  160.4398 C   0  0  0  0  0  0  0  0  0  0  0  0
  152.5484  143.9674  161.8795 C   0  0  0  0  0  0  0  0  0  0  0  0
  153.1234  142.8606  162.7756 C   0  0  0  0  0  0  0  0  0  0  0  0
  153.6083  141.7490  161.8355 C   0  0  0  0  0  0  0  0  0  0  0  0
  151.8542  140.3296  157.2719 N   0  0  0  0  0  0  0  0  0  0  0  0
  150.6756  140.2179  156.4205 C   0  0  0  0  0  0  0  0  0  0  0  0
  150.8219  141.0407  155.1295 C   0  0  0  0  0  0  0  0  0  0  0  0
  149.8124  140.6293  154.0756 C   0  0  0  0  0  0  0  0  0  0  0  0
  148.9184  141.5745  153.5259 C   0  0  0  0  0  0  0  0  0  0  0  0
  147.9868  141.1595  152.5515 C   0  0  0  0  0  0  0  0  0  0  0  0
  147.9701  139.8081  152.1490 C   0  0  0  0  0  0  0  0  0  0  0  0
  148.8404  138.9323  152.6978 N   0  3  0  0  0  0  0  0  0  0  0  0
  149.7475  139.2900  153.6332 C   0  0  0  0  0  0  0  0  0  0  0  0
  153.3299  139.4293  160.1168 H   0  0  0  0  0  0  0  0  0  0  0  0
  154.2094  139.4129  158.6043 H   0  0  0  0  0  0  0  0  0  0  0  0
  154.7154  141.5883  159.3533 H   0  0  0  0  0  0  0  0  0  0  0  0
  153.3088  141.9095  158.3718 H   0  0  0  0  0  0  0  0  0  0  0  0
  151.9053  141.6383  160.5352 H   0  0  0  0  0  0  0  0  0  0  0  0
  153.8215  143.9564  160.1397 H   0  0  0  0  0  0  0  0  0  0  0  0
  152.1089  143.9101  159.7326 H   0  0  0  0  0  0  0  0  0  0  0  0
  152.9653  144.9472  162.1140 H   0  0  0  0  0  0  0  0  0  0  0  0
  151.4690  144.0287  162.0230 H   0  0  0  0  0  0  0  0  0  0  0  0
  153.9427  143.2305  163.3930 H   0  0  0  0  0  0  0  0  0  0  0  0
  152.3519  142.4861  163.4495 H   0  0  0  0  0  0  0  0  0  0  0  0
  153.3842  140.7547  162.2230 H   0  0  0  0  0  0  0  0  0  0  0  0
  154.6911  141.8202  161.7237 H   0  0  0  0  0  0  0  0  0  0  0  0
  152.5284  141.0415  157.0297 H   0  0  0  0  0  0  0  0  0  0  0  0
  150.4874  139.1684  156.1874 H   0  0  0  0  0  0  0  0  0  0  0  0
  149.8137  140.5688  156.9889 H   0  0  0  0  0  0  0  0  0  0  0  0
  150.7019  142.1032  155.3463 H   0  0  0  0  0  0  0  0  0  0  0  0
  151.8244  140.9238  154.7156 H   0  0  0  0  0  0  0  0  0  0  0  0
  148.9428  142.6056  153.8476 H   0  0  0  0  0  0  0  0  0  0  0  0
  147.2944  141.8675  152.1200 H   0  0  0  0  0  0  0  0  0  0  0  0
  147.2918  139.4045  151.4115 H   0  0  0  0  0  0  0  0  0  0  0  0
  150.3872  138.4995  153.9983 H   0  0  0  0  0  0  0  0  0  0  0  0
  148.8108  137.9587  152.3934 H   0  0  0  0  0  0  0  0  0  0  0  0
  1  2  2  0  0  0  0
  2  3  1  0  0  0  0
  2 10  1  0  0  0  0
  3  4  1  0  0  0  0
  3 19  1  0  0  0  0
  3 20  1  0  0  0  0
  4  5  1  0  0  0  0
  4 21  1  0  0  0  0
  4 22  1  0  0  0  0
  5  9  1  0  0  0  0
  5  6  1  0  0  0  0
  5 23  1  0  0  0  0
  6  7  1  0  0  0  0
  6 24  1  0  0  0  0
  6 25  1  0  0  0  0
  7  8  1  0  0  0  0
  7 26  1  0  0  0  0
  7 27  1  0  0  0  0
  8  9  1  0  0  0  0
  8 28  1  0  0  0  0
  8 29  1  0  0  0  0
  9 30  1  0  0  0  0
  9 31  1  0  0  0  0
 10 11  1  0  0  0  0
 10 32  1  0  0  0  0
 11 12  1  0  0  0  0
 11 33  1  0  0  0  0
 11 34  1  0  0  0  0
 12 13  1  0  0  0  0
 12 35  1  0  0  0  0
 12 36  1  0  0  0  0
 13 18  1  0  0  0  0
 13 14  2  0  0  0  0
 14 15  1  0  0  0  0
 14 37  1  0  0  0  0
 15 16  2  0  0  0  0
 15 38  1  0  0  0  0
 16 17  1  0  0  0  0
 16 39  1  0  0  0  0
 17 18  2  0  0  0  0
 17 41  1  0  0  0  0
 18 40  1  0  0  0  0
M  CHG  1  17   1
M  END
> <s_m_source_file>
AV-unprocessed.smi

> <i_m_source_file_index>
1865

> <i_lp_mmshare_version>
43012

> <i_f3d_flags>
0

> <s_epik_input>
W0NIMl0xW0NIMl1bQ0gyXVtDSDJdW0NIXTFbQ0gyXVtDSDJdQyg9TylbTkhdW0NIMl1bQ0gyXWMyW2NIXVtjSF1bY0hdbltjSF0y

> <s_epik_cmdline>
J2VwaWtfcHl0aG9uJywgJy1waCcsICc3LjAnLCAnLXRuJywgJzgnLCAnLW1hJywgJzIwMCcsICctbWV0YWxfYmluZGluZycsICctaW1hZScsICc8aW5maWxlLm1hZT4nLCAnLW9tYWUnLCAnPG91dGZpbGUubWFlPic=

> <r_epik_Ionization_Penalty>
2.25234

> <r_epik_Ionization_Penalty_Charging>
2.25234

> <r_epik_Ionization_Penalty_Neutral>
2.26352e-08

> <r_epik_State_Penalty>
2.39956

> <r_epik_Charging_Adjusted_Penalty>
4.6519

> <i_epik_Tot_Q>
1

> <i_epik_Tot_abs_Q>
1

> <r_epik_Metal_State_Penalty>
2.41271

> <b_epik_Metal_Only>
0

> <s_lp_Force_Field>
OPLS_2005

> <r_lp_Energy>
27.3415

> <b_lp_Chiralities_Consistent>
1

> <s_lp_Variant>
AV-unprocessed.smi:1865-2

> <Gold.Version>
5.8.1

> <Gold.Id.Protein>
6NUR|6NUR_protein|mol2

> <Gold.PLP.Fitness>
48.7568

> <Gold.PLP.PLP>
-43.9763

> <Gold.PLP.part.hbond>
-2.0000

> <Gold.PLP.part.metal>
0.0000

> <Gold.PLP.part.buried>
-2.2227

> <Gold.PLP.part.nonpolar>
-37.7852

> <Gold.PLP.part.repulsive>
0.1132

> <Gold.PLP.ligand.clash>
0.0000

> <Gold.PLP.ligand.torsion>
0.6500

> <Gold.PLP.Chemscore.Hbond>
2.0000

> <Gold.PLP.Chemscore.CHOScore>
0.0000

> <Gold.PLP.Chemscore.Metal>
0.0000

> <Gold.Chemscore.Hbonds>
donor molecule, donor type, donor heavy atom, donor atom, acceptor molecule, acceptor atom, score
      L1  H    17    41       P1  7948  2.00

> <Gold.PLP.Chemscore.Internal.Correction>
0.0804

> <Gold.Rescore>
     Score         DG    S(hbond)    S(metal)    S(lipo)     H(rot)  DE(clash)    DE(int)     intcor
     18.15     -18.73       0.99        0.00     121.79       1.69       0.10       0.49       ----

> <Gold.Chemscore.Fitness>
18.1474

> <Gold.Chemscore.DG>
-18.7320

> <Gold.Chemscore.ZeroCoef>
-5.4800

> <Gold.Chemscore.Hbond>
0.9944

> <Gold.Chemscore.Metal>
0.0000

> <Gold.Chemscore.Lipo>
121.7857

> <Gold.Chemscore.Internal_Hbond>
0.0000

> <Gold.Chemscore.DEClash>
0.0978

> <Gold.Chemscore.DEInternal>
0.4868

> <Gold.Chemscore.Rot>
1.6868

> <Gold.Chemscore.Internal.Correction>
   9.000000E+99

> <Gold.Chemscore.Hbonds>
donor molecule, donor type, donor heavy atom, donor atom, acceptor molecule, acceptor atom, score
      L1  H    17    41       P1  7948  1.00

> <Gold.Chemscore.Hbond.Weighted>
-3.3214

> <Gold.Chemscore.Metal.Weighted>
-0.0000

> <Gold.Chemscore.Lipo.Weighted>
-14.2489

> <Gold.Chemscore.Internal_Hbond.Weighted>
0.0000

> <Gold.Chemscore.DEClash.Weighted>
0.0978

> <Gold.Chemscore.DEInternal.Weighted>
0.4868

> <Gold.Chemscore.Rot.Weighted>
4.3183

> <Gold.Chemscore.Internal.Correction.Weighted>
   9.000000E+99

> <Gold.Protein.RotatedTorsions>
[ 6907 6896 6895 6894 ] final  151.40 input  -60.11 | X-H torsion
[ 7974 7965 7964 7962 ] final -140.54 input  175.53 | X-H torsion
[ 8008 7997 7996 7995 ] final  -31.89 input   59.86 | X-H torsion
[ 10167 10162 10161 10158 ] final  176.09 input  -65.29 | X-H torsion
[ 10718 10713 10712 10709 ] final   -3.35 input   66.30 | X-H torsion
[ 10763 10752 10751 10750 ] final   52.20 input  -60.55 | X-H torsion
[ 11005 11000 10999 10996 ] final  170.55 input  -57.11 | X-H torsion

> <Gold.Protein.ActiveResidues>
 VAL166  LYS551  ARG553  GLY616  TRP617  ASP618  TYR619  PRO620  LYS621  CYS622 
 ASP623  PHE694  ASN695  SER759  ASP760  ASP761  ALA762  ILE779  LEU786  VAL792 
 PHE793  MET794  SER795  GLU796  ALA797  LYS798  CYS799  TRP800  GLU811  SER814 

> <Gold.Protein.RotatedAtoms>
  152.1012  133.4251  159.4587 H   0  0  0  0  0  0  0  0  0  0  0  0  # atno 6907 bound_to 6896
  150.6864  134.2758  159.4616 H   0  0  0  0  0  0  0  0  0  0  0  0  # atno 6908 bound_to 6896
  152.0619  134.9588  160.0625 H   0  0  0  0  0  0  0  0  0  0  0  0  # atno 6909 bound_to 6896
  144.8589  140.6187  143.5341 H   0  0  0  0  0  0  0  0  0  0  0  0  # atno 7974 bound_to 7965
  154.4198  140.1752  156.1638 H   0  0  0  0  0  0  0  0  0  0  0  0  # atno 8008 bound_to 7997
  155.9816  140.3377  155.6644 H   0  0  0  0  0  0  0  0  0  0  0  0  # atno 8009 bound_to 7997
  155.6492  140.0688  157.2583 H   0  0  0  0  0  0  0  0  0  0  0  0  # atno 8010 bound_to 7997
  139.5201  144.2955  152.0425 H   0  0  0  0  0  0  0  0  0  0  0  0  # atno 10167 bound_to 10162
  156.7773  130.5319  149.5757 H   0  0  0  0  0  0  0  0  0  0  0  0  # atno 10718 bound_to 10713
  152.9788  135.5820  154.4539 H   0  0  0  0  0  0  0  0  0  0  0  0  # atno 10763 bound_to 10752
  154.4124  135.2770  155.2030 H   0  0  0  0  0  0  0  0  0  0  0  0  # atno 10764 bound_to 10752
  154.3814  135.6146  153.5847 H   0  0  0  0  0  0  0  0  0  0  0  0  # atno 10765 bound_to 10752
  140.3096  134.7528  157.3980 H   0  0  0  0  0  0  0  0  0  0  0  0  # atno 11005 bound_to 11000
  145.4351  139.1543  143.4001 LP  0  0  0  0  0  0  0  0  0  0  0  0  # atno 17320 bound_to 7965
  146.2845  140.4470  142.8763 LP  0  0  0  0  0  0  0  0  0  0  0  0  # atno 17321 bound_to 7965
  140.2405  144.4274  150.6262 LP  0  0  0  0  0  0  0  0  0  0  0  0  # atno 17342 bound_to 10162
  140.6294  143.2185  151.6528 LP  0  0  0  0  0  0  0  0  0  0  0  0  # atno 17343 bound_to 10162
  156.1240  130.6130  151.0236 LP  0  0  0  0  0  0  0  0  0  0  0  0  # atno 17370 bound_to 10713
  157.6663  131.0871  150.7720 LP  0  0  0  0  0  0  0  0  0  0  0  0  # atno 17371 bound_to 10713
  140.1037  134.5439  155.8329 LP  0  0  0  0  0  0  0  0  0  0  0  0  # atno 17394 bound_to 11000
  141.2111  133.6702  156.6557 LP  0  0  0  0  0  0  0  0  0  0  0  0  # atno 17395 bound_to 11000

$$$$
