AV-unprocessed.smi:1621|AV-procd|sdf|6496|dock3
  -GOLD-   22720 7153D 1   1.00000     0.00000
 Structure written by MMmdl.
 40 41  0  0  0  0  0  0  0  0  3 V2000
  148.3289  122.7106  150.9605 C   0  0  0  0  0  0  0  0  0  0  0  0
  148.9586  124.0328  151.1650 N   0  3  2  0  0  0  0  0  0  0  0  0
  148.8407  124.5039  152.5674 C   0  0  0  0  0  0  0  0  0  0  0  0
  149.5970  125.8297  152.7750 C   0  0  0  0  0  0  0  0  0  0  0  0
  149.1373  126.9251  151.7931 C   0  0  2  0  0  0  0  0  0  0  0  0
  147.7463  127.4911  152.1649 C   0  0  0  0  0  0  0  0  0  0  0  0
  147.4822  128.7807  151.5318 N   0  0  0  0  0  0  0  0  0  0  0  0
  146.2682  129.3026  151.3028 C   0  0  0  0  0  0  0  0  0  0  0  0
  145.2195  128.7342  151.6049 O   0  0  0  0  0  0  0  0  0  0  0  0
  146.3621  130.5083  150.7146 N   0  0  0  0  0  0  0  0  0  0  0  0
  145.3265  131.3864  150.2889 C   0  0  0  0  0  0  0  0  0  0  0  0
  144.2130  131.5340  151.1461 C   0  0  0  0  0  0  0  0  0  0  0  0
  143.1626  132.4012  150.7831 C   0  0  0  0  0  0  0  0  0  0  0  0
  143.2295  133.0889  149.6234 N   0  3  0  0  0  0  0  0  0  0  0  0
  144.2752  132.9888  148.7755 C   0  0  0  0  0  0  0  0  0  0  0  0
  145.3560  132.1381  149.0856 C   0  0  0  0  0  0  0  0  0  0  0  0
  149.2388  126.3716  150.3554 C   0  0  0  0  0  0  0  0  0  0  0  0
  148.4774  125.0444  150.1921 C   0  0  0  0  0  0  0  0  0  0  0  0
  147.2539  122.7572  151.1401 H   0  0  0  0  0  0  0  0  0  0  0  0
  148.7578  121.9710  151.6374 H   0  0  0  0  0  0  0  0  0  0  0  0
  148.4909  122.3599  149.9407 H   0  0  0  0  0  0  0  0  0  0  0  0
  147.7880  124.6174  152.8298 H   0  0  0  0  0  0  0  0  0  0  0  0
  149.2495  123.7473  153.2383 H   0  0  0  0  0  0  0  0  0  0  0  0
  149.4799  126.1696  153.8045 H   0  0  0  0  0  0  0  0  0  0  0  0
  150.6646  125.6520  152.6375 H   0  0  0  0  0  0  0  0  0  0  0  0
  149.8437  127.7526  151.8764 H   0  0  0  0  0  0  0  0  0  0  0  0
  146.9546  126.7770  151.9360 H   0  0  0  0  0  0  0  0  0  0  0  0
  147.6975  127.6493  153.2427 H   0  0  0  0  0  0  0  0  0  0  0  0
  148.2901  129.3192  151.2539 H   0  0  0  0  0  0  0  0  0  0  0  0
  147.3000  130.8584  150.5839 H   0  0  0  0  0  0  0  0  0  0  0  0
  144.1587  130.9856  152.0757 H   0  0  0  0  0  0  0  0  0  0  0  0
  142.2788  132.5655  151.3823 H   0  0  0  0  0  0  0  0  0  0  0  0
  144.2199  133.5926  147.8814 H   0  0  0  0  0  0  0  0  0  0  0  0
  146.1841  132.0924  148.3962 H   0  0  0  0  0  0  0  0  0  0  0  0
  148.8860  127.1008  149.6267 H   0  0  0  0  0  0  0  0  0  0  0  0
  150.2895  126.2040  150.1145 H   0  0  0  0  0  0  0  0  0  0  0  0
  148.6204  124.6689  149.1781 H   0  0  0  0  0  0  0  0  0  0  0  0
  147.4054  125.1981  150.3208 H   0  0  0  0  0  0  0  0  0  0  0  0
  149.9452  123.9102  150.9856 H   0  0  0  0  0  0  0  0  0  0  0  0
  142.4600  133.7131  149.3794 H   0  0  0  0  0  0  0  0  0  0  0  0
  1  2  1  0  0  0  0
  1 19  1  0  0  0  0
  1 20  1  0  0  0  0
  1 21  1  0  0  0  0
  2 18  1  0  0  0  0
  2  3  1  0  0  0  0
  2 39  1  0  0  0  0
  3  4  1  0  0  0  0
  3 22  1  0  0  0  0
  3 23  1  0  0  0  0
  4  5  1  0  0  0  0
  4 24  1  0  0  0  0
  4 25  1  0  0  0  0
  5  6  1  0  0  0  0
  5 17  1  0  0  0  0
  5 26  1  0  0  0  0
  6  7  1  0  0  0  0
  6 27  1  0  0  0  0
  6 28  1  0  0  0  0
  7  8  1  0  0  0  0
  7 29  1  0  0  0  0
  8  9  2  0  0  0  0
  8 10  1  0  0  0  0
 10 11  1  0  0  0  0
 10 30  1  0  0  0  0
 11 16  1  0  0  0  0
 11 12  2  0  0  0  0
 12 13  1  0  0  0  0
 12 31  1  0  0  0  0
 13 14  2  0  0  0  0
 13 32  1  0  0  0  0
 14 15  1  0  0  0  0
 14 40  1  0  0  0  0
 15 16  2  0  0  0  0
 15 33  1  0  0  0  0
 16 34  1  0  0  0  0
 17 18  1  0  0  0  0
 17 35  1  0  0  0  0
 17 36  1  0  0  0  0
 18 37  1  0  0  0  0
 18 38  1  0  0  0  0
M  CHG  1   2   1
M  CHG  1  14   1
M  END
> <s_m_source_file>
AV-unprocessed.smi

> <i_m_source_file_index>
1621

> <i_lp_mmshare_version>
43012

> <i_f3d_flags>
0

> <s_epik_input>
W0NIM11OMVtDSDJdW0NIMl1bQ0hdKFtDSDJdW0NIMl0xKVtDSDJdW05IXUMoPU8pW05IXWMyW2NIXVtjSF1uW2NIXVtjSF0y

> <s_epik_cmdline>
J2VwaWtfcHl0aG9uJywgJy1waCcsICc3LjAnLCAnLXRuJywgJzgnLCAnLW1hJywgJzIwMCcsICctbWV0YWxfYmluZGluZycsICctaW1hZScsICc8aW5maWxlLm1hZT4nLCAnLW9tYWUnLCAnPG91dGZpbGUubWFlPic=

> <r_epik_Ionization_Penalty>
1.07214

> <r_epik_Ionization_Penalty_Charging>
1.07212

> <r_epik_Ionization_Penalty_Neutral>
1.90829e-05

> <r_epik_State_Penalty>
1.12559

> <r_epik_Charging_Adjusted_Penalty>
2.1977

> <i_epik_Tot_Q>
2

> <i_epik_Tot_abs_Q>
2

> <r_epik_Metal_State_Penalty>
1.21693

> <b_epik_Metal_Only>
0

> <s_lp_Force_Field>
OPLS_2005

> <r_lp_Energy>
29.8708

> <b_lp_Chiralities_Consistent>
1

> <s_lp_Variant>
AV-unprocessed.smi:1621-4

> <Gold.Version>
5.8.1

> <Gold.Id.Protein>
6NUR|6NUR_protein|mol2

> <Gold.PLP.Fitness>
46.6076

> <Gold.PLP.PLP>
-36.1761

> <Gold.PLP.part.hbond>
-3.0000

> <Gold.PLP.part.metal>
0.0000

> <Gold.PLP.part.buried>
-3.6038

> <Gold.PLP.part.nonpolar>
-30.3159

> <Gold.PLP.part.repulsive>
0.4018

> <Gold.PLP.ligand.clash>
0.0000

> <Gold.PLP.ligand.torsion>
0.6048

> <Gold.PLP.Chemscore.Hbond>
3.8784

> <Gold.PLP.Chemscore.CHOScore>
0.0000

> <Gold.PLP.Chemscore.Metal>
0.0000

> <Gold.Chemscore.Hbonds>
donor molecule, donor type, donor heavy atom, donor atom, acceptor molecule, acceptor atom, score
      L1  H     7    29       P1 10747  0.93
      L1  H    10    30       P1 10747  1.00
      L1  H    14    40       P1 10186  2.00

> <Gold.PLP.Chemscore.Internal.Correction>
0.0059

> <Gold.Rescore>
     Score         DG    S(hbond)    S(metal)    S(lipo)     H(rot)  DE(clash)    DE(int)     intcor
     18.28     -20.10       2.18        0.00      90.40       1.26       0.08       1.75       ----

> <Gold.Chemscore.Fitness>
18.2754

> <Gold.Chemscore.DG>
-20.1010

> <Gold.Chemscore.ZeroCoef>
-5.4800

> <Gold.Chemscore.Hbond>
2.1798

> <Gold.Chemscore.Metal>
0.0000

> <Gold.Chemscore.Lipo>
90.4040

> <Gold.Chemscore.Internal_Hbond>
0.0000

> <Gold.Chemscore.DEClash>
0.0782

> <Gold.Chemscore.DEInternal>
1.7475

> <Gold.Chemscore.Rot>
1.2644

> <Gold.Chemscore.Internal.Correction>
   9.000000E+99

> <Gold.Chemscore.Hbonds>
donor molecule, donor type, donor heavy atom, donor atom, acceptor molecule, acceptor atom, score
      L1  H     7    29       P1 10747  0.20
      L1  H    10    30       P1 10747  0.99
      L1  H    14    40       P1 10186  0.98

> <Gold.Chemscore.Hbond.Weighted>
-7.2806

> <Gold.Chemscore.Metal.Weighted>
-0.0000

> <Gold.Chemscore.Lipo.Weighted>
-10.5773

> <Gold.Chemscore.Internal_Hbond.Weighted>
0.0000

> <Gold.Chemscore.DEClash.Weighted>
0.0782

> <Gold.Chemscore.DEInternal.Weighted>
1.7475

> <Gold.Chemscore.Rot.Weighted>
3.2368

> <Gold.Chemscore.Internal.Correction.Weighted>
   9.000000E+99

> <Gold.Protein.RotatedTorsions>
[ 6907 6896 6895 6894 ] final  -27.06 input  -60.11 | X-H torsion
[ 7974 7965 7964 7962 ] final  -33.87 input  175.53 | X-H torsion
[ 8008 7997 7996 7995 ] final   53.08 input   59.86 | X-H torsion
[ 10167 10162 10161 10158 ] final  177.20 input  -65.29 | X-H torsion
[ 10718 10713 10712 10709 ] final -119.56 input   66.30 | X-H torsion
[ 10763 10752 10751 10750 ] final  -29.64 input  -60.55 | X-H torsion
[ 11005 11000 10999 10996 ] final -147.95 input  -57.11 | X-H torsion

> <Gold.Protein.ActiveResidues>
 VAL166  LYS551  ARG553  GLY616  TRP617  ASP618  TYR619  PRO620  LYS621  CYS622 
 ASP623  PHE694  ASN695  SER759  ASP760  ASP761  ALA762  ILE779  LEU786  VAL792 
 PHE793  MET794  SER795  GLU796  ALA797  LYS798  CYS799  TRP800  GLU811  SER814 

> <Gold.Protein.RotatedAtoms>
  151.1522  135.0232  159.8672 H   0  0  0  0  0  0  0  0  0  0  0  0  # atno 6907 bound_to 6896
  152.5452  134.1376  159.8475 H   0  0  0  0  0  0  0  0  0  0  0  0  # atno 6908 bound_to 6896
  151.1462  133.4892  159.2628 H   0  0  0  0  0  0  0  0  0  0  0  0  # atno 6909 bound_to 6896
  146.0876  140.5969  142.8879 H   0  0  0  0  0  0  0  0  0  0  0  0  # atno 7974 bound_to 7965
  155.4624  140.3462  155.4314 H   0  0  0  0  0  0  0  0  0  0  0  0  # atno 8008 bound_to 7997
  156.1152  140.1472  156.9311 H   0  0  0  0  0  0  0  0  0  0  0  0  # atno 8009 bound_to 7997
  154.4784  140.0877  156.7298 H   0  0  0  0  0  0  0  0  0  0  0  0  # atno 8010 bound_to 7997
  139.5244  144.2826  152.0533 H   0  0  0  0  0  0  0  0  0  0  0  0  # atno 10167 bound_to 10162
  156.1190  130.6308  150.9431 H   0  0  0  0  0  0  0  0  0  0  0  0  # atno 10718 bound_to 10713
  153.7680  135.6914  153.4912 H   0  0  0  0  0  0  0  0  0  0  0  0  # atno 10763 bound_to 10752
  153.1894  135.4477  155.0128 H   0  0  0  0  0  0  0  0  0  0  0  0  # atno 10764 bound_to 10752
  154.8128  135.3385  154.7191 H   0  0  0  0  0  0  0  0  0  0  0  0  # atno 10765 bound_to 10752
  140.7664  134.3240  157.5087 H   0  0  0  0  0  0  0  0  0  0  0  0  # atno 11005 bound_to 11000
  144.7336  140.4745  143.6919 LP  0  0  0  0  0  0  0  0  0  0  0  0  # atno 17320 bound_to 7965
  145.6101  139.1512  143.3080 LP  0  0  0  0  0  0  0  0  0  0  0  0  # atno 17321 bound_to 7965
  140.2281  144.4397  150.6312 LP  0  0  0  0  0  0  0  0  0  0  0  0  # atno 17342 bound_to 10162
  140.6374  143.2197  151.6365 LP  0  0  0  0  0  0  0  0  0  0  0  0  # atno 17343 bound_to 10162
  157.6374  131.0914  150.8321 LP  0  0  0  0  0  0  0  0  0  0  0  0  # atno 17370 bound_to 10713
  156.8421  130.5051  149.5320 LP  0  0  0  0  0  0  0  0  0  0  0  0  # atno 17371 bound_to 10713
  139.8762  134.9233  156.3323 LP  0  0  0  0  0  0  0  0  0  0  0  0  # atno 17394 bound_to 11000
  140.9615  133.7385  156.0408 LP  0  0  0  0  0  0  0  0  0  0  0  0  # atno 17395 bound_to 11000

$$$$
