AV-unprocessed.smi:1537|AV-procd|sdf|6190|dock2
  -GOLD-   22720 6353D 1   1.00000     0.00000
 Structure written by MMmdl.
 43 43  0  0  0  0  0  0  0  0  1 V2000
  146.4873  133.0487  151.4568 C   0  0  0  0  0  0  0  0  0  0  0  0
  147.4936  132.3083  152.3442 C   0  0  0  0  0  0  0  0  0  0  0  0
  147.9461  133.1298  153.5044 C   0  0  0  0  0  0  0  0  0  0  0  0
  149.2241  133.4460  153.7298 N   0  0  0  0  0  0  0  0  0  0  0  0
  149.3979  134.1861  154.9044 C   0  0  0  0  0  0  0  0  0  0  0  0
  150.7735  134.6274  155.3242 C   0  0  0  0  0  0  0  0  0  0  0  0
  150.9079  136.1558  155.3519 C   0  0  0  0  0  0  0  0  0  0  0  0
  150.8853  136.7482  156.4307 O   0  0  0  0  0  0  0  0  0  0  0  0
  151.0690  136.7850  154.1751 N   0  0  0  0  0  0  0  0  0  0  0  0
  151.2427  138.2248  153.9976 C   0  0  2  0  0  0  0  0  0  0  0  0
  152.3440  138.6895  154.9649 C   0  0  0  0  0  0  0  0  0  0  0  0
  149.9491  138.9704  154.3623 C   0  0  0  0  0  0  0  0  0  0  0  0
  149.9594  139.8505  155.2243 O   0  0  0  0  0  0  0  0  0  0  0  0
  148.8513  138.6092  153.6741 N   0  0  0  0  0  0  0  0  0  0  0  0
  147.4878  139.1407  153.7863 C   0  0  0  0  0  0  0  0  0  0  0  0
  146.9361  138.6765  155.1455 C   0  0  0  0  0  0  0  0  0  0  0  0
  146.5895  138.5786  152.6642 C   0  0  0  0  0  0  0  0  0  0  0  0
  147.5011  140.6836  153.7514 C   0  0  0  0  0  0  0  0  0  0  0  0
  148.2205  134.4274  155.5690 C   0  0  0  0  0  0  0  0  0  0  0  0
  146.8549  133.7181  154.7532 S   0  0  0  0  0  0  0  0  0  0  0  0
  146.1779  132.4263  150.6170 H   0  0  0  0  0  0  0  0  0  0  0  0
  146.9190  133.9645  151.0520 H   0  0  0  0  0  0  0  0  0  0  0  0
  145.5927  133.3195  152.0186 H   0  0  0  0  0  0  0  0  0  0  0  0
  147.0520  131.3836  152.7177 H   0  0  0  0  0  0  0  0  0  0  0  0
  148.3670  132.0226  151.7574 H   0  0  0  0  0  0  0  0  0  0  0  0
  151.0123  134.2304  156.3118 H   0  0  0  0  0  0  0  0  0  0  0  0
  151.5275  134.2303  154.6440 H   0  0  0  0  0  0  0  0  0  0  0  0
  151.0844  136.2204  153.3382 H   0  0  0  0  0  0  0  0  0  0  0  0
  151.5361  138.4483  152.9698 H   0  0  0  0  0  0  0  0  0  0  0  0
  152.5205  139.7626  154.8797 H   0  0  0  0  0  0  0  0  0  0  0  0
  153.2880  138.1884  154.7475 H   0  0  0  0  0  0  0  0  0  0  0  0
  152.0902  138.4749  156.0042 H   0  0  0  0  0  0  0  0  0  0  0  0
  148.9734  137.8738  152.9932 H   0  0  0  0  0  0  0  0  0  0  0  0
  145.9194  139.0378  155.3055 H   0  0  0  0  0  0  0  0  0  0  0  0
  147.5474  139.0443  155.9707 H   0  0  0  0  0  0  0  0  0  0  0  0
  146.9108  137.5883  155.2144 H   0  0  0  0  0  0  0  0  0  0  0  0
  146.6011  137.4880  152.6552 H   0  0  0  0  0  0  0  0  0  0  0  0
  146.9022  138.9198  151.6773 H   0  0  0  0  0  0  0  0  0  0  0  0
  145.5538  138.8935  152.7962 H   0  0  0  0  0  0  0  0  0  0  0  0
  146.5036  141.0878  153.9263 H   0  0  0  0  0  0  0  0  0  0  0  0
  147.8369  141.0703  152.7891 H   0  0  0  0  0  0  0  0  0  0  0  0
  148.1595  141.0921  154.5190 H   0  0  0  0  0  0  0  0  0  0  0  0
  148.0760  134.9693  156.4919 H   0  0  0  0  0  0  0  0  0  0  0  0
  1  2  1  0  0  0  0
  1 21  1  0  0  0  0
  1 22  1  0  0  0  0
  1 23  1  0  0  0  0
  2  3  1  0  0  0  0
  2 24  1  0  0  0  0
  2 25  1  0  0  0  0
  3 20  1  0  0  0  0
  3  4  2  0  0  0  0
  4  5  1  0  0  0  0
  5  6  1  0  0  0  0
  5 19  2  0  0  0  0
  6  7  1  0  0  0  0
  6 26  1  0  0  0  0
  6 27  1  0  0  0  0
  7  8  2  0  0  0  0
  7  9  1  0  0  0  0
  9 10  1  0  0  0  0
  9 28  1  0  0  0  0
 10 11  1  0  0  0  0
 10 12  1  0  0  0  0
 10 29  1  0  0  0  0
 11 30  1  0  0  0  0
 11 31  1  0  0  0  0
 11 32  1  0  0  0  0
 12 13  2  0  0  0  0
 12 14  1  0  0  0  0
 14 15  1  0  0  0  0
 14 33  1  0  0  0  0
 15 16  1  0  0  0  0
 15 17  1  0  0  0  0
 15 18  1  0  0  0  0
 16 34  1  0  0  0  0
 16 35  1  0  0  0  0
 16 36  1  0  0  0  0
 17 37  1  0  0  0  0
 17 38  1  0  0  0  0
 17 39  1  0  0  0  0
 18 40  1  0  0  0  0
 18 41  1  0  0  0  0
 18 42  1  0  0  0  0
 19 20  1  0  0  0  0
 19 43  1  0  0  0  0
M  END
> <s_m_source_file>
AV-unprocessed.smi

> <i_m_source_file_index>
1537

> <i_lp_mmshare_version>
43012

> <i_f3d_flags>
0

> <s_epik_input>
W0NIM11bQ0gyXWMxbmMoW2NIXXMxKVtDSDJdQyg9TylbTkhdW0NASF0oW0NIM10pQyg9TylbTkhdQyhbQ0gzXSkoW0NIM10pW0NIM10=

> <s_epik_cmdline>
J2VwaWtfcHl0aG9uJywgJy1waCcsICc3LjAnLCAnLXRuJywgJzgnLCAnLW1hJywgJzIwMCcsICctbWV0YWxfYmluZGluZycsICctaW1hZScsICc8aW5maWxlLm1hZT4nLCAnLW9tYWUnLCAnPG91dGZpbGUubWFlPic=

> <r_lp_tautomer_probability>
1

> <r_epik_Ionization_Penalty>
4.05444e-05

> <r_epik_Ionization_Penalty_Charging>
0

> <r_epik_Ionization_Penalty_Neutral>
4.05444e-05

> <r_epik_State_Penalty>
-0

> <r_epik_Charging_Adjusted_Penalty>
0

> <i_epik_Tot_Q>
0

> <i_epik_Tot_abs_Q>
0

> <r_epik_Metal_State_Penalty>
-0

> <b_epik_Metal_Only>
0

> <s_lp_Force_Field>
OPLS_2005

> <r_lp_Energy>
-1.93446

> <b_lp_Chiralities_Consistent>
1

> <s_lp_Variant>
AV-unprocessed.smi:1537-1

> <Gold.Version>
5.8.1

> <Gold.Id.Protein>
6NUR|6NUR_protein|mol2

> <Gold.PLP.Fitness>
39.0814

> <Gold.PLP.PLP>
-33.9505

> <Gold.PLP.part.hbond>
-3.7827

> <Gold.PLP.part.metal>
0.0000

> <Gold.PLP.part.buried>
-1.5674

> <Gold.PLP.part.nonpolar>
-28.6315

> <Gold.PLP.part.repulsive>
0.6743

> <Gold.PLP.ligand.clash>
0.0000

> <Gold.PLP.ligand.torsion>
0.4955

> <Gold.PLP.Chemscore.Hbond>
2.0000

> <Gold.PLP.Chemscore.CHOScore>
0.0000

> <Gold.PLP.Chemscore.Metal>
0.0000

> <Gold.Chemscore.Hbonds>
donor molecule, donor type, donor heavy atom, donor atom, acceptor molecule, acceptor atom, score
      L1  H     9    28       P1  7949  1.00
      L1  H    14    33       P1  7948  1.00

> <Gold.PLP.Chemscore.Internal.Correction>
0.1219

> <Gold.Rescore>
     Score         DG    S(hbond)    S(metal)    S(lipo)     H(rot)  DE(clash)    DE(int)     intcor
      9.85     -13.12       1.12        0.00      74.37       1.88       1.34       1.94       ----

> <Gold.Chemscore.Fitness>
9.8484

> <Gold.Chemscore.DG>
-13.1207

> <Gold.Chemscore.ZeroCoef>
-5.4800

> <Gold.Chemscore.Hbond>
1.1209

> <Gold.Chemscore.Metal>
0.0000

> <Gold.Chemscore.Lipo>
74.3685

> <Gold.Chemscore.Internal_Hbond>
0.0000

> <Gold.Chemscore.DEClash>
1.3360

> <Gold.Chemscore.DEInternal>
1.9363

> <Gold.Chemscore.Rot>
1.8766

> <Gold.Chemscore.Internal.Correction>
   9.000000E+99

> <Gold.Chemscore.Hbonds>
donor molecule, donor type, donor heavy atom, donor atom, acceptor molecule, acceptor atom, score
      L1  H     9    28       P1  7949  0.29
      L1  H    14    33       P1  7948  0.98

> <Gold.Chemscore.Hbond.Weighted>
-3.7438

> <Gold.Chemscore.Metal.Weighted>
-0.0000

> <Gold.Chemscore.Lipo.Weighted>
-8.7011

> <Gold.Chemscore.Internal_Hbond.Weighted>
0.0000

> <Gold.Chemscore.DEClash.Weighted>
1.3360

> <Gold.Chemscore.DEInternal.Weighted>
1.9363

> <Gold.Chemscore.Rot.Weighted>
4.8042

> <Gold.Chemscore.Internal.Correction.Weighted>
   9.000000E+99

> <Gold.Protein.RotatedTorsions>
[ 6907 6896 6895 6894 ] final   18.77 input  -60.11 | X-H torsion
[ 7974 7965 7964 7962 ] final  -54.51 input  175.53 | X-H torsion
[ 8008 7997 7996 7995 ] final -108.00 input   59.86 | X-H torsion
[ 10167 10162 10161 10158 ] final  -41.08 input  -65.29 | X-H torsion
[ 10718 10713 10712 10709 ] final -126.94 input   66.30 | X-H torsion
[ 10763 10752 10751 10750 ] final  -48.54 input  -60.55 | X-H torsion
[ 11005 11000 10999 10996 ] final  -90.54 input  -57.11 | X-H torsion

> <Gold.Protein.ActiveResidues>
 VAL166  LYS551  ARG553  GLY616  TRP617  ASP618  TYR619  PRO620  LYS621  CYS622 
 ASP623  PHE694  ASN695  SER759  ASP760  ASP761  ALA762  ILE779  LEU786  VAL792 
 PHE793  MET794  SER795  GLU796  ALA797  LYS798  CYS799  TRP800  GLU811  SER814 

> <Gold.Protein.RotatedAtoms>
  151.8704  135.0491  160.0478 H   0  0  0  0  0  0  0  0  0  0  0  0  # atno 6907 bound_to 6896
  152.2592  133.5278  159.5380 H   0  0  0  0  0  0  0  0  0  0  0  0  # atno 6908 bound_to 6896
  150.7110  134.0769  159.3926 H   0  0  0  0  0  0  0  0  0  0  0  0  # atno 6909 bound_to 6896
  145.8847  140.8117  142.9822 H   0  0  0  0  0  0  0  0  0  0  0  0  # atno 7974 bound_to 7965
  154.9378  140.0403  157.2081 H   0  0  0  0  0  0  0  0  0  0  0  0  # atno 8008 bound_to 7997
  154.8099  140.2866  155.5839 H   0  0  0  0  0  0  0  0  0  0  0  0  # atno 8009 bound_to 7997
  156.2970  140.2539  156.2984 H   0  0  0  0  0  0  0  0  0  0  0  0  # atno 8010 bound_to 7997
  140.7014  143.3116  151.3015 H   0  0  0  0  0  0  0  0  0  0  0  0  # atno 10167 bound_to 10162
  156.1811  130.6732  151.0305 H   0  0  0  0  0  0  0  0  0  0  0  0  # atno 10718 bound_to 10713
  154.0795  135.6593  153.4836 H   0  0  0  0  0  0  0  0  0  0  0  0  # atno 10763 bound_to 10752
  153.0361  135.5176  154.7488 H   0  0  0  0  0  0  0  0  0  0  0  0  # atno 10764 bound_to 10752
  154.6579  135.3010  154.9873 H   0  0  0  0  0  0  0  0  0  0  0  0  # atno 10765 bound_to 10752
  141.1563  133.7698  156.9751 H   0  0  0  0  0  0  0  0  0  0  0  0  # atno 11005 bound_to 11000
  144.6728  140.1438  143.7435 LP  0  0  0  0  0  0  0  0  0  0  0  0  # atno 17320 bound_to 7965
  145.8981  139.2414  143.1510 LP  0  0  0  0  0  0  0  0  0  0  0  0  # atno 17321 bound_to 7965
  139.6540  144.0310  152.2647 LP  0  0  0  0  0  0  0  0  0  0  0  0  # atno 17342 bound_to 10162
  139.9855  144.6398  150.7861 LP  0  0  0  0  0  0  0  0  0  0  0  0  # atno 17343 bound_to 10162
  157.6868  131.0822  150.7219 LP  0  0  0  0  0  0  0  0  0  0  0  0  # atno 17370 bound_to 10713
  156.7276  130.4699  149.5507 LP  0  0  0  0  0  0  0  0  0  0  0  0  # atno 17371 bound_to 10713
  140.1103  134.9481  157.2055 LP  0  0  0  0  0  0  0  0  0  0  0  0  # atno 17394 bound_to 11000
  140.3203  134.2924  155.7248 LP  0  0  0  0  0  0  0  0  0  0  0  0  # atno 17395 bound_to 11000

$$$$
