AV-unprocessed.smi:167|AV-procd|sdf|1395|dock6
  -GOLD-   2262019133D 1   1.00000     0.00000
 Structure written by MMmdl.
 51 55  0  0  0  0  0  0  0  0  1 V2000
  148.5771  142.2572  154.0700 O   0  0  0  0  0  0  0  0  0  0  0  0
  149.0936  141.2611  154.9264 C   0  0  0  0  0  0  0  0  0  0  0  0
  149.4977  141.8809  156.2780 C   0  0  1  0  0  0  0  0  0  0  0  0
  149.3329  140.9324  157.4834 C   0  0  0  0  0  0  0  0  0  0  0  0
  150.7439  140.9732  158.1065 C   0  0  2  0  0  0  0  0  0  0  0  0
  150.9635  142.3442  158.7697 C   0  0  0  0  0  0  0  0  0  0  0  0
  151.1804  143.2419  157.5401 C   0  0  0  0  0  0  0  0  0  0  0  0
  151.0029  142.2320  156.3917 C   0  0  1  0  0  0  0  0  0  0  0  0
  151.6293  141.0439  156.9544 N   0  0  0  0  0  0  0  0  0  0  0  0
  151.8807  139.9484  156.1874 C   0  0  0  0  0  0  0  0  0  0  0  0
  152.7185  140.0684  155.1235 N   0  0  0  0  0  0  0  0  0  0  0  0
  152.9989  139.0110  154.3577 C   0  0  0  0  0  0  0  0  0  0  0  0
  152.5502  137.7601  154.4674 N   0  0  0  0  0  0  0  0  0  0  0  0
  151.6906  137.6331  155.5183 C   0  0  0  0  0  0  0  0  0  0  0  0
  151.3016  138.6661  156.4194 C   0  0  0  0  0  0  0  0  0  0  0  0
  150.4122  138.1552  157.3572 N   0  0  0  0  0  0  0  0  0  0  0  0
  150.2971  136.8947  157.0420 C   0  0  0  0  0  0  0  0  0  0  0  0
  151.0198  136.4972  155.9398 N   0  0  0  0  0  0  0  0  0  0  0  0
  151.0968  135.1743  155.3871 C   0  0  0  0  0  0  0  0  0  0  0  0
  150.7956  134.8951  153.9102 C   0  0  0  0  0  0  0  0  0  0  0  0
  150.2071  133.5202  154.3054 C   0  0  0  0  0  0  0  0  0  0  0  0
  148.9337  133.0766  153.5587 C   0  0  0  0  0  0  0  0  0  0  0  0
  149.2063  132.5998  152.2557 O   0  0  0  0  0  0  0  0  0  0  0  0
  151.2151  132.3587  154.2168 C   0  0  0  0  0  0  0  0  0  0  0  0
  150.7079  131.1815  154.8122 O   0  0  0  0  0  0  0  0  0  0  0  0
  150.0242  134.1344  155.7136 C   0  0  0  0  0  0  0  0  0  0  0  0
  148.6103  143.0872  154.5211 H   0  0  0  0  0  0  0  0  0  0  0  0
  148.3451  140.4787  155.0452 H   0  0  0  0  0  0  0  0  0  0  0  0
  149.9602  140.8076  154.4447 H   0  0  0  0  0  0  0  0  0  0  0  0
  148.9032  142.7846  156.4221 H   0  0  0  0  0  0  0  0  0  0  0  0
  148.5577  141.2625  158.1756 H   0  0  0  0  0  0  0  0  0  0  0  0
  149.0811  139.9204  157.1632 H   0  0  0  0  0  0  0  0  0  0  0  0
  150.9411  140.1449  158.7881 H   0  0  0  0  0  0  0  0  0  0  0  0
  150.1153  142.6563  159.3800 H   0  0  0  0  0  0  0  0  0  0  0  0
  151.8532  142.3367  159.4006 H   0  0  0  0  0  0  0  0  0  0  0  0
  150.4797  144.0760  157.4910 H   0  0  0  0  0  0  0  0  0  0  0  0
  152.1911  143.6517  157.5412 H   0  0  0  0  0  0  0  0  0  0  0  0
  151.4332  142.6027  155.4631 H   0  0  0  0  0  0  0  0  0  0  0  0
  153.6817  139.1932  153.5411 H   0  0  0  0  0  0  0  0  0  0  0  0
  149.6779  136.2192  157.6139 H   0  0  0  0  0  0  0  0  0  0  0  0
  152.0860  134.7878  155.6379 H   0  0  0  0  0  0  0  0  0  0  0  0
  150.0606  135.5794  153.4863 H   0  0  0  0  0  0  0  0  0  0  0  0
  151.6813  134.8459  153.2761 H   0  0  0  0  0  0  0  0  0  0  0  0
  148.4205  132.2846  154.1049 H   0  0  0  0  0  0  0  0  0  0  0  0
  148.2267  133.9011  153.4629 H   0  0  0  0  0  0  0  0  0  0  0  0
  148.3846  132.4589  151.8104 H   0  0  0  0  0  0  0  0  0  0  0  0
  151.4738  132.1427  153.1796 H   0  0  0  0  0  0  0  0  0  0  0  0
  152.1509  132.6074  154.7179 H   0  0  0  0  0  0  0  0  0  0  0  0
  150.1510  131.4265  155.5355 H   0  0  0  0  0  0  0  0  0  0  0  0
  150.2805  133.4745  156.5431 H   0  0  0  0  0  0  0  0  0  0  0  0
  149.0438  134.5870  155.8696 H   0  0  0  0  0  0  0  0  0  0  0  0
  1  2  1  0  0  0  0
  1 27  1  0  0  0  0
  2  3  1  0  0  0  0
  2 28  1  0  0  0  0
  2 29  1  0  0  0  0
  3  8  1  0  0  0  0
  3  4  1  0  0  0  0
  3 30  1  0  0  0  0
  4  5  1  0  0  0  0
  4 31  1  0  0  0  0
  4 32  1  0  0  0  0
  5  9  1  0  0  0  0
  5  6  1  0  0  0  0
  5 33  1  0  0  0  0
  6  7  1  0  0  0  0
  6 34  1  0  0  0  0
  6 35  1  0  0  0  0
  7  8  1  0  0  0  0
  7 36  1  0  0  0  0
  7 37  1  0  0  0  0
  8  9  1  0  0  0  0
  8 38  1  0  0  0  0
  9 10  1  0  0  0  0
 10 15  1  0  0  0  0
 10 11  2  0  0  0  0
 11 12  1  0  0  0  0
 12 13  2  0  0  0  0
 12 39  1  0  0  0  0
 13 14  1  0  0  0  0
 14 18  1  0  0  0  0
 14 15  2  0  0  0  0
 15 16  1  0  0  0  0
 16 17  2  0  0  0  0
 17 18  1  0  0  0  0
 17 40  1  0  0  0  0
 18 19  1  0  0  0  0
 19 26  1  0  0  0  0
 19 20  1  0  0  0  0
 19 41  1  0  0  0  0
 20 21  1  0  0  0  0
 20 42  1  0  0  0  0
 20 43  1  0  0  0  0
 21 22  1  0  0  0  0
 21 24  1  0  0  0  0
 21 26  1  0  0  0  0
 22 23  1  0  0  0  0
 22 44  1  0  0  0  0
 22 45  1  0  0  0  0
 23 46  1  0  0  0  0
 24 25  1  0  0  0  0
 24 47  1  0  0  0  0
 24 48  1  0  0  0  0
 25 49  1  0  0  0  0
 26 50  1  0  0  0  0
 26 51  1  0  0  0  0
M  END
> <s_m_source_file>
AV-unprocessed.smi

> <i_m_source_file_index>
167

> <i_lp_mmshare_version>
43012

> <i_f3d_flags>
0

> <s_epik_input>
W09IXVtDSDJdW0NASF0oW0NIMl1bQ0BASF0xMilbQ0BIXShbQ0gyXVtDSDJdMSlOMmMobltjSF1uMyljKGMzNCluW2NIXW40W0NIXShbQ0gyXTUpW0NIMl1DNShbQ0gyXVtPSF0pW0NIMl1bT0hd

> <s_epik_cmdline>
J2VwaWtfcHl0aG9uJywgJy1waCcsICc3LjAnLCAnLXRuJywgJzgnLCAnLW1hJywgJzIwMCcsICctbWV0YWxfYmluZGluZycsICctaW1hZScsICc8aW5maWxlLm1hZT4nLCAnLW9tYWUnLCAnPG91dGZpbGUubWFlPic=

> <r_lp_tautomer_probability>
1

> <r_epik_Ionization_Penalty>
0.0047903

> <r_epik_Ionization_Penalty_Charging>
0

> <r_epik_Ionization_Penalty_Neutral>
0.0047903

> <r_epik_State_Penalty>
0.00341021

> <r_epik_Charging_Adjusted_Penalty>
0.00341021

> <i_epik_Tot_Q>
0

> <i_epik_Tot_abs_Q>
0

> <r_epik_Metal_State_Penalty>
-0

> <b_epik_Metal_Only>
0

> <s_lp_Force_Field>
OPLS_2005

> <r_lp_Energy>
89.2094

> <b_lp_Chiralities_Consistent>
1

> <s_lp_Variant>
AV-unprocessed.smi:167-4

> <Gold.Version>
5.8.1

> <Gold.Id.Protein>
6NUR|6NUR_protein|mol2

> <Gold.PLP.Fitness>
45.5904

> <Gold.PLP.PLP>
-37.4507

> <Gold.PLP.part.hbond>
-5.6676

> <Gold.PLP.part.metal>
0.0000

> <Gold.PLP.part.buried>
-6.8740

> <Gold.PLP.part.nonpolar>
-25.1019

> <Gold.PLP.part.repulsive>
0.0959

> <Gold.PLP.ligand.clash>
0.0000

> <Gold.PLP.ligand.torsion>
0.8922

> <Gold.PLP.Chemscore.Hbond>
3.1522

> <Gold.PLP.Chemscore.CHOScore>
0.0000

> <Gold.PLP.Chemscore.Metal>
0.0000

> <Gold.Chemscore.Hbonds>
donor molecule, donor type, donor heavy atom, donor atom, acceptor molecule, acceptor atom, score
      L1  H     1    27       P1  8028  1.00
      P1  H  7989  7998       L1    11  0.16
      P1  H  7997  8010       L1    11  0.80
      P1  H  8011  8017       L1     1  0.22
      P1  H 10752 10765       L1    13  0.30

> <Gold.PLP.Chemscore.Internal.Correction>
0.4676

> <Gold.Rescore>
     Score         DG    S(hbond)    S(metal)    S(lipo)     H(rot)  DE(clash)    DE(int)     intcor
      9.66     -12.64       2.57        0.00      79.87       4.20       0.18       2.81       ----

> <Gold.Chemscore.Fitness>
9.6569

> <Gold.Chemscore.DG>
-12.6449

> <Gold.Chemscore.ZeroCoef>
-5.4800

> <Gold.Chemscore.Hbond>
2.5694

> <Gold.Chemscore.Metal>
0.0000

> <Gold.Chemscore.Lipo>
79.8701

> <Gold.Chemscore.Internal_Hbond>
0.0000

> <Gold.Chemscore.DEClash>
0.1790

> <Gold.Chemscore.DEInternal>
2.8090

> <Gold.Chemscore.Rot>
4.2038

> <Gold.Chemscore.Internal.Correction>
   9.000000E+99

> <Gold.Chemscore.Hbonds>
donor molecule, donor type, donor heavy atom, donor atom, acceptor molecule, acceptor atom, score
      L1  H     1    27       P1  8028  0.97
      L1  H    23    46       P1 10747  0.02
      P1  H  7997  8010       L1    11  0.05
      P1  H  8011  8017       L1     1  0.10
      P1  H 10752 10765       L1    13  0.03

> <Gold.Chemscore.Hbond.Weighted>
-8.5818

> <Gold.Chemscore.Metal.Weighted>
-0.0000

> <Gold.Chemscore.Lipo.Weighted>
-9.3448

> <Gold.Chemscore.Internal_Hbond.Weighted>
0.0000

> <Gold.Chemscore.DEClash.Weighted>
0.1790

> <Gold.Chemscore.DEInternal.Weighted>
2.8090

> <Gold.Chemscore.Rot.Weighted>
10.7617

> <Gold.Chemscore.Internal.Correction.Weighted>
   9.000000E+99

> <Gold.Protein.RotatedTorsions>
[ 6907 6896 6895 6894 ] final  -11.16 input  -60.11 | X-H torsion
[ 7974 7965 7964 7962 ] final   45.34 input  175.53 | X-H torsion
[ 8008 7997 7996 7995 ] final  101.04 input   59.86 | X-H torsion
[ 10167 10162 10161 10158 ] final   24.62 input  -65.29 | X-H torsion
[ 10718 10713 10712 10709 ] final  164.11 input   66.30 | X-H torsion
[ 10763 10752 10751 10750 ] final  165.73 input  -60.55 | X-H torsion
[ 11005 11000 10999 10996 ] final   -0.71 input  -57.11 | X-H torsion

> <Gold.Protein.ActiveResidues>
 VAL166  LYS551  ARG553  GLY616  TRP617  ASP618  TYR619  PRO620  LYS621  CYS622 
 ASP623  PHE694  ASN695  SER759  ASP760  ASP761  ALA762  ILE779  LEU786  VAL792 
 PHE793  MET794  SER795  GLU796  ALA797  LYS798  CYS799  TRP800  GLU811  SER814 

> <Gold.Protein.RotatedAtoms>
  151.3905  135.0955  159.9524 H   0  0  0  0  0  0  0  0  0  0  0  0  # atno 6907 bound_to 6896
  152.5081  133.8984  159.7439 H   0  0  0  0  0  0  0  0  0  0  0  0  # atno 6908 bound_to 6896
  150.9437  133.6572  159.2814 H   0  0  0  0  0  0  0  0  0  0  0  0  # atno 6909 bound_to 6896
  146.0489  139.4975  142.9731 H   0  0  0  0  0  0  0  0  0  0  0  0  # atno 7974 bound_to 7965
  156.1262  140.3204  155.8280 H   0  0  0  0  0  0  0  0  0  0  0  0  # atno 8008 bound_to 7997
  155.4416  140.0526  157.3027 H   0  0  0  0  0  0  0  0  0  0  0  0  # atno 8009 bound_to 7997
  154.4864  140.2074  155.9659 H   0  0  0  0  0  0  0  0  0  0  0  0  # atno 8010 bound_to 7997
  140.5173  144.0060  150.6400 H   0  0  0  0  0  0  0  0  0  0  0  0  # atno 10167 bound_to 10162
  157.0989  131.0437  151.2506 H   0  0  0  0  0  0  0  0  0  0  0  0  # atno 10718 bound_to 10713
  154.3284  135.2755  155.2484 H   0  0  0  0  0  0  0  0  0  0  0  0  # atno 10763 bound_to 10752
  154.4806  135.5859  153.6390 H   0  0  0  0  0  0  0  0  0  0  0  0  # atno 10764 bound_to 10752
  152.9869  135.6110  154.3475 H   0  0  0  0  0  0  0  0  0  0  0  0  # atno 10765 bound_to 10752
  140.6393  133.9504  155.8317 H   0  0  0  0  0  0  0  0  0  0  0  0  # atno 11005 bound_to 11000
  145.6759  141.0204  143.1632 LP  0  0  0  0  0  0  0  0  0  0  0  0  # atno 17320 bound_to 7965
  144.7112  139.8365  143.7414 LP  0  0  0  0  0  0  0  0  0  0  0  0  # atno 17321 bound_to 7965
  140.3400  143.3025  152.0598 LP  0  0  0  0  0  0  0  0  0  0  0  0  # atno 17342 bound_to 10162
  139.4913  144.6449  151.6799 LP  0  0  0  0  0  0  0  0  0  0  0  0  # atno 17343 bound_to 10162
  157.4657  130.7679  149.7277 LP  0  0  0  0  0  0  0  0  0  0  0  0  # atno 17370 bound_to 10713
  155.9878  130.3963  150.3145 LP  0  0  0  0  0  0  0  0  0  0  0  0  # atno 17371 bound_to 10713
  141.0619  134.0334  157.3647 LP  0  0  0  0  0  0  0  0  0  0  0  0  # atno 17394 bound_to 11000
  139.9086  135.0185  156.7596 LP  0  0  0  0  0  0  0  0  0  0  0  0  # atno 17395 bound_to 11000

$$$$
