AV-unprocessed.smi:1242|AV-procd|sdf|5217|dock9
  -GOLD-   22720 4313D 1   1.00000     0.00000
 Structure written by MMmdl.
 39 40  0  0  0  0  0  0  0  0  1 V2000
  147.9968  132.4047  154.4872 O   0  0  0  0  0  0  0  0  0  0  0  0
  148.5030  133.4775  154.1554 C   0  0  0  0  0  0  0  0  0  0  0  0
  149.8542  133.9188  154.7336 C   0  0  0  0  0  0  0  0  0  0  0  0
  149.7524  135.1166  155.5836 N   0  0  0  0  0  0  0  0  0  0  0  0
  149.7060  136.3656  154.9333 C   0  0  0  0  0  0  0  0  0  0  0  0
  149.5953  137.5331  155.5956 C   0  0  0  0  0  0  0  0  0  0  0  0
  149.5975  138.8693  154.8695 C   0  0  0  0  0  0  0  0  0  0  0  0
  148.6144  138.9284  153.9708 F   0  0  0  0  0  0  0  0  0  0  0  0
  149.4456  139.8826  155.7230 F   0  0  0  0  0  0  0  0  0  0  0  0
  150.7545  139.0352  154.2302 F   0  0  0  0  0  0  0  0  0  0  0  0
  149.5596  137.4529  157.0426 C   0  0  0  0  0  0  0  0  0  0  0  0
  149.6083  136.2671  157.6804 C   0  0  0  0  0  0  0  0  0  0  0  0
  149.7030  135.0042  156.9449 C   0  0  0  0  0  0  0  0  0  0  0  0
  149.7384  133.9142  157.5164 O   0  0  0  0  0  0  0  0  0  0  0  0
  147.9210  134.3315  153.2982 N   0  0  0  0  0  0  0  0  0  0  0  0
  146.6469  134.1095  152.6105 C   0  0  1  0  0  0  0  0  0  0  0  0
  146.8445  132.9302  151.6306 C   0  0  0  0  0  0  0  0  0  0  0  0
  145.8269  132.9042  150.4768 C   0  0  0  0  0  0  0  0  0  0  0  0
  144.3696  132.6681  150.9013 C   0  0  0  0  0  0  0  0  0  0  0  0
  143.8036  133.7720  151.8103 C   0  0  0  0  0  0  0  0  0  0  0  0
  144.2688  133.6424  153.1848 N   0  0  0  0  0  0  0  0  0  0  0  0
  145.5328  133.7500  153.6217 C   0  0  0  0  0  0  0  0  0  0  0  0
  145.7978  133.5605  154.8088 O   0  0  0  0  0  0  0  0  0  0  0  0
  150.2980  133.0964  155.2982 H   0  0  0  0  0  0  0  0  0  0  0  0
  150.5374  134.0936  153.9014 H   0  0  0  0  0  0  0  0  0  0  0  0
  149.7605  136.3133  153.8555 H   0  0  0  0  0  0  0  0  0  0  0  0
  149.4867  138.3589  157.6259 H   0  0  0  0  0  0  0  0  0  0  0  0
  149.5760  136.2451  158.7598 H   0  0  0  0  0  0  0  0  0  0  0  0
  148.4091  135.1880  153.0810 H   0  0  0  0  0  0  0  0  0  0  0  0
  146.3775  135.0135  152.0612 H   0  0  0  0  0  0  0  0  0  0  0  0
  147.8348  133.0062  151.1786 H   0  0  0  0  0  0  0  0  0  0  0  0
  146.8398  131.9761  152.1606 H   0  0  0  0  0  0  0  0  0  0  0  0
  145.8941  133.8362  149.9145 H   0  0  0  0  0  0  0  0  0  0  0  0
  146.1145  132.1169  149.7793 H   0  0  0  0  0  0  0  0  0  0  0  0
  143.7591  132.6181  149.9991 H   0  0  0  0  0  0  0  0  0  0  0  0
  144.2697  131.6946  151.3831 H   0  0  0  0  0  0  0  0  0  0  0  0
  144.0337  134.7640  151.4190 H   0  0  0  0  0  0  0  0  0  0  0  0
  142.7163  133.6959  151.8319 H   0  0  0  0  0  0  0  0  0  0  0  0
  143.5647  133.4188  153.8733 H   0  0  0  0  0  0  0  0  0  0  0  0
  1  2  2  0  0  0  0
  2  3  1  0  0  0  0
  2 15  1  0  0  0  0
  3  4  1  0  0  0  0
  3 24  1  0  0  0  0
  3 25  1  0  0  0  0
  4 13  1  0  0  0  0
  4  5  1  0  0  0  0
  5  6  2  0  0  0  0
  5 26  1  0  0  0  0
  6  7  1  0  0  0  0
  6 11  1  0  0  0  0
  7  8  1  0  0  0  0
  7  9  1  0  0  0  0
  7 10  1  0  0  0  0
 11 12  2  0  0  0  0
 11 27  1  0  0  0  0
 12 13  1  0  0  0  0
 12 28  1  0  0  0  0
 13 14  2  0  0  0  0
 15 16  1  0  0  0  0
 15 29  1  0  0  0  0
 16 22  1  0  0  0  0
 16 17  1  0  0  0  0
 16 30  1  0  0  0  0
 17 18  1  0  0  0  0
 17 31  1  0  0  0  0
 17 32  1  0  0  0  0
 18 19  1  0  0  0  0
 18 33  1  0  0  0  0
 18 34  1  0  0  0  0
 19 20  1  0  0  0  0
 19 35  1  0  0  0  0
 19 36  1  0  0  0  0
 20 21  1  0  0  0  0
 20 37  1  0  0  0  0
 20 38  1  0  0  0  0
 21 22  1  0  0  0  0
 21 39  1  0  0  0  0
 22 23  2  0  0  0  0
M  END
> <s_m_source_file>
AV-unprocessed.smi

> <i_m_source_file_index>
1242

> <i_lp_mmshare_version>
43012

> <i_f3d_flags>
0

> <s_epik_input>
Tz1jMVtjSF1bY0hdYyhDKEYpKEYpRilbY0hdbjFbQ0gyXUMoPU8pW05IXVtDQEBIXTJbQ0gyXVtDSDJdW0NIMl1bQ0gyXVtOSF1DMj1P

> <s_epik_cmdline>
J2VwaWtfcHl0aG9uJywgJy1waCcsICc3LjAnLCAnLXRuJywgJzgnLCAnLW1hJywgJzIwMCcsICctbWV0YWxfYmluZGluZycsICctaW1hZScsICc8aW5maWxlLm1hZT4nLCAnLW9tYWUnLCAnPG91dGZpbGUubWFlPic=

> <r_lp_tautomer_probability>
1

> <r_epik_Ionization_Penalty>
6.92876e-08

> <r_epik_Ionization_Penalty_Charging>
1.59659e-08

> <r_epik_Ionization_Penalty_Neutral>
5.33217e-08

> <r_epik_State_Penalty>
-0

> <r_epik_Charging_Adjusted_Penalty>
1.59659e-08

> <i_epik_Tot_Q>
0

> <i_epik_Tot_abs_Q>
0

> <r_epik_Metal_State_Penalty>
-0

> <b_epik_Metal_Only>
0

> <s_lp_Force_Field>
OPLS_2005

> <r_lp_Energy>
23.3592

> <b_lp_Chiralities_Consistent>
1

> <s_lp_Variant>
AV-unprocessed.smi:1242-2

> <Gold.Version>
5.8.1

> <Gold.Id.Protein>
6NUR|6NUR_protein|mol2

> <Gold.PLP.Fitness>
41.1722

> <Gold.PLP.PLP>
-30.7459

> <Gold.PLP.part.hbond>
-3.0000

> <Gold.PLP.part.metal>
0.0000

> <Gold.PLP.part.buried>
-3.1545

> <Gold.PLP.part.nonpolar>
-24.2906

> <Gold.PLP.part.repulsive>
0.1301

> <Gold.PLP.ligand.clash>
0.0000

> <Gold.PLP.ligand.torsion>
0.4310

> <Gold.PLP.Chemscore.Hbond>
2.7513

> <Gold.PLP.Chemscore.CHOScore>
1.0000

> <Gold.PLP.Chemscore.Metal>
0.0000

> <Gold.Chemscore.Hbonds>
donor molecule, donor type, donor heavy atom, donor atom, acceptor molecule, acceptor atom, score
      L1  H    15    29       P1  7948  0.91
      L1  H    21    39       P1 10957  0.68
      P1  H  6896  6908       L1    14  1.00
      L1  C     5    26       P1  7948  1.00

> <Gold.PLP.Chemscore.Internal.Correction>
0.0345

> <Gold.Rescore>
     Score         DG    S(hbond)    S(metal)    S(lipo)     H(rot)  DE(clash)    DE(int)     intcor
     11.54     -16.41       2.73        0.00      53.26       1.72       0.05       4.81       ----

> <Gold.Chemscore.Fitness>
11.5439

> <Gold.Chemscore.DG>
-16.4104

> <Gold.Chemscore.ZeroCoef>
-5.4800

> <Gold.Chemscore.Hbond>
2.7260

> <Gold.Chemscore.Metal>
0.0000

> <Gold.Chemscore.Lipo>
53.2633

> <Gold.Chemscore.Internal_Hbond>
0.0000

> <Gold.Chemscore.DEClash>
0.0546

> <Gold.Chemscore.DEInternal>
4.8119

> <Gold.Chemscore.Rot>
1.7212

> <Gold.Chemscore.Internal.Correction>
   9.000000E+99

> <Gold.Chemscore.Hbonds>
donor molecule, donor type, donor heavy atom, donor atom, acceptor molecule, acceptor atom, score
      L1  H    15    29       P1  7948  0.80
      L1  H    21    39       P1 10957  0.65
      P1  H  6896  6908       L1    14  0.85

> <Gold.Chemscore.Hbond.Weighted>
-9.1048

> <Gold.Chemscore.Metal.Weighted>
-0.0000

> <Gold.Chemscore.Lipo.Weighted>
-6.2318

> <Gold.Chemscore.Internal_Hbond.Weighted>
0.0000

> <Gold.Chemscore.DEClash.Weighted>
0.0546

> <Gold.Chemscore.DEInternal.Weighted>
4.8119

> <Gold.Chemscore.Rot.Weighted>
4.4062

> <Gold.Chemscore.Internal.Correction.Weighted>
   9.000000E+99

> <Gold.Protein.RotatedTorsions>
[ 6907 6896 6895 6894 ] final  122.81 input  -60.11 | X-H torsion
[ 7974 7965 7964 7962 ] final -177.56 input  175.53 | X-H torsion
[ 8008 7997 7996 7995 ] final   53.68 input   59.86 | X-H torsion
[ 10167 10162 10161 10158 ] final  136.79 input  -65.29 | X-H torsion
[ 10718 10713 10712 10709 ] final -139.17 input   66.30 | X-H torsion
[ 10763 10752 10751 10750 ] final -132.46 input  -60.55 | X-H torsion
[ 11005 11000 10999 10996 ] final -127.87 input  -57.11 | X-H torsion

> <Gold.Protein.ActiveResidues>
 VAL166  LYS551  ARG553  GLY616  TRP617  ASP618  TYR619  PRO620  LYS621  CYS622 
 ASP623  PHE694  ASN695  SER759  ASP760  ASP761  ALA762  ILE779  LEU786  VAL792 
 PHE793  MET794  SER795  GLU796  ALA797  LYS798  CYS799  TRP800  GLU811  SER814 

> <Gold.Protein.RotatedAtoms>
  152.4212  133.7120  159.6483 H   0  0  0  0  0  0  0  0  0  0  0  0  # atno 6907 bound_to 6896
  150.8088  133.8449  159.3198 H   0  0  0  0  0  0  0  0  0  0  0  0  # atno 6908 bound_to 6896
  151.6164  135.1038  160.0144 H   0  0  0  0  0  0  0  0  0  0  0  0  # atno 6909 bound_to 6896
  144.7128  140.1001  143.6417 H   0  0  0  0  0  0  0  0  0  0  0  0  # atno 7974 bound_to 7965
  155.4723  140.3465  155.4327 H   0  0  0  0  0  0  0  0  0  0  0  0  # atno 8008 bound_to 7997
  156.1092  140.1456  156.9390 H   0  0  0  0  0  0  0  0  0  0  0  0  # atno 8009 bound_to 7997
  154.4745  140.0889  156.7206 H   0  0  0  0  0  0  0  0  0  0  0  0  # atno 8010 bound_to 7997
  139.5167  144.6445  151.5477 H   0  0  0  0  0  0  0  0  0  0  0  0  # atno 10167 bound_to 10162
  156.3076  130.7464  151.1532 H   0  0  0  0  0  0  0  0  0  0  0  0  # atno 10718 bound_to 10713
  154.8743  135.3797  154.4413 H   0  0  0  0  0  0  0  0  0  0  0  0  # atno 10763 bound_to 10752
  153.5098  135.7030  153.5792 H   0  0  0  0  0  0  0  0  0  0  0  0  # atno 10764 bound_to 10752
  153.4087  135.3930  155.2002 H   0  0  0  0  0  0  0  0  0  0  0  0  # atno 10765 bound_to 10752
  140.9563  134.0997  157.4013 H   0  0  0  0  0  0  0  0  0  0  0  0  # atno 11005 bound_to 11000
  145.9545  139.2757  143.1192 LP  0  0  0  0  0  0  0  0  0  0  0  0  # atno 17320 bound_to 7965
  145.9287  140.9064  143.0367 LP  0  0  0  0  0  0  0  0  0  0  0  0  # atno 17321 bound_to 7965
  140.6225  143.9232  150.6537 LP  0  0  0  0  0  0  0  0  0  0  0  0  # atno 17342 bound_to 10162
  140.2510  143.3593  152.1406 LP  0  0  0  0  0  0  0  0  0  0  0  0  # atno 17343 bound_to 10162
  157.7383  131.0542  150.5301 LP  0  0  0  0  0  0  0  0  0  0  0  0  # atno 17370 bound_to 10713
  156.5436  130.4214  149.6141 LP  0  0  0  0  0  0  0  0  0  0  0  0  # atno 17371 bound_to 10713
  139.8863  135.0080  156.6491 LP  0  0  0  0  0  0  0  0  0  0  0  0  # atno 17394 bound_to 11000
  140.7531  133.8880  155.8362 LP  0  0  0  0  0  0  0  0  0  0  0  0  # atno 17395 bound_to 11000

$$$$
