AV-unprocessed.smi:3181|AV-procd|sdf|12146|dock3
  -GOLD-   2272017583D 1   1.00000     0.00000
 Structure written by MMmdl.
 42 43  0  0  0  0  0  0  0  0  2 V2000
  149.4272  138.4518  158.7048 C   0  0  0  0  0  0  0  0  0  0  0  0
  150.8548  139.0198  158.7552 C   0  0  1  0  0  0  0  0  0  0  0  0
  151.7782  138.3937  157.6878 C   0  0  0  0  0  0  0  0  0  0  0  0
  151.2998  138.6005  156.3335 N   0  0  0  0  0  0  0  0  0  0  0  0
  151.0130  139.7239  155.6733 C   0  0  0  0  0  0  0  0  0  0  0  0
  150.6083  139.5229  154.4272 N   0  0  0  0  0  0  0  0  0  0  0  0
  150.6826  138.1593  154.3792 C   0  0  0  0  0  0  0  0  0  0  0  0
  151.0953  137.5578  155.4951 N   0  0  0  0  0  0  0  0  0  0  0  0
  150.8078  140.4898  158.5841 N   0  3  0  0  0  0  0  0  0  0  0  0
  152.0875  141.1495  158.2287 C   0  0  1  0  0  0  0  0  0  0  0  0
  151.9204  142.6538  157.9375 C   0  0  0  0  0  0  0  0  0  0  0  0
  151.5886  143.4501  159.2085 C   0  0  0  0  0  0  0  0  0  0  0  0
  152.6455  143.2440  160.3121 C   0  0  1  0  0  0  0  0  0  0  0  0
  152.2766  144.0801  161.5504 C   0  0  0  0  0  0  0  0  0  0  0  0
  152.8185  141.7348  160.6284 C   0  0  2  0  0  0  0  0  0  0  0  0
  153.9068  141.4651  161.6829 C   0  0  0  0  0  0  0  0  0  0  0  0
  153.1296  140.9369  159.3419 C   0  0  0  0  0  0  0  0  0  0  0  0
  149.4153  137.3791  158.9000 H   0  0  0  0  0  0  0  0  0  0  0  0
  148.9682  138.6181  157.7299 H   0  0  0  0  0  0  0  0  0  0  0  0
  148.7927  138.9230  159.4561 H   0  0  0  0  0  0  0  0  0  0  0  0
  151.2574  138.7893  159.7427 H   0  0  0  0  0  0  0  0  0  0  0  0
  152.7820  138.8138  157.7648 H   0  0  0  0  0  0  0  0  0  0  0  0
  151.8797  137.3197  157.8461 H   0  0  0  0  0  0  0  0  0  0  0  0
  151.1000  140.7076  156.1118 H   0  0  0  0  0  0  0  0  0  0  0  0
  150.4269  137.5934  153.4953 H   0  0  0  0  0  0  0  0  0  0  0  0
  150.1149  140.7187  157.8859 H   0  0  0  0  0  0  0  0  0  0  0  0
  152.4628  140.6579  157.3298 H   0  0  0  0  0  0  0  0  0  0  0  0
  152.8508  143.0371  157.5164 H   0  0  0  0  0  0  0  0  0  0  0  0
  151.1613  142.8256  157.1748 H   0  0  0  0  0  0  0  0  0  0  0  0
  151.5156  144.5089  158.9573 H   0  0  0  0  0  0  0  0  0  0  0  0
  150.6055  143.1580  159.5801 H   0  0  0  0  0  0  0  0  0  0  0  0
  153.5965  143.6226  159.9340 H   0  0  0  0  0  0  0  0  0  0  0  0
  151.3681  143.7091  162.0251 H   0  0  0  0  0  0  0  0  0  0  0  0
  152.1067  145.1230  161.2807 H   0  0  0  0  0  0  0  0  0  0  0  0
  153.0719  144.0745  162.2954 H   0  0  0  0  0  0  0  0  0  0  0  0
  151.8767  141.3634  161.0350 H   0  0  0  0  0  0  0  0  0  0  0  0
  154.8676  141.8806  161.3771 H   0  0  0  0  0  0  0  0  0  0  0  0
  154.0440  140.3948  161.8384 H   0  0  0  0  0  0  0  0  0  0  0  0
  153.6488  141.8930  162.6512 H   0  0  0  0  0  0  0  0  0  0  0  0
  153.2115  139.8731  159.5701 H   0  0  0  0  0  0  0  0  0  0  0  0
  154.1093  141.2378  158.9673 H   0  0  0  0  0  0  0  0  0  0  0  0
  150.5080  140.8810  159.4657 H   0  0  0  0  0  0  0  0  0  0  0  0
  1  2  1  0  0  0  0
  1 18  1  0  0  0  0
  1 19  1  0  0  0  0
  1 20  1  0  0  0  0
  2  3  1  0  0  0  0
  2  9  1  0  0  0  0
  2 21  1  0  0  0  0
  3  4  1  0  0  0  0
  3 22  1  0  0  0  0
  3 23  1  0  0  0  0
  4  8  1  0  0  0  0
  4  5  1  0  0  0  0
  5  6  2  0  0  0  0
  5 24  1  0  0  0  0
  6  7  1  0  0  0  0
  7  8  2  0  0  0  0
  7 25  1  0  0  0  0
  9 10  1  0  0  0  0
  9 26  1  0  0  0  0
  9 42  1  0  0  0  0
 10 17  1  0  0  0  0
 10 11  1  0  0  0  0
 10 27  1  0  0  0  0
 11 12  1  0  0  0  0
 11 28  1  0  0  0  0
 11 29  1  0  0  0  0
 12 13  1  0  0  0  0
 12 30  1  0  0  0  0
 12 31  1  0  0  0  0
 13 14  1  0  0  0  0
 13 15  1  0  0  0  0
 13 32  1  0  0  0  0
 14 33  1  0  0  0  0
 14 34  1  0  0  0  0
 14 35  1  0  0  0  0
 15 16  1  0  0  0  0
 15 17  1  0  0  0  0
 15 36  1  0  0  0  0
 16 37  1  0  0  0  0
 16 38  1  0  0  0  0
 16 39  1  0  0  0  0
 17 40  1  0  0  0  0
 17 41  1  0  0  0  0
M  CHG  1   9   1
M  END
> <s_m_source_file>
AV-unprocessed.smi

> <i_m_source_file_index>
3181

> <i_lp_mmshare_version>
43012

> <i_f3d_flags>
0

> <s_epik_input>
bjFbY0hdbltjSF1uMVtDSDJdW0NAQEhdKFtDSDNdKVtOSF1bQ0BASF0yW0NIMl1bQ0gyXVtDQEBIXShbQ0gzXSlbQ0BASF0oW0NIM10pW0NIMl0y

> <s_epik_cmdline>
J2VwaWtfcHl0aG9uJywgJy1waCcsICc3LjAnLCAnLXRuJywgJzgnLCAnLW1hJywgJzIwMCcsICctbWV0YWxfYmluZGluZycsICctaW1hZScsICc8aW5maWxlLm1hZT4nLCAnLW9tYWUnLCAnPG91dGZpbGUubWFlPic=

> <r_lp_tautomer_probability>
1

> <r_epik_Ionization_Penalty>
0.000617007

> <r_epik_Ionization_Penalty_Charging>
0.000616215

> <r_epik_Ionization_Penalty_Neutral>
7.92544e-07

> <r_epik_State_Penalty>
0.000388807

> <r_epik_Charging_Adjusted_Penalty>
0.00100502

> <i_epik_Tot_Q>
1

> <i_epik_Tot_abs_Q>
1

> <r_epik_Metal_State_Penalty>
-0

> <b_epik_Metal_Only>
0

> <s_lp_Force_Field>
OPLS_2005

> <r_lp_Energy>
23.4305

> <b_lp_Chiralities_Consistent>
1

> <s_lp_Variant>
AV-unprocessed.smi:3181-12

> <Gold.Version>
5.8.1

> <Gold.Id.Protein>
6NUR|6NUR_protein|mol2

> <Gold.PLP.Fitness>
40.7625

> <Gold.PLP.PLP>
-34.8314

> <Gold.PLP.part.hbond>
-1.0000

> <Gold.PLP.part.metal>
0.0000

> <Gold.PLP.part.buried>
-4.3629

> <Gold.PLP.part.nonpolar>
-28.6567

> <Gold.PLP.part.repulsive>
0.3535

> <Gold.PLP.ligand.clash>
0.0000

> <Gold.PLP.ligand.torsion>
0.1957

> <Gold.PLP.Chemscore.Hbond>
1.0000

> <Gold.PLP.Chemscore.CHOScore>
1.0965

> <Gold.PLP.Chemscore.Metal>
0.0000

> <Gold.Chemscore.Hbonds>
donor molecule, donor type, donor heavy atom, donor atom, acceptor molecule, acceptor atom, score
      P1  H  7989  7998       L1     6  1.00
      L1  C     7    25       P1  7948  0.79
      L1  C     7    25       P1  7949  0.31

> <Gold.PLP.Chemscore.Internal.Correction>
0.0330

> <Gold.Rescore>
     Score         DG    S(hbond)    S(metal)    S(lipo)     H(rot)  DE(clash)    DE(int)     intcor
     14.58     -14.78       0.96        0.00      98.19       2.11       0.04       0.17       ----

> <Gold.Chemscore.Fitness>
14.5760

> <Gold.Chemscore.DG>
-14.7795

> <Gold.Chemscore.ZeroCoef>
-5.4800

> <Gold.Chemscore.Hbond>
0.9617

> <Gold.Chemscore.Metal>
0.0000

> <Gold.Chemscore.Lipo>
98.1851

> <Gold.Chemscore.Internal_Hbond>
0.0000

> <Gold.Chemscore.DEClash>
0.0363

> <Gold.Chemscore.DEInternal>
0.1672

> <Gold.Chemscore.Rot>
2.1095

> <Gold.Chemscore.Internal.Correction>
   9.000000E+99

> <Gold.Chemscore.Hbonds>
donor molecule, donor type, donor heavy atom, donor atom, acceptor molecule, acceptor atom, score
      P1  H  7989  7998       L1     6  0.30

> <Gold.Chemscore.Hbond.Weighted>
-3.2122

> <Gold.Chemscore.Metal.Weighted>
-0.0000

> <Gold.Chemscore.Lipo.Weighted>
-11.4877

> <Gold.Chemscore.Internal_Hbond.Weighted>
0.0000

> <Gold.Chemscore.DEClash.Weighted>
0.0363

> <Gold.Chemscore.DEInternal.Weighted>
0.1672

> <Gold.Chemscore.Rot.Weighted>
5.4003

> <Gold.Chemscore.Internal.Correction.Weighted>
   9.000000E+99

> <Gold.Protein.RotatedTorsions>
[ 6907 6896 6895 6894 ] final   22.78 input  -60.11 | X-H torsion
[ 7974 7965 7964 7962 ] final   18.83 input  175.53 | X-H torsion
[ 8008 7997 7996 7995 ] final   -9.97 input   59.86 | X-H torsion
[ 10167 10162 10161 10158 ] final  132.02 input  -65.29 | X-H torsion
[ 10718 10713 10712 10709 ] final -122.42 input   66.30 | X-H torsion
[ 10763 10752 10751 10750 ] final  130.15 input  -60.55 | X-H torsion
[ 11005 11000 10999 10996 ] final  -44.58 input  -57.11 | X-H torsion

> <Gold.Protein.ActiveResidues>
 VAL166  LYS551  ARG553  GLY616  TRP617  ASP618  TYR619  PRO620  LYS621  CYS622 
 ASP623  PHE694  ASN695  SER759  ASP760  ASP761  ALA762  ILE779  LEU786  VAL792 
 PHE793  MET794  SER795  GLU796  ALA797  LYS798  CYS799  TRP800  GLU811  SER814 

> <Gold.Protein.RotatedAtoms>
  151.9323  135.0251  160.0529 H   0  0  0  0  0  0  0  0  0  0  0  0  # atno 6907 bound_to 6896
  152.2108  133.4905  159.5117 H   0  0  0  0  0  0  0  0  0  0  0  0  # atno 6908 bound_to 6896
  150.6975  134.1387  159.4139 H   0  0  0  0  0  0  0  0  0  0  0  0  # atno 6909 bound_to 6896
  146.2171  139.8400  142.8643 H   0  0  0  0  0  0  0  0  0  0  0  0  # atno 7974 bound_to 7965
  154.5597  140.2341  155.8354 H   0  0  0  0  0  0  0  0  0  0  0  0  # atno 8008 bound_to 7997
  156.2019  140.3050  155.9504 H   0  0  0  0  0  0  0  0  0  0  0  0  # atno 8009 bound_to 7997
  155.2912  140.0427  157.3013 H   0  0  0  0  0  0  0  0  0  0  0  0  # atno 8010 bound_to 7997
  139.5358  144.6681  151.4791 H   0  0  0  0  0  0  0  0  0  0  0  0  # atno 10167 bound_to 10162
  156.1417  130.6471  150.9781 H   0  0  0  0  0  0  0  0  0  0  0  0  # atno 10718 bound_to 10713
  153.7533  135.3206  155.3325 H   0  0  0  0  0  0  0  0  0  0  0  0  # atno 10763 bound_to 10752
  154.8256  135.4572  154.0910 H   0  0  0  0  0  0  0  0  0  0  0  0  # atno 10764 bound_to 10752
  153.2119  135.6937  153.8186 H   0  0  0  0  0  0  0  0  0  0  0  0  # atno 10765 bound_to 10752
  141.0460  133.6761  156.2893 H   0  0  0  0  0  0  0  0  0  0  0  0  # atno 11005 bound_to 11000
  145.2909  141.0167  143.3664 LP  0  0  0  0  0  0  0  0  0  0  0  0  # atno 17320 bound_to 7965
  144.9078  139.4566  143.6601 LP  0  0  0  0  0  0  0  0  0  0  0  0  # atno 17321 bound_to 7965
  140.6563  143.8592  150.6839 LP  0  0  0  0  0  0  0  0  0  0  0  0  # atno 17342 bound_to 10162
  140.1972  143.3988  152.1819 LP  0  0  0  0  0  0  0  0  0  0  0  0  # atno 17343 bound_to 10162
  157.6581  131.0886  150.7900 LP  0  0  0  0  0  0  0  0  0  0  0  0  # atno 17370 bound_to 10713
  156.7975  130.4910  149.5375 LP  0  0  0  0  0  0  0  0  0  0  0  0  # atno 17371 bound_to 10713
  140.6146  134.5423  157.5539 LP  0  0  0  0  0  0  0  0  0  0  0  0  # atno 17394 bound_to 11000
  139.9312  134.7960  156.0926 LP  0  0  0  0  0  0  0  0  0  0  0  0  # atno 17395 bound_to 11000

$$$$
