AV-unprocessed.smi:3220|AV-procd|sdf|12298|dock9
  -GOLD-   2272018143D 1   1.00000     0.00000
 Structure written by MMmdl.
 33 34  0  0  0  0  0  0  0  0  1 V2000
  151.5074  138.8305  158.9843 C   0  0  0  0  0  0  0  0  0  0  0  0
  151.2079  140.3188  158.7597 C   0  0  1  0  0  0  0  0  0  0  0  0
  152.4387  141.1929  159.0851 C   0  0  0  0  0  0  0  0  0  0  0  0
  152.2181  142.6023  158.8130 N   0  0  0  0  0  0  0  0  0  0  0  0
  153.0271  143.6739  159.1284 C   0  0  0  0  0  0  0  0  0  0  0  0
  152.4118  144.7990  158.6595 C   0  0  0  0  0  0  0  0  0  0  0  0
  151.2141  144.3075  158.0687 C   0  0  0  0  0  0  0  0  0  0  0  0
  151.0988  142.9930  158.1661 N   0  0  0  0  0  0  0  0  0  0  0  0
  150.7841  140.5111  157.3731 N   0  0  0  0  0  0  0  0  0  0  0  0
  151.4739  140.1430  156.2816 C   0  0  0  0  0  0  0  0  0  0  0  0
  152.5827  139.6090  156.3300 O   0  0  0  0  0  0  0  0  0  0  0  0
  150.7983  140.4178  154.9297 C   0  0  2  0  0  0  0  0  0  0  0  0
  149.4401  141.1361  155.0582 C   0  0  0  0  0  0  0  0  0  0  0  0
  148.4498  140.1876  154.4043 C   0  0  0  0  0  0  0  0  0  0  0  0
  149.1494  138.8402  154.5076 C   0  0  0  0  0  0  0  0  0  0  0  0
  150.5126  139.1740  154.2912 O   0  0  0  0  0  0  0  0  0  0  0  0
  151.8047  138.6421  160.0163 H   0  0  0  0  0  0  0  0  0  0  0  0
  152.3147  138.4842  158.3377 H   0  0  0  0  0  0  0  0  0  0  0  0
  150.6289  138.2178  158.7795 H   0  0  0  0  0  0  0  0  0  0  0  0
  150.3947  140.5875  159.4366 H   0  0  0  0  0  0  0  0  0  0  0  0
  152.7017  141.0923  160.1393 H   0  0  0  0  0  0  0  0  0  0  0  0
  153.3078  140.8581  158.5166 H   0  0  0  0  0  0  0  0  0  0  0  0
  153.9659  143.5470  159.6473 H   0  0  0  0  0  0  0  0  0  0  0  0
  152.7638  145.8176  158.7266 H   0  0  0  0  0  0  0  0  0  0  0  0
  150.4297  144.8633  157.5764 H   0  0  0  0  0  0  0  0  0  0  0  0
  149.8861  140.9506  157.2320 H   0  0  0  0  0  0  0  0  0  0  0  0
  151.4709  140.9866  154.2856 H   0  0  0  0  0  0  0  0  0  0  0  0
  149.1630  141.3102  156.0994 H   0  0  0  0  0  0  0  0  0  0  0  0
  149.4457  142.1067  154.5614 H   0  0  0  0  0  0  0  0  0  0  0  0
  147.4698  140.1960  154.8818 H   0  0  0  0  0  0  0  0  0  0  0  0
  148.3193  140.4541  153.3546 H   0  0  0  0  0  0  0  0  0  0  0  0
  149.0236  138.4085  155.5017 H   0  0  0  0  0  0  0  0  0  0  0  0
  148.7894  138.1203  153.7723 H   0  0  0  0  0  0  0  0  0  0  0  0
  1  2  1  0  0  0  0
  1 17  1  0  0  0  0
  1 18  1  0  0  0  0
  1 19  1  0  0  0  0
  2  3  1  0  0  0  0
  2  9  1  0  0  0  0
  2 20  1  0  0  0  0
  3  4  1  0  0  0  0
  3 21  1  0  0  0  0
  3 22  1  0  0  0  0
  4  8  1  0  0  0  0
  4  5  1  0  0  0  0
  5  6  2  0  0  0  0
  5 23  1  0  0  0  0
  6  7  1  0  0  0  0
  6 24  1  0  0  0  0
  7  8  2  0  0  0  0
  7 25  1  0  0  0  0
  9 10  1  0  0  0  0
  9 26  1  0  0  0  0
 10 11  2  0  0  0  0
 10 12  1  0  0  0  0
 12 16  1  0  0  0  0
 12 13  1  0  0  0  0
 12 27  1  0  0  0  0
 13 14  1  0  0  0  0
 13 28  1  0  0  0  0
 13 29  1  0  0  0  0
 14 15  1  0  0  0  0
 14 30  1  0  0  0  0
 14 31  1  0  0  0  0
 15 16  1  0  0  0  0
 15 32  1  0  0  0  0
 15 33  1  0  0  0  0
M  END
> <s_m_source_file>
AV-unprocessed.smi

> <i_m_source_file_index>
3220

> <i_lp_mmshare_version>
43012

> <i_f3d_flags>
0

> <s_epik_input>
bjFbY0hdW2NIXVtjSF1uMVtDSDJdW0NAQEhdKFtDSDNdKVtOSF1DKD1PKVtDQEBIXTJbQ0gyXVtDSDJdW0NIMl1PMg==

> <s_epik_cmdline>
J2VwaWtfcHl0aG9uJywgJy1waCcsICc3LjAnLCAnLXRuJywgJzgnLCAnLW1hJywgJzIwMCcsICctbWV0YWxfYmluZGluZycsICctaW1hZScsICc8aW5maWxlLm1hZT4nLCAnLW9tYWUnLCAnPG91dGZpbGUubWFlPic=

> <r_lp_tautomer_probability>
1

> <r_epik_Ionization_Penalty>
0.00033363

> <r_epik_Ionization_Penalty_Charging>
0

> <r_epik_Ionization_Penalty_Neutral>
0.00033363

> <r_epik_State_Penalty>
-0

> <r_epik_Charging_Adjusted_Penalty>
0

> <i_epik_Tot_Q>
0

> <i_epik_Tot_abs_Q>
0

> <r_epik_Metal_State_Penalty>
-0

> <b_epik_Metal_Only>
0

> <s_lp_Force_Field>
OPLS_2005

> <r_lp_Energy>
18.0853

> <b_lp_Chiralities_Consistent>
1

> <s_lp_Variant>
AV-unprocessed.smi:3220-2

> <Gold.Version>
5.8.1

> <Gold.Id.Protein>
6NUR|6NUR_protein|mol2

> <Gold.PLP.Fitness>
38.2301

> <Gold.PLP.PLP>
-32.4912

> <Gold.PLP.part.hbond>
-1.8809

> <Gold.PLP.part.metal>
0.0000

> <Gold.PLP.part.buried>
-0.8464

> <Gold.PLP.part.nonpolar>
-30.6450

> <Gold.PLP.part.repulsive>
0.3131

> <Gold.PLP.ligand.clash>
0.0453

> <Gold.PLP.ligand.torsion>
0.1454

> <Gold.PLP.Chemscore.Hbond>
1.0000

> <Gold.PLP.Chemscore.CHOScore>
1.0185

> <Gold.PLP.Chemscore.Metal>
0.0000

> <Gold.Chemscore.Hbonds>
donor molecule, donor type, donor heavy atom, donor atom, acceptor molecule, acceptor atom, score
      P1  H  7997  8008       L1    11  1.00
      L1  C     7    25       P1  8028  0.91
      L1  C     7    25       P1  8029  0.07

> <Gold.PLP.Chemscore.Internal.Correction>
0.0194

> <Gold.Rescore>
     Score         DG    S(hbond)    S(metal)    S(lipo)     H(rot)  DE(clash)    DE(int)     intcor
     12.61     -15.06       1.00        0.00      88.81       1.62       1.61       0.84       ----

> <Gold.Chemscore.Fitness>
12.6089

> <Gold.Chemscore.DG>
-15.0585

> <Gold.Chemscore.ZeroCoef>
-5.4800

> <Gold.Chemscore.Hbond>
1.0000

> <Gold.Chemscore.Metal>
0.0000

> <Gold.Chemscore.Lipo>
88.8076

> <Gold.Chemscore.Internal_Hbond>
0.0000

> <Gold.Chemscore.DEClash>
1.6102

> <Gold.Chemscore.DEInternal>
0.8395

> <Gold.Chemscore.Rot>
1.6219

> <Gold.Chemscore.Internal.Correction>
   9.000000E+99

> <Gold.Chemscore.Hbonds>
donor molecule, donor type, donor heavy atom, donor atom, acceptor molecule, acceptor atom, score
      P1  H  7997  8008       L1    11  1.00

> <Gold.Chemscore.Hbond.Weighted>
-3.3400

> <Gold.Chemscore.Metal.Weighted>
-0.0000

> <Gold.Chemscore.Lipo.Weighted>
-10.3905

> <Gold.Chemscore.Internal_Hbond.Weighted>
0.0000

> <Gold.Chemscore.DEClash.Weighted>
1.6102

> <Gold.Chemscore.DEInternal.Weighted>
0.8395

> <Gold.Chemscore.Rot.Weighted>
4.1520

> <Gold.Chemscore.Internal.Correction.Weighted>
   9.000000E+99

> <Gold.Protein.RotatedTorsions>
[ 6907 6896 6895 6894 ] final  129.61 input  -60.11 | X-H torsion
[ 7974 7965 7964 7962 ] final   73.20 input  175.53 | X-H torsion
[ 8008 7997 7996 7995 ] final  -36.81 input   59.86 | X-H torsion
[ 10167 10162 10161 10158 ] final  100.87 input  -65.29 | X-H torsion
[ 10718 10713 10712 10709 ] final  -11.81 input   66.30 | X-H torsion
[ 10763 10752 10751 10750 ] final -175.61 input  -60.55 | X-H torsion
[ 11005 11000 10999 10996 ] final -143.75 input  -57.11 | X-H torsion

> <Gold.Protein.ActiveResidues>
 VAL166  LYS551  ARG553  GLY616  TRP617  ASP618  TYR619  PRO620  LYS621  CYS622 
 ASP623  PHE694  ASN695  SER759  ASP760  ASP761  ALA762  ILE779  LEU786  VAL792 
 PHE793  MET794  SER795  GLU796  ALA797  LYS798  CYS799  TRP800  GLU811  SER814 

> <Gold.Protein.RotatedAtoms>
  152.3607  133.6294  159.6012 H   0  0  0  0  0  0  0  0  0  0  0  0  # atno 6907 bound_to 6896
  150.7599  133.9427  159.3470 H   0  0  0  0  0  0  0  0  0  0  0  0  # atno 6908 bound_to 6896
  151.7266  135.0884  160.0344 H   0  0  0  0  0  0  0  0  0  0  0  0  # atno 6909 bound_to 6896
  145.7439  139.2732  143.1470 H   0  0  0  0  0  0  0  0  0  0  0  0  # atno 7974 bound_to 7965
  154.4065  140.1621  156.2434 H   0  0  0  0  0  0  0  0  0  0  0  0  # atno 8008 bound_to 7997
  155.9181  140.3423  155.6129 H   0  0  0  0  0  0  0  0  0  0  0  0  # atno 8009 bound_to 7997
  155.7255  140.0773  157.2303 H   0  0  0  0  0  0  0  0  0  0  0  0  # atno 8010 bound_to 7997
  139.7489  144.6990  151.0463 H   0  0  0  0  0  0  0  0  0  0  0  0  # atno 10167 bound_to 10162
  156.6536  130.4962  149.6054 H   0  0  0  0  0  0  0  0  0  0  0  0  # atno 10718 bound_to 10713
  154.5823  135.2837  155.0720 H   0  0  0  0  0  0  0  0  0  0  0  0  # atno 10763 bound_to 10752
  154.2051  135.6417  153.5102 H   0  0  0  0  0  0  0  0  0  0  0  0  # atno 10764 bound_to 10752
  153.0092  135.5478  154.6481 H   0  0  0  0  0  0  0  0  0  0  0  0  # atno 10765 bound_to 10752
  140.8094  134.2763  157.4947 H   0  0  0  0  0  0  0  0  0  0  0  0  # atno 11005 bound_to 11000
  146.0422  140.8154  142.9823 LP  0  0  0  0  0  0  0  0  0  0  0  0  # atno 17320 bound_to 7965
  144.6864  140.2927  143.7275 LP  0  0  0  0  0  0  0  0  0  0  0  0  # atno 17321 bound_to 7965
  140.7795  143.4833  150.9989 LP  0  0  0  0  0  0  0  0  0  0  0  0  # atno 17342 bound_to 10162
  139.8521  143.7424  152.3177 LP  0  0  0  0  0  0  0  0  0  0  0  0  # atno 17343 bound_to 10162
  156.2065  130.6652  151.1224 LP  0  0  0  0  0  0  0  0  0  0  0  0  # atno 17370 bound_to 10713
  157.7133  131.0723  150.6422 LP  0  0  0  0  0  0  0  0  0  0  0  0  # atno 17371 bound_to 10713
  139.8715  134.9474  156.3967 LP  0  0  0  0  0  0  0  0  0  0  0  0  # atno 17394 bound_to 11000
  140.9214  133.7642  155.9911 LP  0  0  0  0  0  0  0  0  0  0  0  0  # atno 17395 bound_to 11000

$$$$
