AV-unprocessed.smi:3010|AV-procd|sdf|11455|dock5
  -GOLD-   2272016383D 1   1.00000     0.00000
 Structure written by MMmdl.
 38 40  0  0  0  0  0  0  0  0  1 V2000
  151.9584  144.0822  161.0659 C   0  0  0  0  0  0  0  0  0  0  0  0
  152.3634  142.8349  160.3906 N   0  0  0  0  0  0  0  0  0  0  0  0
  151.8038  142.5462  159.1735 C   0  0  0  0  0  0  0  0  0  0  0  0
  150.9811  143.2521  158.5883 O   0  0  0  0  0  0  0  0  0  0  0  0
  152.2698  141.2844  158.5925 C   0  0  0  0  0  0  0  0  0  0  0  0
  153.1729  140.4795  159.2016 C   0  0  0  0  0  0  0  0  0  0  0  0
  153.4393  139.3481  158.4387 N   0  0  0  0  0  0  0  0  0  0  0  0
  152.6544  139.5386  157.3769 C   0  0  0  0  0  0  0  0  0  0  0  0
  151.9213  140.6708  157.3913 N   0  0  0  0  0  0  0  0  0  0  0  0
  150.9912  141.1129  156.3639 C   0  0  0  0  0  0  0  0  0  0  0  0
  150.4572  139.9511  155.5027 C   0  0  2  0  0  0  0  0  0  0  0  0
  151.4613  139.5133  154.6068 O   0  0  0  0  0  0  0  0  0  0  0  0
  149.1749  140.3434  154.7859 C   0  0  0  0  0  0  0  0  0  0  0  0
  148.4384  139.3689  154.0786 C   0  0  0  0  0  0  0  0  0  0  0  0
  147.2445  139.7211  153.4194 C   0  0  0  0  0  0  0  0  0  0  0  0
  146.7786  141.0492  153.4663 C   0  0  0  0  0  0  0  0  0  0  0  0
  147.5062  142.0248  154.1743 C   0  0  0  0  0  0  0  0  0  0  0  0
  148.7002  141.6731  154.8335 C   0  0  0  0  0  0  0  0  0  0  0  0
  153.6926  140.8722  160.4599 N   0  0  0  0  0  0  0  0  0  0  0  0
  154.6679  139.9769  161.0889 C   0  0  0  0  0  0  0  0  0  0  0  0
  153.2872  142.0436  161.0536 C   0  0  0  0  0  0  0  0  0  0  0  0
  153.7364  142.3809  162.1523 O   0  0  0  0  0  0  0  0  0  0  0  0
  151.2507  144.6972  160.5091 H   0  0  0  0  0  0  0  0  0  0  0  0
  152.8286  144.7121  161.2580 H   0  0  0  0  0  0  0  0  0  0  0  0
  151.4889  143.8580  162.0251 H   0  0  0  0  0  0  0  0  0  0  0  0
  152.6076  138.8296  156.5633 H   0  0  0  0  0  0  0  0  0  0  0  0
  150.1691  141.6420  156.8465 H   0  0  0  0  0  0  0  0  0  0  0  0
  151.4958  141.8470  155.7339 H   0  0  0  0  0  0  0  0  0  0  0  0
  150.2354  139.1021  156.1501 H   0  0  0  0  0  0  0  0  0  0  0  0
  152.1553  139.1130  155.1084 H   0  0  0  0  0  0  0  0  0  0  0  0
  148.7857  138.3465  154.0408 H   0  0  0  0  0  0  0  0  0  0  0  0
  146.6853  138.9719  152.8785 H   0  0  0  0  0  0  0  0  0  0  0  0
  145.8626  141.3189  152.9614 H   0  0  0  0  0  0  0  0  0  0  0  0
  147.1482  143.0431  154.2132 H   0  0  0  0  0  0  0  0  0  0  0  0
  149.2488  142.4277  155.3781 H   0  0  0  0  0  0  0  0  0  0  0  0
  155.0355  140.3184  162.0568 H   0  0  0  0  0  0  0  0  0  0  0  0
  155.5343  139.8559  160.4378 H   0  0  0  0  0  0  0  0  0  0  0  0
  154.2244  138.9922  161.2402 H   0  0  0  0  0  0  0  0  0  0  0  0
  1  2  1  0  0  0  0
  1 23  1  0  0  0  0
  1 24  1  0  0  0  0
  1 25  1  0  0  0  0
  2 21  1  0  0  0  0
  2  3  1  0  0  0  0
  3  4  2  0  0  0  0
  3  5  1  0  0  0  0
  5  9  1  0  0  0  0
  5  6  2  0  0  0  0
  6  7  1  0  0  0  0
  6 19  1  0  0  0  0
  7  8  2  0  0  0  0
  8  9  1  0  0  0  0
  8 26  1  0  0  0  0
  9 10  1  0  0  0  0
 10 11  1  0  0  0  0
 10 27  1  0  0  0  0
 10 28  1  0  0  0  0
 11 12  1  0  0  0  0
 11 13  1  0  0  0  0
 11 29  1  0  0  0  0
 12 30  1  0  0  0  0
 13 18  1  0  0  0  0
 13 14  2  0  0  0  0
 14 15  1  0  0  0  0
 14 31  1  0  0  0  0
 15 16  2  0  0  0  0
 15 32  1  0  0  0  0
 16 17  1  0  0  0  0
 16 33  1  0  0  0  0
 17 18  2  0  0  0  0
 17 34  1  0  0  0  0
 18 35  1  0  0  0  0
 19 20  1  0  0  0  0
 19 21  1  0  0  0  0
 20 36  1  0  0  0  0
 20 37  1  0  0  0  0
 20 38  1  0  0  0  0
 21 22  2  0  0  0  0
M  END
> <s_m_source_file>
AV-unprocessed.smi

> <i_m_source_file_index>
3010

> <i_lp_mmshare_version>
43012

> <i_f3d_flags>
0

> <s_epik_input>
Tz1jMW4oW0NIM10pYyg9TyluKFtDSDNdKWMoYzEyKW5bY0hdbjJbQ0gyXVtDQEhdKFtPSF0pYzNbY0hdW2NIXVtjSF1bY0hdW2NIXTM=

> <s_epik_cmdline>
J2VwaWtfcHl0aG9uJywgJy1waCcsICc3LjAnLCAnLXRuJywgJzgnLCAnLW1hJywgJzIwMCcsICctbWV0YWxfYmluZGluZycsICctaW1hZScsICc8aW5maWxlLm1hZT4nLCAnLW9tYWUnLCAnPG91dGZpbGUubWFlPic=

> <r_lp_tautomer_probability>
1

> <r_epik_Ionization_Penalty>
1.43747e-06

> <r_epik_Ionization_Penalty_Charging>
3.74189e-09

> <r_epik_Ionization_Penalty_Neutral>
1.43373e-06

> <r_epik_State_Penalty>
-0

> <r_epik_Charging_Adjusted_Penalty>
3.74189e-09

> <i_epik_Tot_Q>
0

> <i_epik_Tot_abs_Q>
0

> <r_epik_Metal_State_Penalty>
-0

> <b_epik_Metal_Only>
0

> <s_lp_Force_Field>
OPLS_2005

> <r_lp_Energy>
35.6617

> <b_lp_Chiralities_Consistent>
1

> <s_lp_Variant>
AV-unprocessed.smi:3010-1

> <Gold.Version>
5.8.1

> <Gold.Id.Protein>
6NUR|6NUR_protein|mol2

> <Gold.PLP.Fitness>
48.6682

> <Gold.PLP.PLP>
-45.7697

> <Gold.PLP.part.hbond>
-2.5255

> <Gold.PLP.part.metal>
0.0000

> <Gold.PLP.part.buried>
-0.6207

> <Gold.PLP.part.nonpolar>
-42.5844

> <Gold.PLP.part.repulsive>
0.1289

> <Gold.PLP.ligand.clash>
0.0000

> <Gold.PLP.ligand.torsion>
0.5391

> <Gold.PLP.Chemscore.Hbond>
1.3167

> <Gold.PLP.Chemscore.CHOScore>
0.0000

> <Gold.PLP.Chemscore.Metal>
0.0000

> <Gold.Chemscore.Hbonds>
donor molecule, donor type, donor heavy atom, donor atom, acceptor molecule, acceptor atom, score
      P1  H  7989  7998       L1    12  1.00
      P1  H  7997  8010       L1     7  0.33

> <Gold.PLP.Chemscore.Internal.Correction>
0.0266

> <Gold.Rescore>
     Score         DG    S(hbond)    S(metal)    S(lipo)     H(rot)  DE(clash)    DE(int)     intcor
     10.77     -11.86       0.90        0.00      75.89       2.15       0.39       0.71       ----

> <Gold.Chemscore.Fitness>
10.7677

> <Gold.Chemscore.DG>
-11.8621

> <Gold.Chemscore.ZeroCoef>
-5.4800

> <Gold.Chemscore.Hbond>
0.8984

> <Gold.Chemscore.Metal>
0.0000

> <Gold.Chemscore.Lipo>
75.8867

> <Gold.Chemscore.Internal_Hbond>
0.0000

> <Gold.Chemscore.DEClash>
0.3862

> <Gold.Chemscore.DEInternal>
0.7082

> <Gold.Chemscore.Rot>
2.1474

> <Gold.Chemscore.Internal.Correction>
   9.000000E+99

> <Gold.Chemscore.Hbonds>
donor molecule, donor type, donor heavy atom, donor atom, acceptor molecule, acceptor atom, score
      P1  H  7989  7998       L1    12  0.45

> <Gold.Chemscore.Hbond.Weighted>
-3.0007

> <Gold.Chemscore.Metal.Weighted>
-0.0000

> <Gold.Chemscore.Lipo.Weighted>
-8.8787

> <Gold.Chemscore.Internal_Hbond.Weighted>
0.0000

> <Gold.Chemscore.DEClash.Weighted>
0.3862

> <Gold.Chemscore.DEInternal.Weighted>
0.7082

> <Gold.Chemscore.Rot.Weighted>
5.4974

> <Gold.Chemscore.Internal.Correction.Weighted>
   9.000000E+99

> <Gold.Protein.RotatedTorsions>
[ 6907 6896 6895 6894 ] final  126.31 input  -60.11 | X-H torsion
[ 7974 7965 7964 7962 ] final -152.28 input  175.53 | X-H torsion
[ 8008 7997 7996 7995 ] final    5.74 input   59.86 | X-H torsion
[ 10167 10162 10161 10158 ] final   26.30 input  -65.29 | X-H torsion
[ 10718 10713 10712 10709 ] final -107.92 input   66.30 | X-H torsion
[ 10763 10752 10751 10750 ] final    3.26 input  -60.55 | X-H torsion
[ 11005 11000 10999 10996 ] final  -72.77 input  -57.11 | X-H torsion

> <Gold.Protein.ActiveResidues>
 VAL166  LYS551  ARG553  GLY616  TRP617  ASP618  TYR619  PRO620  LYS621  CYS622 
 ASP623  PHE694  ASN695  SER759  ASP760  ASP761  ALA762  ILE779  LEU786  VAL792 
 PHE793  MET794  SER795  GLU796  ALA797  LYS798  CYS799  TRP800  GLU811  SER814 

> <Gold.Protein.RotatedAtoms>
  152.3914  133.6685  159.6240 H   0  0  0  0  0  0  0  0  0  0  0  0  # atno 6907 bound_to 6896
  150.7822  133.8947  159.3332 H   0  0  0  0  0  0  0  0  0  0  0  0  # atno 6908 bound_to 6896
  151.6733  135.0974  160.0253 H   0  0  0  0  0  0  0  0  0  0  0  0  # atno 6909 bound_to 6896
  144.7803  140.4683  143.5844 H   0  0  0  0  0  0  0  0  0  0  0  0  # atno 7974 bound_to 7965
  154.7322  140.2732  155.6446 H   0  0  0  0  0  0  0  0  0  0  0  0  # atno 8008 bound_to 7997
  156.2852  140.2713  156.1950 H   0  0  0  0  0  0  0  0  0  0  0  0  # atno 8009 bound_to 7997
  155.0367  140.0371  157.2484 H   0  0  0  0  0  0  0  0  0  0  0  0  # atno 8010 bound_to 7997
  140.5034  144.0278  150.6342 H   0  0  0  0  0  0  0  0  0  0  0  0  # atno 10167 bound_to 10162
  156.0460  130.5686  150.7888 H   0  0  0  0  0  0  0  0  0  0  0  0  # atno 10718 bound_to 10713
  153.2854  135.6944  153.7344 H   0  0  0  0  0  0  0  0  0  0  0  0  # atno 10763 bound_to 10752
  153.6315  135.3409  155.3044 H   0  0  0  0  0  0  0  0  0  0  0  0  # atno 10764 bound_to 10752
  154.8508  135.4410  154.1921 H   0  0  0  0  0  0  0  0  0  0  0  0  # atno 10765 bound_to 10752
  141.1613  133.6857  156.7110 H   0  0  0  0  0  0  0  0  0  0  0  0  # atno 11005 bound_to 11000
  145.6070  139.1509  143.3097 LP  0  0  0  0  0  0  0  0  0  0  0  0  # atno 17320 bound_to 7965
  146.2007  140.6188  142.9104 LP  0  0  0  0  0  0  0  0  0  0  0  0  # atno 17321 bound_to 7965
  140.3580  143.2924  152.0415 LP  0  0  0  0  0  0  0  0  0  0  0  0  # atno 17342 bound_to 10162
  139.4877  144.6324  151.7043 LP  0  0  0  0  0  0  0  0  0  0  0  0  # atno 17343 bound_to 10162
  157.5335  131.0937  150.9924 LP  0  0  0  0  0  0  0  0  0  0  0  0  # atno 17370 bound_to 10713
  157.0224  130.5679  149.5333 LP  0  0  0  0  0  0  0  0  0  0  0  0  # atno 17371 bound_to 10713
  140.2887  134.8258  157.3998 LP  0  0  0  0  0  0  0  0  0  0  0  0  # atno 17394 bound_to 11000
  140.1366  134.5026  155.8063 LP  0  0  0  0  0  0  0  0  0  0  0  0  # atno 17395 bound_to 11000

$$$$
