AV-unprocessed.smi:445|AV-procd|sdf|2590|dock9
  -GOLD-   2262022583D 1   1.00000     0.00000
 Structure written by MMmdl.
 44 45  0  0  0  0  0  0  0  0  3 V2000
  151.8008  145.0452  159.5910 C   0  0  0  0  0  0  0  0  0  0  0  0
  152.6313  143.9934  160.3461 C   0  0  1  0  0  0  0  0  0  0  0  0
  151.9517  143.5766  161.6676 C   0  0  0  0  0  0  0  0  0  0  0  0
  152.8042  142.5643  162.4493 C   0  0  0  0  0  0  0  0  0  0  0  0
  153.1378  141.3340  161.5930 C   0  0  0  0  0  0  0  0  0  0  0  0
  153.8223  141.7441  160.2782 C   0  0  0  0  0  0  0  0  0  0  0  0
  152.9774  142.7590  159.4758 C   0  0  1  0  0  0  0  0  0  0  0  0
  151.7658  142.1335  158.9438 N   0  0  0  0  0  0  0  0  0  0  0  0
  151.0590  142.5677  157.8895 C   0  0  0  0  0  0  0  0  0  0  0  0
  151.3539  143.5783  157.2502 O   0  0  0  0  0  0  0  0  0  0  0  0
  149.8314  141.7256  157.5147 C   0  0  0  0  0  0  0  0  0  0  0  0
  150.1661  140.3252  157.1980 N   0  0  0  0  0  0  0  0  0  0  0  0
  150.2995  139.4598  158.2982 C   0  0  0  0  0  0  0  0  0  0  0  0
  150.6114  138.1601  158.1557 C   0  0  0  0  0  0  0  0  0  0  0  0
  150.7509  137.2927  159.3058 N   0  3  0  0  0  0  0  0  0  0  0  0
  149.7898  136.6133  159.6518 O   0  0  0  0  0  0  0  0  0  0  0  0
  151.8236  137.2612  159.9016 O   0  5  0  0  0  0  0  0  0  0  0  0
  150.8092  137.6554  156.8131 C   0  0  0  0  0  0  0  0  0  0  0  0
  150.6930  138.4733  155.7357 C   0  0  0  0  0  0  0  0  0  0  0  0
  150.8880  137.9995  154.3468 C   0  0  0  0  0  0  0  0  0  0  0  0
  151.1234  136.6856  154.2402 N   0  0  0  0  0  0  0  0  0  0  0  0
  150.8548  138.6798  153.3216 O   0  0  0  0  0  0  0  0  0  0  0  0
  150.3554  139.9135  155.9050 C   0  0  0  0  0  0  0  0  0  0  0  0
  150.2440  140.7235  154.9810 O   0  0  0  0  0  0  0  0  0  0  0  0
  150.8112  144.6698  159.3298 H   0  0  0  0  0  0  0  0  0  0  0  0
  152.2975  145.3476  158.6687 H   0  0  0  0  0  0  0  0  0  0  0  0
  151.6620  145.9401  160.1978 H   0  0  0  0  0  0  0  0  0  0  0  0
  153.5758  144.4727  160.6089 H   0  0  0  0  0  0  0  0  0  0  0  0
  151.7754  144.4557  162.2883 H   0  0  0  0  0  0  0  0  0  0  0  0
  150.9708  143.1456  161.4631 H   0  0  0  0  0  0  0  0  0  0  0  0
  153.7287  143.0420  162.7759 H   0  0  0  0  0  0  0  0  0  0  0  0
  152.2795  142.2561  163.3542 H   0  0  0  0  0  0  0  0  0  0  0  0
  153.7844  140.6572  162.1519 H   0  0  0  0  0  0  0  0  0  0  0  0
  152.2247  140.7779  161.3768 H   0  0  0  0  0  0  0  0  0  0  0  0
  154.7916  142.1893  160.5066 H   0  0  0  0  0  0  0  0  0  0  0  0
  154.0361  140.8589  159.6784 H   0  0  0  0  0  0  0  0  0  0  0  0
  153.5733  143.1044  158.6289 H   0  0  0  0  0  0  0  0  0  0  0  0
  151.4479  141.2974  159.4122 H   0  0  0  0  0  0  0  0  0  0  0  0
  149.1156  141.7543  158.3384 H   0  0  0  0  0  0  0  0  0  0  0  0
  149.3172  142.2114  156.6840 H   0  0  0  0  0  0  0  0  0  0  0  0
  150.1409  139.9305  159.2581 H   0  0  0  0  0  0  0  0  0  0  0  0
  151.0512  136.6097  156.6967 H   0  0  0  0  0  0  0  0  0  0  0  0
  151.2675  136.2683  153.3325 H   0  0  0  0  0  0  0  0  0  0  0  0
  151.1540  136.1148  155.0727 H   0  0  0  0  0  0  0  0  0  0  0  0
  1  2  1  0  0  0  0
  1 25  1  0  0  0  0
  1 26  1  0  0  0  0
  1 27  1  0  0  0  0
  2  7  1  0  0  0  0
  2  3  1  0  0  0  0
  2 28  1  0  0  0  0
  3  4  1  0  0  0  0
  3 29  1  0  0  0  0
  3 30  1  0  0  0  0
  4  5  1  0  0  0  0
  4 31  1  0  0  0  0
  4 32  1  0  0  0  0
  5  6  1  0  0  0  0
  5 33  1  0  0  0  0
  5 34  1  0  0  0  0
  6  7  1  0  0  0  0
  6 35  1  0  0  0  0
  6 36  1  0  0  0  0
  7  8  1  0  0  0  0
  7 37  1  0  0  0  0
  8  9  1  0  0  0  0
  8 38  1  0  0  0  0
  9 10  2  0  0  0  0
  9 11  1  0  0  0  0
 11 12  1  0  0  0  0
 11 39  1  0  0  0  0
 11 40  1  0  0  0  0
 12 23  1  0  0  0  0
 12 13  1  0  0  0  0
 13 14  2  0  0  0  0
 13 41  1  0  0  0  0
 14 15  1  0  0  0  0
 14 18  1  0  0  0  0
 15 16  2  0  0  0  0
 15 17  1  0  0  0  0
 18 19  2  0  0  0  0
 18 42  1  0  0  0  0
 19 20  1  0  0  0  0
 19 23  1  0  0  0  0
 20 21  1  0  0  0  0
 20 22  2  0  0  0  0
 21 43  1  0  0  0  0
 21 44  1  0  0  0  0
 23 24  2  0  0  0  0
M  CHG  1  15   1
M  CHG  1  17  -1
M  END
> <s_m_source_file>
AV-unprocessed.smi

> <i_m_source_file_index>
445

> <i_lp_mmshare_version>
43012

> <i_f3d_flags>
0

> <s_epik_input>
W0NIM11bQ0BASF0xW0NIMl1bQ0gyXVtDSDJdW0NIMl1bQ0BIXTFbTkhdQyg9TylbQ0gyXW4yW2NIXWMoW04rXSg9TylbTy1dKVtjSF1jKGMyPU8pQyg9TylbTkgyXQ==

> <s_epik_cmdline>
J2VwaWtfcHl0aG9uJywgJy1waCcsICc3LjAnLCAnLXRuJywgJzgnLCAnLW1hJywgJzIwMCcsICctbWV0YWxfYmluZGluZycsICctaW1hZScsICc8aW5maWxlLm1hZT4nLCAnLW9tYWUnLCAnPG91dGZpbGUubWFlPic=

> <r_lp_tautomer_probability>
1

> <r_epik_Ionization_Penalty>
2.81321e-06

> <r_epik_Ionization_Penalty_Charging>
2.43777e-12

> <r_epik_Ionization_Penalty_Neutral>
2.81321e-06

> <r_epik_State_Penalty>
-0

> <r_epik_Charging_Adjusted_Penalty>
2.43777e-12

> <i_epik_Tot_Q>
0

> <i_epik_Tot_abs_Q>
2

> <r_epik_Metal_State_Penalty>
-0

> <b_epik_Metal_Only>
0

> <s_lp_Force_Field>
OPLS_2005

> <r_lp_Energy>
28.4442

> <b_lp_Chiralities_Consistent>
1

> <s_lp_Variant>
AV-unprocessed.smi:445-2

> <Gold.Version>
5.8.1

> <Gold.Id.Protein>
6NUR|6NUR_protein|mol2

> <Gold.PLP.Fitness>
43.9359

> <Gold.PLP.PLP>
-39.6698

> <Gold.PLP.part.hbond>
-3.8207

> <Gold.PLP.part.metal>
0.0000

> <Gold.PLP.part.buried>
-4.6880

> <Gold.PLP.part.nonpolar>
-33.8696

> <Gold.PLP.part.repulsive>
3.4741

> <Gold.PLP.ligand.clash>
0.0000

> <Gold.PLP.ligand.torsion>
2.1206

> <Gold.PLP.Chemscore.Hbond>
2.8268

> <Gold.PLP.Chemscore.CHOScore>
0.0000

> <Gold.PLP.Chemscore.Metal>
0.0000

> <Gold.Chemscore.Hbonds>
donor molecule, donor type, donor heavy atom, donor atom, acceptor molecule, acceptor atom, score
      L1  H    21    43       P1  7949  1.00
      P1  H  6896  6907       L1    16  0.65
      P1  H  7989  7998       L1    24  0.85

> <Gold.PLP.Chemscore.Internal.Correction>
0.0268

> <Gold.Rescore>
     Score         DG    S(hbond)    S(metal)    S(lipo)     H(rot)  DE(clash)    DE(int)     intcor
     14.60     -21.27       2.56        0.00      99.29       1.71       3.20       3.47       ----

> <Gold.Chemscore.Fitness>
14.6043

> <Gold.Chemscore.DG>
-21.2736

> <Gold.Chemscore.ZeroCoef>
-5.4800

> <Gold.Chemscore.Hbond>
2.5628

> <Gold.Chemscore.Metal>
0.0000

> <Gold.Chemscore.Lipo>
99.2924

> <Gold.Chemscore.Internal_Hbond>
0.0000

> <Gold.Chemscore.DEClash>
3.1994

> <Gold.Chemscore.DEInternal>
3.4699

> <Gold.Chemscore.Rot>
1.7123

> <Gold.Chemscore.Internal.Correction>
   9.000000E+99

> <Gold.Chemscore.Hbonds>
donor molecule, donor type, donor heavy atom, donor atom, acceptor molecule, acceptor atom, score
      L1  H    21    43       P1  7949  0.60
      P1  H  6896  6907       L1    16  0.05
      P1  H  7989  7998       L1    24  0.79

> <Gold.Chemscore.Hbond.Weighted>
-8.5598

> <Gold.Chemscore.Metal.Weighted>
-0.0000

> <Gold.Chemscore.Lipo.Weighted>
-11.6172

> <Gold.Chemscore.Internal_Hbond.Weighted>
0.0000

> <Gold.Chemscore.DEClash.Weighted>
3.1994

> <Gold.Chemscore.DEInternal.Weighted>
3.4699

> <Gold.Chemscore.Rot.Weighted>
4.3835

> <Gold.Chemscore.Internal.Correction.Weighted>
   9.000000E+99

> <Gold.Protein.RotatedTorsions>
[ 6907 6896 6895 6894 ] final  -45.22 input  -60.11 | X-H torsion
[ 7974 7965 7964 7962 ] final -163.58 input  175.53 | X-H torsion
[ 8008 7997 7996 7995 ] final    1.21 input   59.86 | X-H torsion
[ 10167 10162 10161 10158 ] final  159.13 input  -65.29 | X-H torsion
[ 10718 10713 10712 10709 ] final  118.40 input   66.30 | X-H torsion
[ 10763 10752 10751 10750 ] final -140.18 input  -60.55 | X-H torsion
[ 11005 11000 10999 10996 ] final -121.48 input  -57.11 | X-H torsion

> <Gold.Protein.ActiveResidues>
 VAL166  LYS551  ARG553  GLY616  TRP617  ASP618  TYR619  PRO620  LYS621  CYS622 
 ASP623  PHE694  ASN695  SER759  ASP760  ASP761  ALA762  ILE779  LEU786  VAL792 
 PHE793  MET794  SER795  GLU796  ALA797  LYS798  CYS799  TRP800  GLU811  SER814 

> <Gold.Protein.RotatedAtoms>
  150.9243  134.8660  159.7509 H   0  0  0  0  0  0  0  0  0  0  0  0  # atno 6907 bound_to 6896
  152.5008  134.4172  159.9478 H   0  0  0  0  0  0  0  0  0  0  0  0  # atno 6908 bound_to 6896
  151.4204  133.3660  159.2790 H   0  0  0  0  0  0  0  0  0  0  0  0  # atno 6909 bound_to 6896
  144.7322  140.3086  143.6192 H   0  0  0  0  0  0  0  0  0  0  0  0  # atno 7974 bound_to 7965
  154.6770  140.2624  155.6947 H   0  0  0  0  0  0  0  0  0  0  0  0  # atno 8008 bound_to 7997
  156.2682  140.2818  156.1223 H   0  0  0  0  0  0  0  0  0  0  0  0  # atno 8009 bound_to 7997
  155.1085  140.0375  157.2707 H   0  0  0  0  0  0  0  0  0  0  0  0  # atno 8010 bound_to 7997
  139.4830  144.4759  151.8512 H   0  0  0  0  0  0  0  0  0  0  0  0  # atno 10167 bound_to 10162
  157.6033  131.1047  150.7751 H   0  0  0  0  0  0  0  0  0  0  0  0  # atno 10718 bound_to 10713
  154.8586  135.3560  154.5666 H   0  0  0  0  0  0  0  0  0  0  0  0  # atno 10763 bound_to 10752
  153.6280  135.7003  153.5290 H   0  0  0  0  0  0  0  0  0  0  0  0  # atno 10764 bound_to 10752
  153.3073  135.4189  155.1265 H   0  0  0  0  0  0  0  0  0  0  0  0  # atno 10765 bound_to 10752
  141.0067  134.0324  157.3468 H   0  0  0  0  0  0  0  0  0  0  0  0  # atno 11005 bound_to 11000
  145.7687  139.1850  143.2225 LP  0  0  0  0  0  0  0  0  0  0  0  0  # atno 17320 bound_to 7965
  146.0928  140.7636  142.9587 LP  0  0  0  0  0  0  0  0  0  0  0  0  # atno 17321 bound_to 7965
  140.4231  144.2216  150.5887 LP  0  0  0  0  0  0  0  0  0  0  0  0  # atno 17342 bound_to 10162
  140.4854  143.2365  151.8895 LP  0  0  0  0  0  0  0  0  0  0  0  0  # atno 17343 bound_to 10162
  156.8145  130.4963  149.5351 LP  0  0  0  0  0  0  0  0  0  0  0  0  # atno 17370 bound_to 10713
  156.1112  130.6041  151.0049 LP  0  0  0  0  0  0  0  0  0  0  0  0  # atno 17371 bound_to 10713
  139.9067  135.0181  156.7517 LP  0  0  0  0  0  0  0  0  0  0  0  0  # atno 17394 bound_to 11000
  140.6801  133.9482  155.7905 LP  0  0  0  0  0  0  0  0  0  0  0  0  # atno 17395 bound_to 11000

$$$$
