AV-unprocessed.smi:2037|AV-procd|sdf|8276|dock1
  -GOLD-   2272010543D 1   1.00000     0.00000
 Structure written by MMmdl.
 39 40  0  0  0  0  0  0  0  0  2 V2000
  145.1960  136.1514  151.6876 C   0  0  0  0  0  0  0  0  0  0  0  0
  146.0353  137.2747  152.3124 C   0  0  2  0  0  0  0  0  0  0  0  0
  145.3589  137.8649  153.5607 C   0  0  0  0  0  0  0  0  0  0  0  0
  146.1943  139.0086  154.1601 C   0  0  0  0  0  0  0  0  0  0  0  0
  146.4452  140.0758  153.1570 N   0  3  1  0  0  0  0  0  0  0  0  0
  147.1406  141.2466  153.7476 C   0  0  0  0  0  0  0  0  0  0  0  0
  148.5998  140.9317  154.1314 C   0  0  0  0  0  0  0  0  0  0  0  0
  149.1257  141.9040  155.0827 N   0  0  0  0  0  0  0  0  0  0  0  0
  150.1101  141.6588  155.9598 C   0  0  0  0  0  0  0  0  0  0  0  0
  150.6720  140.5672  156.0550 O   0  0  0  0  0  0  0  0  0  0  0  0
  150.3873  142.7452  156.7019 N   0  0  0  0  0  0  0  0  0  0  0  0
  151.3479  142.8764  157.7392 C   0  0  0  0  0  0  0  0  0  0  0  0
  151.7972  141.8595  158.4843 N   0  0  0  0  0  0  0  0  0  0  0  0
  152.7355  142.2782  159.4311 C   0  0  0  0  0  0  0  0  0  0  0  0
  152.9894  143.6269  159.3934 C   0  0  0  0  0  0  0  0  0  0  0  0
  152.0546  144.4297  158.1599 S   0  0  0  0  0  0  0  0  0  0  0  0
  147.1303  139.5369  151.9514 C   0  0  0  0  0  0  0  0  0  0  0  0
  146.3127  138.4049  151.3071 C   0  0  0  0  0  0  0  0  0  0  0  0
  144.2205  136.5164  151.3646 H   0  0  0  0  0  0  0  0  0  0  0  0
  145.0293  135.3432  152.4004 H   0  0  0  0  0  0  0  0  0  0  0  0
  145.6965  135.7251  150.8178 H   0  0  0  0  0  0  0  0  0  0  0  0
  146.9917  136.8453  152.6149 H   0  0  0  0  0  0  0  0  0  0  0  0
  144.3651  138.2353  153.3041 H   0  0  0  0  0  0  0  0  0  0  0  0
  145.2134  137.0860  154.3101 H   0  0  0  0  0  0  0  0  0  0  0  0
  145.6629  139.4243  155.0172 H   0  0  0  0  0  0  0  0  0  0  0  0
  147.1463  138.6258  154.5320 H   0  0  0  0  0  0  0  0  0  0  0  0
  147.1540  142.0621  153.0230 H   0  0  0  0  0  0  0  0  0  0  0  0
  146.5737  141.6097  154.6063 H   0  0  0  0  0  0  0  0  0  0  0  0
  148.6975  139.9323  154.5562 H   0  0  0  0  0  0  0  0  0  0  0  0
  149.2302  140.9532  153.2420 H   0  0  0  0  0  0  0  0  0  0  0  0
  148.7185  142.8280  155.0669 H   0  0  0  0  0  0  0  0  0  0  0  0
  149.8484  143.5756  156.5047 H   0  0  0  0  0  0  0  0  0  0  0  0
  153.1741  141.5474  160.0945 H   0  0  0  0  0  0  0  0  0  0  0  0
  153.6668  144.1945  160.0140 H   0  0  0  0  0  0  0  0  0  0  0  0
  147.2803  140.3245  151.2139 H   0  0  0  0  0  0  0  0  0  0  0  0
  148.1214  139.1724  152.2267 H   0  0  0  0  0  0  0  0  0  0  0  0
  146.8496  138.0122  150.4428 H   0  0  0  0  0  0  0  0  0  0  0  0
  145.3710  138.8056  150.9290 H   0  0  0  0  0  0  0  0  0  0  0  0
  145.5366  140.4020  152.8604 H   0  0  0  0  0  0  0  0  0  0  0  0
  1  2  1  0  0  0  0
  1 19  1  0  0  0  0
  1 20  1  0  0  0  0
  1 21  1  0  0  0  0
  2 18  1  0  0  0  0
  2  3  1  0  0  0  0
  2 22  1  0  0  0  0
  3  4  1  0  0  0  0
  3 23  1  0  0  0  0
  3 24  1  0  0  0  0
  4  5  1  0  0  0  0
  4 25  1  0  0  0  0
  4 26  1  0  0  0  0
  5  6  1  0  0  0  0
  5 17  1  0  0  0  0
  5 39  1  0  0  0  0
  6  7  1  0  0  0  0
  6 27  1  0  0  0  0
  6 28  1  0  0  0  0
  7  8  1  0  0  0  0
  7 29  1  0  0  0  0
  7 30  1  0  0  0  0
  8  9  1  0  0  0  0
  8 31  1  0  0  0  0
  9 10  2  0  0  0  0
  9 11  1  0  0  0  0
 11 12  1  0  0  0  0
 11 32  1  0  0  0  0
 12 16  1  0  0  0  0
 12 13  2  0  0  0  0
 13 14  1  0  0  0  0
 14 15  2  0  0  0  0
 14 33  1  0  0  0  0
 15 16  1  0  0  0  0
 15 34  1  0  0  0  0
 17 18  1  0  0  0  0
 17 35  1  0  0  0  0
 17 36  1  0  0  0  0
 18 37  1  0  0  0  0
 18 38  1  0  0  0  0
M  CHG  1   5   1
M  END
> <s_m_source_file>
AV-unprocessed.smi

> <i_m_source_file_index>
2037

> <i_lp_mmshare_version>
43012

> <i_f3d_flags>
0

> <s_epik_input>
W0NIM11bQ0hdMVtDSDJdW0NIMl1OKFtDSDJdW0NIMl0xKVtDSDJdW0NIMl1bTkhdQyg9TylbTkhdYzJuW2NIXVtjSF1zMg==

> <s_epik_cmdline>
J2VwaWtfcHl0aG9uJywgJy1waCcsICc3LjAnLCAnLXRuJywgJzgnLCAnLW1hJywgJzIwMCcsICctbWV0YWxfYmluZGluZycsICctaW1hZScsICc8aW5maWxlLm1hZT4nLCAnLW9tYWUnLCAnPG91dGZpbGUubWFlPic=

> <r_lp_tautomer_probability>
0.999

> <r_epik_Ionization_Penalty>
0.00182893

> <r_epik_Ionization_Penalty_Charging>
0.00168873

> <r_epik_Ionization_Penalty_Neutral>
0.000140204

> <r_epik_State_Penalty>
0.00114045

> <r_epik_Charging_Adjusted_Penalty>
0.00282917

> <i_epik_Tot_Q>
1

> <i_epik_Tot_abs_Q>
1

> <r_epik_Metal_State_Penalty>
0.0569426

> <b_epik_Metal_Only>
0

> <s_lp_Force_Field>
OPLS_2005

> <r_lp_Energy>
13.393

> <b_lp_Chiralities_Consistent>
1

> <s_lp_Variant>
AV-unprocessed.smi:2037-1

> <Gold.Version>
5.8.1

> <Gold.Id.Protein>
6NUR|6NUR_protein|mol2

> <Gold.PLP.Fitness>
48.4976

> <Gold.PLP.PLP>
-37.5013

> <Gold.PLP.part.hbond>
-3.0000

> <Gold.PLP.part.metal>
0.0000

> <Gold.PLP.part.buried>
1.6029

> <Gold.PLP.part.nonpolar>
-37.2573

> <Gold.PLP.part.repulsive>
0.2780

> <Gold.PLP.ligand.clash>
0.0000

> <Gold.PLP.ligand.torsion>
0.4291

> <Gold.PLP.Chemscore.Hbond>
3.9440

> <Gold.PLP.Chemscore.CHOScore>
0.0000

> <Gold.PLP.Chemscore.Metal>
0.0000

> <Gold.Chemscore.Hbonds>
donor molecule, donor type, donor heavy atom, donor atom, acceptor molecule, acceptor atom, score
      L1  H     5    39       P1 10175  2.00
      L1  H     8    31       P1  8028  0.94
      L1  H    11    32       P1  8028  1.00

> <Gold.PLP.Chemscore.Internal.Correction>
0.0225

> <Gold.Rescore>
     Score         DG    S(hbond)    S(metal)    S(lipo)     H(rot)  DE(clash)    DE(int)     intcor
     17.91     -21.32       2.86        0.00      88.80       1.60       1.83       1.57       ----

> <Gold.Chemscore.Fitness>
17.9136

> <Gold.Chemscore.DG>
-21.3165

> <Gold.Chemscore.ZeroCoef>
-5.4800

> <Gold.Chemscore.Hbond>
2.8573

> <Gold.Chemscore.Metal>
0.0000

> <Gold.Chemscore.Lipo>
88.7977

> <Gold.Chemscore.Internal_Hbond>
0.0000

> <Gold.Chemscore.DEClash>
1.8324

> <Gold.Chemscore.DEInternal>
1.5705

> <Gold.Chemscore.Rot>
1.6001

> <Gold.Chemscore.Internal.Correction>
   9.000000E+99

> <Gold.Chemscore.Hbonds>
donor molecule, donor type, donor heavy atom, donor atom, acceptor molecule, acceptor atom, score
      L1  H     5    39       P1 10175  0.85
      L1  H     8    31       P1  8028  0.89
      L1  H    11    32       P1  8028  1.00

> <Gold.Chemscore.Hbond.Weighted>
-9.5435

> <Gold.Chemscore.Metal.Weighted>
-0.0000

> <Gold.Chemscore.Lipo.Weighted>
-10.3893

> <Gold.Chemscore.Internal_Hbond.Weighted>
0.0000

> <Gold.Chemscore.DEClash.Weighted>
1.8324

> <Gold.Chemscore.DEInternal.Weighted>
1.5705

> <Gold.Chemscore.Rot.Weighted>
4.0963

> <Gold.Chemscore.Internal.Correction.Weighted>
   9.000000E+99

> <Gold.Protein.RotatedTorsions>
[ 6907 6896 6895 6894 ] final   27.85 input  -60.11 | X-H torsion
[ 7974 7965 7964 7962 ] final  -70.53 input  175.53 | X-H torsion
[ 8008 7997 7996 7995 ] final  -66.70 input   59.86 | X-H torsion
[ 10167 10162 10161 10158 ] final   -2.92 input  -65.29 | X-H torsion
[ 10718 10713 10712 10709 ] final  -98.17 input   66.30 | X-H torsion
[ 10763 10752 10751 10750 ] final -162.04 input  -60.55 | X-H torsion
[ 11005 11000 10999 10996 ] final   29.41 input  -57.11 | X-H torsion

> <Gold.Protein.ActiveResidues>
 VAL166  LYS551  ARG553  GLY616  TRP617  ASP618  TYR619  PRO620  LYS621  CYS622 
 ASP623  PHE694  ASN695  SER759  ASP760  ASP761  ALA762  ILE779  LEU786  VAL792 
 PHE793  MET794  SER795  GLU796  ALA797  LYS798  CYS799  TRP800  GLU811  SER814 

> <Gold.Protein.RotatedAtoms>
  152.0084  134.9890  160.0567 H   0  0  0  0  0  0  0  0  0  0  0  0  # atno 6907 bound_to 6896
  152.1452  133.4483  159.4795 H   0  0  0  0  0  0  0  0  0  0  0  0  # atno 6908 bound_to 6896
  150.6869  134.2174  159.4426 H   0  0  0  0  0  0  0  0  0  0  0  0  # atno 6909 bound_to 6896
  145.6897  140.9157  143.0788 H   0  0  0  0  0  0  0  0  0  0  0  0  # atno 7974 bound_to 7965
  154.4751  140.0907  156.7243 H   0  0  0  0  0  0  0  0  0  0  0  0  # atno 8008 bound_to 7997
  155.4617  140.3461  155.4295 H   0  0  0  0  0  0  0  0  0  0  0  0  # atno 8009 bound_to 7997
  156.1104  140.1446  156.9335 H   0  0  0  0  0  0  0  0  0  0  0  0  # atno 8010 bound_to 7997
  140.6870  143.6600  150.8275 H   0  0  0  0  0  0  0  0  0  0  0  0  # atno 10167 bound_to 10162
  156.0101  130.5226  150.6483 H   0  0  0  0  0  0  0  0  0  0  0  0  # atno 10718 bound_to 10713
  154.7250  135.3034  154.8986 H   0  0  0  0  0  0  0  0  0  0  0  0  # atno 10763 bound_to 10752
  153.9846  135.6726  153.4755 H   0  0  0  0  0  0  0  0  0  0  0  0  # atno 10764 bound_to 10752
  153.0867  135.4980  154.8529 H   0  0  0  0  0  0  0  0  0  0  0  0  # atno 10765 bound_to 10752
  140.3052  134.2711  155.7745 H   0  0  0  0  0  0  0  0  0  0  0  0  # atno 11005 bound_to 11000
  144.7000  139.8805  143.7447 LP  0  0  0  0  0  0  0  0  0  0  0  0  # atno 17320 bound_to 7965
  146.0892  139.3882  143.0416 LP  0  0  0  0  0  0  0  0  0  0  0  0  # atno 17321 bound_to 7965
  140.0308  143.5445  152.2761 LP  0  0  0  0  0  0  0  0  0  0  0  0  # atno 17342 bound_to 10162
  139.6237  144.7633  151.2684 LP  0  0  0  0  0  0  0  0  0  0  0  0  # atno 17343 bound_to 10162
  157.4249  131.0841  151.1095 LP  0  0  0  0  0  0  0  0  0  0  0  0  # atno 17370 bound_to 10713
  157.1686  130.6257  149.5633 LP  0  0  0  0  0  0  0  0  0  0  0  0  # atno 17371 bound_to 10713
  141.2120  133.7672  156.9826 LP  0  0  0  0  0  0  0  0  0  0  0  0  # atno 17394 bound_to 11000
  140.1073  134.9498  157.2013 LP  0  0  0  0  0  0  0  0  0  0  0  0  # atno 17395 bound_to 11000

$$$$
