AV-unprocessed.smi:2732|AV-procd|sdf|10535|dock9
  -GOLD-   2272014583D 1   1.00000     0.00000
 Structure written by MMmdl.
 35 36  0  0  0  0  0  0  0  0  2 V2000
  151.6243  141.5178  158.7801 C   0  0  0  0  0  0  0  0  0  0  0  0
  150.5966  142.2055  157.8684 C   0  0  1  0  0  0  0  0  0  0  0  0
  151.2854  143.2084  157.1262 O   0  0  0  0  0  0  0  0  0  0  0  0
  151.2352  144.5189  157.6761 C   0  0  0  0  0  0  0  0  0  0  0  0
  151.9462  144.5130  159.0117 C   0  0  0  0  0  0  0  0  0  0  0  0
  151.1553  144.4447  160.2984 C   0  0  0  0  0  0  0  0  0  0  0  0
  151.8769  145.7148  159.9266 C   0  0  0  0  0  0  0  0  0  0  0  0
  149.9275  141.2011  156.9154 C   0  0  0  0  0  0  0  0  0  0  0  0
  150.2578  140.0158  156.9469 O   0  0  0  0  0  0  0  0  0  0  0  0
  149.0209  141.7169  156.0644 N   0  0  0  0  0  0  0  0  0  0  0  0
  148.2573  141.0456  155.0721 C   0  0  0  0  0  0  0  0  0  0  0  0
  148.8776  139.9940  154.3625 C   0  0  0  0  0  0  0  0  0  0  0  0
  148.1612  139.3075  153.3602 C   0  0  0  0  0  0  0  0  0  0  0  0
  146.8352  139.6936  153.0768 C   0  0  0  0  0  0  0  0  0  0  0  0
  146.0710  139.0580  152.1002 N   0  0  0  0  0  0  0  0  0  0  0  0
  146.2765  140.7136  153.7630 N   0  3  0  0  0  0  0  0  0  0  0  0
  146.9269  141.3952  154.7315 C   0  0  0  0  0  0  0  0  0  0  0  0
  151.1679  140.7134  159.3581 H   0  0  0  0  0  0  0  0  0  0  0  0
  152.0494  142.2302  159.4876 H   0  0  0  0  0  0  0  0  0  0  0  0
  152.4497  141.0934  158.2069 H   0  0  0  0  0  0  0  0  0  0  0  0
  149.8415  142.6762  158.5012 H   0  0  0  0  0  0  0  0  0  0  0  0
  151.7059  145.2509  157.0188 H   0  0  0  0  0  0  0  0  0  0  0  0
  150.1993  144.8240  157.8297 H   0  0  0  0  0  0  0  0  0  0  0  0
  152.8859  143.9640  159.0073 H   0  0  0  0  0  0  0  0  0  0  0  0
  150.0693  144.4469  160.2290 H   0  0  0  0  0  0  0  0  0  0  0  0
  151.5694  143.8511  161.1108 H   0  0  0  0  0  0  0  0  0  0  0  0
  152.7733  145.9683  160.4888 H   0  0  0  0  0  0  0  0  0  0  0  0
  151.2723  146.5613  159.6072 H   0  0  0  0  0  0  0  0  0  0  0  0
  148.9133  142.7205  156.0928 H   0  0  0  0  0  0  0  0  0  0  0  0
  149.8948  139.7075  154.5871 H   0  0  0  0  0  0  0  0  0  0  0  0
  148.6279  138.4975  152.8188 H   0  0  0  0  0  0  0  0  0  0  0  0
  146.4404  138.2920  151.5551 H   0  0  0  0  0  0  0  0  0  0  0  0
  145.1176  139.3330  151.9119 H   0  0  0  0  0  0  0  0  0  0  0  0
  146.3595  142.1958  155.1819 H   0  0  0  0  0  0  0  0  0  0  0  0
  145.3188  140.9862  153.5405 H   0  0  0  0  0  0  0  0  0  0  0  0
  1  2  1  0  0  0  0
  1 18  1  0  0  0  0
  1 19  1  0  0  0  0
  1 20  1  0  0  0  0
  2  3  1  0  0  0  0
  2  8  1  0  0  0  0
  2 21  1  0  0  0  0
  3  4  1  0  0  0  0
  4  5  1  0  0  0  0
  4 22  1  0  0  0  0
  4 23  1  0  0  0  0
  5  7  1  0  0  0  0
  5  6  1  0  0  0  0
  5 24  1  0  0  0  0
  6  7  1  0  0  0  0
  6 25  1  0  0  0  0
  6 26  1  0  0  0  0
  7 27  1  0  0  0  0
  7 28  1  0  0  0  0
  8  9  2  0  0  0  0
  8 10  1  0  0  0  0
 10 11  1  0  0  0  0
 10 29  1  0  0  0  0
 11 17  1  0  0  0  0
 11 12  2  0  0  0  0
 12 13  1  0  0  0  0
 12 30  1  0  0  0  0
 13 14  2  0  0  0  0
 13 31  1  0  0  0  0
 14 15  1  0  0  0  0
 14 16  1  0  0  0  0
 15 32  1  0  0  0  0
 15 33  1  0  0  0  0
 16 17  2  0  0  0  0
 16 35  1  0  0  0  0
 17 34  1  0  0  0  0
M  CHG  1  16   1
M  END
> <s_m_source_file>
AV-unprocessed.smi

> <i_m_source_file_index>
2732

> <i_lp_mmshare_version>
43012

> <i_f3d_flags>
0

> <s_epik_input>
W0NIMl0xW0NIMl1bQ0hdMVtDSDJdT1tDQEBIXShbQ0gzXSlDKD1PKVtOSF1jMltjSF1bY0hdYyhbTkgyXSluW2NIXTI=

> <s_epik_cmdline>
J2VwaWtfcHl0aG9uJywgJy1waCcsICc3LjAnLCAnLXRuJywgJzgnLCAnLW1hJywgJzIwMCcsICctbWV0YWxfYmluZGluZycsICctaW1hZScsICc8aW5maWxlLm1hZT4nLCAnLW9tYWUnLCAnPG91dGZpbGUubWFlPic=

> <r_lp_tautomer_probability>
0.999994

> <r_epik_Ionization_Penalty>
1.25173

> <r_epik_Ionization_Penalty_Charging>
1.25172

> <r_epik_Ionization_Penalty_Neutral>
2.35798e-06

> <r_epik_State_Penalty>
1.32157

> <r_epik_Charging_Adjusted_Penalty>
2.5733

> <i_epik_Tot_Q>
1

> <i_epik_Tot_abs_Q>
1

> <r_epik_Metal_State_Penalty>
1.39188

> <b_epik_Metal_Only>
0

> <s_lp_Force_Field>
OPLS_2005

> <r_lp_Energy>
25.671

> <b_lp_Chiralities_Consistent>
1

> <s_lp_Variant>
AV-unprocessed.smi:2732-4

> <Gold.Version>
5.8.1

> <Gold.Id.Protein>
6NUR|6NUR_protein|mol2

> <Gold.PLP.Fitness>
44.9271

> <Gold.PLP.PLP>
-32.7359

> <Gold.PLP.part.hbond>
-3.4716

> <Gold.PLP.part.metal>
0.0000

> <Gold.PLP.part.buried>
-1.4391

> <Gold.PLP.part.nonpolar>
-29.6119

> <Gold.PLP.part.repulsive>
0.2406

> <Gold.PLP.ligand.clash>
0.0000

> <Gold.PLP.ligand.torsion>
1.0615

> <Gold.PLP.Chemscore.Hbond>
4.5840

> <Gold.PLP.Chemscore.CHOScore>
0.0000

> <Gold.PLP.Chemscore.Metal>
0.0000

> <Gold.Chemscore.Hbonds>
donor molecule, donor type, donor heavy atom, donor atom, acceptor molecule, acceptor atom, score
      L1  H    10    29       P1  8028  0.98
      L1  H    15    33       P1 10175  1.82
      L1  H    16    35       P1 10175  1.79

> <Gold.PLP.Chemscore.Internal.Correction>
0.5622

> <Gold.Rescore>
     Score         DG    S(hbond)    S(metal)    S(lipo)     H(rot)  DE(clash)    DE(int)     intcor
     15.58     -19.35       2.47        0.00      86.70       1.76       1.42       2.35       ----

> <Gold.Chemscore.Fitness>
15.5784

> <Gold.Chemscore.DG>
-19.3507

> <Gold.Chemscore.ZeroCoef>
-5.4800

> <Gold.Chemscore.Hbond>
2.4652

> <Gold.Chemscore.Metal>
0.0000

> <Gold.Chemscore.Lipo>
86.6975

> <Gold.Chemscore.Internal_Hbond>
0.0000

> <Gold.Chemscore.DEClash>
1.4210

> <Gold.Chemscore.DEInternal>
2.3514

> <Gold.Chemscore.Rot>
1.7604

> <Gold.Chemscore.Internal.Correction>
   9.000000E+99

> <Gold.Chemscore.Hbonds>
donor molecule, donor type, donor heavy atom, donor atom, acceptor molecule, acceptor atom, score
      L1  H    10    29       P1  8028  0.91
      L1  H    15    33       P1 10175  0.87
      L1  H    16    35       P1 10175  0.59

> <Gold.Chemscore.Hbond.Weighted>
-8.2337

> <Gold.Chemscore.Metal.Weighted>
-0.0000

> <Gold.Chemscore.Lipo.Weighted>
-10.1436

> <Gold.Chemscore.Internal_Hbond.Weighted>
0.0000

> <Gold.Chemscore.DEClash.Weighted>
1.4210

> <Gold.Chemscore.DEInternal.Weighted>
2.3514

> <Gold.Chemscore.Rot.Weighted>
4.5065

> <Gold.Chemscore.Internal.Correction.Weighted>
   9.000000E+99

> <Gold.Protein.RotatedTorsions>
[ 6907 6896 6895 6894 ] final  163.43 input  -60.11 | X-H torsion
[ 7974 7965 7964 7962 ] final   32.36 input  175.53 | X-H torsion
[ 8008 7997 7996 7995 ] final  -68.25 input   59.86 | X-H torsion
[ 10167 10162 10161 10158 ] final -132.89 input  -65.29 | X-H torsion
[ 10718 10713 10712 10709 ] final  161.23 input   66.30 | X-H torsion
[ 10763 10752 10751 10750 ] final  -34.45 input  -60.55 | X-H torsion
[ 11005 11000 10999 10996 ] final -132.76 input  -57.11 | X-H torsion

> <Gold.Protein.ActiveResidues>
 VAL166  LYS551  ARG553  GLY616  TRP617  ASP618  TYR619  PRO620  LYS621  CYS622 
 ASP623  PHE694  ASN695  SER759  ASP760  ASP761  ALA762  ILE779  LEU786  VAL792 
 PHE793  MET794  SER795  GLU796  ALA797  LYS798  CYS799  TRP800  GLU811  SER814 

> <Gold.Protein.RotatedAtoms>
  151.9253  133.3596  159.3911 H   0  0  0  0  0  0  0  0  0  0  0  0  # atno 6907 bound_to 6896
  150.7028  134.4593  159.5382 H   0  0  0  0  0  0  0  0  0  0  0  0  # atno 6908 bound_to 6896
  152.2224  134.8400  160.0535 H   0  0  0  0  0  0  0  0  0  0  0  0  # atno 6909 bound_to 6896
  146.1491  139.6536  142.9111 H   0  0  0  0  0  0  0  0  0  0  0  0  # atno 7974 bound_to 7965
  154.4855  140.0876  156.7476 H   0  0  0  0  0  0  0  0  0  0  0  0  # atno 8008 bound_to 7997
  155.4361  140.3452  155.4267 H   0  0  0  0  0  0  0  0  0  0  0  0  # atno 8009 bound_to 7997
  156.1255  140.1486  156.9131 H   0  0  0  0  0  0  0  0  0  0  0  0  # atno 8010 bound_to 7997
  139.9039  143.6575  152.2589 H   0  0  0  0  0  0  0  0  0  0  0  0  # atno 10167 bound_to 10162
  157.1394  131.0536  151.2334 H   0  0  0  0  0  0  0  0  0  0  0  0  # atno 10718 bound_to 10713
  153.8469  135.6852  153.4796 H   0  0  0  0  0  0  0  0  0  0  0  0  # atno 10763 bound_to 10752
  153.1420  135.4653  154.9508 H   0  0  0  0  0  0  0  0  0  0  0  0  # atno 10764 bound_to 10752
  154.7820  135.3272  154.7916 H   0  0  0  0  0  0  0  0  0  0  0  0  # atno 10765 bound_to 10752
  140.9141  134.1529  157.4366 H   0  0  0  0  0  0  0  0  0  0  0  0  # atno 11005 bound_to 11000
  145.4865  141.0438  143.2616 LP  0  0  0  0  0  0  0  0  0  0  0  0  # atno 17320 bound_to 7965
  144.7882  139.6382  143.7124 LP  0  0  0  0  0  0  0  0  0  0  0  0  # atno 17321 bound_to 7965
  139.7001  144.7636  151.1287 LP  0  0  0  0  0  0  0  0  0  0  0  0  # atno 17342 bound_to 10162
  140.7701  143.5469  150.9249 LP  0  0  0  0  0  0  0  0  0  0  0  0  # atno 17343 bound_to 10162
  157.4321  130.7496  149.6998 LP  0  0  0  0  0  0  0  0  0  0  0  0  # atno 17370 bound_to 10713
  155.9791  130.4043  150.3605 LP  0  0  0  0  0  0  0  0  0  0  0  0  # atno 17371 bound_to 10713
  139.8763  134.9947  156.5706 LP  0  0  0  0  0  0  0  0  0  0  0  0  # atno 17394 bound_to 11000
  140.8072  133.8458  155.8778 LP  0  0  0  0  0  0  0  0  0  0  0  0  # atno 17395 bound_to 11000

$$$$
