AV-unprocessed.smi:2314|AV-procd|sdf|9266|dock1
  -GOLD-   2272012493D 1   1.00000     0.00000
 Structure written by MMmdl.
 37 38  0  0  0  0  0  0  0  0  1 V2000
  150.1029  140.2707  154.9966 C   0  0  0  0  0  0  0  0  0  0  0  0
  148.7557  141.0120  154.9245 C   0  0  0  0  0  0  0  0  0  0  0  0
  148.1778  141.2957  156.3200 C   0  0  0  0  0  0  0  0  0  0  0  0
  147.7687  140.3062  154.0964 N   0  0  0  0  0  0  0  0  0  0  0  0
  147.1787  140.9020  152.9085 C   0  0  0  0  0  0  0  0  0  0  0  0
  146.5074  139.7313  152.1839 C   0  0  0  0  0  0  0  0  0  0  0  0
  146.2999  138.6415  153.2477 C   0  0  1  0  0  0  0  0  0  0  0  0
  146.6084  137.3256  152.6908 N   0  0  0  0  0  0  0  0  0  0  0  0
  145.6991  136.4440  152.2497 C   0  0  0  0  0  0  0  0  0  0  0  0
  144.4892  136.6693  152.2384 O   0  0  0  0  0  0  0  0  0  0  0  0
  146.2880  135.3145  151.8203 N   0  0  0  0  0  0  0  0  0  0  0  0
  145.6910  134.1406  151.2829 C   0  0  0  0  0  0  0  0  0  0  0  0
  144.3634  134.0698  150.7941 C   0  0  0  0  0  0  0  0  0  0  0  0
  143.8906  132.8374  150.2998 C   0  0  0  0  0  0  0  0  0  0  0  0
  144.6342  131.7113  150.2725 N   0  0  0  0  0  0  0  0  0  0  0  0
  145.8944  131.7789  150.7511 C   0  0  0  0  0  0  0  0  0  0  0  0
  146.4643  132.9603  151.2670 C   0  0  0  0  0  0  0  0  0  0  0  0
  147.7361  132.9574  151.7351 F   0  0  0  0  0  0  0  0  0  0  0  0
  147.3327  139.0548  154.2968 C   0  0  0  0  0  0  0  0  0  0  0  0
  147.6881  138.3106  155.2111 O   0  0  0  0  0  0  0  0  0  0  0  0
  150.8432  140.8655  155.5318 H   0  0  0  0  0  0  0  0  0  0  0  0
  150.4993  140.0776  153.9991 H   0  0  0  0  0  0  0  0  0  0  0  0
  150.0158  139.3163  155.5165 H   0  0  0  0  0  0  0  0  0  0  0  0
  148.9587  141.9747  154.4517 H   0  0  0  0  0  0  0  0  0  0  0  0
  148.8831  141.8626  156.9280 H   0  0  0  0  0  0  0  0  0  0  0  0
  147.9507  140.3701  156.8502 H   0  0  0  0  0  0  0  0  0  0  0  0
  147.2579  141.8783  156.2570 H   0  0  0  0  0  0  0  0  0  0  0  0
  146.4390  141.6470  153.2050 H   0  0  0  0  0  0  0  0  0  0  0  0
  147.9274  141.3869  152.2810 H   0  0  0  0  0  0  0  0  0  0  0  0
  145.5695  140.0275  151.7127 H   0  0  0  0  0  0  0  0  0  0  0  0
  147.1688  139.3784  151.3903 H   0  0  0  0  0  0  0  0  0  0  0  0
  145.2973  138.6943  153.6757 H   0  0  0  0  0  0  0  0  0  0  0  0
  147.5820  137.0610  152.6628 H   0  0  0  0  0  0  0  0  0  0  0  0
  147.2974  135.3102  151.8346 H   0  0  0  0  0  0  0  0  0  0  0  0
  143.6990  134.9194  150.7969 H   0  0  0  0  0  0  0  0  0  0  0  0
  142.8829  132.7534  149.9203 H   0  0  0  0  0  0  0  0  0  0  0  0
  146.4665  130.8632  150.7236 H   0  0  0  0  0  0  0  0  0  0  0  0
  1  2  1  0  0  0  0
  1 21  1  0  0  0  0
  1 22  1  0  0  0  0
  1 23  1  0  0  0  0
  2  3  1  0  0  0  0
  2  4  1  0  0  0  0
  2 24  1  0  0  0  0
  3 25  1  0  0  0  0
  3 26  1  0  0  0  0
  3 27  1  0  0  0  0
  4 19  1  0  0  0  0
  4  5  1  0  0  0  0
  5  6  1  0  0  0  0
  5 28  1  0  0  0  0
  5 29  1  0  0  0  0
  6  7  1  0  0  0  0
  6 30  1  0  0  0  0
  6 31  1  0  0  0  0
  7  8  1  0  0  0  0
  7 19  1  0  0  0  0
  7 32  1  0  0  0  0
  8  9  1  0  0  0  0
  8 33  1  0  0  0  0
  9 10  2  0  0  0  0
  9 11  1  0  0  0  0
 11 12  1  0  0  0  0
 11 34  1  0  0  0  0
 12 17  1  0  0  0  0
 12 13  2  0  0  0  0
 13 14  1  0  0  0  0
 13 35  1  0  0  0  0
 14 15  2  0  0  0  0
 14 36  1  0  0  0  0
 15 16  1  0  0  0  0
 16 17  2  0  0  0  0
 16 37  1  0  0  0  0
 17 18  1  0  0  0  0
 19 20  2  0  0  0  0
M  END
> <s_m_source_file>
AV-unprocessed.smi

> <i_m_source_file_index>
2314

> <i_lp_mmshare_version>
43012

> <i_f3d_flags>
0

> <s_epik_input>
W0NIM11bQ0hdKFtDSDNdKU4xW0NIMl1bQ0gyXVtDQEhdKEMxPU8pW05IXUMoPU8pW05IXWMyW2NIXVtjSF1uW2NIXWMyRg==

> <s_epik_cmdline>
J2VwaWtfcHl0aG9uJywgJy1waCcsICc3LjAnLCAnLXRuJywgJzgnLCAnLW1hJywgJzIwMCcsICctbWV0YWxfYmluZGluZycsICctaW1hZScsICc8aW5maWxlLm1hZT4nLCAnLW9tYWUnLCAnPG91dGZpbGUubWFlPic=

> <r_epik_Ionization_Penalty>
0.00267735

> <r_epik_Ionization_Penalty_Charging>
0

> <r_epik_Ionization_Penalty_Neutral>
0.00267735

> <r_epik_State_Penalty>
0.00184148

> <r_epik_Charging_Adjusted_Penalty>
0.00184148

> <i_epik_Tot_Q>
0

> <i_epik_Tot_abs_Q>
0

> <r_epik_Metal_State_Penalty>
-0

> <b_epik_Metal_Only>
0

> <s_lp_Force_Field>
OPLS_2005

> <r_lp_Energy>
26.6557

> <b_lp_Chiralities_Consistent>
1

> <s_lp_Variant>
AV-unprocessed.smi:2314-1

> <Gold.Version>
5.8.1

> <Gold.Id.Protein>
6NUR|6NUR_protein|mol2

> <Gold.PLP.Fitness>
39.7094

> <Gold.PLP.PLP>
-29.0026

> <Gold.PLP.part.hbond>
-2.1342

> <Gold.PLP.part.metal>
0.0000

> <Gold.PLP.part.buried>
1.1561

> <Gold.PLP.part.nonpolar>
-27.8266

> <Gold.PLP.part.repulsive>
0.4515

> <Gold.PLP.ligand.clash>
0.0000

> <Gold.PLP.ligand.torsion>
0.4391

> <Gold.PLP.Chemscore.Hbond>
2.0000

> <Gold.PLP.Chemscore.CHOScore>
1.8311

> <Gold.PLP.Chemscore.Metal>
0.0000

> <Gold.Chemscore.Hbonds>
donor molecule, donor type, donor heavy atom, donor atom, acceptor molecule, acceptor atom, score
      L1  H     8    33       P1  7948  1.00
      L1  H    11    34       P1  7948  1.00
      L1  C    14    36       P1 10186  0.99
      L1  C    16    37       P1 10747  0.82

> <Gold.PLP.Chemscore.Internal.Correction>
0.0918

> <Gold.Rescore>
     Score         DG    S(hbond)    S(metal)    S(lipo)     H(rot)  DE(clash)    DE(int)     intcor
     15.28     -17.22       1.91        0.00      73.40       1.26       0.59       1.35       ----

> <Gold.Chemscore.Fitness>
15.2845

> <Gold.Chemscore.DG>
-17.2203

> <Gold.Chemscore.ZeroCoef>
-5.4800

> <Gold.Chemscore.Hbond>
1.9117

> <Gold.Chemscore.Metal>
0.0000

> <Gold.Chemscore.Lipo>
73.3969

> <Gold.Chemscore.Internal_Hbond>
0.0000

> <Gold.Chemscore.DEClash>
0.5867

> <Gold.Chemscore.DEInternal>
1.3491

> <Gold.Chemscore.Rot>
1.2626

> <Gold.Chemscore.Internal.Correction>
   9.000000E+99

> <Gold.Chemscore.Hbonds>
donor molecule, donor type, donor heavy atom, donor atom, acceptor molecule, acceptor atom, score
      L1  H     8    33       P1  7948  0.94
      L1  H    11    34       P1  7948  0.95

> <Gold.Chemscore.Hbond.Weighted>
-6.3850

> <Gold.Chemscore.Metal.Weighted>
-0.0000

> <Gold.Chemscore.Lipo.Weighted>
-8.5874

> <Gold.Chemscore.Internal_Hbond.Weighted>
0.0000

> <Gold.Chemscore.DEClash.Weighted>
0.5867

> <Gold.Chemscore.DEInternal.Weighted>
1.3491

> <Gold.Chemscore.Rot.Weighted>
3.2322

> <Gold.Chemscore.Internal.Correction.Weighted>
   9.000000E+99

> <Gold.Protein.RotatedTorsions>
[ 6907 6896 6895 6894 ] final -119.30 input  -60.11 | X-H torsion
[ 7974 7965 7964 7962 ] final  -58.02 input  175.53 | X-H torsion
[ 8008 7997 7996 7995 ] final   95.61 input   59.86 | X-H torsion
[ 10167 10162 10161 10158 ] final   15.06 input  -65.29 | X-H torsion
[ 10718 10713 10712 10709 ] final   20.52 input   66.30 | X-H torsion
[ 10763 10752 10751 10750 ] final   69.91 input  -60.55 | X-H torsion
[ 11005 11000 10999 10996 ] final  -74.44 input  -57.11 | X-H torsion

> <Gold.Protein.ActiveResidues>
 VAL166  LYS551  ARG553  GLY616  TRP617  ASP618  TYR619  PRO620  LYS621  CYS622 
 ASP623  PHE694  ASN695  SER759  ASP760  ASP761  ALA762  ILE779  LEU786  VAL792 
 PHE793  MET794  SER795  GLU796  ALA797  LYS798  CYS799  TRP800  GLU811  SER814 

> <Gold.Protein.RotatedAtoms>
  150.8293  133.8118  159.3104 H   0  0  0  0  0  0  0  0  0  0  0  0  # atno 6907 bound_to 6896
  151.5852  135.1055  160.0036 H   0  0  0  0  0  0  0  0  0  0  0  0  # atno 6908 bound_to 6896
  152.4375  133.7345  159.6663 H   0  0  0  0  0  0  0  0  0  0  0  0  # atno 6909 bound_to 6896
  145.8443  140.8396  143.0018 H   0  0  0  0  0  0  0  0  0  0  0  0  # atno 7974 bound_to 7965
  156.0707  140.3284  155.7572 H   0  0  0  0  0  0  0  0  0  0  0  0  # atno 8008 bound_to 7997
  155.5310  140.0593  157.2906 H   0  0  0  0  0  0  0  0  0  0  0  0  # atno 8009 bound_to 7997
  154.4528  140.1927  156.0484 H   0  0  0  0  0  0  0  0  0  0  0  0  # atno 8010 bound_to 7997
  140.5893  143.8827  150.6859 H   0  0  0  0  0  0  0  0  0  0  0  0  # atno 10167 bound_to 10162
  157.1257  130.6569  149.5937 H   0  0  0  0  0  0  0  0  0  0  0  0  # atno 10718 bound_to 10713
  153.0312  135.5193  154.7360 H   0  0  0  0  0  0  0  0  0  0  0  0  # atno 10763 bound_to 10752
  154.6373  135.2908  155.0147 H   0  0  0  0  0  0  0  0  0  0  0  0  # atno 10764 bound_to 10752
  154.1078  135.6626  153.4932 H   0  0  0  0  0  0  0  0  0  0  0  0  # atno 10765 bound_to 10752
  141.1635  133.6911  156.7365 H   0  0  0  0  0  0  0  0  0  0  0  0  # atno 11005 bound_to 11000
  144.6732  140.0858  143.7467 LP  0  0  0  0  0  0  0  0  0  0  0  0  # atno 17320 bound_to 7965
  145.9430  139.2682  143.1257 LP  0  0  0  0  0  0  0  0  0  0  0  0  # atno 17321 bound_to 7965
  140.2346  143.3709  152.1537 LP  0  0  0  0  0  0  0  0  0  0  0  0  # atno 17342 bound_to 10162
  139.5217  144.7050  151.5382 LP  0  0  0  0  0  0  0  0  0  0  0  0  # atno 17343 bound_to 10162
  155.9819  130.4829  150.6851 LP  0  0  0  0  0  0  0  0  0  0  0  0  # atno 17370 bound_to 10713
  157.4437  131.0864  151.0917 LP  0  0  0  0  0  0  0  0  0  0  0  0  # atno 17371 bound_to 10713
  140.2706  134.8395  157.3844 LP  0  0  0  0  0  0  0  0  0  0  0  0  # atno 17394 bound_to 11000
  140.1525  134.4832  155.7951 LP  0  0  0  0  0  0  0  0  0  0  0  0  # atno 17395 bound_to 11000

$$$$
