AV-unprocessed.smi:3348|AV-procd|sdf|12920|dock6
  -GOLD-   2272019343D 1   1.00000     0.00000
 Structure written by MMmdl.
 47 48  0  0  0  0  0  0  0  0  2 V2000
  145.6565  135.9408  150.8963 C   0  0  0  0  0  0  0  0  0  0  0  0
  145.3884  135.9319  152.4070 C   0  0  1  0  0  0  0  0  0  0  0  0
  144.7349  134.6068  152.8479 C   0  0  0  0  0  0  0  0  0  0  0  0
  144.8834  133.5550  151.8572 N   0  0  0  0  0  0  0  0  0  0  0  0
  143.9088  132.9661  151.0793 C   0  0  0  0  0  0  0  0  0  0  0  0
  144.5224  132.0225  150.3063 C   0  0  0  0  0  0  0  0  0  0  0  0
  145.8909  132.1107  150.6857 C   0  0  0  0  0  0  0  0  0  0  0  0
  146.1039  133.0279  151.6156 N   0  0  0  0  0  0  0  0  0  0  0  0
  146.6569  136.1582  153.1350 N   0  3  0  0  0  0  0  0  0  0  0  0
  146.7331  137.4398  153.8657 C   0  0  0  0  0  0  0  0  0  0  0  0
  147.7144  137.3415  155.0363 C   0  0  0  0  0  0  0  0  0  0  0  0
  148.2517  138.6309  155.2869 O   0  0  0  0  0  0  0  0  0  0  0  0
  149.0095  139.1707  154.2094 C   0  0  2  0  0  0  0  0  0  0  0  0
  150.3386  138.3962  154.1362 C   0  0  0  0  0  0  0  0  0  0  0  0
  151.2198  138.6482  155.3713 C   0  0  0  0  0  0  0  0  0  0  0  0
  151.4651  140.1494  155.5831 C   0  0  0  0  0  0  0  0  0  0  0  0
  150.1406  140.9237  155.6739 C   0  0  0  0  0  0  0  0  0  0  0  0
  149.2568  140.6814  154.4341 C   0  0  2  0  0  0  0  0  0  0  0  0
  147.9531  141.4920  154.4992 C   0  0  0  0  0  0  0  0  0  0  0  0
  144.7327  135.8065  150.3327 H   0  0  0  0  0  0  0  0  0  0  0  0
  146.3404  135.1414  150.6081 H   0  0  0  0  0  0  0  0  0  0  0  0
  146.0980  136.8870  150.5816 H   0  0  0  0  0  0  0  0  0  0  0  0
  144.6952  136.7477  152.6210 H   0  0  0  0  0  0  0  0  0  0  0  0
  145.1883  134.2576  153.7766 H   0  0  0  0  0  0  0  0  0  0  0  0
  143.6733  134.7496  153.0574 H   0  0  0  0  0  0  0  0  0  0  0  0
  142.8720  133.2630  151.1405 H   0  0  0  0  0  0  0  0  0  0  0  0
  144.0638  131.3694  149.5788 H   0  0  0  0  0  0  0  0  0  0  0  0
  146.7295  131.5391  150.3163 H   0  0  0  0  0  0  0  0  0  0  0  0
  146.7774  135.4043  153.7967 H   0  0  0  0  0  0  0  0  0  0  0  0
  147.0329  138.2365  153.1839 H   0  0  0  0  0  0  0  0  0  0  0  0
  145.7427  137.6934  154.2456 H   0  0  0  0  0  0  0  0  0  0  0  0
  147.1937  136.9863  155.9265 H   0  0  0  0  0  0  0  0  0  0  0  0
  148.5036  136.6234  154.8095 H   0  0  0  0  0  0  0  0  0  0  0  0
  148.4884  139.0313  153.2599 H   0  0  0  0  0  0  0  0  0  0  0  0
  150.1429  137.3287  154.0300 H   0  0  0  0  0  0  0  0  0  0  0  0
  150.8825  138.6977  153.2401 H   0  0  0  0  0  0  0  0  0  0  0  0
  150.7417  138.2276  156.2568 H   0  0  0  0  0  0  0  0  0  0  0  0
  152.1718  138.1290  155.2597 H   0  0  0  0  0  0  0  0  0  0  0  0
  152.0496  140.3060  156.4900 H   0  0  0  0  0  0  0  0  0  0  0  0
  152.0623  140.5415  154.7590 H   0  0  0  0  0  0  0  0  0  0  0  0
  149.6047  140.6263  156.5763 H   0  0  0  0  0  0  0  0  0  0  0  0
  150.3507  141.9888  155.7784 H   0  0  0  0  0  0  0  0  0  0  0  0
  149.8093  141.0478  153.5674 H   0  0  0  0  0  0  0  0  0  0  0  0
  147.3509  141.2129  155.3640 H   0  0  0  0  0  0  0  0  0  0  0  0
  147.3494  141.3380  153.6046 H   0  0  0  0  0  0  0  0  0  0  0  0
  148.1611  142.5596  154.5743 H   0  0  0  0  0  0  0  0  0  0  0  0
  147.4192  136.1279  152.4728 H   0  0  0  0  0  0  0  0  0  0  0  0
  1  2  1  0  0  0  0
  1 20  1  0  0  0  0
  1 21  1  0  0  0  0
  1 22  1  0  0  0  0
  2  3  1  0  0  0  0
  2  9  1  0  0  0  0
  2 23  1  0  0  0  0
  3  4  1  0  0  0  0
  3 24  1  0  0  0  0
  3 25  1  0  0  0  0
  4  8  1  0  0  0  0
  4  5  1  0  0  0  0
  5  6  2  0  0  0  0
  5 26  1  0  0  0  0
  6  7  1  0  0  0  0
  6 27  1  0  0  0  0
  7  8  2  0  0  0  0
  7 28  1  0  0  0  0
  9 10  1  0  0  0  0
  9 29  1  0  0  0  0
  9 47  1  0  0  0  0
 10 11  1  0  0  0  0
 10 30  1  0  0  0  0
 10 31  1  0  0  0  0
 11 12  1  0  0  0  0
 11 32  1  0  0  0  0
 11 33  1  0  0  0  0
 12 13  1  0  0  0  0
 13 18  1  0  0  0  0
 13 14  1  0  0  0  0
 13 34  1  0  0  0  0
 14 15  1  0  0  0  0
 14 35  1  0  0  0  0
 14 36  1  0  0  0  0
 15 16  1  0  0  0  0
 15 37  1  0  0  0  0
 15 38  1  0  0  0  0
 16 17  1  0  0  0  0
 16 39  1  0  0  0  0
 16 40  1  0  0  0  0
 17 18  1  0  0  0  0
 17 41  1  0  0  0  0
 17 42  1  0  0  0  0
 18 19  1  0  0  0  0
 18 43  1  0  0  0  0
 19 44  1  0  0  0  0
 19 45  1  0  0  0  0
 19 46  1  0  0  0  0
M  CHG  1   9   1
M  END
> <s_m_source_file>
AV-unprocessed.smi

> <i_m_source_file_index>
3348

> <i_lp_mmshare_version>
43012

> <i_f3d_flags>
0

> <s_epik_input>
bjFbY0hdW2NIXVtjSF1uMVtDSDJdW0NAQEhdKFtDSDNdKVtOSF1bQ0gyXVtDSDJdT1tDQEBIXTJbQ0gyXVtDSDJdW0NIMl1bQ0gyXVtDQEhdMltDSDNd

> <s_epik_cmdline>
J2VwaWtfcHl0aG9uJywgJy1waCcsICc3LjAnLCAnLXRuJywgJzgnLCAnLW1hJywgJzIwMCcsICctbWV0YWxfYmluZGluZycsICctaW1hZScsICc8aW5maWxlLm1hZT4nLCAnLW9tYWUnLCAnPG91dGZpbGUubWFlPic=

> <r_lp_tautomer_probability>
1

> <r_epik_Ionization_Penalty>
0.00925088

> <r_epik_Ionization_Penalty_Charging>
0.00924645

> <r_epik_Ionization_Penalty_Neutral>
4.42413e-06

> <r_epik_State_Penalty>
0.0070118

> <r_epik_Charging_Adjusted_Penalty>
0.0162583

> <i_epik_Tot_Q>
1

> <i_epik_Tot_abs_Q>
1

> <r_epik_Metal_State_Penalty>
0.00701222

> <b_epik_Metal_Only>
0

> <s_lp_Force_Field>
OPLS_2005

> <r_lp_Energy>
18.0188

> <b_lp_Chiralities_Consistent>
1

> <s_lp_Variant>
AV-unprocessed.smi:3348-6

> <Gold.Version>
5.8.1

> <Gold.Id.Protein>
6NUR|6NUR_protein|mol2

> <Gold.PLP.Fitness>
44.8972

> <Gold.PLP.PLP>
-36.4599

> <Gold.PLP.part.hbond>
-1.0000

> <Gold.PLP.part.metal>
0.0000

> <Gold.PLP.part.buried>
-4.3023

> <Gold.PLP.part.nonpolar>
-32.0276

> <Gold.PLP.part.repulsive>
0.1987

> <Gold.PLP.ligand.clash>
0.0000

> <Gold.PLP.ligand.torsion>
1.8249

> <Gold.PLP.Chemscore.Hbond>
2.0000

> <Gold.PLP.Chemscore.CHOScore>
2.0000

> <Gold.PLP.Chemscore.Metal>
0.0000

> <Gold.Chemscore.Hbonds>
donor molecule, donor type, donor heavy atom, donor atom, acceptor molecule, acceptor atom, score
      L1  H     9    47       P1  7948  2.00
      L1  C     5    26       P1 10186  0.56
      L1  C     7    28       P1 10747  1.00

> <Gold.PLP.Chemscore.Internal.Correction>
0.0870

> <Gold.Rescore>
     Score         DG    S(hbond)    S(metal)    S(lipo)     H(rot)  DE(clash)    DE(int)     intcor
     14.05     -15.85       0.99        0.00     100.25       1.82       0.04       1.76       ----

> <Gold.Chemscore.Fitness>
14.0544

> <Gold.Chemscore.DG>
-15.8530

> <Gold.Chemscore.ZeroCoef>
-5.4800

> <Gold.Chemscore.Hbond>
0.9862

> <Gold.Chemscore.Metal>
0.0000

> <Gold.Chemscore.Lipo>
100.2466

> <Gold.Chemscore.Internal_Hbond>
0.0000

> <Gold.Chemscore.DEClash>
0.0432

> <Gold.Chemscore.DEInternal>
1.7554

> <Gold.Chemscore.Rot>
1.8163

> <Gold.Chemscore.Internal.Correction>
   9.000000E+99

> <Gold.Chemscore.Hbonds>
donor molecule, donor type, donor heavy atom, donor atom, acceptor molecule, acceptor atom, score
      L1  H     9    47       P1  7948  0.99

> <Gold.Chemscore.Hbond.Weighted>
-3.2939

> <Gold.Chemscore.Metal.Weighted>
-0.0000

> <Gold.Chemscore.Lipo.Weighted>
-11.7289

> <Gold.Chemscore.Internal_Hbond.Weighted>
0.0000

> <Gold.Chemscore.DEClash.Weighted>
0.0432

> <Gold.Chemscore.DEInternal.Weighted>
1.7554

> <Gold.Chemscore.Rot.Weighted>
4.6497

> <Gold.Chemscore.Internal.Correction.Weighted>
   9.000000E+99

> <Gold.Protein.RotatedTorsions>
[ 6907 6896 6895 6894 ] final  143.13 input  -60.11 | X-H torsion
[ 7974 7965 7964 7962 ] final  178.83 input  175.53 | X-H torsion
[ 8008 7997 7996 7995 ] final  139.62 input   59.86 | X-H torsion
[ 10167 10162 10161 10158 ] final  -89.71 input  -65.29 | X-H torsion
[ 10718 10713 10712 10709 ] final  145.01 input   66.30 | X-H torsion
[ 10763 10752 10751 10750 ] final  112.36 input  -60.55 | X-H torsion
[ 11005 11000 10999 10996 ] final  112.63 input  -57.11 | X-H torsion

> <Gold.Protein.ActiveResidues>
 VAL166  LYS551  ARG553  GLY616  TRP617  ASP618  TYR619  PRO620  LYS621  CYS622 
 ASP623  PHE694  ASN695  SER759  ASP760  ASP761  ALA762  ILE779  LEU786  VAL792 
 PHE793  MET794  SER795  GLU796  ALA797  LYS798  CYS799  TRP800  GLU811  SER814 

> <Gold.Protein.RotatedAtoms>
  152.2101  133.4904  159.5104 H   0  0  0  0  0  0  0  0  0  0  0  0  # atno 6907 bound_to 6896
  150.6988  134.1478  159.4138 H   0  0  0  0  0  0  0  0  0  0  0  0  # atno 6908 bound_to 6896
  151.9398  135.0218  160.0585 H   0  0  0  0  0  0  0  0  0  0  0  0  # atno 6909 bound_to 6896
  144.7152  140.0457  143.6436 H   0  0  0  0  0  0  0  0  0  0  0  0  # atno 7974 bound_to 7965
  156.2988  140.2363  156.4268 H   0  0  0  0  0  0  0  0  0  0  0  0  # atno 8008 bound_to 7997
  154.8306  140.0433  157.1495 H   0  0  0  0  0  0  0  0  0  0  0  0  # atno 8009 bound_to 7997
  154.9212  140.3004  155.5219 H   0  0  0  0  0  0  0  0  0  0  0  0  # atno 8010 bound_to 7997
  140.3621  143.2836  151.9602 H   0  0  0  0  0  0  0  0  0  0  0  0  # atno 10167 bound_to 10162
  157.3504  131.0950  151.1005 H   0  0  0  0  0  0  0  0  0  0  0  0  # atno 10718 bound_to 10713
  153.4766  135.3688  155.2420 H   0  0  0  0  0  0  0  0  0  0  0  0  # atno 10763 bound_to 10752
  154.8756  135.3944  154.3749 H   0  0  0  0  0  0  0  0  0  0  0  0  # atno 10764 bound_to 10752
  153.4346  135.7083  153.6273 H   0  0  0  0  0  0  0  0  0  0  0  0  # atno 10765 bound_to 10752
  139.8932  134.9534  156.6615 H   0  0  0  0  0  0  0  0  0  0  0  0  # atno 11005 bound_to 11000
  145.9986  139.3073  143.0941 LP  0  0  0  0  0  0  0  0  0  0  0  0  # atno 17320 bound_to 7965
  145.8819  140.9357  143.0596 LP  0  0  0  0  0  0  0  0  0  0  0  0  # atno 17321 bound_to 7965
  139.4813  144.5983  151.7651 LP  0  0  0  0  0  0  0  0  0  0  0  0  # atno 17342 bound_to 10162
  140.5117  144.1015  150.5997 LP  0  0  0  0  0  0  0  0  0  0  0  0  # atno 17343 bound_to 10162
  157.2183  130.6469  149.5801 LP  0  0  0  0  0  0  0  0  0  0  0  0  # atno 17370 bound_to 10713
  155.9720  130.4637  150.6193 LP  0  0  0  0  0  0  0  0  0  0  0  0  # atno 17371 bound_to 10713
  140.7443  133.8951  155.8301 LP  0  0  0  0  0  0  0  0  0  0  0  0  # atno 17394 bound_to 11000
  141.0052  134.1096  157.4277 LP  0  0  0  0  0  0  0  0  0  0  0  0  # atno 17395 bound_to 11000

$$$$
