AV-unprocessed.smi:193|AV-procd|sdf|1512|dock2
  -GOLD-   2262019343D 1   1.00000     0.00000
 Structure written by MMmdl.
 61 65  0  0  0  0  0  0  0  0  1 V2000
  147.9653  140.4416  156.1709 C   0  0  0  0  0  0  0  0  0  0  0  0
  149.4088  140.5712  156.6827 C   0  0  2  0  0  0  0  0  0  0  0  0
  149.8226  139.2621  157.3894 C   0  0  0  0  0  0  0  0  0  0  0  0
  151.2690  139.0834  157.5372 N   0  0  0  0  0  0  0  0  0  0  0  0
  151.7769  137.8425  157.3078 C   0  0  0  0  0  0  0  0  0  0  0  0
  153.0566  137.5716  157.6808 N   0  0  0  0  0  0  0  0  0  0  0  0
  153.5895  136.3673  157.4577 C   0  0  0  0  0  0  0  0  0  0  0  0
  153.0285  135.3007  156.8869 N   0  0  0  0  0  0  0  0  0  0  0  0
  151.7416  135.5570  156.5174 C   0  0  0  0  0  0  0  0  0  0  0  0
  151.0442  136.7876  156.6869 C   0  0  0  0  0  0  0  0  0  0  0  0
  149.7498  136.6624  156.1937 N   0  0  0  0  0  0  0  0  0  0  0  0
  149.6914  135.4381  155.7474 C   0  0  0  0  0  0  0  0  0  0  0  0
  150.8400  134.6979  155.9126 N   0  0  0  0  0  0  0  0  0  0  0  0
  151.0486  133.3140  155.5116 C   0  0  0  0  0  0  0  0  0  0  0  0
  150.2248  132.2825  156.3303 C   0  0  0  0  0  0  0  0  0  0  0  0
  150.2685  132.6798  157.6884 O   0  0  0  0  0  0  0  0  0  0  0  0
  148.7428  132.2701  155.9060 C   0  0  0  0  0  0  0  0  0  0  0  0
  148.5435  131.5545  154.5577 C   0  0  0  0  0  0  0  0  0  0  0  0
  149.0696  130.2334  154.6240 O   0  0  0  0  0  0  0  0  0  0  0  0
  150.4693  130.2026  154.8811 C   0  0  0  0  0  0  0  0  0  0  0  0
  150.7647  130.8382  156.2513 C   0  0  0  0  0  0  0  0  0  0  0  0
  152.1808  140.2275  157.5577 C   0  0  0  0  0  0  0  0  0  0  0  0
  151.7113  141.3488  158.4949 C   0  0  0  0  0  0  0  0  0  0  0  0
  150.8728  142.3035  157.7763 N   0  0  0  0  0  0  0  0  0  0  0  0
  150.8041  143.5298  158.5567 C   0  0  2  0  0  0  0  0  0  0  0  0
  151.5399  144.7384  158.0236 C   0  0  0  0  0  0  0  0  0  0  0  0
  152.0744  144.0041  159.2305 C   0  0  1  0  0  0  0  0  0  0  0  0
  152.0287  144.6436  160.6011 C   0  0  0  0  0  0  0  0  0  0  0  0
  149.5111  141.7950  157.6198 C   0  0  0  0  0  0  0  0  0  0  0  0
  147.2677  140.2719  156.9916 H   0  0  0  0  0  0  0  0  0  0  0  0
  147.8671  139.6099  155.4728 H   0  0  0  0  0  0  0  0  0  0  0  0
  147.6495  141.3437  155.6462 H   0  0  0  0  0  0  0  0  0  0  0  0
  150.0361  140.7280  155.8036 H   0  0  0  0  0  0  0  0  0  0  0  0
  149.3517  139.1954  158.3705 H   0  0  0  0  0  0  0  0  0  0  0  0
  149.4288  138.4306  156.8035 H   0  0  0  0  0  0  0  0  0  0  0  0
  154.6120  136.2412  157.7824 H   0  0  0  0  0  0  0  0  0  0  0  0
  148.8000  135.0363  155.2875 H   0  0  0  0  0  0  0  0  0  0  0  0
  150.7998  133.2327  154.4526 H   0  0  0  0  0  0  0  0  0  0  0  0
  152.1151  133.1015  155.5811 H   0  0  0  0  0  0  0  0  0  0  0  0
  149.4384  132.4697  158.0882 H   0  0  0  0  0  0  0  0  0  0  0  0
  148.1501  131.7481  156.6592 H   0  0  0  0  0  0  0  0  0  0  0  0
  148.3467  133.2852  155.8570 H   0  0  0  0  0  0  0  0  0  0  0  0
  147.4807  131.4941  154.3234 H   0  0  0  0  0  0  0  0  0  0  0  0
  149.0124  132.1047  153.7412 H   0  0  0  0  0  0  0  0  0  0  0  0
  150.8036  129.1652  154.8730 H   0  0  0  0  0  0  0  0  0  0  0  0
  151.0063  130.7111  154.0804 H   0  0  0  0  0  0  0  0  0  0  0  0
  151.8321  130.7982  156.4677 H   0  0  0  0  0  0  0  0  0  0  0  0
  150.2832  130.2276  157.0169 H   0  0  0  0  0  0  0  0  0  0  0  0
  153.1508  139.8923  157.9271 H   0  0  0  0  0  0  0  0  0  0  0  0
  152.3505  140.5976  156.5457 H   0  0  0  0  0  0  0  0  0  0  0  0
  151.2240  140.9637  159.3923 H   0  0  0  0  0  0  0  0  0  0  0  0
  152.6043  141.8772  158.8319 H   0  0  0  0  0  0  0  0  0  0  0  0
  149.8815  143.7506  159.0914 H   0  0  0  0  0  0  0  0  0  0  0  0
  152.0892  144.6318  157.0900 H   0  0  0  0  0  0  0  0  0  0  0  0
  151.0803  145.7117  158.1827 H   0  0  0  0  0  0  0  0  0  0  0  0
  152.9649  143.4011  159.0620 H   0  0  0  0  0  0  0  0  0  0  0  0
  151.1226  145.2379  160.7220 H   0  0  0  0  0  0  0  0  0  0  0  0
  152.8925  145.2939  160.7396 H   0  0  0  0  0  0  0  0  0  0  0  0
  152.0449  143.8738  161.3727 H   0  0  0  0  0  0  0  0  0  0  0  0
  148.9136  142.6018  157.1928 H   0  0  0  0  0  0  0  0  0  0  0  0
  149.0700  141.5722  158.5928 H   0  0  0  0  0  0  0  0  0  0  0  0
  1  2  1  0  0  0  0
  1 30  1  0  0  0  0
  1 31  1  0  0  0  0
  1 32  1  0  0  0  0
  2 29  1  0  0  0  0
  2  3  1  0  0  0  0
  2 33  1  0  0  0  0
  3  4  1  0  0  0  0
  3 34  1  0  0  0  0
  3 35  1  0  0  0  0
  4  5  1  0  0  0  0
  4 22  1  0  0  0  0
  5 10  1  0  0  0  0
  5  6  2  0  0  0  0
  6  7  1  0  0  0  0
  7  8  2  0  0  0  0
  7 36  1  0  0  0  0
  8  9  1  0  0  0  0
  9 13  1  0  0  0  0
  9 10  2  0  0  0  0
 10 11  1  0  0  0  0
 11 12  2  0  0  0  0
 12 13  1  0  0  0  0
 12 37  1  0  0  0  0
 13 14  1  0  0  0  0
 14 15  1  0  0  0  0
 14 38  1  0  0  0  0
 14 39  1  0  0  0  0
 15 21  1  0  0  0  0
 15 16  1  0  0  0  0
 15 17  1  0  0  0  0
 16 40  1  0  0  0  0
 17 18  1  0  0  0  0
 17 41  1  0  0  0  0
 17 42  1  0  0  0  0
 18 19  1  0  0  0  0
 18 43  1  0  0  0  0
 18 44  1  0  0  0  0
 19 20  1  0  0  0  0
 20 21  1  0  0  0  0
 20 45  1  0  0  0  0
 20 46  1  0  0  0  0
 21 47  1  0  0  0  0
 21 48  1  0  0  0  0
 22 23  1  0  0  0  0
 22 49  1  0  0  0  0
 22 50  1  0  0  0  0
 23 24  1  0  0  0  0
 23 51  1  0  0  0  0
 23 52  1  0  0  0  0
 24 25  1  0  0  0  0
 24 29  1  0  0  0  0
 25 27  1  0  0  0  0
 25 26  1  0  0  0  0
 25 53  1  0  0  0  0
 26 27  1  0  0  0  0
 26 54  1  0  0  0  0
 26 55  1  0  0  0  0
 27 28  1  0  0  0  0
 27 56  1  0  0  0  0
 28 57  1  0  0  0  0
 28 58  1  0  0  0  0
 28 59  1  0  0  0  0
 29 60  1  0  0  0  0
 29 61  1  0  0  0  0
M  END
> <s_m_source_file>
AV-unprocessed.smi

> <i_m_source_file_index>
193

> <i_lp_mmshare_version>
43012

> <i_f3d_flags>
0

> <s_epik_input>
W0NIM11bQ0BASF0xW0NIMl1bQ0BIXTFOKFtDSDJdMilbQ0gyXVtDSDJdTihbQ0gyXVtDQEhdMltDSDNdKWMobltjSF1uMyljKGMzNCluW2NIXW40W0NIMl1DNShbT0hdKVtDSDJdW0NIMl1PW0NIMl1bQ0gyXTU=

> <s_epik_cmdline>
J2VwaWtfcHl0aG9uJywgJy1waCcsICc3LjAnLCAnLXRuJywgJzgnLCAnLW1hJywgJzIwMCcsICctbWV0YWxfYmluZGluZycsICctaW1hZScsICc8aW5maWxlLm1hZT4nLCAnLW9tYWUnLCAnPG91dGZpbGUubWFlPic=

> <r_lp_tautomer_probability>
1

> <r_epik_Ionization_Penalty>
1.45227

> <r_epik_Ionization_Penalty_Charging>
0

> <r_epik_Ionization_Penalty_Neutral>
1.45227

> <r_epik_State_Penalty>
2.02377

> <r_epik_Charging_Adjusted_Penalty>
2.02377

> <i_epik_Tot_Q>
0

> <i_epik_Tot_abs_Q>
0

> <r_epik_Metal_State_Penalty>
2.01937

> <b_epik_Metal_Only>
0

> <s_lp_Force_Field>
OPLS_2005

> <r_lp_Energy>
48.8748

> <b_lp_Chiralities_Consistent>
1

> <s_lp_Variant>
AV-unprocessed.smi:193-17

> <Gold.Version>
5.8.1

> <Gold.Id.Protein>
6NUR|6NUR_protein|mol2

> <Gold.PLP.Fitness>
41.7387

> <Gold.PLP.PLP>
-37.2234

> <Gold.PLP.part.hbond>
-2.1778

> <Gold.PLP.part.metal>
0.0000

> <Gold.PLP.part.buried>
-6.8082

> <Gold.PLP.part.nonpolar>
-28.6577

> <Gold.PLP.part.repulsive>
0.1428

> <Gold.PLP.ligand.clash>
0.0000

> <Gold.PLP.ligand.torsion>
1.3743

> <Gold.PLP.Chemscore.Hbond>
2.0000

> <Gold.PLP.Chemscore.CHOScore>
0.0000

> <Gold.PLP.Chemscore.Metal>
0.0000

> <Gold.Chemscore.Hbonds>
donor molecule, donor type, donor heavy atom, donor atom, acceptor molecule, acceptor atom, score
      P1  H  6896  6908       L1    16  0.80
      P1  H 10752 10764       L1     8  1.00

> <Gold.PLP.Chemscore.Internal.Correction>
1.2639

> <Gold.Rescore>
     Score         DG    S(hbond)    S(metal)    S(lipo)     H(rot)  DE(clash)    DE(int)     intcor
     13.95     -16.74       0.97        0.00     110.31       1.91       0.01       2.78       ----

> <Gold.Chemscore.Fitness>
13.9478

> <Gold.Chemscore.DG>
-16.7375

> <Gold.Chemscore.ZeroCoef>
-5.4800

> <Gold.Chemscore.Hbond>
0.9679

> <Gold.Chemscore.Metal>
0.0000

> <Gold.Chemscore.Lipo>
110.3095

> <Gold.Chemscore.Internal_Hbond>
0.0000

> <Gold.Chemscore.DEClash>
0.0121

> <Gold.Chemscore.DEInternal>
2.7776

> <Gold.Chemscore.Rot>
1.9068

> <Gold.Chemscore.Internal.Correction>
   9.000000E+99

> <Gold.Chemscore.Hbonds>
donor molecule, donor type, donor heavy atom, donor atom, acceptor molecule, acceptor atom, score
      P1  H  6896  6908       L1    16  0.12
      P1  H 10752 10764       L1     8  0.09

> <Gold.Chemscore.Hbond.Weighted>
-3.2327

> <Gold.Chemscore.Metal.Weighted>
-0.0000

> <Gold.Chemscore.Lipo.Weighted>
-12.9062

> <Gold.Chemscore.Internal_Hbond.Weighted>
0.0000

> <Gold.Chemscore.DEClash.Weighted>
0.0121

> <Gold.Chemscore.DEInternal.Weighted>
2.7776

> <Gold.Chemscore.Rot.Weighted>
4.8814

> <Gold.Chemscore.Internal.Correction.Weighted>
   9.000000E+99

> <Gold.Protein.RotatedTorsions>
[ 6907 6896 6895 6894 ] final  100.39 input  -60.11 | X-H torsion
[ 7974 7965 7964 7962 ] final  -78.44 input  175.53 | X-H torsion
[ 8008 7997 7996 7995 ] final   19.29 input   59.86 | X-H torsion
[ 10167 10162 10161 10158 ] final  126.09 input  -65.29 | X-H torsion
[ 10718 10713 10712 10709 ] final  175.83 input   66.30 | X-H torsion
[ 10763 10752 10751 10750 ] final   16.37 input  -60.55 | X-H torsion
[ 11005 11000 10999 10996 ] final  -15.30 input  -57.11 | X-H torsion

> <Gold.Protein.ActiveResidues>
 VAL166  LYS551  ARG553  GLY616  TRP617  ASP618  TYR619  PRO620  LYS621  CYS622 
 ASP623  PHE694  ASN695  SER759  ASP760  ASP761  ALA762  ILE779  LEU786  VAL792 
 PHE793  MET794  SER795  GLU796  ALA797  LYS798  CYS799  TRP800  GLU811  SER814 

> <Gold.Protein.RotatedAtoms>
  152.5373  134.0284  159.8013 H   0  0  0  0  0  0  0  0  0  0  0  0  # atno 6907 bound_to 6896
  151.0459  133.5658  159.2654 H   0  0  0  0  0  0  0  0  0  0  0  0  # atno 6908 bound_to 6896
  151.2610  135.0661  159.9152 H   0  0  0  0  0  0  0  0  0  0  0  0  # atno 6909 bound_to 6896
  145.5865  140.9438  143.1315 H   0  0  0  0  0  0  0  0  0  0  0  0  # atno 7974 bound_to 7965
  154.9186  140.3024  155.5228 H   0  0  0  0  0  0  0  0  0  0  0  0  # atno 8008 bound_to 7997
  156.3011  140.2375  156.4169 H   0  0  0  0  0  0  0  0  0  0  0  0  # atno 8009 bound_to 7997
  154.8353  140.0416  157.1494 H   0  0  0  0  0  0  0  0  0  0  0  0  # atno 8010 bound_to 7997
  139.5650  144.6905  151.3936 H   0  0  0  0  0  0  0  0  0  0  0  0  # atno 10167 bound_to 10162
  156.9291  130.9965  151.2990 H   0  0  0  0  0  0  0  0  0  0  0  0  # atno 10718 bound_to 10713
  153.1438  135.6765  153.8987 H   0  0  0  0  0  0  0  0  0  0  0  0  # atno 10763 bound_to 10752
  153.8435  135.3102  155.3429 H   0  0  0  0  0  0  0  0  0  0  0  0  # atno 10764 bound_to 10752
  154.7808  135.4889  153.9926 H   0  0  0  0  0  0  0  0  0  0  0  0  # atno 10765 bound_to 10752
  140.7952  133.8257  155.9417 H   0  0  0  0  0  0  0  0  0  0  0  0  # atno 11005 bound_to 11000
  144.7370  139.7556  143.7325 LP  0  0  0  0  0  0  0  0  0  0  0  0  # atno 17320 bound_to 7965
  146.1678  139.4817  142.9947 LP  0  0  0  0  0  0  0  0  0  0  0  0  # atno 17321 bound_to 7965
  140.6933  143.7810  150.7288 LP  0  0  0  0  0  0  0  0  0  0  0  0  # atno 17342 bound_to 10162
  140.1299  143.4535  152.2261 LP  0  0  0  0  0  0  0  0  0  0  0  0  # atno 17343 bound_to 10162
  157.5859  130.8409  149.8588 LP  0  0  0  0  0  0  0  0  0  0  0  0  # atno 17370 bound_to 10713
  156.0455  130.3729  150.1327 LP  0  0  0  0  0  0  0  0  0  0  0  0  # atno 17371 bound_to 10713
  140.9350  134.1974  157.4838 LP  0  0  0  0  0  0  0  0  0  0  0  0  # atno 17394 bound_to 11000
  139.8727  134.9848  156.5256 LP  0  0  0  0  0  0  0  0  0  0  0  0  # atno 17395 bound_to 11000

$$$$
