AV-unprocessed.smi:1284|AV-procd|sdf|5363|dock7
  -GOLD-   22720 4503D 1   1.00000     0.00000
 Structure written by MMmdl.
 39 41  0  0  0  0  0  0  0  0  1 V2000
  151.3485  138.1898  154.4621 N   0  0  0  0  0  0  0  0  0  0  0  0
  152.3228  138.7449  155.1886 C   0  0  0  0  0  0  0  0  0  0  0  0
  153.0250  139.6561  154.7559 O   0  0  0  0  0  0  0  0  0  0  0  0
  152.5304  138.2114  156.6093 C   0  0  0  0  0  0  0  0  0  0  0  0
  152.5938  139.3746  157.5600 C   0  0  0  0  0  0  0  0  0  0  0  0
  153.6418  139.5632  158.3653 N   0  0  0  0  0  0  0  0  0  0  0  0
  153.2934  140.7052  159.0590 C   0  0  0  0  0  0  0  0  0  0  0  0
  153.9890  141.4193  160.0607 C   0  0  0  0  0  0  0  0  0  0  0  0
  153.4227  142.5753  160.6367 C   0  0  0  0  0  0  0  0  0  0  0  0
  152.1558  143.0331  160.2202 C   0  0  0  0  0  0  0  0  0  0  0  0
  151.4471  142.3373  159.2219 C   0  0  0  0  0  0  0  0  0  0  0  0
  152.0173  141.1842  158.6501 C   0  0  0  0  0  0  0  0  0  0  0  0
  151.5949  140.2891  157.6728 N   0  0  0  0  0  0  0  0  0  0  0  0
  150.3332  140.3579  156.9469 C   0  0  0  0  0  0  0  0  0  0  0  0
  150.3680  141.3747  155.7885 C   0  0  2  0  0  0  0  0  0  0  0  0
  150.4625  142.6912  156.2972 O   0  0  0  0  0  0  0  0  0  0  0  0
  149.1699  141.2017  154.8687 C   0  0  0  0  0  0  0  0  0  0  0  0
  148.9326  139.9593  154.2421 C   0  0  0  0  0  0  0  0  0  0  0  0
  147.8197  139.7928  153.3949 C   0  0  0  0  0  0  0  0  0  0  0  0
  146.9370  140.8667  153.1709 C   0  0  0  0  0  0  0  0  0  0  0  0
  147.1658  142.1069  153.7970 C   0  0  0  0  0  0  0  0  0  0  0  0
  148.2783  142.2739  154.6443 C   0  0  0  0  0  0  0  0  0  0  0  0
  151.1848  138.5059  153.5174 H   0  0  0  0  0  0  0  0  0  0  0  0
  150.7856  137.4498  154.8566 H   0  0  0  0  0  0  0  0  0  0  0  0
  151.7293  137.5261  156.8857 H   0  0  0  0  0  0  0  0  0  0  0  0
  153.4611  137.6447  156.6618 H   0  0  0  0  0  0  0  0  0  0  0  0
  154.9595  141.0760  160.3873 H   0  0  0  0  0  0  0  0  0  0  0  0
  153.9625  143.1125  161.4026 H   0  0  0  0  0  0  0  0  0  0  0  0
  151.7284  143.9186  160.6676 H   0  0  0  0  0  0  0  0  0  0  0  0
  150.4765  142.6846  158.9003 H   0  0  0  0  0  0  0  0  0  0  0  0
  150.1175  139.3628  156.5562 H   0  0  0  0  0  0  0  0  0  0  0  0
  149.5227  140.5873  157.6371 H   0  0  0  0  0  0  0  0  0  0  0  0
  151.2734  141.2060  155.2042 H   0  0  0  0  0  0  0  0  0  0  0  0
  149.8432  143.2350  155.8350 H   0  0  0  0  0  0  0  0  0  0  0  0
  149.6019  139.1284  154.4095 H   0  0  0  0  0  0  0  0  0  0  0  0
  147.6426  138.8403  152.9174 H   0  0  0  0  0  0  0  0  0  0  0  0
  146.0837  140.7385  152.5210 H   0  0  0  0  0  0  0  0  0  0  0  0
  146.4878  142.9305  153.6287 H   0  0  0  0  0  0  0  0  0  0  0  0
  148.4441  143.2274  155.1247 H   0  0  0  0  0  0  0  0  0  0  0  0
  1  2  1  0  0  0  0
  1 23  1  0  0  0  0
  1 24  1  0  0  0  0
  2  3  2  0  0  0  0
  2  4  1  0  0  0  0
  4  5  1  0  0  0  0
  4 25  1  0  0  0  0
  4 26  1  0  0  0  0
  5 13  1  0  0  0  0
  5  6  2  0  0  0  0
  6  7  1  0  0  0  0
  7 12  2  0  0  0  0
  7  8  1  0  0  0  0
  8  9  2  0  0  0  0
  8 27  1  0  0  0  0
  9 10  1  0  0  0  0
  9 28  1  0  0  0  0
 10 11  2  0  0  0  0
 10 29  1  0  0  0  0
 11 12  1  0  0  0  0
 11 30  1  0  0  0  0
 12 13  1  0  0  0  0
 13 14  1  0  0  0  0
 14 15  1  0  0  0  0
 14 31  1  0  0  0  0
 14 32  1  0  0  0  0
 15 16  1  0  0  0  0
 15 17  1  0  0  0  0
 15 33  1  0  0  0  0
 16 34  1  0  0  0  0
 17 22  1  0  0  0  0
 17 18  2  0  0  0  0
 18 19  1  0  0  0  0
 18 35  1  0  0  0  0
 19 20  2  0  0  0  0
 19 36  1  0  0  0  0
 20 21  1  0  0  0  0
 20 37  1  0  0  0  0
 21 22  2  0  0  0  0
 21 38  1  0  0  0  0
 22 39  1  0  0  0  0
M  END
> <s_m_source_file>
AV-unprocessed.smi

> <i_m_source_file_index>
1284

> <i_lp_mmshare_version>
43012

> <i_f3d_flags>
0

> <s_epik_input>
W2NIXTFbY0hdW2NIXVtjSF1jKGMxMiluKGMobjIpW0NIMl1DKD1PKVtOSDJdKVtDSDJdW0NASF0oW09IXSljM1tjSF1bY0hdW2NIXVtjSF1bY0hdMw==

> <s_epik_cmdline>
J2VwaWtfcHl0aG9uJywgJy1waCcsICc3LjAnLCAnLXRuJywgJzgnLCAnLW1hJywgJzIwMCcsICctbWV0YWxfYmluZGluZycsICctaW1hZScsICc8aW5maWxlLm1hZT4nLCAnLW9tYWUnLCAnPG91dGZpbGUubWFlPic=

> <r_epik_Ionization_Penalty>
0.0366899

> <r_epik_Ionization_Penalty_Charging>
0

> <r_epik_Ionization_Penalty_Neutral>
0.0366899

> <r_epik_State_Penalty>
0.0306642

> <r_epik_Charging_Adjusted_Penalty>
0.0306642

> <i_epik_Tot_Q>
0

> <i_epik_Tot_abs_Q>
0

> <r_epik_Metal_State_Penalty>
0.028853

> <b_epik_Metal_Only>
0

> <s_lp_Force_Field>
OPLS_2005

> <r_lp_Energy>
12.351

> <b_lp_Chiralities_Consistent>
1

> <s_lp_Variant>
AV-unprocessed.smi:1284-1

> <Gold.Version>
5.8.1

> <Gold.Id.Protein>
6NUR|6NUR_protein|mol2

> <Gold.PLP.Fitness>
52.1962

> <Gold.PLP.PLP>
-43.4595

> <Gold.PLP.part.hbond>
-4.0000

> <Gold.PLP.part.metal>
0.0000

> <Gold.PLP.part.buried>
0.3250

> <Gold.PLP.part.nonpolar>
-39.0166

> <Gold.PLP.part.repulsive>
0.1452

> <Gold.PLP.ligand.clash>
0.0000

> <Gold.PLP.ligand.torsion>
0.4681

> <Gold.PLP.Chemscore.Hbond>
3.2080

> <Gold.PLP.Chemscore.CHOScore>
0.0000

> <Gold.PLP.Chemscore.Metal>
0.0000

> <Gold.Chemscore.Hbonds>
donor molecule, donor type, donor heavy atom, donor atom, acceptor molecule, acceptor atom, score
      L1  H    16    34       P1  8028  1.00
      P1  H  7989  7998       L1     3  0.22
      P1  H  7997  8008       L1     6  1.00
      P1  H  7997  8009       L1     3  1.00

> <Gold.PLP.Chemscore.Internal.Correction>
0.0489

> <Gold.Rescore>
     Score         DG    S(hbond)    S(metal)    S(lipo)     H(rot)  DE(clash)    DE(int)     intcor
     18.49     -19.72       2.47        0.00     113.76       2.86       0.64       0.60       ----

> <Gold.Chemscore.Fitness>
18.4862

> <Gold.Chemscore.DG>
-19.7234

> <Gold.Chemscore.ZeroCoef>
-5.4800

> <Gold.Chemscore.Hbond>
2.4719

> <Gold.Chemscore.Metal>
0.0000

> <Gold.Chemscore.Lipo>
113.7647

> <Gold.Chemscore.Internal_Hbond>
0.0000

> <Gold.Chemscore.DEClash>
0.6398

> <Gold.Chemscore.DEInternal>
0.5974

> <Gold.Chemscore.Rot>
2.8606

> <Gold.Chemscore.Internal.Correction>
   9.000000E+99

> <Gold.Chemscore.Hbonds>
donor molecule, donor type, donor heavy atom, donor atom, acceptor molecule, acceptor atom, score
      L1  H    16    34       P1  8028  0.96
      P1  H  7989  7998       L1     3  0.12
      P1  H  7997  8008       L1     6  0.24
      P1  H  7997  8009       L1     3  0.94

> <Gold.Chemscore.Hbond.Weighted>
-8.2561

> <Gold.Chemscore.Metal.Weighted>
-0.0000

> <Gold.Chemscore.Lipo.Weighted>
-13.3105

> <Gold.Chemscore.Internal_Hbond.Weighted>
0.0000

> <Gold.Chemscore.DEClash.Weighted>
0.6398

> <Gold.Chemscore.DEInternal.Weighted>
0.5974

> <Gold.Chemscore.Rot.Weighted>
7.3231

> <Gold.Chemscore.Internal.Correction.Weighted>
   9.000000E+99

> <Gold.Protein.RotatedTorsions>
[ 6907 6896 6895 6894 ] final  -26.53 input  -60.11 | X-H torsion
[ 7974 7965 7964 7962 ] final  -10.47 input  175.53 | X-H torsion
[ 8008 7997 7996 7995 ] final -111.20 input   59.86 | X-H torsion
[ 10167 10162 10161 10158 ] final  131.44 input  -65.29 | X-H torsion
[ 10718 10713 10712 10709 ] final    8.08 input   66.30 | X-H torsion
[ 10763 10752 10751 10750 ] final  -85.19 input  -60.55 | X-H torsion
[ 11005 11000 10999 10996 ] final -129.56 input  -57.11 | X-H torsion

> <Gold.Protein.ActiveResidues>
 VAL166  LYS551  ARG553  GLY616  TRP617  ASP618  TYR619  PRO620  LYS621  CYS622 
 ASP623  PHE694  ASN695  SER759  ASP760  ASP761  ALA762  ILE779  LEU786  VAL792 
 PHE793  MET794  SER795  GLU796  ALA797  LYS798  CYS799  TRP800  GLU811  SER814 

> <Gold.Protein.RotatedAtoms>
  151.1597  135.0267  159.8704 H   0  0  0  0  0  0  0  0  0  0  0  0  # atno 6907 bound_to 6896
  152.5451  134.1293  159.8442 H   0  0  0  0  0  0  0  0  0  0  0  0  # atno 6908 bound_to 6896
  151.1387  133.4940  159.2630 H   0  0  0  0  0  0  0  0  0  0  0  0  # atno 6909 bound_to 6896
  146.2220  140.2768  142.8360 H   0  0  0  0  0  0  0  0  0  0  0  0  # atno 7974 bound_to 7965
  154.9862  140.0395  157.2299 H   0  0  0  0  0  0  0  0  0  0  0  0  # atno 8008 bound_to 7997
  154.7670  140.2795  155.6146 H   0  0  0  0  0  0  0  0  0  0  0  0  # atno 8009 bound_to 7997
  156.2914  140.2617  156.2463 H   0  0  0  0  0  0  0  0  0  0  0  0  # atno 8010 bound_to 7997
  139.5384  144.6706  151.4707 H   0  0  0  0  0  0  0  0  0  0  0  0  # atno 10167 bound_to 10162
  156.9464  130.5880  149.5654 H   0  0  0  0  0  0  0  0  0  0  0  0  # atno 10718 bound_to 10713
  154.6082  135.5494  153.7446 H   0  0  0  0  0  0  0  0  0  0  0  0  # atno 10763 bound_to 10752
  153.0184  135.6383  154.1616 H   0  0  0  0  0  0  0  0  0  0  0  0  # atno 10764 bound_to 10752
  154.1554  135.2900  155.3103 H   0  0  0  0  0  0  0  0  0  0  0  0  # atno 10765 bound_to 10752
  140.9421  134.1179  157.4141 H   0  0  0  0  0  0  0  0  0  0  0  0  # atno 11005 bound_to 11000
  144.9227  140.7886  143.5738 LP  0  0  0  0  0  0  0  0  0  0  0  0  # atno 17320 bound_to 7965
  145.2706  139.1956  143.4843 LP  0  0  0  0  0  0  0  0  0  0  0  0  # atno 17321 bound_to 7965
  140.6602  143.8514  150.6879 LP  0  0  0  0  0  0  0  0  0  0  0  0  # atno 17342 bound_to 10162
  140.1906  143.4039  152.1866 LP  0  0  0  0  0  0  0  0  0  0  0  0  # atno 17343 bound_to 10162
  156.0382  130.5467  150.8705 LP  0  0  0  0  0  0  0  0  0  0  0  0  # atno 17370 bound_to 10713
  157.5751  131.0946  150.9358 LP  0  0  0  0  0  0  0  0  0  0  0  0  # atno 17371 bound_to 10713
  139.8823  135.0040  156.6220 LP  0  0  0  0  0  0  0  0  0  0  0  0  # atno 17394 bound_to 11000
  140.7720  133.8730  155.8499 LP  0  0  0  0  0  0  0  0  0  0  0  0  # atno 17395 bound_to 11000

$$$$
