AV-unprocessed.smi:218|AV-procd|sdf|1663|dock2
  -GOLD-   2262020 63D 1   1.00000     0.00000
 Structure written by MMmdl.
 54 57  0  0  0  0  0  0  0  0  1 V2000
  152.3656  142.2104  158.8425 C   0  0  0  0  0  0  0  0  0  0  0  0
  151.5081  143.0585  157.8953 C   0  0  0  0  0  0  0  0  0  0  0  0
  151.2918  144.4740  158.4581 C   0  0  0  0  0  0  0  0  0  0  0  0
  150.2566  142.3837  157.7505 O   0  0  0  0  0  0  0  0  0  0  0  0
  150.0374  141.5522  156.6690 C   0  0  0  0  0  0  0  0  0  0  0  0
  148.8975  141.7803  155.8709 C   0  0  0  0  0  0  0  0  0  0  0  0
  148.6572  140.9340  154.7695 C   0  0  0  0  0  0  0  0  0  0  0  0
  147.4480  141.1455  153.8845 C   0  0  0  0  0  0  0  0  0  0  0  0
  147.2692  140.0792  152.9093 N   0  0  0  0  0  0  0  0  0  0  0  0
  146.4184  139.0638  153.1703 C   0  0  0  0  0  0  0  0  0  0  0  0
  145.8453  138.9305  154.3949 N   0  0  0  0  0  0  0  0  0  0  0  0
  145.0069  137.9180  154.6324 C   0  0  0  0  0  0  0  0  0  0  0  0
  144.6153  136.9485  153.8035 N   0  0  0  0  0  0  0  0  0  0  0  0
  145.1873  137.0756  152.5712 C   0  0  0  0  0  0  0  0  0  0  0  0
  146.0922  138.1017  152.1792 C   0  0  0  0  0  0  0  0  0  0  0  0
  146.4670  137.9184  150.8550 N   0  0  0  0  0  0  0  0  0  0  0  0
  145.8188  136.8454  150.4895 C   0  0  0  0  0  0  0  0  0  0  0  0
  145.0238  136.2733  151.4579 N   0  0  0  0  0  0  0  0  0  0  0  0
  144.1745  135.0440  151.3209 C   0  0  1  0  0  0  0  0  0  0  0  0
  144.0066  134.7431  149.9660 O   0  0  0  0  0  0  0  0  0  0  0  0
  144.5019  133.4363  149.6790 C   0  0  2  0  0  0  0  0  0  0  0  0
  143.6788  132.8250  148.5342 C   0  0  0  0  0  0  0  0  0  0  0  0
  143.6549  133.6911  147.4199 O   0  0  0  0  0  0  0  0  0  0  0  0
  144.3887  132.7105  151.0225 C   0  0  1  0  0  0  0  0  0  0  0  0
  145.2120  131.5643  151.1238 O   0  0  0  0  0  0  0  0  0  0  0  0
  144.7774  133.8033  152.0089 C   0  0  1  0  0  0  0  0  0  0  0  0
  146.1810  133.8880  152.2060 O   0  0  0  0  0  0  0  0  0  0  0  0
  149.5702  139.8949  154.5028 C   0  0  0  0  0  0  0  0  0  0  0  0
  150.6801  139.7449  155.3563 C   0  0  0  0  0  0  0  0  0  0  0  0
  150.9134  140.5480  156.4157 N   0  0  0  0  0  0  0  0  0  0  0  0
  143.2078  135.3286  151.7381 H   0  0  0  0  0  0  0  0  0  0  0  0
  145.5488  133.5289  149.3865 H   0  0  0  0  0  0  0  0  0  0  0  0
  143.3519  132.4195  151.1970 H   0  0  0  0  0  0  0  0  0  0  0  0
  144.3042  133.6588  152.9807 H   0  0  0  0  0  0  0  0  0  0  0  0
  153.3455  142.6626  158.9975 H   0  0  0  0  0  0  0  0  0  0  0  0
  152.5232  141.2112  158.4357 H   0  0  0  0  0  0  0  0  0  0  0  0
  151.8893  142.1017  159.8174 H   0  0  0  0  0  0  0  0  0  0  0  0
  152.0382  143.1127  156.9431 H   0  0  0  0  0  0  0  0  0  0  0  0
  152.2440  144.9842  158.6049 H   0  0  0  0  0  0  0  0  0  0  0  0
  150.7801  144.4407  159.4203 H   0  0  0  0  0  0  0  0  0  0  0  0
  150.6934  145.0900  157.7875 H   0  0  0  0  0  0  0  0  0  0  0  0
  148.2203  142.5895  156.1024 H   0  0  0  0  0  0  0  0  0  0  0  0
  146.5569  141.2212  154.5095 H   0  0  0  0  0  0  0  0  0  0  0  0
  147.5576  142.0989  153.3655 H   0  0  0  0  0  0  0  0  0  0  0  0
  147.8220  140.1457  152.0666 H   0  0  0  0  0  0  0  0  0  0  0  0
  144.5907  137.8784  155.6282 H   0  0  0  0  0  0  0  0  0  0  0  0
  145.9029  136.4381  149.4922 H   0  0  0  0  0  0  0  0  0  0  0  0
  144.0750  131.8531  148.2392 H   0  0  0  0  0  0  0  0  0  0  0  0
  142.6502  132.6680  148.8596 H   0  0  0  0  0  0  0  0  0  0  0  0
  142.8715  133.5181  146.9205 H   0  0  0  0  0  0  0  0  0  0  0  0
  145.6648  131.5989  151.9531 H   0  0  0  0  0  0  0  0  0  0  0  0
  146.4348  133.2306  152.8358 H   0  0  0  0  0  0  0  0  0  0  0  0
  149.4261  139.2272  153.6659 H   0  0  0  0  0  0  0  0  0  0  0  0
  151.4001  138.9587  155.1839 H   0  0  0  0  0  0  0  0  0  0  0  0
  1  2  1  0  0  0  0
  1 35  1  0  0  0  0
  1 36  1  0  0  0  0
  1 37  1  0  0  0  0
  2  3  1  0  0  0  0
  2  4  1  0  0  0  0
  2 38  1  0  0  0  0
  3 39  1  0  0  0  0
  3 40  1  0  0  0  0
  3 41  1  0  0  0  0
  4  5  1  0  0  0  0
  5 30  1  0  0  0  0
  5  6  2  0  0  0  0
  6  7  1  0  0  0  0
  6 42  1  0  0  0  0
  7  8  1  0  0  0  0
  7 28  2  0  0  0  0
  8  9  1  0  0  0  0
  8 43  1  0  0  0  0
  8 44  1  0  0  0  0
  9 10  1  0  0  0  0
  9 45  1  0  0  0  0
 10 15  1  0  0  0  0
 10 11  2  0  0  0  0
 11 12  1  0  0  0  0
 12 13  2  0  0  0  0
 12 46  1  0  0  0  0
 13 14  1  0  0  0  0
 14 18  1  0  0  0  0
 14 15  2  0  0  0  0
 15 16  1  0  0  0  0
 16 17  2  0  0  0  0
 17 18  1  0  0  0  0
 17 47  1  0  0  0  0
 18 19  1  0  0  0  0
 19 31  1  0  0  0  0
 19 26  1  0  0  0  0
 19 20  1  0  0  0  0
 20 21  1  0  0  0  0
 21 32  1  0  0  0  0
 21 22  1  0  0  0  0
 21 24  1  0  0  0  0
 22 23  1  0  0  0  0
 22 48  1  0  0  0  0
 22 49  1  0  0  0  0
 23 50  1  0  0  0  0
 24 33  1  0  0  0  0
 24 25  1  0  0  0  0
 24 26  1  0  0  0  0
 25 51  1  0  0  0  0
 26 34  1  0  0  0  0
 26 27  1  0  0  0  0
 27 52  1  0  0  0  0
 28 29  1  0  0  0  0
 28 53  1  0  0  0  0
 29 30  2  0  0  0  0
 29 54  1  0  0  0  0
M  END
> <s_m_source_file>
AV-unprocessed.smi

> <i_m_source_file_index>
218

> <i_lp_mmshare_version>
43012

> <i_f3d_flags>
0

> <s_epik_input>
W0NIM11bQ0hdKFtDSDNdKU9jMVtjSF1jKFtjSF1bY0hdbjEpW0NIMl1bTkhdYyhuW2NIXW4yKWMoYzIzKW5bY0hdbjNbQ0BASF00T1tDQEhdKFtDSDJdW09IXSlbQ0BASF0oW09IXSlbQ0BIXTRbT0hd

> <s_epik_cmdline>
J2VwaWtfcHl0aG9uJywgJy1waCcsICc3LjAnLCAnLXRuJywgJzgnLCAnLW1hJywgJzIwMCcsICctbWV0YWxfYmluZGluZycsICctaW1hZScsICc8aW5maWxlLm1hZT4nLCAnLW9tYWUnLCAnPG91dGZpbGUubWFlPic=

> <r_lp_tautomer_probability>
1

> <r_epik_Ionization_Penalty>
0.00457014

> <r_epik_Ionization_Penalty_Charging>
0

> <r_epik_Ionization_Penalty_Neutral>
0.00457014

> <r_epik_State_Penalty>
-0

> <r_epik_Charging_Adjusted_Penalty>
0

> <i_epik_Tot_Q>
0

> <i_epik_Tot_abs_Q>
0

> <r_epik_Metal_State_Penalty>
-0

> <b_epik_Metal_Only>
0

> <s_epik_Chemistry_Notes>
This compound contains an acetal/aminal-like group ( X-CH(R)-Y where X, Y are N, S, or O) that may be acid/base labile, releasing an aldehyde.

> <s_lp_Force_Field>
OPLS_2005

> <r_lp_Energy>
45.6959

> <b_lp_Chiralities_Consistent>
1

> <s_lp_Variant>
AV-unprocessed.smi:218-2

> <Gold.Version>
5.8.1

> <Gold.Id.Protein>
6NUR|6NUR_protein|mol2

> <Gold.PLP.Fitness>
63.2268

> <Gold.PLP.PLP>
-50.8362

> <Gold.PLP.part.hbond>
-5.0000

> <Gold.PLP.part.metal>
0.0000

> <Gold.PLP.part.buried>
-2.6969

> <Gold.PLP.part.nonpolar>
-46.3026

> <Gold.PLP.part.repulsive>
2.8083

> <Gold.PLP.ligand.clash>
0.0000

> <Gold.PLP.ligand.torsion>
1.2245

> <Gold.PLP.Chemscore.Hbond>
3.8640

> <Gold.PLP.Chemscore.CHOScore>
1.0000

> <Gold.PLP.Chemscore.Metal>
0.0000

> <Gold.Chemscore.Hbonds>
donor molecule, donor type, donor heavy atom, donor atom, acceptor molecule, acceptor atom, score
      L1  H     9    45       P1  7957  1.00
      L1  H    23    50       P1 10195  1.00
      P1  H  7918  7932       L1    23  0.90
      P1  H  7954  7966       L1    16  1.00
      L1  C    17    47       P1  7921  1.00

> <Gold.PLP.Chemscore.Internal.Correction>
0.2477

> <Gold.Rescore>
     Score         DG    S(hbond)    S(metal)    S(lipo)     H(rot)  DE(clash)    DE(int)     intcor
     11.22     -16.11       3.09        0.00     110.02       4.90       3.50       1.39       ----

> <Gold.Chemscore.Fitness>
11.2206

> <Gold.Chemscore.DG>
-16.1095

> <Gold.Chemscore.ZeroCoef>
-5.4800

> <Gold.Chemscore.Hbond>
3.0863

> <Gold.Chemscore.Metal>
0.0000

> <Gold.Chemscore.Lipo>
110.0229

> <Gold.Chemscore.Internal_Hbond>
0.0000

> <Gold.Chemscore.DEClash>
3.5021

> <Gold.Chemscore.DEInternal>
1.3868

> <Gold.Chemscore.Rot>
4.9029

> <Gold.Chemscore.Internal.Correction>
   9.000000E+99

> <Gold.Chemscore.Hbonds>
donor molecule, donor type, donor heavy atom, donor atom, acceptor molecule, acceptor atom, score
      L1  H     9    45       P1  7957  0.93
      L1  H    23    50       P1 10195  1.00
      P1  H  7918  7932       L1    23  0.27
      P1  H  7954  7966       L1    16  0.54

> <Gold.Chemscore.Hbond.Weighted>
-10.3084

> <Gold.Chemscore.Metal.Weighted>
-0.0000

> <Gold.Chemscore.Lipo.Weighted>
-12.8727

> <Gold.Chemscore.Internal_Hbond.Weighted>
0.0000

> <Gold.Chemscore.DEClash.Weighted>
3.5021

> <Gold.Chemscore.DEInternal.Weighted>
1.3868

> <Gold.Chemscore.Rot.Weighted>
12.5515

> <Gold.Chemscore.Internal.Correction.Weighted>
   9.000000E+99

> <Gold.Protein.RotatedTorsions>
[ 6907 6896 6895 6894 ] final  161.98 input  -60.11 | X-H torsion
[ 7974 7965 7964 7962 ] final   12.83 input  175.53 | X-H torsion
[ 8008 7997 7996 7995 ] final -153.20 input   59.86 | X-H torsion
[ 10167 10162 10161 10158 ] final  -63.68 input  -65.29 | X-H torsion
[ 10718 10713 10712 10709 ] final   31.78 input   66.30 | X-H torsion
[ 10763 10752 10751 10750 ] final   61.37 input  -60.55 | X-H torsion
[ 11005 11000 10999 10996 ] final  -10.94 input  -57.11 | X-H torsion

> <Gold.Protein.ActiveResidues>
 VAL166  LYS551  ARG553  GLY616  TRP617  ASP618  TYR619  PRO620  LYS621  CYS622 
 ASP623  PHE694  ASN695  SER759  ASP760  ASP761  ALA762  ILE779  LEU786  VAL792 
 PHE793  MET794  SER795  GLU796  ALA797  LYS798  CYS799  TRP800  GLU811  SER814 

> <Gold.Protein.RotatedAtoms>
  151.9474  133.3655  159.3986 H   0  0  0  0  0  0  0  0  0  0  0  0  # atno 6907 bound_to 6896
  150.6987  134.4376  159.5286 H   0  0  0  0  0  0  0  0  0  0  0  0  # atno 6908 bound_to 6896
  152.2043  134.8559  160.0555 H   0  0  0  0  0  0  0  0  0  0  0  0  # atno 6909 bound_to 6896
  146.2343  139.9279  142.8500 H   0  0  0  0  0  0  0  0  0  0  0  0  # atno 7974 bound_to 7965
  155.6670  140.0729  157.2533 H   0  0  0  0  0  0  0  0  0  0  0  0  # atno 8008 bound_to 7997
  154.4131  140.1706  156.1889 H   0  0  0  0  0  0  0  0  0  0  0  0  # atno 8009 bound_to 7997
  155.9648  140.3367  155.6526 H   0  0  0  0  0  0  0  0  0  0  0  0  # atno 8010 bound_to 7997
  140.5854  143.2333  151.6254 H   0  0  0  0  0  0  0  0  0  0  0  0  # atno 10167 bound_to 10162
  157.2768  130.7235  149.6534 H   0  0  0  0  0  0  0  0  0  0  0  0  # atno 10718 bound_to 10713
  152.9948  135.5503  154.6023 H   0  0  0  0  0  0  0  0  0  0  0  0  # atno 10763 bound_to 10752
  154.5361  135.2816  155.1139 H   0  0  0  0  0  0  0  0  0  0  0  0  # atno 10764 bound_to 10752
  154.2435  135.6412  153.5268 H   0  0  0  0  0  0  0  0  0  0  0  0  # atno 10765 bound_to 10752
  140.7500  133.8600  155.9037 H   0  0  0  0  0  0  0  0  0  0  0  0  # atno 11005 bound_to 11000
  145.2073  140.9880  143.4121 LP  0  0  0  0  0  0  0  0  0  0  0  0  # atno 17320 bound_to 7965
  144.9721  139.3869  143.6304 LP  0  0  0  0  0  0  0  0  0  0  0  0  # atno 17321 bound_to 7965
  139.5194  144.3253  152.0874 LP  0  0  0  0  0  0  0  0  0  0  0  0  # atno 17342 bound_to 10162
  140.2409  144.4270  150.6260 LP  0  0  0  0  0  0  0  0  0  0  0  0  # atno 17343 bound_to 10162
  155.9664  130.4350  150.5075 LP  0  0  0  0  0  0  0  0  0  0  0  0  # atno 17370 bound_to 10713
  157.3010  131.0645  151.2068 LP  0  0  0  0  0  0  0  0  0  0  0  0  # atno 17371 bound_to 10713
  140.9759  134.1469  157.4536 LP  0  0  0  0  0  0  0  0  0  0  0  0  # atno 17394 bound_to 11000
  139.8789  134.9994  156.5955 LP  0  0  0  0  0  0  0  0  0  0  0  0  # atno 17395 bound_to 11000

$$$$
