AV-unprocessed.smi:2244|AV-procd|sdf|9074|dock5
  -GOLD-   2272012283D 1   1.00000     0.00000
 Structure written by MMmdl.
 49 51  0  0  0  0  0  0  0  0  1 V2000
  145.5078  131.9451  152.4450 C   0  0  0  0  0  0  0  0  0  0  0  0
  145.3674  132.9413  151.2716 C   0  0  0  0  0  0  0  0  0  0  0  0
  146.7912  133.3120  150.8068 C   0  0  0  0  0  0  0  0  0  0  0  0
  144.6155  132.2171  150.1357 C   0  0  0  0  0  0  0  0  0  0  0  0
  144.6010  134.2152  151.6707 C   0  0  0  0  0  0  0  0  0  0  0  0
  143.2716  134.2011  152.1488 C   0  0  0  0  0  0  0  0  0  0  0  0
  142.6796  135.4334  152.4726 C   0  0  0  0  0  0  0  0  0  0  0  0
  143.4366  136.6109  152.3081 C   0  0  0  0  0  0  0  0  0  0  0  0
  142.7527  137.8147  152.6472 N   0  0  0  0  0  0  0  0  0  0  0  0
  141.5140  138.0289  153.1398 C   0  0  0  0  0  0  0  0  0  0  0  0
  140.7580  137.0894  153.3806 O   0  0  0  0  0  0  0  0  0  0  0  0
  141.1710  139.3103  153.3518 N   0  0  0  0  0  0  0  0  0  0  0  0
  139.8860  139.7737  153.8653 C   0  0  2  0  0  0  0  0  0  0  0  0
  138.7410  139.3203  152.9453 C   0  0  0  0  0  0  0  0  0  0  0  0
  137.4100  139.9507  153.3844 C   0  0  0  0  0  0  0  0  0  0  0  0
  137.5289  141.3692  153.4198 O   0  0  0  0  0  0  0  0  0  0  0  0
  138.4938  141.8264  154.3627 C   0  0  2  0  0  0  0  0  0  0  0  0
  138.4444  143.3411  154.3952 C   0  0  0  0  0  0  0  0  0  0  0  0
  137.2999  144.0613  155.0694 C   0  0  0  0  0  0  0  0  0  0  0  0
  137.4348  144.0996  153.5661 C   0  0  0  0  0  0  0  0  0  0  0  0
  139.8864  141.3061  153.9622 C   0  0  0  0  0  0  0  0  0  0  0  0
  144.7101  136.5472  151.8421 N   0  0  0  0  0  0  0  0  0  0  0  0
  145.2800  135.3798  151.5316 N   0  0  0  0  0  0  0  0  0  0  0  0
  146.0549  131.0518  152.1413 H   0  0  0  0  0  0  0  0  0  0  0  0
  144.5355  131.6128  152.8111 H   0  0  0  0  0  0  0  0  0  0  0  0
  146.0526  132.3824  153.2827 H   0  0  0  0  0  0  0  0  0  0  0  0
  147.3410  133.8289  151.5941 H   0  0  0  0  0  0  0  0  0  0  0  0
  146.7770  133.9645  149.9333 H   0  0  0  0  0  0  0  0  0  0  0  0
  147.3636  132.4245  150.5346 H   0  0  0  0  0  0  0  0  0  0  0  0
  145.1261  131.2987  149.8433 H   0  0  0  0  0  0  0  0  0  0  0  0
  144.5339  132.8373  149.2423 H   0  0  0  0  0  0  0  0  0  0  0  0
  143.6039  131.9472  150.4413 H   0  0  0  0  0  0  0  0  0  0  0  0
  142.7022  133.2925  152.2695 H   0  0  0  0  0  0  0  0  0  0  0  0
  141.6635  135.4693  152.8385 H   0  0  0  0  0  0  0  0  0  0  0  0
  143.3077  138.6512  152.5405 H   0  0  0  0  0  0  0  0  0  0  0  0
  141.8524  140.0214  153.1262 H   0  0  0  0  0  0  0  0  0  0  0  0
  139.7209  139.3692  154.8658 H   0  0  0  0  0  0  0  0  0  0  0  0
  138.9536  139.6145  151.9163 H   0  0  0  0  0  0  0  0  0  0  0  0
  138.6576  138.2330  152.9486 H   0  0  0  0  0  0  0  0  0  0  0  0
  136.6197  139.6818  152.6833 H   0  0  0  0  0  0  0  0  0  0  0  0
  137.1070  139.5761  154.3632 H   0  0  0  0  0  0  0  0  0  0  0  0
  138.2314  141.4508  155.3539 H   0  0  0  0  0  0  0  0  0  0  0  0
  139.4223  143.8089  154.4939 H   0  0  0  0  0  0  0  0  0  0  0  0
  136.4960  143.4575  155.4860 H   0  0  0  0  0  0  0  0  0  0  0  0
  137.5339  144.9703  155.6195 H   0  0  0  0  0  0  0  0  0  0  0  0
  137.7585  145.0346  153.1135 H   0  0  0  0  0  0  0  0  0  0  0  0
  136.7213  143.5213  152.9822 H   0  0  0  0  0  0  0  0  0  0  0  0
  140.6327  141.6355  154.6864 H   0  0  0  0  0  0  0  0  0  0  0  0
  140.1721  141.7376  153.0014 H   0  0  0  0  0  0  0  0  0  0  0  0
  1  2  1  0  0  0  0
  1 24  1  0  0  0  0
  1 25  1  0  0  0  0
  1 26  1  0  0  0  0
  2  3  1  0  0  0  0
  2  4  1  0  0  0  0
  2  5  1  0  0  0  0
  3 27  1  0  0  0  0
  3 28  1  0  0  0  0
  3 29  1  0  0  0  0
  4 30  1  0  0  0  0
  4 31  1  0  0  0  0
  4 32  1  0  0  0  0
  5 23  1  0  0  0  0
  5  6  2  0  0  0  0
  6  7  1  0  0  0  0
  6 33  1  0  0  0  0
  7  8  2  0  0  0  0
  7 34  1  0  0  0  0
  8  9  1  0  0  0  0
  8 22  1  0  0  0  0
  9 10  1  0  0  0  0
  9 35  1  0  0  0  0
 10 11  2  0  0  0  0
 10 12  1  0  0  0  0
 12 13  1  0  0  0  0
 12 36  1  0  0  0  0
 13 21  1  0  0  0  0
 13 14  1  0  0  0  0
 13 37  1  0  0  0  0
 14 15  1  0  0  0  0
 14 38  1  0  0  0  0
 14 39  1  0  0  0  0
 15 16  1  0  0  0  0
 15 40  1  0  0  0  0
 15 41  1  0  0  0  0
 16 17  1  0  0  0  0
 17 18  1  0  0  0  0
 17 21  1  0  0  0  0
 17 42  1  0  0  0  0
 18 20  1  0  0  0  0
 18 19  1  0  0  0  0
 18 43  1  0  0  0  0
 19 20  1  0  0  0  0
 19 44  1  0  0  0  0
 19 45  1  0  0  0  0
 20 46  1  0  0  0  0
 20 47  1  0  0  0  0
 21 48  1  0  0  0  0
 21 49  1  0  0  0  0
 22 23  2  0  0  0  0
M  END
> <s_m_source_file>
AV-unprocessed.smi

> <i_m_source_file_index>
2244

> <i_lp_mmshare_version>
43012

> <i_f3d_flags>
0

> <s_epik_input>
W0NIM11DKFtDSDNdKShbQ0gzXSljMVtjSF1bY0hdYyhubjEpW05IXUMoPU8pW05IXVtDQEBIXTJbQ0gyXVtDSDJdT1tDQEhdKFtDSDJdMilbQ0hdM1tDSDJdW0NIMl0z

> <s_epik_cmdline>
J2VwaWtfcHl0aG9uJywgJy1waCcsICc3LjAnLCAnLXRuJywgJzgnLCAnLW1hJywgJzIwMCcsICctbWV0YWxfYmluZGluZycsICctaW1hZScsICc8aW5maWxlLm1hZT4nLCAnLW9tYWUnLCAnPG91dGZpbGUubWFlPic=

> <r_lp_tautomer_probability>
1

> <r_epik_Ionization_Penalty>
0.011369

> <r_epik_Ionization_Penalty_Charging>
0

> <r_epik_Ionization_Penalty_Neutral>
0.011369

> <r_epik_State_Penalty>
0.00456331

> <r_epik_Charging_Adjusted_Penalty>
0.00456331

> <i_epik_Tot_Q>
0

> <i_epik_Tot_abs_Q>
0

> <r_epik_Metal_State_Penalty>
-0

> <b_epik_Metal_Only>
0

> <s_lp_Force_Field>
OPLS_2005

> <r_lp_Energy>
27.8211

> <b_lp_Chiralities_Consistent>
1

> <s_lp_Variant>
AV-unprocessed.smi:2244-3

> <Gold.Version>
5.8.1

> <Gold.Id.Protein>
6NUR|6NUR_protein|mol2

> <Gold.PLP.Fitness>
40.0713

> <Gold.PLP.PLP>
-36.7115

> <Gold.PLP.part.hbond>
-3.4510

> <Gold.PLP.part.metal>
0.0000

> <Gold.PLP.part.buried>
-6.9472

> <Gold.PLP.part.nonpolar>
-27.4135

> <Gold.PLP.part.repulsive>
1.2768

> <Gold.PLP.ligand.clash>
2.0038

> <Gold.PLP.ligand.torsion>
0.8467

> <Gold.PLP.Chemscore.Hbond>
1.9920

> <Gold.PLP.Chemscore.CHOScore>
0.0000

> <Gold.PLP.Chemscore.Metal>
0.0000

> <Gold.Chemscore.Hbonds>
donor molecule, donor type, donor heavy atom, donor atom, acceptor molecule, acceptor atom, score
      L1  H     9    35       P1 10175  1.00
      L1  H    12    36       P1 10175  0.99

> <Gold.PLP.Chemscore.Internal.Correction>
1.0810

> <Gold.Rescore>
     Score         DG    S(hbond)    S(metal)    S(lipo)     H(rot)  DE(clash)    DE(int)     intcor
     14.93     -17.42       1.48        0.00      88.10       1.30       0.08       2.40       ----

> <Gold.Chemscore.Fitness>
14.9350

> <Gold.Chemscore.DG>
-17.4167

> <Gold.Chemscore.ZeroCoef>
-5.4800

> <Gold.Chemscore.Hbond>
1.4843

> <Gold.Chemscore.Metal>
0.0000

> <Gold.Chemscore.Lipo>
88.0996

> <Gold.Chemscore.Internal_Hbond>
0.0000

> <Gold.Chemscore.DEClash>
0.0829

> <Gold.Chemscore.DEInternal>
2.3989

> <Gold.Chemscore.Rot>
1.3002

> <Gold.Chemscore.Internal.Correction>
   9.000000E+99

> <Gold.Chemscore.Hbonds>
donor molecule, donor type, donor heavy atom, donor atom, acceptor molecule, acceptor atom, score
      L1  H     9    35       P1 10175  0.99
      L1  H    12    36       P1 10175  0.24

> <Gold.Chemscore.Hbond.Weighted>
-4.9575

> <Gold.Chemscore.Metal.Weighted>
-0.0000

> <Gold.Chemscore.Lipo.Weighted>
-10.3077

> <Gold.Chemscore.Internal_Hbond.Weighted>
0.0000

> <Gold.Chemscore.DEClash.Weighted>
0.0829

> <Gold.Chemscore.DEInternal.Weighted>
2.3989

> <Gold.Chemscore.Rot.Weighted>
3.3284

> <Gold.Chemscore.Internal.Correction.Weighted>
   9.000000E+99

> <Gold.Protein.RotatedTorsions>
[ 6907 6896 6895 6894 ] final   63.49 input  -60.11 | X-H torsion
[ 7974 7965 7964 7962 ] final -167.87 input  175.53 | X-H torsion
[ 8008 7997 7996 7995 ] final  -84.49 input   59.86 | X-H torsion
[ 10167 10162 10161 10158 ] final    0.30 input  -65.29 | X-H torsion
[ 10718 10713 10712 10709 ] final  154.20 input   66.30 | X-H torsion
[ 10763 10752 10751 10750 ] final -100.18 input  -60.55 | X-H torsion
[ 11005 11000 10999 10996 ] final   68.60 input  -57.11 | X-H torsion

> <Gold.Protein.ActiveResidues>
 VAL166  LYS551  ARG553  GLY616  TRP617  ASP618  TYR619  PRO620  LYS621  CYS622 
 ASP623  PHE694  ASN695  SER759  ASP760  ASP761  ALA762  ILE779  LEU786  VAL792 
 PHE793  MET794  SER795  GLU796  ALA797  LYS798  CYS799  TRP800  GLU811  SER814 

> <Gold.Protein.RotatedAtoms>
  152.4257  134.5872  159.9963 H   0  0  0  0  0  0  0  0  0  0  0  0  # atno 6907 bound_to 6896
  151.6009  133.3351  159.3055 H   0  0  0  0  0  0  0  0  0  0  0  0  # atno 6908 bound_to 6896
  150.8147  134.7359  159.6784 H   0  0  0  0  0  0  0  0  0  0  0  0  # atno 6909 bound_to 6896
  144.7214  140.2454  143.6286 H   0  0  0  0  0  0  0  0  0  0  0  0  # atno 7974 bound_to 7965
  154.6303  140.0604  156.9724 H   0  0  0  0  0  0  0  0  0  0  0  0  # atno 8008 bound_to 7997
  155.1676  140.3288  155.4380 H   0  0  0  0  0  0  0  0  0  0  0  0  # atno 8009 bound_to 7997
  156.2479  140.1920  156.6779 H   0  0  0  0  0  0  0  0  0  0  0  0  # atno 8010 bound_to 7997
  140.6735  143.6983  150.7972 H   0  0  0  0  0  0  0  0  0  0  0  0  # atno 10167 bound_to 10162
  157.2348  131.0746  151.1830 H   0  0  0  0  0  0  0  0  0  0  0  0  # atno 10718 bound_to 10713
  154.7558  135.4944  153.9373 H   0  0  0  0  0  0  0  0  0  0  0  0  # atno 10763 bound_to 10752
  153.1195  135.6728  153.9369 H   0  0  0  0  0  0  0  0  0  0  0  0  # atno 10764 bound_to 10752
  153.9105  135.3099  155.3427 H   0  0  0  0  0  0  0  0  0  0  0  0  # atno 10765 bound_to 10752
  139.9702  134.6913  156.0463 H   0  0  0  0  0  0  0  0  0  0  0  0  # atno 11005 bound_to 11000
  145.8280  139.2073  143.1899 LP  0  0  0  0  0  0  0  0  0  0  0  0  # atno 17320 bound_to 7965
  146.0456  140.8121  142.9807 LP  0  0  0  0  0  0  0  0  0  0  0  0  # atno 17321 bound_to 7965
  140.0672  143.5097  152.2598 LP  0  0  0  0  0  0  0  0  0  0  0  0  # atno 17342 bound_to 10162
  139.6015  144.7584  151.3162 LP  0  0  0  0  0  0  0  0  0  0  0  0  # atno 17343 bound_to 10162
  157.3440  130.7048  149.6399 LP  0  0  0  0  0  0  0  0  0  0  0  0  # atno 17370 bound_to 10713
  155.9673  130.4271  150.4731 LP  0  0  0  0  0  0  0  0  0  0  0  0  # atno 17371 bound_to 10713
  141.1381  133.6570  156.3652 LP  0  0  0  0  0  0  0  0  0  0  0  0  # atno 17394 bound_to 11000
  140.5310  134.6212  157.5350 LP  0  0  0  0  0  0  0  0  0  0  0  0  # atno 17395 bound_to 11000

$$$$
