AV-unprocessed.smi:787|AV-procd|sdf|3729|dock1
  -GOLD-   22720 1163D 1   1.00000     0.00000
 Structure written by MMmdl.
 46 48  0  0  0  0  0  0  0  0  1 V2000
  150.3479  145.1782  158.8177 C   0  0  0  0  0  0  0  0  0  0  0  0
  150.4261  143.9150  158.1013 N   0  0  0  0  0  0  0  0  0  0  0  0
  151.3033  142.9091  158.5308 C   0  0  0  0  0  0  0  0  0  0  0  0
  151.9828  143.0542  159.6923 N   0  0  0  0  0  0  0  0  0  0  0  0
  152.8187  142.0723  160.0551 C   0  0  0  0  0  0  0  0  0  0  0  0
  153.1000  140.9230  159.4215 N   0  0  0  0  0  0  0  0  0  0  0  0
  152.4271  140.7674  158.2732 C   0  0  0  0  0  0  0  0  0  0  0  0
  152.5172  139.6822  157.4183 N   0  0  0  0  0  0  0  0  0  0  0  0
  151.6622  140.0231  156.4571 C   0  0  0  0  0  0  0  0  0  0  0  0
  151.0304  141.2072  156.5785 N   0  0  0  0  0  0  0  0  0  0  0  0
  150.0683  141.7821  155.6555 C   0  0  0  0  0  0  0  0  0  0  0  0
  149.3383  140.7031  154.8345 C   0  0  2  0  0  0  0  0  0  0  0  0
  150.2271  140.2528  153.8328 O   0  0  0  0  0  0  0  0  0  0  0  0
  148.0635  141.2379  154.1447 C   0  0  0  0  0  0  0  0  0  0  0  0
  146.9711  141.6342  155.0419 N   0  0  0  0  0  0  0  0  0  0  0  0
  146.2420  140.4529  155.4871 C   0  0  0  0  0  0  0  0  0  0  0  0
  146.0237  142.5659  154.4180 C   0  0  0  0  0  0  0  0  0  0  0  0
  145.2754  143.4862  155.3647 C   0  0  0  0  0  0  0  0  0  0  0  0
  145.4781  143.3908  156.7580 C   0  0  0  0  0  0  0  0  0  0  0  0
  144.7698  144.2353  157.6351 C   0  0  0  0  0  0  0  0  0  0  0  0
  143.8463  145.1672  157.1234 C   0  0  0  0  0  0  0  0  0  0  0  0
  143.6337  145.2565  155.7344 C   0  0  0  0  0  0  0  0  0  0  0  0
  144.3508  144.4222  154.8557 C   0  0  0  0  0  0  0  0  0  0  0  0
  151.5059  141.7370  157.7754 C   0  0  0  0  0  0  0  0  0  0  0  0
  149.6268  145.8361  158.3327 H   0  0  0  0  0  0  0  0  0  0  0  0
  151.3161  145.6796  158.8247 H   0  0  0  0  0  0  0  0  0  0  0  0
  150.0265  145.0211  159.8479 H   0  0  0  0  0  0  0  0  0  0  0  0
  149.9736  143.8348  157.2019 H   0  0  0  0  0  0  0  0  0  0  0  0
  153.3437  142.2300  160.9854 H   0  0  0  0  0  0  0  0  0  0  0  0
  151.4886  139.3755  155.6100 H   0  0  0  0  0  0  0  0  0  0  0  0
  149.3559  142.3892  156.2160 H   0  0  0  0  0  0  0  0  0  0  0  0
  150.6034  142.4689  154.9987 H   0  0  0  0  0  0  0  0  0  0  0  0
  149.1249  139.8587  155.4847 H   0  0  0  0  0  0  0  0  0  0  0  0
  149.8092  140.3538  152.9914 H   0  0  0  0  0  0  0  0  0  0  0  0
  148.3124  142.0824  153.5019 H   0  0  0  0  0  0  0  0  0  0  0  0
  147.7202  140.4604  153.4601 H   0  0  0  0  0  0  0  0  0  0  0  0
  145.4474  140.7254  156.1825 H   0  0  0  0  0  0  0  0  0  0  0  0
  146.9048  139.7608  156.0077 H   0  0  0  0  0  0  0  0  0  0  0  0
  145.7923  139.9254  154.6447 H   0  0  0  0  0  0  0  0  0  0  0  0
  146.5334  143.1629  153.6601 H   0  0  0  0  0  0  0  0  0  0  0  0
  145.2606  141.9983  153.8837 H   0  0  0  0  0  0  0  0  0  0  0  0
  146.1817  142.6737  157.1550 H   0  0  0  0  0  0  0  0  0  0  0  0
  144.9323  144.1655  158.7006 H   0  0  0  0  0  0  0  0  0  0  0  0
  143.3024  145.8144  157.7956 H   0  0  0  0  0  0  0  0  0  0  0  0
  142.9262  145.9718  155.3417 H   0  0  0  0  0  0  0  0  0  0  0  0
  144.1858  144.5024  153.7912 H   0  0  0  0  0  0  0  0  0  0  0  0
  1  2  1  0  0  0  0
  1 25  1  0  0  0  0
  1 26  1  0  0  0  0
  1 27  1  0  0  0  0
  2  3  1  0  0  0  0
  2 28  1  0  0  0  0
  3 24  1  0  0  0  0
  3  4  2  0  0  0  0
  4  5  1  0  0  0  0
  5  6  2  0  0  0  0
  5 29  1  0  0  0  0
  6  7  1  0  0  0  0
  7 24  2  0  0  0  0
  7  8  1  0  0  0  0
  8  9  2  0  0  0  0
  9 10  1  0  0  0  0
  9 30  1  0  0  0  0
 10 11  1  0  0  0  0
 10 24  1  0  0  0  0
 11 12  1  0  0  0  0
 11 31  1  0  0  0  0
 11 32  1  0  0  0  0
 12 13  1  0  0  0  0
 12 14  1  0  0  0  0
 12 33  1  0  0  0  0
 13 34  1  0  0  0  0
 14 15  1  0  0  0  0
 14 35  1  0  0  0  0
 14 36  1  0  0  0  0
 15 16  1  0  0  0  0
 15 17  1  0  0  0  0
 16 37  1  0  0  0  0
 16 38  1  0  0  0  0
 16 39  1  0  0  0  0
 17 18  1  0  0  0  0
 17 40  1  0  0  0  0
 17 41  1  0  0  0  0
 18 23  1  0  0  0  0
 18 19  2  0  0  0  0
 19 20  1  0  0  0  0
 19 42  1  0  0  0  0
 20 21  2  0  0  0  0
 20 43  1  0  0  0  0
 21 22  1  0  0  0  0
 21 44  1  0  0  0  0
 22 23  2  0  0  0  0
 22 45  1  0  0  0  0
 23 46  1  0  0  0  0
M  END
> <s_m_source_file>
AV-unprocessed.smi

> <i_m_source_file_index>
787

> <i_lp_mmshare_version>
43012

> <i_f3d_flags>
0

> <s_epik_input>
bjFbY0hdbmMoW05IXVtDSDNdKWMoYzEyKW4oW2NIXW4yKVtDSDJdW0NASF0oW09IXSlbQ0gyXU4oW0NIM10pW0NIMl1jM1tjSF1bY0hdW2NIXVtjSF1bY0hdMw==

> <s_epik_cmdline>
J2VwaWtfcHl0aG9uJywgJy1waCcsICc3LjAnLCAnLXRuJywgJzgnLCAnLW1hJywgJzIwMCcsICctbWV0YWxfYmluZGluZycsICctaW1hZScsICc8aW5maWxlLm1hZT4nLCAnLW9tYWUnLCAnPG91dGZpbGUubWFlPic=

> <r_lp_tautomer_probability>
0.999987

> <r_epik_Ionization_Penalty>
1.52367

> <r_epik_Ionization_Penalty_Charging>
0

> <r_epik_Ionization_Penalty_Neutral>
1.52367

> <r_epik_State_Penalty>
1.60995

> <r_epik_Charging_Adjusted_Penalty>
1.60995

> <i_epik_Tot_Q>
0

> <i_epik_Tot_abs_Q>
0

> <r_epik_Metal_State_Penalty>
1.60969

> <b_epik_Metal_Only>
0

> <s_lp_Force_Field>
OPLS_2005

> <r_lp_Energy>
20.724

> <b_lp_Chiralities_Consistent>
1

> <s_lp_Variant>
AV-unprocessed.smi:787-5

> <Gold.Version>
5.8.1

> <Gold.Id.Protein>
6NUR|6NUR_protein|mol2

> <Gold.PLP.Fitness>
50.2095

> <Gold.PLP.PLP>
-40.6098

> <Gold.PLP.part.hbond>
-3.7192

> <Gold.PLP.part.metal>
0.0000

> <Gold.PLP.part.buried>
-4.8193

> <Gold.PLP.part.nonpolar>
-31.4182

> <Gold.PLP.part.repulsive>
0.1414

> <Gold.PLP.ligand.clash>
0.0048

> <Gold.PLP.ligand.torsion>
0.9953

> <Gold.PLP.Chemscore.Hbond>
3.7100

> <Gold.PLP.Chemscore.CHOScore>
0.0000

> <Gold.PLP.Chemscore.Metal>
0.0000

> <Gold.Chemscore.Hbonds>
donor molecule, donor type, donor heavy atom, donor atom, acceptor molecule, acceptor atom, score
      L1  H     2    28       P1  8028  0.87
      L1  H    13    34       P1  7957  1.00
      P1  H  7989  7998       L1    13  0.73
      P1  H  7997  8009       L1     8  0.83

> <Gold.PLP.Chemscore.Internal.Correction>
0.4651

> <Gold.Rescore>
     Score         DG    S(hbond)    S(metal)    S(lipo)     H(rot)  DE(clash)    DE(int)     intcor
     12.54     -13.56       2.29        0.00      71.68       3.11       0.13       0.90       ----

> <Gold.Chemscore.Fitness>
12.5396

> <Gold.Chemscore.DG>
-13.5617

> <Gold.Chemscore.ZeroCoef>
-5.4800

> <Gold.Chemscore.Hbond>
2.2905

> <Gold.Chemscore.Metal>
0.0000

> <Gold.Chemscore.Lipo>
71.6800

> <Gold.Chemscore.Internal_Hbond>
0.0000

> <Gold.Chemscore.DEClash>
0.1262

> <Gold.Chemscore.DEInternal>
0.8960

> <Gold.Chemscore.Rot>
3.1075

> <Gold.Chemscore.Internal.Correction>
   9.000000E+99

> <Gold.Chemscore.Hbonds>
donor molecule, donor type, donor heavy atom, donor atom, acceptor molecule, acceptor atom, score
      L1  H     2    28       P1  8028  0.73
      L1  H    13    34       P1  7957  0.98
      P1  H  7989  7998       L1    13  0.14
      P1  H  7997  8009       L1     8  0.05

> <Gold.Chemscore.Hbond.Weighted>
-7.6503

> <Gold.Chemscore.Metal.Weighted>
-0.0000

> <Gold.Chemscore.Lipo.Weighted>
-8.3866

> <Gold.Chemscore.Internal_Hbond.Weighted>
0.0000

> <Gold.Chemscore.DEClash.Weighted>
0.1262

> <Gold.Chemscore.DEInternal.Weighted>
0.8960

> <Gold.Chemscore.Rot.Weighted>
7.9551

> <Gold.Chemscore.Internal.Correction.Weighted>
   9.000000E+99

> <Gold.Protein.RotatedTorsions>
[ 6907 6896 6895 6894 ] final  -18.74 input  -60.11 | X-H torsion
[ 7974 7965 7964 7962 ] final  -26.11 input  175.53 | X-H torsion
[ 8008 7997 7996 7995 ] final -168.58 input   59.86 | X-H torsion
[ 10167 10162 10161 10158 ] final  -93.64 input  -65.29 | X-H torsion
[ 10718 10713 10712 10709 ] final   44.88 input   66.30 | X-H torsion
[ 10763 10752 10751 10750 ] final   32.14 input  -60.55 | X-H torsion
[ 11005 11000 10999 10996 ] final   40.23 input  -57.11 | X-H torsion

> <Gold.Protein.ActiveResidues>
 VAL166  LYS551  ARG553  GLY616  TRP617  ASP618  TYR619  PRO620  LYS621  CYS622 
 ASP623  PHE694  ASN695  SER759  ASP760  ASP761  ALA762  ILE779  LEU786  VAL792 
 PHE793  MET794  SER795  GLU796  ALA797  LYS798  CYS799  TRP800  GLU811  SER814 

> <Gold.Protein.RotatedAtoms>
  151.2736  135.0692  159.9142 H   0  0  0  0  0  0  0  0  0  0  0  0  # atno 6907 bound_to 6896
  152.5346  134.0104  159.7946 H   0  0  0  0  0  0  0  0  0  0  0  0  # atno 6908 bound_to 6896
  151.0347  133.5709  159.2688 H   0  0  0  0  0  0  0  0  0  0  0  0  # atno 6909 bound_to 6896
  146.1447  140.4975  142.8637 H   0  0  0  0  0  0  0  0  0  0  0  0  # atno 7974 bound_to 7965
  155.8933  140.1028  157.1403 H   0  0  0  0  0  0  0  0  0  0  0  0  # atno 8008 bound_to 7997
  154.4017  140.1306  156.4407 H   0  0  0  0  0  0  0  0  0  0  0  0  # atno 8009 bound_to 7997
  155.7508  140.3465  155.5152 H   0  0  0  0  0  0  0  0  0  0  0  0  # atno 8010 bound_to 7997
  140.3225  143.3041  152.0030 H   0  0  0  0  0  0  0  0  0  0  0  0  # atno 10167 bound_to 10162
  157.4316  130.8028  149.7608 H   0  0  0  0  0  0  0  0  0  0  0  0  # atno 10718 bound_to 10713
  153.0278  135.6421  154.1309 H   0  0  0  0  0  0  0  0  0  0  0  0  # atno 10763 bound_to 10752
  154.1035  135.2858  155.3248 H   0  0  0  0  0  0  0  0  0  0  0  0  # atno 10764 bound_to 10752
  154.6382  135.5469  153.7821 H   0  0  0  0  0  0  0  0  0  0  0  0  # atno 10765 bound_to 10752
  140.1951  134.3939  155.8126 H   0  0  0  0  0  0  0  0  0  0  0  0  # atno 11005 bound_to 11000
  144.7833  140.5885  143.6591 LP  0  0  0  0  0  0  0  0  0  0  0  0  # atno 17320 bound_to 7965
  145.4965  139.1485  143.3681 LP  0  0  0  0  0  0  0  0  0  0  0  0  # atno 17321 bound_to 7965
  139.4871  144.6299  151.7090 LP  0  0  0  0  0  0  0  0  0  0  0  0  # atno 17342 bound_to 10162
  140.5470  144.0487  150.6111 LP  0  0  0  0  0  0  0  0  0  0  0  0  # atno 17343 bound_to 10162
  155.9915  130.3937  150.2981 LP  0  0  0  0  0  0  0  0  0  0  0  0  # atno 17370 bound_to 10713
  157.1138  131.0228  151.3037 LP  0  0  0  0  0  0  0  0  0  0  0  0  # atno 17371 bound_to 10713
  141.2227  133.7065  156.8161 LP  0  0  0  0  0  0  0  0  0  0  0  0  # atno 17394 bound_to 11000
  140.2116  134.8823  157.3281 LP  0  0  0  0  0  0  0  0  0  0  0  0  # atno 17395 bound_to 11000

$$$$
