AV-unprocessed.smi:1207|AV-procd|sdf|5051|dock10
  -GOLD-   22720 4 83D 1   1.00000     0.00000
 Structure written by MMmdl.
 52 54  0  0  0  0  0  0  0  0  2 V2000
  152.5170  143.2883  160.5731 C   0  0  0  0  0  0  0  0  0  0  0  0
  151.9897  142.5010  159.3865 C   0  0  0  0  0  0  0  0  0  0  0  0
  152.6341  141.2983  159.0192 C   0  0  0  0  0  0  0  0  0  0  0  0
  152.1741  140.5357  157.9236 C   0  0  0  0  0  0  0  0  0  0  0  0
  152.6482  139.3483  157.3936 N   0  0  0  0  0  0  0  0  0  0  0  0
  151.8020  139.1464  156.3884 C   0  0  0  0  0  0  0  0  0  0  0  0
  150.8412  140.0711  156.1957 N   0  0  0  0  0  0  0  0  0  0  0  0
  149.8205  140.0677  155.1629 C   0  0  0  0  0  0  0  0  0  0  0  0
  149.7336  138.7256  154.4059 C   0  0  2  0  0  0  0  0  0  0  0  0
  149.0503  138.9696  153.1924 O   0  0  0  0  0  0  0  0  0  0  0  0
  148.9994  137.6215  155.2026 C   0  0  0  0  0  0  0  0  0  0  0  0
  149.2298  136.2426  154.6880 N   0  3  1  0  0  0  0  0  0  0  0  0
  150.5900  135.7305  154.9834 C   0  0  0  0  0  0  0  0  0  0  0  0
  148.1875  135.2779  155.1272 C   0  0  0  0  0  0  0  0  0  0  0  0
  148.5253  133.8568  154.7514 C   0  0  0  0  0  0  0  0  0  0  0  0
  149.3681  132.9457  155.4510 C   0  0  0  0  0  0  0  0  0  0  0  0
  150.1262  133.1633  156.7289 C   0  0  0  0  0  0  0  0  0  0  0  0
  149.4472  131.7770  154.8394 N   0  0  0  0  0  0  0  0  0  0  0  0
  148.6415  131.8838  153.7021 O   0  0  0  0  0  0  0  0  0  0  0  0
  148.1012  133.1280  153.6728 C   0  0  0  0  0  0  0  0  0  0  0  0
  147.2064  133.4335  152.5186 C   0  0  0  0  0  0  0  0  0  0  0  0
  151.0420  141.0125  157.1997 C   0  0  0  0  0  0  0  0  0  0  0  0
  150.3912  142.2066  157.5569 C   0  0  0  0  0  0  0  0  0  0  0  0
  150.8658  142.9580  158.6522 C   0  0  0  0  0  0  0  0  0  0  0  0
  150.1604  144.2497  159.0264 C   0  0  0  0  0  0  0  0  0  0  0  0
  153.3727  142.7921  161.0318 H   0  0  0  0  0  0  0  0  0  0  0  0
  151.7449  143.3936  161.3355 H   0  0  0  0  0  0  0  0  0  0  0  0
  152.8348  144.2834  160.2613 H   0  0  0  0  0  0  0  0  0  0  0  0
  153.4901  140.9496  159.5786 H   0  0  0  0  0  0  0  0  0  0  0  0
  151.8917  138.2808  155.7481 H   0  0  0  0  0  0  0  0  0  0  0  0
  148.8623  140.2956  155.6331 H   0  0  0  0  0  0  0  0  0  0  0  0
  150.0290  140.8840  154.4702 H   0  0  0  0  0  0  0  0  0  0  0  0
  150.7478  138.4088  154.1674 H   0  0  0  0  0  0  0  0  0  0  0  0
  148.9486  138.1535  152.7275 H   0  0  0  0  0  0  0  0  0  0  0  0
  149.2954  137.6440  156.2523 H   0  0  0  0  0  0  0  0  0  0  0  0
  147.9361  137.8569  155.1813 H   0  0  0  0  0  0  0  0  0  0  0  0
  150.7821  135.7293  156.0572 H   0  0  0  0  0  0  0  0  0  0  0  0
  151.3594  136.3276  154.4957 H   0  0  0  0  0  0  0  0  0  0  0  0
  150.7108  134.7103  154.6175 H   0  0  0  0  0  0  0  0  0  0  0  0
  148.0763  135.3458  156.2100 H   0  0  0  0  0  0  0  0  0  0  0  0
  147.2250  135.5831  154.7145 H   0  0  0  0  0  0  0  0  0  0  0  0
  150.4586  134.1975  156.8193 H   0  0  0  0  0  0  0  0  0  0  0  0
  151.0114  132.5282  156.7828 H   0  0  0  0  0  0  0  0  0  0  0  0
  149.5021  132.9376  157.5939 H   0  0  0  0  0  0  0  0  0  0  0  0
  146.6875  134.3815  152.6589 H   0  0  0  0  0  0  0  0  0  0  0  0
  146.4540  132.6542  152.3960 H   0  0  0  0  0  0  0  0  0  0  0  0
  147.7801  133.4983  151.5939 H   0  0  0  0  0  0  0  0  0  0  0  0
  149.5330  142.5419  156.9937 H   0  0  0  0  0  0  0  0  0  0  0  0
  149.3174  144.4496  158.3644 H   0  0  0  0  0  0  0  0  0  0  0  0
  150.8472  145.0936  158.9572 H   0  0  0  0  0  0  0  0  0  0  0  0
  149.7792  144.1957  160.0463 H   0  0  0  0  0  0  0  0  0  0  0  0
  149.1544  136.2939  153.6822 H   0  0  0  0  0  0  0  0  0  0  0  0
  1  2  1  0  0  0  0
  1 26  1  0  0  0  0
  1 27  1  0  0  0  0
  1 28  1  0  0  0  0
  2 24  1  0  0  0  0
  2  3  2  0  0  0  0
  3  4  1  0  0  0  0
  3 29  1  0  0  0  0
  4 22  2  0  0  0  0
  4  5  1  0  0  0  0
  5  6  2  0  0  0  0
  6  7  1  0  0  0  0
  6 30  1  0  0  0  0
  7  8  1  0  0  0  0
  7 22  1  0  0  0  0
  8  9  1  0  0  0  0
  8 31  1  0  0  0  0
  8 32  1  0  0  0  0
  9 10  1  0  0  0  0
  9 11  1  0  0  0  0
  9 33  1  0  0  0  0
 10 34  1  0  0  0  0
 11 12  1  0  0  0  0
 11 35  1  0  0  0  0
 11 36  1  0  0  0  0
 12 13  1  0  0  0  0
 12 14  1  0  0  0  0
 12 52  1  0  0  0  0
 13 37  1  0  0  0  0
 13 38  1  0  0  0  0
 13 39  1  0  0  0  0
 14 15  1  0  0  0  0
 14 40  1  0  0  0  0
 14 41  1  0  0  0  0
 15 20  2  0  0  0  0
 15 16  1  0  0  0  0
 16 17  1  0  0  0  0
 16 18  2  0  0  0  0
 17 42  1  0  0  0  0
 17 43  1  0  0  0  0
 17 44  1  0  0  0  0
 18 19  1  0  0  0  0
 19 20  1  0  0  0  0
 20 21  1  0  0  0  0
 21 45  1  0  0  0  0
 21 46  1  0  0  0  0
 21 47  1  0  0  0  0
 22 23  1  0  0  0  0
 23 24  2  0  0  0  0
 23 48  1  0  0  0  0
 24 25  1  0  0  0  0
 25 49  1  0  0  0  0
 25 50  1  0  0  0  0
 25 51  1  0  0  0  0
M  CHG  1  12   1
M  END
> <s_m_source_file>
AV-unprocessed.smi

> <i_m_source_file_index>
1207

> <i_lp_mmshare_version>
43012

> <i_f3d_flags>
0

> <s_epik_input>
W0NIM11jKFtjSF0xKWMoW0NIM10pW2NIXWMoYzEyKW4oW2NIXW4yKVtDSDJdW0NASF0oW09IXSlbQ0gyXU4oW0NIM10pW0NIMl1jM2MoW0NIM10pbm9jM1tDSDNd

> <s_epik_cmdline>
J2VwaWtfcHl0aG9uJywgJy1waCcsICc3LjAnLCAnLXRuJywgJzgnLCAnLW1hJywgJzIwMCcsICctbWV0YWxfYmluZGluZycsICctaW1hZScsICc8aW5maWxlLm1hZT4nLCAnLW9tYWUnLCAnPG91dGZpbGUubWFlPic=

> <r_epik_Ionization_Penalty>
0.646518

> <r_epik_Ionization_Penalty_Charging>
0.559419

> <r_epik_Ionization_Penalty_Neutral>
0.0870981

> <r_epik_State_Penalty>
0.661677

> <r_epik_Charging_Adjusted_Penalty>
1.2211

> <i_epik_Tot_Q>
1

> <i_epik_Tot_abs_Q>
1

> <r_epik_Metal_State_Penalty>
0.649158

> <b_epik_Metal_Only>
0

> <s_lp_Force_Field>
OPLS_2005

> <r_lp_Energy>
10.0626

> <b_lp_Chiralities_Consistent>
1

> <s_lp_Variant>
AV-unprocessed.smi:1207-3

> <Gold.Version>
5.8.1

> <Gold.Id.Protein>
6NUR|6NUR_protein|mol2

> <Gold.PLP.Fitness>
55.0200

> <Gold.PLP.PLP>
-44.6772

> <Gold.PLP.part.hbond>
-3.3964

> <Gold.PLP.part.metal>
0.0000

> <Gold.PLP.part.buried>
-4.2060

> <Gold.PLP.part.nonpolar>
-37.2845

> <Gold.PLP.part.repulsive>
0.1438

> <Gold.PLP.ligand.clash>
0.0000

> <Gold.PLP.ligand.torsion>
0.9414

> <Gold.PLP.Chemscore.Hbond>
4.0000

> <Gold.PLP.Chemscore.CHOScore>
0.0000

> <Gold.PLP.Chemscore.Metal>
0.0000

> <Gold.Chemscore.Hbonds>
donor molecule, donor type, donor heavy atom, donor atom, acceptor molecule, acceptor atom, score
      L1  H    10    34       P1  7948  0.89
      L1  H    12    52       P1  7948  2.00
      P1  H  7997  8008       L1     5  0.85

> <Gold.PLP.Chemscore.Internal.Correction>
0.2256

> <Gold.Rescore>
     Score         DG    S(hbond)    S(metal)    S(lipo)     H(rot)  DE(clash)    DE(int)     intcor
     19.79     -20.70       2.29        0.00     118.40       2.46       0.13       0.78       ----

> <Gold.Chemscore.Fitness>
19.7865

> <Gold.Chemscore.DG>
-20.6996

> <Gold.Chemscore.ZeroCoef>
-5.4800

> <Gold.Chemscore.Hbond>
2.2921

> <Gold.Chemscore.Metal>
0.0000

> <Gold.Chemscore.Lipo>
118.3996

> <Gold.Chemscore.Internal_Hbond>
0.0000

> <Gold.Chemscore.DEClash>
0.1344

> <Gold.Chemscore.DEInternal>
0.7787

> <Gold.Chemscore.Rot>
2.4565

> <Gold.Chemscore.Internal.Correction>
   9.000000E+99

> <Gold.Chemscore.Hbonds>
donor molecule, donor type, donor heavy atom, donor atom, acceptor molecule, acceptor atom, score
      L1  H    10    34       P1  7948  0.85
      L1  H    12    52       P1  7948  0.96
      P1  H  7997  8008       L1     5  0.10

> <Gold.Chemscore.Hbond.Weighted>
-7.6555

> <Gold.Chemscore.Metal.Weighted>
-0.0000

> <Gold.Chemscore.Lipo.Weighted>
-13.8528

> <Gold.Chemscore.Internal_Hbond.Weighted>
0.0000

> <Gold.Chemscore.DEClash.Weighted>
0.1344

> <Gold.Chemscore.DEInternal.Weighted>
0.7787

> <Gold.Chemscore.Rot.Weighted>
6.2887

> <Gold.Chemscore.Internal.Correction.Weighted>
   9.000000E+99

> <Gold.Protein.RotatedTorsions>
[ 6907 6896 6895 6894 ] final  114.86 input  -60.11 | X-H torsion
[ 7974 7965 7964 7962 ] final   37.85 input  175.53 | X-H torsion
[ 8008 7997 7996 7995 ] final  -60.30 input   59.86 | X-H torsion
[ 10167 10162 10161 10158 ] final   72.83 input  -65.29 | X-H torsion
[ 10718 10713 10712 10709 ] final   15.18 input   66.30 | X-H torsion
[ 10763 10752 10751 10750 ] final   -9.74 input  -60.55 | X-H torsion
[ 11005 11000 10999 10996 ] final   91.54 input  -57.11 | X-H torsion

> <Gold.Protein.ActiveResidues>
 VAL166  LYS551  ARG553  GLY616  TRP617  ASP618  TYR619  PRO620  LYS621  CYS622 
 ASP623  PHE694  ASN695  SER759  ASP760  ASP761  ALA762  ILE779  LEU786  VAL792 
 PHE793  MET794  SER795  GLU796  ALA797  LYS798  CYS799  TRP800  GLU811  SER814 

> <Gold.Protein.RotatedAtoms>
  152.4777  133.8178  159.7037 H   0  0  0  0  0  0  0  0  0  0  0  0  # atno 6907 bound_to 6896
  150.8805  133.7369  159.2940 H   0  0  0  0  0  0  0  0  0  0  0  0  # atno 6908 bound_to 6896
  151.4875  135.1059  159.9846 H   0  0  0  0  0  0  0  0  0  0  0  0  # atno 6909 bound_to 6896
  146.1107  139.5844  142.9354 H   0  0  0  0  0  0  0  0  0  0  0  0  # atno 7974 bound_to 7965
  154.4392  140.1042  156.6251 H   0  0  0  0  0  0  0  0  0  0  0  0  # atno 8008 bound_to 7997
  155.5665  140.3488  155.4485 H   0  0  0  0  0  0  0  0  0  0  0  0  # atno 8009 bound_to 7997
  156.0421  140.1284  157.0133 H   0  0  0  0  0  0  0  0  0  0  0  0  # atno 8010 bound_to 7997
  140.0310  144.5465  150.7507 H   0  0  0  0  0  0  0  0  0  0  0  0  # atno 10167 bound_to 10162
  157.0498  130.6265  149.5766 H   0  0  0  0  0  0  0  0  0  0  0  0  # atno 10718 bound_to 10713
  153.4591  135.7016  153.6061 H   0  0  0  0  0  0  0  0  0  0  0  0  # atno 10763 bound_to 10752
  153.4363  135.3790  155.2201 H   0  0  0  0  0  0  0  0  0  0  0  0  # atno 10764 bound_to 10752
  154.8727  135.3963  154.4014 H   0  0  0  0  0  0  0  0  0  0  0  0  # atno 10765 bound_to 10752
  139.8837  134.8680  156.3443 H   0  0  0  0  0  0  0  0  0  0  0  0  # atno 11005 bound_to 11000
  145.5670  141.0398  143.2195 LP  0  0  0  0  0  0  0  0  0  0  0  0  # atno 17320 bound_to 7965
  144.7509  139.7197  143.7273 LP  0  0  0  0  0  0  0  0  0  0  0  0  # atno 17321 bound_to 7965
  140.7302  143.2680  151.3979 LP  0  0  0  0  0  0  0  0  0  0  0  0  # atno 17342 bound_to 10162
  139.6076  144.1165  152.2265 LP  0  0  0  0  0  0  0  0  0  0  0  0  # atno 17343 bound_to 10162
  156.0011  130.5090  150.7666 LP  0  0  0  0  0  0  0  0  0  0  0  0  # atno 17370 bound_to 10713
  157.5039  131.0920  151.0281 LP  0  0  0  0  0  0  0  0  0  0  0  0  # atno 17371 bound_to 10713
  140.9637  133.7372  156.0437 LP  0  0  0  0  0  0  0  0  0  0  0  0  # atno 17394 bound_to 11000
  140.7957  134.3566  157.5453 LP  0  0  0  0  0  0  0  0  0  0  0  0  # atno 17395 bound_to 11000

$$$$
