AV-unprocessed.smi:2908|AV-procd|sdf|11170|dock4
  -GOLD-   2272016 63D 1   1.00000     0.00000
 Structure written by MMmdl.
 44 45  0  0  0  0  0  0  0  0  2 V2000
  149.6411  141.1715  154.1035 O   0  0  0  0  0  0  0  0  0  0  0  0
  148.7794  141.4769  154.9294 C   0  0  0  0  0  0  0  0  0  0  0  0
  149.0853  141.7630  156.2073 N   0  0  0  0  0  0  0  0  0  0  0  0
  150.4268  141.7666  156.7865 C   0  0  0  0  0  0  0  0  0  0  0  0
  150.5940  142.8385  157.8816 C   0  0  0  0  0  0  0  0  0  0  0  0
  151.6881  142.5206  158.8858 C   0  0  0  0  0  0  0  0  0  0  0  0
  152.4927  141.3646  158.7820 C   0  0  0  0  0  0  0  0  0  0  0  0
  153.5098  141.1461  159.7342 C   0  0  0  0  0  0  0  0  0  0  0  0
  153.6995  142.0842  160.7700 C   0  0  0  0  0  0  0  0  0  0  0  0
  152.8652  143.2189  160.8280 C   0  0  0  0  0  0  0  0  0  0  0  0
  151.9016  143.3934  159.8971 N   0  3  0  0  0  0  0  0  0  0  0  0
  147.4529  141.4990  154.6447 N   0  0  0  0  0  0  0  0  0  0  0  0
  146.3561  141.6642  155.6121 C   0  0  0  0  0  0  0  0  0  0  0  0
  145.7922  143.0897  155.4791 C   0  0  0  0  0  0  0  0  0  0  0  0
  145.3186  143.3828  154.0348 C   0  0  0  0  0  0  0  0  0  0  0  0
  144.7829  144.8325  153.8974 C   0  0  1  0  0  0  0  0  0  0  0  0
  144.3270  145.0646  152.5779 O   0  0  0  0  0  0  0  0  0  0  0  0
  143.6740  145.2302  154.8966 C   0  0  0  0  0  0  0  0  0  0  0  0
  142.8194  144.2172  155.0400 F   0  0  0  0  0  0  0  0  0  0  0  0
  144.1697  145.5506  156.0913 F   0  0  0  0  0  0  0  0  0  0  0  0
  142.9938  146.2734  154.4215 F   0  0  0  0  0  0  0  0  0  0  0  0
  146.4150  142.9989  153.0090 C   0  0  0  0  0  0  0  0  0  0  0  0
  146.9553  141.5803  153.2669 C   0  0  0  0  0  0  0  0  0  0  0  0
  148.3237  141.9959  156.8281 H   0  0  0  0  0  0  0  0  0  0  0  0
  150.6780  140.7806  157.1811 H   0  0  0  0  0  0  0  0  0  0  0  0
  151.1371  141.9580  155.9820 H   0  0  0  0  0  0  0  0  0  0  0  0
  150.8137  143.8017  157.4192 H   0  0  0  0  0  0  0  0  0  0  0  0
  149.6507  142.9686  158.4140 H   0  0  0  0  0  0  0  0  0  0  0  0
  152.3409  140.6594  157.9777 H   0  0  0  0  0  0  0  0  0  0  0  0
  154.1391  140.2705  159.6690 H   0  0  0  0  0  0  0  0  0  0  0  0
  154.4747  141.9366  161.5077 H   0  0  0  0  0  0  0  0  0  0  0  0
  152.9408  143.9882  161.5824 H   0  0  0  0  0  0  0  0  0  0  0  0
  145.5745  140.9337  155.3969 H   0  0  0  0  0  0  0  0  0  0  0  0
  146.6450  141.4789  156.6466 H   0  0  0  0  0  0  0  0  0  0  0  0
  144.9647  143.2221  156.1767 H   0  0  0  0  0  0  0  0  0  0  0  0
  146.5608  143.8055  155.7741 H   0  0  0  0  0  0  0  0  0  0  0  0
  144.4751  142.7150  153.8546 H   0  0  0  0  0  0  0  0  0  0  0  0
  145.6219  145.5101  154.0630 H   0  0  0  0  0  0  0  0  0  0  0  0
  143.3848  145.1373  152.5959 H   0  0  0  0  0  0  0  0  0  0  0  0
  146.0217  143.0406  151.9945 H   0  0  0  0  0  0  0  0  0  0  0  0
  147.2410  143.7098  153.0543 H   0  0  0  0  0  0  0  0  0  0  0  0
  147.7187  141.3319  152.5283 H   0  0  0  0  0  0  0  0  0  0  0  0
  146.1610  140.8459  153.1252 H   0  0  0  0  0  0  0  0  0  0  0  0
  151.3144  144.2257  159.9543 H   0  0  0  0  0  0  0  0  0  0  0  0
  1  2  2  0  0  0  0
  2  3  1  0  0  0  0
  2 12  1  0  0  0  0
  3  4  1  0  0  0  0
  3 24  1  0  0  0  0
  4  5  1  0  0  0  0
  4 25  1  0  0  0  0
  4 26  1  0  0  0  0
  5  6  1  0  0  0  0
  5 27  1  0  0  0  0
  5 28  1  0  0  0  0
  6 11  1  0  0  0  0
  6  7  2  0  0  0  0
  7  8  1  0  0  0  0
  7 29  1  0  0  0  0
  8  9  2  0  0  0  0
  8 30  1  0  0  0  0
  9 10  1  0  0  0  0
  9 31  1  0  0  0  0
 10 11  2  0  0  0  0
 10 32  1  0  0  0  0
 11 44  1  0  0  0  0
 12 23  1  0  0  0  0
 12 13  1  0  0  0  0
 13 14  1  0  0  0  0
 13 33  1  0  0  0  0
 13 34  1  0  0  0  0
 14 15  1  0  0  0  0
 14 35  1  0  0  0  0
 14 36  1  0  0  0  0
 15 16  1  0  0  0  0
 15 22  1  0  0  0  0
 15 37  1  0  0  0  0
 16 17  1  0  0  0  0
 16 18  1  0  0  0  0
 16 38  1  0  0  0  0
 17 39  1  0  0  0  0
 18 19  1  0  0  0  0
 18 20  1  0  0  0  0
 18 21  1  0  0  0  0
 22 23  1  0  0  0  0
 22 40  1  0  0  0  0
 22 41  1  0  0  0  0
 23 42  1  0  0  0  0
 23 43  1  0  0  0  0
M  CHG  1  11   1
M  END
> <s_m_source_file>
AV-unprocessed.smi

> <i_m_source_file_index>
2908

> <i_lp_mmshare_version>
43012

> <i_f3d_flags>
0

> <s_epik_input>
RkMoRikoRilbQ0BASF0oW09IXSlbQ0hdKFtDSDJdW0NIMl0xKVtDSDJdW0NIMl1OMUMoPU8pW05IXVtDSDJdW0NIMl1jMltjSF1bY0hdW2NIXVtjSF1uMg==

> <s_epik_cmdline>
J2VwaWtfcHl0aG9uJywgJy1waCcsICc3LjAnLCAnLXRuJywgJzgnLCAnLW1hJywgJzIwMCcsICctbWV0YWxfYmluZGluZycsICctaW1hZScsICc8aW5maWxlLm1hZT4nLCAnLW9tYWUnLCAnPG91dGZpbGUubWFlPic=

> <r_epik_Ionization_Penalty>
1.55054

> <r_epik_Ionization_Penalty_Charging>
1.55036

> <r_epik_Ionization_Penalty_Neutral>
0.00017404

> <r_epik_State_Penalty>
1.64453

> <r_epik_Charging_Adjusted_Penalty>
3.19489

> <i_epik_Tot_Q>
1

> <i_epik_Tot_abs_Q>
1

> <r_epik_Metal_State_Penalty>
1.68672

> <b_epik_Metal_Only>
0

> <s_lp_Force_Field>
OPLS_2005

> <r_lp_Energy>
43.524

> <b_lp_Chiralities_Consistent>
1

> <s_lp_Variant>
AV-unprocessed.smi:2908-4

> <Gold.Version>
5.8.1

> <Gold.Id.Protein>
6NUR|6NUR_protein|mol2

> <Gold.PLP.Fitness>
46.4226

> <Gold.PLP.PLP>
-45.7032

> <Gold.PLP.part.hbond>
-4.9121

> <Gold.PLP.part.metal>
0.0000

> <Gold.PLP.part.buried>
-8.9380

> <Gold.PLP.part.nonpolar>
-32.4927

> <Gold.PLP.part.repulsive>
0.3025

> <Gold.PLP.ligand.clash>
0.0000

> <Gold.PLP.ligand.torsion>
1.1210

> <Gold.PLP.Chemscore.Hbond>
0.8986

> <Gold.PLP.Chemscore.CHOScore>
0.0000

> <Gold.PLP.Chemscore.Metal>
0.0000

> <Gold.Chemscore.Hbonds>
donor molecule, donor type, donor heavy atom, donor atom, acceptor molecule, acceptor atom, score
      P1  H  7989  7998       L1     1  0.36
      P1  H  8011  8017       L1     1  0.51

> <Gold.PLP.Chemscore.Internal.Correction>
0.2659

> <Gold.Rescore>
     Score         DG    S(hbond)    S(metal)    S(lipo)     H(rot)  DE(clash)    DE(int)     intcor
     10.25     -13.42       0.64        0.00     102.21       2.40       1.05       2.12       ----

> <Gold.Chemscore.Fitness>
10.2474

> <Gold.Chemscore.DG>
-13.4213

> <Gold.Chemscore.ZeroCoef>
-5.4800

> <Gold.Chemscore.Hbond>
0.6389

> <Gold.Chemscore.Metal>
0.0000

> <Gold.Chemscore.Lipo>
102.2057

> <Gold.Chemscore.Internal_Hbond>
0.0000

> <Gold.Chemscore.DEClash>
1.0493

> <Gold.Chemscore.DEInternal>
2.1246

> <Gold.Chemscore.Rot>
2.4026

> <Gold.Chemscore.Internal.Correction>
   9.000000E+99

> <Gold.Chemscore.Hbonds>
donor molecule, donor type, donor heavy atom, donor atom, acceptor molecule, acceptor atom, score
      P1  H  7989  7998       L1     1  0.34
      P1  H  8011  8017       L1     1  0.49

> <Gold.Chemscore.Hbond.Weighted>
-2.1340

> <Gold.Chemscore.Metal.Weighted>
-0.0000

> <Gold.Chemscore.Lipo.Weighted>
-11.9581

> <Gold.Chemscore.Internal_Hbond.Weighted>
0.0000

> <Gold.Chemscore.DEClash.Weighted>
1.0493

> <Gold.Chemscore.DEInternal.Weighted>
2.1246

> <Gold.Chemscore.Rot.Weighted>
6.1508

> <Gold.Chemscore.Internal.Correction.Weighted>
   9.000000E+99

> <Gold.Protein.RotatedTorsions>
[ 6907 6896 6895 6894 ] final  179.17 input  -60.11 | X-H torsion
[ 7974 7965 7964 7962 ] final  172.51 input  175.53 | X-H torsion
[ 8008 7997 7996 7995 ] final -132.59 input   59.86 | X-H torsion
[ 10167 10162 10161 10158 ] final  124.02 input  -65.29 | X-H torsion
[ 10718 10713 10712 10709 ] final -150.48 input   66.30 | X-H torsion
[ 10763 10752 10751 10750 ] final -176.10 input  -60.55 | X-H torsion
[ 11005 11000 10999 10996 ] final  -10.43 input  -57.11 | X-H torsion

> <Gold.Protein.ActiveResidues>
 VAL166  LYS551  ARG553  GLY616  TRP617  ASP618  TYR619  PRO620  LYS621  CYS622 
 ASP623  PHE694  ASN695  SER759  ASP760  ASP761  ALA762  ILE779  LEU786  VAL792 
 PHE793  MET794  SER795  GLU796  ALA797  LYS798  CYS799  TRP800  GLU811  SER814 

> <Gold.Protein.RotatedAtoms>
  151.6759  133.3313  159.3207 H   0  0  0  0  0  0  0  0  0  0  0  0  # atno 6907 bound_to 6896
  150.7845  134.6822  159.6460 H   0  0  0  0  0  0  0  0  0  0  0  0  # atno 6908 bound_to 6896
  152.3912  134.6442  160.0159 H   0  0  0  0  0  0  0  0  0  0  0  0  # atno 6909 bound_to 6896
  144.7266  139.9509  143.6432 H   0  0  0  0  0  0  0  0  0  0  0  0  # atno 7974 bound_to 7965
  155.3314  140.0467  157.3042 H   0  0  0  0  0  0  0  0  0  0  0  0  # atno 8008 bound_to 7997
  154.5326  140.2262  155.8744 H   0  0  0  0  0  0  0  0  0  0  0  0  # atno 8009 bound_to 7997
  156.1803  140.3075  155.9143 H   0  0  0  0  0  0  0  0  0  0  0  0  # atno 8010 bound_to 7997
  139.5765  144.6966  151.3639 H   0  0  0  0  0  0  0  0  0  0  0  0  # atno 10167 bound_to 10162
  156.4466  130.8148  151.2378 H   0  0  0  0  0  0  0  0  0  0  0  0  # atno 10718 bound_to 10713
  154.5764  135.2832  155.0776 H   0  0  0  0  0  0  0  0  0  0  0  0  # atno 10763 bound_to 10752
  154.2129  135.6404  153.5124 H   0  0  0  0  0  0  0  0  0  0  0  0  # atno 10764 bound_to 10752
  153.0074  135.5496  154.6404 H   0  0  0  0  0  0  0  0  0  0  0  0  # atno 10765 bound_to 10752
  140.7447  133.8641  155.8996 H   0  0  0  0  0  0  0  0  0  0  0  0  # atno 11005 bound_to 11000
  146.0712  139.3701  143.0522 LP  0  0  0  0  0  0  0  0  0  0  0  0  # atno 17320 bound_to 7965
  145.7965  140.9790  143.1021 LP  0  0  0  0  0  0  0  0  0  0  0  0  # atno 17321 bound_to 7965
  140.7047  143.7543  150.7462 LP  0  0  0  0  0  0  0  0  0  0  0  0  # atno 17342 bound_to 10162
  140.1064  143.4740  152.2396 LP  0  0  0  0  0  0  0  0  0  0  0  0  # atno 17343 bound_to 10162
  157.7504  131.0151  150.3491 LP  0  0  0  0  0  0  0  0  0  0  0  0  # atno 17370 bound_to 10713
  156.3860  130.3889  149.7065 LP  0  0  0  0  0  0  0  0  0  0  0  0  # atno 17371 bound_to 10713
  140.9805  134.1411  157.4498 LP  0  0  0  0  0  0  0  0  0  0  0  0  # atno 17394 bound_to 11000
  139.8799  135.0009  156.6036 LP  0  0  0  0  0  0  0  0  0  0  0  0  # atno 17395 bound_to 11000

$$$$
