AV-unprocessed.smi:256|AV-procd|sdf|1959|dock6
  -GOLD-   2262021103D 1   1.00000     0.00000
 Structure written by MMmdl.
 62 65  0  0  0  0  0  0  0  0  2 V2000
  147.7462  141.4128  157.3208 C   0  0  0  0  0  0  0  0  0  0  0  0
  149.1739  141.0177  157.7238 C   0  0  0  0  0  0  0  0  0  0  0  0
  150.2743  141.5634  156.7747 C   0  0  2  0  0  0  0  0  0  0  0  0
  150.1581  141.0264  155.3279 C   0  0  0  0  0  0  0  0  0  0  0  0
  150.5744  139.6265  155.2459 N   0  0  0  0  0  0  0  0  0  0  0  0
  149.6146  138.6610  155.2968 C   0  0  0  0  0  0  0  0  0  0  0  0
  149.8741  137.5691  156.0632 N   0  0  0  0  0  0  0  0  0  0  0  0
  148.9887  136.5748  156.1616 C   0  0  0  0  0  0  0  0  0  0  0  0
  147.7932  136.4664  155.5844 N   0  0  0  0  0  0  0  0  0  0  0  0
  147.5176  137.5541  154.8113 C   0  0  0  0  0  0  0  0  0  0  0  0
  148.3581  138.6894  154.6149 C   0  0  0  0  0  0  0  0  0  0  0  0
  147.7261  139.5825  153.7544 N   0  0  0  0  0  0  0  0  0  0  0  0
  146.5849  139.0183  153.4724 C   0  0  0  0  0  0  0  0  0  0  0  0
  146.3832  137.7894  154.0548 N   0  0  0  0  0  0  0  0  0  0  0  0
  145.2152  136.9339  153.9078 C   0  0  0  0  0  0  0  0  0  0  0  0
  145.3915  135.7980  152.8693 C   0  0  0  0  0  0  0  0  0  0  0  0
  146.5815  135.0964  153.1863 O   0  0  0  0  0  0  0  0  0  0  0  0
  144.2098  134.8110  152.9514 C   0  0  0  0  0  0  0  0  0  0  0  0
  144.2493  133.7631  151.8251 C   0  0  0  0  0  0  0  0  0  0  0  0
  144.2908  134.4124  150.5604 O   0  0  0  0  0  0  0  0  0  0  0  0
  145.4648  135.1958  150.3832 C   0  0  0  0  0  0  0  0  0  0  0  0
  145.5096  136.3289  151.4239 C   0  0  0  0  0  0  0  0  0  0  0  0
  151.9263  139.3834  155.7341 C   0  0  0  0  0  0  0  0  0  0  0  0
  152.0955  139.9079  157.1720 C   0  0  0  0  0  0  0  0  0  0  0  0
  151.6646  141.3272  157.2821 N   0  3  2  0  0  0  0  0  0  0  0  0
  151.9954  141.9127  158.6101 C   0  0  0  0  0  0  0  0  0  0  0  0
  152.0261  143.4540  158.6136 C   0  0  0  0  0  0  0  0  0  0  0  0
  152.6536  143.9746  159.7784 O   0  0  0  0  0  0  0  0  0  0  0  0
  152.2223  143.3789  160.9922 C   0  0  0  0  0  0  0  0  0  0  0  0
  147.0307  141.0868  158.0760 H   0  0  0  0  0  0  0  0  0  0  0  0
  147.4481  140.9547  156.3782 H   0  0  0  0  0  0  0  0  0  0  0  0
  147.6488  142.4938  157.2179 H   0  0  0  0  0  0  0  0  0  0  0  0
  149.3313  141.3994  158.7314 H   0  0  0  0  0  0  0  0  0  0  0  0
  149.2338  139.9325  157.8021 H   0  0  0  0  0  0  0  0  0  0  0  0
  150.1311  142.6409  156.7009 H   0  0  0  0  0  0  0  0  0  0  0  0
  149.1612  141.1987  154.9252 H   0  0  0  0  0  0  0  0  0  0  0  0
  150.8253  141.6000  154.6833 H   0  0  0  0  0  0  0  0  0  0  0  0
  149.2807  135.7474  156.7915 H   0  0  0  0  0  0  0  0  0  0  0  0
  145.8591  139.4802  152.8188 H   0  0  0  0  0  0  0  0  0  0  0  0
  144.9719  136.5169  154.8861 H   0  0  0  0  0  0  0  0  0  0  0  0
  144.3698  137.5650  153.6308 H   0  0  0  0  0  0  0  0  0  0  0  0
  147.3023  135.5063  152.7332 H   0  0  0  0  0  0  0  0  0  0  0  0
  144.1920  134.3153  153.9230 H   0  0  0  0  0  0  0  0  0  0  0  0
  143.2722  135.3633  152.8744 H   0  0  0  0  0  0  0  0  0  0  0  0
  145.1072  133.0981  151.9351 H   0  0  0  0  0  0  0  0  0  0  0  0
  143.3586  133.1364  151.8689 H   0  0  0  0  0  0  0  0  0  0  0  0
  146.3516  134.5641  150.4516 H   0  0  0  0  0  0  0  0  0  0  0  0
  145.4554  135.6163  149.3774 H   0  0  0  0  0  0  0  0  0  0  0  0
  144.6847  137.0142  151.2253 H   0  0  0  0  0  0  0  0  0  0  0  0
  146.4258  136.9056  151.2933 H   0  0  0  0  0  0  0  0  0  0  0  0
  152.2072  138.3343  155.6520 H   0  0  0  0  0  0  0  0  0  0  0  0
  152.6131  139.9182  155.0772 H   0  0  0  0  0  0  0  0  0  0  0  0
  151.5264  139.3013  157.8762 H   0  0  0  0  0  0  0  0  0  0  0  0
  153.1432  139.8167  157.4607 H   0  0  0  0  0  0  0  0  0  0  0  0
  151.3011  141.5493  159.3674 H   0  0  0  0  0  0  0  0  0  0  0  0
  152.9725  141.5411  158.9187 H   0  0  0  0  0  0  0  0  0  0  0  0
  152.5662  143.8213  157.7413 H   0  0  0  0  0  0  0  0  0  0  0  0
  151.0153  143.8533  158.5196 H   0  0  0  0  0  0  0  0  0  0  0  0
  152.7055  143.8783  161.8318 H   0  0  0  0  0  0  0  0  0  0  0  0
  152.4864  142.3227  161.0425 H   0  0  0  0  0  0  0  0  0  0  0  0
  151.1438  143.4784  161.1215 H   0  0  0  0  0  0  0  0  0  0  0  0
  152.2565  141.8230  156.6309 H   0  0  0  0  0  0  0  0  0  0  0  0
  1  2  1  0  0  0  0
  1 30  1  0  0  0  0
  1 31  1  0  0  0  0
  1 32  1  0  0  0  0
  2  3  1  0  0  0  0
  2 33  1  0  0  0  0
  2 34  1  0  0  0  0
  3 25  1  0  0  0  0
  3  4  1  0  0  0  0
  3 35  1  0  0  0  0
  4  5  1  0  0  0  0
  4 36  1  0  0  0  0
  4 37  1  0  0  0  0
  5  6  1  0  0  0  0
  5 23  1  0  0  0  0
  6 11  1  0  0  0  0
  6  7  2  0  0  0  0
  7  8  1  0  0  0  0
  8  9  2  0  0  0  0
  8 38  1  0  0  0  0
  9 10  1  0  0  0  0
 10 14  1  0  0  0  0
 10 11  2  0  0  0  0
 11 12  1  0  0  0  0
 12 13  2  0  0  0  0
 13 14  1  0  0  0  0
 13 39  1  0  0  0  0
 14 15  1  0  0  0  0
 15 16  1  0  0  0  0
 15 40  1  0  0  0  0
 15 41  1  0  0  0  0
 16 22  1  0  0  0  0
 16 17  1  0  0  0  0
 16 18  1  0  0  0  0
 17 42  1  0  0  0  0
 18 19  1  0  0  0  0
 18 43  1  0  0  0  0
 18 44  1  0  0  0  0
 19 20  1  0  0  0  0
 19 45  1  0  0  0  0
 19 46  1  0  0  0  0
 20 21  1  0  0  0  0
 21 22  1  0  0  0  0
 21 47  1  0  0  0  0
 21 48  1  0  0  0  0
 22 49  1  0  0  0  0
 22 50  1  0  0  0  0
 23 24  1  0  0  0  0
 23 51  1  0  0  0  0
 23 52  1  0  0  0  0
 24 25  1  0  0  0  0
 24 53  1  0  0  0  0
 24 54  1  0  0  0  0
 25 26  1  0  0  0  0
 25 62  1  0  0  0  0
 26 27  1  0  0  0  0
 26 55  1  0  0  0  0
 26 56  1  0  0  0  0
 27 28  1  0  0  0  0
 27 57  1  0  0  0  0
 27 58  1  0  0  0  0
 28 29  1  0  0  0  0
 29 59  1  0  0  0  0
 29 60  1  0  0  0  0
 29 61  1  0  0  0  0
M  CHG  1  25   1
M  END
> <s_m_source_file>
AV-unprocessed.smi

> <i_m_source_file_index>
256

> <i_lp_mmshare_version>
43012

> <i_f3d_flags>
0

> <s_epik_input>
W0NIM11PW0NIMl1bQ0gyXU4xW0NIMl1bQ0gyXU4oW0NIMl1bQ0BIXTFbQ0gyXVtDSDNdKWMobltjSF1uMiljKGMyMyluW2NIXW4zW0NIMl1DNChbT0hdKVtDSDJdW0NIMl1PW0NIMl1bQ0gyXTQ=

> <s_epik_cmdline>
J2VwaWtfcHl0aG9uJywgJy1waCcsICc3LjAnLCAnLXRuJywgJzgnLCAnLW1hJywgJzIwMCcsICctbWV0YWxfYmluZGluZycsICctaW1hZScsICc8aW5maWxlLm1hZT4nLCAnLW9tYWUnLCAnPG91dGZpbGUubWFlPic=

> <r_lp_tautomer_probability>
1

> <r_epik_Ionization_Penalty>
0.233023

> <r_epik_Ionization_Penalty_Charging>
0.23295

> <r_epik_Ionization_Penalty_Neutral>
7.2493e-05

> <r_epik_State_Penalty>
0.223667

> <r_epik_Charging_Adjusted_Penalty>
0.456618

> <i_epik_Tot_Q>
1

> <i_epik_Tot_abs_Q>
1

> <r_epik_Metal_State_Penalty>
0.226879

> <b_epik_Metal_Only>
0

> <s_lp_Force_Field>
OPLS_2005

> <r_lp_Energy>
46.9359

> <b_lp_Chiralities_Consistent>
1

> <s_lp_Variant>
AV-unprocessed.smi:256-3

> <Gold.Version>
5.8.1

> <Gold.Id.Protein>
6NUR|6NUR_protein|mol2

> <Gold.PLP.Fitness>
41.2797

> <Gold.PLP.PLP>
-36.6919

> <Gold.PLP.part.hbond>
-1.0000

> <Gold.PLP.part.metal>
0.0000

> <Gold.PLP.part.buried>
-3.0597

> <Gold.PLP.part.nonpolar>
-32.8857

> <Gold.PLP.part.repulsive>
0.5646

> <Gold.PLP.ligand.clash>
0.0000

> <Gold.PLP.ligand.torsion>
0.9661

> <Gold.PLP.Chemscore.Hbond>
1.0000

> <Gold.PLP.Chemscore.CHOScore>
1.0000

> <Gold.PLP.Chemscore.Metal>
0.0000

> <Gold.Chemscore.Hbonds>
donor molecule, donor type, donor heavy atom, donor atom, acceptor molecule, acceptor atom, score
      L1  H    17    42       P1  7948  1.00
      L1  C    13    39       P1 10175  1.00

> <Gold.PLP.Chemscore.Internal.Correction>
0.5199

> <Gold.Rescore>
     Score         DG    S(hbond)    S(metal)    S(lipo)     H(rot)  DE(clash)    DE(int)     intcor
     10.80     -13.41       0.99        0.00      97.41       2.65       1.70       0.91       ----

> <Gold.Chemscore.Fitness>
10.8045

> <Gold.Chemscore.DG>
-13.4072

> <Gold.Chemscore.ZeroCoef>
-5.4800

> <Gold.Chemscore.Hbond>
0.9893

> <Gold.Chemscore.Metal>
0.0000

> <Gold.Chemscore.Lipo>
97.4104

> <Gold.Chemscore.Internal_Hbond>
0.0000

> <Gold.Chemscore.DEClash>
1.6976

> <Gold.Chemscore.DEInternal>
0.9052

> <Gold.Chemscore.Rot>
2.6462

> <Gold.Chemscore.Internal.Correction>
   9.000000E+99

> <Gold.Chemscore.Hbonds>
donor molecule, donor type, donor heavy atom, donor atom, acceptor molecule, acceptor atom, score
      L1  H    17    42       P1  7948  0.97

> <Gold.Chemscore.Hbond.Weighted>
-3.3044

> <Gold.Chemscore.Metal.Weighted>
-0.0000

> <Gold.Chemscore.Lipo.Weighted>
-11.3970

> <Gold.Chemscore.Internal_Hbond.Weighted>
0.0000

> <Gold.Chemscore.DEClash.Weighted>
1.6976

> <Gold.Chemscore.DEInternal.Weighted>
0.9052

> <Gold.Chemscore.Rot.Weighted>
6.7742

> <Gold.Chemscore.Internal.Correction.Weighted>
   9.000000E+99

> <Gold.Protein.RotatedTorsions>
[ 6907 6896 6895 6894 ] final   24.23 input  -60.11 | X-H torsion
[ 7974 7965 7964 7962 ] final  115.24 input  175.53 | X-H torsion
[ 8008 7997 7996 7995 ] final  -48.13 input   59.86 | X-H torsion
[ 10167 10162 10161 10158 ] final  135.82 input  -65.29 | X-H torsion
[ 10718 10713 10712 10709 ] final  -75.98 input   66.30 | X-H torsion
[ 10763 10752 10751 10750 ] final  110.52 input  -60.55 | X-H torsion
[ 11005 11000 10999 10996 ] final  -73.87 input  -57.11 | X-H torsion

> <Gold.Protein.ActiveResidues>
 VAL166  LYS551  ARG553  GLY616  TRP617  ASP618  TYR619  PRO620  LYS621  CYS622 
 ASP623  PHE694  ASN695  SER759  ASP760  ASP761  ALA762  ILE779  LEU786  VAL792 
 PHE793  MET794  SER795  GLU796  ALA797  LYS798  CYS799  TRP800  GLU811  SER814 

> <Gold.Protein.RotatedAtoms>
  151.9544  135.0153  160.0543 H   0  0  0  0  0  0  0  0  0  0  0  0  # atno 6907 bound_to 6896
  152.1924  133.4778  159.5023 H   0  0  0  0  0  0  0  0  0  0  0  0  # atno 6908 bound_to 6896
  150.6938  134.1612  159.4220 H   0  0  0  0  0  0  0  0  0  0  0  0  # atno 6909 bound_to 6896
  145.1945  139.2983  143.4351 H   0  0  0  0  0  0  0  0  0  0  0  0  # atno 7974 bound_to 7965
  154.4025  140.1329  156.4288 H   0  0  0  0  0  0  0  0  0  0  0  0  # atno 8008 bound_to 7997
  155.7571  140.3487  155.5159 H   0  0  0  0  0  0  0  0  0  0  0  0  # atno 8009 bound_to 7997
  155.8894  140.1001  157.1419 H   0  0  0  0  0  0  0  0  0  0  0  0  # atno 8010 bound_to 7997
  139.5203  144.6497  151.5338 H   0  0  0  0  0  0  0  0  0  0  0  0  # atno 10167 bound_to 10162
  156.0189  130.4454  150.3125 H   0  0  0  0  0  0  0  0  0  0  0  0  # atno 10718 bound_to 10713
  153.4501  135.3746  155.2279 H   0  0  0  0  0  0  0  0  0  0  0  0  # atno 10763 bound_to 10752
  154.8756  135.3884  154.4048 H   0  0  0  0  0  0  0  0  0  0  0  0  # atno 10764 bound_to 10752
  153.4606  135.7086  153.6116 H   0  0  0  0  0  0  0  0  0  0  0  0  # atno 10765 bound_to 10752
  141.1628  133.6892  156.7278 H   0  0  0  0  0  0  0  0  0  0  0  0  # atno 11005 bound_to 11000
  146.3430  140.2169  142.8591 LP  0  0  0  0  0  0  0  0  0  0  0  0  # atno 17320 bound_to 7965
  145.0008  140.8630  143.5282 LP  0  0  0  0  0  0  0  0  0  0  0  0  # atno 17321 bound_to 7965
  140.6297  143.9101  150.6594 LP  0  0  0  0  0  0  0  0  0  0  0  0  # atno 17342 bound_to 10162
  140.2401  143.3670  152.1494 LP  0  0  0  0  0  0  0  0  0  0  0  0  # atno 17343 bound_to 10162
  157.1227  131.0251  151.3002 LP  0  0  0  0  0  0  0  0  0  0  0  0  # atno 17370 bound_to 10713
  157.4615  130.7656  149.7240 LP  0  0  0  0  0  0  0  0  0  0  0  0  # atno 17371 bound_to 10713
  140.2767  134.8349  157.3897 LP  0  0  0  0  0  0  0  0  0  0  0  0  # atno 17394 bound_to 11000
  140.1471  134.4898  155.7988 LP  0  0  0  0  0  0  0  0  0  0  0  0  # atno 17395 bound_to 11000

$$$$
