AV-unprocessed.smi:1643|AV-procd|sdf|6573|dock6
  -GOLD-   22720 7263D 1   1.00000     0.00000
 Structure written by MMmdl.
 54 56  0  0  0  0  0  0  0  0  2 V2000
  143.8521  143.9238  154.9880 C   0  0  0  0  0  0  0  0  0  0  0  0
  144.4838  143.4568  156.3028 C   0  0  0  0  0  0  0  0  0  0  0  0
  143.8374  143.6073  157.3398 O   0  0  0  0  0  0  0  0  0  0  0  0
  145.7178  142.8950  156.2804 N   0  0  0  0  0  0  0  0  0  0  0  0
  146.4716  142.7764  155.0226 C   0  0  0  0  0  0  0  0  0  0  0  0
  146.3527  141.3608  154.4301 C   0  0  0  0  0  0  0  0  0  0  0  0
  146.2811  140.2318  155.4802 C   0  0  0  0  0  0  0  0  0  0  0  0
  147.4219  140.2156  156.4374 N   0  3  1  0  0  0  0  0  0  0  0  0
  148.6856  139.7324  155.8147 C   0  0  0  0  0  0  0  0  0  0  0  0
  149.3032  140.7485  154.8240 C   0  0  2  0  0  0  0  0  0  0  0  0
  150.1106  140.0740  153.8807 O   0  0  0  0  0  0  0  0  0  0  0  0
  150.2020  141.8081  155.4958 C   0  0  0  0  0  0  0  0  0  0  0  0
  151.1218  141.2395  156.4649 N   0  0  0  0  0  0  0  0  0  0  0  0
  151.7994  140.0796  156.3606 C   0  0  0  0  0  0  0  0  0  0  0  0
  152.5885  139.7423  157.3759 N   0  0  0  0  0  0  0  0  0  0  0  0
  152.4163  140.8159  158.2322 C   0  0  0  0  0  0  0  0  0  0  0  0
  152.9837  141.0790  159.4979 C   0  0  0  0  0  0  0  0  0  0  0  0
  152.6630  142.2599  160.2044 C   0  0  0  0  0  0  0  0  0  0  0  0
  153.3017  142.5057  161.5601 C   0  0  0  0  0  0  0  0  0  0  0  0
  151.7593  143.1992  159.6456 C   0  0  0  0  0  0  0  0  0  0  0  0
  151.4035  144.4767  160.3849 C   0  0  0  0  0  0  0  0  0  0  0  0
  151.1808  142.9504  158.3833 C   0  0  0  0  0  0  0  0  0  0  0  0
  151.5082  141.7718  157.6900 C   0  0  0  0  0  0  0  0  0  0  0  0
  147.6037  141.4454  157.2708 C   0  0  0  0  0  0  0  0  0  0  0  0
  146.3456  142.3282  157.4935 C   0  0  0  0  0  0  0  0  0  0  0  0
  143.8604  143.1287  154.2421 H   0  0  0  0  0  0  0  0  0  0  0  0
  144.3814  144.7895  154.5899 H   0  0  0  0  0  0  0  0  0  0  0  0
  142.8131  144.2152  155.1468 H   0  0  0  0  0  0  0  0  0  0  0  0
  146.1458  143.5049  154.2783 H   0  0  0  0  0  0  0  0  0  0  0  0
  147.5158  143.0384  155.1856 H   0  0  0  0  0  0  0  0  0  0  0  0
  145.4463  141.3126  153.8256 H   0  0  0  0  0  0  0  0  0  0  0  0
  147.1784  141.1859  153.7400 H   0  0  0  0  0  0  0  0  0  0  0  0
  145.3479  140.2928  156.0409 H   0  0  0  0  0  0  0  0  0  0  0  0
  146.2215  139.2695  154.9701 H   0  0  0  0  0  0  0  0  0  0  0  0
  149.3999  139.5667  156.6204 H   0  0  0  0  0  0  0  0  0  0  0  0
  148.5419  138.7571  155.3472 H   0  0  0  0  0  0  0  0  0  0  0  0
  148.5039  141.2571  154.2834 H   0  0  0  0  0  0  0  0  0  0  0  0
  149.6558  140.0521  153.0522 H   0  0  0  0  0  0  0  0  0  0  0  0
  150.7797  142.3485  154.7441 H   0  0  0  0  0  0  0  0  0  0  0  0
  149.5901  142.5500  156.0113 H   0  0  0  0  0  0  0  0  0  0  0  0
  151.6997  139.4408  155.4950 H   0  0  0  0  0  0  0  0  0  0  0  0
  153.6734  140.3643  159.9229 H   0  0  0  0  0  0  0  0  0  0  0  0
  152.5376  142.6174  162.3297 H   0  0  0  0  0  0  0  0  0  0  0  0
  153.9063  143.4129  161.5373 H   0  0  0  0  0  0  0  0  0  0  0  0
  153.9506  141.6786  161.8506 H   0  0  0  0  0  0  0  0  0  0  0  0
  150.7005  145.0842  159.8142 H   0  0  0  0  0  0  0  0  0  0  0  0
  152.2965  145.0764  160.5625 H   0  0  0  0  0  0  0  0  0  0  0  0
  150.9429  144.2472  161.3460 H   0  0  0  0  0  0  0  0  0  0  0  0
  150.4931  143.6588  157.9458 H   0  0  0  0  0  0  0  0  0  0  0  0
  147.9593  141.1174  158.2477 H   0  0  0  0  0  0  0  0  0  0  0  0
  148.4140  142.0558  156.8727 H   0  0  0  0  0  0  0  0  0  0  0  0
  146.6164  143.1544  158.1524 H   0  0  0  0  0  0  0  0  0  0  0  0
  145.6163  141.7277  158.0388 H   0  0  0  0  0  0  0  0  0  0  0  0
  147.1638  139.4931  157.0946 H   0  0  0  0  0  0  0  0  0  0  0  0
  1  2  1  0  0  0  0
  1 26  1  0  0  0  0
  1 27  1  0  0  0  0
  1 28  1  0  0  0  0
  2  3  2  0  0  0  0
  2  4  1  0  0  0  0
  4 25  1  0  0  0  0
  4  5  1  0  0  0  0
  5  6  1  0  0  0  0
  5 29  1  0  0  0  0
  5 30  1  0  0  0  0
  6  7  1  0  0  0  0
  6 31  1  0  0  0  0
  6 32  1  0  0  0  0
  7  8  1  0  0  0  0
  7 33  1  0  0  0  0
  7 34  1  0  0  0  0
  8  9  1  0  0  0  0
  8 24  1  0  0  0  0
  8 54  1  0  0  0  0
  9 10  1  0  0  0  0
  9 35  1  0  0  0  0
  9 36  1  0  0  0  0
 10 11  1  0  0  0  0
 10 12  1  0  0  0  0
 10 37  1  0  0  0  0
 11 38  1  0  0  0  0
 12 13  1  0  0  0  0
 12 39  1  0  0  0  0
 12 40  1  0  0  0  0
 13 23  1  0  0  0  0
 13 14  1  0  0  0  0
 14 15  2  0  0  0  0
 14 41  1  0  0  0  0
 15 16  1  0  0  0  0
 16 23  2  0  0  0  0
 16 17  1  0  0  0  0
 17 18  2  0  0  0  0
 17 42  1  0  0  0  0
 18 19  1  0  0  0  0
 18 20  1  0  0  0  0
 19 43  1  0  0  0  0
 19 44  1  0  0  0  0
 19 45  1  0  0  0  0
 20 21  1  0  0  0  0
 20 22  2  0  0  0  0
 21 46  1  0  0  0  0
 21 47  1  0  0  0  0
 21 48  1  0  0  0  0
 22 23  1  0  0  0  0
 22 49  1  0  0  0  0
 24 25  1  0  0  0  0
 24 50  1  0  0  0  0
 24 51  1  0  0  0  0
 25 52  1  0  0  0  0
 25 53  1  0  0  0  0
M  CHG  1   8   1
M  END
> <s_m_source_file>
AV-unprocessed.smi

> <i_m_source_file_index>
1643

> <i_lp_mmshare_version>
43012

> <i_f3d_flags>
0

> <s_epik_input>
W0NIM11DKD1PKU4xW0NIMl1bQ0gyXVtDSDJdTihbQ0gyXVtDSDJdMSlbQ0gyXVtDQEhdKFtPSF0pW0NIMl1uKFtjSF1uMiljKGMyMylbY0hdYyhbQ0gzXSljKFtjSF0zKVtDSDNd

> <s_epik_cmdline>
J2VwaWtfcHl0aG9uJywgJy1waCcsICc3LjAnLCAnLXRuJywgJzgnLCAnLW1hJywgJzIwMCcsICctbWV0YWxfYmluZGluZycsICctaW1hZScsICc8aW5maWxlLm1hZT4nLCAnLW9tYWUnLCAnPG91dGZpbGUubWFlPic=

> <r_epik_Ionization_Penalty>
0.189467

> <r_epik_Ionization_Penalty_Charging>
0.101761

> <r_epik_Ionization_Penalty_Neutral>
0.0877056

> <r_epik_State_Penalty>
0.170758

> <r_epik_Charging_Adjusted_Penalty>
0.272519

> <i_epik_Tot_Q>
1

> <i_epik_Tot_abs_Q>
1

> <r_epik_Metal_State_Penalty>
0.0948013

> <b_epik_Metal_Only>
0

> <s_lp_Force_Field>
OPLS_2005

> <r_lp_Energy>
50.1894

> <b_lp_Chiralities_Consistent>
1

> <s_lp_Variant>
AV-unprocessed.smi:1643-2

> <Gold.Version>
5.8.1

> <Gold.Id.Protein>
6NUR|6NUR_protein|mol2

> <Gold.PLP.Fitness>
52.2576

> <Gold.PLP.PLP>
-44.7819

> <Gold.PLP.part.hbond>
-3.0000

> <Gold.PLP.part.metal>
0.0000

> <Gold.PLP.part.buried>
-5.8356

> <Gold.PLP.part.nonpolar>
-35.7098

> <Gold.PLP.part.repulsive>
0.0353

> <Gold.PLP.ligand.clash>
0.0000

> <Gold.PLP.ligand.torsion>
0.7352

> <Gold.PLP.Chemscore.Hbond>
2.9440

> <Gold.PLP.Chemscore.CHOScore>
0.0000

> <Gold.PLP.Chemscore.Metal>
0.0000

> <Gold.Chemscore.Hbonds>
donor molecule, donor type, donor heavy atom, donor atom, acceptor molecule, acceptor atom, score
      L1  H    11    38       P1  7957  1.00
      P1  H  7989  7998       L1    11  0.86
      P1  H  7997  8010       L1    15  0.95

> <Gold.PLP.Chemscore.Internal.Correction>
0.1140

> <Gold.Rescore>
     Score         DG    S(hbond)    S(metal)    S(lipo)     H(rot)  DE(clash)    DE(int)     intcor
     17.11     -20.01       2.04        0.00     112.24       2.12       0.78       2.12       ----

> <Gold.Chemscore.Fitness>
17.1068

> <Gold.Chemscore.DG>
-20.0070

> <Gold.Chemscore.ZeroCoef>
-5.4800

> <Gold.Chemscore.Hbond>
2.0409

> <Gold.Chemscore.Metal>
0.0000

> <Gold.Chemscore.Lipo>
112.2388

> <Gold.Chemscore.Internal_Hbond>
0.0000

> <Gold.Chemscore.DEClash>
0.7777

> <Gold.Chemscore.DEInternal>
2.1226

> <Gold.Chemscore.Rot>
2.1178

> <Gold.Chemscore.Internal.Correction>
   9.000000E+99

> <Gold.Chemscore.Hbonds>
donor molecule, donor type, donor heavy atom, donor atom, acceptor molecule, acceptor atom, score
      L1  H    11    38       P1  7957  0.96
      P1  H  7989  7998       L1    11  0.27
      P1  H  7997  8010       L1    15  0.15

> <Gold.Chemscore.Hbond.Weighted>
-6.8166

> <Gold.Chemscore.Metal.Weighted>
-0.0000

> <Gold.Chemscore.Lipo.Weighted>
-13.1319

> <Gold.Chemscore.Internal_Hbond.Weighted>
0.0000

> <Gold.Chemscore.DEClash.Weighted>
0.7777

> <Gold.Chemscore.DEInternal.Weighted>
2.1226

> <Gold.Chemscore.Rot.Weighted>
5.4215

> <Gold.Chemscore.Internal.Correction.Weighted>
   9.000000E+99

> <Gold.Protein.RotatedTorsions>
[ 6907 6896 6895 6894 ] final   75.03 input  -60.11 | X-H torsion
[ 7974 7965 7964 7962 ] final  -13.72 input  175.53 | X-H torsion
[ 8008 7997 7996 7995 ] final   45.25 input   59.86 | X-H torsion
[ 10167 10162 10161 10158 ] final -172.40 input  -65.29 | X-H torsion
[ 10718 10713 10712 10709 ] final -105.11 input   66.30 | X-H torsion
[ 10763 10752 10751 10750 ] final   77.36 input  -60.55 | X-H torsion
[ 11005 11000 10999 10996 ] final -146.07 input  -57.11 | X-H torsion

> <Gold.Protein.ActiveResidues>
 VAL166  LYS551  ARG553  GLY616  TRP617  ASP618  TYR619  PRO620  LYS621  CYS622 
 ASP623  PHE694  ASN695  SER759  ASP760  ASP761  ALA762  ILE779  LEU786  VAL792 
 PHE793  MET794  SER795  GLU796  ALA797  LYS798  CYS799  TRP800  GLU811  SER814 

> <Gold.Protein.RotatedAtoms>
  152.5006  134.4181  159.9471 H   0  0  0  0  0  0  0  0  0  0  0  0  # atno 6907 bound_to 6896
  151.4153  133.3708  159.2757 H   0  0  0  0  0  0  0  0  0  0  0  0  # atno 6908 bound_to 6896
  150.9262  134.8701  159.7581 H   0  0  0  0  0  0  0  0  0  0  0  0  # atno 6909 bound_to 6896
  146.2103  140.3244  142.8393 H   0  0  0  0  0  0  0  0  0  0  0  0  # atno 7974 bound_to 7965
  155.3328  140.3403  155.4239 H   0  0  0  0  0  0  0  0  0  0  0  0  # atno 8008 bound_to 7997
  156.1853  140.1678  156.8233 H   0  0  0  0  0  0  0  0  0  0  0  0  # atno 8009 bound_to 7997
  154.5379  140.0731  156.8443 H   0  0  0  0  0  0  0  0  0  0  0  0  # atno 8010 bound_to 7997
  139.5746  144.1561  152.1433 H   0  0  0  0  0  0  0  0  0  0  0  0  # atno 10167 bound_to 10162
  156.0332  130.5547  150.7492 H   0  0  0  0  0  0  0  0  0  0  0  0  # atno 10718 bound_to 10713
  153.0793  135.4917  154.8469 H   0  0  0  0  0  0  0  0  0  0  0  0  # atno 10763 bound_to 10752
  154.7129  135.3023  154.9171 H   0  0  0  0  0  0  0  0  0  0  0  0  # atno 10764 bound_to 10752
  153.9859  135.6784  153.4805 H   0  0  0  0  0  0  0  0  0  0  0  0  # atno 10765 bound_to 10752
  140.7857  134.3027  157.5030 H   0  0  0  0  0  0  0  0  0  0  0  0  # atno 11005 bound_to 11000
  144.8897  140.7507  143.5935 LP  0  0  0  0  0  0  0  0  0  0  0  0  # atno 17320 bound_to 7965
  145.3166  139.1801  143.4610 LP  0  0  0  0  0  0  0  0  0  0  0  0  # atno 17321 bound_to 7965
  140.1101  144.5464  150.6930 LP  0  0  0  0  0  0  0  0  0  0  0  0  # atno 17342 bound_to 10162
  140.7030  143.2448  151.4810 LP  0  0  0  0  0  0  0  0  0  0  0  0  # atno 17343 bound_to 10162
  157.5041  131.0921  151.0279 LP  0  0  0  0  0  0  0  0  0  0  0  0  # atno 17370 bound_to 10713
  157.0652  130.5841  149.5392 LP  0  0  0  0  0  0  0  0  0  0  0  0  # atno 17371 bound_to 10713
  139.8737  134.9345  156.3609 LP  0  0  0  0  0  0  0  0  0  0  0  0  # atno 17394 bound_to 11000
  140.9439  133.7496  156.0182 LP  0  0  0  0  0  0  0  0  0  0  0  0  # atno 17395 bound_to 11000

$$$$
