AV-unprocessed.smi:265|AV-procd|sdf|2020|dock10
  -GOLD-   2262021223D 1   1.00000     0.00000
 Structure written by MMmdl.
 52 56  0  0  0  0  0  0  0  0  1 V2000
  143.7957  132.4128  149.9577 C   0  0  0  0  0  0  0  0  0  0  0  0
  144.2415  132.9758  151.3182 C   0  0  1  0  0  0  0  0  0  0  0  0
  145.2469  132.0938  151.8205 O   0  0  0  0  0  0  0  0  0  0  0  0
  146.3795  132.8309  152.2553 C   0  0  0  0  0  0  0  0  0  0  0  0
  146.3667  134.0621  151.3637 C   0  0  0  0  0  0  0  0  0  0  0  0
  144.8789  134.3897  151.2892 C   0  0  1  0  0  0  0  0  0  0  0  0
  144.6243  135.0827  150.0799 O   0  0  0  0  0  0  0  0  0  0  0  0
  144.3614  135.2568  152.4689 C   0  0  0  0  0  0  0  0  0  0  0  0
  145.2932  136.2814  152.9166 N   0  0  0  0  0  0  0  0  0  0  0  0
  145.2586  137.6194  152.5940 C   0  0  0  0  0  0  0  0  0  0  0  0
  146.2082  138.3440  153.1194 N   0  0  0  0  0  0  0  0  0  0  0  0
  146.9690  137.4337  153.8437 C   0  0  0  0  0  0  0  0  0  0  0  0
  148.1381  137.5387  154.6495 C   0  0  0  0  0  0  0  0  0  0  0  0
  148.7907  138.7129  154.8437 N   0  0  0  0  0  0  0  0  0  0  0  0
  147.9869  139.8914  155.1676 C   0  0  0  0  0  0  0  0  0  0  0  0
  148.8015  141.1779  154.9642 C   0  0  0  0  0  0  0  0  0  0  0  0
  150.1319  141.1401  155.7339 C   0  0  1  0  0  0  0  0  0  0  0  0
  149.8923  141.1853  157.1347 O   0  0  0  0  0  0  0  0  0  0  0  0
  151.0783  141.3376  157.9166 C   0  0  0  0  0  0  0  0  0  0  0  0
  152.1787  140.3389  157.5119 C   0  0  0  0  0  0  0  0  0  0  0  0
  153.1316  140.1398  158.2621 O   0  0  0  0  0  0  0  0  0  0  0  0
  152.0803  139.7407  156.3137 N   0  0  0  0  0  0  0  0  0  0  0  0
  150.9192  139.8454  155.4364 C   0  0  1  0  0  0  0  0  0  0  0  0
  150.0343  138.5934  155.6023 C   0  0  0  0  0  0  0  0  0  0  0  0
  148.6002  136.3992  155.2310 N   0  0  0  0  0  0  0  0  0  0  0  0
  147.9729  135.2365  155.0316 C   0  0  0  0  0  0  0  0  0  0  0  0
  146.8828  134.9913  154.3027 N   0  0  0  0  0  0  0  0  0  0  0  0
  146.4063  136.1311  153.7257 C   0  0  0  0  0  0  0  0  0  0  0  0
  150.7213  142.0144  155.4503 H   0  0  0  0  0  0  0  0  0  0  0  0
  151.2790  139.8826  154.4073 H   0  0  0  0  0  0  0  0  0  0  0  0
  142.9928  133.0100  149.5247 H   0  0  0  0  0  0  0  0  0  0  0  0
  143.4231  131.3938  150.0641 H   0  0  0  0  0  0  0  0  0  0  0  0
  144.6223  132.3899  149.2465 H   0  0  0  0  0  0  0  0  0  0  0  0
  143.3887  132.9548  151.9980 H   0  0  0  0  0  0  0  0  0  0  0  0
  146.2570  133.1052  153.3038 H   0  0  0  0  0  0  0  0  0  0  0  0
  147.2961  132.2493  152.1583 H   0  0  0  0  0  0  0  0  0  0  0  0
  146.9961  134.8692  151.7360 H   0  0  0  0  0  0  0  0  0  0  0  0
  146.7444  133.7855  150.3776 H   0  0  0  0  0  0  0  0  0  0  0  0
  145.2751  134.8269  149.4441 H   0  0  0  0  0  0  0  0  0  0  0  0
  143.4256  135.7448  152.1925 H   0  0  0  0  0  0  0  0  0  0  0  0
  144.1255  134.6254  153.3263 H   0  0  0  0  0  0  0  0  0  0  0  0
  144.4950  138.0457  151.9597 H   0  0  0  0  0  0  0  0  0  0  0  0
  147.0969  139.9253  154.5376 H   0  0  0  0  0  0  0  0  0  0  0  0
  147.6474  139.8243  156.2024 H   0  0  0  0  0  0  0  0  0  0  0  0
  149.0086  141.3026  153.9006 H   0  0  0  0  0  0  0  0  0  0  0  0
  148.2155  142.0457  155.2678 H   0  0  0  0  0  0  0  0  0  0  0  0
  151.4619  142.3518  157.7988 H   0  0  0  0  0  0  0  0  0  0  0  0
  150.8289  141.2062  158.9697 H   0  0  0  0  0  0  0  0  0  0  0  0
  152.8202  139.1154  156.0292 H   0  0  0  0  0  0  0  0  0  0  0  0
  149.7786  138.4529  156.6536 H   0  0  0  0  0  0  0  0  0  0  0  0
  150.6001  137.7115  155.3034 H   0  0  0  0  0  0  0  0  0  0  0  0
  148.4068  134.3802  155.5266 H   0  0  0  0  0  0  0  0  0  0  0  0
  1  2  1  0  0  0  0
  1 31  1  0  0  0  0
  1 32  1  0  0  0  0
  1 33  1  0  0  0  0
  2  6  1  0  0  0  0
  2  3  1  0  0  0  0
  2 34  1  0  0  0  0
  3  4  1  0  0  0  0
  4  5  1  0  0  0  0
  4 35  1  0  0  0  0
  4 36  1  0  0  0  0
  5  6  1  0  0  0  0
  5 37  1  0  0  0  0
  5 38  1  0  0  0  0
  6  7  1  0  0  0  0
  6  8  1  0  0  0  0
  7 39  1  0  0  0  0
  8  9  1  0  0  0  0
  8 40  1  0  0  0  0
  8 41  1  0  0  0  0
  9 28  1  0  0  0  0
  9 10  1  0  0  0  0
 10 11  2  0  0  0  0
 10 42  1  0  0  0  0
 11 12  1  0  0  0  0
 12 28  2  0  0  0  0
 12 13  1  0  0  0  0
 13 14  1  0  0  0  0
 13 25  2  0  0  0  0
 14 24  1  0  0  0  0
 14 15  1  0  0  0  0
 15 16  1  0  0  0  0
 15 43  1  0  0  0  0
 15 44  1  0  0  0  0
 16 17  1  0  0  0  0
 16 45  1  0  0  0  0
 16 46  1  0  0  0  0
 17 29  1  0  0  0  0
 17 23  1  0  0  0  0
 17 18  1  0  0  0  0
 18 19  1  0  0  0  0
 19 20  1  0  0  0  0
 19 47  1  0  0  0  0
 19 48  1  0  0  0  0
 20 21  2  0  0  0  0
 20 22  1  0  0  0  0
 22 23  1  0  0  0  0
 22 49  1  0  0  0  0
 23 30  1  0  0  0  0
 23 24  1  0  0  0  0
 24 50  1  0  0  0  0
 24 51  1  0  0  0  0
 25 26  1  0  0  0  0
 26 27  2  0  0  0  0
 26 52  1  0  0  0  0
 27 28  1  0  0  0  0
M  END
> <s_m_source_file>
AV-unprocessed.smi

> <i_m_source_file_index>
265

> <i_lp_mmshare_version>
43012

> <i_f3d_flags>
0

> <s_epik_input>
W0NIMl0xW0NIMl1PW0NAQEhdKFtDSDNdKVtDQEBdMShbT0hdKVtDSDJdbihbY0hdbjIpYyhjMjMpbltjSF1uYzNOKFtDSDJdW0NIMl00KVtDSDJdW0NAQEhdKFtDQEhdNDUpW05IXUMoPU8pW0NIMl1PNQ==

> <s_epik_cmdline>
J2VwaWtfcHl0aG9uJywgJy1waCcsICc3LjAnLCAnLXRuJywgJzgnLCAnLW1hJywgJzIwMCcsICctbWV0YWxfYmluZGluZycsICctaW1hZScsICc8aW5maWxlLm1hZT4nLCAnLW9tYWUnLCAnPG91dGZpbGUubWFlPic=

> <r_lp_tautomer_probability>
1

> <r_epik_Ionization_Penalty>
0.00221504

> <r_epik_Ionization_Penalty_Charging>
0

> <r_epik_Ionization_Penalty_Neutral>
0.00221504

> <r_epik_State_Penalty>
-0

> <r_epik_Charging_Adjusted_Penalty>
0

> <i_epik_Tot_Q>
0

> <i_epik_Tot_abs_Q>
0

> <r_epik_Metal_State_Penalty>
-0

> <b_epik_Metal_Only>
0

> <s_lp_Force_Field>
OPLS_2005

> <r_lp_Energy>
44.9484

> <b_lp_Chiralities_Consistent>
1

> <s_lp_Variant>
AV-unprocessed.smi:265-6

> <Gold.Version>
5.8.1

> <Gold.Id.Protein>
6NUR|6NUR_protein|mol2

> <Gold.PLP.Fitness>
40.6755

> <Gold.PLP.PLP>
-30.7281

> <Gold.PLP.part.hbond>
-2.0000

> <Gold.PLP.part.metal>
0.0000

> <Gold.PLP.part.buried>
-2.7531

> <Gold.PLP.part.nonpolar>
-26.7649

> <Gold.PLP.part.repulsive>
0.8738

> <Gold.PLP.ligand.clash>
0.0000

> <Gold.PLP.ligand.torsion>
0.8672

> <Gold.PLP.Chemscore.Hbond>
1.9760

> <Gold.PLP.Chemscore.CHOScore>
1.7989

> <Gold.PLP.Chemscore.Metal>
0.0000

> <Gold.Chemscore.Hbonds>
donor molecule, donor type, donor heavy atom, donor atom, acceptor molecule, acceptor atom, score
      L1  H     7    39       P1  7921  1.00
      P1  H  7997  8008       L1    21  0.93
      L1  C    10    42       P1 10171  1.00
      L1  C    10    42       P1 10175  0.69

> <Gold.PLP.Chemscore.Internal.Correction>
0.3572

> <Gold.Rescore>
     Score         DG    S(hbond)    S(metal)    S(lipo)     H(rot)  DE(clash)    DE(int)     intcor
     12.77     -14.31       1.72        0.00      75.40       2.25       0.76       0.78       ----

> <Gold.Chemscore.Fitness>
12.7684

> <Gold.Chemscore.DG>
-14.3084

> <Gold.Chemscore.ZeroCoef>
-5.4800

> <Gold.Chemscore.Hbond>
1.7230

> <Gold.Chemscore.Metal>
0.0000

> <Gold.Chemscore.Lipo>
75.3968

> <Gold.Chemscore.Internal_Hbond>
0.0000

> <Gold.Chemscore.DEClash>
0.7577

> <Gold.Chemscore.DEInternal>
0.7823

> <Gold.Chemscore.Rot>
2.2453

> <Gold.Chemscore.Internal.Correction>
   9.000000E+99

> <Gold.Chemscore.Hbonds>
donor molecule, donor type, donor heavy atom, donor atom, acceptor molecule, acceptor atom, score
      L1  H     7    39       P1  7921  0.94
      P1  H  7997  8008       L1    21  0.50

> <Gold.Chemscore.Hbond.Weighted>
-5.7549

> <Gold.Chemscore.Metal.Weighted>
-0.0000

> <Gold.Chemscore.Lipo.Weighted>
-8.8214

> <Gold.Chemscore.Internal_Hbond.Weighted>
0.0000

> <Gold.Chemscore.DEClash.Weighted>
0.7577

> <Gold.Chemscore.DEInternal.Weighted>
0.7823

> <Gold.Chemscore.Rot.Weighted>
5.7479

> <Gold.Chemscore.Internal.Correction.Weighted>
   9.000000E+99

> <Gold.Protein.RotatedTorsions>
[ 6907 6896 6895 6894 ] final -106.78 input  -60.11 | X-H torsion
[ 7974 7965 7964 7962 ] final -113.79 input  175.53 | X-H torsion
[ 8008 7997 7996 7995 ] final  -94.53 input   59.86 | X-H torsion
[ 10167 10162 10161 10158 ] final  -94.75 input  -65.29 | X-H torsion
[ 10718 10713 10712 10709 ] final -133.40 input   66.30 | X-H torsion
[ 10763 10752 10751 10750 ] final  108.73 input  -60.55 | X-H torsion
[ 11005 11000 10999 10996 ] final   94.90 input  -57.11 | X-H torsion

> <Gold.Protein.ActiveResidues>
 VAL166  LYS551  ARG553  GLY616  TRP617  ASP618  TYR619  PRO620  LYS621  CYS622 
 ASP623  PHE694  ASN695  SER759  ASP760  ASP761  ALA762  ILE779  LEU786  VAL792 
 PHE793  MET794  SER795  GLU796  ALA797  LYS798  CYS799  TRP800  GLU811  SER814 

> <Gold.Protein.RotatedAtoms>
  150.7408  133.9925  159.3611 H   0  0  0  0  0  0  0  0  0  0  0  0  # atno 6907 bound_to 6896
  151.7874  135.0743  160.0392 H   0  0  0  0  0  0  0  0  0  0  0  0  # atno 6908 bound_to 6896
  152.3232  133.5839  159.5795 H   0  0  0  0  0  0  0  0  0  0  0  0  # atno 6909 bound_to 6896
  145.1278  140.8707  143.3776 H   0  0  0  0  0  0  0  0  0  0  0  0  # atno 7974 bound_to 7965
  154.7496  140.0488  157.0882 H   0  0  0  0  0  0  0  0  0  0  0  0  # atno 8008 bound_to 7997
  155.0074  140.3132  155.4824 H   0  0  0  0  0  0  0  0  0  0  0  0  # atno 8009 bound_to 7997
  156.2882  140.2190  156.5187 H   0  0  0  0  0  0  0  0  0  0  0  0  # atno 8010 bound_to 7997
  140.3112  143.3104  152.0146 H   0  0  0  0  0  0  0  0  0  0  0  0  # atno 10167 bound_to 10162
  156.2445  130.7116  151.0990 H   0  0  0  0  0  0  0  0  0  0  0  0  # atno 10718 bound_to 10713
  153.4247  135.3803  155.2133 H   0  0  0  0  0  0  0  0  0  0  0  0  # atno 10763 bound_to 10752
  154.8747  135.3825  154.4341 H   0  0  0  0  0  0  0  0  0  0  0  0  # atno 10764 bound_to 10752
  153.4866  135.7088  153.5971 H   0  0  0  0  0  0  0  0  0  0  0  0  # atno 10765 bound_to 10752
  139.8794  134.8870  156.3932 H   0  0  0  0  0  0  0  0  0  0  0  0  # atno 11005 bound_to 11000
  145.0669  139.3061  143.5852 LP  0  0  0  0  0  0  0  0  0  0  0  0  # atno 17320 bound_to 7965
  146.3516  140.0130  142.8665 LP  0  0  0  0  0  0  0  0  0  0  0  0  # atno 17321 bound_to 7965
  139.4893  144.6383  151.6930 LP  0  0  0  0  0  0  0  0  0  0  0  0  # atno 17342 bound_to 10162
  140.5566  144.0338  150.6150 LP  0  0  0  0  0  0  0  0  0  0  0  0  # atno 17343 bound_to 10162
  157.7189  131.0693  150.6216 LP  0  0  0  0  0  0  0  0  0  0  0  0  # atno 17370 bound_to 10713
  156.6291  130.4427  149.5793 LP  0  0  0  0  0  0  0  0  0  0  0  0  # atno 17371 bound_to 10713
  140.9319  133.7574  156.0035 LP  0  0  0  0  0  0  0  0  0  0  0  0  # atno 17394 bound_to 11000
  140.8321  134.3166  157.5345 LP  0  0  0  0  0  0  0  0  0  0  0  0  # atno 17395 bound_to 11000

$$$$
