AV-unprocessed.smi:2327|AV-procd|sdf|9299|dock1
  -GOLD-   2272012523D 1   1.00000     0.00000
 Structure written by MMmdl.
 40 41  0  0  0  0  0  0  0  0  1 V2000
  153.3466  141.3694  160.7166 C   0  0  0  0  0  0  0  0  0  0  0  0
  152.4455  142.0657  159.7463 C   0  0  0  0  0  0  0  0  0  0  0  0
  151.8873  143.3120  159.8829 C   0  0  0  0  0  0  0  0  0  0  0  0
  150.8957  143.7327  158.5136 S   0  0  0  0  0  0  0  0  0  0  0  0
  151.2836  142.1745  157.7919 C   0  0  0  0  0  0  0  0  0  0  0  0
  150.7262  141.7172  156.4784 C   0  0  1  0  0  0  0  0  0  0  0  0
  151.5256  140.5458  155.8898 C   0  0  0  0  0  0  0  0  0  0  0  0
  149.2084  141.4442  156.5260 C   0  0  0  0  0  0  0  0  0  0  0  0
  148.4802  142.5243  157.1879 N   0  0  0  0  0  0  0  0  0  0  0  0
  147.5085  142.3734  158.1045 C   0  0  0  0  0  0  0  0  0  0  0  0
  147.0793  141.2806  158.4688 O   0  0  0  0  0  0  0  0  0  0  0  0
  147.0242  143.5248  158.6030 N   0  0  0  0  0  0  0  0  0  0  0  0
  145.9734  143.7087  159.6060 C   0  0  0  0  0  0  0  0  0  0  0  0
  146.5844  143.6167  161.0126 C   0  0  0  0  0  0  0  0  0  0  0  0
  145.4876  143.6537  162.0894 C   0  0  0  0  0  0  0  0  0  0  0  0
  144.5476  142.6088  161.8647 O   0  0  0  0  0  0  0  0  0  0  0  0
  143.8689  142.7330  160.6198 C   0  0  0  0  0  0  0  0  0  0  0  0
  144.8747  142.6404  159.4611 C   0  0  0  0  0  0  0  0  0  0  0  0
  152.0946  141.4321  158.5516 N   0  0  0  0  0  0  0  0  0  0  0  0
  153.5454  141.9879  161.5920 H   0  0  0  0  0  0  0  0  0  0  0  0
  154.3061  141.1283  160.2587 H   0  0  0  0  0  0  0  0  0  0  0  0
  152.9024  140.4369  161.0655 H   0  0  0  0  0  0  0  0  0  0  0  0
  151.9965  144.0051  160.7037 H   0  0  0  0  0  0  0  0  0  0  0  0
  150.8642  142.5506  155.7881 H   0  0  0  0  0  0  0  0  0  0  0  0
  152.5793  140.8047  155.7809 H   0  0  0  0  0  0  0  0  0  0  0  0
  151.1496  140.2699  154.9044 H   0  0  0  0  0  0  0  0  0  0  0  0
  151.4631  139.6633  156.5273 H   0  0  0  0  0  0  0  0  0  0  0  0
  148.8182  141.3462  155.5129 H   0  0  0  0  0  0  0  0  0  0  0  0
  149.0169  140.4888  157.0178 H   0  0  0  0  0  0  0  0  0  0  0  0
  148.7559  143.4657  156.9498 H   0  0  0  0  0  0  0  0  0  0  0  0
  147.4028  144.3744  158.2091 H   0  0  0  0  0  0  0  0  0  0  0  0
  145.5310  144.7010  159.4975 H   0  0  0  0  0  0  0  0  0  0  0  0
  147.1498  142.6889  161.1123 H   0  0  0  0  0  0  0  0  0  0  0  0
  147.2912  144.4317  161.1720 H   0  0  0  0  0  0  0  0  0  0  0  0
  145.9291  143.5217  163.0773 H   0  0  0  0  0  0  0  0  0  0  0  0
  144.9795  144.6194  162.0947 H   0  0  0  0  0  0  0  0  0  0  0  0
  143.1318  141.9340  160.5396 H   0  0  0  0  0  0  0  0  0  0  0  0
  143.3211  143.6760  160.5844 H   0  0  0  0  0  0  0  0  0  0  0  0
  144.3526  142.7501  158.5103 H   0  0  0  0  0  0  0  0  0  0  0  0
  145.3237  141.6461  159.4564 H   0  0  0  0  0  0  0  0  0  0  0  0
  1  2  1  0  0  0  0
  1 20  1  0  0  0  0
  1 21  1  0  0  0  0
  1 22  1  0  0  0  0
  2 19  1  0  0  0  0
  2  3  2  0  0  0  0
  3  4  1  0  0  0  0
  3 23  1  0  0  0  0
  4  5  1  0  0  0  0
  5  6  1  0  0  0  0
  5 19  2  0  0  0  0
  6  7  1  0  0  0  0
  6  8  1  0  0  0  0
  6 24  1  0  0  0  0
  7 25  1  0  0  0  0
  7 26  1  0  0  0  0
  7 27  1  0  0  0  0
  8  9  1  0  0  0  0
  8 28  1  0  0  0  0
  8 29  1  0  0  0  0
  9 10  1  0  0  0  0
  9 30  1  0  0  0  0
 10 11  2  0  0  0  0
 10 12  1  0  0  0  0
 12 13  1  0  0  0  0
 12 31  1  0  0  0  0
 13 18  1  0  0  0  0
 13 14  1  0  0  0  0
 13 32  1  0  0  0  0
 14 15  1  0  0  0  0
 14 33  1  0  0  0  0
 14 34  1  0  0  0  0
 15 16  1  0  0  0  0
 15 35  1  0  0  0  0
 15 36  1  0  0  0  0
 16 17  1  0  0  0  0
 17 18  1  0  0  0  0
 17 37  1  0  0  0  0
 17 38  1  0  0  0  0
 18 39  1  0  0  0  0
 18 40  1  0  0  0  0
M  END
> <s_m_source_file>
AV-unprocessed.smi

> <i_m_source_file_index>
2327

> <i_lp_mmshare_version>
43012

> <i_f3d_flags>
0

> <s_epik_input>
W0NIM11jMVtjSF1zYyhuMSlbQ0BIXShbQ0gzXSlbQ0gyXVtOSF1DKD1PKVtOSF1bQ0hdMltDSDJdW0NIMl1PW0NIMl1bQ0gyXTI=

> <s_epik_cmdline>
J2VwaWtfcHl0aG9uJywgJy1waCcsICc3LjAnLCAnLXRuJywgJzgnLCAnLW1hJywgJzIwMCcsICctbWV0YWxfYmluZGluZycsICctaW1hZScsICc8aW5maWxlLm1hZT4nLCAnLW9tYWUnLCAnPG91dGZpbGUubWFlPic=

> <r_epik_Ionization_Penalty>
0.0015425

> <r_epik_Ionization_Penalty_Charging>
0

> <r_epik_Ionization_Penalty_Neutral>
0.0015425

> <r_epik_State_Penalty>
0.000998134

> <r_epik_Charging_Adjusted_Penalty>
0.000998134

> <i_epik_Tot_Q>
0

> <i_epik_Tot_abs_Q>
0

> <r_epik_Metal_State_Penalty>
-0

> <b_epik_Metal_Only>
0

> <s_lp_Force_Field>
OPLS_2005

> <r_lp_Energy>
7.91954

> <b_lp_Chiralities_Consistent>
1

> <s_lp_Variant>
AV-unprocessed.smi:2327-2

> <Gold.Version>
5.8.1

> <Gold.Id.Protein>
6NUR|6NUR_protein|mol2

> <Gold.PLP.Fitness>
42.5444

> <Gold.PLP.PLP>
-37.3502

> <Gold.PLP.part.hbond>
-3.4497

> <Gold.PLP.part.metal>
0.0000

> <Gold.PLP.part.buried>
-5.7205

> <Gold.PLP.part.nonpolar>
-28.5986

> <Gold.PLP.part.repulsive>
0.1464

> <Gold.PLP.ligand.clash>
0.0000

> <Gold.PLP.ligand.torsion>
0.8103

> <Gold.PLP.Chemscore.Hbond>
2.2348

> <Gold.PLP.Chemscore.CHOScore>
0.0000

> <Gold.PLP.Chemscore.Metal>
0.0000

> <Gold.Chemscore.Hbonds>
donor molecule, donor type, donor heavy atom, donor atom, acceptor molecule, acceptor atom, score
      L1  H     9    30       P1  8028  0.94
      L1  H    12    31       P1  8029  1.00
      P1  H  6934  6946       L1    11  0.14

> <Gold.PLP.Chemscore.Internal.Correction>
0.1103

> <Gold.Rescore>
     Score         DG    S(hbond)    S(metal)    S(lipo)     H(rot)  DE(clash)    DE(int)     intcor
     16.14     -17.97       1.62        0.00      93.87       1.53       0.15       1.67       ----

> <Gold.Chemscore.Fitness>
16.1446

> <Gold.Chemscore.DG>
-17.9659

> <Gold.Chemscore.ZeroCoef>
-5.4800

> <Gold.Chemscore.Hbond>
1.6246

> <Gold.Chemscore.Metal>
0.0000

> <Gold.Chemscore.Lipo>
93.8723

> <Gold.Chemscore.Internal_Hbond>
0.0000

> <Gold.Chemscore.DEClash>
0.1538

> <Gold.Chemscore.DEInternal>
1.6675

> <Gold.Chemscore.Rot>
1.5325

> <Gold.Chemscore.Internal.Correction>
   9.000000E+99

> <Gold.Chemscore.Hbonds>
donor molecule, donor type, donor heavy atom, donor atom, acceptor molecule, acceptor atom, score
      L1  H     9    30       P1  8028  0.41
      L1  H    12    31       P1  8029  0.65
      P1  H  6934  6946       L1    11  0.14

> <Gold.Chemscore.Hbond.Weighted>
-5.4262

> <Gold.Chemscore.Metal.Weighted>
-0.0000

> <Gold.Chemscore.Lipo.Weighted>
-10.9831

> <Gold.Chemscore.Internal_Hbond.Weighted>
0.0000

> <Gold.Chemscore.DEClash.Weighted>
0.1538

> <Gold.Chemscore.DEInternal.Weighted>
1.6675

> <Gold.Chemscore.Rot.Weighted>
3.9233

> <Gold.Chemscore.Internal.Correction.Weighted>
   9.000000E+99

> <Gold.Protein.RotatedTorsions>
[ 6907 6896 6895 6894 ] final -116.46 input  -60.11 | X-H torsion
[ 7974 7965 7964 7962 ] final  -50.31 input  175.53 | X-H torsion
[ 8008 7997 7996 7995 ] final -110.66 input   59.86 | X-H torsion
[ 10167 10162 10161 10158 ] final  -18.71 input  -65.29 | X-H torsion
[ 10718 10713 10712 10709 ] final  -26.02 input   66.30 | X-H torsion
[ 10763 10752 10751 10750 ] final   46.91 input  -60.55 | X-H torsion
[ 11005 11000 10999 10996 ] final  -19.90 input  -57.11 | X-H torsion

> <Gold.Protein.ActiveResidues>
 VAL166  LYS551  ARG553  GLY616  TRP617  ASP618  TYR619  PRO620  LYS621  CYS622 
 ASP623  PHE694  ASN695  SER759  ASP760  ASP761  ALA762  ILE779  LEU786  VAL792 
 PHE793  MET794  SER795  GLU796  ALA797  LYS798  CYS799  TRP800  GLU811  SER814 

> <Gold.Protein.RotatedAtoms>
  150.8058  133.8513  159.3206 H   0  0  0  0  0  0  0  0  0  0  0  0  # atno 6907 bound_to 6896
  151.6313  135.1021  160.0132 H   0  0  0  0  0  0  0  0  0  0  0  0  # atno 6908 bound_to 6896
  152.4148  133.6981  159.6464 H   0  0  0  0  0  0  0  0  0  0  0  0  # atno 6909 bound_to 6896
  145.9313  140.7747  142.9598 H   0  0  0  0  0  0  0  0  0  0  0  0  # atno 7974 bound_to 7965
  154.9779  140.0396  157.2264 H   0  0  0  0  0  0  0  0  0  0  0  0  # atno 8008 bound_to 7997
  154.7741  140.2807  155.6092 H   0  0  0  0  0  0  0  0  0  0  0  0  # atno 8009 bound_to 7997
  156.2926  140.2604  156.2551 H   0  0  0  0  0  0  0  0  0  0  0  0  # atno 8010 bound_to 7997
  140.7261  143.4890  151.0017 H   0  0  0  0  0  0  0  0  0  0  0  0  # atno 10167 bound_to 10162
  156.4568  130.4495  149.6954 H   0  0  0  0  0  0  0  0  0  0  0  0  # atno 10718 bound_to 10713
  152.9805  135.5993  154.3677 H   0  0  0  0  0  0  0  0  0  0  0  0  # atno 10763 bound_to 10752
  154.3353  135.2768  155.2452 H   0  0  0  0  0  0  0  0  0  0  0  0  # atno 10764 bound_to 10752
  154.4558  135.5978  153.6278 H   0  0  0  0  0  0  0  0  0  0  0  0  # atno 10765 bound_to 10752
  140.8412  133.7925  155.9862 H   0  0  0  0  0  0  0  0  0  0  0  0  # atno 11005 bound_to 11000
  144.6765  140.2131  143.7375 LP  0  0  0  0  0  0  0  0  0  0  0  0  # atno 17320 bound_to 7965
  145.8423  139.2135  143.1820 LP  0  0  0  0  0  0  0  0  0  0  0  0  # atno 17321 bound_to 7965
  139.8593  143.7336  152.3174 LP  0  0  0  0  0  0  0  0  0  0  0  0  # atno 17342 bound_to 10162
  139.7545  144.7524  151.0456 LP  0  0  0  0  0  0  0  0  0  0  0  0  # atno 17343 bound_to 10162
  156.3759  130.7554  151.2542 LP  0  0  0  0  0  0  0  0  0  0  0  0  # atno 17370 bound_to 10713
  157.7500  131.0310  150.4161 LP  0  0  0  0  0  0  0  0  0  0  0  0  # atno 17371 bound_to 10713
  140.8893  134.2515  157.5103 LP  0  0  0  0  0  0  0  0  0  0  0  0  # atno 17394 bound_to 11000
  139.8703  134.9654  156.4526 LP  0  0  0  0  0  0  0  0  0  0  0  0  # atno 17395 bound_to 11000

$$$$
