AV-unprocessed.smi:50|AV-procd|sdf|498|dock10
  -GOLD-   2262016373D 1   1.00000     0.00000
 Structure written by MMmdl.
 42 43  0  0  0  0  0  0  0  0  2 V2000
  143.9068  132.9660  150.8754 C   0  0  0  0  0  0  0  0  0  0  0  0
  145.4273  133.1441  150.6835 C   0  0  0  0  0  0  0  0  0  0  0  0
  146.0940  131.7562  150.7043 C   0  0  0  0  0  0  0  0  0  0  0  0
  146.1062  134.1016  151.7089 C   0  0  1  0  0  0  0  0  0  0  0  0
  147.5627  134.0177  151.5903 N   0  0  0  0  0  0  0  0  0  0  0  0
  145.6309  135.5614  151.5885 C   0  0  0  0  0  0  0  0  0  0  0  0
  144.6822  135.9296  150.8928 O   0  0  0  0  0  0  0  0  0  0  0  0
  146.3911  136.3606  152.3582 O   0  0  0  0  0  0  0  0  0  0  0  0
  146.3550  137.7729  152.2112 C   0  0  0  0  0  0  0  0  0  0  0  0
  146.3368  138.3931  153.6103 C   0  0  0  0  0  0  0  0  0  0  0  0
  147.0934  139.5960  153.5884 O   0  0  0  0  0  0  0  0  0  0  0  0
  147.4669  140.0603  154.8460 C   0  0  0  0  0  0  0  0  0  0  0  0
  148.9179  140.1092  154.9132 N   0  0  0  0  0  0  0  0  0  0  0  0
  149.6780  141.2016  155.1226 C   0  0  0  0  0  0  0  0  0  0  0  0
  150.9933  140.9903  155.1316 N   0  0  0  0  0  0  0  0  0  0  0  0
  151.0683  139.6205  154.9055 C   0  0  0  0  0  0  0  0  0  0  0  0
  152.2275  138.7061  154.7680 C   0  0  0  0  0  0  0  0  0  0  0  0
  153.3648  139.1617  154.8722 O   0  0  0  0  0  0  0  0  0  0  0  0
  151.9172  137.3964  154.5247 N   0  5  0  0  0  0  0  0  0  0  0  0
  150.5791  136.9899  154.4254 C   0  0  0  0  0  0  0  0  0  0  0  0
  150.4475  135.6393  154.1867 N   0  0  0  0  0  0  0  0  0  0  0  0
  149.5096  137.7392  154.5358 N   0  0  0  0  0  0  0  0  0  0  0  0
  149.8243  139.0643  154.7744 C   0  0  0  0  0  0  0  0  0  0  0  0
  145.8436  133.7557  152.7095 H   0  0  0  0  0  0  0  0  0  0  0  0
  143.6776  132.6458  151.8914 H   0  0  0  0  0  0  0  0  0  0  0  0
  143.5064  132.2141  150.1947 H   0  0  0  0  0  0  0  0  0  0  0  0
  143.3558  133.8860  150.6804 H   0  0  0  0  0  0  0  0  0  0  0  0
  145.5705  133.5606  149.6852 H   0  0  0  0  0  0  0  0  0  0  0  0
  145.9824  131.2800  151.6792 H   0  0  0  0  0  0  0  0  0  0  0  0
  147.1598  131.8156  150.4833 H   0  0  0  0  0  0  0  0  0  0  0  0
  145.6489  131.0942  149.9609 H   0  0  0  0  0  0  0  0  0  0  0  0
  147.8374  133.5488  150.7391 H   0  0  0  0  0  0  0  0  0  0  0  0
  147.9871  134.9338  151.5690 H   0  0  0  0  0  0  0  0  0  0  0  0
  147.2171  138.1159  151.6387 H   0  0  0  0  0  0  0  0  0  0  0  0
  145.4597  138.0911  151.6755 H   0  0  0  0  0  0  0  0  0  0  0  0
  145.3132  138.6287  153.9036 H   0  0  0  0  0  0  0  0  0  0  0  0
  146.7226  137.6739  154.3336 H   0  0  0  0  0  0  0  0  0  0  0  0
  147.0893  141.0758  154.9688 H   0  0  0  0  0  0  0  0  0  0  0  0
  147.0679  139.4391  155.6497 H   0  0  0  0  0  0  0  0  0  0  0  0
  149.2520  142.1835  155.2661 H   0  0  0  0  0  0  0  0  0  0  0  0
  151.2306  135.0097  154.0932 H   0  0  0  0  0  0  0  0  0  0  0  0
  149.5528  135.1838  154.0822 H   0  0  0  0  0  0  0  0  0  0  0  0
  1  2  1  0  0  0  0
  1 25  1  0  0  0  0
  1 26  1  0  0  0  0
  1 27  1  0  0  0  0
  2  3  1  0  0  0  0
  2  4  1  0  0  0  0
  2 28  1  0  0  0  0
  3 29  1  0  0  0  0
  3 30  1  0  0  0  0
  3 31  1  0  0  0  0
  4 24  1  0  0  0  0
  4  5  1  0  0  0  0
  4  6  1  0  0  0  0
  5 32  1  0  0  0  0
  5 33  1  0  0  0  0
  6  7  2  0  0  0  0
  6  8  1  0  0  0  0
  8  9  1  0  0  0  0
  9 10  1  0  0  0  0
  9 34  1  0  0  0  0
  9 35  1  0  0  0  0
 10 11  1  0  0  0  0
 10 36  1  0  0  0  0
 10 37  1  0  0  0  0
 11 12  1  0  0  0  0
 12 13  1  0  0  0  0
 12 38  1  0  0  0  0
 12 39  1  0  0  0  0
 13 23  1  0  0  0  0
 13 14  1  0  0  0  0
 14 15  2  0  0  0  0
 14 40  1  0  0  0  0
 15 16  1  0  0  0  0
 16 23  2  0  0  0  0
 16 17  1  0  0  0  0
 17 18  2  0  0  0  0
 17 19  1  0  0  0  0
 19 20  1  0  0  0  0
 20 21  1  0  0  0  0
 20 22  2  0  0  0  0
 21 41  1  0  0  0  0
 21 42  1  0  0  0  0
 22 23  1  0  0  0  0
M  CHG  1  19  -1
M  END
> <s_m_source_file>
AV-unprocessed.smi

> <i_m_source_file_index>
50

> <i_lp_mmshare_version>
43012

> <i_f3d_flags>
0

> <s_epik_input>
W0NIM11bQ0hdKFtDSDNdKVtDQEhdKFtOSDJdKUMoPU8pT1tDSDJdW0NIMl1PW0NIMl1uKFtjSF1uMSljKGMxMiluYyhbTkgyXSlbbkhdYzI9Tw==

> <s_epik_cmdline>
J2VwaWtfcHl0aG9uJywgJy1waCcsICc3LjAnLCAnLXRuJywgJzgnLCAnLW1hJywgJzIwMCcsICctbWV0YWxfYmluZGluZycsICctaW1hZScsICc8aW5maWxlLm1hZT4nLCAnLW9tYWUnLCAnPG91dGZpbGUubWFlPic=

> <r_lp_tautomer_probability>
0.99994

> <r_epik_Ionization_Penalty>
4.26118

> <r_epik_Ionization_Penalty_Charging>
1.23364e-10

> <r_epik_Ionization_Penalty_Neutral>
4.26118

> <r_epik_State_Penalty>
4.27372

> <r_epik_Charging_Adjusted_Penalty>
4.27372

> <i_epik_Tot_Q>
-1

> <i_epik_Tot_abs_Q>
1

> <r_epik_Metal_State_Penalty>
1.24306

> <b_epik_Metal_Only>
1

> <s_epik_Chemistry_Notes>
This compound has an ester and may undergo hydrolysis at high or low pH. This compound contains an acetal/aminal-like group ( X-CH(R)-Y where X, Y are N, S, or O) that may be acid/base labile, releasing an aldehyde.

> <s_lp_Force_Field>
OPLS_2005

> <r_lp_Energy>
20.1027

> <b_lp_Chiralities_Consistent>
1

> <s_lp_Variant>
AV-unprocessed.smi:50-8

> <Gold.Version>
5.8.1

> <Gold.Id.Protein>
6NUR|6NUR_protein|mol2

> <Gold.PLP.Fitness>
44.5402

> <Gold.PLP.PLP>
-32.1631

> <Gold.PLP.part.hbond>
-5.2397

> <Gold.PLP.part.metal>
0.0000

> <Gold.PLP.part.buried>
-2.6607

> <Gold.PLP.part.nonpolar>
-27.6961

> <Gold.PLP.part.repulsive>
4.2829

> <Gold.PLP.ligand.clash>
0.0000

> <Gold.PLP.ligand.torsion>
1.5007

> <Gold.PLP.Chemscore.Hbond>
4.2688

> <Gold.PLP.Chemscore.CHOScore>
0.7639

> <Gold.PLP.Chemscore.Metal>
0.0000

> <Gold.Chemscore.Hbonds>
donor molecule, donor type, donor heavy atom, donor atom, acceptor molecule, acceptor atom, score
      L1  H     5    33       P1  7948  0.85
      P1  H  7997  8010       L1    18  1.00
      P1  H 10752 10763       L1    19  1.86
      L1  C    14    40       P1  8028  0.86

> <Gold.PLP.Chemscore.Internal.Correction>
0.2806

> <Gold.Rescore>
     Score         DG    S(hbond)    S(metal)    S(lipo)     H(rot)  DE(clash)    DE(int)     intcor
      3.06      -7.78       2.66        0.00      47.21       4.72       2.56       2.17       ----

> <Gold.Chemscore.Fitness>
3.0574

> <Gold.Chemscore.DG>
-7.7810

> <Gold.Chemscore.ZeroCoef>
-5.4800

> <Gold.Chemscore.Hbond>
2.6557

> <Gold.Chemscore.Metal>
0.0000

> <Gold.Chemscore.Lipo>
47.2142

> <Gold.Chemscore.Internal_Hbond>
0.0000

> <Gold.Chemscore.DEClash>
2.5577

> <Gold.Chemscore.DEInternal>
2.1659

> <Gold.Chemscore.Rot>
4.7239

> <Gold.Chemscore.Internal.Correction>
   9.000000E+99

> <Gold.Chemscore.Hbonds>
donor molecule, donor type, donor heavy atom, donor atom, acceptor molecule, acceptor atom, score
      L1  H     5    33       P1  7948  0.14
      P1  H  7997  8010       L1    18  0.94
      P1  H 10752 10763       L1    19  0.33

> <Gold.Chemscore.Hbond.Weighted>
-8.8702

> <Gold.Chemscore.Metal.Weighted>
-0.0000

> <Gold.Chemscore.Lipo.Weighted>
-5.5241

> <Gold.Chemscore.Internal_Hbond.Weighted>
0.0000

> <Gold.Chemscore.DEClash.Weighted>
2.5577

> <Gold.Chemscore.DEInternal.Weighted>
2.1659

> <Gold.Chemscore.Rot.Weighted>
12.0933

> <Gold.Chemscore.Internal.Correction.Weighted>
   9.000000E+99

> <Gold.Protein.RotatedTorsions>
[ 6907 6896 6895 6894 ] final    0.37 input  -60.11 | X-H torsion
[ 7974 7965 7964 7962 ] final   83.42 input  175.53 | X-H torsion
[ 8008 7997 7996 7995 ] final   91.56 input   59.86 | X-H torsion
[ 10167 10162 10161 10158 ] final  176.11 input  -65.29 | X-H torsion
[ 10718 10713 10712 10709 ] final  160.01 input   66.30 | X-H torsion
[ 10763 10752 10751 10750 ] final   46.07 input  -60.55 | X-H torsion
[ 11005 11000 10999 10996 ] final -104.91 input  -57.11 | X-H torsion

> <Gold.Protein.ActiveResidues>
 VAL166  LYS551  ARG553  GLY616  TRP617  ASP618  TYR619  PRO620  LYS621  CYS622 
 ASP623  PHE694  ASN695  SER759  ASP760  ASP761  ALA762  ILE779  LEU786  VAL792 
 PHE793  MET794  SER795  GLU796  ALA797  LYS798  CYS799  TRP800  GLU811  SER814 

> <Gold.Protein.RotatedAtoms>
  151.5754  135.1061  160.0004 H   0  0  0  0  0  0  0  0  0  0  0  0  # atno 6907 bound_to 6896
  152.4380  133.7392  159.6642 H   0  0  0  0  0  0  0  0  0  0  0  0  # atno 6908 bound_to 6896
  150.8281  133.8068  159.3133 H   0  0  0  0  0  0  0  0  0  0  0  0  # atno 6909 bound_to 6896
  145.6121  139.2370  143.2186 H   0  0  0  0  0  0  0  0  0  0  0  0  # atno 7974 bound_to 7965
  156.0252  140.3336  155.7081 H   0  0  0  0  0  0  0  0  0  0  0  0  # atno 8008 bound_to 7997
  155.5965  140.0651  157.2762 H   0  0  0  0  0  0  0  0  0  0  0  0  # atno 8009 bound_to 7997
  154.4331  140.1818  156.1116 H   0  0  0  0  0  0  0  0  0  0  0  0  # atno 8010 bound_to 7997
  139.5202  144.2954  152.0427 H   0  0  0  0  0  0  0  0  0  0  0  0  # atno 10167 bound_to 10162
  157.1564  131.0576  151.2254 H   0  0  0  0  0  0  0  0  0  0  0  0  # atno 10718 bound_to 10713
  152.9815  135.6019  154.3540 H   0  0  0  0  0  0  0  0  0  0  0  0  # atno 10763 bound_to 10752
  154.3227  135.2769  155.2513 H   0  0  0  0  0  0  0  0  0  0  0  0  # atno 10764 bound_to 10752
  154.4672  135.5951  153.6352 H   0  0  0  0  0  0  0  0  0  0  0  0  # atno 10765 bound_to 10752
  141.1078  133.8763  157.1669 H   0  0  0  0  0  0  0  0  0  0  0  0  # atno 11005 bound_to 11000
  146.1496  140.6944  142.9328 LP  0  0  0  0  0  0  0  0  0  0  0  0  # atno 17320 bound_to 7965
  144.7265  140.4542  143.6969 LP  0  0  0  0  0  0  0  0  0  0  0  0  # atno 17321 bound_to 7965
  140.2403  144.4276  150.6263 LP  0  0  0  0  0  0  0  0  0  0  0  0  # atno 17342 bound_to 10162
  140.6295  143.2185  151.6526 LP  0  0  0  0  0  0  0  0  0  0  0  0  # atno 17343 bound_to 10162
  157.4173  130.7418  149.6886 LP  0  0  0  0  0  0  0  0  0  0  0  0  # atno 17370 bound_to 10713
  155.9761  130.4079  150.3800 LP  0  0  0  0  0  0  0  0  0  0  0  0  # atno 17371 bound_to 10713
  139.9957  135.0048  157.0076 LP  0  0  0  0  0  0  0  0  0  0  0  0  # atno 17394 bound_to 11000
  140.4855  134.1246  155.7224 LP  0  0  0  0  0  0  0  0  0  0  0  0  # atno 17395 bound_to 11000

$$$$
