AV-unprocessed.smi:193|AV-procd|sdf|1507|dock1
  -GOLD-   2262019343D 1   1.00000     0.00000
 Structure written by MMmdl.
 62 66  0  0  0  0  0  0  0  0  2 V2000
  146.2231  134.1295  151.3751 C   0  0  0  0  0  0  0  0  0  0  0  0
  147.0361  132.9790  151.9903 C   0  0  1  0  0  0  0  0  0  0  0  0
  147.4068  133.3336  153.4456 C   0  0  0  0  0  0  0  0  0  0  0  0
  148.5718  132.6141  153.9651 N   0  0  0  0  0  0  0  0  0  0  0  0
  149.1932  133.1155  155.0647 C   0  0  0  0  0  0  0  0  0  0  0  0
  149.9651  132.2894  155.8200 N   0  0  0  0  0  0  0  0  0  0  0  0
  150.6022  132.7556  156.8979 C   0  0  0  0  0  0  0  0  0  0  0  0
  150.6047  133.9936  157.3944 N   0  0  0  0  0  0  0  0  0  0  0  0
  149.8221  134.8262  156.6505 C   0  0  0  0  0  0  0  0  0  0  0  0
  149.0856  134.4735  155.4840 C   0  0  0  0  0  0  0  0  0  0  0  0
  148.3940  135.5835  155.0115 N   0  0  0  0  0  0  0  0  0  0  0  0
  148.7151  136.5385  155.8409 C   0  0  0  0  0  0  0  0  0  0  0  0
  149.5766  136.1733  156.8500 N   0  0  0  0  0  0  0  0  0  0  0  0
  150.1018  137.0327  157.9004 C   0  0  0  0  0  0  0  0  0  0  0  0
  150.8455  138.2838  157.3712 C   0  0  0  0  0  0  0  0  0  0  0  0
  151.7496  138.7040  158.3790 O   0  0  0  0  0  0  0  0  0  0  0  0
  151.6552  137.9349  156.1061 C   0  0  0  0  0  0  0  0  0  0  0  0
  152.2744  139.1821  155.4507 C   0  0  0  0  0  0  0  0  0  0  0  0
  151.2594  140.1367  155.1664 O   0  0  0  0  0  0  0  0  0  0  0  0
  150.6078  140.6121  156.3381 C   0  0  0  0  0  0  0  0  0  0  0  0
  149.8889  139.4539  157.0525 C   0  0  0  0  0  0  0  0  0  0  0  0
  148.8752  131.2352  153.5829 C   0  0  0  0  0  0  0  0  0  0  0  0
  147.6296  130.3481  153.4558 C   0  0  0  0  0  0  0  0  0  0  0  0
  147.0367  130.4457  152.1006 N   0  3  1  0  0  0  0  0  0  0  0  0
  146.2733  129.2276  151.7403 C   0  0  2  0  0  0  0  0  0  0  0  0
  146.1824  128.2094  152.8552 C   0  0  0  0  0  0  0  0  0  0  0  0
  147.0894  127.9481  151.6732 C   0  0  2  0  0  0  0  0  0  0  0  0
  148.5944  127.8998  151.8654 C   0  0  0  0  0  0  0  0  0  0  0  0
  146.2214  131.6696  151.9054 C   0  0  0  0  0  0  0  0  0  0  0  0
  145.2922  134.2928  151.9193 H   0  0  0  0  0  0  0  0  0  0  0  0
  145.9691  133.9238  150.3349 H   0  0  0  0  0  0  0  0  0  0  0  0
  146.7864  135.0631  151.3913 H   0  0  0  0  0  0  0  0  0  0  0  0
  147.9450  132.8830  151.3941 H   0  0  0  0  0  0  0  0  0  0  0  0
  147.6377  134.3990  153.4939 H   0  0  0  0  0  0  0  0  0  0  0  0
  146.5516  133.1770  154.1045 H   0  0  0  0  0  0  0  0  0  0  0  0
  151.1967  132.0338  157.4389 H   0  0  0  0  0  0  0  0  0  0  0  0
  148.3350  137.5445  155.7364 H   0  0  0  0  0  0  0  0  0  0  0  0
  149.2734  137.3278  158.5461 H   0  0  0  0  0  0  0  0  0  0  0  0
  150.7710  136.4365  158.5222 H   0  0  0  0  0  0  0  0  0  0  0  0
  151.6894  139.6431  158.4637 H   0  0  0  0  0  0  0  0  0  0  0  0
  152.4342  137.2072  156.3373 H   0  0  0  0  0  0  0  0  0  0  0  0
  150.9979  137.4568  155.3787 H   0  0  0  0  0  0  0  0  0  0  0  0
  153.0390  139.6259  156.0902 H   0  0  0  0  0  0  0  0  0  0  0  0
  152.7661  138.9063  154.5177 H   0  0  0  0  0  0  0  0  0  0  0  0
  151.3294  141.0941  156.9993 H   0  0  0  0  0  0  0  0  0  0  0  0
  149.8855  141.3763  156.0507 H   0  0  0  0  0  0  0  0  0  0  0  0
  149.0864  139.0946  156.4072 H   0  0  0  0  0  0  0  0  0  0  0  0
  149.4094  139.8249  157.9592 H   0  0  0  0  0  0  0  0  0  0  0  0
  149.4579  131.2275  152.6610 H   0  0  0  0  0  0  0  0  0  0  0  0
  149.5085  130.7787  154.3440 H   0  0  0  0  0  0  0  0  0  0  0  0
  147.9536  129.3191  153.6157 H   0  0  0  0  0  0  0  0  0  0  0  0
  146.8936  130.5547  154.2346 H   0  0  0  0  0  0  0  0  0  0  0  0
  145.4239  129.3788  151.0761 H   0  0  0  0  0  0  0  0  0  0  0  0
  146.6502  128.4471  153.8091 H   0  0  0  0  0  0  0  0  0  0  0  0
  145.2718  127.6175  152.9220 H   0  0  0  0  0  0  0  0  0  0  0  0
  146.7307  127.2110  150.9575 H   0  0  0  0  0  0  0  0  0  0  0  0
  148.9191  128.5864  152.6476 H   0  0  0  0  0  0  0  0  0  0  0  0
  149.1013  128.1608  150.9364 H   0  0  0  0  0  0  0  0  0  0  0  0
  148.8981  126.8924  152.1502 H   0  0  0  0  0  0  0  0  0  0  0  0
  145.3934  131.6832  152.6160 H   0  0  0  0  0  0  0  0  0  0  0  0
  145.7659  131.6079  150.9166 H   0  0  0  0  0  0  0  0  0  0  0  0
  147.8068  130.4931  151.4488 H   0  0  0  0  0  0  0  0  0  0  0  0
  1  2  1  0  0  0  0
  1 30  1  0  0  0  0
  1 31  1  0  0  0  0
  1 32  1  0  0  0  0
  2 29  1  0  0  0  0
  2  3  1  0  0  0  0
  2 33  1  0  0  0  0
  3  4  1  0  0  0  0
  3 34  1  0  0  0  0
  3 35  1  0  0  0  0
  4  5  1  0  0  0  0
  4 22  1  0  0  0  0
  5 10  1  0  0  0  0
  5  6  2  0  0  0  0
  6  7  1  0  0  0  0
  7  8  2  0  0  0  0
  7 36  1  0  0  0  0
  8  9  1  0  0  0  0
  9 13  1  0  0  0  0
  9 10  2  0  0  0  0
 10 11  1  0  0  0  0
 11 12  2  0  0  0  0
 12 13  1  0  0  0  0
 12 37  1  0  0  0  0
 13 14  1  0  0  0  0
 14 15  1  0  0  0  0
 14 38  1  0  0  0  0
 14 39  1  0  0  0  0
 15 21  1  0  0  0  0
 15 16  1  0  0  0  0
 15 17  1  0  0  0  0
 16 40  1  0  0  0  0
 17 18  1  0  0  0  0
 17 41  1  0  0  0  0
 17 42  1  0  0  0  0
 18 19  1  0  0  0  0
 18 43  1  0  0  0  0
 18 44  1  0  0  0  0
 19 20  1  0  0  0  0
 20 21  1  0  0  0  0
 20 45  1  0  0  0  0
 20 46  1  0  0  0  0
 21 47  1  0  0  0  0
 21 48  1  0  0  0  0
 22 23  1  0  0  0  0
 22 49  1  0  0  0  0
 22 50  1  0  0  0  0
 23 24  1  0  0  0  0
 23 51  1  0  0  0  0
 23 52  1  0  0  0  0
 24 25  1  0  0  0  0
 24 29  1  0  0  0  0
 24 62  1  0  0  0  0
 25 27  1  0  0  0  0
 25 26  1  0  0  0  0
 25 53  1  0  0  0  0
 26 27  1  0  0  0  0
 26 54  1  0  0  0  0
 26 55  1  0  0  0  0
 27 28  1  0  0  0  0
 27 56  1  0  0  0  0
 28 57  1  0  0  0  0
 28 58  1  0  0  0  0
 28 59  1  0  0  0  0
 29 60  1  0  0  0  0
 29 61  1  0  0  0  0
M  CHG  1  24   1
M  END
> <s_m_source_file>
AV-unprocessed.smi

> <i_m_source_file_index>
193

> <i_lp_mmshare_version>
43012

> <i_f3d_flags>
0

> <s_epik_input>
W0NIM11bQ0BASF0xW0NIMl1bQ0BIXTFOKFtDSDJdMilbQ0gyXVtDSDJdTihbQ0gyXVtDQEhdMltDSDNdKWMobltjSF1uMyljKGMzNCluW2NIXW40W0NIMl1DNShbT0hdKVtDSDJdW0NIMl1PW0NIMl1bQ0gyXTU=

> <s_epik_cmdline>
J2VwaWtfcHl0aG9uJywgJy1waCcsICc3LjAnLCAnLXRuJywgJzgnLCAnLW1hJywgJzIwMCcsICctbWV0YWxfYmluZGluZycsICctaW1hZScsICc8aW5maWxlLm1hZT4nLCAnLW9tYWUnLCAnPG91dGZpbGUubWFlPic=

> <r_lp_tautomer_probability>
1

> <r_epik_Ionization_Penalty>
0.0540825

> <r_epik_Ionization_Penalty_Charging>
0.0538476

> <r_epik_Ionization_Penalty_Neutral>
0.000234891

> <r_epik_State_Penalty>
0.0200719

> <r_epik_Charging_Adjusted_Penalty>
0.0739194

> <i_epik_Tot_Q>
1

> <i_epik_Tot_abs_Q>
1

> <r_epik_Metal_State_Penalty>
0.0199414

> <b_epik_Metal_Only>
0

> <s_lp_Force_Field>
OPLS_2005

> <r_lp_Energy>
56.3109

> <b_lp_Chiralities_Consistent>
1

> <s_lp_Variant>
AV-unprocessed.smi:193-12

> <Gold.Version>
5.8.1

> <Gold.Id.Protein>
6NUR|6NUR_protein|mol2

> <Gold.PLP.Fitness>
50.2616

> <Gold.PLP.PLP>
-47.1725

> <Gold.PLP.part.hbond>
-3.0000

> <Gold.PLP.part.metal>
0.0000

> <Gold.PLP.part.buried>
-7.4908

> <Gold.PLP.part.nonpolar>
-38.6426

> <Gold.PLP.part.repulsive>
0.1938

> <Gold.PLP.ligand.clash>
3.5257

> <Gold.PLP.ligand.torsion>
1.2660

> <Gold.PLP.Chemscore.Hbond>
2.5920

> <Gold.PLP.Chemscore.CHOScore>
0.0000

> <Gold.PLP.Chemscore.Metal>
0.0000

> <Gold.Chemscore.Hbonds>
donor molecule, donor type, donor heavy atom, donor atom, acceptor molecule, acceptor atom, score
      L1  H    24    62       P1 10747  1.00
      P1  H  6896  6909       L1     8  0.66
      P1  H  7989  7998       L1    19  1.00

> <Gold.PLP.Chemscore.Internal.Correction>
1.3708

> <Gold.Rescore>
     Score         DG    S(hbond)    S(metal)    S(lipo)     H(rot)  DE(clash)    DE(int)     intcor
     19.01     -21.68       2.51        0.00     108.89       1.93       0.16       2.51       ----

> <Gold.Chemscore.Fitness>
19.0095

> <Gold.Chemscore.DG>
-21.6762

> <Gold.Chemscore.ZeroCoef>
-5.4800

> <Gold.Chemscore.Hbond>
2.5133

> <Gold.Chemscore.Metal>
0.0000

> <Gold.Chemscore.Lipo>
108.8896

> <Gold.Chemscore.Internal_Hbond>
0.0000

> <Gold.Chemscore.DEClash>
0.1598

> <Gold.Chemscore.DEInternal>
2.5069

> <Gold.Chemscore.Rot>
1.9290

> <Gold.Chemscore.Internal.Correction>
   9.000000E+99

> <Gold.Chemscore.Hbonds>
donor molecule, donor type, donor heavy atom, donor atom, acceptor molecule, acceptor atom, score
      L1  H    24    62       P1 10747  1.00
      P1  H  6896  6909       L1     8  0.20
      P1  H  7989  7998       L1    19  0.59

> <Gold.Chemscore.Hbond.Weighted>
-8.3944

> <Gold.Chemscore.Metal.Weighted>
-0.0000

> <Gold.Chemscore.Lipo.Weighted>
-12.7401

> <Gold.Chemscore.Internal_Hbond.Weighted>
0.0000

> <Gold.Chemscore.DEClash.Weighted>
0.1598

> <Gold.Chemscore.DEInternal.Weighted>
2.5069

> <Gold.Chemscore.Rot.Weighted>
4.9383

> <Gold.Chemscore.Internal.Correction.Weighted>
   9.000000E+99

> <Gold.Protein.RotatedTorsions>
[ 6907 6896 6895 6894 ] final  -13.84 input  -60.11 | X-H torsion
[ 7974 7965 7964 7962 ] final -160.27 input  175.53 | X-H torsion
[ 8008 7997 7996 7995 ] final  -67.77 input   59.86 | X-H torsion
[ 10167 10162 10161 10158 ] final  101.27 input  -65.29 | X-H torsion
[ 10718 10713 10712 10709 ] final  -60.49 input   66.30 | X-H torsion
[ 10763 10752 10751 10750 ] final  136.95 input  -60.55 | X-H torsion
[ 11005 11000 10999 10996 ] final    9.17 input  -57.11 | X-H torsion

> <Gold.Protein.ActiveResidues>
 VAL166  LYS551  ARG553  GLY616  TRP617  ASP618  TYR619  PRO620  LYS621  CYS622 
 ASP623  PHE694  ASN695  SER759  ASP760  ASP761  ALA762  ILE779  LEU786  VAL792 
 PHE793  MET794  SER795  GLU796  ALA797  LYS798  CYS799  TRP800  GLU811  SER814 

> <Gold.Protein.RotatedAtoms>
  151.3487  135.0879  159.9395 H   0  0  0  0  0  0  0  0  0  0  0  0  # atno 6907 bound_to 6896
  152.5193  133.9374  159.7620 H   0  0  0  0  0  0  0  0  0  0  0  0  # atno 6908 bound_to 6896
  150.9745  133.6255  159.2762 H   0  0  0  0  0  0  0  0  0  0  0  0  # atno 6909 bound_to 6896
  144.7433  140.3566  143.6105 H   0  0  0  0  0  0  0  0  0  0  0  0  # atno 7974 bound_to 7965
  154.4822  140.0886  156.7405 H   0  0  0  0  0  0  0  0  0  0  0  0  # atno 8008 bound_to 7997
  155.4440  140.3455  155.4275 H   0  0  0  0  0  0  0  0  0  0  0  0  # atno 8009 bound_to 7997
  156.1209  140.1474  156.9194 H   0  0  0  0  0  0  0  0  0  0  0  0  # atno 8010 bound_to 7997
  139.7453  144.7000  151.0513 H   0  0  0  0  0  0  0  0  0  0  0  0  # atno 10167 bound_to 10162
  156.0987  130.4189  150.0861 H   0  0  0  0  0  0  0  0  0  0  0  0  # atno 10718 bound_to 10713
  153.8649  135.3063  155.3439 H   0  0  0  0  0  0  0  0  0  0  0  0  # atno 10763 bound_to 10752
  154.7832  135.4824  153.9892 H   0  0  0  0  0  0  0  0  0  0  0  0  # atno 10764 bound_to 10752
  153.1440  135.6830  153.9079 H   0  0  0  0  0  0  0  0  0  0  0  0  # atno 10765 bound_to 10752
  140.5287  134.0487  155.7867 H   0  0  0  0  0  0  0  0  0  0  0  0  # atno 11005 bound_to 11000
  145.7221  139.1712  143.2479 LP  0  0  0  0  0  0  0  0  0  0  0  0  # atno 17320 bound_to 7965
  146.1269  140.7236  142.9430 LP  0  0  0  0  0  0  0  0  0  0  0  0  # atno 17321 bound_to 7965
  140.7791  143.4874  150.9938 LP  0  0  0  0  0  0  0  0  0  0  0  0  # atno 17342 bound_to 10162
  139.8562  143.7373  152.3176 LP  0  0  0  0  0  0  0  0  0  0  0  0  # atno 17343 bound_to 10162
  156.8853  130.9570  151.3595 LP  0  0  0  0  0  0  0  0  0  0  0  0  # atno 17370 bound_to 10713
  157.6153  130.8614  149.9019 LP  0  0  0  0  0  0  0  0  0  0  0  0  # atno 17371 bound_to 10713
  141.1293  133.9329  157.2568 LP  0  0  0  0  0  0  0  0  0  0  0  0  # atno 17394 bound_to 11000
  139.9566  135.0164  156.9144 LP  0  0  0  0  0  0  0  0  0  0  0  0  # atno 17395 bound_to 11000

$$$$
