AV-unprocessed.smi:1809|AV-procd|sdf|7318|dock7
  -GOLD-   22720 8573D 1   1.00000     0.00000
 Structure written by MMmdl.
 39 41  0  0  0  0  0  0  0  0  1 V2000
  148.8782  129.2529  153.2119 C   0  0  0  0  0  0  0  0  0  0  0  0
  149.3749  130.6032  153.6013 C   0  0  0  0  0  0  0  0  0  0  0  0
  150.3004  130.7904  154.5503 N   0  0  0  0  0  0  0  0  0  0  0  0
  150.6050  132.1324  154.7309 N   0  0  0  0  0  0  0  0  0  0  0  0
  149.8986  132.9203  153.9086 C   0  0  0  0  0  0  0  0  0  0  0  0
  150.0126  134.3355  153.8800 N   0  0  0  0  0  0  0  0  0  0  0  0
  150.7503  135.1286  154.6769 C   0  0  0  0  0  0  0  0  0  0  0  0
  151.4720  134.7399  155.5954 O   0  0  0  0  0  0  0  0  0  0  0  0
  150.6055  136.4184  154.3415 N   0  0  0  0  0  0  0  0  0  0  0  0
  151.2949  137.5394  154.9724 C   0  0  0  0  0  0  0  0  0  0  0  0
  151.0864  138.8456  154.1777 C   0  0  1  0  0  0  0  0  0  0  0  0
  149.5988  139.2616  154.0818 C   0  0  0  0  0  0  0  0  0  0  0  0
  149.1393  139.8282  155.3357 N   0  0  0  0  0  0  0  0  0  0  0  0
  147.7915  140.3480  155.3590 C   0  0  0  0  0  0  0  0  0  0  0  0
  147.7430  141.2203  156.6250 C   0  0  0  0  0  0  0  0  0  0  0  0
  149.2233  141.5405  156.9282 C   0  0  0  0  0  0  0  0  0  0  0  0
  149.9547  140.9470  155.7224 C   0  0  1  0  0  0  0  0  0  0  0  0
  151.4109  140.5096  155.9245 C   0  0  0  0  0  0  0  0  0  0  0  0
  151.8786  139.9220  154.7057 O   0  0  0  0  0  0  0  0  0  0  0  0
  148.7897  132.0776  152.8401 S   0  0  0  0  0  0  0  0  0  0  0  0
  149.2145  128.4985  153.9240 H   0  0  0  0  0  0  0  0  0  0  0  0
  149.2519  128.9911  152.2219 H   0  0  0  0  0  0  0  0  0  0  0  0
  147.7884  129.2481  153.1881 H   0  0  0  0  0  0  0  0  0  0  0  0
  149.4755  134.7981  153.1618 H   0  0  0  0  0  0  0  0  0  0  0  0
  149.9888  136.6424  153.5744 H   0  0  0  0  0  0  0  0  0  0  0  0
  150.8759  137.6540  155.9723 H   0  0  0  0  0  0  0  0  0  0  0  0
  152.3545  137.3240  155.1167 H   0  0  0  0  0  0  0  0  0  0  0  0
  151.4414  138.6668  153.1621 H   0  0  0  0  0  0  0  0  0  0  0  0
  149.4861  139.9994  153.2860 H   0  0  0  0  0  0  0  0  0  0  0  0
  148.9792  138.4082  153.8044 H   0  0  0  0  0  0  0  0  0  0  0  0
  147.6101  140.9649  154.4770 H   0  0  0  0  0  0  0  0  0  0  0  0
  147.0510  139.5478  155.3708 H   0  0  0  0  0  0  0  0  0  0  0  0
  147.1531  142.1222  156.4596 H   0  0  0  0  0  0  0  0  0  0  0  0
  147.2961  140.6749  157.4570 H   0  0  0  0  0  0  0  0  0  0  0  0
  149.4090  142.6096  157.0357 H   0  0  0  0  0  0  0  0  0  0  0  0
  149.5329  141.0472  157.8507 H   0  0  0  0  0  0  0  0  0  0  0  0
  149.9337  141.6914  154.9234 H   0  0  0  0  0  0  0  0  0  0  0  0
  152.0391  141.3649  156.1728 H   0  0  0  0  0  0  0  0  0  0  0  0
  151.4948  139.8010  156.7483 H   0  0  0  0  0  0  0  0  0  0  0  0
  1  2  1  0  0  0  0
  1 21  1  0  0  0  0
  1 22  1  0  0  0  0
  1 23  1  0  0  0  0
  2 20  1  0  0  0  0
  2  3  2  0  0  0  0
  3  4  1  0  0  0  0
  4  5  2  0  0  0  0
  5  6  1  0  0  0  0
  5 20  1  0  0  0  0
  6  7  1  0  0  0  0
  6 24  1  0  0  0  0
  7  8  2  0  0  0  0
  7  9  1  0  0  0  0
  9 10  1  0  0  0  0
  9 25  1  0  0  0  0
 10 11  1  0  0  0  0
 10 26  1  0  0  0  0
 10 27  1  0  0  0  0
 11 19  1  0  0  0  0
 11 12  1  0  0  0  0
 11 28  1  0  0  0  0
 12 13  1  0  0  0  0
 12 29  1  0  0  0  0
 12 30  1  0  0  0  0
 13 17  1  0  0  0  0
 13 14  1  0  0  0  0
 14 15  1  0  0  0  0
 14 31  1  0  0  0  0
 14 32  1  0  0  0  0
 15 16  1  0  0  0  0
 15 33  1  0  0  0  0
 15 34  1  0  0  0  0
 16 17  1  0  0  0  0
 16 35  1  0  0  0  0
 16 36  1  0  0  0  0
 17 18  1  0  0  0  0
 17 37  1  0  0  0  0
 18 19  1  0  0  0  0
 18 38  1  0  0  0  0
 18 39  1  0  0  0  0
M  END
> <s_m_source_file>
AV-unprocessed.smi

> <i_m_source_file_index>
1809

> <i_lp_mmshare_version>
43012

> <i_f3d_flags>
0

> <s_epik_input>
W0NIM11jMW5uYyhzMSlbTkhdQyg9TylbTkhdW0NIMl1bQ0BIXShbQ0gyXTIpT1tDSDJdW0NAQEhdKE4yMylbQ0gyXVtDSDJdW0NIMl0z

> <s_epik_cmdline>
J2VwaWtfcHl0aG9uJywgJy1waCcsICc3LjAnLCAnLXRuJywgJzgnLCAnLW1hJywgJzIwMCcsICctbWV0YWxfYmluZGluZycsICctaW1hZScsICc8aW5maWxlLm1hZT4nLCAnLW9tYWUnLCAnPG91dGZpbGUubWFlPic=

> <r_lp_tautomer_probability>
1

> <r_epik_Ionization_Penalty>
1.05954

> <r_epik_Ionization_Penalty_Charging>
0

> <r_epik_Ionization_Penalty_Neutral>
1.05954

> <r_epik_State_Penalty>
1.4238

> <r_epik_Charging_Adjusted_Penalty>
1.4238

> <i_epik_Tot_Q>
0

> <i_epik_Tot_abs_Q>
0

> <r_epik_Metal_State_Penalty>
1.7901

> <b_epik_Metal_Only>
0

> <s_lp_Force_Field>
OPLS_2005

> <r_lp_Energy>
48.8115

> <b_lp_Chiralities_Consistent>
1

> <s_lp_Variant>
AV-unprocessed.smi:1809-10

> <Gold.Version>
5.8.1

> <Gold.Id.Protein>
6NUR|6NUR_protein|mol2

> <Gold.PLP.Fitness>
40.9277

> <Gold.PLP.PLP>
-30.9901

> <Gold.PLP.part.hbond>
-4.4272

> <Gold.PLP.part.metal>
0.0000

> <Gold.PLP.part.buried>
-2.1853

> <Gold.PLP.part.nonpolar>
-23.9099

> <Gold.PLP.part.repulsive>
0.2778

> <Gold.PLP.ligand.clash>
0.0000

> <Gold.PLP.ligand.torsion>
0.0624

> <Gold.PLP.Chemscore.Hbond>
3.3515

> <Gold.PLP.Chemscore.CHOScore>
0.0000

> <Gold.PLP.Chemscore.Metal>
0.0000

> <Gold.Chemscore.Hbonds>
donor molecule, donor type, donor heavy atom, donor atom, acceptor molecule, acceptor atom, score
      L1  H     6    24       P1  7948  0.25
      L1  H     9    25       P1  7948  0.90
      P1  H  7989  7998       L1    19  0.76
      P1  H 10752 10765       L1     8  0.63

> <Gold.PLP.Chemscore.Internal.Correction>
0.0079

> <Gold.Rescore>
     Score         DG    S(hbond)    S(metal)    S(lipo)     H(rot)  DE(clash)    DE(int)     intcor
     13.00     -14.49       1.47        0.00      63.94       1.32       0.19       1.30       ----

> <Gold.Chemscore.Fitness>
13.0031

> <Gold.Chemscore.DG>
-14.4931

> <Gold.Chemscore.ZeroCoef>
-5.4800

> <Gold.Chemscore.Hbond>
1.4703

> <Gold.Chemscore.Metal>
0.0000

> <Gold.Chemscore.Lipo>
63.9360

> <Gold.Chemscore.Internal_Hbond>
0.0000

> <Gold.Chemscore.DEClash>
0.1865

> <Gold.Chemscore.DEInternal>
1.3035

> <Gold.Chemscore.Rot>
1.3196

> <Gold.Chemscore.Internal.Correction>
   9.000000E+99

> <Gold.Chemscore.Hbonds>
donor molecule, donor type, donor heavy atom, donor atom, acceptor molecule, acceptor atom, score
      L1  H     9    25       P1  7948  0.17
      P1  H  7989  7998       L1    19  0.08
      P1  H 10752 10765       L1     8  0.11

> <Gold.Chemscore.Hbond.Weighted>
-4.9109

> <Gold.Chemscore.Metal.Weighted>
-0.0000

> <Gold.Chemscore.Lipo.Weighted>
-7.4805

> <Gold.Chemscore.Internal_Hbond.Weighted>
0.0000

> <Gold.Chemscore.DEClash.Weighted>
0.1865

> <Gold.Chemscore.DEInternal.Weighted>
1.3035

> <Gold.Chemscore.Rot.Weighted>
3.3783

> <Gold.Chemscore.Internal.Correction.Weighted>
   9.000000E+99

> <Gold.Protein.RotatedTorsions>
[ 6907 6896 6895 6894 ] final   25.28 input  -60.11 | X-H torsion
[ 7974 7965 7964 7962 ] final  116.02 input  175.53 | X-H torsion
[ 8008 7997 7996 7995 ] final   44.31 input   59.86 | X-H torsion
[ 10167 10162 10161 10158 ] final  -32.48 input  -65.29 | X-H torsion
[ 10718 10713 10712 10709 ] final  -70.73 input   66.30 | X-H torsion
[ 10763 10752 10751 10750 ] final -157.62 input  -60.55 | X-H torsion
[ 11005 11000 10999 10996 ] final  -78.83 input  -57.11 | X-H torsion

> <Gold.Protein.ActiveResidues>
 VAL166  LYS551  ARG553  GLY616  TRP617  ASP618  TYR619  PRO620  LYS621  CYS622 
 ASP623  PHE694  ASN695  SER759  ASP760  ASP761  ALA762  ILE779  LEU786  VAL792 
 PHE793  MET794  SER795  GLU796  ALA797  LYS798  CYS799  TRP800  GLU811  SER814 

> <Gold.Protein.RotatedAtoms>
  151.9701  135.0081  160.0552 H   0  0  0  0  0  0  0  0  0  0  0  0  # atno 6907 bound_to 6896
  152.1790  133.4690  159.4957 H   0  0  0  0  0  0  0  0  0  0  0  0  # atno 6908 bound_to 6896
  150.6914  134.1774  159.4278 H   0  0  0  0  0  0  0  0  0  0  0  0  # atno 6909 bound_to 6896
  145.1848  139.3031  143.4399 H   0  0  0  0  0  0  0  0  0  0  0  0  # atno 7974 bound_to 7965
  155.3171  140.3394  155.4242 H   0  0  0  0  0  0  0  0  0  0  0  0  # atno 8008 bound_to 7997
  156.1927  140.1703  156.8097 H   0  0  0  0  0  0  0  0  0  0  0  0  # atno 8009 bound_to 7997
  154.5461  140.0715  156.8575 H   0  0  0  0  0  0  0  0  0  0  0  0  # atno 8010 bound_to 7997
  140.7220  143.3691  151.1813 H   0  0  0  0  0  0  0  0  0  0  0  0  # atno 10167 bound_to 10162
  156.0394  130.4337  150.2339 H   0  0  0  0  0  0  0  0  0  0  0  0  # atno 10718 bound_to 10713
  154.7622  135.3121  154.8357 H   0  0  0  0  0  0  0  0  0  0  0  0  # atno 10763 bound_to 10752
  153.9114  135.6805  153.4755 H   0  0  0  0  0  0  0  0  0  0  0  0  # atno 10764 bound_to 10752
  153.1223  135.4817  154.9148 H   0  0  0  0  0  0  0  0  0  0  0  0  # atno 10765 bound_to 10752
  141.1666  133.7080  156.8031 H   0  0  0  0  0  0  0  0  0  0  0  0  # atno 11005 bound_to 11000
  146.3447  140.2040  142.8589 LP  0  0  0  0  0  0  0  0  0  0  0  0  # atno 17320 bound_to 7965
  145.0100  140.8706  143.5230 LP  0  0  0  0  0  0  0  0  0  0  0  0  # atno 17321 bound_to 7965
  139.7259  143.9149  152.3002 LP  0  0  0  0  0  0  0  0  0  0  0  0  # atno 17342 bound_to 10162
  139.8922  144.6959  150.8758 LP  0  0  0  0  0  0  0  0  0  0  0  0  # atno 17343 bound_to 10162
  157.0435  131.0042  151.3276 LP  0  0  0  0  0  0  0  0  0  0  0  0  # atno 17370 bound_to 10713
  157.5192  130.7987  149.7790 LP  0  0  0  0  0  0  0  0  0  0  0  0  # atno 17371 bound_to 10713
  140.2242  134.8734  157.3409 LP  0  0  0  0  0  0  0  0  0  0  0  0  # atno 17394 bound_to 11000
  140.1957  134.4316  155.7690 LP  0  0  0  0  0  0  0  0  0  0  0  0  # atno 17395 bound_to 11000

$$$$
