AV-unprocessed.smi:2083|AV-procd|sdf|8491|dock8
  -GOLD-   2272011203D 1   1.00000     0.00000
 Structure written by MMmdl.
 45 46  0  0  0  0  0  0  0  0  2 V2000
  153.4075  137.6096  157.0355 C   0  0  0  0  0  0  0  0  0  0  0  0
  152.4798  138.2982  156.0942 C   0  0  0  0  0  0  0  0  0  0  0  0
  151.4183  137.8652  155.3506 C   0  0  0  0  0  0  0  0  0  0  0  0
  150.9919  139.0448  154.6849 C   0  0  0  0  0  0  0  0  0  0  0  0
  149.8872  139.0194  153.7956 N   0  0  0  0  0  0  0  0  0  0  0  0
  148.6500  138.5567  154.0416 C   0  0  0  0  0  0  0  0  0  0  0  0
  148.2787  138.0533  155.1022 O   0  0  0  0  0  0  0  0  0  0  0  0
  147.8522  138.7030  152.9733 N   0  0  0  0  0  0  0  0  0  0  0  0
  146.4417  138.3277  152.9140 C   0  0  0  0  0  0  0  0  0  0  0  0
  146.1468  137.0072  153.6713 C   0  0  1  0  0  0  0  0  0  0  0  0
  144.7733  136.9945  154.3700 C   0  0  0  0  0  0  0  0  0  0  0  0
  146.3043  135.7948  152.8152 N   0  3  1  0  0  0  0  0  0  0  0  0
  146.5586  134.5239  153.5469 C   0  0  0  0  0  0  0  0  0  0  0  0
  146.9535  133.4077  152.5680 C   0  0  0  0  0  0  0  0  0  0  0  0
  145.8705  133.2121  151.4982 C   0  0  0  0  0  0  0  0  0  0  0  0
  145.5817  134.5400  150.7765 C   0  0  1  0  0  0  0  0  0  0  0  0
  144.4767  134.3771  149.7231 C   0  0  0  0  0  0  0  0  0  0  0  0
  145.2290  135.6395  151.7991 C   0  0  0  0  0  0  0  0  0  0  0  0
  151.7270  140.1023  154.9928 N   0  0  0  0  0  0  0  0  0  0  0  0
  152.6848  139.6290  155.8975 O   0  0  0  0  0  0  0  0  0  0  0  0
  153.1253  136.5646  157.1665 H   0  0  0  0  0  0  0  0  0  0  0  0
  153.3912  138.0894  158.0141 H   0  0  0  0  0  0  0  0  0  0  0  0
  154.4306  137.6388  156.6605 H   0  0  0  0  0  0  0  0  0  0  0  0
  151.0143  136.8654  155.2949 H   0  0  0  0  0  0  0  0  0  0  0  0
  150.0572  139.4009  152.8769 H   0  0  0  0  0  0  0  0  0  0  0  0
  148.2448  139.1245  152.1440 H   0  0  0  0  0  0  0  0  0  0  0  0
  145.8253  139.1430  153.2946 H   0  0  0  0  0  0  0  0  0  0  0  0
  146.1857  138.2234  151.8599 H   0  0  0  0  0  0  0  0  0  0  0  0
  146.8816  136.9200  154.4731 H   0  0  0  0  0  0  0  0  0  0  0  0
  144.7241  137.7424  155.1613 H   0  0  0  0  0  0  0  0  0  0  0  0
  144.5771  136.0276  154.8345 H   0  0  0  0  0  0  0  0  0  0  0  0
  143.9598  137.2036  153.6754 H   0  0  0  0  0  0  0  0  0  0  0  0
  147.3559  134.6547  154.2779 H   0  0  0  0  0  0  0  0  0  0  0  0
  145.6667  134.2224  154.0973 H   0  0  0  0  0  0  0  0  0  0  0  0
  147.9027  133.6553  152.0908 H   0  0  0  0  0  0  0  0  0  0  0  0
  147.1133  132.4753  153.1105 H   0  0  0  0  0  0  0  0  0  0  0  0
  146.1889  132.4536  150.7822 H   0  0  0  0  0  0  0  0  0  0  0  0
  144.9592  132.8359  151.9655 H   0  0  0  0  0  0  0  0  0  0  0  0
  146.4902  134.8448  150.2542 H   0  0  0  0  0  0  0  0  0  0  0  0
  143.5344  134.0722  150.1795 H   0  0  0  0  0  0  0  0  0  0  0  0
  144.7472  133.6227  148.9837 H   0  0  0  0  0  0  0  0  0  0  0  0
  144.3006  135.3113  149.1890 H   0  0  0  0  0  0  0  0  0  0  0  0
  144.2851  135.4027  152.2919 H   0  0  0  0  0  0  0  0  0  0  0  0
  145.0834  136.5833  151.2721 H   0  0  0  0  0  0  0  0  0  0  0  0
  147.1427  135.9691  152.2794 H   0  0  0  0  0  0  0  0  0  0  0  0
  1  2  1  0  0  0  0
  1 21  1  0  0  0  0
  1 22  1  0  0  0  0
  1 23  1  0  0  0  0
  2 20  1  0  0  0  0
  2  3  2  0  0  0  0
  3  4  1  0  0  0  0
  3 24  1  0  0  0  0
  4  5  1  0  0  0  0
  4 19  2  0  0  0  0
  5  6  1  0  0  0  0
  5 25  1  0  0  0  0
  6  7  2  0  0  0  0
  6  8  1  0  0  0  0
  8  9  1  0  0  0  0
  8 26  1  0  0  0  0
  9 10  1  0  0  0  0
  9 27  1  0  0  0  0
  9 28  1  0  0  0  0
 10 11  1  0  0  0  0
 10 12  1  0  0  0  0
 10 29  1  0  0  0  0
 11 30  1  0  0  0  0
 11 31  1  0  0  0  0
 11 32  1  0  0  0  0
 12 18  1  0  0  0  0
 12 13  1  0  0  0  0
 12 45  1  0  0  0  0
 13 14  1  0  0  0  0
 13 33  1  0  0  0  0
 13 34  1  0  0  0  0
 14 15  1  0  0  0  0
 14 35  1  0  0  0  0
 14 36  1  0  0  0  0
 15 16  1  0  0  0  0
 15 37  1  0  0  0  0
 15 38  1  0  0  0  0
 16 17  1  0  0  0  0
 16 18  1  0  0  0  0
 16 39  1  0  0  0  0
 17 40  1  0  0  0  0
 17 41  1  0  0  0  0
 17 42  1  0  0  0  0
 18 43  1  0  0  0  0
 18 44  1  0  0  0  0
 19 20  1  0  0  0  0
M  CHG  1  12   1
M  END
> <s_m_source_file>
AV-unprocessed.smi

> <i_m_source_file_index>
2083

> <i_lp_mmshare_version>
43012

> <i_f3d_flags>
0

> <s_epik_input>
W0NIM11jMVtjSF1jKG5vMSlbTkhdQyg9TylbTkhdW0NIMl1bQ0BIXShbQ0gzXSlOMltDSDJdW0NIMl1bQ0gyXVtDQEBIXShbQ0gzXSlbQ0gyXTI=

> <s_epik_cmdline>
J2VwaWtfcHl0aG9uJywgJy1waCcsICc3LjAnLCAnLXRuJywgJzgnLCAnLW1hJywgJzIwMCcsICctbWV0YWxfYmluZGluZycsICctaW1hZScsICc8aW5maWxlLm1hZT4nLCAnLW9tYWUnLCAnPG91dGZpbGUubWFlPic=

> <r_epik_Ionization_Penalty>
0.00216453

> <r_epik_Ionization_Penalty_Charging>
0.00212879

> <r_epik_Ionization_Penalty_Neutral>
3.57418e-05

> <r_epik_State_Penalty>
0.00146033

> <r_epik_Charging_Adjusted_Penalty>
0.00358912

> <i_epik_Tot_Q>
1

> <i_epik_Tot_abs_Q>
1

> <r_epik_Metal_State_Penalty>
0.0215827

> <b_epik_Metal_Only>
0

> <s_lp_Force_Field>
OPLS_2005

> <r_lp_Energy>
17.3533

> <b_lp_Chiralities_Consistent>
1

> <s_lp_Variant>
AV-unprocessed.smi:2083-2

> <Gold.Version>
5.8.1

> <Gold.Id.Protein>
6NUR|6NUR_protein|mol2

> <Gold.PLP.Fitness>
44.4085

> <Gold.PLP.PLP>
-28.9727

> <Gold.PLP.part.hbond>
-5.8127

> <Gold.PLP.part.metal>
0.0000

> <Gold.PLP.part.buried>
-1.2773

> <Gold.PLP.part.nonpolar>
-21.8298

> <Gold.PLP.part.repulsive>
0.3050

> <Gold.PLP.ligand.clash>
0.0000

> <Gold.PLP.ligand.torsion>
1.2531

> <Gold.PLP.Chemscore.Hbond>
5.9440

> <Gold.PLP.Chemscore.CHOScore>
0.0000

> <Gold.PLP.Chemscore.Metal>
0.0000

> <Gold.Chemscore.Hbonds>
donor molecule, donor type, donor heavy atom, donor atom, acceptor molecule, acceptor atom, score
      L1  H     5    25       P1  7957  1.00
      L1  H     8    26       P1  7957  1.00
      L1  H    12    45       P1  7948  2.00
      P1  H  7989  7998       L1    19  0.86
      P1  H  7997  8009       L1    20  1.00

> <Gold.PLP.Chemscore.Internal.Correction>
0.1101

> <Gold.Rescore>
     Score         DG    S(hbond)    S(metal)    S(lipo)     H(rot)  DE(clash)    DE(int)     intcor
     19.01     -21.96       4.13        0.00      56.84       1.55       0.35       2.60       ----

> <Gold.Chemscore.Fitness>
19.0144

> <Gold.Chemscore.DG>
-21.9610

> <Gold.Chemscore.ZeroCoef>
-5.4800

> <Gold.Chemscore.Hbond>
4.1293

> <Gold.Chemscore.Metal>
0.0000

> <Gold.Chemscore.Lipo>
56.8396

> <Gold.Chemscore.Internal_Hbond>
0.0000

> <Gold.Chemscore.DEClash>
0.3454

> <Gold.Chemscore.DEInternal>
2.6011

> <Gold.Chemscore.Rot>
1.5474

> <Gold.Chemscore.Internal.Correction>
   9.000000E+99

> <Gold.Chemscore.Hbonds>
donor molecule, donor type, donor heavy atom, donor atom, acceptor molecule, acceptor atom, score
      L1  H     5    25       P1  7957  0.95
      L1  H     8    26       P1  7957  0.98
      L1  H    12    45       P1  7948  1.00
      P1  H  7989  7998       L1    19  0.16
      P1  H  7997  8009       L1    20  0.91

> <Gold.Chemscore.Hbond.Weighted>
-13.7920

> <Gold.Chemscore.Metal.Weighted>
-0.0000

> <Gold.Chemscore.Lipo.Weighted>
-6.6502

> <Gold.Chemscore.Internal_Hbond.Weighted>
0.0000

> <Gold.Chemscore.DEClash.Weighted>
0.3454

> <Gold.Chemscore.DEInternal.Weighted>
2.6011

> <Gold.Chemscore.Rot.Weighted>
3.9612

> <Gold.Chemscore.Internal.Correction.Weighted>
   9.000000E+99

> <Gold.Protein.RotatedTorsions>
[ 6907 6896 6895 6894 ] final   44.20 input  -60.11 | X-H torsion
[ 7974 7965 7964 7962 ] final   94.26 input  175.53 | X-H torsion
[ 8008 7997 7996 7995 ] final -147.30 input   59.86 | X-H torsion
[ 10167 10162 10161 10158 ] final   67.49 input  -65.29 | X-H torsion
[ 10718 10713 10712 10709 ] final  156.41 input   66.30 | X-H torsion
[ 10763 10752 10751 10750 ] final   77.47 input  -60.55 | X-H torsion
[ 11005 11000 10999 10996 ] final -139.28 input  -57.11 | X-H torsion

> <Gold.Protein.ActiveResidues>
 VAL166  LYS551  ARG553  GLY616  TRP617  ASP618  TYR619  PRO620  LYS621  CYS622 
 ASP623  PHE694  ASN695  SER759  ASP760  ASP761  ALA762  ILE779  LEU786  VAL792 
 PHE793  MET794  SER795  GLU796  ALA797  LYS798  CYS799  TRP800  GLU811  SER814 

> <Gold.Protein.RotatedAtoms>
  152.2296  134.8334  160.0475 H   0  0  0  0  0  0  0  0  0  0  0  0  # atno 6907 bound_to 6896
  151.9088  133.3551  159.3864 H   0  0  0  0  0  0  0  0  0  0  0  0  # atno 6908 bound_to 6896
  150.7022  134.4679  159.5455 H   0  0  0  0  0  0  0  0  0  0  0  0  # atno 6909 bound_to 6896
  145.4680  139.2283  143.2951 H   0  0  0  0  0  0  0  0  0  0  0  0  # atno 7974 bound_to 7965
  155.5733  140.0636  157.2801 H   0  0  0  0  0  0  0  0  0  0  0  0  # atno 8008 bound_to 7997
  154.4354  140.1865  156.0948 H   0  0  0  0  0  0  0  0  0  0  0  0  # atno 8009 bound_to 7997
  156.0360  140.3301  155.7195 H   0  0  0  0  0  0  0  0  0  0  0  0  # atno 8010 bound_to 7997
  140.0889  144.5005  150.7112 H   0  0  0  0  0  0  0  0  0  0  0  0  # atno 10167 bound_to 10162
  157.2053  131.0685  151.2001 H   0  0  0  0  0  0  0  0  0  0  0  0  # atno 10718 bound_to 10713
  153.0801  135.4913  154.8486 H   0  0  0  0  0  0  0  0  0  0  0  0  # atno 10763 bound_to 10752
  154.7140  135.3025  154.9155 H   0  0  0  0  0  0  0  0  0  0  0  0  # atno 10764 bound_to 10752
  153.9840  135.6786  153.4804 H   0  0  0  0  0  0  0  0  0  0  0  0  # atno 10765 bound_to 10752
  140.8535  134.2257  157.4747 H   0  0  0  0  0  0  0  0  0  0  0  0  # atno 11005 bound_to 11000
  146.2413  140.5455  142.8933 LP  0  0  0  0  0  0  0  0  0  0  0  0  # atno 17320 bound_to 7965
  144.7962  140.6128  143.6508 LP  0  0  0  0  0  0  0  0  0  0  0  0  # atno 17321 bound_to 7965
  140.7039  143.2454  151.4785 LP  0  0  0  0  0  0  0  0  0  0  0  0  # atno 17342 bound_to 10162
  139.5736  144.1871  152.1871 LP  0  0  0  0  0  0  0  0  0  0  0  0  # atno 17343 bound_to 10162
  157.3726  130.7189  149.6575 LP  0  0  0  0  0  0  0  0  0  0  0  0  # atno 17370 bound_to 10713
  155.9696  130.4194  150.4375 LP  0  0  0  0  0  0  0  0  0  0  0  0  # atno 17371 bound_to 10713
  139.8704  134.9695  156.4667 LP  0  0  0  0  0  0  0  0  0  0  0  0  # atno 17394 bound_to 11000
  140.8764  133.7950  155.9419 LP  0  0  0  0  0  0  0  0  0  0  0  0  # atno 17395 bound_to 11000

$$$$
