AV-unprocessed.smi:102|AV-procd|sdf|969|dock8
  -GOLD-   2262017523D 1   1.00000     0.00000
 Structure written by MMmdl.
 43 44  0  0  0  0  0  0  0  0  2 V2000
  150.0289  131.1525  156.5834 C   0  0  0  0  0  0  0  0  0  0  0  0
  149.8850  132.3009  157.5733 C   0  0  0  0  0  0  0  0  0  0  0  0
  150.8243  133.0571  157.8223 O   0  0  0  0  0  0  0  0  0  0  0  0
  148.6574  132.3640  158.1096 O   0  0  0  0  0  0  0  0  0  0  0  0
  148.3549  133.3847  159.0461 C   0  0  0  0  0  0  0  0  0  0  0  0
  148.1249  134.7116  158.3065 C   0  0  2  0  0  0  0  0  0  0  0  0
  149.3326  135.1575  157.6916 O   0  0  0  0  0  0  0  0  0  0  0  0
  149.7744  136.3385  158.2890 C   0  0  1  0  0  0  0  0  0  0  0  0
  150.6829  137.0935  157.3286 N   0  0  0  0  0  0  0  0  0  0  0  0
  150.5977  138.4706  157.1818 C   0  0  0  0  0  0  0  0  0  0  0  0
  151.4255  139.1470  156.3601 C   0  0  0  0  0  0  0  0  0  0  0  0
  151.3109  140.4813  156.2447 F   0  0  0  0  0  0  0  0  0  0  0  0
  152.4555  138.4246  155.6192 C   0  0  0  0  0  0  0  0  0  0  0  0
  153.1798  139.0383  154.8370 O   0  0  0  0  0  0  0  0  0  0  0  0
  152.5745  137.0846  155.8419 N   0  5  0  0  0  0  0  0  0  0  0  0
  151.7532  136.4006  156.6920 C   0  0  0  0  0  0  0  0  0  0  0  0
  151.9069  135.2053  156.9430 O   0  0  0  0  0  0  0  0  0  0  0  0
  148.4669  137.0515  158.6725 C   0  0  1  0  0  0  0  0  0  0  0  0
  147.8174  137.6185  157.5366 O   0  0  0  0  0  0  0  0  0  0  0  0
  146.7011  138.3510  157.6874 C   0  0  0  0  0  0  0  0  0  0  0  0
  146.0306  138.6633  156.3566 C   0  0  0  0  0  0  0  0  0  0  0  0
  146.2336  138.7500  158.7539 O   0  0  0  0  0  0  0  0  0  0  0  0
  147.6474  135.8782  159.1906 C   0  0  2  0  0  0  0  0  0  0  0  0
  147.9340  135.6657  160.5705 O   0  0  0  0  0  0  0  0  0  0  0  0
  147.2896  136.3693  161.5179 C   0  0  0  0  0  0  0  0  0  0  0  0
  147.7973  136.0544  162.9186 C   0  0  0  0  0  0  0  0  0  0  0  0
  146.3905  137.1883  161.3290 O   0  0  0  0  0  0  0  0  0  0  0  0
  149.1863  131.1376  155.8919 H   0  0  0  0  0  0  0  0  0  0  0  0
  150.0603  130.2003  157.1131 H   0  0  0  0  0  0  0  0  0  0  0  0
  150.9477  131.2574  156.0060 H   0  0  0  0  0  0  0  0  0  0  0  0
  147.4510  133.1011  159.5873 H   0  0  0  0  0  0  0  0  0  0  0  0
  149.1587  133.4880  159.7765 H   0  0  0  0  0  0  0  0  0  0  0  0
  147.3933  134.5621  157.5112 H   0  0  0  0  0  0  0  0  0  0  0  0
  150.4013  136.1150  159.1541 H   0  0  0  0  0  0  0  0  0  0  0  0
  149.8734  139.0384  157.7440 H   0  0  0  0  0  0  0  0  0  0  0  0
  148.6685  137.8083  159.4325 H   0  0  0  0  0  0  0  0  0  0  0  0
  146.7178  139.2028  155.7044 H   0  0  0  0  0  0  0  0  0  0  0  0
  145.1439  139.2791  156.5087 H   0  0  0  0  0  0  0  0  0  0  0  0
  145.7303  137.7415  155.8581 H   0  0  0  0  0  0  0  0  0  0  0  0
  146.5757  136.0363  159.0576 H   0  0  0  0  0  0  0  0  0  0  0  0
  147.8174  134.9770  163.0825 H   0  0  0  0  0  0  0  0  0  0  0  0
  147.1511  136.5067  163.6711 H   0  0  0  0  0  0  0  0  0  0  0  0
  148.8069  136.4443  163.0500 H   0  0  0  0  0  0  0  0  0  0  0  0
  1  2  1  0  0  0  0
  1 28  1  0  0  0  0
  1 29  1  0  0  0  0
  1 30  1  0  0  0  0
  2  3  2  0  0  0  0
  2  4  1  0  0  0  0
  4  5  1  0  0  0  0
  5  6  1  0  0  0  0
  5 31  1  0  0  0  0
  5 32  1  0  0  0  0
  6 23  1  0  0  0  0
  6  7  1  0  0  0  0
  6 33  1  0  0  0  0
  7  8  1  0  0  0  0
  8  9  1  0  0  0  0
  8 18  1  0  0  0  0
  8 34  1  0  0  0  0
  9 16  1  0  0  0  0
  9 10  1  0  0  0  0
 10 11  2  0  0  0  0
 10 35  1  0  0  0  0
 11 12  1  0  0  0  0
 11 13  1  0  0  0  0
 13 14  2  0  0  0  0
 13 15  1  0  0  0  0
 15 16  1  0  0  0  0
 16 17  2  0  0  0  0
 18 19  1  0  0  0  0
 18 23  1  0  0  0  0
 18 36  1  0  0  0  0
 19 20  1  0  0  0  0
 20 21  1  0  0  0  0
 20 22  2  0  0  0  0
 21 37  1  0  0  0  0
 21 38  1  0  0  0  0
 21 39  1  0  0  0  0
 23 24  1  0  0  0  0
 23 40  1  0  0  0  0
 24 25  1  0  0  0  0
 25 26  1  0  0  0  0
 25 27  2  0  0  0  0
 26 41  1  0  0  0  0
 26 42  1  0  0  0  0
 26 43  1  0  0  0  0
M  CHG  1  15  -1
M  END
> <s_m_source_file>
AV-unprocessed.smi

> <i_m_source_file_index>
102

> <i_lp_mmshare_version>
43012

> <i_f3d_flags>
0

> <s_epik_input>
W0NIM11DKD1PKU9bQ0gyXVtDQEBIXTFPW0NASF0oW0NAQEhdKE9DKD1PKVtDSDNdKVtDQEhdMU9DKD1PKVtDSDNdKW4yW2NIXWMoRiljKD1PKVtuSF1jMj1P

> <s_epik_cmdline>
J2VwaWtfcHl0aG9uJywgJy1waCcsICc3LjAnLCAnLXRuJywgJzgnLCAnLW1hJywgJzIwMCcsICctbWV0YWxfYmluZGluZycsICctaW1hZScsICc8aW5maWxlLm1hZT4nLCAnLW9tYWUnLCAnPG91dGZpbGUubWFlPic=

> <r_epik_Ionization_Penalty>
1.40304

> <r_epik_Ionization_Penalty_Charging>
1.43915e-08

> <r_epik_Ionization_Penalty_Neutral>
1.40304

> <r_epik_State_Penalty>
1.48536

> <r_epik_Charging_Adjusted_Penalty>
1.48536

> <i_epik_Tot_Q>
-1

> <i_epik_Tot_abs_Q>
1

> <r_epik_Metal_State_Penalty>
0.00663881

> <b_epik_Metal_Only>
0

> <s_epik_Chemistry_Notes>
This compound has an ester and may undergo hydrolysis at high or low pH. This compound contains an acetal/aminal-like group ( X-CH(R)-Y where X, Y are N, S, or O) that may be acid/base labile, releasing an aldehyde.

> <s_lp_Force_Field>
OPLS_2005

> <r_lp_Energy>
30.6684

> <b_lp_Chiralities_Consistent>
1

> <s_lp_Variant>
AV-unprocessed.smi:102-25

> <Gold.Version>
5.8.1

> <Gold.Id.Protein>
6NUR|6NUR_protein|mol2

> <Gold.PLP.Fitness>
40.6509

> <Gold.PLP.PLP>
-29.1669

> <Gold.PLP.part.hbond>
-5.4756

> <Gold.PLP.part.metal>
0.0000

> <Gold.PLP.part.buried>
-6.3553

> <Gold.PLP.part.nonpolar>
-18.4600

> <Gold.PLP.part.repulsive>
0.0214

> <Gold.PLP.ligand.clash>
0.0000

> <Gold.PLP.ligand.torsion>
0.8632

> <Gold.PLP.Chemscore.Hbond>
4.3440

> <Gold.PLP.Chemscore.CHOScore>
0.0000

> <Gold.PLP.Chemscore.Metal>
0.0000

> <Gold.Chemscore.Hbonds>
donor molecule, donor type, donor heavy atom, donor atom, acceptor molecule, acceptor atom, score
      P1  H  6896  6909       L1     3  0.84
      P1  H  6934  6947       L1    27  1.00
      P1  H  7997  8009       L1    14  1.00
      P1  H 10752 10765       L1    15  1.07

> <Gold.PLP.Chemscore.Internal.Correction>
0.1784

> <Gold.Rescore>
     Score         DG    S(hbond)    S(metal)    S(lipo)     H(rot)  DE(clash)    DE(int)     intcor
      7.25     -10.53       3.46        0.00      31.88       4.00       0.01       3.27       ----

> <Gold.Chemscore.Fitness>
7.2493

> <Gold.Chemscore.DG>
-10.5343

> <Gold.Chemscore.ZeroCoef>
-5.4800

> <Gold.Chemscore.Hbond>
3.4586

> <Gold.Chemscore.Metal>
0.0000

> <Gold.Chemscore.Lipo>
31.8812

> <Gold.Chemscore.Internal_Hbond>
0.0000

> <Gold.Chemscore.DEClash>
0.0116

> <Gold.Chemscore.DEInternal>
3.2735

> <Gold.Chemscore.Rot>
3.9951

> <Gold.Chemscore.Internal.Correction>
   9.000000E+99

> <Gold.Chemscore.Hbonds>
donor molecule, donor type, donor heavy atom, donor atom, acceptor molecule, acceptor atom, score
      P1  H  6896  6909       L1     3  0.79
      P1  H  6934  6947       L1    27  0.73
      P1  H  7997  8009       L1    14  0.80
      P1  H 10752 10765       L1    15  0.10

> <Gold.Chemscore.Hbond.Weighted>
-11.5517

> <Gold.Chemscore.Metal.Weighted>
-0.0000

> <Gold.Chemscore.Lipo.Weighted>
-3.7301

> <Gold.Chemscore.Internal_Hbond.Weighted>
0.0000

> <Gold.Chemscore.DEClash.Weighted>
0.0116

> <Gold.Chemscore.DEInternal.Weighted>
3.2735

> <Gold.Chemscore.Rot.Weighted>
10.2274

> <Gold.Chemscore.Internal.Correction.Weighted>
   9.000000E+99

> <Gold.Protein.RotatedTorsions>
[ 6907 6896 6895 6894 ] final  -25.53 input  -60.11 | X-H torsion
[ 7974 7965 7964 7962 ] final   -4.49 input  175.53 | X-H torsion
[ 8008 7997 7996 7995 ] final -126.68 input   59.86 | X-H torsion
[ 10167 10162 10161 10158 ] final  159.09 input  -65.29 | X-H torsion
[ 10718 10713 10712 10709 ] final  171.17 input   66.30 | X-H torsion
[ 10763 10752 10751 10750 ] final -179.50 input  -60.55 | X-H torsion
[ 11005 11000 10999 10996 ] final -134.64 input  -57.11 | X-H torsion

> <Gold.Protein.ActiveResidues>
 VAL166  LYS551  ARG553  GLY616  TRP617  ASP618  TYR619  PRO620  LYS621  CYS622 
 ASP623  PHE694  ASN695  SER759  ASP760  ASP761  ALA762  ILE779  LEU786  VAL792 
 PHE793  MET794  SER795  GLU796  ALA797  LYS798  CYS799  TRP800  GLU811  SER814 

> <Gold.Protein.RotatedAtoms>
  151.1738  135.0330  159.8762 H   0  0  0  0  0  0  0  0  0  0  0  0  # atno 6907 bound_to 6896
  152.5448  134.1140  159.8381 H   0  0  0  0  0  0  0  0  0  0  0  0  # atno 6908 bound_to 6896
  151.1249  133.5031  159.2633 H   0  0  0  0  0  0  0  0  0  0  0  0  # atno 6909 bound_to 6896
  146.2371  140.1879  142.8332 H   0  0  0  0  0  0  0  0  0  0  0  0  # atno 7974 bound_to 7965
  155.2337  140.0426  157.2965 H   0  0  0  0  0  0  0  0  0  0  0  0  # atno 8008 bound_to 7997
  154.5872  140.2417  155.7941 H   0  0  0  0  0  0  0  0  0  0  0  0  # atno 8009 bound_to 7997
  156.2234  140.2962  156.0016 H   0  0  0  0  0  0  0  0  0  0  0  0  # atno 8010 bound_to 7997
  139.4830  144.4763  151.8507 H   0  0  0  0  0  0  0  0  0  0  0  0  # atno 10167 bound_to 10162
  156.9975  131.0166  151.2840 H   0  0  0  0  0  0  0  0  0  0  0  0  # atno 10718 bound_to 10713
  154.5343  135.2802  155.1152 H   0  0  0  0  0  0  0  0  0  0  0  0  # atno 10763 bound_to 10752
  154.2660  135.6312  153.5296 H   0  0  0  0  0  0  0  0  0  0  0  0  # atno 10764 bound_to 10752
  152.9964  135.5617  154.5865 H   0  0  0  0  0  0  0  0  0  0  0  0  # atno 10765 bound_to 10752
  140.8972  134.1737  157.4486 H   0  0  0  0  0  0  0  0  0  0  0  0  # atno 11005 bound_to 11000
  144.9882  140.8522  143.5356 LP  0  0  0  0  0  0  0  0  0  0  0  0  # atno 17320 bound_to 7965
  145.1881  139.2315  143.5257 LP  0  0  0  0  0  0  0  0  0  0  0  0  # atno 17321 bound_to 7965
  140.4235  144.2211  150.5887 LP  0  0  0  0  0  0  0  0  0  0  0  0  # atno 17342 bound_to 10162
  140.4850  143.2366  151.8901 LP  0  0  0  0  0  0  0  0  0  0  0  0  # atno 17343 bound_to 10162
  157.5414  130.8122  149.8034 LP  0  0  0  0  0  0  0  0  0  0  0  0  # atno 17370 bound_to 10713
  156.0183  130.3805  150.2039 LP  0  0  0  0  0  0  0  0  0  0  0  0  # atno 17371 bound_to 10713
  139.8737  134.9883  156.5406 LP  0  0  0  0  0  0  0  0  0  0  0  0  # atno 17394 bound_to 11000
  140.8275  133.8305  155.8953 LP  0  0  0  0  0  0  0  0  0  0  0  0  # atno 17395 bound_to 11000

$$$$
