AV-unprocessed.smi:2696|AV-procd|sdf|10414|dock1
  -GOLD-   2272014453D 1   1.00000     0.00000
 Structure written by MMmdl.
 43 44  0  0  0  0  0  0  0  0  1 V2000
  154.8371  133.5557  162.5033 C   0  0  0  0  0  0  0  0  0  0  0  0
  155.2767  134.9593  162.9497 C   0  0  0  0  0  0  0  0  0  0  0  0
  154.6890  135.3297  164.3199 C   0  0  0  0  0  0  0  0  0  0  0  0
  154.9482  136.0108  161.8981 C   0  0  0  0  0  0  0  0  0  0  0  0
  155.3355  135.8905  160.6055 C   0  0  0  0  0  0  0  0  0  0  0  0
  155.0211  136.9327  159.6287 C   0  0  0  0  0  0  0  0  0  0  0  0
  155.3347  136.8409  158.4421 O   0  0  0  0  0  0  0  0  0  0  0  0
  154.3649  138.0175  160.1345 N   0  0  0  0  0  0  0  0  0  0  0  0
  154.0478  139.1817  159.2798 C   0  0  0  0  0  0  0  0  0  0  0  0
  152.8771  138.9542  158.2737 C   0  0  2  0  0  0  0  0  0  0  0  0
  151.9677  137.8103  158.7711 C   0  0  0  0  0  0  0  0  0  0  0  0
  153.4445  138.4044  157.0976 O   0  0  0  0  0  0  0  0  0  0  0  0
  152.0653  140.2295  157.9961 C   0  0  0  0  0  0  0  0  0  0  0  0
  151.0286  140.2412  157.0329 C   0  0  0  0  0  0  0  0  0  0  0  0
  150.3200  141.4257  156.7585 C   0  0  0  0  0  0  0  0  0  0  0  0
  150.6410  142.6136  157.4395 C   0  0  0  0  0  0  0  0  0  0  0  0
  151.6752  142.6256  158.3973 C   0  0  0  0  0  0  0  0  0  0  0  0
  152.0167  143.9217  159.1174 C   0  0  0  0  0  0  0  0  0  0  0  0
  152.9081  143.7298  160.0907 F   0  0  0  0  0  0  0  0  0  0  0  0
  152.5242  144.8002  158.2527 F   0  0  0  0  0  0  0  0  0  0  0  0
  150.9083  144.4346  159.6502 F   0  0  0  0  0  0  0  0  0  0  0  0
  152.3770  141.4318  158.6734 C   0  0  0  0  0  0  0  0  0  0  0  0
  153.9495  138.0746  161.4814 C   0  0  0  0  0  0  0  0  0  0  0  0
  154.2266  137.1309  162.3231 N   0  0  0  0  0  0  0  0  0  0  0  0
  155.2747  133.2971  161.5384 H   0  0  0  0  0  0  0  0  0  0  0  0
  153.7534  133.4835  162.4082 H   0  0  0  0  0  0  0  0  0  0  0  0
  155.1554  132.8000  163.2217 H   0  0  0  0  0  0  0  0  0  0  0  0
  156.3622  134.9345  163.0603 H   0  0  0  0  0  0  0  0  0  0  0  0
  155.0354  136.3125  164.6410 H   0  0  0  0  0  0  0  0  0  0  0  0
  154.9900  134.6101  165.0818 H   0  0  0  0  0  0  0  0  0  0  0  0
  153.5990  135.3509  164.2975 H   0  0  0  0  0  0  0  0  0  0  0  0
  155.8925  135.0224  160.2850 H   0  0  0  0  0  0  0  0  0  0  0  0
  153.8693  140.0692  159.8904 H   0  0  0  0  0  0  0  0  0  0  0  0
  154.9388  139.4443  158.7060 H   0  0  0  0  0  0  0  0  0  0  0  0
  151.4986  138.0408  159.7272 H   0  0  0  0  0  0  0  0  0  0  0  0
  152.5318  136.8876  158.9149 H   0  0  0  0  0  0  0  0  0  0  0  0
  151.1695  137.5993  158.0578 H   0  0  0  0  0  0  0  0  0  0  0  0
  153.9822  137.6655  157.3385 H   0  0  0  0  0  0  0  0  0  0  0  0
  150.7719  139.3484  156.4825 H   0  0  0  0  0  0  0  0  0  0  0  0
  149.5324  141.4235  156.0196 H   0  0  0  0  0  0  0  0  0  0  0  0
  150.0948  143.5196  157.2214 H   0  0  0  0  0  0  0  0  0  0  0  0
  153.1782  141.4436  159.3958 H   0  0  0  0  0  0  0  0  0  0  0  0
  153.3936  138.9693  161.7661 H   0  0  0  0  0  0  0  0  0  0  0  0
  1  2  1  0  0  0  0
  1 25  1  0  0  0  0
  1 26  1  0  0  0  0
  1 27  1  0  0  0  0
  2  3  1  0  0  0  0
  2  4  1  0  0  0  0
  2 28  1  0  0  0  0
  3 29  1  0  0  0  0
  3 30  1  0  0  0  0
  3 31  1  0  0  0  0
  4 24  1  0  0  0  0
  4  5  2  0  0  0  0
  5  6  1  0  0  0  0
  5 32  1  0  0  0  0
  6  7  2  0  0  0  0
  6  8  1  0  0  0  0
  8  9  1  0  0  0  0
  8 23  1  0  0  0  0
  9 10  1  0  0  0  0
  9 33  1  0  0  0  0
  9 34  1  0  0  0  0
 10 11  1  0  0  0  0
 10 12  1  0  0  0  0
 10 13  1  0  0  0  0
 11 35  1  0  0  0  0
 11 36  1  0  0  0  0
 11 37  1  0  0  0  0
 12 38  1  0  0  0  0
 13 22  1  0  0  0  0
 13 14  2  0  0  0  0
 14 15  1  0  0  0  0
 14 39  1  0  0  0  0
 15 16  2  0  0  0  0
 15 40  1  0  0  0  0
 16 17  1  0  0  0  0
 16 41  1  0  0  0  0
 17 18  1  0  0  0  0
 17 22  2  0  0  0  0
 18 19  1  0  0  0  0
 18 20  1  0  0  0  0
 18 21  1  0  0  0  0
 22 42  1  0  0  0  0
 23 24  2  0  0  0  0
 23 43  1  0  0  0  0
M  END
> <s_m_source_file>
AV-unprocessed.smi

> <i_m_source_file_index>
2696

> <i_lp_mmshare_version>
43012

> <i_f3d_flags>
0

> <s_epik_input>
W0NIM11bQ0hdKFtDSDNdKWMxW2NIXWMoPU8pbihbY0hdbjEpW0NIMl1bQ0BAXShbQ0gzXSkoW09IXSljMltjSF1bY0hdW2NIXWMoQyhGKShGKUYpW2NIXTI=

> <s_epik_cmdline>
J2VwaWtfcHl0aG9uJywgJy1waCcsICc3LjAnLCAnLXRuJywgJzgnLCAnLW1hJywgJzIwMCcsICctbWV0YWxfYmluZGluZycsICctaW1hZScsICc8aW5maWxlLm1hZT4nLCAnLW9tYWUnLCAnPG91dGZpbGUubWFlPic=

> <r_lp_tautomer_probability>
1

> <r_epik_Ionization_Penalty>
2.71388e-05

> <r_epik_Ionization_Penalty_Charging>
4.19927e-06

> <r_epik_Ionization_Penalty_Neutral>
2.29395e-05

> <r_epik_State_Penalty>
-0

> <r_epik_Charging_Adjusted_Penalty>
4.19927e-06

> <i_epik_Tot_Q>
0

> <i_epik_Tot_abs_Q>
0

> <r_epik_Metal_State_Penalty>
-0

> <b_epik_Metal_Only>
0

> <s_lp_Force_Field>
OPLS_2005

> <r_lp_Energy>
19.4026

> <b_lp_Chiralities_Consistent>
1

> <s_lp_Variant>
AV-unprocessed.smi:2696-2

> <Gold.Version>
5.8.1

> <Gold.Id.Protein>
6NUR|6NUR_protein|mol2

> <Gold.PLP.Fitness>
44.5509

> <Gold.PLP.PLP>
-43.7038

> <Gold.PLP.part.hbond>
-1.0000

> <Gold.PLP.part.metal>
0.0000

> <Gold.PLP.part.buried>
-5.5036

> <Gold.PLP.part.nonpolar>
-37.2557

> <Gold.PLP.part.repulsive>
0.0000

> <Gold.PLP.ligand.clash>
0.0000

> <Gold.PLP.ligand.torsion>
1.0649

> <Gold.PLP.Chemscore.Hbond>
0.7480

> <Gold.PLP.Chemscore.CHOScore>
0.0000

> <Gold.PLP.Chemscore.Metal>
0.0000

> <Gold.Chemscore.Hbonds>
donor molecule, donor type, donor heavy atom, donor atom, acceptor molecule, acceptor atom, score
      P1  H  7997  8008       L1    12  0.64

> <Gold.PLP.Chemscore.Internal.Correction>
0.7329

> <Gold.Rescore>
     Score         DG    S(hbond)    S(metal)    S(lipo)     H(rot)  DE(clash)    DE(int)     intcor
     13.12     -14.27       0.74        0.00     102.66       2.23       0.20       0.95       ----

> <Gold.Chemscore.Fitness>
13.1184

> <Gold.Chemscore.DG>
-14.2655

> <Gold.Chemscore.ZeroCoef>
-5.4800

> <Gold.Chemscore.Hbond>
0.7442

> <Gold.Chemscore.Metal>
0.0000

> <Gold.Chemscore.Lipo>
102.6626

> <Gold.Chemscore.Internal_Hbond>
0.0000

> <Gold.Chemscore.DEClash>
0.1999

> <Gold.Chemscore.DEInternal>
0.9472

> <Gold.Chemscore.Rot>
2.2312

> <Gold.Chemscore.Internal.Correction>
   9.000000E+99

> <Gold.Chemscore.Hbonds>
donor molecule, donor type, donor heavy atom, donor atom, acceptor molecule, acceptor atom, score
      P1  H  7997  8008       L1    12  0.06

> <Gold.Chemscore.Hbond.Weighted>
-2.4858

> <Gold.Chemscore.Metal.Weighted>
-0.0000

> <Gold.Chemscore.Lipo.Weighted>
-12.0115

> <Gold.Chemscore.Internal_Hbond.Weighted>
0.0000

> <Gold.Chemscore.DEClash.Weighted>
0.1999

> <Gold.Chemscore.DEInternal.Weighted>
0.9472

> <Gold.Chemscore.Rot.Weighted>
5.7118

> <Gold.Chemscore.Internal.Correction.Weighted>
   9.000000E+99

> <Gold.Protein.RotatedTorsions>
[ 6907 6896 6895 6894 ] final -145.49 input  -60.11 | X-H torsion
[ 7974 7965 7964 7962 ] final  138.99 input  175.53 | X-H torsion
[ 8008 7997 7996 7995 ] final  -58.43 input   59.86 | X-H torsion
[ 10167 10162 10161 10158 ] final -179.68 input  -65.29 | X-H torsion
[ 10718 10713 10712 10709 ] final  158.77 input   66.30 | X-H torsion
[ 10763 10752 10751 10750 ] final  -53.07 input  -60.55 | X-H torsion
[ 11005 11000 10999 10996 ] final   11.19 input  -57.11 | X-H torsion

> <Gold.Protein.ActiveResidues>
 VAL166  LYS551  ARG553  GLY616  TRP617  ASP618  TYR619  PRO620  LYS621  CYS622 
 ASP623  PHE694  ASN695  SER759  ASP760  ASP761  ALA762  ILE779  LEU786  VAL792 
 PHE793  MET794  SER795  GLU796  ALA797  LYS798  CYS799  TRP800  GLU811  SER814 

> <Gold.Protein.RotatedAtoms>
  151.1285  133.5054  159.2599 H   0  0  0  0  0  0  0  0  0  0  0  0  # atno 6907 bound_to 6896
  151.1784  135.0349  159.8791 H   0  0  0  0  0  0  0  0  0  0  0  0  # atno 6908 bound_to 6896
  152.5459  134.1140  159.8424 H   0  0  0  0  0  0  0  0  0  0  0  0  # atno 6909 bound_to 6896
  144.9320  139.5035  143.5613 H   0  0  0  0  0  0  0  0  0  0  0  0  # atno 7974 bound_to 7965
  154.4308  140.1084  156.5955 H   0  0  0  0  0  0  0  0  0  0  0  0  # atno 8008 bound_to 7997
  155.5966  140.3493  155.4563 H   0  0  0  0  0  0  0  0  0  0  0  0  # atno 8009 bound_to 7997
  156.0205  140.1238  157.0351 H   0  0  0  0  0  0  0  0  0  0  0  0  # atno 8010 bound_to 7997
  139.5375  144.2455  152.0826 H   0  0  0  0  0  0  0  0  0  0  0  0  # atno 10167 bound_to 10162
  157.1734  131.0615  151.2170 H   0  0  0  0  0  0  0  0  0  0  0  0  # atno 10718 bound_to 10713
  154.1529  135.6487  153.4968 H   0  0  0  0  0  0  0  0  0  0  0  0  # atno 10763 bound_to 10752
  153.0132  135.5342  154.6789 H   0  0  0  0  0  0  0  0  0  0  0  0  # atno 10764 bound_to 10752
  154.6082  135.2951  155.0433 H   0  0  0  0  0  0  0  0  0  0  0  0  # atno 10765 bound_to 10752
  140.5060  134.0699  155.7805 H   0  0  0  0  0  0  0  0  0  0  0  0  # atno 11005 bound_to 11000
  146.3251  139.8277  142.8914 LP  0  0  0  0  0  0  0  0  0  0  0  0  # atno 17320 bound_to 7965
  145.3127  141.0224  143.3545 LP  0  0  0  0  0  0  0  0  0  0  0  0  # atno 17321 bound_to 7965
  140.1928  144.4735  150.6470 LP  0  0  0  0  0  0  0  0  0  0  0  0  # atno 17342 bound_to 10162
  140.6590  143.2246  151.5902 LP  0  0  0  0  0  0  0  0  0  0  0  0  # atno 17343 bound_to 10162
  157.4021  130.7339  149.6775 LP  0  0  0  0  0  0  0  0  0  0  0  0  # atno 17370 bound_to 10713
  155.9735  130.4118  150.3998 LP  0  0  0  0  0  0  0  0  0  0  0  0  # atno 17371 bound_to 10713
  141.1411  133.9137  157.2324 LP  0  0  0  0  0  0  0  0  0  0  0  0  # atno 17394 bound_to 11000
  139.9686  135.0135  156.9453 LP  0  0  0  0  0  0  0  0  0  0  0  0  # atno 17395 bound_to 11000

$$$$
