AV-unprocessed.smi:1999|AV-procd|sdf|8099|dock10
  -GOLD-   2272010323D 1   1.00000     0.00000
 Structure written by MMmdl.
 38 39  0  0  0  0  0  0  0  0  3 V2000
  153.5115  137.0317  162.3632 C   0  0  0  0  0  0  0  0  0  0  0  0
  153.2719  137.4371  160.9492 C   0  0  0  0  0  0  0  0  0  0  0  0
  152.7191  136.6244  160.0450 N   0  0  0  0  0  0  0  0  0  0  0  0
  152.5995  137.2297  158.8027 N   0  0  0  0  0  0  0  0  0  0  0  0
  153.0511  138.4922  158.7875 C   0  0  0  0  0  0  0  0  0  0  0  0
  153.0195  139.2545  157.6821 N   0  5  0  0  0  0  0  0  0  0  0  0
  151.8616  139.8362  157.3008 C   0  0  0  0  0  0  0  0  0  0  0  0
  151.1500  140.5662  157.9942 O   0  0  0  0  0  0  0  0  0  0  0  0
  151.4878  139.5230  156.0507 N   0  0  0  0  0  0  0  0  0  0  0  0
  150.2331  139.8956  155.3939 C   0  0  1  0  0  0  0  0  0  0  0  0
  150.2036  141.4150  155.1806 C   0  0  0  0  0  0  0  0  0  0  0  0
  150.0694  139.1323  154.0598 C   0  0  0  0  0  0  0  0  0  0  0  0
  149.6839  137.7127  154.2597 N   0  3  0  0  0  0  0  0  0  0  0  0
  150.7691  136.8747  154.8217 C   0  0  0  0  0  0  0  0  0  0  0  0
  150.3191  135.4059  154.8787 C   0  0  0  0  0  0  0  0  0  0  0  0
  149.1329  135.3033  155.6583 O   0  0  0  0  0  0  0  0  0  0  0  0
  148.0588  136.0492  155.0969 C   0  0  0  0  0  0  0  0  0  0  0  0
  148.4371  137.5392  155.0387 C   0  0  0  0  0  0  0  0  0  0  0  0
  153.6898  139.0299  160.3401 S   0  0  0  0  0  0  0  0  0  0  0  0
  152.7225  137.4287  163.0021 H   0  0  0  0  0  0  0  0  0  0  0  0
  154.4703  137.4199  162.7072 H   0  0  0  0  0  0  0  0  0  0  0  0
  153.5233  135.9450  162.4537 H   0  0  0  0  0  0  0  0  0  0  0  0
  152.1152  138.9339  155.5225 H   0  0  0  0  0  0  0  0  0  0  0  0
  149.3943  139.6522  156.0472 H   0  0  0  0  0  0  0  0  0  0  0  0
  149.2682  141.7272  154.7157 H   0  0  0  0  0  0  0  0  0  0  0  0
  151.0207  141.7433  154.5371 H   0  0  0  0  0  0  0  0  0  0  0  0
  150.2927  141.9460  156.1290 H   0  0  0  0  0  0  0  0  0  0  0  0
  149.3455  139.6280  153.4112 H   0  0  0  0  0  0  0  0  0  0  0  0
  151.0239  139.1688  153.5325 H   0  0  0  0  0  0  0  0  0  0  0  0
  151.6680  136.9583  154.2113 H   0  0  0  0  0  0  0  0  0  0  0  0
  151.0274  137.2270  155.8213 H   0  0  0  0  0  0  0  0  0  0  0  0
  150.1474  135.0121  153.8754 H   0  0  0  0  0  0  0  0  0  0  0  0
  151.0964  134.7921  155.3340 H   0  0  0  0  0  0  0  0  0  0  0  0
  147.8191  135.6704  154.1018 H   0  0  0  0  0  0  0  0  0  0  0  0
  147.1708  135.9101  155.7133 H   0  0  0  0  0  0  0  0  0  0  0  0
  148.5731  137.9363  156.0458 H   0  0  0  0  0  0  0  0  0  0  0  0
  147.6271  138.1028  154.5742 H   0  0  0  0  0  0  0  0  0  0  0  0
  149.4861  137.3508  153.3365 H   0  0  0  0  0  0  0  0  0  0  0  0
  1  2  1  0  0  0  0
  1 20  1  0  0  0  0
  1 21  1  0  0  0  0
  1 22  1  0  0  0  0
  2 19  1  0  0  0  0
  2  3  2  0  0  0  0
  3  4  1  0  0  0  0
  4  5  2  0  0  0  0
  5  6  1  0  0  0  0
  5 19  1  0  0  0  0
  6  7  1  0  0  0  0
  7  8  2  0  0  0  0
  7  9  1  0  0  0  0
  9 10  1  0  0  0  0
  9 23  1  0  0  0  0
 10 11  1  0  0  0  0
 10 12  1  0  0  0  0
 10 24  1  0  0  0  0
 11 25  1  0  0  0  0
 11 26  1  0  0  0  0
 11 27  1  0  0  0  0
 12 13  1  0  0  0  0
 12 28  1  0  0  0  0
 12 29  1  0  0  0  0
 13 18  1  0  0  0  0
 13 14  1  0  0  0  0
 13 38  1  0  0  0  0
 14 15  1  0  0  0  0
 14 30  1  0  0  0  0
 14 31  1  0  0  0  0
 15 16  1  0  0  0  0
 15 32  1  0  0  0  0
 15 33  1  0  0  0  0
 16 17  1  0  0  0  0
 17 18  1  0  0  0  0
 17 34  1  0  0  0  0
 17 35  1  0  0  0  0
 18 36  1  0  0  0  0
 18 37  1  0  0  0  0
M  CHG  1   6  -1
M  CHG  1  13   1
M  END
> <s_m_source_file>
AV-unprocessed.smi

> <i_m_source_file_index>
1999

> <i_lp_mmshare_version>
43012

> <i_f3d_flags>
0

> <s_epik_input>
W0NIM11jMW5uYyhzMSlbTkhdQyg9TylbTkhdW0NASF0oW0NIM10pW0NIMl1OMltDSDJdW0NIMl1PW0NIMl1bQ0gyXTI=

> <s_epik_cmdline>
J2VwaWtfcHl0aG9uJywgJy1waCcsICc3LjAnLCAnLXRuJywgJzgnLCAnLW1hJywgJzIwMCcsICctbWV0YWxfYmluZGluZycsICctaW1hZScsICc8aW5maWxlLm1hZT4nLCAnLW9tYWUnLCAnPG91dGZpbGUubWFlPic=

> <r_lp_tautomer_probability>
1

> <r_epik_Ionization_Penalty>
3.39984

> <r_epik_Ionization_Penalty_Charging>
3.28696

> <r_epik_Ionization_Penalty_Neutral>
0.11288

> <r_epik_State_Penalty>
3.47917

> <r_epik_Charging_Adjusted_Penalty>
6.76613

> <i_epik_Tot_Q>
0

> <i_epik_Tot_abs_Q>
2

> <r_epik_Metal_State_Penalty>
1.13142

> <b_epik_Metal_Only>
1

> <s_lp_Force_Field>
OPLS_2005

> <r_lp_Energy>
12.2925

> <b_lp_Chiralities_Consistent>
1

> <s_lp_Variant>
AV-unprocessed.smi:1999-8

> <Gold.Version>
5.8.1

> <Gold.Id.Protein>
6NUR|6NUR_protein|mol2

> <Gold.PLP.Fitness>
38.1847

> <Gold.PLP.PLP>
-25.9853

> <Gold.PLP.part.hbond>
-3.0000

> <Gold.PLP.part.metal>
0.0000

> <Gold.PLP.part.buried>
-3.0821

> <Gold.PLP.part.nonpolar>
-19.3657

> <Gold.PLP.part.repulsive>
0.2084

> <Gold.PLP.ligand.clash>
0.0000

> <Gold.PLP.ligand.torsion>
1.4650

> <Gold.PLP.Chemscore.Hbond>
5.0000

> <Gold.PLP.Chemscore.CHOScore>
0.0000

> <Gold.PLP.Chemscore.Metal>
0.0000

> <Gold.Chemscore.Hbonds>
donor molecule, donor type, donor heavy atom, donor atom, acceptor molecule, acceptor atom, score
      L1  H    13    38       P1  7948  2.00
      P1  H  6896  6908       L1     3  1.00
      P1  H  7997  8010       L1     6  2.00

> <Gold.PLP.Chemscore.Internal.Correction>
0.1294

> <Gold.Rescore>
     Score         DG    S(hbond)    S(metal)    S(lipo)     H(rot)  DE(clash)    DE(int)     intcor
     15.94     -17.60       2.88        0.00      56.51       1.60       0.02       1.64       ----

> <Gold.Chemscore.Fitness>
15.9402

> <Gold.Chemscore.DG>
-17.6035

> <Gold.Chemscore.ZeroCoef>
-5.4800

> <Gold.Chemscore.Hbond>
2.8794

> <Gold.Chemscore.Metal>
0.0000

> <Gold.Chemscore.Lipo>
56.5107

> <Gold.Chemscore.Internal_Hbond>
0.0000

> <Gold.Chemscore.DEClash>
0.0202

> <Gold.Chemscore.DEInternal>
1.6431

> <Gold.Chemscore.Rot>
1.6036

> <Gold.Chemscore.Internal.Correction>
   9.000000E+99

> <Gold.Chemscore.Hbonds>
donor molecule, donor type, donor heavy atom, donor atom, acceptor molecule, acceptor atom, score
      L1  H    13    38       P1  7948  0.90
      P1  H  6896  6908       L1     3  0.78
      P1  H  7997  8010       L1     6  0.82

> <Gold.Chemscore.Hbond.Weighted>
-9.6171

> <Gold.Chemscore.Metal.Weighted>
-0.0000

> <Gold.Chemscore.Lipo.Weighted>
-6.6118

> <Gold.Chemscore.Internal_Hbond.Weighted>
0.0000

> <Gold.Chemscore.DEClash.Weighted>
0.0202

> <Gold.Chemscore.DEInternal.Weighted>
1.6431

> <Gold.Chemscore.Rot.Weighted>
4.1053

> <Gold.Chemscore.Internal.Correction.Weighted>
   9.000000E+99

> <Gold.Protein.RotatedTorsions>
[ 6907 6896 6895 6894 ] final  -95.79 input  -60.11 | X-H torsion
[ 7974 7965 7964 7962 ] final   17.55 input  175.53 | X-H torsion
[ 8008 7997 7996 7995 ] final   44.33 input   59.86 | X-H torsion
[ 10167 10162 10161 10158 ] final   29.45 input  -65.29 | X-H torsion
[ 10718 10713 10712 10709 ] final   51.68 input   66.30 | X-H torsion
[ 10763 10752 10751 10750 ] final  -72.86 input  -60.55 | X-H torsion
[ 11005 11000 10999 10996 ] final -153.83 input  -57.11 | X-H torsion

> <Gold.Protein.ActiveResidues>
 VAL166  LYS551  ARG553  GLY616  TRP617  ASP618  TYR619  PRO620  LYS621  CYS622 
 ASP623  PHE694  ASN695  SER759  ASP760  ASP761  ALA762  ILE779  LEU786  VAL792 
 PHE793  MET794  SER795  GLU796  ALA797  LYS798  CYS799  TRP800  GLU811  SER814 

> <Gold.Protein.RotatedAtoms>
  150.6972  134.1603  159.4173 H   0  0  0  0  0  0  0  0  0  0  0  0  # atno 6907 bound_to 6896
  151.9584  135.0133  160.0555 H   0  0  0  0  0  0  0  0  0  0  0  0  # atno 6908 bound_to 6896
  152.1949  133.4764  159.5064 H   0  0  0  0  0  0  0  0  0  0  0  0  # atno 6909 bound_to 6896
  146.2214  139.8585  142.8609 H   0  0  0  0  0  0  0  0  0  0  0  0  # atno 7974 bound_to 7965
  155.3176  140.3395  155.4242 H   0  0  0  0  0  0  0  0  0  0  0  0  # atno 8008 bound_to 7997
  156.1925  140.1703  156.8101 H   0  0  0  0  0  0  0  0  0  0  0  0  # atno 8009 bound_to 7997
  154.5459  140.0715  156.8571 H   0  0  0  0  0  0  0  0  0  0  0  0  # atno 8010 bound_to 7997
  140.4765  144.0683  150.6252 H   0  0  0  0  0  0  0  0  0  0  0  0  # atno 10167 bound_to 10162
  157.5003  130.8433  149.8308 H   0  0  0  0  0  0  0  0  0  0  0  0  # atno 10718 bound_to 10713
  154.4515  135.5916  153.6195 H   0  0  0  0  0  0  0  0  0  0  0  0  # atno 10763 bound_to 10752
  152.9814  135.6022  154.3598 H   0  0  0  0  0  0  0  0  0  0  0  0  # atno 10764 bound_to 10752
  154.3460  135.2841  155.2376 H   0  0  0  0  0  0  0  0  0  0  0  0  # atno 10765 bound_to 10752
  140.7039  134.3907  157.5206 H   0  0  0  0  0  0  0  0  0  0  0  0  # atno 11005 bound_to 11000
  145.2728  141.0114  143.3762 LP  0  0  0  0  0  0  0  0  0  0  0  0  # atno 17320 bound_to 7965
  144.9210  139.4412  143.6541 LP  0  0  0  0  0  0  0  0  0  0  0  0  # atno 17321 bound_to 7965
  140.3912  143.2751  152.0057 LP  0  0  0  0  0  0  0  0  0  0  0  0  # atno 17342 bound_to 10162
  139.4826  144.6075  151.7494 LP  0  0  0  0  0  0  0  0  0  0  0  0  # atno 17343 bound_to 10162
  156.0225  130.3790  150.1919 LP  0  0  0  0  0  0  0  0  0  0  0  0  # atno 17370 bound_to 10713
  157.0109  130.9950  151.3366 LP  0  0  0  0  0  0  0  0  0  0  0  0  # atno 17371 bound_to 10713
  139.8889  134.8843  156.2448 LP  0  0  0  0  0  0  0  0  0  0  0  0  # atno 17394 bound_to 11000
  141.0141  133.7079  156.1159 LP  0  0  0  0  0  0  0  0  0  0  0  0  # atno 17395 bound_to 11000

$$$$
