AV-unprocessed.smi:1257|AV-procd|sdf|5285|dock3
  -GOLD-   22720 4403D 1   1.00000     0.00000
 Structure written by MMmdl.
 47 48  0  0  0  0  0  0  0  0  1 V2000
  152.7981  129.8528  154.6967 C   0  0  0  0  0  0  0  0  0  0  0  0
  152.5361  130.7550  155.9101 C   0  0  0  0  0  0  0  0  0  0  0  0
  151.7065  131.9015  155.5585 N   0  0  0  0  0  0  0  0  0  0  0  0
  151.3663  132.8924  156.3963 C   0  0  0  0  0  0  0  0  0  0  0  0
  151.7166  132.9277  157.5770 O   0  0  0  0  0  0  0  0  0  0  0  0
  150.4760  133.9942  155.8085 C   0  0  0  0  0  0  0  0  0  0  0  0
  150.7090  135.2980  156.4243 N   0  0  0  0  0  0  0  0  0  0  0  0
  151.0771  136.4099  155.7658 C   0  0  0  0  0  0  0  0  0  0  0  0
  151.2530  136.4510  154.5477 O   0  0  0  0  0  0  0  0  0  0  0  0
  151.3407  137.6146  156.6221 C   0  0  0  0  0  0  0  0  0  0  0  0
  150.7465  137.7332  157.8972 C   0  0  0  0  0  0  0  0  0  0  0  0
  151.0293  138.8674  158.6823 C   0  0  0  0  0  0  0  0  0  0  0  0
  151.9025  139.8478  158.1685 C   0  0  0  0  0  0  0  0  0  0  0  0
  152.1835  140.9808  158.9444 N   0  0  0  0  0  0  0  0  0  0  0  0
  153.5746  141.0543  159.3713 C   0  0  0  0  0  0  0  0  0  0  0  0
  153.7892  142.2394  160.3338 C   0  0  2  0  0  0  0  0  0  0  0  0
  153.2294  141.9933  161.7463 C   0  0  0  0  0  0  0  0  0  0  0  0
  153.2782  143.4435  159.7544 O   0  0  0  0  0  0  0  0  0  0  0  0
  151.9084  143.3839  159.3541 C   0  0  1  0  0  0  0  0  0  0  0  0
  151.5310  144.7366  158.7420 C   0  0  0  0  0  0  0  0  0  0  0  0
  151.7187  142.2287  158.3550 C   0  0  0  0  0  0  0  0  0  0  0  0
  152.4886  139.7370  156.9528 N   0  0  0  0  0  0  0  0  0  0  0  0
  152.2154  138.6453  156.2070 C   0  0  0  0  0  0  0  0  0  0  0  0
  153.4468  129.0199  154.9677 H   0  0  0  0  0  0  0  0  0  0  0  0
  153.2850  130.4050  153.8924 H   0  0  0  0  0  0  0  0  0  0  0  0
  151.8706  129.4349  154.3040 H   0  0  0  0  0  0  0  0  0  0  0  0
  152.0707  130.1836  156.7149 H   0  0  0  0  0  0  0  0  0  0  0  0
  153.4828  131.1274  156.3018 H   0  0  0  0  0  0  0  0  0  0  0  0
  151.3713  131.9477  154.6071 H   0  0  0  0  0  0  0  0  0  0  0  0
  150.6185  134.0568  154.7279 H   0  0  0  0  0  0  0  0  0  0  0  0
  149.4336  133.7200  155.9717 H   0  0  0  0  0  0  0  0  0  0  0  0
  150.6189  135.3485  157.4285 H   0  0  0  0  0  0  0  0  0  0  0  0
  150.0781  136.9723  158.2736 H   0  0  0  0  0  0  0  0  0  0  0  0
  150.5815  138.9813  159.6588 H   0  0  0  0  0  0  0  0  0  0  0  0
  153.8719  140.1188  159.8470 H   0  0  0  0  0  0  0  0  0  0  0  0
  154.2109  141.1806  158.4938 H   0  0  0  0  0  0  0  0  0  0  0  0
  154.8639  142.3862  160.4435 H   0  0  0  0  0  0  0  0  0  0  0  0
  153.7252  141.1428  162.2149 H   0  0  0  0  0  0  0  0  0  0  0  0
  152.1610  141.7791  161.7373 H   0  0  0  0  0  0  0  0  0  0  0  0
  153.3922  142.8621  162.3847 H   0  0  0  0  0  0  0  0  0  0  0  0
  151.2772  143.2204  160.2280 H   0  0  0  0  0  0  0  0  0  0  0  0
  150.4866  144.7480  158.4287 H   0  0  0  0  0  0  0  0  0  0  0  0
  152.1450  144.9601  157.8691 H   0  0  0  0  0  0  0  0  0  0  0  0
  151.6701  145.5427  159.4628 H   0  0  0  0  0  0  0  0  0  0  0  0
  152.2754  142.4331  157.4393 H   0  0  0  0  0  0  0  0  0  0  0  0
  150.6669  142.1371  158.0809 H   0  0  0  0  0  0  0  0  0  0  0  0
  152.7171  138.6015  155.2512 H   0  0  0  0  0  0  0  0  0  0  0  0
  1  2  1  0  0  0  0
  1 24  1  0  0  0  0
  1 25  1  0  0  0  0
  1 26  1  0  0  0  0
  2  3  1  0  0  0  0
  2 27  1  0  0  0  0
  2 28  1  0  0  0  0
  3  4  1  0  0  0  0
  3 29  1  0  0  0  0
  4  5  2  0  0  0  0
  4  6  1  0  0  0  0
  6  7  1  0  0  0  0
  6 30  1  0  0  0  0
  6 31  1  0  0  0  0
  7  8  1  0  0  0  0
  7 32  1  0  0  0  0
  8  9  2  0  0  0  0
  8 10  1  0  0  0  0
 10 23  1  0  0  0  0
 10 11  2  0  0  0  0
 11 12  1  0  0  0  0
 11 33  1  0  0  0  0
 12 13  2  0  0  0  0
 12 34  1  0  0  0  0
 13 14  1  0  0  0  0
 13 22  1  0  0  0  0
 14 21  1  0  0  0  0
 14 15  1  0  0  0  0
 15 16  1  0  0  0  0
 15 35  1  0  0  0  0
 15 36  1  0  0  0  0
 16 17  1  0  0  0  0
 16 18  1  0  0  0  0
 16 37  1  0  0  0  0
 17 38  1  0  0  0  0
 17 39  1  0  0  0  0
 17 40  1  0  0  0  0
 18 19  1  0  0  0  0
 19 20  1  0  0  0  0
 19 21  1  0  0  0  0
 19 41  1  0  0  0  0
 20 42  1  0  0  0  0
 20 43  1  0  0  0  0
 20 44  1  0  0  0  0
 21 45  1  0  0  0  0
 21 46  1  0  0  0  0
 22 23  2  0  0  0  0
 23 47  1  0  0  0  0
M  END
> <s_m_source_file>
AV-unprocessed.smi

> <i_m_source_file_index>
1257

> <i_lp_mmshare_version>
43012

> <i_f3d_flags>
0

> <s_epik_input>
W0NIM11bQ0gyXVtOSF1DKD1PKVtDSDJdW05IXUMoPU8pYzFbY0hdW2NIXWMobltjSF0xKU4yW0NIMl1bQ0BASF0oW0NIM10pT1tDQEBIXShbQ0gzXSlbQ0gyXTI=

> <s_epik_cmdline>
J2VwaWtfcHl0aG9uJywgJy1waCcsICc3LjAnLCAnLXRuJywgJzgnLCAnLW1hJywgJzIwMCcsICctbWV0YWxfYmluZGluZycsICctaW1hZScsICc8aW5maWxlLm1hZT4nLCAnLW9tYWUnLCAnPG91dGZpbGUubWFlPic=

> <r_lp_tautomer_probability>
1

> <r_epik_Ionization_Penalty>
1.15681e-05

> <r_epik_Ionization_Penalty_Charging>
0

> <r_epik_Ionization_Penalty_Neutral>
1.15681e-05

> <r_epik_State_Penalty>
-0

> <r_epik_Charging_Adjusted_Penalty>
0

> <i_epik_Tot_Q>
0

> <i_epik_Tot_abs_Q>
0

> <r_epik_Metal_State_Penalty>
-0

> <b_epik_Metal_Only>
0

> <s_lp_Force_Field>
OPLS_2005

> <r_lp_Energy>
18.6065

> <b_lp_Chiralities_Consistent>
1

> <s_lp_Variant>
AV-unprocessed.smi:1257-2

> <Gold.Version>
5.8.1

> <Gold.Id.Protein>
6NUR|6NUR_protein|mol2

> <Gold.PLP.Fitness>
46.3939

> <Gold.PLP.PLP>
-38.9252

> <Gold.PLP.part.hbond>
-2.8929

> <Gold.PLP.part.metal>
0.0000

> <Gold.PLP.part.buried>
-7.1955

> <Gold.PLP.part.nonpolar>
-30.2033

> <Gold.PLP.part.repulsive>
0.5478

> <Gold.PLP.ligand.clash>
0.0000

> <Gold.PLP.ligand.torsion>
0.6723

> <Gold.PLP.Chemscore.Hbond>
2.8960

> <Gold.PLP.Chemscore.CHOScore>
0.0000

> <Gold.PLP.Chemscore.Metal>
0.0000

> <Gold.Chemscore.Hbonds>
donor molecule, donor type, donor heavy atom, donor atom, acceptor molecule, acceptor atom, score
      P1  H  6896  6909       L1     5  0.90
      P1  H  7997  8009       L1    22  1.00
      P1  H 10752 10763       L1     9  1.00

> <Gold.PLP.Chemscore.Internal.Correction>
0.1252

> <Gold.Rescore>
     Score         DG    S(hbond)    S(metal)    S(lipo)     H(rot)  DE(clash)    DE(int)     intcor
     21.13     -22.06       2.89        0.00      96.64       1.71       0.08       0.85       ----

> <Gold.Chemscore.Fitness>
21.1311

> <Gold.Chemscore.DG>
-22.0566

> <Gold.Chemscore.ZeroCoef>
-5.4800

> <Gold.Chemscore.Hbond>
2.8858

> <Gold.Chemscore.Metal>
0.0000

> <Gold.Chemscore.Lipo>
96.6413

> <Gold.Chemscore.Internal_Hbond>
0.0000

> <Gold.Chemscore.DEClash>
0.0760

> <Gold.Chemscore.DEInternal>
0.8495

> <Gold.Chemscore.Rot>
1.7066

> <Gold.Chemscore.Internal.Correction>
   9.000000E+99

> <Gold.Chemscore.Hbonds>
donor molecule, donor type, donor heavy atom, donor atom, acceptor molecule, acceptor atom, score
      P1  H  6896  6909       L1     5  0.88
      P1  H  7997  8009       L1    22  0.29
      P1  H 10752 10763       L1     9  0.30

> <Gold.Chemscore.Hbond.Weighted>
-9.6386

> <Gold.Chemscore.Metal.Weighted>
-0.0000

> <Gold.Chemscore.Lipo.Weighted>
-11.3070

> <Gold.Chemscore.Internal_Hbond.Weighted>
0.0000

> <Gold.Chemscore.DEClash.Weighted>
0.0760

> <Gold.Chemscore.DEInternal.Weighted>
0.8495

> <Gold.Chemscore.Rot.Weighted>
4.3690

> <Gold.Chemscore.Internal.Correction.Weighted>
   9.000000E+99

> <Gold.Protein.RotatedTorsions>
[ 6907 6896 6895 6894 ] final  -50.09 input  -60.11 | X-H torsion
[ 7974 7965 7964 7962 ] final   87.90 input  175.53 | X-H torsion
[ 8008 7997 7996 7995 ] final -165.56 input   59.86 | X-H torsion
[ 10167 10162 10161 10158 ] final   57.90 input  -65.29 | X-H torsion
[ 10718 10713 10712 10709 ] final  -84.74 input   66.30 | X-H torsion
[ 10763 10752 10751 10750 ] final   47.58 input  -60.55 | X-H torsion
[ 11005 11000 10999 10996 ] final  162.64 input  -57.11 | X-H torsion

> <Gold.Protein.ActiveResidues>
 VAL166  LYS551  ARG553  GLY616  TRP617  ASP618  TYR619  PRO620  LYS621  CYS622 
 ASP623  PHE694  ASN695  SER759  ASP760  ASP761  ALA762  ILE779  LEU786  VAL792 
 PHE793  MET794  SER795  GLU796  ALA797  LYS798  CYS799  TRP800  GLU811  SER814 

> <Gold.Protein.RotatedAtoms>
  150.8741  134.8121  159.7176 H   0  0  0  0  0  0  0  0  0  0  0  0  # atno 6907 bound_to 6896
  152.4735  134.4899  159.9702 H   0  0  0  0  0  0  0  0  0  0  0  0  # atno 6908 bound_to 6896
  151.4983  133.3471  159.2900 H   0  0  0  0  0  0  0  0  0  0  0  0  # atno 6909 bound_to 6896
  145.5528  139.2297  143.2503 H   0  0  0  0  0  0  0  0  0  0  0  0  # atno 7974 bound_to 7965
  155.8515  140.0964  157.1672 H   0  0  0  0  0  0  0  0  0  0  0  0  # atno 8008 bound_to 7997
  154.3985  140.1382  156.3912 H   0  0  0  0  0  0  0  0  0  0  0  0  # atno 8009 bound_to 7997
  155.7956  140.3454  155.5376 H   0  0  0  0  0  0  0  0  0  0  0  0  # atno 8010 bound_to 7997
  140.1930  144.4066  150.6563 H   0  0  0  0  0  0  0  0  0  0  0  0  # atno 10167 bound_to 10162
  156.0003  130.4708  150.4455 H   0  0  0  0  0  0  0  0  0  0  0  0  # atno 10718 bound_to 10713
  152.9799  135.5972  154.3785 H   0  0  0  0  0  0  0  0  0  0  0  0  # atno 10763 bound_to 10752
  154.3452  135.2767  155.2403 H   0  0  0  0  0  0  0  0  0  0  0  0  # atno 10764 bound_to 10752
  154.4467  135.6000  153.6220 H   0  0  0  0  0  0  0  0  0  0  0  0  # atno 10765 bound_to 10752
  140.2277  134.8148  157.3285 H   0  0  0  0  0  0  0  0  0  0  0  0  # atno 11005 bound_to 11000
  146.1905  140.6351  142.9148 LP  0  0  0  0  0  0  0  0  0  0  0  0  # atno 17320 bound_to 7965
  144.7521  140.5217  143.6794 LP  0  0  0  0  0  0  0  0  0  0  0  0  # atno 17321 bound_to 7965
  140.6443  143.2210  151.6221 LP  0  0  0  0  0  0  0  0  0  0  0  0  # atno 17342 bound_to 10162
  139.5248  144.3093  152.1007 LP  0  0  0  0  0  0  0  0  0  0  0  0  # atno 17343 bound_to 10162
  157.2493  131.0543  151.2389 LP  0  0  0  0  0  0  0  0  0  0  0  0  # atno 17370 bound_to 10713
  157.3544  130.7099  149.6461 LP  0  0  0  0  0  0  0  0  0  0  0  0  # atno 17371 bound_to 10713
  140.1783  134.4522  155.7788 LP  0  0  0  0  0  0  0  0  0  0  0  0  # atno 17394 bound_to 11000
  141.2219  133.6972  156.7825 LP  0  0  0  0  0  0  0  0  0  0  0  0  # atno 17395 bound_to 11000

$$$$
