AV-unprocessed.smi:1433|AV-procd|sdf|5838|dock8
  -GOLD-   22720 5503D 1   1.00000     0.00000
 Structure written by MMmdl.
 44 45  0  0  0  0  0  0  0  0  1 V2000
  153.8197  139.4856  159.9727 C   0  0  0  0  0  0  0  0  0  0  0  0
  153.6103  140.9972  159.8356 C   0  0  1  0  0  0  0  0  0  0  0  0
  152.4638  141.3389  158.8654 C   0  0  0  0  0  0  0  0  0  0  0  0
  152.1982  142.7789  158.7766 N   0  0  0  0  0  0  0  0  0  0  0  0
  151.0749  143.0987  157.8646 C   0  0  1  0  0  0  0  0  0  0  0  0
  151.1197  142.2777  156.5507 C   0  0  0  0  0  0  0  0  0  0  0  0
  149.6746  142.9227  158.5237 C   0  0  0  0  0  0  0  0  0  0  0  0
  148.5656  142.9934  157.5761 N   0  0  0  0  0  0  0  0  0  0  0  0
  147.3867  142.3678  157.7180 C   0  0  0  0  0  0  0  0  0  0  0  0
  147.1086  141.6529  158.6808 O   0  0  0  0  0  0  0  0  0  0  0  0
  146.3620  142.5805  156.6035 C   0  0  0  0  0  0  0  0  0  0  0  0
  146.8510  142.0608  155.3393 N   0  0  0  0  0  0  0  0  0  0  0  0
  146.1281  141.7334  154.2109 C   0  0  0  0  0  0  0  0  0  0  0  0
  147.0158  141.2845  153.2753 C   0  0  0  0  0  0  0  0  0  0  0  0
  148.2741  141.3720  153.9342 C   0  0  0  0  0  0  0  0  0  0  0  0
  148.1727  141.8374  155.1691 N   0  0  0  0  0  0  0  0  0  0  0  0
  151.9745  143.2810  160.1371 C   0  0  0  0  0  0  0  0  0  0  0  0
  153.1218  142.9334  161.1049 C   0  0  1  0  0  0  0  0  0  0  0  0
  152.8301  143.3924  162.5376 C   0  0  0  0  0  0  0  0  0  0  0  0
  153.3075  141.5240  161.1208 O   0  0  0  0  0  0  0  0  0  0  0  0
  154.0693  139.0358  159.0115 H   0  0  0  0  0  0  0  0  0  0  0  0
  152.9220  138.9948  160.3493 H   0  0  0  0  0  0  0  0  0  0  0  0
  154.6340  139.2663  160.6636 H   0  0  0  0  0  0  0  0  0  0  0  0
  154.5380  141.4473  159.4777 H   0  0  0  0  0  0  0  0  0  0  0  0
  152.7486  140.9416  157.8934 H   0  0  0  0  0  0  0  0  0  0  0  0
  151.5566  140.8149  159.1706 H   0  0  0  0  0  0  0  0  0  0  0  0
  151.1666  144.1489  157.5831 H   0  0  0  0  0  0  0  0  0  0  0  0
  150.2675  142.4805  155.9035 H   0  0  0  0  0  0  0  0  0  0  0  0
  151.1277  141.2068  156.7555 H   0  0  0  0  0  0  0  0  0  0  0  0
  151.9939  142.5131  155.9456 H   0  0  0  0  0  0  0  0  0  0  0  0
  149.6233  141.9603  159.0341 H   0  0  0  0  0  0  0  0  0  0  0  0
  149.4812  143.6832  159.2793 H   0  0  0  0  0  0  0  0  0  0  0  0
  148.7076  143.5561  156.7497 H   0  0  0  0  0  0  0  0  0  0  0  0
  145.4341  142.0673  156.8584 H   0  0  0  0  0  0  0  0  0  0  0  0
  146.1217  143.6398  156.4949 H   0  0  0  0  0  0  0  0  0  0  0  0
  145.0545  141.8450  154.1699 H   0  0  0  0  0  0  0  0  0  0  0  0
  146.7993  140.9436  152.2738 H   0  0  0  0  0  0  0  0  0  0  0  0
  149.2512  141.1130  153.5543 H   0  0  0  0  0  0  0  0  0  0  0  0
  151.8793  144.3653  160.1329 H   0  0  0  0  0  0  0  0  0  0  0  0
  151.0366  142.8819  160.5265 H   0  0  0  0  0  0  0  0  0  0  0  0
  154.0432  143.4102  160.7659 H   0  0  0  0  0  0  0  0  0  0  0  0
  152.6887  144.4726  162.5840 H   0  0  0  0  0  0  0  0  0  0  0  0
  153.6547  143.1364  163.2032 H   0  0  0  0  0  0  0  0  0  0  0  0
  151.9285  142.9191  162.9274 H   0  0  0  0  0  0  0  0  0  0  0  0
  1  2  1  0  0  0  0
  1 21  1  0  0  0  0
  1 22  1  0  0  0  0
  1 23  1  0  0  0  0
  2 20  1  0  0  0  0
  2  3  1  0  0  0  0
  2 24  1  0  0  0  0
  3  4  1  0  0  0  0
  3 25  1  0  0  0  0
  3 26  1  0  0  0  0
  4  5  1  0  0  0  0
  4 17  1  0  0  0  0
  5  6  1  0  0  0  0
  5  7  1  0  0  0  0
  5 27  1  0  0  0  0
  6 28  1  0  0  0  0
  6 29  1  0  0  0  0
  6 30  1  0  0  0  0
  7  8  1  0  0  0  0
  7 31  1  0  0  0  0
  7 32  1  0  0  0  0
  8  9  1  0  0  0  0
  8 33  1  0  0  0  0
  9 10  2  0  0  0  0
  9 11  1  0  0  0  0
 11 12  1  0  0  0  0
 11 34  1  0  0  0  0
 11 35  1  0  0  0  0
 12 16  1  0  0  0  0
 12 13  1  0  0  0  0
 13 14  2  0  0  0  0
 13 36  1  0  0  0  0
 14 15  1  0  0  0  0
 14 37  1  0  0  0  0
 15 16  2  0  0  0  0
 15 38  1  0  0  0  0
 17 18  1  0  0  0  0
 17 39  1  0  0  0  0
 17 40  1  0  0  0  0
 18 19  1  0  0  0  0
 18 20  1  0  0  0  0
 18 41  1  0  0  0  0
 19 42  1  0  0  0  0
 19 43  1  0  0  0  0
 19 44  1  0  0  0  0
M  END
> <s_m_source_file>
AV-unprocessed.smi

> <i_m_source_file_index>
1433

> <i_lp_mmshare_version>
43012

> <i_f3d_flags>
0

> <s_epik_input>
W0NIM11bQ0BASF0xW0NIMl1OKFtDSDJdW0NASF0oTzEpW0NIM10pW0NASF0oW0NIM10pW0NIMl1bTkhdQyg9TylbQ0gyXW4yW2NIXVtjSF1bY0hdbjI=

> <s_epik_cmdline>
J2VwaWtfcHl0aG9uJywgJy1waCcsICc3LjAnLCAnLXRuJywgJzgnLCAnLW1hJywgJzIwMCcsICctbWV0YWxfYmluZGluZycsICctaW1hZScsICc8aW5maWxlLm1hZT4nLCAnLW9tYWUnLCAnPG91dGZpbGUubWFlPic=

> <r_lp_tautomer_probability>
1

> <r_epik_Ionization_Penalty>
0.196927

> <r_epik_Ionization_Penalty_Charging>
0

> <r_epik_Ionization_Penalty_Neutral>
0.196927

> <r_epik_State_Penalty>
0.186684

> <r_epik_Charging_Adjusted_Penalty>
0.186684

> <i_epik_Tot_Q>
0

> <i_epik_Tot_abs_Q>
0

> <r_epik_Metal_State_Penalty>
0.186682

> <b_epik_Metal_Only>
0

> <s_lp_Force_Field>
OPLS_2005

> <r_lp_Energy>
27.7845

> <b_lp_Chiralities_Consistent>
1

> <s_lp_Variant>
AV-unprocessed.smi:1433-4

> <Gold.Version>
5.8.1

> <Gold.Id.Protein>
6NUR|6NUR_protein|mol2

> <Gold.PLP.Fitness>
44.1992

> <Gold.PLP.PLP>
-37.0047

> <Gold.PLP.part.hbond>
-2.5780

> <Gold.PLP.part.metal>
0.0000

> <Gold.PLP.part.buried>
-4.3507

> <Gold.PLP.part.nonpolar>
-29.4164

> <Gold.PLP.part.repulsive>
0.2073

> <Gold.PLP.ligand.clash>
0.0000

> <Gold.PLP.ligand.torsion>
0.8720

> <Gold.PLP.Chemscore.Hbond>
1.2496

> <Gold.PLP.Chemscore.CHOScore>
1.7079

> <Gold.PLP.Chemscore.Metal>
0.0000

> <Gold.Chemscore.Hbonds>
donor molecule, donor type, donor heavy atom, donor atom, acceptor molecule, acceptor atom, score
      L1  H     8    33       P1  8028  1.00
      P1  H  6934  6946       L1    10  0.31
      L1  C    13    36       P1 10175  0.65
      L1  C    15    38       P1  7957  0.61

> <Gold.PLP.Chemscore.Internal.Correction>
0.0660

> <Gold.Rescore>
     Score         DG    S(hbond)    S(metal)    S(lipo)     H(rot)  DE(clash)    DE(int)     intcor
     15.15     -17.34       1.26        0.00     104.80       1.80       0.27       1.92       ----

> <Gold.Chemscore.Fitness>
15.1506

> <Gold.Chemscore.DG>
-17.3442

> <Gold.Chemscore.ZeroCoef>
-5.4800

> <Gold.Chemscore.Hbond>
1.2636

> <Gold.Chemscore.Metal>
0.0000

> <Gold.Chemscore.Lipo>
104.7993

> <Gold.Chemscore.Internal_Hbond>
0.0000

> <Gold.Chemscore.DEClash>
0.2692

> <Gold.Chemscore.DEInternal>
1.9243

> <Gold.Chemscore.Rot>
1.8038

> <Gold.Chemscore.Internal.Correction>
   9.000000E+99

> <Gold.Chemscore.Hbonds>
donor molecule, donor type, donor heavy atom, donor atom, acceptor molecule, acceptor atom, score
      L1  H     8    33       P1  8028  0.49
      P1  H  6934  6946       L1    10  0.31

> <Gold.Chemscore.Hbond.Weighted>
-4.2204

> <Gold.Chemscore.Metal.Weighted>
-0.0000

> <Gold.Chemscore.Lipo.Weighted>
-12.2615

> <Gold.Chemscore.Internal_Hbond.Weighted>
0.0000

> <Gold.Chemscore.DEClash.Weighted>
0.2692

> <Gold.Chemscore.DEInternal.Weighted>
1.9243

> <Gold.Chemscore.Rot.Weighted>
4.6178

> <Gold.Chemscore.Internal.Correction.Weighted>
   9.000000E+99

> <Gold.Protein.RotatedTorsions>
[ 6907 6896 6895 6894 ] final   74.31 input  -60.11 | X-H torsion
[ 7974 7965 7964 7962 ] final  176.56 input  175.53 | X-H torsion
[ 8008 7997 7996 7995 ] final  -28.23 input   59.86 | X-H torsion
[ 10167 10162 10161 10158 ] final -114.98 input  -65.29 | X-H torsion
[ 10718 10713 10712 10709 ] final   86.07 input   66.30 | X-H torsion
[ 10763 10752 10751 10750 ] final    1.27 input  -60.55 | X-H torsion
[ 11005 11000 10999 10996 ] final   33.55 input  -57.11 | X-H torsion

> <Gold.Protein.ActiveResidues>
 VAL166  LYS551  ARG553  GLY616  TRP617  ASP618  TYR619  PRO620  LYS621  CYS622 
 ASP623  PHE694  ASN695  SER759  ASP760  ASP761  ALA762  ILE779  LEU786  VAL792 
 PHE793  MET794  SER795  GLU796  ALA797  LYS798  CYS799  TRP800  GLU811  SER814 

> <Gold.Protein.RotatedAtoms>
  152.4969  134.4290  159.9505 H   0  0  0  0  0  0  0  0  0  0  0  0  # atno 6907 bound_to 6896
  151.4268  133.3676  159.2771 H   0  0  0  0  0  0  0  0  0  0  0  0  # atno 6908 bound_to 6896
  150.9183  134.8624  159.7532 H   0  0  0  0  0  0  0  0  0  0  0  0  # atno 6909 bound_to 6896
  144.7182  140.0115  143.6440 H   0  0  0  0  0  0  0  0  0  0  0  0  # atno 7974 bound_to 7965
  154.4341  140.1851  156.1056 H   0  0  0  0  0  0  0  0  0  0  0  0  # atno 8008 bound_to 7997
  156.0258  140.3336  155.7061 H   0  0  0  0  0  0  0  0  0  0  0  0  # atno 8009 bound_to 7997
  155.5911  140.0631  157.2749 H   0  0  0  0  0  0  0  0  0  0  0  0  # atno 8010 bound_to 7997
  140.0950  143.4665  152.1847 H   0  0  0  0  0  0  0  0  0  0  0  0  # atno 10167 bound_to 10162
  157.6924  131.0200  150.2917 H   0  0  0  0  0  0  0  0  0  0  0  0  # atno 10718 bound_to 10713
  153.3101  135.6962  153.7124 H   0  0  0  0  0  0  0  0  0  0  0  0  # atno 10763 bound_to 10752
  153.6004  135.3463  155.2944 H   0  0  0  0  0  0  0  0  0  0  0  0  # atno 10764 bound_to 10752
  154.8573  135.4339  154.2236 H   0  0  0  0  0  0  0  0  0  0  0  0  # atno 10765 bound_to 10752
  140.2619  134.3182  155.7855 H   0  0  0  0  0  0  0  0  0  0  0  0  # atno 11005 bound_to 11000
  146.0254  139.3288  143.0787 LP  0  0  0  0  0  0  0  0  0  0  0  0  # atno 17320 bound_to 7965
  145.8517  140.9525  143.0746 LP  0  0  0  0  0  0  0  0  0  0  0  0  # atno 17321 bound_to 7965
  139.5703  144.7459  151.3909 LP  0  0  0  0  0  0  0  0  0  0  0  0  # atno 17342 bound_to 10162
  140.7008  143.7636  150.7400 LP  0  0  0  0  0  0  0  0  0  0  0  0  # atno 17343 bound_to 10162
  156.3447  130.3821  149.7379 LP  0  0  0  0  0  0  0  0  0  0  0  0  # atno 17370 bound_to 10713
  156.4876  130.8070  151.3081 LP  0  0  0  0  0  0  0  0  0  0  0  0  # atno 17371 bound_to 10713
  141.2189  133.7415  156.9200 LP  0  0  0  0  0  0  0  0  0  0  0  0  # atno 17394 bound_to 11000
  140.1456  134.9264  157.2525 LP  0  0  0  0  0  0  0  0  0  0  0  0  # atno 17395 bound_to 11000

$$$$
