AV-unprocessed.smi:999|AV-procd|sdf|4351|dock4
  -GOLD-   22720 2253D 1   1.00000     0.00000
 Structure written by MMmdl.
 37 38  0  0  0  0  0  0  0  0  2 V2000
  147.0355  131.9696  152.2533 C   0  0  0  0  0  0  0  0  0  0  0  0
  147.0581  133.4988  152.4556 C   0  0  2  0  0  0  0  0  0  0  0  0
  146.9426  133.9081  153.9330 C   0  0  0  0  0  0  0  0  0  0  0  0
  146.2326  133.2692  154.7106 O   0  0  0  0  0  0  0  0  0  0  0  0
  147.6562  134.9827  154.3050 N   0  0  0  0  0  0  0  0  0  0  0  0
  147.6848  135.5603  155.6447 C   0  0  2  0  0  0  0  0  0  0  0  0
  148.6156  136.7854  155.6537 C   0  0  0  0  0  0  0  0  0  0  0  0
  148.7208  137.4043  157.0566 C   0  0  0  0  0  0  0  0  0  0  0  0
  149.1851  136.3646  158.1046 C   0  0  1  0  0  0  0  0  0  0  0  0
  149.2739  136.9676  159.5222 C   0  0  0  0  0  0  0  0  0  0  0  0
  148.2310  137.4292  160.0372 O   0  0  0  0  0  0  0  0  0  0  0  0
  150.3992  136.9828  160.0686 O   0  5  0  0  0  0  0  0  0  0  0  0
  148.2594  135.1261  158.0860 C   0  0  0  0  0  0  0  0  0  0  0  0
  148.1529  134.5175  156.6785 C   0  0  0  0  0  0  0  0  0  0  0  0
  146.0406  134.1767  151.6601 N   0  0  0  0  0  0  0  0  0  0  0  0
  145.8377  135.5352  151.5235 C   0  0  0  0  0  0  0  0  0  0  0  0
  144.7510  135.7101  150.7157 C   0  0  0  0  0  0  0  0  0  0  0  0
  144.3395  134.3831  150.4118 C   0  0  0  0  0  0  0  0  0  0  0  0
  145.1054  133.4690  150.9840 N   0  0  0  0  0  0  0  0  0  0  0  0
  147.8428  131.4885  152.8065 H   0  0  0  0  0  0  0  0  0  0  0  0
  147.1657  131.7160  151.2011 H   0  0  0  0  0  0  0  0  0  0  0  0
  146.0972  131.5243  152.5865 H   0  0  0  0  0  0  0  0  0  0  0  0
  148.0278  133.8521  152.1009 H   0  0  0  0  0  0  0  0  0  0  0  0
  148.2141  135.4451  153.6021 H   0  0  0  0  0  0  0  0  0  0  0  0
  146.6798  135.8951  155.9095 H   0  0  0  0  0  0  0  0  0  0  0  0
  149.6108  136.4974  155.3118 H   0  0  0  0  0  0  0  0  0  0  0  0
  148.2523  137.5357  154.9503 H   0  0  0  0  0  0  0  0  0  0  0  0
  149.4145  138.2456  157.0207 H   0  0  0  0  0  0  0  0  0  0  0  0
  147.7501  137.8134  157.3418 H   0  0  0  0  0  0  0  0  0  0  0  0
  150.1935  136.0423  157.8411 H   0  0  0  0  0  0  0  0  0  0  0  0
  148.6249  134.3614  158.7727 H   0  0  0  0  0  0  0  0  0  0  0  0
  147.2634  135.4036  158.4347 H   0  0  0  0  0  0  0  0  0  0  0  0
  147.4639  133.6725  156.7010 H   0  0  0  0  0  0  0  0  0  0  0  0
  149.1240  134.1160  156.3850 H   0  0  0  0  0  0  0  0  0  0  0  0
  146.4779  136.2577  152.0079 H   0  0  0  0  0  0  0  0  0  0  0  0
  144.3136  136.6438  150.3946 H   0  0  0  0  0  0  0  0  0  0  0  0
  143.5108  134.0588  149.7999 H   0  0  0  0  0  0  0  0  0  0  0  0
  1  2  1  0  0  0  0
  1 20  1  0  0  0  0
  1 21  1  0  0  0  0
  1 22  1  0  0  0  0
  2  3  1  0  0  0  0
  2 15  1  0  0  0  0
  2 23  1  0  0  0  0
  3  4  2  0  0  0  0
  3  5  1  0  0  0  0
  5  6  1  0  0  0  0
  5 24  1  0  0  0  0
  6 14  1  0  0  0  0
  6  7  1  0  0  0  0
  6 25  1  0  0  0  0
  7  8  1  0  0  0  0
  7 26  1  0  0  0  0
  7 27  1  0  0  0  0
  8  9  1  0  0  0  0
  8 28  1  0  0  0  0
  8 29  1  0  0  0  0
  9 10  1  0  0  0  0
  9 13  1  0  0  0  0
  9 30  1  0  0  0  0
 10 11  2  0  0  0  0
 10 12  1  0  0  0  0
 13 14  1  0  0  0  0
 13 31  1  0  0  0  0
 13 32  1  0  0  0  0
 14 33  1  0  0  0  0
 14 34  1  0  0  0  0
 15 19  1  0  0  0  0
 15 16  1  0  0  0  0
 16 17  2  0  0  0  0
 16 35  1  0  0  0  0
 17 18  1  0  0  0  0
 17 36  1  0  0  0  0
 18 19  2  0  0  0  0
 18 37  1  0  0  0  0
M  CHG  1  12  -1
M  END
> <s_m_source_file>
AV-unprocessed.smi

> <i_m_source_file_index>
999

> <i_lp_mmshare_version>
43012

> <i_f3d_flags>
0

> <s_epik_input>
bjFbY0hdW2NIXVtjSF1uMVtDQEhdKFtDSDNdKUMoPU8pW05IXVtDQEBIXTJbQ0gyXVtDSDJdW0NAQEhdKEMoPU8pW09IXSlbQ0gyXVtDSDJdMg==

> <s_epik_cmdline>
J2VwaWtfcHl0aG9uJywgJy1waCcsICc3LjAnLCAnLXRuJywgJzgnLCAnLW1hJywgJzIwMCcsICctbWV0YWxfYmluZGluZycsICctaW1hZScsICc8aW5maWxlLm1hZT4nLCAnLW9tYWUnLCAnPG91dGZpbGUubWFlPic=

> <r_lp_tautomer_probability>
1

> <r_epik_Ionization_Penalty>
0.00221712

> <r_epik_Ionization_Penalty_Charging>
0.00217268

> <r_epik_Ionization_Penalty_Neutral>
4.44343e-05

> <r_epik_State_Penalty>
0.0014925

> <r_epik_Charging_Adjusted_Penalty>
0.00366518

> <i_epik_Tot_Q>
-1

> <i_epik_Tot_abs_Q>
1

> <r_epik_Metal_State_Penalty>
-0

> <b_epik_Metal_Only>
0

> <s_lp_Force_Field>
OPLS_2005

> <r_lp_Energy>
14.6475

> <b_lp_Chiralities_Consistent>
1

> <s_lp_Variant>
AV-unprocessed.smi:999-1

> <Gold.Version>
5.8.1

> <Gold.Id.Protein>
6NUR|6NUR_protein|mol2

> <Gold.PLP.Fitness>
37.0332

> <Gold.PLP.PLP>
-19.1857

> <Gold.PLP.part.hbond>
-4.8331

> <Gold.PLP.part.metal>
0.0000

> <Gold.PLP.part.buried>
0.8906

> <Gold.PLP.part.nonpolar>
-16.6566

> <Gold.PLP.part.repulsive>
0.1889

> <Gold.PLP.ligand.clash>
0.0000

> <Gold.PLP.ligand.torsion>
0.7687

> <Gold.PLP.Chemscore.Hbond>
4.5652

> <Gold.PLP.Chemscore.CHOScore>
1.8544

> <Gold.PLP.Chemscore.Metal>
0.0000

> <Gold.Chemscore.Hbonds>
donor molecule, donor type, donor heavy atom, donor atom, acceptor molecule, acceptor atom, score
      L1  H     5    24       P1  7948  0.99
      P1  H  6896  6908       L1    12  1.98
      P1  H  6931  6943       L1    11  0.65
      P1  H  6934  6947       L1    11  0.95
      L1  C    16    35       P1  7948  0.86
      L1  C    18    37       P1 10186  0.98

> <Gold.PLP.Chemscore.Internal.Correction>
0.1263

> <Gold.Rescore>
     Score         DG    S(hbond)    S(metal)    S(lipo)     H(rot)  DE(clash)    DE(int)     intcor
     11.51     -13.34       2.44        0.00      40.72       1.98       0.12       1.71       ----

> <Gold.Chemscore.Fitness>
11.5086

> <Gold.Chemscore.DG>
-13.3370

> <Gold.Chemscore.ZeroCoef>
-5.4800

> <Gold.Chemscore.Hbond>
2.4417

> <Gold.Chemscore.Metal>
0.0000

> <Gold.Chemscore.Lipo>
40.7162

> <Gold.Chemscore.Internal_Hbond>
0.0000

> <Gold.Chemscore.DEClash>
0.1171

> <Gold.Chemscore.DEInternal>
1.7114

> <Gold.Chemscore.Rot>
1.9774

> <Gold.Chemscore.Internal.Correction>
   9.000000E+99

> <Gold.Chemscore.Hbonds>
donor molecule, donor type, donor heavy atom, donor atom, acceptor molecule, acceptor atom, score
      L1  H     5    24       P1  7948  0.92
      P1  H  6896  6908       L1    12  0.56
      P1  H  6931  6943       L1    11  0.08
      P1  H  6934  6947       L1    11  0.47

> <Gold.Chemscore.Hbond.Weighted>
-8.1552

> <Gold.Chemscore.Metal.Weighted>
-0.0000

> <Gold.Chemscore.Lipo.Weighted>
-4.7638

> <Gold.Chemscore.Internal_Hbond.Weighted>
0.0000

> <Gold.Chemscore.DEClash.Weighted>
0.1171

> <Gold.Chemscore.DEInternal.Weighted>
1.7114

> <Gold.Chemscore.Rot.Weighted>
5.0620

> <Gold.Chemscore.Internal.Correction.Weighted>
   9.000000E+99

> <Gold.Protein.RotatedTorsions>
[ 6907 6896 6895 6894 ] final -144.90 input  -60.11 | X-H torsion
[ 7974 7965 7964 7962 ] final  128.34 input  175.53 | X-H torsion
[ 8008 7997 7996 7995 ] final  170.18 input   59.86 | X-H torsion
[ 10167 10162 10161 10158 ] final   25.87 input  -65.29 | X-H torsion
[ 10718 10713 10712 10709 ] final  143.71 input   66.30 | X-H torsion
[ 10763 10752 10751 10750 ] final   -3.57 input  -60.55 | X-H torsion
[ 11005 11000 10999 10996 ] final  -30.94 input  -57.11 | X-H torsion

> <Gold.Protein.ActiveResidues>
 VAL166  LYS551  ARG553  GLY616  TRP617  ASP618  TYR619  PRO620  LYS621  CYS622 
 ASP623  PHE694  ASN695  SER759  ASP760  ASP761  ALA762  ILE779  LEU786  VAL792 
 PHE793  MET794  SER795  GLU796  ALA797  LYS798  CYS799  TRP800  GLU811  SER814 

> <Gold.Protein.RotatedAtoms>
  151.1204  133.5108  159.2602 H   0  0  0  0  0  0  0  0  0  0  0  0  # atno 6907 bound_to 6896
  151.1868  135.0385  159.8826 H   0  0  0  0  0  0  0  0  0  0  0  0  # atno 6908 bound_to 6896
  152.5455  134.1049  159.8387 H   0  0  0  0  0  0  0  0  0  0  0  0  # atno 6909 bound_to 6896
  145.0406  139.3966  143.5104 H   0  0  0  0  0  0  0  0  0  0  0  0  # atno 7974 bound_to 7965
  156.1389  140.1544  156.8951 H   0  0  0  0  0  0  0  0  0  0  0  0  # atno 8008 bound_to 7997
  154.4971  140.0835  156.7757 H   0  0  0  0  0  0  0  0  0  0  0  0  # atno 8009 bound_to 7997
  155.4116  140.3419  155.4266 H   0  0  0  0  0  0  0  0  0  0  0  0  # atno 8010 bound_to 7997
  140.5070  144.0222  150.6356 H   0  0  0  0  0  0  0  0  0  0  0  0  # atno 10167 bound_to 10162
  157.3657  131.0971  151.0874 H   0  0  0  0  0  0  0  0  0  0  0  0  # atno 10718 bound_to 10713
  153.3731  135.6995  153.6622 H   0  0  0  0  0  0  0  0  0  0  0  0  # atno 10763 bound_to 10752
  153.5264  135.3601  155.2656 H   0  0  0  0  0  0  0  0  0  0  0  0  # atno 10764 bound_to 10752
  154.8684  135.4170  154.3013 H   0  0  0  0  0  0  0  0  0  0  0  0  # atno 10765 bound_to 10752
  140.9426  133.7269  156.1099 H   0  0  0  0  0  0  0  0  0  0  0  0  # atno 11005 bound_to 11000
  146.3509  140.0005  142.8676 LP  0  0  0  0  0  0  0  0  0  0  0  0  # atno 17320 bound_to 7965
  145.1653  140.9693  143.4353 LP  0  0  0  0  0  0  0  0  0  0  0  0  # atno 17321 bound_to 7965
  140.3534  143.2950  152.0462 LP  0  0  0  0  0  0  0  0  0  0  0  0  # atno 17342 bound_to 10162
  139.4886  144.6357  151.6980 LP  0  0  0  0  0  0  0  0  0  0  0  0  # atno 17343 bound_to 10162
  157.1997  130.6389  149.5734 LP  0  0  0  0  0  0  0  0  0  0  0  0  # atno 17370 bound_to 10713
  155.9746  130.4695  150.6397 LP  0  0  0  0  0  0  0  0  0  0  0  0  # atno 17371 bound_to 10713
  140.7713  134.3829  157.5507 LP  0  0  0  0  0  0  0  0  0  0  0  0  # atno 17394 bound_to 11000
  139.8824  134.9024  156.2831 LP  0  0  0  0  0  0  0  0  0  0  0  0  # atno 17395 bound_to 11000

$$$$
