AV-unprocessed.smi:2405|AV-procd|sdf|9513|dock8
  -GOLD-   2272013143D 1   1.00000     0.00000
 Structure written by MMmdl.
 36 37  0  0  0  0  0  0  0  0  2 V2000
  153.4771  142.3395  161.6195 C   0  0  0  0  0  0  0  0  0  0  0  0
  153.7711  141.7917  160.2189 C   0  0  0  0  0  0  0  0  0  0  0  0
  152.8523  142.3457  159.1819 C   0  0  0  0  0  0  0  0  0  0  0  0
  151.9670  141.6047  158.5106 N   0  0  0  0  0  0  0  0  0  0  0  0
  151.2392  142.3481  157.5753 C   0  0  0  0  0  0  0  0  0  0  0  0
  150.1870  141.6799  156.7395 C   0  0  0  0  0  0  0  0  0  0  0  0
  150.7965  140.5116  155.9646 C   0  0  0  0  0  0  0  0  0  0  0  0
  150.5628  140.3800  154.7628 O   0  0  0  0  0  0  0  0  0  0  0  0
  151.5759  139.6730  156.6638 N   0  0  0  0  0  0  0  0  0  0  0  0
  152.2547  138.5006  156.1196 C   0  0  1  0  0  0  0  0  0  0  0  0
  153.1336  137.8059  157.1816 C   0  0  0  0  0  0  0  0  0  0  0  0
  152.6660  136.3463  157.2340 C   0  0  0  0  0  0  0  0  0  0  0  0
  151.2033  136.3686  156.7592 C   0  0  1  0  0  0  0  0  0  0  0  0
  150.1955  136.7273  157.8730 C   0  0  0  0  0  0  0  0  0  0  0  0
  149.5156  137.7628  157.7005 O   0  0  0  0  0  0  0  0  0  0  0  0
  150.1043  135.9758  158.8693 O   0  5  0  0  0  0  0  0  0  0  0  0
  151.2248  137.4491  155.6652 C   0  0  0  0  0  0  0  0  0  0  0  0
  151.6072  143.6705  157.5335 C   0  0  0  0  0  0  0  0  0  0  0  0
  152.8745  144.0301  158.6732 S   0  0  0  0  0  0  0  0  0  0  0  0
  154.1598  141.9129  162.3545 H   0  0  0  0  0  0  0  0  0  0  0  0
  152.4598  142.0996  161.9303 H   0  0  0  0  0  0  0  0  0  0  0  0
  153.5901  143.4236  161.6488 H   0  0  0  0  0  0  0  0  0  0  0  0
  154.7996  142.0208  159.9377 H   0  0  0  0  0  0  0  0  0  0  0  0
  153.6819  140.7050  160.2189 H   0  0  0  0  0  0  0  0  0  0  0  0
  149.3776  141.3069  157.3684 H   0  0  0  0  0  0  0  0  0  0  0  0
  149.7328  142.3863  156.0426 H   0  0  0  0  0  0  0  0  0  0  0  0
  151.7192  139.8640  157.6454 H   0  0  0  0  0  0  0  0  0  0  0  0
  152.8578  138.8011  155.2609 H   0  0  0  0  0  0  0  0  0  0  0  0
  154.1947  137.8780  156.9416 H   0  0  0  0  0  0  0  0  0  0  0  0
  152.9966  138.2644  158.1621 H   0  0  0  0  0  0  0  0  0  0  0  0
  153.2553  135.7542  156.5329 H   0  0  0  0  0  0  0  0  0  0  0  0
  152.8101  135.8968  158.2172 H   0  0  0  0  0  0  0  0  0  0  0  0
  150.9133  135.4008  156.3489 H   0  0  0  0  0  0  0  0  0  0  0  0
  150.2452  137.8807  155.4522 H   0  0  0  0  0  0  0  0  0  0  0  0
  151.5650  136.9952  154.7335 H   0  0  0  0  0  0  0  0  0  0  0  0
  151.2084  144.4518  156.9035 H   0  0  0  0  0  0  0  0  0  0  0  0
  1  2  1  0  0  0  0
  1 20  1  0  0  0  0
  1 21  1  0  0  0  0
  1 22  1  0  0  0  0
  2  3  1  0  0  0  0
  2 23  1  0  0  0  0
  2 24  1  0  0  0  0
  3 19  1  0  0  0  0
  3  4  2  0  0  0  0
  4  5  1  0  0  0  0
  5  6  1  0  0  0  0
  5 18  2  0  0  0  0
  6  7  1  0  0  0  0
  6 25  1  0  0  0  0
  6 26  1  0  0  0  0
  7  8  2  0  0  0  0
  7  9  1  0  0  0  0
  9 10  1  0  0  0  0
  9 27  1  0  0  0  0
 10 17  1  0  0  0  0
 10 11  1  0  0  0  0
 10 28  1  0  0  0  0
 11 12  1  0  0  0  0
 11 29  1  0  0  0  0
 11 30  1  0  0  0  0
 12 13  1  0  0  0  0
 12 31  1  0  0  0  0
 12 32  1  0  0  0  0
 13 14  1  0  0  0  0
 13 17  1  0  0  0  0
 13 33  1  0  0  0  0
 14 15  2  0  0  0  0
 14 16  1  0  0  0  0
 17 34  1  0  0  0  0
 17 35  1  0  0  0  0
 18 19  1  0  0  0  0
 18 36  1  0  0  0  0
M  CHG  1  16  -1
M  END
> <s_m_source_file>
AV-unprocessed.smi

> <i_m_source_file_index>
2405

> <i_lp_mmshare_version>
43012

> <i_f3d_flags>
0

> <s_epik_input>
W0NIM11bQ0gyXWMxbmMoW2NIXXMxKVtDSDJdQyg9TylbTkhdW0NAQEhdMltDSDJdW0NIMl1bQ0BIXShbQ0gyXTIpQyg9TylbT0hd

> <s_epik_cmdline>
J2VwaWtfcHl0aG9uJywgJy1waCcsICc3LjAnLCAnLXRuJywgJzgnLCAnLW1hJywgJzIwMCcsICctbWV0YWxfYmluZGluZycsICctaW1hZScsICc8aW5maWxlLm1hZT4nLCAnLW9tYWUnLCAnPG91dGZpbGUubWFlPic=

> <r_epik_Ionization_Penalty>
0.000544611

> <r_epik_Ionization_Penalty_Charging>
0.000481685

> <r_epik_Ionization_Penalty_Neutral>
6.29266e-05

> <r_epik_State_Penalty>
0.00029893

> <r_epik_Charging_Adjusted_Penalty>
0.000780614

> <i_epik_Tot_Q>
-1

> <i_epik_Tot_abs_Q>
1

> <r_epik_Metal_State_Penalty>
-0

> <b_epik_Metal_Only>
0

> <s_lp_Force_Field>
OPLS_2005

> <r_lp_Energy>
7.49368

> <b_lp_Chiralities_Consistent>
1

> <s_lp_Variant>
AV-unprocessed.smi:2405-2

> <Gold.Version>
5.8.1

> <Gold.Id.Protein>
6NUR|6NUR_protein|mol2

> <Gold.PLP.Fitness>
47.9319

> <Gold.PLP.PLP>
-36.4543

> <Gold.PLP.part.hbond>
-1.8640

> <Gold.PLP.part.metal>
0.0000

> <Gold.PLP.part.buried>
-4.6558

> <Gold.PLP.part.nonpolar>
-30.5298

> <Gold.PLP.part.repulsive>
0.1999

> <Gold.PLP.ligand.clash>
0.0000

> <Gold.PLP.ligand.torsion>
0.2396

> <Gold.PLP.Chemscore.Hbond>
3.0000

> <Gold.PLP.Chemscore.CHOScore>
0.9700

> <Gold.PLP.Chemscore.Metal>
0.0000

> <Gold.Chemscore.Hbonds>
donor molecule, donor type, donor heavy atom, donor atom, acceptor molecule, acceptor atom, score
      P1  H  6896  6908       L1    16  2.00
      P1  H  7989  7998       L1     8  1.00
      L1  C    18    36       P1  8028  0.79

> <Gold.PLP.Chemscore.Internal.Correction>
0.0467

> <Gold.Rescore>
     Score         DG    S(hbond)    S(metal)    S(lipo)     H(rot)  DE(clash)    DE(int)     intcor
     18.06     -18.48       1.95        0.00     100.61       2.06       0.02       0.40       ----

> <Gold.Chemscore.Fitness>
18.0627

> <Gold.Chemscore.DG>
-18.4834

> <Gold.Chemscore.ZeroCoef>
-5.4800

> <Gold.Chemscore.Hbond>
1.9506

> <Gold.Chemscore.Metal>
0.0000

> <Gold.Chemscore.Lipo>
100.6052

> <Gold.Chemscore.Internal_Hbond>
0.0000

> <Gold.Chemscore.DEClash>
0.0179

> <Gold.Chemscore.DEInternal>
0.4028

> <Gold.Chemscore.Rot>
2.0635

> <Gold.Chemscore.Internal.Correction>
   9.000000E+99

> <Gold.Chemscore.Hbonds>
donor molecule, donor type, donor heavy atom, donor atom, acceptor molecule, acceptor atom, score
      P1  H  6896  6908       L1    16  0.96
      P1  H  7989  7998       L1     8  0.98

> <Gold.Chemscore.Hbond.Weighted>
-6.5151

> <Gold.Chemscore.Metal.Weighted>
-0.0000

> <Gold.Chemscore.Lipo.Weighted>
-11.7708

> <Gold.Chemscore.Internal_Hbond.Weighted>
0.0000

> <Gold.Chemscore.DEClash.Weighted>
0.0179

> <Gold.Chemscore.DEInternal.Weighted>
0.4028

> <Gold.Chemscore.Rot.Weighted>
5.2825

> <Gold.Chemscore.Internal.Correction.Weighted>
   9.000000E+99

> <Gold.Protein.RotatedTorsions>
[ 6907 6896 6895 6894 ] final -168.15 input  -60.11 | X-H torsion
[ 7974 7965 7964 7962 ] final -143.02 input  175.53 | X-H torsion
[ 8008 7997 7996 7995 ] final -149.45 input   59.86 | X-H torsion
[ 10167 10162 10161 10158 ] final   78.85 input  -65.29 | X-H torsion
[ 10718 10713 10712 10709 ] final  -15.39 input   66.30 | X-H torsion
[ 10763 10752 10751 10750 ] final  115.82 input  -60.55 | X-H torsion
[ 11005 11000 10999 10996 ] final -136.15 input  -57.11 | X-H torsion

> <Gold.Protein.ActiveResidues>
 VAL166  LYS551  ARG553  GLY616  TRP617  ASP618  TYR619  PRO620  LYS621  CYS622 
 ASP623  PHE694  ASN695  SER759  ASP760  ASP761  ALA762  ILE779  LEU786  VAL792 
 PHE793  MET794  SER795  GLU796  ALA797  LYS798  CYS799  TRP800  GLU811  SER814 

> <Gold.Protein.RotatedAtoms>
  151.4710  133.3569  159.2823 H   0  0  0  0  0  0  0  0  0  0  0  0  # atno 6907 bound_to 6896
  150.8961  134.8371  159.7338 H   0  0  0  0  0  0  0  0  0  0  0  0  # atno 6908 bound_to 6896
  152.4852  134.4625  159.9661 H   0  0  0  0  0  0  0  0  0  0  0  0  # atno 6909 bound_to 6896
  144.8400  140.5886  143.5458 H   0  0  0  0  0  0  0  0  0  0  0  0  # atno 7974 bound_to 7965
  155.6078  140.0668  157.2715 H   0  0  0  0  0  0  0  0  0  0  0  0  # atno 8008 bound_to 7997
  154.4261  140.1807  156.1288 H   0  0  0  0  0  0  0  0  0  0  0  0  # atno 8009 bound_to 7997
  156.0109  140.3327  155.6943 H   0  0  0  0  0  0  0  0  0  0  0  0  # atno 8010 bound_to 7997
  139.9666  144.5924  150.8024 H   0  0  0  0  0  0  0  0  0  0  0  0  # atno 10167 bound_to 10162
  156.6024  130.4828  149.6234 H   0  0  0  0  0  0  0  0  0  0  0  0  # atno 10718 bound_to 10713
  153.5279  135.3584  155.2662 H   0  0  0  0  0  0  0  0  0  0  0  0  # atno 10763 bound_to 10752
  154.8729  135.4061  154.3185 H   0  0  0  0  0  0  0  0  0  0  0  0  # atno 10764 bound_to 10752
  153.3868  135.7070  153.6592 H   0  0  0  0  0  0  0  0  0  0  0  0  # atno 10765 bound_to 10752
  140.8832  134.1905  157.4577 H   0  0  0  0  0  0  0  0  0  0  0  0  # atno 11005 bound_to 11000
  145.4714  139.1503  143.3812 LP  0  0  0  0  0  0  0  0  0  0  0  0  # atno 17320 bound_to 7965
  146.2694  140.4847  142.8821 LP  0  0  0  0  0  0  0  0  0  0  0  0  # atno 17321 bound_to 7965
  140.7536  143.3011  151.3078 LP  0  0  0  0  0  0  0  0  0  0  0  0  # atno 17342 bound_to 10162
  139.6513  144.0357  152.2628 LP  0  0  0  0  0  0  0  0  0  0  0  0  # atno 17343 bound_to 10162
  156.2458  130.6878  151.1598 LP  0  0  0  0  0  0  0  0  0  0  0  0  # atno 17370 bound_to 10713
  157.7276  131.0638  150.5858 LP  0  0  0  0  0  0  0  0  0  0  0  0  # atno 17371 bound_to 10713
  139.8722  134.9826  156.5165 LP  0  0  0  0  0  0  0  0  0  0  0  0  # atno 17394 bound_to 11000
  140.8436  133.8186  155.9099 LP  0  0  0  0  0  0  0  0  0  0  0  0  # atno 17395 bound_to 11000

$$$$
