AV-unprocessed.smi:793|AV-procd|sdf|3754|dock10
  -GOLD-   22720 1183D 1   1.00000     0.00000
 Structure written by MMmdl.
 38 39  0  0  0  0  0  0  0  0  2 V2000
  152.6791  138.6869  154.8019 C   0  0  0  0  0  0  0  0  0  0  0  0
  152.3899  139.3726  156.1430 C   0  0  0  0  0  0  0  0  0  0  0  0
  150.9719  139.9707  156.2114 C   0  0  2  0  0  0  0  0  0  0  0  0
  150.4287  139.9576  154.8897 O   0  0  0  0  0  0  0  0  0  0  0  0
  149.0089  140.0285  154.7683 C   0  0  0  0  0  0  0  0  0  0  0  0
  148.4202  138.9870  153.8119 C   0  0  0  0  0  0  0  0  0  0  0  0
  147.0913  139.5886  153.3420 C   0  0  0  0  0  0  0  0  0  0  0  0
  147.2049  141.1064  153.5563 C   0  0  0  0  0  0  0  0  0  0  0  0
  148.6053  141.3547  154.1269 C   0  0  0  0  0  0  0  0  0  0  0  0
  150.9864  141.4029  156.7725 C   0  0  0  0  0  0  0  0  0  0  0  0
  150.5575  142.3342  156.0907 O   0  0  0  0  0  0  0  0  0  0  0  0
  151.4604  141.5258  158.0253 N   0  0  0  0  0  0  0  0  0  0  0  0
  151.5563  142.6923  158.8319 C   0  0  0  0  0  0  0  0  0  0  0  0
  150.9564  143.9302  158.4913 C   0  0  0  0  0  0  0  0  0  0  0  0
  151.0636  145.0444  159.2472 N   0  0  0  0  0  0  0  0  0  0  0  0
  151.7871  144.9689  160.3839 C   0  0  0  0  0  0  0  0  0  0  0  0
  152.4387  143.7956  160.8106 C   0  0  0  0  0  0  0  0  0  0  0  0
  152.3258  142.6371  160.0180 C   0  0  0  0  0  0  0  0  0  0  0  0
  152.9533  141.4863  160.4097 O   0  5  0  0  0  0  0  0  0  0  0  0
  153.6861  138.2697  154.7887 H   0  0  0  0  0  0  0  0  0  0  0  0
  152.5996  139.3909  153.9730 H   0  0  0  0  0  0  0  0  0  0  0  0
  151.9788  137.8719  154.6174 H   0  0  0  0  0  0  0  0  0  0  0  0
  152.5210  138.6416  156.9423 H   0  0  0  0  0  0  0  0  0  0  0  0
  153.1326  140.1526  156.3156 H   0  0  0  0  0  0  0  0  0  0  0  0
  150.3715  139.3381  156.8671 H   0  0  0  0  0  0  0  0  0  0  0  0
  148.5185  139.9571  155.7401 H   0  0  0  0  0  0  0  0  0  0  0  0
  149.0841  138.8592  152.9557 H   0  0  0  0  0  0  0  0  0  0  0  0
  148.2898  138.0112  154.2807 H   0  0  0  0  0  0  0  0  0  0  0  0
  146.8885  139.3372  152.3005 H   0  0  0  0  0  0  0  0  0  0  0  0
  146.2686  139.1928  153.9391 H   0  0  0  0  0  0  0  0  0  0  0  0
  147.0466  141.6630  152.6321 H   0  0  0  0  0  0  0  0  0  0  0  0
  146.4469  141.4343  154.2686 H   0  0  0  0  0  0  0  0  0  0  0  0
  148.6313  142.1860  154.8317 H   0  0  0  0  0  0  0  0  0  0  0  0
  149.2907  141.5912  153.3119 H   0  0  0  0  0  0  0  0  0  0  0  0
  151.6901  140.6639  158.4992 H   0  0  0  0  0  0  0  0  0  0  0  0
  150.3906  144.0562  157.5814 H   0  0  0  0  0  0  0  0  0  0  0  0
  151.8541  145.8738  160.9695 H   0  0  0  0  0  0  0  0  0  0  0  0
  153.0125  143.7882  161.7259 H   0  0  0  0  0  0  0  0  0  0  0  0
  1  2  1  0  0  0  0
  1 20  1  0  0  0  0
  1 21  1  0  0  0  0
  1 22  1  0  0  0  0
  2  3  1  0  0  0  0
  2 23  1  0  0  0  0
  2 24  1  0  0  0  0
  3  4  1  0  0  0  0
  3 10  1  0  0  0  0
  3 25  1  0  0  0  0
  4  5  1  0  0  0  0
  5  9  1  0  0  0  0
  5  6  1  0  0  0  0
  5 26  1  0  0  0  0
  6  7  1  0  0  0  0
  6 27  1  0  0  0  0
  6 28  1  0  0  0  0
  7  8  1  0  0  0  0
  7 29  1  0  0  0  0
  7 30  1  0  0  0  0
  8  9  1  0  0  0  0
  8 31  1  0  0  0  0
  8 32  1  0  0  0  0
  9 33  1  0  0  0  0
  9 34  1  0  0  0  0
 10 11  2  0  0  0  0
 10 12  1  0  0  0  0
 12 35  1  0  0  0  0
 12 13  1  0  0  0  0
 13 18  1  0  0  0  0
 13 14  2  0  0  0  0
 14 36  1  0  0  0  0
 14 15  1  0  0  0  0
 15 16  2  0  0  0  0
 16 37  1  0  0  0  0
 16 17  1  0  0  0  0
 17 18  2  0  0  0  0
 17 38  1  0  0  0  0
 18 19  1  0  0  0  0
M  CHG  1  19  -1
M  END
> <s_m_source_file>
AV-unprocessed.smi

> <i_m_source_file_index>
793

> <i_lp_mmshare_version>
43012

> <i_f3d_flags>
0

> <s_epik_input>
W0NIMl0xW0NIMl1bQ0gyXVtDSDJdW0NIXTFPW0NAQEhdKFtDSDJdW0NIM10pQyg9TylbTkhdYzJbY0hdbltjSF1bY0hdYzJbT0hd

> <s_epik_cmdline>
J2VwaWtfcHl0aG9uJywgJy1waCcsICc3LjAnLCAnLXRuJywgJzgnLCAnLW1hJywgJzIwMCcsICctbWV0YWxfYmluZGluZycsICctaW1hZScsICc8aW5maWxlLm1hZT4nLCAnLW9tYWUnLCAnPG91dGZpbGUubWFlPic=

> <r_lp_tautomer_probability>
1

> <r_epik_Ionization_Penalty>
5.91611

> <r_epik_Ionization_Penalty_Charging>
1.01889

> <r_epik_Ionization_Penalty_Neutral>
4.89722

> <r_epik_State_Penalty>
4.89706

> <r_epik_Charging_Adjusted_Penalty>
5.91595

> <i_epik_Tot_Q>
-1

> <i_epik_Tot_abs_Q>
1

> <r_epik_Metal_State_Penalty>
1.05012

> <b_epik_Metal_Only>
1

> <s_lp_Force_Field>
OPLS_2005

> <r_lp_Energy>
28.2146

> <b_lp_Chiralities_Consistent>
1

> <s_lp_Variant>
AV-unprocessed.smi:793-3

> <Gold.Version>
5.8.1

> <Gold.Id.Protein>
6NUR|6NUR_protein|mol2

> <Gold.PLP.Fitness>
42.1742

> <Gold.PLP.PLP>
-39.2859

> <Gold.PLP.part.hbond>
-1.0000

> <Gold.PLP.part.metal>
0.0000

> <Gold.PLP.part.buried>
-3.8848

> <Gold.PLP.part.nonpolar>
-35.6638

> <Gold.PLP.part.repulsive>
1.5086

> <Gold.PLP.ligand.clash>
0.0000

> <Gold.PLP.ligand.torsion>
1.5815

> <Gold.PLP.Chemscore.Hbond>
1.0000

> <Gold.PLP.Chemscore.CHOScore>
1.0000

> <Gold.PLP.Chemscore.Metal>
0.0000

> <Gold.Chemscore.Hbonds>
donor molecule, donor type, donor heavy atom, donor atom, acceptor molecule, acceptor atom, score
      P1  H  7989  7998       L1     4  0.94
      L1  C    14    36       P1  8028  1.00

> <Gold.PLP.Chemscore.Internal.Correction>
0.0513

> <Gold.Rescore>
     Score         DG    S(hbond)    S(metal)    S(lipo)     H(rot)  DE(clash)    DE(int)     intcor
     13.96     -17.44       0.90        0.00     109.24       1.49       0.64       2.83       ----

> <Gold.Chemscore.Fitness>
13.9622

> <Gold.Chemscore.DG>
-17.4354

> <Gold.Chemscore.ZeroCoef>
-5.4800

> <Gold.Chemscore.Hbond>
0.8972

> <Gold.Chemscore.Metal>
0.0000

> <Gold.Chemscore.Lipo>
109.2412

> <Gold.Chemscore.Internal_Hbond>
0.0000

> <Gold.Chemscore.DEClash>
0.6449

> <Gold.Chemscore.DEInternal>
2.8283

> <Gold.Chemscore.Rot>
1.4932

> <Gold.Chemscore.Internal.Correction>
   9.000000E+99

> <Gold.Chemscore.Hbonds>
donor molecule, donor type, donor heavy atom, donor atom, acceptor molecule, acceptor atom, score
      P1  H  7989  7998       L1     4  0.77

> <Gold.Chemscore.Hbond.Weighted>
-2.9968

> <Gold.Chemscore.Metal.Weighted>
-0.0000

> <Gold.Chemscore.Lipo.Weighted>
-12.7812

> <Gold.Chemscore.Internal_Hbond.Weighted>
0.0000

> <Gold.Chemscore.DEClash.Weighted>
0.6449

> <Gold.Chemscore.DEInternal.Weighted>
2.8283

> <Gold.Chemscore.Rot.Weighted>
3.8226

> <Gold.Chemscore.Internal.Correction.Weighted>
   9.000000E+99

> <Gold.Protein.RotatedTorsions>
[ 6907 6896 6895 6894 ] final  -97.10 input  -60.11 | X-H torsion
[ 7974 7965 7964 7962 ] final  -87.56 input  175.53 | X-H torsion
[ 8008 7997 7996 7995 ] final -107.44 input   59.86 | X-H torsion
[ 10167 10162 10161 10158 ] final   -2.17 input  -65.29 | X-H torsion
[ 10718 10713 10712 10709 ] final   88.33 input   66.30 | X-H torsion
[ 10763 10752 10751 10750 ] final  -95.42 input  -60.55 | X-H torsion
[ 11005 11000 10999 10996 ] final -152.61 input  -57.11 | X-H torsion

> <Gold.Protein.ActiveResidues>
 VAL166  LYS551  ARG553  GLY616  TRP617  ASP618  TYR619  PRO620  LYS621  CYS622 
 ASP623  PHE694  ASN695  SER759  ASP760  ASP761  ALA762  ILE779  LEU786  VAL792 
 PHE793  MET794  SER795  GLU796  ALA797  LYS798  CYS799  TRP800  GLU811  SER814 

> <Gold.Protein.RotatedAtoms>
  150.7007  134.1401  159.4101 H   0  0  0  0  0  0  0  0  0  0  0  0  # atno 6907 bound_to 6896
  151.9385  135.0222  160.0543 H   0  0  0  0  0  0  0  0  0  0  0  0  # atno 6908 bound_to 6896
  152.2114  133.4879  159.5149 H   0  0  0  0  0  0  0  0  0  0  0  0  # atno 6909 bound_to 6896
  145.4648  140.9560  143.1949 H   0  0  0  0  0  0  0  0  0  0  0  0  # atno 7974 bound_to 7965
  154.9294  140.0405  157.2040 H   0  0  0  0  0  0  0  0  0  0  0  0  # atno 8008 bound_to 7997
  154.8176  140.2878  155.5788 H   0  0  0  0  0  0  0  0  0  0  0  0  # atno 8009 bound_to 7997
  156.2977  140.2525  156.3076 H   0  0  0  0  0  0  0  0  0  0  0  0  # atno 8010 bound_to 7997
  140.6840  143.6688  150.8202 H   0  0  0  0  0  0  0  0  0  0  0  0  # atno 10167 bound_to 10162
  157.6948  131.0290  150.3258 H   0  0  0  0  0  0  0  0  0  0  0  0  # atno 10718 bound_to 10713
  154.7147  135.5121  153.8719 H   0  0  0  0  0  0  0  0  0  0  0  0  # atno 10763 bound_to 10752
  153.0810  135.6631  154.0054 H   0  0  0  0  0  0  0  0  0  0  0  0  # atno 10764 bound_to 10752
  153.9889  135.3021  155.3393 H   0  0  0  0  0  0  0  0  0  0  0  0  # atno 10765 bound_to 10752
  140.7171  134.3768  157.5189 H   0  0  0  0  0  0  0  0  0  0  0  0  # atno 11005 bound_to 11000
  144.7981  139.6195  143.7084 LP  0  0  0  0  0  0  0  0  0  0  0  0  # atno 17320 bound_to 7965
  146.2430  139.6041  142.9478 LP  0  0  0  0  0  0  0  0  0  0  0  0  # atno 17321 bound_to 7965
  140.0393  143.5363  152.2725 LP  0  0  0  0  0  0  0  0  0  0  0  0  # atno 17342 bound_to 10162
  139.6184  144.7624  151.2795 LP  0  0  0  0  0  0  0  0  0  0  0  0  # atno 17343 bound_to 10162
  156.3739  130.3868  149.7154 LP  0  0  0  0  0  0  0  0  0  0  0  0  # atno 17370 bound_to 10713
  156.4559  130.7929  151.2950 LP  0  0  0  0  0  0  0  0  0  0  0  0  # atno 17371 bound_to 10713
  139.8857  134.8929  156.2627 LP  0  0  0  0  0  0  0  0  0  0  0  0  # atno 17394 bound_to 11000
  141.0035  133.7137  156.0998 LP  0  0  0  0  0  0  0  0  0  0  0  0  # atno 17395 bound_to 11000

$$$$
