AV-unprocessed.smi:1696|AV-procd|sdf|6801|dock1
  -GOLD-   22720 7573D 1   1.00000     0.00000
 Structure written by MMmdl.
 38 39  0  0  0  0  0  0  0  0  3 V2000
  151.8667  139.9670  156.2679 C   0  0  0  0  0  0  0  0  0  0  0  0
  150.4501  140.3347  155.7983 C   0  0  0  0  0  0  0  0  0  0  0  0
  149.9668  141.7468  156.2278 C   0  0  2  0  0  0  0  0  0  0  0  0
  149.8609  141.8899  157.7707 C   0  0  0  0  0  0  0  0  0  0  0  0
  151.1423  142.1947  158.3988 N   0  0  0  0  0  0  0  0  0  0  0  0
  151.8641  143.3061  158.1982 C   0  0  0  0  0  0  0  0  0  0  0  0
  151.4445  144.1818  157.4379 O   0  0  0  0  0  0  0  0  0  0  0  0
  153.0281  143.3290  158.8844 N   0  5  0  0  0  0  0  0  0  0  0  0
  153.0183  143.2510  160.2250 C   0  0  0  0  0  0  0  0  0  0  0  0
  153.7146  142.3354  160.9081 N   0  0  0  0  0  0  0  0  0  0  0  0
  153.5623  142.4409  162.2919 C   0  0  0  0  0  0  0  0  0  0  0  0
  152.7379  143.4667  162.6714 C   0  0  0  0  0  0  0  0  0  0  0  0
  152.1237  144.3354  161.2938 S   0  0  0  0  0  0  0  0  0  0  0  0
  148.6868  142.1291  155.5629 N   0  3  0  0  0  0  0  0  0  0  0  0
  148.5299  141.6470  154.1669 C   0  0  0  0  0  0  0  0  0  0  0  0
  147.0473  141.3017  153.9656 C   0  0  0  0  0  0  0  0  0  0  0  0
  146.3511  141.8080  155.2239 C   0  0  0  0  0  0  0  0  0  0  0  0
  147.4501  141.7448  156.2777 C   0  0  0  0  0  0  0  0  0  0  0  0
  152.1187  138.9510  155.9631 H   0  0  0  0  0  0  0  0  0  0  0  0
  151.9568  140.0161  157.3530 H   0  0  0  0  0  0  0  0  0  0  0  0
  152.6172  140.6292  155.8364 H   0  0  0  0  0  0  0  0  0  0  0  0
  150.4144  140.2520  154.7118 H   0  0  0  0  0  0  0  0  0  0  0  0
  149.7511  139.5753  156.1482 H   0  0  0  0  0  0  0  0  0  0  0  0
  150.7183  142.4561  155.8773 H   0  0  0  0  0  0  0  0  0  0  0  0
  149.1521  142.6689  158.0533 H   0  0  0  0  0  0  0  0  0  0  0  0
  149.4789  140.9695  158.2118 H   0  0  0  0  0  0  0  0  0  0  0  0
  151.5191  141.5054  159.0330 H   0  0  0  0  0  0  0  0  0  0  0  0
  154.0804  141.7432  162.9328 H   0  0  0  0  0  0  0  0  0  0  0  0
  152.4564  143.7636  163.6703 H   0  0  0  0  0  0  0  0  0  0  0  0
  148.8563  142.4245  153.4755 H   0  0  0  0  0  0  0  0  0  0  0  0
  149.1365  140.7592  153.9800 H   0  0  0  0  0  0  0  0  0  0  0  0
  146.6341  141.7440  153.0585 H   0  0  0  0  0  0  0  0  0  0  0  0
  146.9295  140.2198  153.8891 H   0  0  0  0  0  0  0  0  0  0  0  0
  146.0343  142.8423  155.0819 H   0  0  0  0  0  0  0  0  0  0  0  0
  145.4726  141.2194  155.4905 H   0  0  0  0  0  0  0  0  0  0  0  0
  147.5431  140.7242  156.6530 H   0  0  0  0  0  0  0  0  0  0  0  0
  147.2404  142.4026  157.1215 H   0  0  0  0  0  0  0  0  0  0  0  0
  148.6727  143.1375  155.5125 H   0  0  0  0  0  0  0  0  0  0  0  0
  1  2  1  0  0  0  0
  1 19  1  0  0  0  0
  1 20  1  0  0  0  0
  1 21  1  0  0  0  0
  2  3  1  0  0  0  0
  2 22  1  0  0  0  0
  2 23  1  0  0  0  0
  3  4  1  0  0  0  0
  3 14  1  0  0  0  0
  3 24  1  0  0  0  0
  4  5  1  0  0  0  0
  4 25  1  0  0  0  0
  4 26  1  0  0  0  0
  5  6  1  0  0  0  0
  5 27  1  0  0  0  0
  6  7  2  0  0  0  0
  6  8  1  0  0  0  0
  8  9  1  0  0  0  0
  9 13  1  0  0  0  0
  9 10  2  0  0  0  0
 10 11  1  0  0  0  0
 11 12  2  0  0  0  0
 11 28  1  0  0  0  0
 12 13  1  0  0  0  0
 12 29  1  0  0  0  0
 14 18  1  0  0  0  0
 14 15  1  0  0  0  0
 14 38  1  0  0  0  0
 15 16  1  0  0  0  0
 15 30  1  0  0  0  0
 15 31  1  0  0  0  0
 16 17  1  0  0  0  0
 16 32  1  0  0  0  0
 16 33  1  0  0  0  0
 17 18  1  0  0  0  0
 17 34  1  0  0  0  0
 17 35  1  0  0  0  0
 18 36  1  0  0  0  0
 18 37  1  0  0  0  0
M  CHG  1   8  -1
M  CHG  1  14   1
M  END
> <s_m_source_file>
AV-unprocessed.smi

> <i_m_source_file_index>
1696

> <i_lp_mmshare_version>
43012

> <i_f3d_flags>
0

> <s_epik_input>
W0NIMl0xW0NIMl1bQ0gyXVtDSDJdTjFbQ0BIXShbQ0gyXVtDSDNdKVtDSDJdW05IXUMoPU8pW05IXWMybltjSF1bY0hdczI=

> <s_epik_cmdline>
J2VwaWtfcHl0aG9uJywgJy1waCcsICc3LjAnLCAnLXRuJywgJzgnLCAnLW1hJywgJzIwMCcsICctbWV0YWxfYmluZGluZycsICctaW1hZScsICc8aW5maWxlLm1hZT4nLCAnLW9tYWUnLCAnPG91dGZpbGUubWFlPic=

> <r_lp_tautomer_probability>
1

> <r_epik_Ionization_Penalty>
7.71903

> <r_epik_Ionization_Penalty_Charging>
6.3282

> <r_epik_Ionization_Penalty_Neutral>
1.39083

> <r_epik_State_Penalty>
6.32705

> <r_epik_Charging_Adjusted_Penalty>
12.6552

> <i_epik_Tot_Q>
0

> <i_epik_Tot_abs_Q>
2

> <r_epik_Metal_State_Penalty>
2.26116

> <b_epik_Metal_Only>
1

> <s_lp_Force_Field>
OPLS_2005

> <r_lp_Energy>
21.91

> <b_lp_Chiralities_Consistent>
1

> <s_lp_Variant>
AV-unprocessed.smi:1696-3

> <Gold.Version>
5.8.1

> <Gold.Id.Protein>
6NUR|6NUR_protein|mol2

> <Gold.PLP.Fitness>
41.8361

> <Gold.PLP.PLP>
-39.0869

> <Gold.PLP.part.hbond>
-1.0000

> <Gold.PLP.part.metal>
0.0000

> <Gold.PLP.part.buried>
-4.4412

> <Gold.PLP.part.nonpolar>
-34.3179

> <Gold.PLP.part.repulsive>
0.3411

> <Gold.PLP.ligand.clash>
0.0000

> <Gold.PLP.ligand.torsion>
1.8911

> <Gold.PLP.Chemscore.Hbond>
2.0000

> <Gold.PLP.Chemscore.CHOScore>
0.0000

> <Gold.PLP.Chemscore.Metal>
0.0000

> <Gold.Chemscore.Hbonds>
donor molecule, donor type, donor heavy atom, donor atom, acceptor molecule, acceptor atom, score
      L1  H    14    38       P1  8028  2.00

> <Gold.PLP.Chemscore.Internal.Correction>
0.5314

> <Gold.Rescore>
     Score         DG    S(hbond)    S(metal)    S(lipo)     H(rot)  DE(clash)    DE(int)     intcor
     11.80     -13.92       1.00        0.00      81.37       1.73       0.02       2.10       ----

> <Gold.Chemscore.Fitness>
11.8027

> <Gold.Chemscore.DG>
-13.9197

> <Gold.Chemscore.ZeroCoef>
-5.4800

> <Gold.Chemscore.Hbond>
1.0000

> <Gold.Chemscore.Metal>
0.0000

> <Gold.Chemscore.Lipo>
81.3747

> <Gold.Chemscore.Internal_Hbond>
0.0000

> <Gold.Chemscore.DEClash>
0.0178

> <Gold.Chemscore.DEInternal>
2.0992

> <Gold.Chemscore.Rot>
1.7270

> <Gold.Chemscore.Internal.Correction>
   9.000000E+99

> <Gold.Chemscore.Hbonds>
donor molecule, donor type, donor heavy atom, donor atom, acceptor molecule, acceptor atom, score
      L1  H    14    38       P1  8028  0.98

> <Gold.Chemscore.Hbond.Weighted>
-3.3400

> <Gold.Chemscore.Metal.Weighted>
-0.0000

> <Gold.Chemscore.Lipo.Weighted>
-9.5208

> <Gold.Chemscore.Internal_Hbond.Weighted>
0.0000

> <Gold.Chemscore.DEClash.Weighted>
0.0178

> <Gold.Chemscore.DEInternal.Weighted>
2.0992

> <Gold.Chemscore.Rot.Weighted>
4.4212

> <Gold.Chemscore.Internal.Correction.Weighted>
   9.000000E+99

> <Gold.Protein.RotatedTorsions>
[ 6907 6896 6895 6894 ] final   88.78 input  -60.11 | X-H torsion
[ 7974 7965 7964 7962 ] final   10.21 input  175.53 | X-H torsion
[ 8008 7997 7996 7995 ] final -149.44 input   59.86 | X-H torsion
[ 10167 10162 10161 10158 ] final   82.30 input  -65.29 | X-H torsion
[ 10718 10713 10712 10709 ] final   54.52 input   66.30 | X-H torsion
[ 10763 10752 10751 10750 ] final   40.19 input  -60.55 | X-H torsion
[ 11005 11000 10999 10996 ] final -120.13 input  -57.11 | X-H torsion

> <Gold.Protein.ActiveResidues>
 VAL166  LYS551  ARG553  GLY616  TRP617  ASP618  TYR619  PRO620  LYS621  CYS622 
 ASP623  PHE694  ASN695  SER759  ASP760  ASP761  ALA762  ILE779  LEU786  VAL792 
 PHE793  MET794  SER795  GLU796  ALA797  LYS798  CYS799  TRP800  GLU811  SER814 

> <Gold.Protein.RotatedAtoms>
  152.5429  134.2068  159.8733 H   0  0  0  0  0  0  0  0  0  0  0  0  # atno 6907 bound_to 6896
  151.2053  133.4580  159.2604 H   0  0  0  0  0  0  0  0  0  0  0  0  # atno 6908 bound_to 6896
  151.0949  134.9950  159.8476 H   0  0  0  0  0  0  0  0  0  0  0  0  # atno 6909 bound_to 6896
  146.2392  139.9668  142.8452 H   0  0  0  0  0  0  0  0  0  0  0  0  # atno 7974 bound_to 7965
  155.6077  140.0668  157.2715 H   0  0  0  0  0  0  0  0  0  0  0  0  # atno 8008 bound_to 7997
  154.4262  140.1807  156.1287 H   0  0  0  0  0  0  0  0  0  0  0  0  # atno 8009 bound_to 7997
  156.0110  140.3326  155.6944 H   0  0  0  0  0  0  0  0  0  0  0  0  # atno 8010 bound_to 7997
  139.9302  144.6157  150.8352 H   0  0  0  0  0  0  0  0  0  0  0  0  # atno 10167 bound_to 10162
  157.5264  130.8600  149.8628 H   0  0  0  0  0  0  0  0  0  0  0  0  # atno 10718 bound_to 10713
  152.9944  135.6198  154.2586 H   0  0  0  0  0  0  0  0  0  0  0  0  # atno 10763 bound_to 10752
  154.2323  135.2791  155.2887 H   0  0  0  0  0  0  0  0  0  0  0  0  # atno 10764 bound_to 10752
  154.5439  135.5753  153.6921 H   0  0  0  0  0  0  0  0  0  0  0  0  # atno 10765 bound_to 10752
  141.0166  134.0187  157.3341 H   0  0  0  0  0  0  0  0  0  0  0  0  # atno 11005 bound_to 11000
  145.1718  140.9725  143.4317 LP  0  0  0  0  0  0  0  0  0  0  0  0  # atno 17320 bound_to 7965
  145.0021  139.3588  143.6162 LP  0  0  0  0  0  0  0  0  0  0  0  0  # atno 17321 bound_to 7965
  140.7639  143.3235  151.2567 LP  0  0  0  0  0  0  0  0  0  0  0  0  # atno 17342 bound_to 10162
  139.6788  143.9890  152.2797 LP  0  0  0  0  0  0  0  0  0  0  0  0  # atno 17343 bound_to 10162
  156.0390  130.3744  150.1484 LP  0  0  0  0  0  0  0  0  0  0  0  0  # atno 17370 bound_to 10713
  156.9670  130.9823  151.3467 LP  0  0  0  0  0  0  0  0  0  0  0  0  # atno 17371 bound_to 10713
  139.9120  135.0191  156.7732 LP  0  0  0  0  0  0  0  0  0  0  0  0  # atno 17394 bound_to 11000
  140.6645  133.9615  155.7822 LP  0  0  0  0  0  0  0  0  0  0  0  0  # atno 17395 bound_to 11000

$$$$
