AV-unprocessed.smi:1439|AV-procd|sdf|5871|dock8
  -GOLD-   22720 5543D 1   1.00000     0.00000
 Structure written by MMmdl.
 35 36  0  0  0  0  0  0  0  0  2 V2000
  147.4992  139.7047  152.4403 N   0  0  0  0  0  0  0  0  0  0  0  0
  147.3593  140.3958  153.5763 C   0  0  0  0  0  0  0  0  0  0  0  0
  146.2891  140.4467  154.1788 O   0  0  0  0  0  0  0  0  0  0  0  0
  148.5953  141.1093  154.1375 C   0  0  0  0  0  0  0  0  0  0  0  0
  149.6541  140.1332  154.5683 C   0  0  0  0  0  0  0  0  0  0  0  0
  149.7341  138.8061  154.2316 C   0  0  0  0  0  0  0  0  0  0  0  0
  151.1255  138.0429  154.9455 S   0  0  0  0  0  0  0  0  0  0  0  0
  151.5682  139.5775  155.6960 C   0  0  0  0  0  0  0  0  0  0  0  0
  152.6412  139.7690  156.4790 N   0  5  0  0  0  0  0  0  0  0  0  0
  152.4790  139.8724  157.8196 C   0  0  0  0  0  0  0  0  0  0  0  0
  152.4913  138.9767  158.6668 O   0  0  0  0  0  0  0  0  0  0  0  0
  152.2569  141.3326  158.2383 C   0  0  0  0  0  0  0  0  0  0  0  0
  153.3628  141.8908  159.1543 C   0  0  0  0  0  0  0  0  0  0  0  0
  153.1143  143.3517  159.5566 C   0  0  2  0  0  0  0  0  0  0  0  0
  152.0037  143.5311  160.5875 C   0  0  0  0  0  0  0  0  0  0  0  0
  151.5769  144.9750  160.3839 C   0  0  0  0  0  0  0  0  0  0  0  0
  152.0747  145.3149  158.9750 C   0  0  0  0  0  0  0  0  0  0  0  0
  152.6258  144.1091  158.4610 O   0  0  0  0  0  0  0  0  0  0  0  0
  150.6926  140.5468  155.4080 N   0  0  0  0  0  0  0  0  0  0  0  0
  146.6984  139.2467  152.0303 H   0  0  0  0  0  0  0  0  0  0  0  0
  148.3982  139.6663  151.9823 H   0  0  0  0  0  0  0  0  0  0  0  0
  148.9923  141.7878  153.3811 H   0  0  0  0  0  0  0  0  0  0  0  0
  148.2838  141.7335  154.9756 H   0  0  0  0  0  0  0  0  0  0  0  0
  149.0645  138.2337  153.6078 H   0  0  0  0  0  0  0  0  0  0  0  0
  152.1875  141.9471  157.3393 H   0  0  0  0  0  0  0  0  0  0  0  0
  151.2934  141.4082  158.7449 H   0  0  0  0  0  0  0  0  0  0  0  0
  153.4491  141.2762  160.0516 H   0  0  0  0  0  0  0  0  0  0  0  0
  154.3231  141.8272  158.6402 H   0  0  0  0  0  0  0  0  0  0  0  0
  154.0356  143.8080  159.9239 H   0  0  0  0  0  0  0  0  0  0  0  0
  151.1682  142.8671  160.3604 H   0  0  0  0  0  0  0  0  0  0  0  0
  152.3331  143.3234  161.6058 H   0  0  0  0  0  0  0  0  0  0  0  0
  150.4965  145.0886  160.4781 H   0  0  0  0  0  0  0  0  0  0  0  0
  152.0492  145.6280  161.1184 H   0  0  0  0  0  0  0  0  0  0  0  0
  151.2765  145.6787  158.3274 H   0  0  0  0  0  0  0  0  0  0  0  0
  152.8527  146.0785  159.0170 H   0  0  0  0  0  0  0  0  0  0  0  0
  1  2  1  0  0  0  0
  1 20  1  0  0  0  0
  1 21  1  0  0  0  0
  2  3  2  0  0  0  0
  2  4  1  0  0  0  0
  4  5  1  0  0  0  0
  4 22  1  0  0  0  0
  4 23  1  0  0  0  0
  5 19  1  0  0  0  0
  5  6  2  0  0  0  0
  6  7  1  0  0  0  0
  6 24  1  0  0  0  0
  7  8  1  0  0  0  0
  8  9  1  0  0  0  0
  8 19  2  0  0  0  0
  9 10  1  0  0  0  0
 10 11  2  0  0  0  0
 10 12  1  0  0  0  0
 12 13  1  0  0  0  0
 12 25  1  0  0  0  0
 12 26  1  0  0  0  0
 13 14  1  0  0  0  0
 13 27  1  0  0  0  0
 13 28  1  0  0  0  0
 14 18  1  0  0  0  0
 14 15  1  0  0  0  0
 14 29  1  0  0  0  0
 15 16  1  0  0  0  0
 15 30  1  0  0  0  0
 15 31  1  0  0  0  0
 16 17  1  0  0  0  0
 16 32  1  0  0  0  0
 16 33  1  0  0  0  0
 17 18  1  0  0  0  0
 17 34  1  0  0  0  0
 17 35  1  0  0  0  0
M  CHG  1   9  -1
M  END
> <s_m_source_file>
AV-unprocessed.smi

> <i_m_source_file_index>
1439

> <i_lp_mmshare_version>
43012

> <i_f3d_flags>
0

> <s_epik_input>
W05IMl1DKD1PKVtDSDJdYzFbY0hdc2MobjEpW05IXUMoPU8pW0NIMl1bQ0gyXVtDQEBIXTJbQ0gyXVtDSDJdW0NIMl1PMg==

> <s_epik_cmdline>
J2VwaWtfcHl0aG9uJywgJy1waCcsICc3LjAnLCAnLXRuJywgJzgnLCAnLW1hJywgJzIwMCcsICctbWV0YWxfYmluZGluZycsICctaW1hZScsICc8aW5maWxlLm1hZT4nLCAnLW9tYWUnLCAnPG91dGZpbGUubWFlPic=

> <r_lp_tautomer_probability>
1

> <r_epik_Ionization_Penalty>
4.85214

> <r_epik_Ionization_Penalty_Charging>
4.5239

> <r_epik_Ionization_Penalty_Neutral>
0.32824

> <r_epik_State_Penalty>
4.52362

> <r_epik_Charging_Adjusted_Penalty>
9.04752

> <i_epik_Tot_Q>
-1

> <i_epik_Tot_abs_Q>
1

> <r_epik_Metal_State_Penalty>
0.831335

> <b_epik_Metal_Only>
1

> <s_lp_Force_Field>
OPLS_2005

> <r_lp_Energy>
14.205

> <b_lp_Chiralities_Consistent>
1

> <s_lp_Variant>
AV-unprocessed.smi:1439-3

> <Gold.Version>
5.8.1

> <Gold.Id.Protein>
6NUR|6NUR_protein|mol2

> <Gold.PLP.Fitness>
49.7190

> <Gold.PLP.PLP>
-41.1107

> <Gold.PLP.part.hbond>
-2.5647

> <Gold.PLP.part.metal>
0.0000

> <Gold.PLP.part.buried>
-6.8102

> <Gold.PLP.part.nonpolar>
-32.9420

> <Gold.PLP.part.repulsive>
0.2689

> <Gold.PLP.ligand.clash>
0.0000

> <Gold.PLP.ligand.torsion>
1.8479

> <Gold.PLP.Chemscore.Hbond>
3.0451

> <Gold.PLP.Chemscore.CHOScore>
1.0000

> <Gold.PLP.Chemscore.Metal>
0.0000

> <Gold.Chemscore.Hbonds>
donor molecule, donor type, donor heavy atom, donor atom, acceptor molecule, acceptor atom, score
      L1  H     1    21       P1  7957  0.89
      P1  H  7989  7998       L1    19  0.02
      P1  H  7997  8009       L1     9  1.80
      L1  C     6    24       P1  7948  0.74

> <Gold.PLP.Chemscore.Internal.Correction>
0.1689

> <Gold.Rescore>
     Score         DG    S(hbond)    S(metal)    S(lipo)     H(rot)  DE(clash)    DE(int)     intcor
     14.64     -16.40       1.89        0.00      94.29       2.51       0.00       1.77       ----

> <Gold.Chemscore.Fitness>
14.6394

> <Gold.Chemscore.DG>
-16.4048

> <Gold.Chemscore.ZeroCoef>
-5.4800

> <Gold.Chemscore.Hbond>
1.8921

> <Gold.Chemscore.Metal>
0.0000

> <Gold.Chemscore.Lipo>
94.2864

> <Gold.Chemscore.Internal_Hbond>
0.0000

> <Gold.Chemscore.DEClash>
0.0000

> <Gold.Chemscore.DEInternal>
1.7654

> <Gold.Chemscore.Rot>
2.5103

> <Gold.Chemscore.Internal.Correction>
   9.000000E+99

> <Gold.Chemscore.Hbonds>
donor molecule, donor type, donor heavy atom, donor atom, acceptor molecule, acceptor atom, score
      L1  H     1    21       P1  7957  0.87
      P1  H  7997  8009       L1     9  0.18

> <Gold.Chemscore.Hbond.Weighted>
-6.3197

> <Gold.Chemscore.Metal.Weighted>
-0.0000

> <Gold.Chemscore.Lipo.Weighted>
-11.0315

> <Gold.Chemscore.Internal_Hbond.Weighted>
0.0000

> <Gold.Chemscore.DEClash.Weighted>
0.0000

> <Gold.Chemscore.DEInternal.Weighted>
1.7654

> <Gold.Chemscore.Rot.Weighted>
6.4264

> <Gold.Chemscore.Internal.Correction.Weighted>
   9.000000E+99

> <Gold.Protein.RotatedTorsions>
[ 6907 6896 6895 6894 ] final -127.85 input  -60.11 | X-H torsion
[ 7974 7965 7964 7962 ] final -135.34 input  175.53 | X-H torsion
[ 8008 7997 7996 7995 ] final -166.58 input   59.86 | X-H torsion
[ 10167 10162 10161 10158 ] final  -96.31 input  -65.29 | X-H torsion
[ 10718 10713 10712 10709 ] final  175.90 input   66.30 | X-H torsion
[ 10763 10752 10751 10750 ] final   35.80 input  -60.55 | X-H torsion
[ 11005 11000 10999 10996 ] final   27.37 input  -57.11 | X-H torsion

> <Gold.Protein.ActiveResidues>
 VAL166  LYS551  ARG553  GLY616  TRP617  ASP618  TYR619  PRO620  LYS621  CYS622 
 ASP623  PHE694  ASN695  SER759  ASP760  ASP761  ALA762  ILE779  LEU786  VAL792 
 PHE793  MET794  SER795  GLU796  ALA797  LYS798  CYS799  TRP800  GLU811  SER814 

> <Gold.Protein.RotatedAtoms>
  150.9117  133.6990  159.2853 H   0  0  0  0  0  0  0  0  0  0  0  0  # atno 6907 bound_to 6896
  151.4474  135.1025  159.9697 H   0  0  0  0  0  0  0  0  0  0  0  0  # atno 6908 bound_to 6896
  152.4933  133.8511  159.7257 H   0  0  0  0  0  0  0  0  0  0  0  0  # atno 6909 bound_to 6896
  144.9022  140.6786  143.5078 H   0  0  0  0  0  0  0  0  0  0  0  0  # atno 7974 bound_to 7965
  155.8658  140.0985  157.1583 H   0  0  0  0  0  0  0  0  0  0  0  0  # atno 8008 bound_to 7997
  154.3993  140.1356  156.4079 H   0  0  0  0  0  0  0  0  0  0  0  0  # atno 8009 bound_to 7997
  155.7806  140.3458  155.5298 H   0  0  0  0  0  0  0  0  0  0  0  0  # atno 8010 bound_to 7997
  140.2951  143.3197  152.0306 H   0  0  0  0  0  0  0  0  0  0  0  0  # atno 10167 bound_to 10162
  156.9281  130.9962  151.2992 H   0  0  0  0  0  0  0  0  0  0  0  0  # atno 10718 bound_to 10713
  153.0104  135.6323  154.1884 H   0  0  0  0  0  0  0  0  0  0  0  0  # atno 10763 bound_to 10752
  154.1626  135.2822  155.3106 H   0  0  0  0  0  0  0  0  0  0  0  0  # atno 10764 bound_to 10752
  154.5970  135.5599  153.7396 H   0  0  0  0  0  0  0  0  0  0  0  0  # atno 10765 bound_to 10752
  140.3270  134.2480  155.7708 H   0  0  0  0  0  0  0  0  0  0  0  0  # atno 11005 bound_to 11000
  145.3597  139.1685  143.4390 LP  0  0  0  0  0  0  0  0  0  0  0  0  # atno 17320 bound_to 7965
  146.3114  140.3657  142.8669 LP  0  0  0  0  0  0  0  0  0  0  0  0  # atno 17321 bound_to 7965
  139.4928  144.6497  151.6703 LP  0  0  0  0  0  0  0  0  0  0  0  0  # atno 17342 bound_to 10162
  140.5699  144.0127  150.6211 LP  0  0  0  0  0  0  0  0  0  0  0  0  # atno 17343 bound_to 10162
  157.5864  130.8413  149.8596 LP  0  0  0  0  0  0  0  0  0  0  0  0  # atno 17370 bound_to 10713
  156.0460  130.3728  150.1317 LP  0  0  0  0  0  0  0  0  0  0  0  0  # atno 17371 bound_to 10713
  141.2073  133.7810  157.0128 LP  0  0  0  0  0  0  0  0  0  0  0  0  # atno 17394 bound_to 11000
  140.0893  134.9602  157.1750 LP  0  0  0  0  0  0  0  0  0  0  0  0  # atno 17395 bound_to 11000

$$$$
