AV-unprocessed.smi:1788|AV-procd|sdf|7210|dock2
  -GOLD-   22720 8453D 1   1.00000     0.00000
 Structure written by MMmdl.
 55 57  0  0  0  0  0  0  0  0  2 V2000
  146.3096  132.4540  150.3120 C   0  0  0  0  0  0  0  0  0  0  0  0
  146.7767  133.5550  151.2743 C   0  0  2  0  0  0  0  0  0  0  0  0
  146.9416  133.0168  152.7055 C   0  0  0  0  0  0  0  0  0  0  0  0
  147.3850  134.1423  153.6482 C   0  0  0  0  0  0  0  0  0  0  0  0
  146.4137  135.3313  153.5799 C   0  0  0  0  0  0  0  0  0  0  0  0
  146.2774  135.8323  152.1879 N   0  3  2  0  0  0  0  0  0  0  0  0
  145.4526  137.0645  152.1145 C   0  0  0  0  0  0  0  0  0  0  0  0
  146.3042  138.3286  151.8876 C   0  0  0  0  0  0  0  0  0  0  0  0
  147.5048  138.3218  152.7154 N   0  0  0  0  0  0  0  0  0  0  0  0
  147.9036  139.3324  153.5010 C   0  0  0  0  0  0  0  0  0  0  0  0
  147.2785  140.3864  153.6117 O   0  0  0  0  0  0  0  0  0  0  0  0
  149.0577  139.0347  154.1228 N   0  0  0  0  0  0  0  0  0  0  0  0
  149.8196  139.8196  155.0316 C   0  0  0  0  0  0  0  0  0  0  0  0
  151.1895  139.6203  155.3235 C   0  0  0  0  0  0  0  0  0  0  0  0
  151.8256  140.4836  156.2363 C   0  0  0  0  0  0  0  0  0  0  0  0
  151.0860  141.5322  156.8327 C   0  0  0  0  0  0  0  0  0  0  0  0
  151.7048  142.4119  157.7485 N   0  0  0  0  0  0  0  0  0  0  0  0
  151.4395  143.8339  157.5421 C   0  0  0  0  0  0  0  0  0  0  0  0
  152.3967  144.6875  158.3922 C   0  0  0  0  0  0  0  0  0  0  0  0
  152.3013  144.3024  159.7592 O   0  0  0  0  0  0  0  0  0  0  0  0
  152.6757  142.9428  159.9519 C   0  0  0  0  0  0  0  0  0  0  0  0
  151.7284  142.0266  159.1590 C   0  0  0  0  0  0  0  0  0  0  0  0
  149.7739  141.7200  156.5489 N   0  0  0  0  0  0  0  0  0  0  0  0
  149.1682  140.8914  155.6736 C   0  0  0  0  0  0  0  0  0  0  0  0
  145.8147  134.7604  151.2647 C   0  0  0  0  0  0  0  0  0  0  0  0
  145.3345  132.0613  150.6020 H   0  0  0  0  0  0  0  0  0  0  0  0
  147.0131  131.6211  150.2971 H   0  0  0  0  0  0  0  0  0  0  0  0
  146.2260  132.8320  149.2927 H   0  0  0  0  0  0  0  0  0  0  0  0
  147.7524  133.9000  150.9279 H   0  0  0  0  0  0  0  0  0  0  0  0
  145.9986  132.5949  153.0565 H   0  0  0  0  0  0  0  0  0  0  0  0
  147.6722  132.2073  152.7249 H   0  0  0  0  0  0  0  0  0  0  0  0
  147.4454  133.7686  154.6709 H   0  0  0  0  0  0  0  0  0  0  0  0
  148.3893  134.4726  153.3797 H   0  0  0  0  0  0  0  0  0  0  0  0
  145.4334  135.0414  153.9619 H   0  0  0  0  0  0  0  0  0  0  0  0
  146.7835  136.1287  154.2258 H   0  0  0  0  0  0  0  0  0  0  0  0
  144.6967  136.9516  151.3357 H   0  0  0  0  0  0  0  0  0  0  0  0
  144.9097  137.1910  153.0524 H   0  0  0  0  0  0  0  0  0  0  0  0
  146.6147  138.3839  150.8439 H   0  0  0  0  0  0  0  0  0  0  0  0
  145.7365  139.2373  152.0901 H   0  0  0  0  0  0  0  0  0  0  0  0
  148.0797  137.4923  152.6794 H   0  0  0  0  0  0  0  0  0  0  0  0
  149.4683  138.1439  153.8838 H   0  0  0  0  0  0  0  0  0  0  0  0
  151.7706  138.8348  154.8678 H   0  0  0  0  0  0  0  0  0  0  0  0
  152.8664  140.3228  156.4747 H   0  0  0  0  0  0  0  0  0  0  0  0
  151.5478  144.1192  156.4971 H   0  0  0  0  0  0  0  0  0  0  0  0
  150.4061  144.0425  157.8221 H   0  0  0  0  0  0  0  0  0  0  0  0
  153.4255  144.5817  158.0439 H   0  0  0  0  0  0  0  0  0  0  0  0
  152.1378  145.7426  158.3023 H   0  0  0  0  0  0  0  0  0  0  0  0
  153.7117  142.7917  159.6441 H   0  0  0  0  0  0  0  0  0  0  0  0
  152.6224  142.7069  161.0148 H   0  0  0  0  0  0  0  0  0  0  0  0
  150.7186  142.0913  159.5671 H   0  0  0  0  0  0  0  0  0  0  0  0
  152.0579  140.9921  159.2635 H   0  0  0  0  0  0  0  0  0  0  0  0
  148.1241  141.0921  155.4823 H   0  0  0  0  0  0  0  0  0  0  0  0
  145.7435  135.1469  150.2486 H   0  0  0  0  0  0  0  0  0  0  0  0
  144.8101  134.4439  151.5507 H   0  0  0  0  0  0  0  0  0  0  0  0
  147.2074  136.0933  151.8931 H   0  0  0  0  0  0  0  0  0  0  0  0
  1  2  1  0  0  0  0
  1 26  1  0  0  0  0
  1 27  1  0  0  0  0
  1 28  1  0  0  0  0
  2 25  1  0  0  0  0
  2  3  1  0  0  0  0
  2 29  1  0  0  0  0
  3  4  1  0  0  0  0
  3 30  1  0  0  0  0
  3 31  1  0  0  0  0
  4  5  1  0  0  0  0
  4 32  1  0  0  0  0
  4 33  1  0  0  0  0
  5  6  1  0  0  0  0
  5 34  1  0  0  0  0
  5 35  1  0  0  0  0
  6  7  1  0  0  0  0
  6 25  1  0  0  0  0
  6 55  1  0  0  0  0
  7  8  1  0  0  0  0
  7 36  1  0  0  0  0
  7 37  1  0  0  0  0
  8  9  1  0  0  0  0
  8 38  1  0  0  0  0
  8 39  1  0  0  0  0
  9 10  1  0  0  0  0
  9 40  1  0  0  0  0
 10 11  2  0  0  0  0
 10 12  1  0  0  0  0
 12 13  1  0  0  0  0
 12 41  1  0  0  0  0
 13 24  1  0  0  0  0
 13 14  2  0  0  0  0
 14 15  1  0  0  0  0
 14 42  1  0  0  0  0
 15 16  2  0  0  0  0
 15 43  1  0  0  0  0
 16 17  1  0  0  0  0
 16 23  1  0  0  0  0
 17 22  1  0  0  0  0
 17 18  1  0  0  0  0
 18 19  1  0  0  0  0
 18 44  1  0  0  0  0
 18 45  1  0  0  0  0
 19 20  1  0  0  0  0
 19 46  1  0  0  0  0
 19 47  1  0  0  0  0
 20 21  1  0  0  0  0
 21 22  1  0  0  0  0
 21 48  1  0  0  0  0
 21 49  1  0  0  0  0
 22 50  1  0  0  0  0
 22 51  1  0  0  0  0
 23 24  2  0  0  0  0
 24 52  1  0  0  0  0
 25 53  1  0  0  0  0
 25 54  1  0  0  0  0
M  CHG  1   6   1
M  END
> <s_m_source_file>
AV-unprocessed.smi

> <i_m_source_file_index>
1788

> <i_lp_mmshare_version>
43012

> <i_f3d_flags>
0

> <s_epik_input>
W0NIM11bQ0BASF0xW0NIMl1bQ0gyXVtDSDJdTihbQ0gyXTEpW0NIMl1bQ0gyXVtOSF1DKD1PKVtOSF1jMltjSF1bY0hdYyhuW2NIXTIpTjNbQ0gyXVtDSDJdT1tDSDJdW0NIMl0z

> <s_epik_cmdline>
J2VwaWtfcHl0aG9uJywgJy1waCcsICc3LjAnLCAnLXRuJywgJzgnLCAnLW1hJywgJzIwMCcsICctbWV0YWxfYmluZGluZycsICctaW1hZScsICc8aW5maWxlLm1hZT4nLCAnLW9tYWUnLCAnPG91dGZpbGUubWFlPic=

> <r_lp_tautomer_probability>
1

> <r_epik_Ionization_Penalty>
0.00340126

> <r_epik_Ionization_Penalty_Charging>
0.00171832

> <r_epik_Ionization_Penalty_Neutral>
0.00168294

> <r_epik_State_Penalty>
-0

> <r_epik_Charging_Adjusted_Penalty>
0.00171832

> <i_epik_Tot_Q>
1

> <i_epik_Tot_abs_Q>
1

> <r_epik_Metal_State_Penalty>
-0

> <b_epik_Metal_Only>
0

> <s_lp_Force_Field>
OPLS_2005

> <r_lp_Energy>
34.1059

> <b_lp_Chiralities_Consistent>
1

> <s_lp_Variant>
AV-unprocessed.smi:1788-1

> <Gold.Version>
5.8.1

> <Gold.Id.Protein>
6NUR|6NUR_protein|mol2

> <Gold.PLP.Fitness>
53.3494

> <Gold.PLP.PLP>
-46.7452

> <Gold.PLP.part.hbond>
-4.0000

> <Gold.PLP.part.metal>
0.0000

> <Gold.PLP.part.buried>
1.5424

> <Gold.PLP.part.nonpolar>
-44.8183

> <Gold.PLP.part.repulsive>
1.2539

> <Gold.PLP.ligand.clash>
0.0000

> <Gold.PLP.ligand.torsion>
1.4056

> <Gold.PLP.Chemscore.Hbond>
3.0000

> <Gold.PLP.Chemscore.CHOScore>
0.0000

> <Gold.PLP.Chemscore.Metal>
0.0000

> <Gold.Chemscore.Hbonds>
donor molecule, donor type, donor heavy atom, donor atom, acceptor molecule, acceptor atom, score
      L1  H     6    55       P1  7948  2.00
      L1  H     9    40       P1  7948  1.00

> <Gold.PLP.Chemscore.Internal.Correction>
0.4154

> <Gold.Rescore>
     Score         DG    S(hbond)    S(metal)    S(lipo)     H(rot)  DE(clash)    DE(int)     intcor
     18.03     -21.02       1.89        0.00     113.73       1.60       0.20       2.80       ----

> <Gold.Chemscore.Fitness>
18.0252

> <Gold.Chemscore.DG>
-21.0248

> <Gold.Chemscore.ZeroCoef>
-5.4800

> <Gold.Chemscore.Hbond>
1.8947

> <Gold.Chemscore.Metal>
0.0000

> <Gold.Chemscore.Lipo>
113.7291

> <Gold.Chemscore.Internal_Hbond>
0.0000

> <Gold.Chemscore.DEClash>
0.1983

> <Gold.Chemscore.DEInternal>
2.8013

> <Gold.Chemscore.Rot>
1.5976

> <Gold.Chemscore.Internal.Correction>
   9.000000E+99

> <Gold.Chemscore.Hbonds>
donor molecule, donor type, donor heavy atom, donor atom, acceptor molecule, acceptor atom, score
      L1  H     6    55       P1  7948  1.00
      L1  H     9    40       P1  7948  0.97

> <Gold.Chemscore.Hbond.Weighted>
-6.3284

> <Gold.Chemscore.Metal.Weighted>
-0.0000

> <Gold.Chemscore.Lipo.Weighted>
-13.3063

> <Gold.Chemscore.Internal_Hbond.Weighted>
0.0000

> <Gold.Chemscore.DEClash.Weighted>
0.1983

> <Gold.Chemscore.DEInternal.Weighted>
2.8013

> <Gold.Chemscore.Rot.Weighted>
4.0899

> <Gold.Chemscore.Internal.Correction.Weighted>
   9.000000E+99

> <Gold.Protein.RotatedTorsions>
[ 6907 6896 6895 6894 ] final  156.33 input  -60.11 | X-H torsion
[ 7974 7965 7964 7962 ] final  151.98 input  175.53 | X-H torsion
[ 8008 7997 7996 7995 ] final   53.11 input   59.86 | X-H torsion
[ 10167 10162 10161 10158 ] final  -62.78 input  -65.29 | X-H torsion
[ 10718 10713 10712 10709 ] final  -17.84 input   66.30 | X-H torsion
[ 10763 10752 10751 10750 ] final -111.68 input  -60.55 | X-H torsion
[ 11005 11000 10999 10996 ] final  146.76 input  -57.11 | X-H torsion

> <Gold.Protein.ActiveResidues>
 VAL166  LYS551  ARG553  GLY616  TRP617  ASP618  TYR619  PRO620  LYS621  CYS622 
 ASP623  PHE694  ASN695  SER759  ASP760  ASP761  ALA762  ILE779  LEU786  VAL792 
 PHE793  MET794  SER795  GLU796  ALA797  LYS798  CYS799  TRP800  GLU811  SER814 

> <Gold.Protein.RotatedAtoms>
  152.0312  133.3938  159.4297 H   0  0  0  0  0  0  0  0  0  0  0  0  # atno 6907 bound_to 6896
  150.6882  134.3518  159.4922 H   0  0  0  0  0  0  0  0  0  0  0  0  # atno 6908 bound_to 6896
  152.1305  134.9138  160.0609 H   0  0  0  0  0  0  0  0  0  0  0  0  # atno 6909 bound_to 6896
  144.8254  139.6608  143.6082 H   0  0  0  0  0  0  0  0  0  0  0  0  # atno 7974 bound_to 7965
  155.4628  140.3462  155.4315 H   0  0  0  0  0  0  0  0  0  0  0  0  # atno 8008 bound_to 7997
  156.1150  140.1471  156.9315 H   0  0  0  0  0  0  0  0  0  0  0  0  # atno 8009 bound_to 7997
  154.4782  140.0878  156.7294 H   0  0  0  0  0  0  0  0  0  0  0  0  # atno 8010 bound_to 7997
  140.5915  143.2342  151.6128 H   0  0  0  0  0  0  0  0  0  0  0  0  # atno 10167 bound_to 10162
  156.5679  130.4742  149.6376 H   0  0  0  0  0  0  0  0  0  0  0  0  # atno 10718 bound_to 10713
  154.8312  135.4518  154.1076 H   0  0  0  0  0  0  0  0  0  0  0  0  # atno 10763 bound_to 10752
  153.2347  135.6909  153.7856 H   0  0  0  0  0  0  0  0  0  0  0  0  # atno 10764 bound_to 10752
  153.7226  135.3339  155.3246 H   0  0  0  0  0  0  0  0  0  0  0  0  # atno 10765 bound_to 10752
  140.0819  134.9092  157.1515 H   0  0  0  0  0  0  0  0  0  0  0  0  # atno 11005 bound_to 11000
  146.2560  139.6302  142.9395 LP  0  0  0  0  0  0  0  0  0  0  0  0  # atno 17320 bound_to 7965
  145.5011  141.0437  143.2540 LP  0  0  0  0  0  0  0  0  0  0  0  0  # atno 17321 bound_to 7965
  139.5231  144.3144  152.0965 LP  0  0  0  0  0  0  0  0  0  0  0  0  # atno 17342 bound_to 10162
  140.2309  144.4369  150.6300 LP  0  0  0  0  0  0  0  0  0  0  0  0  # atno 17343 bound_to 10162
  156.2740  130.7033  151.1839 LP  0  0  0  0  0  0  0  0  0  0  0  0  # atno 17370 bound_to 10713
  157.7354  131.0572  150.5469 LP  0  0  0  0  0  0  0  0  0  0  0  0  # atno 17371 bound_to 10713
  140.3475  134.2635  155.7203 LP  0  0  0  0  0  0  0  0  0  0  0  0  # atno 17394 bound_to 11000
  141.2050  133.7872  157.0259 LP  0  0  0  0  0  0  0  0  0  0  0  0  # atno 17395 bound_to 11000

$$$$
