AV-unprocessed.smi:2989|AV-procd|sdf|11391|dock8
  -GOLD-   2272016313D 1   1.00000     0.00000
 Structure written by MMmdl.
 31 33  0  0  0  0  0  0  0  0  1 V2000
  149.0686  142.4113  156.9940 O   0  0  0  0  0  0  0  0  0  0  0  0
  150.3926  142.0337  157.3118 C   0  0  2  0  0  0  0  0  0  0  0  0
  151.2453  143.3117  157.4372 C   0  0  0  0  0  0  0  0  0  0  0  0
  151.3347  143.7786  158.8098 N   0  0  0  0  0  0  0  0  0  0  0  0
  150.8258  145.0004  159.1354 N   0  0  0  0  0  0  0  0  0  0  0  0
  150.9973  145.1969  160.4087 N   0  0  0  0  0  0  0  0  0  0  0  0
  151.6292  144.0818  160.9334 C   0  0  0  0  0  0  0  0  0  0  0  0
  152.0426  143.7633  162.2469 C   0  0  0  0  0  0  0  0  0  0  0  0
  152.6722  142.5280  162.5125 C   0  0  0  0  0  0  0  0  0  0  0  0
  152.8955  141.5988  161.4735 C   0  0  0  0  0  0  0  0  0  0  0  0
  152.4911  141.9010  160.1586 C   0  0  0  0  0  0  0  0  0  0  0  0
  151.8661  143.1359  159.9115 C   0  0  0  0  0  0  0  0  0  0  0  0
  150.9701  141.0538  156.2996 C   0  0  0  0  0  0  0  0  0  0  0  0
  150.2215  140.7002  155.1562 C   0  0  0  0  0  0  0  0  0  0  0  0
  150.7354  139.7720  154.2301 C   0  0  0  0  0  0  0  0  0  0  0  0
  152.0005  139.1912  154.4423 C   0  0  0  0  0  0  0  0  0  0  0  0
  152.7516  139.5392  155.5812 C   0  0  0  0  0  0  0  0  0  0  0  0
  152.2384  140.4678  156.5073 C   0  0  0  0  0  0  0  0  0  0  0  0
  149.0985  143.2139  156.4959 H   0  0  0  0  0  0  0  0  0  0  0  0
  150.3466  141.5425  158.2849 H   0  0  0  0  0  0  0  0  0  0  0  0
  152.2541  143.1431  157.0582 H   0  0  0  0  0  0  0  0  0  0  0  0
  150.8170  144.1130  156.8325 H   0  0  0  0  0  0  0  0  0  0  0  0
  151.8744  144.4662  163.0493 H   0  0  0  0  0  0  0  0  0  0  0  0
  152.9839  142.2913  163.5190 H   0  0  0  0  0  0  0  0  0  0  0  0
  153.3755  140.6551  161.6865 H   0  0  0  0  0  0  0  0  0  0  0  0
  152.6534  141.1956  159.3569 H   0  0  0  0  0  0  0  0  0  0  0  0
  149.2452  141.1320  154.9910 H   0  0  0  0  0  0  0  0  0  0  0  0
  150.1573  139.5031  153.3585 H   0  0  0  0  0  0  0  0  0  0  0  0
  152.3936  138.4779  153.7330 H   0  0  0  0  0  0  0  0  0  0  0  0
  153.7204  139.0914  155.7464 H   0  0  0  0  0  0  0  0  0  0  0  0
  152.8180  140.7223  157.3826 H   0  0  0  0  0  0  0  0  0  0  0  0
  1  2  1  0  0  0  0
  1 19  1  0  0  0  0
  2  3  1  0  0  0  0
  2 13  1  0  0  0  0
  2 20  1  0  0  0  0
  3  4  1  0  0  0  0
  3 21  1  0  0  0  0
  3 22  1  0  0  0  0
  4 12  1  0  0  0  0
  4  5  1  0  0  0  0
  5  6  2  0  0  0  0
  6  7  1  0  0  0  0
  7 12  2  0  0  0  0
  7  8  1  0  0  0  0
  8  9  2  0  0  0  0
  8 23  1  0  0  0  0
  9 10  1  0  0  0  0
  9 24  1  0  0  0  0
 10 11  2  0  0  0  0
 10 25  1  0  0  0  0
 11 12  1  0  0  0  0
 11 26  1  0  0  0  0
 13 18  1  0  0  0  0
 13 14  2  0  0  0  0
 14 15  1  0  0  0  0
 14 27  1  0  0  0  0
 15 16  2  0  0  0  0
 15 28  1  0  0  0  0
 16 17  1  0  0  0  0
 16 29  1  0  0  0  0
 17 18  2  0  0  0  0
 17 30  1  0  0  0  0
 18 31  1  0  0  0  0
M  END
> <s_m_source_file>
AV-unprocessed.smi

> <i_m_source_file_index>
2989

> <i_lp_mmshare_version>
43012

> <i_f3d_flags>
0

> <s_epik_input>
W2NIXTFbY0hdW2NIXVtjSF1bY0hdYzFbQ0BIXShbT0hdKVtDSDJdbihubjIpYyhjMjMpW2NIXVtjSF1bY0hdW2NIXTM=

> <s_epik_cmdline>
J2VwaWtfcHl0aG9uJywgJy1waCcsICc3LjAnLCAnLXRuJywgJzgnLCAnLW1hJywgJzIwMCcsICctbWV0YWxfYmluZGluZycsICctaW1hZScsICc8aW5maWxlLm1hZT4nLCAnLW9tYWUnLCAnPG91dGZpbGUubWFlPic=

> <r_lp_tautomer_probability>
1

> <r_epik_Ionization_Penalty>
4.09993e-05

> <r_epik_Ionization_Penalty_Charging>
0

> <r_epik_Ionization_Penalty_Neutral>
4.09993e-05

> <r_epik_State_Penalty>
-0

> <r_epik_Charging_Adjusted_Penalty>
0

> <i_epik_Tot_Q>
0

> <i_epik_Tot_abs_Q>
0

> <r_epik_Metal_State_Penalty>
-0

> <b_epik_Metal_Only>
0

> <s_lp_Force_Field>
OPLS_2005

> <r_lp_Energy>
11.9105

> <b_lp_Chiralities_Consistent>
1

> <s_lp_Variant>
AV-unprocessed.smi:2989-1

> <Gold.Version>
5.8.1

> <Gold.Id.Protein>
6NUR|6NUR_protein|mol2

> <Gold.PLP.Fitness>
49.5396

> <Gold.PLP.PLP>
-47.5951

> <Gold.PLP.part.hbond>
-1.0000

> <Gold.PLP.part.metal>
0.0000

> <Gold.PLP.part.buried>
-4.5893

> <Gold.PLP.part.nonpolar>
-41.6335

> <Gold.PLP.part.repulsive>
0.2975

> <Gold.PLP.ligand.clash>
0.0000

> <Gold.PLP.ligand.torsion>
0.5347

> <Gold.PLP.Chemscore.Hbond>
1.0000

> <Gold.PLP.Chemscore.CHOScore>
0.0000

> <Gold.PLP.Chemscore.Metal>
0.0000

> <Gold.Chemscore.Hbonds>
donor molecule, donor type, donor heavy atom, donor atom, acceptor molecule, acceptor atom, score
      L1  H     1    19       P1  8028  1.00

> <Gold.PLP.Chemscore.Internal.Correction>
0.0139

> <Gold.Rescore>
     Score         DG    S(hbond)    S(metal)    S(lipo)     H(rot)  DE(clash)    DE(int)     intcor
     18.71     -19.35       0.98        0.00     128.88       1.76       0.14       0.50       ----

> <Gold.Chemscore.Fitness>
18.7121

> <Gold.Chemscore.DG>
-19.3528

> <Gold.Chemscore.ZeroCoef>
-5.4800

> <Gold.Chemscore.Hbond>
0.9848

> <Gold.Chemscore.Metal>
0.0000

> <Gold.Chemscore.Lipo>
128.8807

> <Gold.Chemscore.Internal_Hbond>
0.0000

> <Gold.Chemscore.DEClash>
0.1372

> <Gold.Chemscore.DEInternal>
0.5035

> <Gold.Chemscore.Rot>
1.7561

> <Gold.Chemscore.Internal.Correction>
   9.000000E+99

> <Gold.Chemscore.Hbonds>
donor molecule, donor type, donor heavy atom, donor atom, acceptor molecule, acceptor atom, score
      L1  H     1    19       P1  8028  0.99

> <Gold.Chemscore.Hbond.Weighted>
-3.2893

> <Gold.Chemscore.Metal.Weighted>
-0.0000

> <Gold.Chemscore.Lipo.Weighted>
-15.0790

> <Gold.Chemscore.Internal_Hbond.Weighted>
0.0000

> <Gold.Chemscore.DEClash.Weighted>
0.1372

> <Gold.Chemscore.DEInternal.Weighted>
0.5035

> <Gold.Chemscore.Rot.Weighted>
4.4955

> <Gold.Chemscore.Internal.Correction.Weighted>
   9.000000E+99

> <Gold.Protein.RotatedTorsions>
[ 6907 6896 6895 6894 ] final  161.70 input  -60.11 | X-H torsion
[ 7974 7965 7964 7962 ] final   28.58 input  175.53 | X-H torsion
[ 8008 7997 7996 7995 ] final -171.29 input   59.86 | X-H torsion
[ 10167 10162 10161 10158 ] final  117.53 input  -65.29 | X-H torsion
[ 10718 10713 10712 10709 ] final  136.10 input   66.30 | X-H torsion
[ 10763 10752 10751 10750 ] final   81.19 input  -60.55 | X-H torsion
[ 11005 11000 10999 10996 ] final   59.80 input  -57.11 | X-H torsion

> <Gold.Protein.ActiveResidues>
 VAL166  LYS551  ARG553  GLY616  TRP617  ASP618  TYR619  PRO620  LYS621  CYS622 
 ASP623  PHE694  ASN695  SER759  ASP760  ASP761  ALA762  ILE779  LEU786  VAL792 
 PHE793  MET794  SER795  GLU796  ALA797  LYS798  CYS799  TRP800  GLU811  SER814 

> <Gold.Protein.RotatedAtoms>
  151.9516  133.3667  159.4001 H   0  0  0  0  0  0  0  0  0  0  0  0  # atno 6907 bound_to 6896
  150.6980  134.4334  159.5268 H   0  0  0  0  0  0  0  0  0  0  0  0  # atno 6908 bound_to 6896
  152.2008  134.8589  160.0559 H   0  0  0  0  0  0  0  0  0  0  0  0  # atno 6909 bound_to 6896
  146.1720  139.7036  142.8960 H   0  0  0  0  0  0  0  0  0  0  0  0  # atno 7974 bound_to 7965
  155.9296  140.1089  157.1143 H   0  0  0  0  0  0  0  0  0  0  0  0  # atno 8008 bound_to 7997
  154.4068  140.1240  156.4850 H   0  0  0  0  0  0  0  0  0  0  0  0  # atno 8009 bound_to 7997
  155.7097  140.3471  155.4970 H   0  0  0  0  0  0  0  0  0  0  0  0  # atno 8010 bound_to 7997
  139.6172  144.7094  151.2713 H   0  0  0  0  0  0  0  0  0  0  0  0  # atno 10167 bound_to 10162
  157.4501  131.1065  151.0043 H   0  0  0  0  0  0  0  0  0  0  0  0  # atno 10718 bound_to 10713
  153.1096  135.4774  154.9012 H   0  0  0  0  0  0  0  0  0  0  0  0  # atno 10763 bound_to 10752
  154.7467  135.3095  154.8635 H   0  0  0  0  0  0  0  0  0  0  0  0  # atno 10764 bound_to 10752
  153.9227  135.6853  153.4801 H   0  0  0  0  0  0  0  0  0  0  0  0  # atno 10765 bound_to 10752
  140.0277  134.6058  155.9549 H   0  0  0  0  0  0  0  0  0  0  0  0  # atno 11005 bound_to 11000
  145.4313  141.0415  143.2909 LP  0  0  0  0  0  0  0  0  0  0  0  0  # atno 17320 bound_to 7965
  144.8178  139.5845  143.7000 LP  0  0  0  0  0  0  0  0  0  0  0  0  # atno 17321 bound_to 7965
  140.7359  143.6724  150.8070 LP  0  0  0  0  0  0  0  0  0  0  0  0  # atno 17342 bound_to 10162
  140.0329  143.5425  152.2752 LP  0  0  0  0  0  0  0  0  0  0  0  0  # atno 17343 bound_to 10162
  157.0876  130.5929  149.5433 LP  0  0  0  0  0  0  0  0  0  0  0  0  # atno 17370 bound_to 10713
  155.9984  130.5057  150.7568 LP  0  0  0  0  0  0  0  0  0  0  0  0  # atno 17371 bound_to 10713
  141.1813  133.6547  156.5031 LP  0  0  0  0  0  0  0  0  0  0  0  0  # atno 17394 bound_to 11000
  140.4278  134.7129  157.4925 LP  0  0  0  0  0  0  0  0  0  0  0  0  # atno 17395 bound_to 11000

$$$$
