AV-unprocessed.smi:1978|AV-procd|sdf|8009|dock4
  -GOLD-   2272010193D 1   1.00000     0.00000
 Structure written by MMmdl.
 44 45  0  0  0  0  0  0  0  0  3 V2000
  147.4439  134.2358  162.7831 C   0  0  0  0  0  0  0  0  0  0  0  0
  147.6304  135.1162  161.5953 C   0  0  0  0  0  0  0  0  0  0  0  0
  147.8874  134.8583  160.2784 C   0  0  0  0  0  0  0  0  0  0  0  0
  147.9477  136.1555  159.7024 C   0  0  0  0  0  0  0  0  0  0  0  0
  148.2067  136.3198  158.3158 N   0  0  0  0  0  0  0  0  0  0  0  0
  148.8547  135.4927  157.4752 C   0  0  0  0  0  0  0  0  0  0  0  0
  149.3421  134.4351  157.8915 O   0  0  0  0  0  0  0  0  0  0  0  0
  148.8823  135.9727  156.2019 N   0  5  0  0  0  0  0  0  0  0  0  0
  148.4634  135.2179  155.0211 C   0  0  0  0  0  0  0  0  0  0  0  0
  147.0596  135.6994  154.5360 C   0  0  1  0  0  0  0  0  0  0  0  0
  146.9767  137.2517  154.6677 C   0  0  0  0  0  0  0  0  0  0  0  0
  146.7645  135.1792  153.1499 N   0  3  1  0  0  0  0  0  0  0  0  0
  146.8882  133.6928  152.9937 C   0  0  0  0  0  0  0  0  0  0  0  0
  146.9686  133.3059  151.5073 C   0  0  0  0  0  0  0  0  0  0  0  0
  145.7543  133.8213  150.7268 C   0  0  0  0  0  0  0  0  0  0  0  0
  145.5652  135.3265  150.9705 C   0  0  0  0  0  0  0  0  0  0  0  0
  145.5210  135.6777  152.4737 C   0  0  1  0  0  0  0  0  0  0  0  0
  144.2113  135.1830  153.1352 C   0  0  0  0  0  0  0  0  0  0  0  0
  147.7454  137.1181  160.5898 N   0  0  0  0  0  0  0  0  0  0  0  0
  147.5411  136.4572  161.8068 O   0  0  0  0  0  0  0  0  0  0  0  0
  147.2228  133.2129  162.4783 H   0  0  0  0  0  0  0  0  0  0  0  0
  146.6195  134.5889  163.4029 H   0  0  0  0  0  0  0  0  0  0  0  0
  148.3452  134.2191  163.3955 H   0  0  0  0  0  0  0  0  0  0  0  0
  148.0136  133.8961  159.8054 H   0  0  0  0  0  0  0  0  0  0  0  0
  147.8475  137.1679  157.9038 H   0  0  0  0  0  0  0  0  0  0  0  0
  149.1757  135.3119  154.2004 H   0  0  0  0  0  0  0  0  0  0  0  0
  148.4278  134.1517  155.2420 H   0  0  0  0  0  0  0  0  0  0  0  0
  146.2942  135.2792  155.1911 H   0  0  0  0  0  0  0  0  0  0  0  0
  147.1898  137.5983  155.6813 H   0  0  0  0  0  0  0  0  0  0  0  0
  145.9845  137.6403  154.4518 H   0  0  0  0  0  0  0  0  0  0  0  0
  147.6745  137.7623  154.0007 H   0  0  0  0  0  0  0  0  0  0  0  0
  147.7785  133.2992  153.4811 H   0  0  0  0  0  0  0  0  0  0  0  0
  146.0525  133.1894  153.4793 H   0  0  0  0  0  0  0  0  0  0  0  0
  147.8814  133.7185  151.0756 H   0  0  0  0  0  0  0  0  0  0  0  0
  147.0425  132.2227  151.4067 H   0  0  0  0  0  0  0  0  0  0  0  0
  145.8850  133.6284  149.6616 H   0  0  0  0  0  0  0  0  0  0  0  0
  144.8613  133.2734  151.0275 H   0  0  0  0  0  0  0  0  0  0  0  0
  146.3892  135.8671  150.5024 H   0  0  0  0  0  0  0  0  0  0  0  0
  144.6576  135.6723  150.4746 H   0  0  0  0  0  0  0  0  0  0  0  0
  145.5185  136.7662  152.5045 H   0  0  0  0  0  0  0  0  0  0  0  0
  143.3502  135.6918  152.7012 H   0  0  0  0  0  0  0  0  0  0  0  0
  144.1860  135.3656  154.2078 H   0  0  0  0  0  0  0  0  0  0  0  0
  144.0488  134.1153  152.9973 H   0  0  0  0  0  0  0  0  0  0  0  0
  147.5160  135.5648  152.5960 H   0  0  0  0  0  0  0  0  0  0  0  0
  1  2  1  0  0  0  0
  1 21  1  0  0  0  0
  1 22  1  0  0  0  0
  1 23  1  0  0  0  0
  2 20  1  0  0  0  0
  2  3  2  0  0  0  0
  3  4  1  0  0  0  0
  3 24  1  0  0  0  0
  4  5  1  0  0  0  0
  4 19  2  0  0  0  0
  5  6  1  0  0  0  0
  5 25  1  0  0  0  0
  6  7  2  0  0  0  0
  6  8  1  0  0  0  0
  8  9  1  0  0  0  0
  9 10  1  0  0  0  0
  9 26  1  0  0  0  0
  9 27  1  0  0  0  0
 10 11  1  0  0  0  0
 10 12  1  0  0  0  0
 10 28  1  0  0  0  0
 11 29  1  0  0  0  0
 11 30  1  0  0  0  0
 11 31  1  0  0  0  0
 12 17  1  0  0  0  0
 12 13  1  0  0  0  0
 12 44  1  0  0  0  0
 13 14  1  0  0  0  0
 13 32  1  0  0  0  0
 13 33  1  0  0  0  0
 14 15  1  0  0  0  0
 14 34  1  0  0  0  0
 14 35  1  0  0  0  0
 15 16  1  0  0  0  0
 15 36  1  0  0  0  0
 15 37  1  0  0  0  0
 16 17  1  0  0  0  0
 16 38  1  0  0  0  0
 16 39  1  0  0  0  0
 17 18  1  0  0  0  0
 17 40  1  0  0  0  0
 18 41  1  0  0  0  0
 18 42  1  0  0  0  0
 18 43  1  0  0  0  0
 19 20  1  0  0  0  0
M  CHG  1   8  -1
M  CHG  1  12   1
M  END
> <s_m_source_file>
AV-unprocessed.smi

> <i_m_source_file_index>
1978

> <i_lp_mmshare_version>
43012

> <i_f3d_flags>
0

> <s_epik_input>
W0NIM11jMVtjSF1jKG5vMSlbTkhdQyg9TylbTkhdW0NIMl1bQ0BIXShbQ0gzXSlOMltDSDJdW0NIMl1bQ0gyXVtDSDJdW0NASF0yW0NIM10=

> <s_epik_cmdline>
J2VwaWtfcHl0aG9uJywgJy1waCcsICc3LjAnLCAnLXRuJywgJzgnLCAnLW1hJywgJzIwMCcsICctbWV0YWxfYmluZGluZycsICctaW1hZScsICc8aW5maWxlLm1hZT4nLCAnLW9tYWUnLCAnPG91dGZpbGUubWFlPic=

> <r_epik_Ionization_Penalty>
6.7666

> <r_epik_Ionization_Penalty_Charging>
6.7666

> <r_epik_Ionization_Penalty_Neutral>
5.77131e-06

> <r_epik_State_Penalty>
6.79217

> <r_epik_Charging_Adjusted_Penalty>
13.5588

> <i_epik_Tot_Q>
0

> <i_epik_Tot_abs_Q>
2

> <r_epik_Metal_State_Penalty>
2.72569

> <b_epik_Metal_Only>
1

> <s_lp_Force_Field>
OPLS_2005

> <r_lp_Energy>
25.8375

> <b_lp_Chiralities_Consistent>
1

> <s_lp_Variant>
AV-unprocessed.smi:1978-18

> <Gold.Version>
5.8.1

> <Gold.Id.Protein>
6NUR|6NUR_protein|mol2

> <Gold.PLP.Fitness>
38.7114

> <Gold.PLP.PLP>
-28.8836

> <Gold.PLP.part.hbond>
-4.7903

> <Gold.PLP.part.metal>
0.0000

> <Gold.PLP.part.buried>
-4.1079

> <Gold.PLP.part.nonpolar>
-20.2978

> <Gold.PLP.part.repulsive>
0.1007

> <Gold.PLP.ligand.clash>
0.0000

> <Gold.PLP.ligand.torsion>
0.8998

> <Gold.PLP.Chemscore.Hbond>
3.8320

> <Gold.PLP.Chemscore.CHOScore>
0.0000

> <Gold.PLP.Chemscore.Metal>
0.0000

> <Gold.Chemscore.Hbonds>
donor molecule, donor type, donor heavy atom, donor atom, acceptor molecule, acceptor atom, score
      L1  H    12    44       P1  7948  2.00
      P1  H  6896  6909       L1     7  1.00
      P1  H  6934  6947       L1    19  0.91

> <Gold.PLP.Chemscore.Internal.Correction>
0.1315

> <Gold.Rescore>
     Score         DG    S(hbond)    S(metal)    S(lipo)     H(rot)  DE(clash)    DE(int)     intcor
     16.12     -18.35       2.96        0.00      58.84       1.52       0.01       2.21       ----

> <Gold.Chemscore.Fitness>
16.1243

> <Gold.Chemscore.DG>
-18.3479

> <Gold.Chemscore.ZeroCoef>
-5.4800

> <Gold.Chemscore.Hbond>
2.9559

> <Gold.Chemscore.Metal>
0.0000

> <Gold.Chemscore.Lipo>
58.8370

> <Gold.Chemscore.Internal_Hbond>
0.0000

> <Gold.Chemscore.DEClash>
0.0089

> <Gold.Chemscore.DEInternal>
2.2147

> <Gold.Chemscore.Rot>
1.5190

> <Gold.Chemscore.Internal.Correction>
   9.000000E+99

> <Gold.Chemscore.Hbonds>
donor molecule, donor type, donor heavy atom, donor atom, acceptor molecule, acceptor atom, score
      L1  H    12    44       P1  7948  1.00
      P1  H  6896  6909       L1     7  0.96
      P1  H  6934  6947       L1    19  0.42

> <Gold.Chemscore.Hbond.Weighted>
-9.8726

> <Gold.Chemscore.Metal.Weighted>
-0.0000

> <Gold.Chemscore.Lipo.Weighted>
-6.8839

> <Gold.Chemscore.Internal_Hbond.Weighted>
0.0000

> <Gold.Chemscore.DEClash.Weighted>
0.0089

> <Gold.Chemscore.DEInternal.Weighted>
2.2147

> <Gold.Chemscore.Rot.Weighted>
3.8886

> <Gold.Chemscore.Internal.Correction.Weighted>
   9.000000E+99

> <Gold.Protein.RotatedTorsions>
[ 6907 6896 6895 6894 ] final   14.59 input  -60.11 | X-H torsion
[ 7974 7965 7964 7962 ] final  -54.04 input  175.53 | X-H torsion
[ 8008 7997 7996 7995 ] final   94.10 input   59.86 | X-H torsion
[ 10167 10162 10161 10158 ] final   -6.05 input  -65.29 | X-H torsion
[ 10718 10713 10712 10709 ] final  -94.37 input   66.30 | X-H torsion
[ 10763 10752 10751 10750 ] final -168.05 input  -60.55 | X-H torsion
[ 11005 11000 10999 10996 ] final -154.55 input  -57.11 | X-H torsion

> <Gold.Protein.ActiveResidues>
 VAL166  LYS551  ARG553  GLY616  TRP617  ASP618  TYR619  PRO620  LYS621  CYS622 
 ASP623  PHE694  ASN695  SER759  ASP760  ASP761  ALA762  ILE779  LEU786  VAL792 
 PHE793  MET794  SER795  GLU796  ALA797  LYS798  CYS799  TRP800  GLU811  SER814 

> <Gold.Protein.RotatedAtoms>
  151.8047  135.0698  160.0404 H   0  0  0  0  0  0  0  0  0  0  0  0  # atno 6907 bound_to 6896
  152.3064  133.5703  159.5660 H   0  0  0  0  0  0  0  0  0  0  0  0  # atno 6908 bound_to 6896
  150.7298  134.0133  159.3719 H   0  0  0  0  0  0  0  0  0  0  0  0  # atno 6909 bound_to 6896
  145.8901  140.8077  142.9796 H   0  0  0  0  0  0  0  0  0  0  0  0  # atno 7974 bound_to 7965
  156.0542  140.3304  155.7386 H   0  0  0  0  0  0  0  0  0  0  0  0  # atno 8008 bound_to 7997
  155.5554  140.0614  157.2858 H   0  0  0  0  0  0  0  0  0  0  0  0  # atno 8009 bound_to 7997
  154.4450  140.1887  156.0717 H   0  0  0  0  0  0  0  0  0  0  0  0  # atno 8010 bound_to 7997
  140.6984  143.6238  150.8587 H   0  0  0  0  0  0  0  0  0  0  0  0  # atno 10167 bound_to 10162
  156.0026  130.5065  150.5917 H   0  0  0  0  0  0  0  0  0  0  0  0  # atno 10718 bound_to 10713
  154.6669  135.2933  154.9794 H   0  0  0  0  0  0  0  0  0  0  0  0  # atno 10763 bound_to 10752
  154.0834  135.6601  153.4845 H   0  0  0  0  0  0  0  0  0  0  0  0  # atno 10764 bound_to 10752
  153.0463  135.5203  154.7646 H   0  0  0  0  0  0  0  0  0  0  0  0  # atno 10765 bound_to 10752
  140.6961  134.3989  157.5214 H   0  0  0  0  0  0  0  0  0  0  0  0  # atno 11005 bound_to 11000
  144.6730  140.1516  143.7429 LP  0  0  0  0  0  0  0  0  0  0  0  0  # atno 17320 bound_to 7965
  145.8919  139.2380  143.1545 LP  0  0  0  0  0  0  0  0  0  0  0  0  # atno 17321 bound_to 7965
  139.9958  143.5797  152.2893 LP  0  0  0  0  0  0  0  0  0  0  0  0  # atno 17342 bound_to 10162
  139.6469  144.7658  151.2226 LP  0  0  0  0  0  0  0  0  0  0  0  0  # atno 17343 bound_to 10162
  157.3780  131.0776  151.1501 LP  0  0  0  0  0  0  0  0  0  0  0  0  # atno 17370 bound_to 10713
  157.2232  130.6491  149.5819 LP  0  0  0  0  0  0  0  0  0  0  0  0  # atno 17371 bound_to 10713
  139.8910  134.8791  156.2343 LP  0  0  0  0  0  0  0  0  0  0  0  0  # atno 17394 bound_to 11000
  141.0202  133.7045  156.1256 LP  0  0  0  0  0  0  0  0  0  0  0  0  # atno 17395 bound_to 11000

$$$$
