AV-unprocessed.smi:264|AV-procd|sdf|2014|dock2
  -GOLD-   2262021213D 1   1.00000     0.00000
 Structure written by MMmdl.
 52 56  0  0  0  0  0  0  0  0  1 V2000
  146.7781  138.3242  151.1434 C   0  0  0  0  0  0  0  0  0  0  0  0
  146.1069  138.2086  152.5211 C   0  0  1  0  0  0  0  0  0  0  0  0
  146.1118  136.8315  152.8900 O   0  0  0  0  0  0  0  0  0  0  0  0
  146.1796  136.7350  154.3015 C   0  0  0  0  0  0  0  0  0  0  0  0
  147.1687  137.8346  154.6553 C   0  0  0  0  0  0  0  0  0  0  0  0
  146.7870  138.9622  153.6997 C   0  0  2  0  0  0  0  0  0  0  0  0
  145.7951  139.7503  154.3362 O   0  0  0  0  0  0  0  0  0  0  0  0
  147.9736  139.8907  153.3297 C   0  0  0  0  0  0  0  0  0  0  0  0
  148.6292  140.4842  154.4854 N   0  0  0  0  0  0  0  0  0  0  0  0
  148.0855  141.3911  155.3671 C   0  0  0  0  0  0  0  0  0  0  0  0
  148.8767  141.7731  156.3319 N   0  0  0  0  0  0  0  0  0  0  0  0
  150.0557  141.0741  156.1010 C   0  0  0  0  0  0  0  0  0  0  0  0
  151.3126  141.0057  156.7652 C   0  0  0  0  0  0  0  0  0  0  0  0
  151.5918  141.7324  157.8766 N   0  0  0  0  0  0  0  0  0  0  0  0
  152.1067  140.9605  159.0003 C   0  0  0  0  0  0  0  0  0  0  0  0
  152.7224  141.9032  160.0434 C   0  0  0  0  0  0  0  0  0  0  0  0
  151.7787  142.9023  160.4279 O   0  0  0  0  0  0  0  0  0  0  0  0
  151.2519  143.6889  159.3516 C   0  0  2  0  0  0  0  0  0  0  0  0
  152.2752  144.6798  158.8046 C   0  0  0  0  0  0  0  0  0  0  0  0
  152.2311  145.7897  159.8440 C   0  0  0  0  0  0  0  0  0  0  0  0
  150.8525  145.8996  160.1643 O   0  0  0  0  0  0  0  0  0  0  0  0
  150.2120  144.6411  159.9648 C   0  0  0  0  0  0  0  0  0  0  0  0
  150.6363  142.7580  158.2847 C   0  0  0  0  0  0  0  0  0  0  0  0
  152.2497  140.1682  156.2451 N   0  0  0  0  0  0  0  0  0  0  0  0
  151.9815  139.4521  155.1492 C   0  0  0  0  0  0  0  0  0  0  0  0
  150.8591  139.4180  154.4288 N   0  0  0  0  0  0  0  0  0  0  0  0
  149.9134  140.2525  154.9470 C   0  0  0  0  0  0  0  0  0  0  0  0
  146.7965  139.3564  150.7932 H   0  0  0  0  0  0  0  0  0  0  0  0
  146.2336  137.7395  150.4017 H   0  0  0  0  0  0  0  0  0  0  0  0
  147.8020  137.9503  151.1629 H   0  0  0  0  0  0  0  0  0  0  0  0
  145.0651  138.5193  152.4216 H   0  0  0  0  0  0  0  0  0  0  0  0
  145.1977  136.9317  154.7348 H   0  0  0  0  0  0  0  0  0  0  0  0
  146.5114  135.7478  154.6230 H   0  0  0  0  0  0  0  0  0  0  0  0
  147.1394  138.1178  155.7087 H   0  0  0  0  0  0  0  0  0  0  0  0
  148.1765  137.4809  154.4342 H   0  0  0  0  0  0  0  0  0  0  0  0
  145.1710  140.0303  153.6843 H   0  0  0  0  0  0  0  0  0  0  0  0
  148.7313  139.3387  152.7729 H   0  0  0  0  0  0  0  0  0  0  0  0
  147.6368  140.6969  152.6768 H   0  0  0  0  0  0  0  0  0  0  0  0
  147.0761  141.7643  155.2717 H   0  0  0  0  0  0  0  0  0  0  0  0
  151.2857  140.3975  159.4467 H   0  0  0  0  0  0  0  0  0  0  0  0
  152.8522  140.2326  158.6818 H   0  0  0  0  0  0  0  0  0  0  0  0
  153.0107  141.3378  160.9292 H   0  0  0  0  0  0  0  0  0  0  0  0
  153.6357  142.3569  159.6604 H   0  0  0  0  0  0  0  0  0  0  0  0
  153.2750  144.2748  158.6576 H   0  0  0  0  0  0  0  0  0  0  0  0
  151.9394  145.0736  157.8443 H   0  0  0  0  0  0  0  0  0  0  0  0
  152.7876  145.5034  160.7376 H   0  0  0  0  0  0  0  0  0  0  0  0
  152.6340  146.7329  159.4748 H   0  0  0  0  0  0  0  0  0  0  0  0
  149.3762  144.8029  159.2829 H   0  0  0  0  0  0  0  0  0  0  0  0
  149.8012  144.2579  160.8996 H   0  0  0  0  0  0  0  0  0  0  0  0
  150.3135  143.3410  157.4208 H   0  0  0  0  0  0  0  0  0  0  0  0
  149.7494  142.2695  158.6914 H   0  0  0  0  0  0  0  0  0  0  0  0
  152.7808  138.8157  154.7995 H   0  0  0  0  0  0  0  0  0  0  0  0
  1  2  1  0  0  0  0
  1 28  1  0  0  0  0
  1 29  1  0  0  0  0
  1 30  1  0  0  0  0
  2  6  1  0  0  0  0
  2  3  1  0  0  0  0
  2 31  1  0  0  0  0
  3  4  1  0  0  0  0
  4  5  1  0  0  0  0
  4 32  1  0  0  0  0
  4 33  1  0  0  0  0
  5  6  1  0  0  0  0
  5 34  1  0  0  0  0
  5 35  1  0  0  0  0
  6  7  1  0  0  0  0
  6  8  1  0  0  0  0
  7 36  1  0  0  0  0
  8  9  1  0  0  0  0
  8 37  1  0  0  0  0
  8 38  1  0  0  0  0
  9 27  1  0  0  0  0
  9 10  1  0  0  0  0
 10 11  2  0  0  0  0
 10 39  1  0  0  0  0
 11 12  1  0  0  0  0
 12 27  2  0  0  0  0
 12 13  1  0  0  0  0
 13 14  1  0  0  0  0
 13 24  2  0  0  0  0
 14 23  1  0  0  0  0
 14 15  1  0  0  0  0
 15 16  1  0  0  0  0
 15 40  1  0  0  0  0
 15 41  1  0  0  0  0
 16 17  1  0  0  0  0
 16 42  1  0  0  0  0
 16 43  1  0  0  0  0
 17 18  1  0  0  0  0
 18 22  1  0  0  0  0
 18 19  1  0  0  0  0
 18 23  1  0  0  0  0
 19 20  1  0  0  0  0
 19 44  1  0  0  0  0
 19 45  1  0  0  0  0
 20 21  1  0  0  0  0
 20 46  1  0  0  0  0
 20 47  1  0  0  0  0
 21 22  1  0  0  0  0
 22 48  1  0  0  0  0
 22 49  1  0  0  0  0
 23 50  1  0  0  0  0
 23 51  1  0  0  0  0
 24 25  1  0  0  0  0
 25 26  2  0  0  0  0
 25 52  1  0  0  0  0
 26 27  1  0  0  0  0
M  END
> <s_m_source_file>
AV-unprocessed.smi

> <i_m_source_file_index>
264

> <i_lp_mmshare_version>
43012

> <i_f3d_flags>
0

> <s_epik_input>
W0NIMl0xW0NIMl1PW0NAQEhdKFtDSDNdKVtDQEBdMShbT0hdKVtDSDJdbihbY0hdbjIpYyhjMjMpbltjSF1uYzNOKFtDSDJdNClbQ0gyXVtDSDJdT1tDQF00NVtDSDJdW0NIMl1PW0NIMl01

> <s_epik_cmdline>
J2VwaWtfcHl0aG9uJywgJy1waCcsICc3LjAnLCAnLXRuJywgJzgnLCAnLW1hJywgJzIwMCcsICctbWV0YWxfYmluZGluZycsICctaW1hZScsICc8aW5maWxlLm1hZT4nLCAnLW9tYWUnLCAnPG91dGZpbGUubWFlPic=

> <r_lp_tautomer_probability>
1

> <r_epik_Ionization_Penalty>
0.00539389

> <r_epik_Ionization_Penalty_Charging>
0

> <r_epik_Ionization_Penalty_Neutral>
0.00539389

> <r_epik_State_Penalty>
0.00375441

> <r_epik_Charging_Adjusted_Penalty>
0.00375441

> <i_epik_Tot_Q>
0

> <i_epik_Tot_abs_Q>
0

> <r_epik_Metal_State_Penalty>
-0

> <b_epik_Metal_Only>
0

> <s_lp_Force_Field>
OPLS_2005

> <r_lp_Energy>
54.0321

> <b_lp_Chiralities_Consistent>
1

> <s_lp_Variant>
AV-unprocessed.smi:264-8

> <Gold.Version>
5.8.1

> <Gold.Id.Protein>
6NUR|6NUR_protein|mol2

> <Gold.PLP.Fitness>
49.2418

> <Gold.PLP.PLP>
-43.2013

> <Gold.PLP.part.hbond>
-4.9254

> <Gold.PLP.part.metal>
0.0000

> <Gold.PLP.part.buried>
3.2792

> <Gold.PLP.part.nonpolar>
-41.6886

> <Gold.PLP.part.repulsive>
1.9035

> <Gold.PLP.ligand.clash>
0.0000

> <Gold.PLP.ligand.torsion>
0.1916

> <Gold.PLP.Chemscore.Hbond>
2.0475

> <Gold.PLP.Chemscore.CHOScore>
0.0000

> <Gold.PLP.Chemscore.Metal>
0.0000

> <Gold.Chemscore.Hbonds>
donor molecule, donor type, donor heavy atom, donor atom, acceptor molecule, acceptor atom, score
      L1  H     7    36       P1 10175  1.00
      P1  H  7989  7998       L1    26  0.14
      P1  H  7997  8010       L1    24  0.86

> <Gold.PLP.Chemscore.Internal.Correction>
0.2811

> <Gold.Rescore>
     Score         DG    S(hbond)    S(metal)    S(lipo)     H(rot)  DE(clash)    DE(int)     intcor
     13.35     -17.51       1.53        0.00     105.32       2.11       1.75       2.41       ----

> <Gold.Chemscore.Fitness>
13.3521

> <Gold.Chemscore.DG>
-17.5125

> <Gold.Chemscore.ZeroCoef>
-5.4800

> <Gold.Chemscore.Hbond>
1.5275

> <Gold.Chemscore.Metal>
0.0000

> <Gold.Chemscore.Lipo>
105.3234

> <Gold.Chemscore.Internal_Hbond>
0.0000

> <Gold.Chemscore.DEClash>
1.7460

> <Gold.Chemscore.DEInternal>
2.4144

> <Gold.Chemscore.Rot>
2.1063

> <Gold.Chemscore.Internal.Correction>
   9.000000E+99

> <Gold.Chemscore.Hbonds>
donor molecule, donor type, donor heavy atom, donor atom, acceptor molecule, acceptor atom, score
      L1  H     7    36       P1 10175  0.98
      P1  H  7997  8010       L1    24  0.29

> <Gold.Chemscore.Hbond.Weighted>
-5.1018

> <Gold.Chemscore.Metal.Weighted>
-0.0000

> <Gold.Chemscore.Lipo.Weighted>
-12.3228

> <Gold.Chemscore.Internal_Hbond.Weighted>
0.0000

> <Gold.Chemscore.DEClash.Weighted>
1.7460

> <Gold.Chemscore.DEInternal.Weighted>
2.4144

> <Gold.Chemscore.Rot.Weighted>
5.3921

> <Gold.Chemscore.Internal.Correction.Weighted>
   9.000000E+99

> <Gold.Protein.RotatedTorsions>
[ 6907 6896 6895 6894 ] final  -29.67 input  -60.11 | X-H torsion
[ 7974 7965 7964 7962 ] final   36.35 input  175.53 | X-H torsion
[ 8008 7997 7996 7995 ] final   81.21 input   59.86 | X-H torsion
[ 10167 10162 10161 10158 ] final   36.04 input  -65.29 | X-H torsion
[ 10718 10713 10712 10709 ] final   15.41 input   66.30 | X-H torsion
[ 10763 10752 10751 10750 ] final  100.88 input  -60.55 | X-H torsion
[ 11005 11000 10999 10996 ] final  144.34 input  -57.11 | X-H torsion

> <Gold.Protein.ActiveResidues>
 VAL166  LYS551  ARG553  GLY616  TRP617  ASP618  TYR619  PRO620  LYS621  CYS622 
 ASP623  PHE694  ASN695  SER759  ASP760  ASP761  ALA762  ILE779  LEU786  VAL792 
 PHE793  MET794  SER795  GLU796  ALA797  LYS798  CYS799  TRP800  GLU811  SER814 

> <Gold.Protein.RotatedAtoms>
  151.1160  135.0053  159.8515 H   0  0  0  0  0  0  0  0  0  0  0  0  # atno 6907 bound_to 6896
  152.5445  134.1779  159.8634 H   0  0  0  0  0  0  0  0  0  0  0  0  # atno 6908 bound_to 6896
  151.1834  133.4666  159.2627 H   0  0  0  0  0  0  0  0  0  0  0  0  # atno 6909 bound_to 6896
  146.1218  139.6029  142.9285 H   0  0  0  0  0  0  0  0  0  0  0  0  # atno 7974 bound_to 7965
  155.8940  140.3437  155.5977 H   0  0  0  0  0  0  0  0  0  0  0  0  # atno 8008 bound_to 7997
  155.7577  140.0828  157.2189 H   0  0  0  0  0  0  0  0  0  0  0  0  # atno 8009 bound_to 7997
  154.4036  140.1541  156.2784 H   0  0  0  0  0  0  0  0  0  0  0  0  # atno 8010 bound_to 7997
  140.4165  144.1520  150.6144 H   0  0  0  0  0  0  0  0  0  0  0  0  # atno 10167 bound_to 10162
  157.0531  130.6278  149.5771 H   0  0  0  0  0  0  0  0  0  0  0  0  # atno 10718 bound_to 10713
  153.3196  135.4063  155.1405 H   0  0  0  0  0  0  0  0  0  0  0  0  # atno 10763 bound_to 10752
  154.8597  135.3584  154.5614 H   0  0  0  0  0  0  0  0  0  0  0  0  # atno 10764 bound_to 10752
  153.6047  135.7070  153.5429 H   0  0  0  0  0  0  0  0  0  0  0  0  # atno 10765 bound_to 10752
  140.0625  134.9197  157.1208 H   0  0  0  0  0  0  0  0  0  0  0  0  # atno 11005 bound_to 11000
  145.5451  141.0418  143.2309 LP  0  0  0  0  0  0  0  0  0  0  0  0  # atno 17320 bound_to 7965
  144.7604  139.6971  143.7237 LP  0  0  0  0  0  0  0  0  0  0  0  0  # atno 17321 bound_to 7965
  140.4581  143.2460  151.9257 LP  0  0  0  0  0  0  0  0  0  0  0  0  # atno 17342 bound_to 10162
  139.4782  144.5495  151.8407 LP  0  0  0  0  0  0  0  0  0  0  0  0  # atno 17343 bound_to 10162
  156.0001  130.5079  150.7632 LP  0  0  0  0  0  0  0  0  0  0  0  0  # atno 17370 bound_to 10713
  157.5014  131.0919  151.0309 LP  0  0  0  0  0  0  0  0  0  0  0  0  # atno 17371 bound_to 10713
  140.3749  134.2350  155.7175 LP  0  0  0  0  0  0  0  0  0  0  0  0  # atno 17394 bound_to 11000
  141.1979  133.8048  157.0607 LP  0  0  0  0  0  0  0  0  0  0  0  0  # atno 17395 bound_to 11000

$$$$
