AV-unprocessed.smi:1703|AV-procd|sdf|6867|dock9
  -GOLD-   22720 8 63D 1   1.00000     0.00000
 Structure written by MMmdl.
 49 51  0  0  0  0  0  0  0  0  2 V2000
  149.1034  141.1265  156.8161 C   0  0  0  0  0  0  0  0  0  0  0  0
  149.6524  141.3098  155.3910 C   0  0  2  0  0  0  0  0  0  0  0  0
  148.6172  140.9894  154.2943 C   0  0  0  0  0  0  0  0  0  0  0  0
  148.3722  139.5550  154.1521 N   0  0  0  0  0  0  0  0  0  0  0  0
  147.4078  139.2460  153.0955 C   0  0  0  0  0  0  0  0  0  0  0  0
  146.5163  138.0125  153.3456 C   0  0  2  0  0  0  0  0  0  0  0  0
  147.3255  136.9543  153.8202 O   0  0  0  0  0  0  0  0  0  0  0  0
  145.7959  137.5696  152.0578 C   0  0  0  0  0  0  0  0  0  0  0  0
  144.7693  136.5430  152.3027 N   0  0  0  0  0  0  0  0  0  0  0  0
  143.6466  136.5993  153.0755 C   0  0  0  0  0  0  0  0  0  0  0  0
  143.1863  137.7662  153.8905 C   0  0  0  0  0  0  0  0  0  0  0  0
  142.0179  138.3762  153.3835 O   0  0  0  0  0  0  0  0  0  0  0  0
  143.0244  135.3905  152.9694 N   0  3  0  0  0  0  0  0  0  0  0  0
  143.7544  134.5537  152.1253 C   0  0  0  0  0  0  0  0  0  0  0  0
  143.5208  133.2438  151.7182 C   0  0  0  0  0  0  0  0  0  0  0  0
  144.4724  132.6725  150.8484 C   0  0  0  0  0  0  0  0  0  0  0  0
  145.6017  133.3984  150.4176 C   0  0  0  0  0  0  0  0  0  0  0  0
  145.8263  134.7268  150.8354 C   0  0  0  0  0  0  0  0  0  0  0  0
  144.8799  135.2861  151.6944 C   0  0  0  0  0  0  0  0  0  0  0  0
  149.6426  138.8831  153.9101 C   0  0  0  0  0  0  0  0  0  0  0  0
  150.6600  139.1490  155.0342 C   0  0  1  0  0  0  0  0  0  0  0  0
  152.0236  138.5161  154.7381 C   0  0  0  0  0  0  0  0  0  0  0  0
  150.8470  140.5555  155.1805 O   0  0  0  0  0  0  0  0  0  0  0  0
  148.2569  141.7899  156.9932 H   0  0  0  0  0  0  0  0  0  0  0  0
  149.8664  141.3585  157.5593 H   0  0  0  0  0  0  0  0  0  0  0  0
  148.7599  140.1079  156.9955 H   0  0  0  0  0  0  0  0  0  0  0  0
  149.9319  142.3590  155.2911 H   0  0  0  0  0  0  0  0  0  0  0  0
  147.6940  141.5197  154.5229 H   0  0  0  0  0  0  0  0  0  0  0  0
  148.9753  141.3903  153.3448 H   0  0  0  0  0  0  0  0  0  0  0  0
  146.7735  140.1183  152.9303 H   0  0  0  0  0  0  0  0  0  0  0  0
  147.9411  139.0894  152.1566 H   0  0  0  0  0  0  0  0  0  0  0  0
  145.7608  138.2274  154.0995 H   0  0  0  0  0  0  0  0  0  0  0  0
  147.7669  136.5604  153.0836 H   0  0  0  0  0  0  0  0  0  0  0  0
  145.2918  138.4240  151.6053 H   0  0  0  0  0  0  0  0  0  0  0  0
  146.5024  137.2090  151.3103 H   0  0  0  0  0  0  0  0  0  0  0  0
  142.9959  137.4358  154.9117 H   0  0  0  0  0  0  0  0  0  0  0  0
  143.9812  138.5111  153.9324 H   0  0  0  0  0  0  0  0  0  0  0  0
  142.2641  139.1718  152.9365 H   0  0  0  0  0  0  0  0  0  0  0  0
  142.6573  132.6855  152.0489 H   0  0  0  0  0  0  0  0  0  0  0  0
  144.3343  131.6568  150.5063 H   0  0  0  0  0  0  0  0  0  0  0  0
  146.3115  132.9267  149.7537 H   0  0  0  0  0  0  0  0  0  0  0  0
  146.6976  135.2691  150.5008 H   0  0  0  0  0  0  0  0  0  0  0  0
  149.4798  137.8080  153.8239 H   0  0  0  0  0  0  0  0  0  0  0  0
  150.0576  139.2119  152.9559 H   0  0  0  0  0  0  0  0  0  0  0  0
  150.2853  138.7337  155.9700 H   0  0  0  0  0  0  0  0  0  0  0  0
  151.9382  137.4351  154.6271 H   0  0  0  0  0  0  0  0  0  0  0  0
  152.7281  138.7128  155.5464 H   0  0  0  0  0  0  0  0  0  0  0  0
  152.4519  138.9146  153.8178 H   0  0  0  0  0  0  0  0  0  0  0  0
  142.1612  135.1614  153.4456 H   0  0  0  0  0  0  0  0  0  0  0  0
  1  2  1  0  0  0  0
  1 24  1  0  0  0  0
  1 25  1  0  0  0  0
  1 26  1  0  0  0  0
  2 23  1  0  0  0  0
  2  3  1  0  0  0  0
  2 27  1  0  0  0  0
  3  4  1  0  0  0  0
  3 28  1  0  0  0  0
  3 29  1  0  0  0  0
  4  5  1  0  0  0  0
  4 20  1  0  0  0  0
  5  6  1  0  0  0  0
  5 30  1  0  0  0  0
  5 31  1  0  0  0  0
  6  7  1  0  0  0  0
  6  8  1  0  0  0  0
  6 32  1  0  0  0  0
  7 33  1  0  0  0  0
  8  9  1  0  0  0  0
  8 34  1  0  0  0  0
  8 35  1  0  0  0  0
  9 19  1  0  0  0  0
  9 10  1  0  0  0  0
 10 11  1  0  0  0  0
 10 13  2  0  0  0  0
 11 12  1  0  0  0  0
 11 36  1  0  0  0  0
 11 37  1  0  0  0  0
 12 38  1  0  0  0  0
 13 14  1  0  0  0  0
 13 49  1  0  0  0  0
 14 19  2  0  0  0  0
 14 15  1  0  0  0  0
 15 16  2  0  0  0  0
 15 39  1  0  0  0  0
 16 17  1  0  0  0  0
 16 40  1  0  0  0  0
 17 18  2  0  0  0  0
 17 41  1  0  0  0  0
 18 19  1  0  0  0  0
 18 42  1  0  0  0  0
 20 21  1  0  0  0  0
 20 43  1  0  0  0  0
 20 44  1  0  0  0  0
 21 22  1  0  0  0  0
 21 23  1  0  0  0  0
 21 45  1  0  0  0  0
 22 46  1  0  0  0  0
 22 47  1  0  0  0  0
 22 48  1  0  0  0  0
M  CHG  1  13   1
M  END
> <s_m_source_file>
AV-unprocessed.smi

> <i_m_source_file_index>
1703

> <i_lp_mmshare_version>
43012

> <i_f3d_flags>
0

> <s_epik_input>
W0NIM11bQ0BASF0xW0NIMl1OKFtDSDJdW0NASF0oTzEpW0NIM10pW0NIMl1bQ0BIXShbT0hdKVtDSDJdbihjKG4yKVtDSDJdW09IXSljKGMyMylbY0hdW2NIXVtjSF1bY0hdMw==

> <s_epik_cmdline>
J2VwaWtfcHl0aG9uJywgJy1waCcsICc3LjAnLCAnLXRuJywgJzgnLCAnLW1hJywgJzIwMCcsICctbWV0YWxfYmluZGluZycsICctaW1hZScsICc8aW5maWxlLm1hZT4nLCAnLW9tYWUnLCAnPG91dGZpbGUubWFlPic=

> <r_epik_Ionization_Penalty>
1.7682

> <r_epik_Ionization_Penalty_Charging>
1.55298

> <r_epik_Ionization_Penalty_Neutral>
0.215215

> <r_epik_State_Penalty>
1.83821

> <r_epik_Charging_Adjusted_Penalty>
3.39119

> <i_epik_Tot_Q>
1

> <i_epik_Tot_abs_Q>
1

> <r_epik_Metal_State_Penalty>
5.89206

> <b_epik_Metal_Only>
0

> <s_lp_Force_Field>
OPLS_2005

> <r_lp_Energy>
34.6201

> <b_lp_Chiralities_Consistent>
1

> <s_lp_Variant>
AV-unprocessed.smi:1703-15

> <Gold.Version>
5.8.1

> <Gold.Id.Protein>
6NUR|6NUR_protein|mol2

> <Gold.PLP.Fitness>
48.1735

> <Gold.PLP.PLP>
-40.3908

> <Gold.PLP.part.hbond>
-3.0000

> <Gold.PLP.part.metal>
0.0000

> <Gold.PLP.part.buried>
-0.6405

> <Gold.PLP.part.nonpolar>
-36.2811

> <Gold.PLP.part.repulsive>
0.1978

> <Gold.PLP.ligand.clash>
0.0000

> <Gold.PLP.ligand.torsion>
0.6403

> <Gold.PLP.Chemscore.Hbond>
3.0000

> <Gold.PLP.Chemscore.CHOScore>
0.0000

> <Gold.PLP.Chemscore.Metal>
0.0000

> <Gold.Chemscore.Hbonds>
donor molecule, donor type, donor heavy atom, donor atom, acceptor molecule, acceptor atom, score
      L1  H     7    33       P1  7948  1.00
      L1  H    12    38       P1 10175  1.00
      P1  H  7989  7998       L1    23  0.88

> <Gold.PLP.Chemscore.Internal.Correction>
0.0634

> <Gold.Rescore>
     Score         DG    S(hbond)    S(metal)    S(lipo)     H(rot)  DE(clash)    DE(int)     intcor
     16.05     -16.81       2.25        0.00      97.18       2.96       0.04       0.73       ----

> <Gold.Chemscore.Fitness>
16.0483

> <Gold.Chemscore.DG>
-16.8149

> <Gold.Chemscore.ZeroCoef>
-5.4800

> <Gold.Chemscore.Hbond>
2.2546

> <Gold.Chemscore.Metal>
0.0000

> <Gold.Chemscore.Lipo>
97.1840

> <Gold.Chemscore.Internal_Hbond>
0.0000

> <Gold.Chemscore.DEClash>
0.0403

> <Gold.Chemscore.DEInternal>
0.7263

> <Gold.Chemscore.Rot>
2.9555

> <Gold.Chemscore.Internal.Correction>
   9.000000E+99

> <Gold.Chemscore.Hbonds>
donor molecule, donor type, donor heavy atom, donor atom, acceptor molecule, acceptor atom, score
      L1  H     7    33       P1  7948  1.00
      L1  H    12    38       P1 10175  0.92
      P1  H  7989  7998       L1    23  0.14

> <Gold.Chemscore.Hbond.Weighted>
-7.5304

> <Gold.Chemscore.Metal.Weighted>
-0.0000

> <Gold.Chemscore.Lipo.Weighted>
-11.3705

> <Gold.Chemscore.Internal_Hbond.Weighted>
0.0000

> <Gold.Chemscore.DEClash.Weighted>
0.0403

> <Gold.Chemscore.DEInternal.Weighted>
0.7263

> <Gold.Chemscore.Rot.Weighted>
7.5660

> <Gold.Chemscore.Internal.Correction.Weighted>
   9.000000E+99

> <Gold.Protein.RotatedTorsions>
[ 6907 6896 6895 6894 ] final  -50.41 input  -60.11 | X-H torsion
[ 7974 7965 7964 7962 ] final   96.04 input  175.53 | X-H torsion
[ 8008 7997 7996 7995 ] final  -84.92 input   59.86 | X-H torsion
[ 10167 10162 10161 10158 ] final  144.72 input  -65.29 | X-H torsion
[ 10718 10713 10712 10709 ] final   88.99 input   66.30 | X-H torsion
[ 10763 10752 10751 10750 ] final  167.38 input  -60.55 | X-H torsion
[ 11005 11000 10999 10996 ] final   21.87 input  -57.11 | X-H torsion

> <Gold.Protein.ActiveResidues>
 VAL166  LYS551  ARG553  GLY616  TRP617  ASP618  TYR619  PRO620  LYS621  CYS622 
 ASP623  PHE694  ASN695  SER759  ASP760  ASP761  ALA762  ILE779  LEU786  VAL792 
 PHE793  MET794  SER795  GLU796  ALA797  LYS798  CYS799  TRP800  GLU811  SER814 

> <Gold.Protein.RotatedAtoms>
  150.8710  134.8084  159.7154 H   0  0  0  0  0  0  0  0  0  0  0  0  # atno 6907 bound_to 6896
  152.4714  134.4947  159.9716 H   0  0  0  0  0  0  0  0  0  0  0  0  # atno 6908 bound_to 6896
  151.5035  133.3461  159.2908 H   0  0  0  0  0  0  0  0  0  0  0  0  # atno 6909 bound_to 6896
  145.4442  139.2298  143.3075 H   0  0  0  0  0  0  0  0  0  0  0  0  # atno 7974 bound_to 7965
  154.6351  140.0598  156.9779 H   0  0  0  0  0  0  0  0  0  0  0  0  # atno 8008 bound_to 7997
  155.1604  140.3282  155.4394 H   0  0  0  0  0  0  0  0  0  0  0  0  # atno 8009 bound_to 7997
  156.2503  140.1931  156.6712 H   0  0  0  0  0  0  0  0  0  0  0  0  # atno 8010 bound_to 7997
  139.4941  144.5952  151.6598 H   0  0  0  0  0  0  0  0  0  0  0  0  # atno 10167 bound_to 10162
  157.6952  131.0316  150.3357 H   0  0  0  0  0  0  0  0  0  0  0  0  # atno 10718 bound_to 10713
  154.3530  135.2753  155.2362 H   0  0  0  0  0  0  0  0  0  0  0  0  # atno 10763 bound_to 10752
  154.4583  135.5913  153.6242 H   0  0  0  0  0  0  0  0  0  0  0  0  # atno 10764 bound_to 10752
  152.9848  135.6058  154.3742 H   0  0  0  0  0  0  0  0  0  0  0  0  # atno 10765 bound_to 10752
  140.3868  134.1862  155.7663 H   0  0  0  0  0  0  0  0  0  0  0  0  # atno 11005 bound_to 11000
  146.2540  140.5194  142.8881 LP  0  0  0  0  0  0  0  0  0  0  0  0  # atno 17320 bound_to 7965
  144.8102  140.6372  143.6420 LP  0  0  0  0  0  0  0  0  0  0  0  0  # atno 17321 bound_to 7965
  140.5588  144.0303  150.6160 LP  0  0  0  0  0  0  0  0  0  0  0  0  # atno 17342 bound_to 10162
  140.3382  143.3036  152.0616 LP  0  0  0  0  0  0  0  0  0  0  0  0  # atno 17343 bound_to 10162
  156.3825  130.3883  149.7091 LP  0  0  0  0  0  0  0  0  0  0  0  0  # atno 17370 bound_to 10713
  156.4468  130.7887  151.2909 LP  0  0  0  0  0  0  0  0  0  0  0  0  # atno 17371 bound_to 10713
  141.1905  133.8216  157.0917 LP  0  0  0  0  0  0  0  0  0  0  0  0  # atno 17394 bound_to 11000
  140.0437  134.9841  157.1009 LP  0  0  0  0  0  0  0  0  0  0  0  0  # atno 17395 bound_to 11000

$$$$
