AV-unprocessed.smi:243|AV-procd|sdf|1855|dock10
  -GOLD-   2262020483D 1   1.00000     0.00000
 Structure written by MMmdl.
 58 61  0  0  0  0  0  0  0  0  2 V2000
  144.7547  131.5056  151.0547 C   0  0  0  0  0  0  0  0  0  0  0  0
  145.1610  132.9368  150.6734 C   0  0  0  0  0  0  0  0  0  0  0  0
  145.8448  133.6510  151.7813 N   0  3  1  0  0  0  0  0  0  0  0  0
  144.9309  134.0195  152.8917 C   0  0  0  0  0  0  0  0  0  0  0  0
  145.6581  134.8870  153.9262 C   0  0  0  0  0  0  0  0  0  0  0  0
  146.9077  134.1740  154.4885 C   0  0  2  0  0  0  0  0  0  0  0  0
  147.5901  134.9724  155.5193 N   0  0  0  0  0  0  0  0  0  0  0  0
  146.9561  135.0344  156.8313 C   0  0  0  0  0  0  0  0  0  0  0  0
  148.1701  136.1357  155.1303 C   0  0  0  0  0  0  0  0  0  0  0  0
  149.5253  136.1895  155.1172 N   0  0  0  0  0  0  0  0  0  0  0  0
  150.1519  137.3082  154.7417 C   0  0  0  0  0  0  0  0  0  0  0  0
  149.6233  138.4683  154.3485 N   0  0  0  0  0  0  0  0  0  0  0  0
  148.2606  138.4248  154.3695 C   0  0  0  0  0  0  0  0  0  0  0  0
  147.4589  137.3099  154.7456 C   0  0  0  0  0  0  0  0  0  0  0  0
  146.1128  137.6376  154.6289 N   0  0  0  0  0  0  0  0  0  0  0  0
  146.1190  138.8743  154.2129 C   0  0  0  0  0  0  0  0  0  0  0  0
  147.3668  139.4270  154.0345 N   0  0  0  0  0  0  0  0  0  0  0  0
  147.6660  140.7753  153.5781 C   0  0  0  0  0  0  0  0  0  0  0  0
  148.3905  141.6388  154.6371 C   0  0  2  0  0  0  0  0  0  0  0  0
  148.4983  142.9678  154.1578 O   0  0  0  0  0  0  0  0  0  0  0  0
  149.7875  141.1410  154.9996 C   0  0  0  0  0  0  0  0  0  0  0  0
  149.9139  141.5195  156.4686 C   0  0  0  0  0  0  0  0  0  0  0  0
  148.6165  141.2454  156.9676 O   0  0  0  0  0  0  0  0  0  0  0  0
  147.6645  141.6677  155.9970 C   0  0  0  0  0  0  0  0  0  0  0  0
  147.8265  133.7170  153.3245 C   0  0  1  0  0  0  0  0  0  0  0  0
  149.0161  132.8760  153.8229 C   0  0  0  0  0  0  0  0  0  0  0  0
  147.0233  132.9029  152.2872 C   0  0  0  0  0  0  0  0  0  0  0  0
  144.1759  131.0464  150.2529 H   0  0  0  0  0  0  0  0  0  0  0  0
  144.1364  131.4976  151.9528 H   0  0  0  0  0  0  0  0  0  0  0  0
  145.6184  130.8658  151.2331 H   0  0  0  0  0  0  0  0  0  0  0  0
  145.7916  132.9345  149.7832 H   0  0  0  0  0  0  0  0  0  0  0  0
  144.2517  133.4764  150.4056 H   0  0  0  0  0  0  0  0  0  0  0  0
  144.0734  134.5742  152.5124 H   0  0  0  0  0  0  0  0  0  0  0  0
  144.5397  133.1165  153.3631 H   0  0  0  0  0  0  0  0  0  0  0  0
  145.9388  135.8285  153.4529 H   0  0  0  0  0  0  0  0  0  0  0  0
  144.9682  135.1388  154.7318 H   0  0  0  0  0  0  0  0  0  0  0  0
  146.5599  133.2696  154.9901 H   0  0  0  0  0  0  0  0  0  0  0  0
  147.5455  135.6352  157.5257 H   0  0  0  0  0  0  0  0  0  0  0  0
  146.8726  134.0322  157.2521 H   0  0  0  0  0  0  0  0  0  0  0  0
  145.9540  135.4587  156.7733 H   0  0  0  0  0  0  0  0  0  0  0  0
  151.2310  137.2685  154.7591 H   0  0  0  0  0  0  0  0  0  0  0  0
  145.2066  139.4210  154.0237 H   0  0  0  0  0  0  0  0  0  0  0  0
  148.2661  140.7080  152.6697 H   0  0  0  0  0  0  0  0  0  0  0  0
  146.7272  141.2490  153.2880 H   0  0  0  0  0  0  0  0  0  0  0  0
  148.4248  143.5585  154.8918 H   0  0  0  0  0  0  0  0  0  0  0  0
  149.8352  140.0547  154.9144 H   0  0  0  0  0  0  0  0  0  0  0  0
  150.5806  141.5578  154.3773 H   0  0  0  0  0  0  0  0  0  0  0  0
  150.6774  140.9426  156.9910 H   0  0  0  0  0  0  0  0  0  0  0  0
  150.1387  142.5809  156.5849 H   0  0  0  0  0  0  0  0  0  0  0  0
  147.3066  142.6670  156.2505 H   0  0  0  0  0  0  0  0  0  0  0  0
  146.8046  140.9980  156.0246 H   0  0  0  0  0  0  0  0  0  0  0  0
  148.2185  134.5955  152.8111 H   0  0  0  0  0  0  0  0  0  0  0  0
  148.6758  131.9736  154.3317 H   0  0  0  0  0  0  0  0  0  0  0  0
  149.6434  133.4286  154.5216 H   0  0  0  0  0  0  0  0  0  0  0  0
  149.6532  132.5682  152.9934 H   0  0  0  0  0  0  0  0  0  0  0  0
  146.6896  131.9584  152.7207 H   0  0  0  0  0  0  0  0  0  0  0  0
  147.6770  132.6514  151.4508 H   0  0  0  0  0  0  0  0  0  0  0  0
  146.2020  134.5116  151.3908 H   0  0  0  0  0  0  0  0  0  0  0  0
  1  2  1  0  0  0  0
  1 28  1  0  0  0  0
  1 29  1  0  0  0  0
  1 30  1  0  0  0  0
  2  3  1  0  0  0  0
  2 31  1  0  0  0  0
  2 32  1  0  0  0  0
  3 27  1  0  0  0  0
  3  4  1  0  0  0  0
  3 58  1  0  0  0  0
  4  5  1  0  0  0  0
  4 33  1  0  0  0  0
  4 34  1  0  0  0  0
  5  6  1  0  0  0  0
  5 35  1  0  0  0  0
  5 36  1  0  0  0  0
  6  7  1  0  0  0  0
  6 25  1  0  0  0  0
  6 37  1  0  0  0  0
  7  8  1  0  0  0  0
  7  9  1  0  0  0  0
  8 38  1  0  0  0  0
  8 39  1  0  0  0  0
  8 40  1  0  0  0  0
  9 14  1  0  0  0  0
  9 10  2  0  0  0  0
 10 11  1  0  0  0  0
 11 12  2  0  0  0  0
 11 41  1  0  0  0  0
 12 13  1  0  0  0  0
 13 17  1  0  0  0  0
 13 14  2  0  0  0  0
 14 15  1  0  0  0  0
 15 16  2  0  0  0  0
 16 17  1  0  0  0  0
 16 42  1  0  0  0  0
 17 18  1  0  0  0  0
 18 19  1  0  0  0  0
 18 43  1  0  0  0  0
 18 44  1  0  0  0  0
 19 24  1  0  0  0  0
 19 20  1  0  0  0  0
 19 21  1  0  0  0  0
 20 45  1  0  0  0  0
 21 22  1  0  0  0  0
 21 46  1  0  0  0  0
 21 47  1  0  0  0  0
 22 23  1  0  0  0  0
 22 48  1  0  0  0  0
 22 49  1  0  0  0  0
 23 24  1  0  0  0  0
 24 50  1  0  0  0  0
 24 51  1  0  0  0  0
 25 26  1  0  0  0  0
 25 27  1  0  0  0  0
 25 52  1  0  0  0  0
 26 53  1  0  0  0  0
 26 54  1  0  0  0  0
 26 55  1  0  0  0  0
 27 56  1  0  0  0  0
 27 57  1  0  0  0  0
M  CHG  1   3   1
M  END
> <s_m_source_file>
AV-unprocessed.smi

> <i_m_source_file_index>
243

> <i_lp_mmshare_version>
43012

> <i_f3d_flags>
0

> <s_epik_input>
W0NIM11bQ0gyXU4xW0NIMl1bQ0gyXVtDQEhdKFtDQEBIXShbQ0gzXSlbQ0gyXTEpTihbQ0gzXSljKG5bY0hdbjIpYyhjMjMpbltjSF1uM1tDSDJdW0NAQF00KFtPSF0pW0NIMl1bQ0gyXU9bQ0gyXTQ=

> <s_epik_cmdline>
J2VwaWtfcHl0aG9uJywgJy1waCcsICc3LjAnLCAnLXRuJywgJzgnLCAnLW1hJywgJzIwMCcsICctbWV0YWxfYmluZGluZycsICctaW1hZScsICc8aW5maWxlLm1hZT4nLCAnLW9tYWUnLCAnPG91dGZpbGUubWFlPic=

> <r_lp_tautomer_probability>
1

> <r_epik_Ionization_Penalty>
0.00253099

> <r_epik_Ionization_Penalty_Charging>
0.00137877

> <r_epik_Ionization_Penalty_Neutral>
0.00115221

> <r_epik_State_Penalty>
-0

> <r_epik_Charging_Adjusted_Penalty>
0.00137877

> <i_epik_Tot_Q>
1

> <i_epik_Tot_abs_Q>
1

> <r_epik_Metal_State_Penalty>
-0

> <b_epik_Metal_Only>
0

> <s_lp_Force_Field>
OPLS_2005

> <r_lp_Energy>
45.753

> <b_lp_Chiralities_Consistent>
1

> <s_lp_Variant>
AV-unprocessed.smi:243-8

> <Gold.Version>
5.8.1

> <Gold.Id.Protein>
6NUR|6NUR_protein|mol2

> <Gold.PLP.Fitness>
38.7979

> <Gold.PLP.PLP>
-33.0405

> <Gold.PLP.part.hbond>
-2.4935

> <Gold.PLP.part.metal>
0.0000

> <Gold.PLP.part.buried>
-0.8434

> <Gold.PLP.part.nonpolar>
-28.8770

> <Gold.PLP.part.repulsive>
0.5474

> <Gold.PLP.ligand.clash>
0.0000

> <Gold.PLP.ligand.torsion>
0.4851

> <Gold.PLP.Chemscore.Hbond>
1.0000

> <Gold.PLP.Chemscore.CHOScore>
1.0000

> <Gold.PLP.Chemscore.Metal>
0.0000

> <Gold.Chemscore.Hbonds>
donor molecule, donor type, donor heavy atom, donor atom, acceptor molecule, acceptor atom, score
      L1  H    20    45       P1  8028  0.76
      L1  C    16    42       P1 10175  1.00

> <Gold.PLP.Chemscore.Internal.Correction>
0.7277

> <Gold.Rescore>
     Score         DG    S(hbond)    S(metal)    S(lipo)     H(rot)  DE(clash)    DE(int)     intcor
      6.53     -10.06       0.72        0.00      73.89       2.53       0.15       3.37       ----

> <Gold.Chemscore.Fitness>
6.5349

> <Gold.Chemscore.DG>
-10.0564

> <Gold.Chemscore.ZeroCoef>
-5.4800

> <Gold.Chemscore.Hbond>
0.7212

> <Gold.Chemscore.Metal>
0.0000

> <Gold.Chemscore.Lipo>
73.8947

> <Gold.Chemscore.Internal_Hbond>
0.0000

> <Gold.Chemscore.DEClash>
0.1519

> <Gold.Chemscore.DEInternal>
3.3697

> <Gold.Chemscore.Rot>
2.5305

> <Gold.Chemscore.Internal.Correction>
   9.000000E+99

> <Gold.Chemscore.Hbonds>
donor molecule, donor type, donor heavy atom, donor atom, acceptor molecule, acceptor atom, score
      L1  H    20    45       P1  8028  0.71

> <Gold.Chemscore.Hbond.Weighted>
-2.4087

> <Gold.Chemscore.Metal.Weighted>
-0.0000

> <Gold.Chemscore.Lipo.Weighted>
-8.6457

> <Gold.Chemscore.Internal_Hbond.Weighted>
0.0000

> <Gold.Chemscore.DEClash.Weighted>
0.1519

> <Gold.Chemscore.DEInternal.Weighted>
3.3697

> <Gold.Chemscore.Rot.Weighted>
6.4780

> <Gold.Chemscore.Internal.Correction.Weighted>
   9.000000E+99

> <Gold.Protein.RotatedTorsions>
[ 6907 6896 6895 6894 ] final  163.99 input  -60.11 | X-H torsion
[ 7974 7965 7964 7962 ] final  -75.25 input  175.53 | X-H torsion
[ 8008 7997 7996 7995 ] final   57.65 input   59.86 | X-H torsion
[ 10167 10162 10161 10158 ] final   50.64 input  -65.29 | X-H torsion
[ 10718 10713 10712 10709 ] final  -20.09 input   66.30 | X-H torsion
[ 10763 10752 10751 10750 ] final   58.61 input  -60.55 | X-H torsion
[ 11005 11000 10999 10996 ] final  -56.77 input  -57.11 | X-H torsion

> <Gold.Protein.ActiveResidues>
 VAL166  LYS551  ARG553  GLY616  TRP617  ASP618  TYR619  PRO620  LYS621  CYS622 
 ASP623  PHE694  ASN695  SER759  ASP760  ASP761  ALA762  ILE779  LEU786  VAL792 
 PHE793  MET794  SER795  GLU796  ALA797  LYS798  CYS799  TRP800  GLU811  SER814 

> <Gold.Protein.RotatedAtoms>
  151.9167  133.3575  159.3882 H   0  0  0  0  0  0  0  0  0  0  0  0  # atno 6907 bound_to 6896
  150.7046  134.4677  159.5420 H   0  0  0  0  0  0  0  0  0  0  0  0  # atno 6908 bound_to 6896
  152.2293  134.8337  160.0526 H   0  0  0  0  0  0  0  0  0  0  0  0  # atno 6909 bound_to 6896
  145.6285  140.9344  143.1100 H   0  0  0  0  0  0  0  0  0  0  0  0  # atno 7974 bound_to 7965
  155.5372  140.3483  155.4439 H   0  0  0  0  0  0  0  0  0  0  0  0  # atno 8008 bound_to 7997
  156.0677  140.1355  156.9893 H   0  0  0  0  0  0  0  0  0  0  0  0  # atno 8009 bound_to 7997
  154.4511  140.0972  156.6596 H   0  0  0  0  0  0  0  0  0  0  0  0  # atno 8010 bound_to 7997
  140.2703  144.3273  150.6292 H   0  0  0  0  0  0  0  0  0  0  0  0  # atno 10167 bound_to 10162
  156.5366  130.4668  149.6519 H   0  0  0  0  0  0  0  0  0  0  0  0  # atno 10718 bound_to 10713
  152.9875  135.5601  154.5579 H   0  0  0  0  0  0  0  0  0  0  0  0  # atno 10763 bound_to 10752
  154.5004  135.2797  155.1427 H   0  0  0  0  0  0  0  0  0  0  0  0  # atno 10764 bound_to 10752
  154.2860  135.6335  153.5419 H   0  0  0  0  0  0  0  0  0  0  0  0  # atno 10765 bound_to 10752
  141.1135  133.6610  156.4670 H   0  0  0  0  0  0  0  0  0  0  0  0  # atno 11005 bound_to 11000
  144.7203  139.8054  143.7384 LP  0  0  0  0  0  0  0  0  0  0  0  0  # atno 17320 bound_to 7965
  146.1375  139.4424  143.0129 LP  0  0  0  0  0  0  0  0  0  0  0  0  # atno 17321 bound_to 7965
  140.5895  143.2168  151.7279 LP  0  0  0  0  0  0  0  0  0  0  0  0  # atno 17342 bound_to 10162
  139.4991  144.3960  152.0230 LP  0  0  0  0  0  0  0  0  0  0  0  0  # atno 17343 bound_to 10162
  156.3010  130.7176  151.2048 LP  0  0  0  0  0  0  0  0  0  0  0  0  # atno 17370 bound_to 10713
  157.7412  131.0506  150.5110 LP  0  0  0  0  0  0  0  0  0  0  0  0  # atno 17371 bound_to 10713
  140.4710  134.6753  157.5129 LP  0  0  0  0  0  0  0  0  0  0  0  0  # atno 17394 bound_to 11000
  140.0043  134.6788  155.9480 LP  0  0  0  0  0  0  0  0  0  0  0  0  # atno 17395 bound_to 11000

$$$$
