AV-unprocessed.smi:2892|AV-procd|sdf|11118|dock3
  -GOLD-   2272015583D 1   1.00000     0.00000
 Structure written by MMmdl.
 42 42  0  0  0  0  0  0  0  0  2 V2000
  153.1265  142.7146  160.6778 C   0  0  0  0  0  0  0  0  0  0  0  0
  153.4029  141.4767  159.8111 C   0  0  0  0  0  0  0  0  0  0  0  0
  153.7174  140.1887  160.6156 C   0  0  2  0  0  0  0  0  0  0  0  0
  155.1334  140.2837  161.2313 C   0  0  0  0  0  0  0  0  0  0  0  0
  153.5367  138.9096  159.7390 C   0  0  2  0  0  0  0  0  0  0  0  0
  152.1911  138.9032  159.1608 N   0  0  0  0  0  0  0  0  0  0  0  0
  151.8976  138.9493  157.8516 C   0  0  0  0  0  0  0  0  0  0  0  0
  152.7551  139.0304  156.9705 O   0  0  0  0  0  0  0  0  0  0  0  0
  150.4044  138.8914  157.5060 C   0  0  0  0  0  0  0  0  0  0  0  0
  149.9728  140.0595  156.6567 C   0  0  0  0  0  0  0  0  0  0  0  0
  150.5216  141.3736  156.6223 C   0  0  0  0  0  0  0  0  0  0  0  0
  149.7698  142.0206  155.6842 C   0  0  0  0  0  0  0  0  0  0  0  0
  148.8349  141.1228  155.2138 N   0  0  0  0  0  0  0  0  0  0  0  0
  147.8126  141.3354  154.2000 C   0  0  0  0  0  0  0  0  0  0  0  0
  146.9004  142.5166  154.5685 C   0  0  0  0  0  0  0  0  0  0  0  0
  147.0103  140.0494  153.9443 C   0  0  0  0  0  0  0  0  0  0  0  0
  148.9569  139.9198  155.8175 N   0  0  0  0  0  0  0  0  0  0  0  0
  153.6898  137.6352  160.5915 C   0  0  0  0  0  0  0  0  0  0  0  0
  154.0081  137.7900  161.7907 O   0  0  0  0  0  0  0  0  0  0  0  0
  153.4821  136.5333  160.0346 O   0  5  0  0  0  0  0  0  0  0  0  0
  152.8201  143.5555  160.0555 H   0  0  0  0  0  0  0  0  0  0  0  0
  154.0079  143.0308  161.2345 H   0  0  0  0  0  0  0  0  0  0  0  0
  152.3249  142.5240  161.3919 H   0  0  0  0  0  0  0  0  0  0  0  0
  152.5212  141.3285  159.1883 H   0  0  0  0  0  0  0  0  0  0  0  0
  154.2190  141.6884  159.1189 H   0  0  0  0  0  0  0  0  0  0  0  0
  153.0038  140.1343  161.4399 H   0  0  0  0  0  0  0  0  0  0  0  0
  155.8967  140.3308  160.4541 H   0  0  0  0  0  0  0  0  0  0  0  0
  155.3657  139.4326  161.8711 H   0  0  0  0  0  0  0  0  0  0  0  0
  155.2443  141.1675  161.8580 H   0  0  0  0  0  0  0  0  0  0  0  0
  154.2872  138.9078  158.9457 H   0  0  0  0  0  0  0  0  0  0  0  0
  151.4255  138.8194  159.8131 H   0  0  0  0  0  0  0  0  0  0  0  0
  150.2032  137.9473  156.9973 H   0  0  0  0  0  0  0  0  0  0  0  0
  149.8257  138.8744  158.4303 H   0  0  0  0  0  0  0  0  0  0  0  0
  151.3460  141.7744  157.1928 H   0  0  0  0  0  0  0  0  0  0  0  0
  149.8238  143.0344  155.3159 H   0  0  0  0  0  0  0  0  0  0  0  0
  148.3292  141.5924  153.2741 H   0  0  0  0  0  0  0  0  0  0  0  0
  146.1862  142.7224  153.7709 H   0  0  0  0  0  0  0  0  0  0  0  0
  147.4816  143.4245  154.7324 H   0  0  0  0  0  0  0  0  0  0  0  0
  146.3318  142.3163  155.4775 H   0  0  0  0  0  0  0  0  0  0  0  0
  146.2964  140.1886  153.1323 H   0  0  0  0  0  0  0  0  0  0  0  0
  146.4498  139.7442  154.8286 H   0  0  0  0  0  0  0  0  0  0  0  0
  147.6682  139.2253  153.6672 H   0  0  0  0  0  0  0  0  0  0  0  0
  1  2  1  0  0  0  0
  1 21  1  0  0  0  0
  1 22  1  0  0  0  0
  1 23  1  0  0  0  0
  2  3  1  0  0  0  0
  2 24  1  0  0  0  0
  2 25  1  0  0  0  0
  3  4  1  0  0  0  0
  3  5  1  0  0  0  0
  3 26  1  0  0  0  0
  4 27  1  0  0  0  0
  4 28  1  0  0  0  0
  4 29  1  0  0  0  0
  5  6  1  0  0  0  0
  5 18  1  0  0  0  0
  5 30  1  0  0  0  0
  6  7  1  0  0  0  0
  6 31  1  0  0  0  0
  7  8  2  0  0  0  0
  7  9  1  0  0  0  0
  9 10  1  0  0  0  0
  9 32  1  0  0  0  0
  9 33  1  0  0  0  0
 10 17  2  0  0  0  0
 10 11  1  0  0  0  0
 11 12  2  0  0  0  0
 11 34  1  0  0  0  0
 12 13  1  0  0  0  0
 12 35  1  0  0  0  0
 13 14  1  0  0  0  0
 13 17  1  0  0  0  0
 14 15  1  0  0  0  0
 14 16  1  0  0  0  0
 14 36  1  0  0  0  0
 15 37  1  0  0  0  0
 15 38  1  0  0  0  0
 15 39  1  0  0  0  0
 16 40  1  0  0  0  0
 16 41  1  0  0  0  0
 16 42  1  0  0  0  0
 18 19  2  0  0  0  0
 18 20  1  0  0  0  0
M  CHG  1  20  -1
M  END
> <s_m_source_file>
AV-unprocessed.smi

> <i_m_source_file_index>
2892

> <i_lp_mmshare_version>
43012

> <i_f3d_flags>
0

> <s_epik_input>
W0NIM11bQ0gyXVtDQEhdKFtDSDNdKVtDQEBIXShDKD1PKVtPSF0pW05IXUMoPU8pW0NIMl1jMVtjSF1bY0hdbihuMSlbQ0hdKFtDSDNdKVtDSDNd

> <s_epik_cmdline>
J2VwaWtfcHl0aG9uJywgJy1waCcsICc3LjAnLCAnLXRuJywgJzgnLCAnLW1hJywgJzIwMCcsICctbWV0YWxfYmluZGluZycsICctaW1hZScsICc8aW5maWxlLm1hZT4nLCAnLW9tYWUnLCAnPG91dGZpbGUubWFlPic=

> <r_lp_tautomer_probability>
1

> <r_epik_Ionization_Penalty>
0.000286846

> <r_epik_Ionization_Penalty_Charging>
0.000224481

> <r_epik_Ionization_Penalty_Neutral>
6.23655e-05

> <r_epik_State_Penalty>
-0

> <r_epik_Charging_Adjusted_Penalty>
0.000224481

> <i_epik_Tot_Q>
-1

> <i_epik_Tot_abs_Q>
1

> <r_epik_Metal_State_Penalty>
-0

> <b_epik_Metal_Only>
0

> <s_lp_Force_Field>
OPLS_2005

> <r_lp_Energy>
15.4928

> <b_lp_Chiralities_Consistent>
1

> <s_lp_Variant>
AV-unprocessed.smi:2892-1

> <Gold.Version>
5.8.1

> <Gold.Id.Protein>
6NUR|6NUR_protein|mol2

> <Gold.PLP.Fitness>
45.9749

> <Gold.PLP.PLP>
-35.0588

> <Gold.PLP.part.hbond>
-1.9738

> <Gold.PLP.part.metal>
0.0000

> <Gold.PLP.part.buried>
-3.1934

> <Gold.PLP.part.nonpolar>
-29.9911

> <Gold.PLP.part.repulsive>
0.1214

> <Gold.PLP.ligand.clash>
0.0000

> <Gold.PLP.ligand.torsion>
0.5985

> <Gold.PLP.Chemscore.Hbond>
3.0000

> <Gold.PLP.Chemscore.CHOScore>
0.9968

> <Gold.PLP.Chemscore.Metal>
0.0000

> <Gold.Chemscore.Hbonds>
donor molecule, donor type, donor heavy atom, donor atom, acceptor molecule, acceptor atom, score
      P1  H  6896  6908       L1    20  1.95
      P1  H  7997  8010       L1     8  1.00
      L1  C    12    35       P1  8028  0.81

> <Gold.PLP.Chemscore.Internal.Correction>
0.1229

> <Gold.Rescore>
     Score         DG    S(hbond)    S(metal)    S(lipo)     H(rot)  DE(clash)    DE(int)     intcor
     13.86     -15.87       1.98        0.00      84.56       2.39       0.16       1.84       ----

> <Gold.Chemscore.Fitness>
13.8647

> <Gold.Chemscore.DG>
-15.8716

> <Gold.Chemscore.ZeroCoef>
-5.4800

> <Gold.Chemscore.Hbond>
1.9784

> <Gold.Chemscore.Metal>
0.0000

> <Gold.Chemscore.Lipo>
84.5564

> <Gold.Chemscore.Internal_Hbond>
0.0000

> <Gold.Chemscore.DEClash>
0.1648

> <Gold.Chemscore.DEInternal>
1.8421

> <Gold.Chemscore.Rot>
2.3865

> <Gold.Chemscore.Internal.Correction>
   9.000000E+99

> <Gold.Chemscore.Hbonds>
donor molecule, donor type, donor heavy atom, donor atom, acceptor molecule, acceptor atom, score
      P1  H  6896  6908       L1    20  0.91
      P1  H  7997  8010       L1     8  0.99

> <Gold.Chemscore.Hbond.Weighted>
-6.6078

> <Gold.Chemscore.Metal.Weighted>
-0.0000

> <Gold.Chemscore.Lipo.Weighted>
-9.8931

> <Gold.Chemscore.Internal_Hbond.Weighted>
0.0000

> <Gold.Chemscore.DEClash.Weighted>
0.1648

> <Gold.Chemscore.DEInternal.Weighted>
1.8421

> <Gold.Chemscore.Rot.Weighted>
6.1093

> <Gold.Chemscore.Internal.Correction.Weighted>
   9.000000E+99

> <Gold.Protein.RotatedTorsions>
[ 6907 6896 6895 6894 ] final  -77.63 input  -60.11 | X-H torsion
[ 7974 7965 7964 7962 ] final -119.95 input  175.53 | X-H torsion
[ 8008 7997 7996 7995 ] final   60.74 input   59.86 | X-H torsion
[ 10167 10162 10161 10158 ] final    4.77 input  -65.29 | X-H torsion
[ 10718 10713 10712 10709 ] final  -76.94 input   66.30 | X-H torsion
[ 10763 10752 10751 10750 ] final   75.93 input  -60.55 | X-H torsion
[ 11005 11000 10999 10996 ] final   50.10 input  -57.11 | X-H torsion

> <Gold.Protein.ActiveResidues>
 VAL166  LYS551  ARG553  GLY616  TRP617  ASP618  TYR619  PRO620  LYS621  CYS622 
 ASP623  PHE694  ASN695  SER759  ASP760  ASP761  ALA762  ILE779  LEU786  VAL792 
 PHE793  MET794  SER795  GLU796  ALA797  LYS798  CYS799  TRP800  GLU811  SER814 

> <Gold.Protein.RotatedAtoms>
  150.6994  134.4394  159.5284 H   0  0  0  0  0  0  0  0  0  0  0  0  # atno 6907 bound_to 6896
  152.2106  134.8502  160.0507 H   0  0  0  0  0  0  0  0  0  0  0  0  # atno 6908 bound_to 6896
  151.9388  133.3597  159.3994 H   0  0  0  0  0  0  0  0  0  0  0  0  # atno 6909 bound_to 6896
  145.0568  140.8260  143.4176 H   0  0  0  0  0  0  0  0  0  0  0  0  # atno 7974 bound_to 7965
  155.5871  140.3492  155.4556 H   0  0  0  0  0  0  0  0  0  0  0  0  # atno 8008 bound_to 7997
  156.0329  140.1278  157.0263 H   0  0  0  0  0  0  0  0  0  0  0  0  # atno 8009 bound_to 7997
  154.4360  140.1039  156.6112 H   0  0  0  0  0  0  0  0  0  0  0  0  # atno 8010 bound_to 7997
  140.6517  143.7528  150.7586 H   0  0  0  0  0  0  0  0  0  0  0  0  # atno 10167 bound_to 10162
  156.0160  130.4478  150.3270 H   0  0  0  0  0  0  0  0  0  0  0  0  # atno 10718 bound_to 10713
  153.0689  135.4970  154.8261 H   0  0  0  0  0  0  0  0  0  0  0  0  # atno 10763 bound_to 10752
  154.6994  135.2999  154.9366 H   0  0  0  0  0  0  0  0  0  0  0  0  # atno 10764 bound_to 10752
  154.0095  135.6756  153.4817 H   0  0  0  0  0  0  0  0  0  0  0  0  # atno 10765 bound_to 10752
  140.1046  134.5035  155.8731 H   0  0  0  0  0  0  0  0  0  0  0  0  # atno 11005 bound_to 11000
  145.1459  139.2544  143.5466 LP  0  0  0  0  0  0  0  0  0  0  0  0  # atno 17320 bound_to 7965
  146.3522  140.1148  142.8602 LP  0  0  0  0  0  0  0  0  0  0  0  0  # atno 17321 bound_to 7965
  140.1180  143.4638  152.2330 LP  0  0  0  0  0  0  0  0  0  0  0  0  # atno 17342 bound_to 10162
  139.5733  144.7474  151.3831 LP  0  0  0  0  0  0  0  0  0  0  0  0  # atno 17343 bound_to 10162
  157.1369  131.0286  151.2945 LP  0  0  0  0  0  0  0  0  0  0  0  0  # atno 17370 bound_to 10713
  157.4504  130.7595  149.7146 LP  0  0  0  0  0  0  0  0  0  0  0  0  # atno 17371 bound_to 10713
  141.2115  133.6707  156.6586 LP  0  0  0  0  0  0  0  0  0  0  0  0  # atno 17394 bound_to 11000
  140.3173  134.8037  157.4224 LP  0  0  0  0  0  0  0  0  0  0  0  0  # atno 17395 bound_to 11000

$$$$
