AV-unprocessed.smi:2973|AV-procd|sdf|11343|dock1
  -GOLD-   2272016253D 1   1.00000     0.00000
 Structure written by MMmdl.
 50 52  0  0  0  0  0  0  0  0  2 V2000
  153.2236  138.9472  158.4279 C   0  0  0  0  0  0  0  0  0  0  0  0
  152.7317  140.3647  158.0657 C   0  0  2  0  0  0  0  0  0  0  0  0
  152.3477  141.1374  159.3465 C   0  0  0  0  0  0  0  0  0  0  0  0
  151.9111  142.5793  159.0416 C   0  0  0  0  0  0  0  0  0  0  0  0
  150.7527  142.6101  158.0355 C   0  0  0  0  0  0  0  0  0  0  0  0
  151.1272  141.8614  156.7473 C   0  0  0  0  0  0  0  0  0  0  0  0
  151.5664  140.4042  157.0294 C   0  0  2  0  0  0  0  0  0  0  0  0
  150.4322  139.5923  157.4383 N   0  0  0  0  0  0  0  0  0  0  0  0
  150.1289  138.6347  156.5526 C   0  0  0  0  0  0  0  0  0  0  0  0
  149.1961  137.8406  156.6596 O   0  0  0  0  0  0  0  0  0  0  0  0
  151.0113  138.7018  155.5389 N   0  0  0  0  0  0  0  0  0  0  0  0
  150.9744  137.8503  154.3434 C   0  0  0  0  0  0  0  0  0  0  0  0
  150.9009  136.3593  154.6987 C   0  0  0  0  0  0  0  0  0  0  0  0
  151.8979  135.7655  155.1121 O   0  0  0  0  0  0  0  0  0  0  0  0
  149.7081  135.7655  154.5370 N   0  0  0  0  0  0  0  0  0  0  0  0
  149.4076  134.3713  154.8563 C   0  0  0  0  0  0  0  0  0  0  0  0
  149.9782  133.3879  153.8137 C   0  0  0  0  0  0  0  0  0  0  0  0
  148.9429  132.8486  152.8409 C   0  0  0  0  0  0  0  0  0  0  0  0
  148.5221  131.5009  152.8615 C   0  0  0  0  0  0  0  0  0  0  0  0
  147.5786  131.0587  151.9114 C   0  0  0  0  0  0  0  0  0  0  0  0
  147.0754  131.9712  150.9615 C   0  0  0  0  0  0  0  0  0  0  0  0
  147.5259  133.3066  150.9892 C   0  0  0  0  0  0  0  0  0  0  0  0
  148.4289  133.6930  151.9173 N   0  3  0  0  0  0  0  0  0  0  0  0
  151.8952  139.6919  155.7240 C   0  0  0  0  0  0  0  0  0  0  0  0
  152.8219  140.0093  154.9779 O   0  0  0  0  0  0  0  0  0  0  0  0
  152.4337  138.3508  158.8846 H   0  0  0  0  0  0  0  0  0  0  0  0
  154.0489  138.9936  159.1388 H   0  0  0  0  0  0  0  0  0  0  0  0
  153.5873  138.4076  157.5536 H   0  0  0  0  0  0  0  0  0  0  0  0
  153.5809  140.8874  157.6221 H   0  0  0  0  0  0  0  0  0  0  0  0
  151.5430  140.6167  159.8673 H   0  0  0  0  0  0  0  0  0  0  0  0
  153.1930  141.1576  160.0354 H   0  0  0  0  0  0  0  0  0  0  0  0
  151.6148  143.0806  159.9635 H   0  0  0  0  0  0  0  0  0  0  0  0
  152.7567  143.1408  158.6426 H   0  0  0  0  0  0  0  0  0  0  0  0
  149.8643  142.1619  158.4820 H   0  0  0  0  0  0  0  0  0  0  0  0
  150.4923  143.6427  157.8014 H   0  0  0  0  0  0  0  0  0  0  0  0
  150.2830  141.8811  156.0558 H   0  0  0  0  0  0  0  0  0  0  0  0
  151.9366  142.4004  156.2525 H   0  0  0  0  0  0  0  0  0  0  0  0
  149.9224  139.7575  158.2941 H   0  0  0  0  0  0  0  0  0  0  0  0
  150.1205  138.1275  153.7221 H   0  0  0  0  0  0  0  0  0  0  0  0
  151.8587  138.0163  153.7263 H   0  0  0  0  0  0  0  0  0  0  0  0
  148.9463  136.3257  154.1816 H   0  0  0  0  0  0  0  0  0  0  0  0
  149.8347  134.1494  155.8343 H   0  0  0  0  0  0  0  0  0  0  0  0
  148.3308  134.2271  154.9593 H   0  0  0  0  0  0  0  0  0  0  0  0
  150.7708  133.8791  153.2477 H   0  0  0  0  0  0  0  0  0  0  0  0
  150.4503  132.5474  154.3239 H   0  0  0  0  0  0  0  0  0  0  0  0
  148.9267  130.8085  153.5854 H   0  0  0  0  0  0  0  0  0  0  0  0
  147.2527  130.0290  151.9057 H   0  0  0  0  0  0  0  0  0  0  0  0
  146.3581  131.6501  150.2205 H   0  0  0  0  0  0  0  0  0  0  0  0
  147.1968  134.0706  150.3001 H   0  0  0  0  0  0  0  0  0  0  0  0
  148.7467  134.6625  151.9127 H   0  0  0  0  0  0  0  0  0  0  0  0
  1  2  1  0  0  0  0
  1 26  1  0  0  0  0
  1 27  1  0  0  0  0
  1 28  1  0  0  0  0
  2  7  1  0  0  0  0
  2  3  1  0  0  0  0
  2 29  1  0  0  0  0
  3  4  1  0  0  0  0
  3 30  1  0  0  0  0
  3 31  1  0  0  0  0
  4  5  1  0  0  0  0
  4 32  1  0  0  0  0
  4 33  1  0  0  0  0
  5  6  1  0  0  0  0
  5 34  1  0  0  0  0
  5 35  1  0  0  0  0
  6  7  1  0  0  0  0
  6 36  1  0  0  0  0
  6 37  1  0  0  0  0
  7 24  1  0  0  0  0
  7  8  1  0  0  0  0
  8  9  1  0  0  0  0
  8 38  1  0  0  0  0
  9 10  2  0  0  0  0
  9 11  1  0  0  0  0
 11 12  1  0  0  0  0
 11 24  1  0  0  0  0
 12 13  1  0  0  0  0
 12 39  1  0  0  0  0
 12 40  1  0  0  0  0
 13 14  2  0  0  0  0
 13 15  1  0  0  0  0
 15 16  1  0  0  0  0
 15 41  1  0  0  0  0
 16 17  1  0  0  0  0
 16 42  1  0  0  0  0
 16 43  1  0  0  0  0
 17 18  1  0  0  0  0
 17 44  1  0  0  0  0
 17 45  1  0  0  0  0
 18 23  1  0  0  0  0
 18 19  2  0  0  0  0
 19 20  1  0  0  0  0
 19 46  1  0  0  0  0
 20 21  2  0  0  0  0
 20 47  1  0  0  0  0
 21 22  1  0  0  0  0
 21 48  1  0  0  0  0
 22 23  2  0  0  0  0
 22 49  1  0  0  0  0
 23 50  1  0  0  0  0
 24 25  2  0  0  0  0
M  CHG  1  23   1
M  END
> <s_m_source_file>
AV-unprocessed.smi

> <i_m_source_file_index>
2973

> <i_lp_mmshare_version>
43012

> <i_f3d_flags>
0

> <s_epik_input>
W0NIMl0xW0NIMl1bQ0gyXVtDSDJdW0NAQEhdKFtDSDNdKVtDQF0xMltOSF1DKD1PKU4oQzI9TylbQ0gyXUMoPU8pW05IXVtDSDJdW0NIMl1jM1tjSF1bY0hdW2NIXVtjSF1uMw==

> <s_epik_cmdline>
J2VwaWtfcHl0aG9uJywgJy1waCcsICc3LjAnLCAnLXRuJywgJzgnLCAnLW1hJywgJzIwMCcsICctbWV0YWxfYmluZGluZycsICctaW1hZScsICc8aW5maWxlLm1hZT4nLCAnLW9tYWUnLCAnPG91dGZpbGUubWFlPic=

> <r_lp_tautomer_probability>
1

> <r_epik_Ionization_Penalty>
1.90043

> <r_epik_Ionization_Penalty_Charging>
1.90039

> <r_epik_Ionization_Penalty_Neutral>
4.65525e-05

> <r_epik_State_Penalty>
2.02162

> <r_epik_Charging_Adjusted_Penalty>
3.922

> <i_epik_Tot_Q>
1

> <i_epik_Tot_abs_Q>
1

> <r_epik_Metal_State_Penalty>
2.06631

> <b_epik_Metal_Only>
0

> <s_lp_Force_Field>
OPLS_2005

> <r_lp_Energy>
26.4657

> <b_lp_Chiralities_Consistent>
1

> <s_lp_Variant>
AV-unprocessed.smi:2973-7

> <Gold.Version>
5.8.1

> <Gold.Id.Protein>
6NUR|6NUR_protein|mol2

> <Gold.PLP.Fitness>
52.9330

> <Gold.PLP.PLP>
-40.9989

> <Gold.PLP.part.hbond>
-4.8328

> <Gold.PLP.part.metal>
0.0000

> <Gold.PLP.part.buried>
-3.3481

> <Gold.PLP.part.nonpolar>
-33.0353

> <Gold.PLP.part.repulsive>
0.2320

> <Gold.PLP.ligand.clash>
0.0000

> <Gold.PLP.ligand.torsion>
0.7733

> <Gold.PLP.Chemscore.Hbond>
4.4547

> <Gold.PLP.Chemscore.CHOScore>
0.0000

> <Gold.PLP.Chemscore.Metal>
0.0000

> <Gold.Chemscore.Hbonds>
donor molecule, donor type, donor heavy atom, donor atom, acceptor molecule, acceptor atom, score
      L1  H    15    41       P1  7948  0.05
      P1  H  7989  7998       L1    25  0.36
      P1  H  7997  8009       L1    25  1.00
      P1  H 10752 10764       L1    14  0.05

> <Gold.PLP.Chemscore.Internal.Correction>
0.1165

> <Gold.Rescore>
     Score         DG    S(hbond)    S(metal)    S(lipo)     H(rot)  DE(clash)    DE(int)     intcor
     20.02     -21.67       3.06        0.00      93.96       1.96       0.05       1.60       ----

> <Gold.Chemscore.Fitness>
20.0195

> <Gold.Chemscore.DG>
-21.6693

> <Gold.Chemscore.ZeroCoef>
-5.4800

> <Gold.Chemscore.Hbond>
3.0610

> <Gold.Chemscore.Metal>
0.0000

> <Gold.Chemscore.Lipo>
93.9581

> <Gold.Chemscore.Internal_Hbond>
0.0000

> <Gold.Chemscore.DEClash>
0.0457

> <Gold.Chemscore.DEInternal>
1.6041

> <Gold.Chemscore.Rot>
1.9638

> <Gold.Chemscore.Internal.Correction>
   9.000000E+99

> <Gold.Chemscore.Hbonds>
donor molecule, donor type, donor heavy atom, donor atom, acceptor molecule, acceptor atom, score
      L1  H    15    41       P1  7948  0.05
      P1  H  7989  7998       L1    25  0.07
      P1  H  7997  8009       L1    25  0.74
      P1  H 10752 10764       L1    14  0.10

> <Gold.Chemscore.Hbond.Weighted>
-10.2237

> <Gold.Chemscore.Metal.Weighted>
-0.0000

> <Gold.Chemscore.Lipo.Weighted>
-10.9931

> <Gold.Chemscore.Internal_Hbond.Weighted>
0.0000

> <Gold.Chemscore.DEClash.Weighted>
0.0457

> <Gold.Chemscore.DEInternal.Weighted>
1.6041

> <Gold.Chemscore.Rot.Weighted>
5.0274

> <Gold.Chemscore.Internal.Correction.Weighted>
   9.000000E+99

> <Gold.Protein.RotatedTorsions>
[ 6907 6896 6895 6894 ] final -159.01 input  -60.11 | X-H torsion
[ 7974 7965 7964 7962 ] final -121.43 input  175.53 | X-H torsion
[ 8008 7997 7996 7995 ] final -141.40 input   59.86 | X-H torsion
[ 10167 10162 10161 10158 ] final   63.20 input  -65.29 | X-H torsion
[ 10718 10713 10712 10709 ] final   72.33 input   66.30 | X-H torsion
[ 10763 10752 10751 10750 ] final  -54.75 input  -60.55 | X-H torsion
[ 11005 11000 10999 10996 ] final -128.61 input  -57.11 | X-H torsion

> <Gold.Protein.ActiveResidues>
 VAL166  LYS551  ARG553  GLY616  TRP617  ASP618  TYR619  PRO620  LYS621  CYS622 
 ASP623  PHE694  ASN695  SER759  ASP760  ASP761  ALA762  ILE779  LEU786  VAL792 
 PHE793  MET794  SER795  GLU796  ALA797  LYS798  CYS799  TRP800  GLU811  SER814 

> <Gold.Protein.RotatedAtoms>
  151.3270  133.4016  159.2659 H   0  0  0  0  0  0  0  0  0  0  0  0  # atno 6907 bound_to 6896
  150.9987  134.9305  159.7952 H   0  0  0  0  0  0  0  0  0  0  0  0  # atno 6908 bound_to 6896
  152.5269  134.3235  159.9209 H   0  0  0  0  0  0  0  0  0  0  0  0  # atno 6909 bound_to 6896
  145.0404  140.8140  143.4269 H   0  0  0  0  0  0  0  0  0  0  0  0  # atno 7974 bound_to 7965
  155.4771  140.0557  157.2972 H   0  0  0  0  0  0  0  0  0  0  0  0  # atno 8008 bound_to 7997
  154.4675  140.2025  156.0033 H   0  0  0  0  0  0  0  0  0  0  0  0  # atno 8009 bound_to 7997
  156.0999  140.3220  155.7932 H   0  0  0  0  0  0  0  0  0  0  0  0  # atno 8010 bound_to 7997
  140.1356  144.4602  150.6840 H   0  0  0  0  0  0  0  0  0  0  0  0  # atno 10167 bound_to 10162
  157.6495  130.9573  150.0913 H   0  0  0  0  0  0  0  0  0  0  0  0  # atno 10718 bound_to 10713
  154.1798  135.6445  153.5031 H   0  0  0  0  0  0  0  0  0  0  0  0  # atno 10763 bound_to 10752
  153.0062  135.5403  154.6526 H   0  0  0  0  0  0  0  0  0  0  0  0  # atno 10764 bound_to 10752
  154.5887  135.2932  155.0630 H   0  0  0  0  0  0  0  0  0  0  0  0  # atno 10765 bound_to 10752
  140.9502  134.1076  157.4069 H   0  0  0  0  0  0  0  0  0  0  0  0  # atno 11005 bound_to 11000
  145.1655  139.2434  143.5369 LP  0  0  0  0  0  0  0  0  0  0  0  0  # atno 17320 bound_to 7965
  146.3509  140.1392  142.8595 LP  0  0  0  0  0  0  0  0  0  0  0  0  # atno 17321 bound_to 7965
  140.6791  143.2318  151.5431 LP  0  0  0  0  0  0  0  0  0  0  0  0  # atno 17342 bound_to 10162
  139.5497  144.2427  152.1508 LP  0  0  0  0  0  0  0  0  0  0  0  0  # atno 17343 bound_to 10162
  156.1862  130.3652  149.8970 LP  0  0  0  0  0  0  0  0  0  0  0  0  # atno 17370 bound_to 10713
  156.6910  130.8896  151.3588 LP  0  0  0  0  0  0  0  0  0  0  0  0  # atno 17371 bound_to 10713
  139.8845  135.0063  156.6373 LP  0  0  0  0  0  0  0  0  0  0  0  0  # atno 17394 bound_to 11000
  140.7613  133.8815  155.8421 LP  0  0  0  0  0  0  0  0  0  0  0  0  # atno 17395 bound_to 11000

$$$$
