AV-unprocessed.smi:2702|AV-procd|sdf|10436|dock2
  -GOLD-   2272014473D 1   1.00000     0.00000
 Structure written by MMmdl.
 47 48  0  0  0  0  0  0  0  0  1 V2000
  146.4892  138.3081  151.7988 C   0  0  0  0  0  0  0  0  0  0  0  0
  146.7545  139.6923  151.9404 O   0  0  0  0  0  0  0  0  0  0  0  0
  146.6079  140.1399  153.2773 C   0  0  0  0  0  0  0  0  0  0  0  0
  147.9529  140.1715  153.9741 C   0  0  0  0  0  0  0  0  0  0  0  0
  148.7255  139.0662  154.0869 C   0  0  0  0  0  0  0  0  0  0  0  0
  150.0147  139.1240  154.7755 C   0  0  0  0  0  0  0  0  0  0  0  0
  150.7496  138.1426  154.8911 O   0  0  0  0  0  0  0  0  0  0  0  0
  150.3431  140.3505  155.2795 N   0  0  0  0  0  0  0  0  0  0  0  0
  151.6140  140.5653  155.9950 C   0  0  0  0  0  0  0  0  0  0  0  0
  151.4130  141.1093  157.4159 C   0  0  0  0  0  0  0  0  0  0  0  0
  151.2644  140.3392  158.3653 O   0  0  0  0  0  0  0  0  0  0  0  0
  151.3989  142.4450  157.5403 N   0  0  0  0  0  0  0  0  0  0  0  0
  151.2578  143.1760  158.7973 C   0  0  2  0  0  0  0  0  0  0  0  0
  151.4366  144.6857  158.5452 C   0  0  0  0  0  0  0  0  0  0  0  0
  151.2598  145.4911  159.8411 C   0  0  0  0  0  0  0  0  0  0  0  0
  152.1996  144.9909  160.9493 C   0  0  0  0  0  0  0  0  0  0  0  0
  152.0271  143.4784  161.1959 C   0  0  2  0  0  0  0  0  0  0  0  0
  152.8896  142.9892  162.3711 C   0  0  0  0  0  0  0  0  0  0  0  0
  152.2315  142.6597  159.8937 C   0  0  2  0  0  0  0  0  0  0  0  0
  153.7039  142.6003  159.4228 C   0  0  0  0  0  0  0  0  0  0  0  0
  149.4912  141.4656  155.1508 C   0  0  0  0  0  0  0  0  0  0  0  0
  148.3557  141.3888  154.5326 N   0  0  0  0  0  0  0  0  0  0  0  0
  146.6229  138.0142  150.7577 H   0  0  0  0  0  0  0  0  0  0  0  0
  145.4639  138.0717  152.0862 H   0  0  0  0  0  0  0  0  0  0  0  0
  147.1701  137.7112  152.4072 H   0  0  0  0  0  0  0  0  0  0  0  0
  146.1718  141.1402  153.2928 H   0  0  0  0  0  0  0  0  0  0  0  0
  145.9278  139.4830  153.8218 H   0  0  0  0  0  0  0  0  0  0  0  0
  148.3959  138.1297  153.6611 H   0  0  0  0  0  0  0  0  0  0  0  0
  152.1692  139.6260  156.0368 H   0  0  0  0  0  0  0  0  0  0  0  0
  152.2685  141.2556  155.4599 H   0  0  0  0  0  0  0  0  0  0  0  0
  151.5219  142.9988  156.7050 H   0  0  0  0  0  0  0  0  0  0  0  0
  150.2357  143.0280  159.1519 H   0  0  0  0  0  0  0  0  0  0  0  0
  152.4219  144.8847  158.1223 H   0  0  0  0  0  0  0  0  0  0  0  0
  150.7127  145.0284  157.8051 H   0  0  0  0  0  0  0  0  0  0  0  0
  151.4404  146.5491  159.6494 H   0  0  0  0  0  0  0  0  0  0  0  0
  150.2257  145.4115  160.1786 H   0  0  0  0  0  0  0  0  0  0  0  0
  153.2334  145.2135  160.6838 H   0  0  0  0  0  0  0  0  0  0  0  0
  151.9970  145.5420  161.8683 H   0  0  0  0  0  0  0  0  0  0  0  0
  150.9907  143.3239  161.5009 H   0  0  0  0  0  0  0  0  0  0  0  0
  153.9464  143.2056  162.2160 H   0  0  0  0  0  0  0  0  0  0  0  0
  152.7832  141.9140  162.5169 H   0  0  0  0  0  0  0  0  0  0  0  0
  152.5921  143.4770  163.2998 H   0  0  0  0  0  0  0  0  0  0  0  0
  151.9456  141.6318  160.1211 H   0  0  0  0  0  0  0  0  0  0  0  0
  154.0996  143.5871  159.1859 H   0  0  0  0  0  0  0  0  0  0  0  0
  153.8156  141.9805  158.5332 H   0  0  0  0  0  0  0  0  0  0  0  0
  154.3490  142.1602  160.1822 H   0  0  0  0  0  0  0  0  0  0  0  0
  149.8524  142.3880  155.6087 H   0  0  0  0  0  0  0  0  0  0  0  0
  1  2  1  0  0  0  0
  1 23  1  0  0  0  0
  1 24  1  0  0  0  0
  1 25  1  0  0  0  0
  2  3  1  0  0  0  0
  3  4  1  0  0  0  0
  3 26  1  0  0  0  0
  3 27  1  0  0  0  0
  4 22  1  0  0  0  0
  4  5  2  0  0  0  0
  5  6  1  0  0  0  0
  5 28  1  0  0  0  0
  6  7  2  0  0  0  0
  6  8  1  0  0  0  0
  8  9  1  0  0  0  0
  8 21  1  0  0  0  0
  9 10  1  0  0  0  0
  9 29  1  0  0  0  0
  9 30  1  0  0  0  0
 10 11  2  0  0  0  0
 10 12  1  0  0  0  0
 12 13  1  0  0  0  0
 12 31  1  0  0  0  0
 13 19  1  0  0  0  0
 13 14  1  0  0  0  0
 13 32  1  0  0  0  0
 14 15  1  0  0  0  0
 14 33  1  0  0  0  0
 14 34  1  0  0  0  0
 15 16  1  0  0  0  0
 15 35  1  0  0  0  0
 15 36  1  0  0  0  0
 16 17  1  0  0  0  0
 16 37  1  0  0  0  0
 16 38  1  0  0  0  0
 17 18  1  0  0  0  0
 17 19  1  0  0  0  0
 17 39  1  0  0  0  0
 18 40  1  0  0  0  0
 18 41  1  0  0  0  0
 18 42  1  0  0  0  0
 19 20  1  0  0  0  0
 19 43  1  0  0  0  0
 20 44  1  0  0  0  0
 20 45  1  0  0  0  0
 20 46  1  0  0  0  0
 21 22  2  0  0  0  0
 21 47  1  0  0  0  0
M  END
> <s_m_source_file>
AV-unprocessed.smi

> <i_m_source_file_index>
2702

> <i_lp_mmshare_version>
43012

> <i_f3d_flags>
0

> <s_epik_input>
W0NIM11PW0NIMl1jMVtjSF1jKD1PKW4oW2NIXW4xKVtDSDJdQyg9TylbTkhdW0NAQEhdMltDSDJdW0NIMl1bQ0gyXVtDQEBIXShbQ0gzXSlbQ0BIXTJbQ0gzXQ==

> <s_epik_cmdline>
J2VwaWtfcHl0aG9uJywgJy1waCcsICc3LjAnLCAnLXRuJywgJzgnLCAnLW1hJywgJzIwMCcsICctbWV0YWxfYmluZGluZycsICctaW1hZScsICc8aW5maWxlLm1hZT4nLCAnLW9tYWUnLCAnPG91dGZpbGUubWFlPic=

> <r_lp_tautomer_probability>
1

> <r_epik_Ionization_Penalty>
1.22164e-06

> <r_epik_Ionization_Penalty_Charging>
3.17988e-07

> <r_epik_Ionization_Penalty_Neutral>
9.03656e-07

> <r_epik_State_Penalty>
-0

> <r_epik_Charging_Adjusted_Penalty>
3.17988e-07

> <i_epik_Tot_Q>
0

> <i_epik_Tot_abs_Q>
0

> <r_epik_Metal_State_Penalty>
-0

> <b_epik_Metal_Only>
0

> <s_lp_Force_Field>
OPLS_2005

> <r_lp_Energy>
18.8167

> <b_lp_Chiralities_Consistent>
1

> <s_lp_Variant>
AV-unprocessed.smi:2702-7

> <Gold.Version>
5.8.1

> <Gold.Id.Protein>
6NUR|6NUR_protein|mol2

> <Gold.PLP.Fitness>
49.6530

> <Gold.PLP.PLP>
-48.0140

> <Gold.PLP.part.hbond>
0.0000

> <Gold.PLP.part.metal>
0.0000

> <Gold.PLP.part.buried>
-3.8226

> <Gold.PLP.part.nonpolar>
-47.1124

> <Gold.PLP.part.repulsive>
2.2102

> <Gold.PLP.ligand.clash>
0.0000

> <Gold.PLP.ligand.torsion>
0.7161

> <Gold.PLP.Chemscore.Hbond>
0.0000

> <Gold.PLP.Chemscore.CHOScore>
0.9944

> <Gold.PLP.Chemscore.Metal>
0.0000

> <Gold.Chemscore.Hbonds>
donor molecule, donor type, donor heavy atom, donor atom, acceptor molecule, acceptor atom, score
      L1  C    21    47       P1  8028  1.00

> <Gold.PLP.Chemscore.Internal.Correction>
0.0881

> <Gold.Rescore>
     Score         DG    S(hbond)    S(metal)    S(lipo)     H(rot)  DE(clash)    DE(int)     intcor
     12.44     -14.86       0.00        0.00     122.34       1.93       0.70       1.71       ----

> <Gold.Chemscore.Fitness>
12.4435

> <Gold.Chemscore.DG>
-14.8571

> <Gold.Chemscore.ZeroCoef>
-5.4800

> <Gold.Chemscore.Hbond>
0.0000

> <Gold.Chemscore.Metal>
0.0000

> <Gold.Chemscore.Lipo>
122.3413

> <Gold.Chemscore.Internal_Hbond>
0.0000

> <Gold.Chemscore.DEClash>
0.7005

> <Gold.Chemscore.DEInternal>
1.7131

> <Gold.Chemscore.Rot>
1.9284

> <Gold.Chemscore.Internal.Correction>
   9.000000E+99

> <Gold.Chemscore.Hbond.Weighted>
-0.0000

> <Gold.Chemscore.Metal.Weighted>
-0.0000

> <Gold.Chemscore.Lipo.Weighted>
-14.3139

> <Gold.Chemscore.Internal_Hbond.Weighted>
0.0000

> <Gold.Chemscore.DEClash.Weighted>
0.7005

> <Gold.Chemscore.DEInternal.Weighted>
1.7131

> <Gold.Chemscore.Rot.Weighted>
4.9368

> <Gold.Chemscore.Internal.Correction.Weighted>
   9.000000E+99

> <Gold.Protein.RotatedTorsions>
[ 6907 6896 6895 6894 ] final -168.96 input  -60.11 | X-H torsion
[ 7974 7965 7964 7962 ] final  -44.20 input  175.53 | X-H torsion
[ 8008 7997 7996 7995 ] final   -6.08 input   59.86 | X-H torsion
[ 10167 10162 10161 10158 ] final   25.52 input  -65.29 | X-H torsion
[ 10718 10713 10712 10709 ] final   25.17 input   66.30 | X-H torsion
[ 10763 10752 10751 10750 ] final   96.60 input  -60.55 | X-H torsion
[ 11005 11000 10999 10996 ] final  -52.50 input  -57.11 | X-H torsion

> <Gold.Protein.ActiveResidues>
 VAL166  LYS551  ARG553  GLY616  TRP617  ASP618  TYR619  PRO620  LYS621  CYS622 
 ASP623  PHE694  ASN695  SER759  ASP760  ASP761  ALA762  ILE779  LEU786  VAL792 
 PHE793  MET794  SER795  GLU796  ALA797  LYS798  CYS799  TRP800  GLU811  SER814 

> <Gold.Protein.RotatedAtoms>
  151.4840  133.3540  159.2842 H   0  0  0  0  0  0  0  0  0  0  0  0  # atno 6907 bound_to 6896
  150.8879  134.8281  159.7283 H   0  0  0  0  0  0  0  0  0  0  0  0  # atno 6908 bound_to 6896
  152.4804  134.4746  159.9698 H   0  0  0  0  0  0  0  0  0  0  0  0  # atno 6909 bound_to 6896
  145.9944  140.7145  142.9301 H   0  0  0  0  0  0  0  0  0  0  0  0  # atno 7974 bound_to 7965
  154.5973  140.2442  155.7839 H   0  0  0  0  0  0  0  0  0  0  0  0  # atno 8008 bound_to 7997
  156.2288  140.2973  156.0087 H   0  0  0  0  0  0  0  0  0  0  0  0  # atno 8009 bound_to 7997
  155.2270  140.0402  157.2947 H   0  0  0  0  0  0  0  0  0  0  0  0  # atno 8010 bound_to 7997
  140.5099  144.0177  150.6368 H   0  0  0  0  0  0  0  0  0  0  0  0  # atno 10167 bound_to 10162
  157.1897  130.6840  149.6145 H   0  0  0  0  0  0  0  0  0  0  0  0  # atno 10718 bound_to 10713
  153.2669  135.4212  155.0950 H   0  0  0  0  0  0  0  0  0  0  0  0  # atno 10763 bound_to 10752
  154.8441  135.3463  154.6298 H   0  0  0  0  0  0  0  0  0  0  0  0  # atno 10764 bound_to 10752
  153.6718  135.7043  153.5202 H   0  0  0  0  0  0  0  0  0  0  0  0  # atno 10765 bound_to 10752
  141.0928  133.6630  156.4034 H   0  0  0  0  0  0  0  0  0  0  0  0  # atno 11005 bound_to 11000
  144.6899  140.3125  143.7246 LP  0  0  0  0  0  0  0  0  0  0  0  0  # atno 17320 bound_to 7965
  145.7582  139.1816  143.2282 LP  0  0  0  0  0  0  0  0  0  0  0  0  # atno 17321 bound_to 7965
  140.3496  143.2971  152.0501 LP  0  0  0  0  0  0  0  0  0  0  0  0  # atno 17342 bound_to 10162
  139.4893  144.6383  151.6930 LP  0  0  0  0  0  0  0  0  0  0  0  0  # atno 17343 bound_to 10162
  155.9713  130.4619  150.6125 LP  0  0  0  0  0  0  0  0  0  0  0  0  # atno 17370 bound_to 10713
  157.3873  131.0790  151.1425 LP  0  0  0  0  0  0  0  0  0  0  0  0  # atno 17371 bound_to 10713
  140.5213  134.6302  157.5319 LP  0  0  0  0  0  0  0  0  0  0  0  0  # atno 17394 bound_to 11000
  139.9757  134.7219  155.9955 LP  0  0  0  0  0  0  0  0  0  0  0  0  # atno 17395 bound_to 11000

$$$$
