AV-unprocessed.smi:1792|AV-procd|sdf|7223|dock1
  -GOLD-   22720 8463D 1   1.00000     0.00000
 Structure written by MMmdl.
 43 44  0  0  0  0  0  0  0  0  2 V2000
  145.9093  140.0302  155.3091 C   0  0  0  0  0  0  0  0  0  0  0  0
  146.8450  138.9560  154.7013 C   0  0  0  0  0  0  0  0  0  0  0  0
  146.4511  137.5908  155.3113 C   0  0  0  0  0  0  0  0  0  0  0  0
  146.5740  138.9033  153.1675 C   0  0  0  0  0  0  0  0  0  0  0  0
  146.7900  137.5836  152.5716 N   0  0  0  0  0  0  0  0  0  0  0  0
  145.8270  136.7120  152.2382 C   0  0  0  0  0  0  0  0  0  0  0  0
  144.6262  136.9435  152.3782 O   0  0  0  0  0  0  0  0  0  0  0  0
  146.3479  135.5773  151.7387 N   0  0  0  0  0  0  0  0  0  0  0  0
  145.6571  134.4289  151.2675 C   0  0  0  0  0  0  0  0  0  0  0  0
  146.4837  133.3833  150.7975 C   0  0  0  0  0  0  0  0  0  0  0  0
  145.8950  132.1998  150.3115 C   0  0  0  0  0  0  0  0  0  0  0  0
  144.4928  132.0929  150.3064 C   0  0  0  0  0  0  0  0  0  0  0  0
  143.7431  133.1814  150.7884 C   0  0  0  0  0  0  0  0  0  0  0  0
  144.3053  134.3165  151.2549 N   0  0  0  0  0  0  0  0  0  0  0  0
  148.2871  139.2964  154.9807 N   0  3  0  0  0  0  0  0  0  0  0  0
  149.3023  138.3981  154.3612 C   0  0  0  0  0  0  0  0  0  0  0  0
  150.7142  138.7509  154.8598 C   0  0  0  0  0  0  0  0  0  0  0  0
  151.0003  140.1138  154.5798 O   0  0  0  0  0  0  0  0  0  0  0  0
  150.0940  140.9865  155.2388 C   0  0  0  0  0  0  0  0  0  0  0  0
  148.6661  140.7168  154.7376 C   0  0  0  0  0  0  0  0  0  0  0  0
  144.8849  139.9105  154.9545 H   0  0  0  0  0  0  0  0  0  0  0  0
  146.2278  141.0400  155.0490 H   0  0  0  0  0  0  0  0  0  0  0  0
  145.8599  139.9686  156.3961 H   0  0  0  0  0  0  0  0  0  0  0  0
  145.3982  137.3740  155.1276 H   0  0  0  0  0  0  0  0  0  0  0  0
  146.5949  137.5659  156.3914 H   0  0  0  0  0  0  0  0  0  0  0  0
  147.0195  136.7663  154.8817 H   0  0  0  0  0  0  0  0  0  0  0  0
  145.5424  139.1829  152.9545 H   0  0  0  0  0  0  0  0  0  0  0  0
  147.1699  139.6562  152.6482 H   0  0  0  0  0  0  0  0  0  0  0  0
  147.7491  137.3004  152.4339 H   0  0  0  0  0  0  0  0  0  0  0  0
  147.3547  135.5237  151.6954 H   0  0  0  0  0  0  0  0  0  0  0  0
  147.5596  133.4807  150.8096 H   0  0  0  0  0  0  0  0  0  0  0  0
  146.5091  131.3885  149.9495 H   0  0  0  0  0  0  0  0  0  0  0  0
  144.0051  131.2007  149.9425 H   0  0  0  0  0  0  0  0  0  0  0  0
  142.6638  133.1405  150.8000 H   0  0  0  0  0  0  0  0  0  0  0  0
  149.1199  137.3543  154.6098 H   0  0  0  0  0  0  0  0  0  0  0  0
  149.2666  138.4831  153.2748 H   0  0  0  0  0  0  0  0  0  0  0  0
  150.8083  138.5587  155.9299 H   0  0  0  0  0  0  0  0  0  0  0  0
  151.4547  138.1265  154.3597 H   0  0  0  0  0  0  0  0  0  0  0  0
  150.1600  140.8567  156.3204 H   0  0  0  0  0  0  0  0  0  0  0  0
  150.3786  142.0169  155.0242 H   0  0  0  0  0  0  0  0  0  0  0  0
  148.6113  140.9446  153.6727 H   0  0  0  0  0  0  0  0  0  0  0  0
  147.9928  141.4032  155.2475 H   0  0  0  0  0  0  0  0  0  0  0  0
  148.3898  139.1587  155.9760 H   0  0  0  0  0  0  0  0  0  0  0  0
  1  2  1  0  0  0  0
  1 21  1  0  0  0  0
  1 22  1  0  0  0  0
  1 23  1  0  0  0  0
  2  3  1  0  0  0  0
  2  4  1  0  0  0  0
  2 15  1  0  0  0  0
  3 24  1  0  0  0  0
  3 25  1  0  0  0  0
  3 26  1  0  0  0  0
  4  5  1  0  0  0  0
  4 27  1  0  0  0  0
  4 28  1  0  0  0  0
  5  6  1  0  0  0  0
  5 29  1  0  0  0  0
  6  7  2  0  0  0  0
  6  8  1  0  0  0  0
  8  9  1  0  0  0  0
  8 30  1  0  0  0  0
  9 14  1  0  0  0  0
  9 10  2  0  0  0  0
 10 11  1  0  0  0  0
 10 31  1  0  0  0  0
 11 12  2  0  0  0  0
 11 32  1  0  0  0  0
 12 13  1  0  0  0  0
 12 33  1  0  0  0  0
 13 14  2  0  0  0  0
 13 34  1  0  0  0  0
 15 20  1  0  0  0  0
 15 16  1  0  0  0  0
 15 43  1  0  0  0  0
 16 17  1  0  0  0  0
 16 35  1  0  0  0  0
 16 36  1  0  0  0  0
 17 18  1  0  0  0  0
 17 37  1  0  0  0  0
 17 38  1  0  0  0  0
 18 19  1  0  0  0  0
 19 20  1  0  0  0  0
 19 39  1  0  0  0  0
 19 40  1  0  0  0  0
 20 41  1  0  0  0  0
 20 42  1  0  0  0  0
M  CHG  1  15   1
M  END
> <s_m_source_file>
AV-unprocessed.smi

> <i_m_source_file_index>
1792

> <i_lp_mmshare_version>
43012

> <i_f3d_flags>
0

> <s_epik_input>
W0NIMl0xW0NIMl1PW0NIMl1bQ0gyXU4xQyhbQ0gzXSkoW0NIM10pW0NIMl1bTkhdQyg9TylbTkhdYzJbY0hdW2NIXVtjSF1bY0hdbjI=

> <s_epik_cmdline>
J2VwaWtfcHl0aG9uJywgJy1waCcsICc3LjAnLCAnLXRuJywgJzgnLCAnLW1hJywgJzIwMCcsICctbWV0YWxfYmluZGluZycsICctaW1hZScsICc8aW5maWxlLm1hZT4nLCAnLW9tYWUnLCAnPG91dGZpbGUubWFlPic=

> <r_epik_Ionization_Penalty>
0.602565

> <r_epik_Ionization_Penalty_Charging>
0.602531

> <r_epik_Ionization_Penalty_Neutral>
3.47415e-05

> <r_epik_State_Penalty>
0.617039

> <r_epik_Charging_Adjusted_Penalty>
1.21957

> <i_epik_Tot_Q>
1

> <i_epik_Tot_abs_Q>
1

> <r_epik_Metal_State_Penalty>
0.617041

> <b_epik_Metal_Only>
0

> <s_lp_Force_Field>
OPLS_2005

> <r_lp_Energy>
32.7628

> <b_lp_Chiralities_Consistent>
1

> <s_lp_Variant>
AV-unprocessed.smi:1792-2

> <Gold.Version>
5.8.1

> <Gold.Id.Protein>
6NUR|6NUR_protein|mol2

> <Gold.PLP.Fitness>
41.7052

> <Gold.PLP.PLP>
-31.2338

> <Gold.PLP.part.hbond>
-2.9798

> <Gold.PLP.part.metal>
0.0000

> <Gold.PLP.part.buried>
-5.5260

> <Gold.PLP.part.nonpolar>
-24.4137

> <Gold.PLP.part.repulsive>
0.9585

> <Gold.PLP.ligand.clash>
0.0000

> <Gold.PLP.ligand.torsion>
0.8125

> <Gold.PLP.Chemscore.Hbond>
2.9913

> <Gold.PLP.Chemscore.CHOScore>
1.0000

> <Gold.PLP.Chemscore.Metal>
0.0000

> <Gold.Chemscore.Hbonds>
donor molecule, donor type, donor heavy atom, donor atom, acceptor molecule, acceptor atom, score
      L1  H     5    29       P1  7948  1.00
      L1  H     8    30       P1  7948  1.00
      P1  H  7989  7998       L1    18  0.83
      L1  C    13    34       P1 10186  1.00

> <Gold.PLP.Chemscore.Internal.Correction>
0.1227

> <Gold.Rescore>
     Score         DG    S(hbond)    S(metal)    S(lipo)     H(rot)  DE(clash)    DE(int)     intcor
     17.36     -19.65       2.93        0.00      71.28       1.55       0.01       2.28       ----

> <Gold.Chemscore.Fitness>
17.3561

> <Gold.Chemscore.DG>
-19.6467

> <Gold.Chemscore.ZeroCoef>
-5.4800

> <Gold.Chemscore.Hbond>
2.9306

> <Gold.Chemscore.Metal>
0.0000

> <Gold.Chemscore.Lipo>
71.2845

> <Gold.Chemscore.Internal_Hbond>
0.0000

> <Gold.Chemscore.DEClash>
0.0135

> <Gold.Chemscore.DEInternal>
2.2771

> <Gold.Chemscore.Rot>
1.5476

> <Gold.Chemscore.Internal.Correction>
   9.000000E+99

> <Gold.Chemscore.Hbonds>
donor molecule, donor type, donor heavy atom, donor atom, acceptor molecule, acceptor atom, score
      L1  H     5    29       P1  7948  0.97
      L1  H     8    30       P1  7948  0.96
      P1  H  7989  7998       L1    18  0.54

> <Gold.Chemscore.Hbond.Weighted>
-9.7884

> <Gold.Chemscore.Metal.Weighted>
-0.0000

> <Gold.Chemscore.Lipo.Weighted>
-8.3403

> <Gold.Chemscore.Internal_Hbond.Weighted>
0.0000

> <Gold.Chemscore.DEClash.Weighted>
0.0135

> <Gold.Chemscore.DEInternal.Weighted>
2.2771

> <Gold.Chemscore.Rot.Weighted>
3.9619

> <Gold.Chemscore.Internal.Correction.Weighted>
   9.000000E+99

> <Gold.Protein.RotatedTorsions>
[ 6907 6896 6895 6894 ] final   30.52 input  -60.11 | X-H torsion
[ 7974 7965 7964 7962 ] final  126.03 input  175.53 | X-H torsion
[ 8008 7997 7996 7995 ] final  -26.16 input   59.86 | X-H torsion
[ 10167 10162 10161 10158 ] final  -63.76 input  -65.29 | X-H torsion
[ 10718 10713 10712 10709 ] final  -78.65 input   66.30 | X-H torsion
[ 10763 10752 10751 10750 ] final  -17.72 input  -60.55 | X-H torsion
[ 11005 11000 10999 10996 ] final  -12.68 input  -57.11 | X-H torsion

> <Gold.Protein.ActiveResidues>
 VAL166  LYS551  ARG553  GLY616  TRP617  ASP618  TYR619  PRO620  LYS621  CYS622 
 ASP623  PHE694  ASN695  SER759  ASP760  ASP761  ALA762  ILE779  LEU786  VAL792 
 PHE793  MET794  SER795  GLU796  ALA797  LYS798  CYS799  TRP800  GLU811  SER814 

> <Gold.Protein.RotatedAtoms>
  152.0472  134.9676  160.0574 H   0  0  0  0  0  0  0  0  0  0  0  0  # atno 6907 bound_to 6896
  152.1091  133.4286  159.4631 H   0  0  0  0  0  0  0  0  0  0  0  0  # atno 6908 bound_to 6896
  150.6842  134.2589  159.4584 H   0  0  0  0  0  0  0  0  0  0  0  0  # atno 6909 bound_to 6896
  145.0663  139.3765  143.4980 H   0  0  0  0  0  0  0  0  0  0  0  0  # atno 7974 bound_to 7965
  154.4439  140.1907  156.0732 H   0  0  0  0  0  0  0  0  0  0  0  0  # atno 8008 bound_to 7997
  156.0495  140.3310  155.7308 H   0  0  0  0  0  0  0  0  0  0  0  0  # atno 8009 bound_to 7997
  155.5578  140.0601  157.2826 H   0  0  0  0  0  0  0  0  0  0  0  0  # atno 8010 bound_to 7997
  140.5848  143.2332  151.6266 H   0  0  0  0  0  0  0  0  0  0  0  0  # atno 10167 bound_to 10162
  156.0112  130.4524  150.3529 H   0  0  0  0  0  0  0  0  0  0  0  0  # atno 10718 bound_to 10713
  153.5782  135.7006  153.5475 H   0  0  0  0  0  0  0  0  0  0  0  0  # atno 10763 bound_to 10752
  153.3284  135.4054  155.1475 H   0  0  0  0  0  0  0  0  0  0  0  0  # atno 10764 bound_to 10752
  154.8622  135.3713  154.5308 H   0  0  0  0  0  0  0  0  0  0  0  0  # atno 10765 bound_to 10752
  140.7682  133.8460  155.9184 H   0  0  0  0  0  0  0  0  0  0  0  0  # atno 11005 bound_to 11000
  146.3527  140.0386  142.8644 LP  0  0  0  0  0  0  0  0  0  0  0  0  # atno 17320 bound_to 7965
  145.1347  140.9537  143.4524 LP  0  0  0  0  0  0  0  0  0  0  0  0  # atno 17321 bound_to 7965
  139.5191  144.3263  152.0866 LP  0  0  0  0  0  0  0  0  0  0  0  0  # atno 17342 bound_to 10162
  140.2419  144.4260  150.6256 LP  0  0  0  0  0  0  0  0  0  0  0  0  # atno 17343 bound_to 10162
  157.1621  131.0347  151.2836 LP  0  0  0  0  0  0  0  0  0  0  0  0  # atno 17370 bound_to 10713
  157.4302  130.7486  149.6984 LP  0  0  0  0  0  0  0  0  0  0  0  0  # atno 17371 bound_to 10713
  140.9599  134.1669  157.4662 LP  0  0  0  0  0  0  0  0  0  0  0  0  # atno 17394 bound_to 11000
  139.8760  134.9941  156.5675 LP  0  0  0  0  0  0  0  0  0  0  0  0  # atno 17395 bound_to 11000

$$$$
