AV-unprocessed.smi:1516|AV-procd|sdf|6118|dock5
  -GOLD-   22720 6253D 1   1.00000     0.00000
 Structure written by MMmdl.
 45 46  0  0  0  0  0  0  0  0  1 V2000
  143.1970  135.2027  151.8020 C   0  0  0  0  0  0  0  0  0  0  0  0
  143.9470  136.4580  151.8881 N   0  0  0  0  0  0  0  0  0  0  0  0
  143.2160  137.5943  152.4544 C   0  0  0  0  0  0  0  0  0  0  0  0
  145.2243  136.5891  151.4602 C   0  0  0  0  0  0  0  0  0  0  0  0
  145.8644  135.6379  151.0062 O   0  0  0  0  0  0  0  0  0  0  0  0
  145.9007  137.9707  151.5653 C   0  0  0  0  0  0  0  0  0  0  0  0
  147.1784  137.9338  152.2748 N   0  0  0  0  0  0  0  0  0  0  0  0
  147.5976  138.8547  153.1551 C   0  0  0  0  0  0  0  0  0  0  0  0
  146.9267  139.8333  153.4837 O   0  0  0  0  0  0  0  0  0  0  0  0
  148.8349  138.5749  153.5990 N   0  0  0  0  0  0  0  0  0  0  0  0
  149.6227  139.3013  154.5319 C   0  0  0  0  0  0  0  0  0  0  0  0
  150.9917  139.0538  154.7825 C   0  0  0  0  0  0  0  0  0  0  0  0
  151.6707  139.8555  155.7199 C   0  0  0  0  0  0  0  0  0  0  0  0
  150.9688  140.8922  156.3854 C   0  0  0  0  0  0  0  0  0  0  0  0
  151.5919  141.7355  157.3333 N   0  0  0  0  0  0  0  0  0  0  0  0
  151.1544  143.1350  157.3395 C   0  0  0  0  0  0  0  0  0  0  0  0
  152.1728  144.0383  158.0557 C   0  0  0  0  0  0  0  0  0  0  0  0
  152.4918  143.5077  159.4603 C   0  0  0  0  0  0  0  0  0  0  0  0
  152.9709  142.0521  159.3709 C   0  0  0  0  0  0  0  0  0  0  0  0
  151.9420  141.1732  158.6393 C   0  0  0  0  0  0  0  0  0  0  0  0
  149.6603  141.1321  156.1292 N   0  0  0  0  0  0  0  0  0  0  0  0
  149.0145  140.3632  155.2284 C   0  0  0  0  0  0  0  0  0  0  0  0
  143.2849  134.7515  150.8129 H   0  0  0  0  0  0  0  0  0  0  0  0
  142.1316  135.3491  151.9836 H   0  0  0  0  0  0  0  0  0  0  0  0
  143.5630  134.4897  152.5419 H   0  0  0  0  0  0  0  0  0  0  0  0
  143.8598  138.2319  153.0627 H   0  0  0  0  0  0  0  0  0  0  0  0
  142.3992  137.2705  153.1005 H   0  0  0  0  0  0  0  0  0  0  0  0
  142.7927  138.2032  151.6548 H   0  0  0  0  0  0  0  0  0  0  0  0
  146.0512  138.4001  150.5736 H   0  0  0  0  0  0  0  0  0  0  0  0
  145.2363  138.6456  152.1052 H   0  0  0  0  0  0  0  0  0  0  0  0
  147.7979  137.1679  152.0548 H   0  0  0  0  0  0  0  0  0  0  0  0
  149.2920  137.7832  153.1710 H   0  0  0  0  0  0  0  0  0  0  0  0
  151.5370  138.2775  154.2688 H   0  0  0  0  0  0  0  0  0  0  0  0
  152.7130  139.6521  155.9129 H   0  0  0  0  0  0  0  0  0  0  0  0
  151.0036  143.5164  156.3299 H   0  0  0  0  0  0  0  0  0  0  0  0
  150.1886  143.1928  157.8429 H   0  0  0  0  0  0  0  0  0  0  0  0
  153.0901  144.0896  157.4679 H   0  0  0  0  0  0  0  0  0  0  0  0
  151.7875  145.0563  158.1183 H   0  0  0  0  0  0  0  0  0  0  0  0
  153.2539  144.1274  159.9337 H   0  0  0  0  0  0  0  0  0  0  0  0
  151.6027  143.5666  160.0894 H   0  0  0  0  0  0  0  0  0  0  0  0
  153.9237  142.0149  158.8407 H   0  0  0  0  0  0  0  0  0  0  0  0
  153.1567  141.6558  160.3695 H   0  0  0  0  0  0  0  0  0  0  0  0
  151.0374  141.0763  159.2410 H   0  0  0  0  0  0  0  0  0  0  0  0
  152.3635  140.1746  158.5194 H   0  0  0  0  0  0  0  0  0  0  0  0
  147.9740  140.6029  155.0641 H   0  0  0  0  0  0  0  0  0  0  0  0
  1  2  1  0  0  0  0
  1 23  1  0  0  0  0
  1 24  1  0  0  0  0
  1 25  1  0  0  0  0
  2  3  1  0  0  0  0
  2  4  1  0  0  0  0
  3 26  1  0  0  0  0
  3 27  1  0  0  0  0
  3 28  1  0  0  0  0
  4  5  2  0  0  0  0
  4  6  1  0  0  0  0
  6  7  1  0  0  0  0
  6 29  1  0  0  0  0
  6 30  1  0  0  0  0
  7  8  1  0  0  0  0
  7 31  1  0  0  0  0
  8  9  2  0  0  0  0
  8 10  1  0  0  0  0
 10 11  1  0  0  0  0
 10 32  1  0  0  0  0
 11 22  1  0  0  0  0
 11 12  2  0  0  0  0
 12 13  1  0  0  0  0
 12 33  1  0  0  0  0
 13 14  2  0  0  0  0
 13 34  1  0  0  0  0
 14 15  1  0  0  0  0
 14 21  1  0  0  0  0
 15 20  1  0  0  0  0
 15 16  1  0  0  0  0
 16 17  1  0  0  0  0
 16 35  1  0  0  0  0
 16 36  1  0  0  0  0
 17 18  1  0  0  0  0
 17 37  1  0  0  0  0
 17 38  1  0  0  0  0
 18 19  1  0  0  0  0
 18 39  1  0  0  0  0
 18 40  1  0  0  0  0
 19 20  1  0  0  0  0
 19 41  1  0  0  0  0
 19 42  1  0  0  0  0
 20 43  1  0  0  0  0
 20 44  1  0  0  0  0
 21 22  2  0  0  0  0
 22 45  1  0  0  0  0
M  END
> <s_m_source_file>
AV-unprocessed.smi

> <i_m_source_file_index>
1516

> <i_lp_mmshare_version>
43012

> <i_f3d_flags>
0

> <s_epik_input>
W0NIM11OKFtDSDNdKUMoPU8pW0NIMl1bTkhdQyg9TylbTkhdYzFbY0hdW2NIXWMobltjSF0xKU4yW0NIMl1bQ0gyXVtDSDJdW0NIMl1bQ0gyXTI=

> <s_epik_cmdline>
J2VwaWtfcHl0aG9uJywgJy1waCcsICc3LjAnLCAnLXRuJywgJzgnLCAnLW1hJywgJzIwMCcsICctbWV0YWxfYmluZGluZycsICctaW1hZScsICc8aW5maWxlLm1hZT4nLCAnLW9tYWUnLCAnPG91dGZpbGUubWFlPic=

> <r_lp_tautomer_probability>
1

> <r_epik_Ionization_Penalty>
0.256009

> <r_epik_Ionization_Penalty_Charging>
0

> <r_epik_Ionization_Penalty_Neutral>
0.256009

> <r_epik_State_Penalty>
0.242045

> <r_epik_Charging_Adjusted_Penalty>
0.242045

> <i_epik_Tot_Q>
0

> <i_epik_Tot_abs_Q>
0

> <r_epik_Metal_State_Penalty>
0.169174

> <b_epik_Metal_Only>
0

> <s_lp_Force_Field>
OPLS_2005

> <r_lp_Energy>
21.8032

> <b_lp_Chiralities_Consistent>
1

> <s_lp_Variant>
AV-unprocessed.smi:1516-1

> <Gold.Version>
5.8.1

> <Gold.Id.Protein>
6NUR|6NUR_protein|mol2

> <Gold.PLP.Fitness>
46.9961

> <Gold.PLP.PLP>
-43.7275

> <Gold.PLP.part.hbond>
-2.8449

> <Gold.PLP.part.metal>
0.0000

> <Gold.PLP.part.buried>
-1.7998

> <Gold.PLP.part.nonpolar>
-40.2871

> <Gold.PLP.part.repulsive>
0.5687

> <Gold.PLP.ligand.clash>
0.0000

> <Gold.PLP.ligand.torsion>
1.1372

> <Gold.PLP.Chemscore.Hbond>
1.7502

> <Gold.PLP.Chemscore.CHOScore>
0.0000

> <Gold.PLP.Chemscore.Metal>
0.0000

> <Gold.Chemscore.Hbonds>
donor molecule, donor type, donor heavy atom, donor atom, acceptor molecule, acceptor atom, score
      L1  H     7    31       P1  7948  0.88
      L1  H    10    32       P1  7948  0.86

> <Gold.PLP.Chemscore.Internal.Correction>
0.2925

> <Gold.Rescore>
     Score         DG    S(hbond)    S(metal)    S(lipo)     H(rot)  DE(clash)    DE(int)     intcor
     16.14     -19.36       1.77        0.00      95.79       1.26       0.59       2.63       ----

> <Gold.Chemscore.Fitness>
16.1389

> <Gold.Chemscore.DG>
-19.3639

> <Gold.Chemscore.ZeroCoef>
-5.4800

> <Gold.Chemscore.Hbond>
1.7674

> <Gold.Chemscore.Metal>
0.0000

> <Gold.Chemscore.Lipo>
95.7913

> <Gold.Chemscore.Internal_Hbond>
0.0000

> <Gold.Chemscore.DEClash>
0.5943

> <Gold.Chemscore.DEInternal>
2.6308

> <Gold.Chemscore.Rot>
1.2605

> <Gold.Chemscore.Internal.Correction>
   9.000000E+99

> <Gold.Chemscore.Hbonds>
donor molecule, donor type, donor heavy atom, donor atom, acceptor molecule, acceptor atom, score
      L1  H     7    31       P1  7948  0.86
      L1  H    10    32       P1  7948  0.78

> <Gold.Chemscore.Hbond.Weighted>
-5.9033

> <Gold.Chemscore.Metal.Weighted>
-0.0000

> <Gold.Chemscore.Lipo.Weighted>
-11.2076

> <Gold.Chemscore.Internal_Hbond.Weighted>
0.0000

> <Gold.Chemscore.DEClash.Weighted>
0.5943

> <Gold.Chemscore.DEInternal.Weighted>
2.6308

> <Gold.Chemscore.Rot.Weighted>
3.2269

> <Gold.Chemscore.Internal.Correction.Weighted>
   9.000000E+99

> <Gold.Protein.RotatedTorsions>
[ 6907 6896 6895 6894 ] final  -70.22 input  -60.11 | X-H torsion
[ 7974 7965 7964 7962 ] final  -45.49 input  175.53 | X-H torsion
[ 8008 7997 7996 7995 ] final -127.76 input   59.86 | X-H torsion
[ 10167 10162 10161 10158 ] final -144.72 input  -65.29 | X-H torsion
[ 10718 10713 10712 10709 ] final   39.34 input   66.30 | X-H torsion
[ 10763 10752 10751 10750 ] final -146.76 input  -60.55 | X-H torsion
[ 11005 11000 10999 10996 ] final   28.87 input  -57.11 | X-H torsion

> <Gold.Protein.ActiveResidues>
 VAL166  LYS551  ARG553  GLY616  TRP617  ASP618  TYR619  PRO620  LYS621  CYS622 
 ASP623  PHE694  ASN695  SER759  ASP760  ASP761  ALA762  ILE779  LEU786  VAL792 
 PHE793  MET794  SER795  GLU796  ALA797  LYS798  CYS799  TRP800  GLU811  SER814 

> <Gold.Protein.RotatedAtoms>
  150.7268  134.5484  159.5781 H   0  0  0  0  0  0  0  0  0  0  0  0  # atno 6907 bound_to 6896
  152.2977  134.7644  160.0373 H   0  0  0  0  0  0  0  0  0  0  0  0  # atno 6908 bound_to 6896
  151.8236  133.3362  159.3628 H   0  0  0  0  0  0  0  0  0  0  0  0  # atno 6909 bound_to 6896
  145.9815  140.7278  142.9361 H   0  0  0  0  0  0  0  0  0  0  0  0  # atno 7974 bound_to 7965
  155.2515  140.0432  157.2987 H   0  0  0  0  0  0  0  0  0  0  0  0  # atno 8008 bound_to 7997
  154.5766  140.2389  155.8083 H   0  0  0  0  0  0  0  0  0  0  0  0  # atno 8009 bound_to 7997
  156.2162  140.2984  155.9854 H   0  0  0  0  0  0  0  0  0  0  0  0  # atno 8010 bound_to 7997
  139.7872  143.8017  152.2646 H   0  0  0  0  0  0  0  0  0  0  0  0  # atno 10167 bound_to 10162
  157.3695  130.7693  149.7108 H   0  0  0  0  0  0  0  0  0  0  0  0  # atno 10718 bound_to 10713
  154.8320  135.3378  154.6713 H   0  0  0  0  0  0  0  0  0  0  0  0  # atno 10763 bound_to 10752
  153.7331  135.6951  153.4989 H   0  0  0  0  0  0  0  0  0  0  0  0  # atno 10764 bound_to 10752
  153.2297  135.4420  155.0534 H   0  0  0  0  0  0  0  0  0  0  0  0  # atno 10765 bound_to 10752
  140.3110  134.2649  155.7734 H   0  0  0  0  0  0  0  0  0  0  0  0  # atno 11005 bound_to 11000
  144.6863  140.2916  143.7277 LP  0  0  0  0  0  0  0  0  0  0  0  0  # atno 17320 bound_to 7965
  145.7762  139.1875  143.2184 LP  0  0  0  0  0  0  0  0  0  0  0  0  # atno 17321 bound_to 7965
  139.8097  144.7341  150.9713 LP  0  0  0  0  0  0  0  0  0  0  0  0  # atno 17342 bound_to 10162
  140.7820  143.4262  151.0764 LP  0  0  0  0  0  0  0  0  0  0  0  0  # atno 17343 bound_to 10162
  155.9752  130.4091  150.3862 LP  0  0  0  0  0  0  0  0  0  0  0  0  # atno 17370 bound_to 10713
  157.1951  131.0424  151.2680 LP  0  0  0  0  0  0  0  0  0  0  0  0  # atno 17371 bound_to 10713
  141.2108  133.7708  156.9907 LP  0  0  0  0  0  0  0  0  0  0  0  0  # atno 17394 bound_to 11000
  140.1025  134.9527  157.1944 LP  0  0  0  0  0  0  0  0  0  0  0  0  # atno 17395 bound_to 11000

$$$$
