AV-unprocessed.smi:721|AV-procd|sdf|3503|dock8
  -GOLD-   22720 0503D 1   1.00000     0.00000
 Structure written by MMmdl.
 29 30  0  0  0  0  0  0  0  0  1 V2000
  152.1446  145.2507  159.1544 Cl  0  0  0  0  0  0  0  0  0  0  0  0
  152.0642  143.5759  158.7479 C   0  0  0  0  0  0  0  0  0  0  0  0
  152.7838  142.6022  159.4688 C   0  0  0  0  0  0  0  0  0  0  0  0
  152.7180  141.2915  159.1468 N   0  0  0  0  0  0  0  0  0  0  0  0
  151.9395  140.9569  158.1139 C   0  0  0  0  0  0  0  0  0  0  0  0
  151.8975  139.6065  157.8175 N   0  0  0  0  0  0  0  0  0  0  0  0
  151.0595  139.0038  156.7895 C   0  0  0  0  0  0  0  0  0  0  0  0
  151.5752  139.2925  155.3734 C   0  0  0  0  0  0  0  0  0  0  0  0
  150.8450  140.3778  154.8265 O   0  0  0  0  0  0  0  0  0  0  0  0
  149.4449  140.1647  154.8601 C   0  0  0  0  0  0  0  0  0  0  0  0
  148.7497  141.3803  154.2863 C   0  0  0  0  0  0  0  0  0  0  0  0
  147.4160  141.8313  154.8363 C   0  0  0  0  0  0  0  0  0  0  0  0
  147.4950  141.2276  153.4569 C   0  0  0  0  0  0  0  0  0  0  0  0
  151.2172  141.7975  157.3621 N   0  0  0  0  0  0  0  0  0  0  0  0
  151.2759  143.1099  157.6772 C   0  0  0  0  0  0  0  0  0  0  0  0
  153.4131  142.8725  160.3037 H   0  0  0  0  0  0  0  0  0  0  0  0
  152.4043  138.9871  158.4335 H   0  0  0  0  0  0  0  0  0  0  0  0
  151.0083  137.9272  156.9544 H   0  0  0  0  0  0  0  0  0  0  0  0
  150.0422  139.3798  156.8997 H   0  0  0  0  0  0  0  0  0  0  0  0
  152.6444  139.5093  155.3810 H   0  0  0  0  0  0  0  0  0  0  0  0
  151.4279  138.4092  154.7504 H   0  0  0  0  0  0  0  0  0  0  0  0
  149.1769  139.2893  154.2668 H   0  0  0  0  0  0  0  0  0  0  0  0
  149.1077  139.9947  155.8840 H   0  0  0  0  0  0  0  0  0  0  0  0
  149.4311  142.1712  153.9778 H   0  0  0  0  0  0  0  0  0  0  0  0
  146.9647  141.2307  155.6236 H   0  0  0  0  0  0  0  0  0  0  0  0
  147.2408  142.9026  154.9090 H   0  0  0  0  0  0  0  0  0  0  0  0
  147.3704  141.8961  152.6075 H   0  0  0  0  0  0  0  0  0  0  0  0
  147.0910  140.2255  153.3255 H   0  0  0  0  0  0  0  0  0  0  0  0
  150.6922  143.7877  157.0719 H   0  0  0  0  0  0  0  0  0  0  0  0
  1  2  1  0  0  0  0
  2 15  1  0  0  0  0
  2  3  2  0  0  0  0
  3  4  1  0  0  0  0
  3 16  1  0  0  0  0
  4  5  2  0  0  0  0
  5  6  1  0  0  0  0
  5 14  1  0  0  0  0
  6  7  1  0  0  0  0
  6 17  1  0  0  0  0
  7  8  1  0  0  0  0
  7 18  1  0  0  0  0
  7 19  1  0  0  0  0
  8  9  1  0  0  0  0
  8 20  1  0  0  0  0
  8 21  1  0  0  0  0
  9 10  1  0  0  0  0
 10 11  1  0  0  0  0
 10 22  1  0  0  0  0
 10 23  1  0  0  0  0
 11 13  1  0  0  0  0
 11 12  1  0  0  0  0
 11 24  1  0  0  0  0
 12 13  1  0  0  0  0
 12 25  1  0  0  0  0
 12 26  1  0  0  0  0
 13 27  1  0  0  0  0
 13 28  1  0  0  0  0
 14 15  2  0  0  0  0
 15 29  1  0  0  0  0
M  END
> <s_m_source_file>
AV-unprocessed.smi

> <i_m_source_file_index>
721

> <i_lp_mmshare_version>
43012

> <i_f3d_flags>
0

> <s_epik_input>
Q2xjMVtjSF1uYyhuW2NIXTEpW05IXVtDSDJdW0NIMl1PW0NIMl1bQ0hdMltDSDJdW0NIMl0y

> <s_epik_cmdline>
J2VwaWtfcHl0aG9uJywgJy1waCcsICc3LjAnLCAnLXRuJywgJzgnLCAnLW1hJywgJzIwMCcsICctbWV0YWxfYmluZGluZycsICctaW1hZScsICc8aW5maWxlLm1hZT4nLCAnLW9tYWUnLCAnPG91dGZpbGUubWFlPic=

> <r_lp_tautomer_probability>
1

> <r_epik_Ionization_Penalty>
7.18353e-06

> <r_epik_Ionization_Penalty_Charging>
0

> <r_epik_Ionization_Penalty_Neutral>
7.18353e-06

> <r_epik_State_Penalty>
-0

> <r_epik_Charging_Adjusted_Penalty>
0

> <i_epik_Tot_Q>
0

> <i_epik_Tot_abs_Q>
0

> <r_epik_Metal_State_Penalty>
-0

> <b_epik_Metal_Only>
0

> <s_lp_Force_Field>
OPLS_2005

> <r_lp_Energy>
6.1156

> <b_lp_Chiralities_Consistent>
1

> <s_lp_Variant>
AV-unprocessed.smi:721-1

> <Gold.Version>
5.8.1

> <Gold.Id.Protein>
6NUR|6NUR_protein|mol2

> <Gold.PLP.Fitness>
38.7986

> <Gold.PLP.PLP>
-33.9155

> <Gold.PLP.part.hbond>
-1.0000

> <Gold.PLP.part.metal>
0.0000

> <Gold.PLP.part.buried>
-4.6512

> <Gold.PLP.part.nonpolar>
-28.3924

> <Gold.PLP.part.repulsive>
0.1943

> <Gold.PLP.ligand.clash>
0.0000

> <Gold.PLP.ligand.torsion>
0.8383

> <Gold.PLP.Chemscore.Hbond>
1.0000

> <Gold.PLP.Chemscore.CHOScore>
1.0000

> <Gold.PLP.Chemscore.Metal>
0.0000

> <Gold.Chemscore.Hbonds>
donor molecule, donor type, donor heavy atom, donor atom, acceptor molecule, acceptor atom, score
      P1  H  7989  7998       L1     9  1.00
      L1  C    15    29       P1  8028  1.00

> <Gold.PLP.Chemscore.Internal.Correction>
0.5597

> <Gold.Rescore>
     Score         DG    S(hbond)    S(metal)    S(lipo)     H(rot)  DE(clash)    DE(int)     intcor
     13.22     -14.21       0.93        0.00      86.81       1.77       0.08       0.91       ----

> <Gold.Chemscore.Fitness>
13.2203

> <Gold.Chemscore.DG>
-14.2078

> <Gold.Chemscore.ZeroCoef>
-5.4800

> <Gold.Chemscore.Hbond>
0.9305

> <Gold.Chemscore.Metal>
0.0000

> <Gold.Chemscore.Lipo>
86.8092

> <Gold.Chemscore.Internal_Hbond>
0.0000

> <Gold.Chemscore.DEClash>
0.0810

> <Gold.Chemscore.DEInternal>
0.9066

> <Gold.Chemscore.Rot>
1.7722

> <Gold.Chemscore.Internal.Correction>
   9.000000E+99

> <Gold.Chemscore.Hbonds>
donor molecule, donor type, donor heavy atom, donor atom, acceptor molecule, acceptor atom, score
      P1  H  7989  7998       L1     9  0.64

> <Gold.Chemscore.Hbond.Weighted>
-3.1079

> <Gold.Chemscore.Metal.Weighted>
-0.0000

> <Gold.Chemscore.Lipo.Weighted>
-10.1567

> <Gold.Chemscore.Internal_Hbond.Weighted>
0.0000

> <Gold.Chemscore.DEClash.Weighted>
0.0810

> <Gold.Chemscore.DEInternal.Weighted>
0.9066

> <Gold.Chemscore.Rot.Weighted>
4.5367

> <Gold.Chemscore.Internal.Correction.Weighted>
   9.000000E+99

> <Gold.Protein.RotatedTorsions>
[ 6907 6896 6895 6894 ] final   43.84 input  -60.11 | X-H torsion
[ 7974 7965 7964 7962 ] final  -27.46 input  175.53 | X-H torsion
[ 8008 7997 7996 7995 ] final -171.59 input   59.86 | X-H torsion
[ 10167 10162 10161 10158 ] final   88.35 input  -65.29 | X-H torsion
[ 10718 10713 10712 10709 ] final  157.74 input   66.30 | X-H torsion
[ 10763 10752 10751 10750 ] final  -88.89 input  -60.55 | X-H torsion
[ 11005 11000 10999 10996 ] final  -75.81 input  -57.11 | X-H torsion

> <Gold.Protein.ActiveResidues>
 VAL166  LYS551  ARG553  GLY616  TRP617  ASP618  TYR619  PRO620  LYS621  CYS622 
 ASP623  PHE694  ASN695  SER759  ASP760  ASP761  ALA762  ILE779  LEU786  VAL792 
 PHE793  MET794  SER795  GLU796  ALA797  LYS798  CYS799  TRP800  GLU811  SER814 

> <Gold.Protein.RotatedAtoms>
  152.2252  134.8374  160.0480 H   0  0  0  0  0  0  0  0  0  0  0  0  # atno 6907 bound_to 6896
  151.9143  133.3564  159.3883 H   0  0  0  0  0  0  0  0  0  0  0  0  # atno 6908 bound_to 6896
  150.7010  134.4625  159.5431 H   0  0  0  0  0  0  0  0  0  0  0  0  # atno 6909 bound_to 6896
  146.1356  140.5154  142.8674 H   0  0  0  0  0  0  0  0  0  0  0  0  # atno 7974 bound_to 7965
  155.9336  140.1095  157.1113 H   0  0  0  0  0  0  0  0  0  0  0  0  # atno 8008 bound_to 7997
  154.4075  140.1233  156.4900 H   0  0  0  0  0  0  0  0  0  0  0  0  # atno 8009 bound_to 7997
  155.7050  140.3471  155.4951 H   0  0  0  0  0  0  0  0  0  0  0  0  # atno 8010 bound_to 7997
  139.8682  144.6507  150.8980 H   0  0  0  0  0  0  0  0  0  0  0  0  # atno 10167 bound_to 10162
  157.1874  131.0646  151.2098 H   0  0  0  0  0  0  0  0  0  0  0  0  # atno 10718 bound_to 10713
  154.6494  135.5360  153.7884 H   0  0  0  0  0  0  0  0  0  0  0  0  # atno 10763 bound_to 10752
  153.0378  135.6479  154.1039 H   0  0  0  0  0  0  0  0  0  0  0  0  # atno 10764 bound_to 10752
  154.0957  135.2937  155.3242 H   0  0  0  0  0  0  0  0  0  0  0  0  # atno 10765 bound_to 10752
  141.1649  133.6960  156.7574 H   0  0  0  0  0  0  0  0  0  0  0  0  # atno 11005 bound_to 11000
  144.7736  140.5692  143.6653 LP  0  0  0  0  0  0  0  0  0  0  0  0  # atno 17320 bound_to 7965
  145.5163  139.1478  143.3577 LP  0  0  0  0  0  0  0  0  0  0  0  0  # atno 17321 bound_to 7965
  140.7765  143.3686  151.1691 LP  0  0  0  0  0  0  0  0  0  0  0  0  # atno 17342 bound_to 10162
  139.7309  143.9074  152.3019 LP  0  0  0  0  0  0  0  0  0  0  0  0  # atno 17343 bound_to 10162
  157.3893  130.7273  149.6686 LP  0  0  0  0  0  0  0  0  0  0  0  0  # atno 17370 bound_to 10713
  155.9716  130.4151  150.4163 LP  0  0  0  0  0  0  0  0  0  0  0  0  # atno 17371 bound_to 10713
  140.2559  134.8504  157.3712 LP  0  0  0  0  0  0  0  0  0  0  0  0  # atno 17394 bound_to 11000
  140.1658  134.4671  155.7864 LP  0  0  0  0  0  0  0  0  0  0  0  0  # atno 17395 bound_to 11000

$$$$
