AV-unprocessed.smi:1824|AV-procd|sdf|7411|dock9
  -GOLD-   22720 9 83D 1   1.00000     0.00000
 Structure written by MMmdl.
 45 47  0  0  0  0  0  0  0  0  2 V2000
  149.3006  133.4826  154.8053 C   0  0  0  0  0  0  0  0  0  0  0  0
  149.4521  134.9058  155.3527 C   0  0  1  0  0  0  0  0  0  0  0  0
  150.7245  135.5951  154.8265 C   0  0  0  0  0  0  0  0  0  0  0  0
  150.8203  136.9829  155.2719 N   0  0  0  0  0  0  0  0  0  0  0  0
  152.0287  137.6518  154.7861 C   0  0  0  0  0  0  0  0  0  0  0  0
  152.0955  139.1699  155.0458 C   0  0  2  0  0  0  0  0  0  0  0  0
  153.3806  139.6266  154.6718 O   0  0  0  0  0  0  0  0  0  0  0  0
  151.8410  139.4997  156.5296 C   0  0  0  0  0  0  0  0  0  0  0  0
  151.3195  140.8595  156.7321 N   0  0  0  0  0  0  0  0  0  0  0  0
  150.4710  141.5880  155.9569 C   0  0  0  0  0  0  0  0  0  0  0  0
  150.2888  142.7924  156.5663 N   0  3  0  0  0  0  0  0  0  0  0  0
  151.0333  142.8354  157.7473 C   0  0  0  0  0  0  0  0  0  0  0  0
  151.1733  143.8391  158.7005 C   0  0  0  0  0  0  0  0  0  0  0  0
  152.0200  143.5630  159.7943 C   0  0  0  0  0  0  0  0  0  0  0  0
  152.1934  144.5061  160.7504 F   0  0  0  0  0  0  0  0  0  0  0  0
  152.6893  142.3263  159.9105 C   0  0  0  0  0  0  0  0  0  0  0  0
  153.4947  142.1027  160.9758 F   0  0  0  0  0  0  0  0  0  0  0  0
  152.5380  141.3159  158.9381 C   0  0  0  0  0  0  0  0  0  0  0  0
  151.6989  141.5968  157.8603 C   0  0  0  0  0  0  0  0  0  0  0  0
  149.6238  137.6988  154.8418 C   0  0  0  0  0  0  0  0  0  0  0  0
  148.3213  137.0346  155.3302 C   0  0  2  0  0  0  0  0  0  0  0  0
  148.0664  137.2249  156.8355 C   0  0  0  0  0  0  0  0  0  0  0  0
  148.3045  135.6555  154.9587 O   0  0  0  0  0  0  0  0  0  0  0  0
  150.1475  132.8592  155.0933 H   0  0  0  0  0  0  0  0  0  0  0  0
  149.2393  133.4830  153.7166 H   0  0  0  0  0  0  0  0  0  0  0  0
  148.3956  133.0115  155.1898 H   0  0  0  0  0  0  0  0  0  0  0  0
  149.4918  134.8514  156.4410 H   0  0  0  0  0  0  0  0  0  0  0  0
  151.5874  135.0252  155.1673 H   0  0  0  0  0  0  0  0  0  0  0  0
  150.7358  135.5568  153.7359 H   0  0  0  0  0  0  0  0  0  0  0  0
  152.9024  137.1718  155.2300 H   0  0  0  0  0  0  0  0  0  0  0  0
  152.1213  137.4918  153.7106 H   0  0  0  0  0  0  0  0  0  0  0  0
  151.3562  139.7010  154.4479 H   0  0  0  0  0  0  0  0  0  0  0  0
  153.3061  140.0701  153.8401 H   0  0  0  0  0  0  0  0  0  0  0  0
  151.1014  138.8105  156.9393 H   0  0  0  0  0  0  0  0  0  0  0  0
  152.7431  139.3668  157.1271 H   0  0  0  0  0  0  0  0  0  0  0  0
  150.0238  141.2686  155.0264 H   0  0  0  0  0  0  0  0  0  0  0  0
  150.6640  144.7876  158.6155 H   0  0  0  0  0  0  0  0  0  0  0  0
  153.0615  140.3765  159.0346 H   0  0  0  0  0  0  0  0  0  0  0  0
  149.6584  138.7308  155.1938 H   0  0  0  0  0  0  0  0  0  0  0  0
  149.6047  137.7482  153.7518 H   0  0  0  0  0  0  0  0  0  0  0  0
  147.4885  137.5031  154.8051 H   0  0  0  0  0  0  0  0  0  0  0  0
  147.9653  138.2823  157.0806 H   0  0  0  0  0  0  0  0  0  0  0  0
  148.8788  136.8267  157.4432 H   0  0  0  0  0  0  0  0  0  0  0  0
  147.1460  136.7260  157.1398 H   0  0  0  0  0  0  0  0  0  0  0  0
  149.7001  143.5294  156.1991 H   0  0  0  0  0  0  0  0  0  0  0  0
  1  2  1  0  0  0  0
  1 24  1  0  0  0  0
  1 25  1  0  0  0  0
  1 26  1  0  0  0  0
  2 23  1  0  0  0  0
  2  3  1  0  0  0  0
  2 27  1  0  0  0  0
  3  4  1  0  0  0  0
  3 28  1  0  0  0  0
  3 29  1  0  0  0  0
  4  5  1  0  0  0  0
  4 20  1  0  0  0  0
  5  6  1  0  0  0  0
  5 30  1  0  0  0  0
  5 31  1  0  0  0  0
  6  7  1  0  0  0  0
  6  8  1  0  0  0  0
  6 32  1  0  0  0  0
  7 33  1  0  0  0  0
  8  9  1  0  0  0  0
  8 34  1  0  0  0  0
  8 35  1  0  0  0  0
  9 19  1  0  0  0  0
  9 10  1  0  0  0  0
 10 11  2  0  0  0  0
 10 36  1  0  0  0  0
 11 12  1  0  0  0  0
 11 45  1  0  0  0  0
 12 19  2  0  0  0  0
 12 13  1  0  0  0  0
 13 14  2  0  0  0  0
 13 37  1  0  0  0  0
 14 15  1  0  0  0  0
 14 16  1  0  0  0  0
 16 17  1  0  0  0  0
 16 18  2  0  0  0  0
 18 19  1  0  0  0  0
 18 38  1  0  0  0  0
 20 21  1  0  0  0  0
 20 39  1  0  0  0  0
 20 40  1  0  0  0  0
 21 22  1  0  0  0  0
 21 23  1  0  0  0  0
 21 41  1  0  0  0  0
 22 42  1  0  0  0  0
 22 43  1  0  0  0  0
 22 44  1  0  0  0  0
M  CHG  1  11   1
M  END
> <s_m_source_file>
AV-unprocessed.smi

> <i_m_source_file_index>
1824

> <i_lp_mmshare_version>
43012

> <i_f3d_flags>
0

> <s_epik_input>
W0NIM11bQ0BASF0xW0NIMl1OKFtDSDJdW0NASF0oTzEpW0NIM10pW0NIMl1bQ0BIXShbT0hdKVtDSDJdbihbY0hdbjIpYyhjMjMpW2NIXWMoRiljKEYpW2NIXTM=

> <s_epik_cmdline>
J2VwaWtfcHl0aG9uJywgJy1waCcsICc3LjAnLCAnLXRuJywgJzgnLCAnLW1hJywgJzIwMCcsICctbWV0YWxfYmluZGluZycsICctaW1hZScsICc8aW5maWxlLm1hZT4nLCAnLW9tYWUnLCAnPG91dGZpbGUubWFlPic=

> <r_epik_Ionization_Penalty>
2.58709

> <r_epik_Ionization_Penalty_Charging>
2.37273

> <r_epik_Ionization_Penalty_Neutral>
0.214359

> <r_epik_State_Penalty>
2.71799

> <r_epik_Charging_Adjusted_Penalty>
5.09071

> <i_epik_Tot_Q>
1

> <i_epik_Tot_abs_Q>
1

> <r_epik_Metal_State_Penalty>
6.80217

> <b_epik_Metal_Only>
0

> <s_lp_Force_Field>
OPLS_2005

> <r_lp_Energy>
35.2196

> <b_lp_Chiralities_Consistent>
1

> <s_lp_Variant>
AV-unprocessed.smi:1824-19

> <Gold.Version>
5.8.1

> <Gold.Id.Protein>
6NUR|6NUR_protein|mol2

> <Gold.PLP.Fitness>
54.0640

> <Gold.PLP.PLP>
-46.4115

> <Gold.PLP.part.hbond>
-3.0000

> <Gold.PLP.part.metal>
0.0000

> <Gold.PLP.part.buried>
-3.2943

> <Gold.PLP.part.nonpolar>
-40.2701

> <Gold.PLP.part.repulsive>
0.3540

> <Gold.PLP.ligand.clash>
0.0000

> <Gold.PLP.ligand.torsion>
0.7037

> <Gold.PLP.Chemscore.Hbond>
3.0000

> <Gold.PLP.Chemscore.CHOScore>
0.0000

> <Gold.PLP.Chemscore.Metal>
0.0000

> <Gold.Chemscore.Hbonds>
donor molecule, donor type, donor heavy atom, donor atom, acceptor molecule, acceptor atom, score
      L1  H    11    45       P1  8028  2.00
      P1  H  7997  8009       L1     7  1.00

> <Gold.PLP.Chemscore.Internal.Correction>
0.0598

> <Gold.Rescore>
     Score         DG    S(hbond)    S(metal)    S(lipo)     H(rot)  DE(clash)    DE(int)     intcor
     17.28     -17.97       1.97        0.00     101.19       2.32       0.06       0.62       ----

> <Gold.Chemscore.Fitness>
17.2817

> <Gold.Chemscore.DG>
-17.9662

> <Gold.Chemscore.ZeroCoef>
-5.4800

> <Gold.Chemscore.Hbond>
1.9726

> <Gold.Chemscore.Metal>
0.0000

> <Gold.Chemscore.Lipo>
101.1911

> <Gold.Chemscore.Internal_Hbond>
0.0000

> <Gold.Chemscore.DEClash>
0.0610

> <Gold.Chemscore.DEInternal>
0.6235

> <Gold.Chemscore.Rot>
2.3210

> <Gold.Chemscore.Internal.Correction>
   9.000000E+99

> <Gold.Chemscore.Hbonds>
donor molecule, donor type, donor heavy atom, donor atom, acceptor molecule, acceptor atom, score
      L1  H    11    45       P1  8028  0.93
      P1  H  7997  8009       L1     7  0.91

> <Gold.Chemscore.Hbond.Weighted>
-6.5884

> <Gold.Chemscore.Metal.Weighted>
-0.0000

> <Gold.Chemscore.Lipo.Weighted>
-11.8394

> <Gold.Chemscore.Internal_Hbond.Weighted>
0.0000

> <Gold.Chemscore.DEClash.Weighted>
0.0610

> <Gold.Chemscore.DEInternal.Weighted>
0.6235

> <Gold.Chemscore.Rot.Weighted>
5.9416

> <Gold.Chemscore.Internal.Correction.Weighted>
   9.000000E+99

> <Gold.Protein.RotatedTorsions>
[ 6907 6896 6895 6894 ] final   46.87 input  -60.11 | X-H torsion
[ 7974 7965 7964 7962 ] final -140.30 input  175.53 | X-H torsion
[ 8008 7997 7996 7995 ] final -123.12 input   59.86 | X-H torsion
[ 10167 10162 10161 10158 ] final   35.50 input  -65.29 | X-H torsion
[ 10718 10713 10712 10709 ] final   81.66 input   66.30 | X-H torsion
[ 10763 10752 10751 10750 ] final  -56.32 input  -60.55 | X-H torsion
[ 11005 11000 10999 10996 ] final -133.36 input  -57.11 | X-H torsion

> <Gold.Protein.ActiveResidues>
 VAL166  LYS551  ARG553  GLY616  TRP617  ASP618  TYR619  PRO620  LYS621  CYS622 
 ASP623  PHE694  ASN695  SER759  ASP760  ASP761  ALA762  ILE779  LEU786  VAL792 
 PHE793  MET794  SER795  GLU796  ALA797  LYS798  CYS799  TRP800  GLU811  SER814 

> <Gold.Protein.RotatedAtoms>
  152.2615  134.8029  160.0429 H   0  0  0  0  0  0  0  0  0  0  0  0  # atno 6907 bound_to 6896
  151.8674  133.3463  159.3731 H   0  0  0  0  0  0  0  0  0  0  0  0  # atno 6908 bound_to 6896
  150.7118  134.5074  159.5635 H   0  0  0  0  0  0  0  0  0  0  0  0  # atno 6909 bound_to 6896
  144.8608  140.6216  143.5329 H   0  0  0  0  0  0  0  0  0  0  0  0  # atno 7974 bound_to 7965
  155.1753  140.0409  157.2871 H   0  0  0  0  0  0  0  0  0  0  0  0  # atno 8008 bound_to 7997
  154.6241  140.2508  155.7486 H   0  0  0  0  0  0  0  0  0  0  0  0  # atno 8009 bound_to 7997
  156.2449  140.2889  156.0563 H   0  0  0  0  0  0  0  0  0  0  0  0  # atno 8010 bound_to 7997
  140.4216  144.1452  150.6148 H   0  0  0  0  0  0  0  0  0  0  0  0  # atno 10167 bound_to 10162
  157.6838  131.0014  150.2260 H   0  0  0  0  0  0  0  0  0  0  0  0  # atno 10718 bound_to 10713
  154.2047  135.6405  153.5097 H   0  0  0  0  0  0  0  0  0  0  0  0  # atno 10763 bound_to 10752
  153.0003  135.5460  154.6278 H   0  0  0  0  0  0  0  0  0  0  0  0  # atno 10764 bound_to 10752
  154.5700  135.2916  155.0810 H   0  0  0  0  0  0  0  0  0  0  0  0  # atno 10765 bound_to 10752
  140.9087  134.1596  157.4405 H   0  0  0  0  0  0  0  0  0  0  0  0  # atno 11005 bound_to 11000
  145.4316  139.1548  143.4019 LP  0  0  0  0  0  0  0  0  0  0  0  0  # atno 17320 bound_to 7965
  146.2859  140.4432  142.8758 LP  0  0  0  0  0  0  0  0  0  0  0  0  # atno 17321 bound_to 7965
  140.4528  143.2480  151.9325 LP  0  0  0  0  0  0  0  0  0  0  0  0  # atno 17342 bound_to 10162
  139.4783  144.5546  151.8334 LP  0  0  0  0  0  0  0  0  0  0  0  0  # atno 17343 bound_to 10162
  156.2902  130.3744  149.7849 LP  0  0  0  0  0  0  0  0  0  0  0  0  # atno 17370 bound_to 10713
  156.5511  130.8342  151.3299 LP  0  0  0  0  0  0  0  0  0  0  0  0  # atno 17371 bound_to 10713
  139.8754  134.9927  156.5610 LP  0  0  0  0  0  0  0  0  0  0  0  0  # atno 17394 bound_to 11000
  140.8137  133.8408  155.8833 LP  0  0  0  0  0  0  0  0  0  0  0  0  # atno 17395 bound_to 11000

$$$$
