AV-unprocessed.smi:2567|AV-procd|sdf|10085|dock3
  -GOLD-   2272014113D 1   1.00000     0.00000
 Structure written by MMmdl.
 33 34  0  0  0  0  0  0  0  0  3 V2000
  152.5200  144.3728  157.8919 C   0  0  0  0  0  0  0  0  0  0  0  0
  151.7015  143.3093  158.6467 C   0  0  0  0  0  0  0  0  0  0  0  0
  152.5571  142.7808  159.8175 C   0  0  0  0  0  0  0  0  0  0  0  0
  150.4146  143.9221  159.2286 C   0  0  0  0  0  0  0  0  0  0  0  0
  151.3381  142.1731  157.6950 C   0  0  0  0  0  0  0  0  0  0  0  0
  151.7712  140.9016  157.7948 N   0  5  0  0  0  0  0  0  0  0  0  0
  151.2733  140.1739  156.8170 N   0  0  0  0  0  0  0  0  0  0  0  0
  150.5245  141.0183  156.0936 C   0  0  0  0  0  0  0  0  0  0  0  0
  149.7153  140.6191  154.8776 C   0  0  1  0  0  0  0  0  0  0  0  0
  149.9279  139.1315  154.5355 C   0  0  0  0  0  0  0  0  0  0  0  0
  149.1208  138.7578  153.3580 N   0  3  0  0  0  0  0  0  0  0  0  0
  147.6953  139.0872  153.5501 C   0  0  0  0  0  0  0  0  0  0  0  0
  147.5440  140.5711  153.9234 C   0  0  0  0  0  0  0  0  0  0  0  0
  148.3227  140.8536  155.0803 O   0  0  0  0  0  0  0  0  0  0  0  0
  150.5436  142.2468  156.6287 N   0  0  0  0  0  0  0  0  0  0  0  0
  152.8026  145.1963  158.5480 H   0  0  0  0  0  0  0  0  0  0  0  0
  151.9523  144.7961  157.0625 H   0  0  0  0  0  0  0  0  0  0  0  0
  153.4363  143.9483  157.4797 H   0  0  0  0  0  0  0  0  0  0  0  0
  153.4864  142.3340  159.4625 H   0  0  0  0  0  0  0  0  0  0  0  0
  152.0238  142.0204  160.3897 H   0  0  0  0  0  0  0  0  0  0  0  0
  152.8232  143.5813  160.5086 H   0  0  0  0  0  0  0  0  0  0  0  0
  150.6382  144.7327  159.9229 H   0  0  0  0  0  0  0  0  0  0  0  0
  149.8304  143.1758  159.7679 H   0  0  0  0  0  0  0  0  0  0  0  0
  149.7792  144.3311  158.4424 H   0  0  0  0  0  0  0  0  0  0  0  0
  150.0556  141.2382  154.0453 H   0  0  0  0  0  0  0  0  0  0  0  0
  150.9791  138.9308  154.3263 H   0  0  0  0  0  0  0  0  0  0  0  0
  149.6418  138.5031  155.3804 H   0  0  0  0  0  0  0  0  0  0  0  0
  149.4660  139.2693  152.5584 H   0  0  0  0  0  0  0  0  0  0  0  0
  147.1445  138.8615  152.6369 H   0  0  0  0  0  0  0  0  0  0  0  0
  147.2846  138.4564  154.3395 H   0  0  0  0  0  0  0  0  0  0  0  0
  147.8512  141.2153  153.0979 H   0  0  0  0  0  0  0  0  0  0  0  0
  146.4997  140.8011  154.1355 H   0  0  0  0  0  0  0  0  0  0  0  0
  149.2186  137.7677  153.1843 H   0  0  0  0  0  0  0  0  0  0  0  0
  1  2  1  0  0  0  0
  1 16  1  0  0  0  0
  1 17  1  0  0  0  0
  1 18  1  0  0  0  0
  2  3  1  0  0  0  0
  2  4  1  0  0  0  0
  2  5  1  0  0  0  0
  3 19  1  0  0  0  0
  3 20  1  0  0  0  0
  3 21  1  0  0  0  0
  4 22  1  0  0  0  0
  4 23  1  0  0  0  0
  4 24  1  0  0  0  0
  5 15  2  0  0  0  0
  5  6  1  0  0  0  0
  6  7  1  0  0  0  0
  7  8  2  0  0  0  0
  8  9  1  0  0  0  0
  8 15  1  0  0  0  0
  9 14  1  0  0  0  0
  9 10  1  0  0  0  0
  9 25  1  0  0  0  0
 10 11  1  0  0  0  0
 10 26  1  0  0  0  0
 10 27  1  0  0  0  0
 11 12  1  0  0  0  0
 11 28  1  0  0  0  0
 11 33  1  0  0  0  0
 12 13  1  0  0  0  0
 12 29  1  0  0  0  0
 12 30  1  0  0  0  0
 13 14  1  0  0  0  0
 13 31  1  0  0  0  0
 13 32  1  0  0  0  0
M  CHG  1   6  -1
M  CHG  1  11   1
M  END
> <s_m_source_file>
AV-unprocessed.smi

> <i_m_source_file_index>
2567

> <i_lp_mmshare_version>
43012

> <i_f3d_flags>
0

> <s_epik_input>
W0NIM11DKFtDSDNdKShbQ0gzXSljMW5bbkhdYyhuMSlbQ0BASF0yW0NIMl1bTkhdW0NIMl1bQ0gyXU8y

> <s_epik_cmdline>
J2VwaWtfcHl0aG9uJywgJy1waCcsICc3LjAnLCAnLXRuJywgJzgnLCAnLW1hJywgJzIwMCcsICctbWV0YWxfYmluZGluZycsICctaW1hZScsICc8aW5maWxlLm1hZT4nLCAnLW9tYWUnLCAnPG91dGZpbGUubWFlPic=

> <r_lp_tautomer_probability>
0.948284

> <r_epik_Ionization_Penalty>
5.01189

> <r_epik_Ionization_Penalty_Charging>
5.01189

> <r_epik_Ionization_Penalty_Neutral>
8.99859e-14

> <r_epik_State_Penalty>
2.75157

> <r_epik_Charging_Adjusted_Penalty>
7.76346

> <i_epik_Tot_Q>
0

> <i_epik_Tot_abs_Q>
2

> <r_epik_Metal_State_Penalty>
0.54282

> <b_epik_Metal_Only>
1

> <s_lp_Force_Field>
OPLS_2005

> <r_lp_Energy>
6.85935

> <b_lp_Chiralities_Consistent>
1

> <s_lp_Variant>
AV-unprocessed.smi:2567-10

> <Gold.Version>
5.8.1

> <Gold.Id.Protein>
6NUR|6NUR_protein|mol2

> <Gold.PLP.Fitness>
38.8631

> <Gold.PLP.PLP>
-30.0518

> <Gold.PLP.part.hbond>
-1.9555

> <Gold.PLP.part.metal>
0.0000

> <Gold.PLP.part.buried>
-4.8382

> <Gold.PLP.part.nonpolar>
-24.7892

> <Gold.PLP.part.repulsive>
0.4381

> <Gold.PLP.ligand.clash>
0.0000

> <Gold.PLP.ligand.torsion>
0.0654

> <Gold.PLP.Chemscore.Hbond>
2.9753

> <Gold.PLP.Chemscore.CHOScore>
0.0000

> <Gold.PLP.Chemscore.Metal>
0.0000

> <Gold.Chemscore.Hbonds>
donor molecule, donor type, donor heavy atom, donor atom, acceptor molecule, acceptor atom, score
      L1  H    11    28       P1  7957  1.00
      L1  H    11    33       P1  7948  1.86

> <Gold.PLP.Chemscore.Internal.Correction>
0.0163

> <Gold.Rescore>
     Score         DG    S(hbond)    S(metal)    S(lipo)     H(rot)  DE(clash)    DE(int)     intcor
     16.83     -16.88       1.91        0.00      70.06       1.25       0.04       0.01       ----

> <Gold.Chemscore.Fitness>
16.8273

> <Gold.Chemscore.DG>
-16.8762

> <Gold.Chemscore.ZeroCoef>
-5.4800

> <Gold.Chemscore.Hbond>
1.9149

> <Gold.Chemscore.Metal>
0.0000

> <Gold.Chemscore.Lipo>
70.0588

> <Gold.Chemscore.Internal_Hbond>
0.0000

> <Gold.Chemscore.DEClash>
0.0402

> <Gold.Chemscore.DEInternal>
0.0086

> <Gold.Chemscore.Rot>
1.2486

> <Gold.Chemscore.Internal.Correction>
   9.000000E+99

> <Gold.Chemscore.Hbonds>
donor molecule, donor type, donor heavy atom, donor atom, acceptor molecule, acceptor atom, score
      L1  H    11    28       P1  7957  0.98
      L1  H    11    33       P1  7948  0.84

> <Gold.Chemscore.Hbond.Weighted>
-6.3957

> <Gold.Chemscore.Metal.Weighted>
-0.0000

> <Gold.Chemscore.Lipo.Weighted>
-8.1969

> <Gold.Chemscore.Internal_Hbond.Weighted>
0.0000

> <Gold.Chemscore.DEClash.Weighted>
0.0402

> <Gold.Chemscore.DEInternal.Weighted>
0.0086

> <Gold.Chemscore.Rot.Weighted>
3.1964

> <Gold.Chemscore.Internal.Correction.Weighted>
   9.000000E+99

> <Gold.Protein.RotatedTorsions>
[ 6907 6896 6895 6894 ] final   84.91 input  -60.11 | X-H torsion
[ 7974 7965 7964 7962 ] final    6.65 input  175.53 | X-H torsion
[ 8008 7997 7996 7995 ] final   61.20 input   59.86 | X-H torsion
[ 10167 10162 10161 10158 ] final  163.04 input  -65.29 | X-H torsion
[ 10718 10713 10712 10709 ] final  148.56 input   66.30 | X-H torsion
[ 10763 10752 10751 10750 ] final  149.06 input  -60.55 | X-H torsion
[ 11005 11000 10999 10996 ] final -136.77 input  -57.11 | X-H torsion

> <Gold.Protein.ActiveResidues>
 VAL166  LYS551  ARG553  GLY616  TRP617  ASP618  TYR619  PRO620  LYS621  CYS622 
 ASP623  PHE694  ASN695  SER759  ASP760  ASP761  ALA762  ILE779  LEU786  VAL792 
 PHE793  MET794  SER795  GLU796  ALA797  LYS798  CYS799  TRP800  GLU811  SER814 

> <Gold.Protein.RotatedAtoms>
  152.5363  134.2667  159.8955 H   0  0  0  0  0  0  0  0  0  0  0  0  # atno 6907 bound_to 6896
  151.2625  133.4288  159.2624 H   0  0  0  0  0  0  0  0  0  0  0  0  # atno 6908 bound_to 6896
  151.0440  134.9641  159.8233 H   0  0  0  0  0  0  0  0  0  0  0  0  # atno 6909 bound_to 6896
  146.2433  140.0202  142.8398 H   0  0  0  0  0  0  0  0  0  0  0  0  # atno 7974 bound_to 7965
  155.5945  140.3493  155.4576 H   0  0  0  0  0  0  0  0  0  0  0  0  # atno 8008 bound_to 7997
  156.0276  140.1267  157.0317 H   0  0  0  0  0  0  0  0  0  0  0  0  # atno 8009 bound_to 7997
  154.4339  140.1050  156.6039 H   0  0  0  0  0  0  0  0  0  0  0  0  # atno 8010 bound_to 7997
  139.4868  144.4377  151.8992 H   0  0  0  0  0  0  0  0  0  0  0  0  # atno 10167 bound_to 10162
  157.3071  131.0881  151.1345 H   0  0  0  0  0  0  0  0  0  0  0  0  # atno 10718 bound_to 10713
  154.0650  135.2871  155.3318 H   0  0  0  0  0  0  0  0  0  0  0  0  # atno 10763 bound_to 10752
  154.6783  135.5273  153.8233 H   0  0  0  0  0  0  0  0  0  0  0  0  # atno 10764 bound_to 10752
  153.0507  135.6575  154.0836 H   0  0  0  0  0  0  0  0  0  0  0  0  # atno 10765 bound_to 10752
  140.8774  134.1975  157.4613 H   0  0  0  0  0  0  0  0  0  0  0  0  # atno 11005 bound_to 11000
  145.1248  140.9484  143.4579 LP  0  0  0  0  0  0  0  0  0  0  0  0  # atno 17320 bound_to 7965
  145.0445  139.3232  143.5960 LP  0  0  0  0  0  0  0  0  0  0  0  0  # atno 17321 bound_to 7965
  140.3827  144.2716  150.5907 LP  0  0  0  0  0  0  0  0  0  0  0  0  # atno 17342 bound_to 10162
  140.5218  143.2264  151.8376 LP  0  0  0  0  0  0  0  0  0  0  0  0  # atno 17343 bound_to 10162
  157.2682  130.6691  149.6007 LP  0  0  0  0  0  0  0  0  0  0  0  0  # atno 17370 bound_to 10713
  155.9675  130.4487  150.5631 LP  0  0  0  0  0  0  0  0  0  0  0  0  # atno 17371 bound_to 10713
  139.8716  134.9802  156.5065 LP  0  0  0  0  0  0  0  0  0  0  0  0  # atno 17394 bound_to 11000
  140.8502  133.8138  155.9161 LP  0  0  0  0  0  0  0  0  0  0  0  0  # atno 17395 bound_to 11000

$$$$
