AV-unprocessed.smi:218|AV-procd|sdf|1664|dock9
  -GOLD-   2262020 63D 1   1.00000     0.00000
 Structure written by MMmdl.
 54 57  0  0  0  0  0  0  0  0  1 V2000
  152.4512  142.5307  159.7084 C   0  0  0  0  0  0  0  0  0  0  0  0
  152.3784  143.3783  158.4326 C   0  0  0  0  0  0  0  0  0  0  0  0
  152.1947  144.8692  158.7652 C   0  0  0  0  0  0  0  0  0  0  0  0
  151.2647  142.8964  157.6782 O   0  0  0  0  0  0  0  0  0  0  0  0
  151.2908  141.6261  157.1354 C   0  0  0  0  0  0  0  0  0  0  0  0
  150.2956  141.2808  156.1987 C   0  0  0  0  0  0  0  0  0  0  0  0
  150.2988  139.9828  155.6446 C   0  0  0  0  0  0  0  0  0  0  0  0
  149.2426  139.5521  154.6382 C   0  0  0  0  0  0  0  0  0  0  0  0
  148.4380  138.4007  155.0359 N   0  0  0  0  0  0  0  0  0  0  0  0
  147.5025  137.9050  154.1960 C   0  0  0  0  0  0  0  0  0  0  0  0
  146.8573  138.7108  153.3127 N   0  0  0  0  0  0  0  0  0  0  0  0
  145.9420  138.1968  152.4859 C   0  0  0  0  0  0  0  0  0  0  0  0
  145.5274  136.9321  152.3827 N   0  0  0  0  0  0  0  0  0  0  0  0
  146.1678  136.1199  153.2731 C   0  0  0  0  0  0  0  0  0  0  0  0
  147.1591  136.5287  154.2082 C   0  0  0  0  0  0  0  0  0  0  0  0
  147.5886  135.4349  154.9482 N   0  0  0  0  0  0  0  0  0  0  0  0
  146.8910  134.4386  154.4720 C   0  0  0  0  0  0  0  0  0  0  0  0
  146.0107  134.7621  153.4631 N   0  0  0  0  0  0  0  0  0  0  0  0
  145.0947  133.8435  152.7228 C   0  0  2  0  0  0  0  0  0  0  0  0
  145.8769  132.8687  152.0992 O   0  0  0  0  0  0  0  0  0  0  0  0
  145.3774  132.5990  150.7948 C   0  0  1  0  0  0  0  0  0  0  0  0
  144.3453  131.4550  150.8929 C   0  0  0  0  0  0  0  0  0  0  0  0
  143.4098  131.5322  149.8377 O   0  0  0  0  0  0  0  0  0  0  0  0
  144.8429  133.9685  150.3510 C   0  0  1  0  0  0  0  0  0  0  0  0
  143.9089  133.9270  149.2871 O   0  0  0  0  0  0  0  0  0  0  0  0
  144.3085  134.5997  151.6362 C   0  0  1  0  0  0  0  0  0  0  0  0
  142.9135  134.4092  151.7900 O   0  0  0  0  0  0  0  0  0  0  0  0
  151.3096  139.0853  156.0419 C   0  0  0  0  0  0  0  0  0  0  0  0
  152.2618  139.5211  156.9834 C   0  0  0  0  0  0  0  0  0  0  0  0
  152.2583  140.7582  157.5230 N   0  0  0  0  0  0  0  0  0  0  0  0
  144.4624  133.3970  153.4919 H   0  0  0  0  0  0  0  0  0  0  0  0
  146.2094  132.2819  150.1642 H   0  0  0  0  0  0  0  0  0  0  0  0
  145.6909  134.5619  150.0083 H   0  0  0  0  0  0  0  0  0  0  0  0
  144.5181  135.6699  151.6713 H   0  0  0  0  0  0  0  0  0  0  0  0
  153.2913  142.8325  160.3344 H   0  0  0  0  0  0  0  0  0  0  0  0
  152.5799  141.4752  159.4677 H   0  0  0  0  0  0  0  0  0  0  0  0
  151.5407  142.6283  160.3003 H   0  0  0  0  0  0  0  0  0  0  0  0
  153.3142  143.2286  157.8921 H   0  0  0  0  0  0  0  0  0  0  0  0
  153.0184  145.2363  159.3779 H   0  0  0  0  0  0  0  0  0  0  0  0
  151.2694  145.0375  159.3168 H   0  0  0  0  0  0  0  0  0  0  0  0
  152.1588  145.4838  157.8663 H   0  0  0  0  0  0  0  0  0  0  0  0
  149.5414  142.0015  155.9188 H   0  0  0  0  0  0  0  0  0  0  0  0
  148.5688  140.3934  154.4749 H   0  0  0  0  0  0  0  0  0  0  0  0
  149.7124  139.3462  153.6757 H   0  0  0  0  0  0  0  0  0  0  0  0
  148.7895  137.8774  155.8247 H   0  0  0  0  0  0  0  0  0  0  0  0
  145.4768  138.8985  151.8095 H   0  0  0  0  0  0  0  0  0  0  0  0
  147.0007  133.4317  154.8476 H   0  0  0  0  0  0  0  0  0  0  0  0
  144.8533  130.4940  150.8067 H   0  0  0  0  0  0  0  0  0  0  0  0
  143.8254  131.4530  151.8506 H   0  0  0  0  0  0  0  0  0  0  0  0
  142.5401  131.5509  150.2076 H   0  0  0  0  0  0  0  0  0  0  0  0
  144.3391  134.2220  148.4988 H   0  0  0  0  0  0  0  0  0  0  0  0
  142.5358  134.2603  150.9369 H   0  0  0  0  0  0  0  0  0  0  0  0
  151.3533  138.0832  155.6408 H   0  0  0  0  0  0  0  0  0  0  0  0
  153.0485  138.8579  157.3115 H   0  0  0  0  0  0  0  0  0  0  0  0
  1  2  1  0  0  0  0
  1 35  1  0  0  0  0
  1 36  1  0  0  0  0
  1 37  1  0  0  0  0
  2  3  1  0  0  0  0
  2  4  1  0  0  0  0
  2 38  1  0  0  0  0
  3 39  1  0  0  0  0
  3 40  1  0  0  0  0
  3 41  1  0  0  0  0
  4  5  1  0  0  0  0
  5 30  1  0  0  0  0
  5  6  2  0  0  0  0
  6  7  1  0  0  0  0
  6 42  1  0  0  0  0
  7  8  1  0  0  0  0
  7 28  2  0  0  0  0
  8  9  1  0  0  0  0
  8 43  1  0  0  0  0
  8 44  1  0  0  0  0
  9 10  1  0  0  0  0
  9 45  1  0  0  0  0
 10 15  1  0  0  0  0
 10 11  2  0  0  0  0
 11 12  1  0  0  0  0
 12 13  2  0  0  0  0
 12 46  1  0  0  0  0
 13 14  1  0  0  0  0
 14 18  1  0  0  0  0
 14 15  2  0  0  0  0
 15 16  1  0  0  0  0
 16 17  2  0  0  0  0
 17 18  1  0  0  0  0
 17 47  1  0  0  0  0
 18 19  1  0  0  0  0
 19 31  1  0  0  0  0
 19 26  1  0  0  0  0
 19 20  1  0  0  0  0
 20 21  1  0  0  0  0
 21 32  1  0  0  0  0
 21 22  1  0  0  0  0
 21 24  1  0  0  0  0
 22 23  1  0  0  0  0
 22 48  1  0  0  0  0
 22 49  1  0  0  0  0
 23 50  1  0  0  0  0
 24 33  1  0  0  0  0
 24 25  1  0  0  0  0
 24 26  1  0  0  0  0
 25 51  1  0  0  0  0
 26 34  1  0  0  0  0
 26 27  1  0  0  0  0
 27 52  1  0  0  0  0
 28 29  1  0  0  0  0
 28 53  1  0  0  0  0
 29 30  2  0  0  0  0
 29 54  1  0  0  0  0
M  END
> <s_m_source_file>
AV-unprocessed.smi

> <i_m_source_file_index>
218

> <i_lp_mmshare_version>
43012

> <i_f3d_flags>
0

> <s_epik_input>
W0NIM11bQ0hdKFtDSDNdKU9jMVtjSF1jKFtjSF1bY0hdbjEpW0NIMl1bTkhdYyhuW2NIXW4yKWMoYzIzKW5bY0hdbjNbQ0BASF00T1tDQEhdKFtDSDJdW09IXSlbQ0BASF0oW09IXSlbQ0BIXTRbT0hd

> <s_epik_cmdline>
J2VwaWtfcHl0aG9uJywgJy1waCcsICc3LjAnLCAnLXRuJywgJzgnLCAnLW1hJywgJzIwMCcsICctbWV0YWxfYmluZGluZycsICctaW1hZScsICc8aW5maWxlLm1hZT4nLCAnLW9tYWUnLCAnPG91dGZpbGUubWFlPic=

> <r_lp_tautomer_probability>
1

> <r_epik_Ionization_Penalty>
0.00457014

> <r_epik_Ionization_Penalty_Charging>
0

> <r_epik_Ionization_Penalty_Neutral>
0.00457014

> <r_epik_State_Penalty>
-0

> <r_epik_Charging_Adjusted_Penalty>
0

> <i_epik_Tot_Q>
0

> <i_epik_Tot_abs_Q>
0

> <r_epik_Metal_State_Penalty>
-0

> <b_epik_Metal_Only>
0

> <s_epik_Chemistry_Notes>
This compound contains an acetal/aminal-like group ( X-CH(R)-Y where X, Y are N, S, or O) that may be acid/base labile, releasing an aldehyde.

> <s_lp_Force_Field>
OPLS_2005

> <r_lp_Energy>
44.1408

> <b_lp_Chiralities_Consistent>
1

> <s_lp_Variant>
AV-unprocessed.smi:218-3

> <Gold.Version>
5.8.1

> <Gold.Id.Protein>
6NUR|6NUR_protein|mol2

> <Gold.PLP.Fitness>
55.4657

> <Gold.PLP.PLP>
-41.9058

> <Gold.PLP.part.hbond>
-5.1755

> <Gold.PLP.part.metal>
0.0000

> <Gold.PLP.part.buried>
-2.5793

> <Gold.PLP.part.nonpolar>
-36.0078

> <Gold.PLP.part.repulsive>
0.7367

> <Gold.PLP.ligand.clash>
0.5265

> <Gold.PLP.ligand.torsion>
0.6035

> <Gold.PLP.Chemscore.Hbond>
3.2451

> <Gold.PLP.Chemscore.CHOScore>
1.8170

> <Gold.PLP.Chemscore.Metal>
0.0000

> <Gold.Chemscore.Hbonds>
donor molecule, donor type, donor heavy atom, donor atom, acceptor molecule, acceptor atom, score
      L1  H    23    50       P1 10952  0.33
      L1  H    25    51       P1  7921  0.86
      L1  H    27    52       P1 10186  0.93
      P1  H 10785 10796       L1    23  0.95
      L1  C    12    46       P1 10171  0.91
      L1  C    12    46       P1 10175  0.90

> <Gold.PLP.Chemscore.Internal.Correction>
0.1071

> <Gold.Rescore>
     Score         DG    S(hbond)    S(metal)    S(lipo)     H(rot)  DE(clash)    DE(int)     intcor
      6.37     -10.21       1.76        0.00      97.57       4.90       0.59       3.25       ----

> <Gold.Chemscore.Fitness>
6.3720

> <Gold.Chemscore.DG>
-10.2119

> <Gold.Chemscore.ZeroCoef>
-5.4800

> <Gold.Chemscore.Hbond>
1.7567

> <Gold.Chemscore.Metal>
0.0000

> <Gold.Chemscore.Lipo>
97.5744

> <Gold.Chemscore.Internal_Hbond>
0.0000

> <Gold.Chemscore.DEClash>
0.5903

> <Gold.Chemscore.DEInternal>
3.2497

> <Gold.Chemscore.Rot>
4.9029

> <Gold.Chemscore.Internal.Correction>
   9.000000E+99

> <Gold.Chemscore.Hbonds>
donor molecule, donor type, donor heavy atom, donor atom, acceptor molecule, acceptor atom, score
      L1  H    23    50       P1 10952  0.27
      L1  H    25    51       P1  7921  0.79
      L1  H    27    52       P1 10186  0.22
      P1  H 10785 10796       L1    23  0.20

> <Gold.Chemscore.Hbond.Weighted>
-5.8673

> <Gold.Chemscore.Metal.Weighted>
-0.0000

> <Gold.Chemscore.Lipo.Weighted>
-11.4162

> <Gold.Chemscore.Internal_Hbond.Weighted>
0.0000

> <Gold.Chemscore.DEClash.Weighted>
0.5903

> <Gold.Chemscore.DEInternal.Weighted>
3.2497

> <Gold.Chemscore.Rot.Weighted>
12.5515

> <Gold.Chemscore.Internal.Correction.Weighted>
   9.000000E+99

> <Gold.Protein.RotatedTorsions>
[ 6907 6896 6895 6894 ] final  165.62 input  -60.11 | X-H torsion
[ 7974 7965 7964 7962 ] final -167.33 input  175.53 | X-H torsion
[ 8008 7997 7996 7995 ] final   56.13 input   59.86 | X-H torsion
[ 10167 10162 10161 10158 ] final  -84.04 input  -65.29 | X-H torsion
[ 10718 10713 10712 10709 ] final -154.43 input   66.30 | X-H torsion
[ 10763 10752 10751 10750 ] final  -82.35 input  -60.55 | X-H torsion
[ 11005 11000 10999 10996 ] final   41.00 input  -57.11 | X-H torsion

> <Gold.Protein.ActiveResidues>
 VAL166  LYS551  ARG553  GLY616  TRP617  ASP618  TYR619  PRO620  LYS621  CYS622 
 ASP623  PHE694  ASN695  SER759  ASP760  ASP761  ALA762  ILE779  LEU786  VAL792 
 PHE793  MET794  SER795  GLU796  ALA797  LYS798  CYS799  TRP800  GLU811  SER814 

> <Gold.Protein.RotatedAtoms>
  151.8915  133.3517  159.3799 H   0  0  0  0  0  0  0  0  0  0  0  0  # atno 6907 bound_to 6896
  150.7102  134.4918  159.5529 H   0  0  0  0  0  0  0  0  0  0  0  0  # atno 6908 bound_to 6896
  152.2490  134.8153  160.0500 H   0  0  0  0  0  0  0  0  0  0  0  0  # atno 6909 bound_to 6896
  144.7225  140.2535  143.6275 H   0  0  0  0  0  0  0  0  0  0  0  0  # atno 7974 bound_to 7965
  155.5124  140.3477  155.4391 H   0  0  0  0  0  0  0  0  0  0  0  0  # atno 8008 bound_to 7997
  156.0840  140.1394  156.9704 H   0  0  0  0  0  0  0  0  0  0  0  0  # atno 8009 bound_to 7997
  154.4596  140.0940  156.6832 H   0  0  0  0  0  0  0  0  0  0  0  0  # atno 8010 bound_to 7997
  140.4170  143.2599  151.8941 H   0  0  0  0  0  0  0  0  0  0  0  0  # atno 10167 bound_to 10162
  156.4992  130.8383  151.2602 H   0  0  0  0  0  0  0  0  0  0  0  0  # atno 10718 bound_to 10713
  154.5747  135.5594  153.7128 H   0  0  0  0  0  0  0  0  0  0  0  0  # atno 10763 bound_to 10752
  153.0060  135.6305  154.2066 H   0  0  0  0  0  0  0  0  0  0  0  0  # atno 10764 bound_to 10752
  154.2006  135.2878  155.2972 H   0  0  0  0  0  0  0  0  0  0  0  0  # atno 10765 bound_to 10752
  140.1876  134.4026  155.8164 H   0  0  0  0  0  0  0  0  0  0  0  0  # atno 11005 bound_to 11000
  145.8205  139.2042  143.1940 LP  0  0  0  0  0  0  0  0  0  0  0  0  # atno 17320 bound_to 7965
  146.0518  140.8062  142.9778 LP  0  0  0  0  0  0  0  0  0  0  0  0  # atno 17321 bound_to 7965
  139.4782  144.5477  151.8433 LP  0  0  0  0  0  0  0  0  0  0  0  0  # atno 17342 bound_to 10162
  140.4575  144.1768  150.5903 LP  0  0  0  0  0  0  0  0  0  0  0  0  # atno 17343 bound_to 10162
  157.7465  130.9987  150.2863 LP  0  0  0  0  0  0  0  0  0  0  0  0  # atno 17370 bound_to 10713
  156.3349  130.3806  149.7458 LP  0  0  0  0  0  0  0  0  0  0  0  0  # atno 17371 bound_to 10713
  141.2225  133.7031  156.8040 LP  0  0  0  0  0  0  0  0  0  0  0  0  # atno 17394 bound_to 11000
  140.2196  134.8767  157.3362 LP  0  0  0  0  0  0  0  0  0  0  0  0  # atno 17395 bound_to 11000

$$$$
