AV-unprocessed.smi:21|AV-procd|sdf|147|dock7
  -GOLD-   2262015363D 1   1.00000     0.00000
 Structure written by MMmdl.
 62 65  0  0  0  0  0  0  0  0  2 V2000
  143.8853  132.8185  150.9862 C   0  0  0  0  0  0  0  0  0  0  0  0
  145.2523  132.6055  151.2996 O   0  0  0  0  0  0  0  0  0  0  0  0
  146.0762  133.7351  151.0456 C   0  0  1  0  0  0  0  0  0  0  0  0
  145.8612  134.7402  152.1684 C   0  0  0  0  0  0  0  0  0  0  0  0
  146.8566  134.3169  153.2531 C   0  0  2  0  0  0  0  0  0  0  0  0
  147.2377  135.4479  154.2383 C   0  0  0  0  0  0  0  0  0  0  0  0
  148.0583  134.9906  155.3615 N   0  0  0  0  0  0  0  0  0  0  0  0
  147.7216  133.7212  155.9928 C   0  0  0  0  0  0  0  0  0  0  0  0
  148.6697  135.9479  156.1048 C   0  0  0  0  0  0  0  0  0  0  0  0
  148.9428  135.6569  157.4032 N   0  0  0  0  0  0  0  0  0  0  0  0
  149.6103  136.5264  158.1660 C   0  0  0  0  0  0  0  0  0  0  0  0
  150.1145  137.7138  157.8290 N   0  0  0  0  0  0  0  0  0  0  0  0
  149.8482  138.0123  156.5258 C   0  0  0  0  0  0  0  0  0  0  0  0
  149.1160  137.2079  155.6066 C   0  0  0  0  0  0  0  0  0  0  0  0
  149.0559  137.8475  154.3727 N   0  0  0  0  0  0  0  0  0  0  0  0
  149.7254  138.9533  154.5474 C   0  0  0  0  0  0  0  0  0  0  0  0
  150.2733  139.1105  155.7995 N   0  0  0  0  0  0  0  0  0  0  0  0
  151.1093  140.2084  156.2491 C   0  0  0  0  0  0  0  0  0  0  0  0
  150.4822  141.0705  157.3791 C   0  0  2  0  0  0  0  0  0  0  0  0
  149.0463  141.4752  156.9724 C   0  0  0  0  0  0  0  0  0  0  0  0
  149.0032  142.0028  155.6618 O   0  0  0  0  0  0  0  0  0  0  0  0
  151.3444  142.2895  157.8291 C   0  0  1  0  0  0  0  0  0  0  0  0
  150.5663  143.3925  158.5306 C   0  0  0  0  0  0  0  0  0  0  0  0
  151.6680  144.1696  159.2370 C   0  0  0  0  0  0  0  0  0  0  0  0
  152.5705  143.1713  159.6861 O   0  0  0  0  0  0  0  0  0  0  0  0
  152.4221  142.0001  158.8891 C   0  0  0  0  0  0  0  0  0  0  0  0
  148.0312  133.8331  152.4933 N   0  3  1  0  0  0  0  0  0  0  0  0
  148.8622  132.8436  153.2135 C   0  0  0  0  0  0  0  0  0  0  0  0
  147.5631  133.3631  151.1664 C   0  0  0  0  0  0  0  0  0  0  0  0
  145.8330  134.1824  150.0802 H   0  0  0  0  0  0  0  0  0  0  0  0
  146.4318  133.4713  153.7973 H   0  0  0  0  0  0  0  0  0  0  0  0
  143.3200  131.9082  151.1851 H   0  0  0  0  0  0  0  0  0  0  0  0
  143.7472  133.0770  149.9359 H   0  0  0  0  0  0  0  0  0  0  0  0
  143.4618  133.6146  151.6000 H   0  0  0  0  0  0  0  0  0  0  0  0
  146.1007  135.7418  151.8089 H   0  0  0  0  0  0  0  0  0  0  0  0
  144.8297  134.7489  152.5172 H   0  0  0  0  0  0  0  0  0  0  0  0
  147.8119  136.2105  153.7122 H   0  0  0  0  0  0  0  0  0  0  0  0
  146.3407  135.9563  154.5937 H   0  0  0  0  0  0  0  0  0  0  0  0
  148.5212  133.3896  156.6561 H   0  0  0  0  0  0  0  0  0  0  0  0
  147.5786  132.9502  155.2357 H   0  0  0  0  0  0  0  0  0  0  0  0
  146.8002  133.8026  156.5694 H   0  0  0  0  0  0  0  0  0  0  0  0
  149.7799  136.2191  159.1876 H   0  0  0  0  0  0  0  0  0  0  0  0
  149.8694  139.6699  153.7516 H   0  0  0  0  0  0  0  0  0  0  0  0
  152.0654  139.7984  156.5764 H   0  0  0  0  0  0  0  0  0  0  0  0
  151.3239  140.8308  155.3796 H   0  0  0  0  0  0  0  0  0  0  0  0
  150.3654  140.4261  158.2512 H   0  0  0  0  0  0  0  0  0  0  0  0
  148.3803  140.6131  157.0225 H   0  0  0  0  0  0  0  0  0  0  0  0
  148.6356  142.2128  157.6615 H   0  0  0  0  0  0  0  0  0  0  0  0
  149.1539  142.9344  155.7074 H   0  0  0  0  0  0  0  0  0  0  0  0
  151.8294  142.7271  156.9551 H   0  0  0  0  0  0  0  0  0  0  0  0
  149.9937  144.0182  157.8451 H   0  0  0  0  0  0  0  0  0  0  0  0
  149.8798  142.9698  159.2657 H   0  0  0  0  0  0  0  0  0  0  0  0
  152.1841  144.8262  158.5352 H   0  0  0  0  0  0  0  0  0  0  0  0
  151.2958  144.7755  160.0634 H   0  0  0  0  0  0  0  0  0  0  0  0
  152.1214  141.1866  159.5494 H   0  0  0  0  0  0  0  0  0  0  0  0
  153.3790  141.7380  158.4400 H   0  0  0  0  0  0  0  0  0  0  0  0
  148.2930  131.9404  153.4371 H   0  0  0  0  0  0  0  0  0  0  0  0
  149.2335  133.2552  154.1519 H   0  0  0  0  0  0  0  0  0  0  0  0
  149.7253  132.5627  152.6090 H   0  0  0  0  0  0  0  0  0  0  0  0
  147.7207  132.2919  151.0329 H   0  0  0  0  0  0  0  0  0  0  0  0
  148.1488  133.8723  150.4009 H   0  0  0  0  0  0  0  0  0  0  0  0
  148.6080  134.6429  152.3153 H   0  0  0  0  0  0  0  0  0  0  0  0
  1  2  1  0  0  0  0
  1 32  1  0  0  0  0
  1 33  1  0  0  0  0
  1 34  1  0  0  0  0
  2  3  1  0  0  0  0
  3 30  1  0  0  0  0
  3 29  1  0  0  0  0
  3  4  1  0  0  0  0
  4  5  1  0  0  0  0
  4 35  1  0  0  0  0
  4 36  1  0  0  0  0
  5 31  1  0  0  0  0
  5  6  1  0  0  0  0
  5 27  1  0  0  0  0
  6  7  1  0  0  0  0
  6 37  1  0  0  0  0
  6 38  1  0  0  0  0
  7  8  1  0  0  0  0
  7  9  1  0  0  0  0
  8 39  1  0  0  0  0
  8 40  1  0  0  0  0
  8 41  1  0  0  0  0
  9 14  1  0  0  0  0
  9 10  2  0  0  0  0
 10 11  1  0  0  0  0
 11 12  2  0  0  0  0
 11 42  1  0  0  0  0
 12 13  1  0  0  0  0
 13 17  1  0  0  0  0
 13 14  2  0  0  0  0
 14 15  1  0  0  0  0
 15 16  2  0  0  0  0
 16 17  1  0  0  0  0
 16 43  1  0  0  0  0
 17 18  1  0  0  0  0
 18 19  1  0  0  0  0
 18 44  1  0  0  0  0
 18 45  1  0  0  0  0
 19 20  1  0  0  0  0
 19 22  1  0  0  0  0
 19 46  1  0  0  0  0
 20 21  1  0  0  0  0
 20 47  1  0  0  0  0
 20 48  1  0  0  0  0
 21 49  1  0  0  0  0
 22 26  1  0  0  0  0
 22 23  1  0  0  0  0
 22 50  1  0  0  0  0
 23 24  1  0  0  0  0
 23 51  1  0  0  0  0
 23 52  1  0  0  0  0
 24 25  1  0  0  0  0
 24 53  1  0  0  0  0
 24 54  1  0  0  0  0
 25 26  1  0  0  0  0
 26 55  1  0  0  0  0
 26 56  1  0  0  0  0
 27 28  1  0  0  0  0
 27 29  1  0  0  0  0
 27 62  1  0  0  0  0
 28 57  1  0  0  0  0
 28 58  1  0  0  0  0
 28 59  1  0  0  0  0
 29 60  1  0  0  0  0
 29 61  1  0  0  0  0
M  CHG  1  27   1
M  END
> <s_m_source_file>
AV-unprocessed.smi

> <i_m_source_file_index>
21

> <i_lp_mmshare_version>
43012

> <i_f3d_flags>
0

> <s_epik_input>
W0NIM11PW0NASF0xW0NIMl1bQ0BIXShOKFtDSDNdKVtDSDJdMSlbQ0gyXU4oW0NIM10pYyhuW2NIXW4yKWMoYzIzKW5bY0hdbjNbQ0gyXVtDQEhdKFtDSDJdW09IXSlbQ0BASF00W0NIMl1bQ0gyXU9bQ0gyXTQ=

> <s_epik_cmdline>
J2VwaWtfcHl0aG9uJywgJy1waCcsICc3LjAnLCAnLXRuJywgJzgnLCAnLW1hJywgJzIwMCcsICctbWV0YWxfYmluZGluZycsICctaW1hZScsICc8aW5maWxlLm1hZT4nLCAnLW9tYWUnLCAnPG91dGZpbGUubWFlPic=

> <r_lp_tautomer_probability>
1

> <r_epik_Ionization_Penalty>
0.0157465

> <r_epik_Ionization_Penalty_Charging>
0.015354

> <r_epik_Ionization_Penalty_Neutral>
0.000392529

> <r_epik_State_Penalty>
0.0120612

> <r_epik_Charging_Adjusted_Penalty>
0.0274152

> <i_epik_Tot_Q>
1

> <i_epik_Tot_abs_Q>
1

> <r_epik_Metal_State_Penalty>
0.0121253

> <b_epik_Metal_Only>
0

> <s_lp_Force_Field>
OPLS_2005

> <r_lp_Energy>
57.9391

> <b_lp_Chiralities_Consistent>
1

> <s_lp_Variant>
AV-unprocessed.smi:21-27

> <Gold.Version>
5.8.1

> <Gold.Id.Protein>
6NUR|6NUR_protein|mol2

> <Gold.PLP.Fitness>
48.0657

> <Gold.PLP.PLP>
-37.9185

> <Gold.PLP.part.hbond>
-1.9243

> <Gold.PLP.part.metal>
0.0000

> <Gold.PLP.part.buried>
-6.7576

> <Gold.PLP.part.nonpolar>
-29.3819

> <Gold.PLP.part.repulsive>
0.5868

> <Gold.PLP.ligand.clash>
0.0000

> <Gold.PLP.ligand.torsion>
1.2839

> <Gold.PLP.Chemscore.Hbond>
3.0000

> <Gold.PLP.Chemscore.CHOScore>
0.9962

> <Gold.PLP.Chemscore.Metal>
0.0000

> <Gold.Chemscore.Hbonds>
donor molecule, donor type, donor heavy atom, donor atom, acceptor molecule, acceptor atom, score
      L1  H    21    49       P1  8028  1.00
      L1  H    27    62       P1  7948  1.00
      L1  C    16    43       P1  7957  0.76

> <Gold.PLP.Chemscore.Internal.Correction>
0.7265

> <Gold.Rescore>
     Score         DG    S(hbond)    S(metal)    S(lipo)     H(rot)  DE(clash)    DE(int)     intcor
     11.75     -14.02       1.96        0.00      84.38       3.08       0.09       2.18       ----

> <Gold.Chemscore.Fitness>
11.7486

> <Gold.Chemscore.DG>
-14.0228

> <Gold.Chemscore.ZeroCoef>
-5.4800

> <Gold.Chemscore.Hbond>
1.9595

> <Gold.Chemscore.Metal>
0.0000

> <Gold.Chemscore.Lipo>
84.3786

> <Gold.Chemscore.Internal_Hbond>
0.0000

> <Gold.Chemscore.DEClash>
0.0939

> <Gold.Chemscore.DEInternal>
2.1803

> <Gold.Chemscore.Rot>
3.0758

> <Gold.Chemscore.Internal.Correction>
   9.000000E+99

> <Gold.Chemscore.Hbonds>
donor molecule, donor type, donor heavy atom, donor atom, acceptor molecule, acceptor atom, score
      L1  H    21    49       P1  8028  1.00
      L1  H    27    62       P1  7948  0.02

> <Gold.Chemscore.Hbond.Weighted>
-6.5447

> <Gold.Chemscore.Metal.Weighted>
-0.0000

> <Gold.Chemscore.Lipo.Weighted>
-9.8723

> <Gold.Chemscore.Internal_Hbond.Weighted>
0.0000

> <Gold.Chemscore.DEClash.Weighted>
0.0939

> <Gold.Chemscore.DEInternal.Weighted>
2.1803

> <Gold.Chemscore.Rot.Weighted>
7.8741

> <Gold.Chemscore.Internal.Correction.Weighted>
   9.000000E+99

> <Gold.Protein.RotatedTorsions>
[ 6907 6896 6895 6894 ] final   67.85 input  -60.11 | X-H torsion
[ 7974 7965 7964 7962 ] final   81.67 input  175.53 | X-H torsion
[ 8008 7997 7996 7995 ] final  -63.27 input   59.86 | X-H torsion
[ 10167 10162 10161 10158 ] final   16.61 input  -65.29 | X-H torsion
[ 10718 10713 10712 10709 ] final  147.62 input   66.30 | X-H torsion
[ 10763 10752 10751 10750 ] final  -77.20 input  -60.55 | X-H torsion
[ 11005 11000 10999 10996 ] final   33.59 input  -57.11 | X-H torsion

> <Gold.Protein.ActiveResidues>
 VAL166  LYS551  ARG553  GLY616  TRP617  ASP618  TYR619  PRO620  LYS621  CYS622 
 ASP623  PHE694  ASN695  SER759  ASP760  ASP761  ALA762  ILE779  LEU786  VAL792 
 PHE793  MET794  SER795  GLU796  ALA797  LYS798  CYS799  TRP800  GLU811  SER814 

> <Gold.Protein.RotatedAtoms>
  152.4580  134.5248  159.9793 H   0  0  0  0  0  0  0  0  0  0  0  0  # atno 6907 bound_to 6896
  151.5304  133.3444  159.2925 H   0  0  0  0  0  0  0  0  0  0  0  0  # atno 6908 bound_to 6896
  150.8532  134.7893  159.7087 H   0  0  0  0  0  0  0  0  0  0  0  0  # atno 6909 bound_to 6896
  145.6351  139.2413  143.2063 H   0  0  0  0  0  0  0  0  0  0  0  0  # atno 7974 bound_to 7965
  154.4545  140.0978  156.6716 H   0  0  0  0  0  0  0  0  0  0  0  0  # atno 8008 bound_to 7997
  155.5182  140.3478  155.4383 H   0  0  0  0  0  0  0  0  0  0  0  0  # atno 8009 bound_to 7997
  156.0749  140.1358  156.9773 H   0  0  0  0  0  0  0  0  0  0  0  0  # atno 8010 bound_to 7997
  140.5785  143.9026  150.6770 H   0  0  0  0  0  0  0  0  0  0  0  0  # atno 10167 bound_to 10162
  157.3187  131.0900  151.1258 H   0  0  0  0  0  0  0  0  0  0  0  0  # atno 10718 bound_to 10713
  154.5099  135.5772  153.6596 H   0  0  0  0  0  0  0  0  0  0  0  0  # atno 10763 bound_to 10752
  152.9895  135.6156  154.2893 H   0  0  0  0  0  0  0  0  0  0  0  0  # atno 10764 bound_to 10752
  154.2807  135.2851  155.2678 H   0  0  0  0  0  0  0  0  0  0  0  0  # atno 10765 bound_to 10752
  140.2615  134.3186  155.7856 H   0  0  0  0  0  0  0  0  0  0  0  0  # atno 11005 bound_to 11000
  146.1326  140.7165  142.9405 LP  0  0  0  0  0  0  0  0  0  0  0  0  # atno 17320 bound_to 7965
  144.7179  140.4272  143.7030 LP  0  0  0  0  0  0  0  0  0  0  0  0  # atno 17321 bound_to 7965
  140.2519  143.3587  152.1398 LP  0  0  0  0  0  0  0  0  0  0  0  0  # atno 17342 bound_to 10162
  139.5156  144.6966  151.5614 LP  0  0  0  0  0  0  0  0  0  0  0  0  # atno 17343 bound_to 10162
  157.2551  130.6632  149.5949 LP  0  0  0  0  0  0  0  0  0  0  0  0  # atno 17370 bound_to 10713
  155.9684  130.4526  150.5780 LP  0  0  0  0  0  0  0  0  0  0  0  0  # atno 17371 bound_to 10713
  141.2189  133.7412  156.9194 LP  0  0  0  0  0  0  0  0  0  0  0  0  # atno 17394 bound_to 11000
  140.1460  134.9262  157.2530 LP  0  0  0  0  0  0  0  0  0  0  0  0  # atno 17395 bound_to 11000

$$$$
