AV-unprocessed.smi:2496|AV-procd|sdf|9825|dock2
  -GOLD-   2272013453D 1   1.00000     0.00000
 Structure written by MMmdl.
 40 40  0  0  0  0  0  0  0  0  1 V2000
  151.9377  139.7633  156.4024 C   0  0  0  0  0  0  0  0  0  0  0  0
  150.7339  140.2499  155.6471 C   0  0  0  0  0  0  0  0  0  0  0  0
  150.6054  139.9368  154.3674 N   0  0  0  0  0  0  0  0  0  0  0  0
  149.4539  140.5261  154.0061 N   0  0  0  0  0  0  0  0  0  0  0  0
  148.8493  141.2110  155.0335 C   0  0  0  0  0  0  0  0  0  0  0  0
  147.5650  141.9449  154.8305 C   0  0  0  0  0  0  0  0  0  0  0  0
  149.6551  141.0524  156.1327 C   0  0  0  0  0  0  0  0  0  0  0  0
  149.4931  141.5938  157.5386 C   0  0  2  0  0  0  0  0  0  0  0  0
  148.1010  142.2122  157.7674 C   0  0  0  0  0  0  0  0  0  0  0  0
  150.6421  142.5677  157.8412 C   0  0  0  0  0  0  0  0  0  0  0  0
  151.4857  142.8326  156.9840 O   0  0  0  0  0  0  0  0  0  0  0  0
  150.6608  143.0816  159.0842 N   0  0  0  0  0  0  0  0  0  0  0  0
  151.6692  143.9707  159.6679 C   0  0  2  0  0  0  0  0  0  0  0  0
  152.1555  145.0006  158.6275 C   0  0  0  0  0  0  0  0  0  0  0  0
  152.8156  143.1876  160.3697 C   0  0  0  0  0  0  0  0  0  0  0  0
  153.2490  141.9411  159.5730 C   0  0  0  0  0  0  0  0  0  0  0  0
  152.4431  142.7750  161.8050 C   0  0  0  0  0  0  0  0  0  0  0  0
  149.0969  140.4573  153.0637 H   0  0  0  0  0  0  0  0  0  0  0  0
  152.5554  140.6005  156.7279 H   0  0  0  0  0  0  0  0  0  0  0  0
  152.5622  139.1083  155.7937 H   0  0  0  0  0  0  0  0  0  0  0  0
  151.6410  139.2039  157.2896 H   0  0  0  0  0  0  0  0  0  0  0  0
  147.5836  142.9119  155.3327 H   0  0  0  0  0  0  0  0  0  0  0  0
  146.7266  141.3725  155.2273 H   0  0  0  0  0  0  0  0  0  0  0  0
  147.3770  142.1249  153.7718 H   0  0  0  0  0  0  0  0  0  0  0  0
  149.5891  140.7813  158.2599 H   0  0  0  0  0  0  0  0  0  0  0  0
  147.9152  143.0633  157.1125 H   0  0  0  0  0  0  0  0  0  0  0  0
  147.9884  142.5580  158.7956 H   0  0  0  0  0  0  0  0  0  0  0  0
  147.3163  141.4778  157.5836 H   0  0  0  0  0  0  0  0  0  0  0  0
  149.9181  142.7943  159.7048 H   0  0  0  0  0  0  0  0  0  0  0  0
  151.1353  144.5286  160.4380 H   0  0  0  0  0  0  0  0  0  0  0  0
  152.7100  145.8122  159.0975 H   0  0  0  0  0  0  0  0  0  0  0  0
  151.3143  145.4553  158.1031 H   0  0  0  0  0  0  0  0  0  0  0  0
  152.8068  144.5461  157.8807 H   0  0  0  0  0  0  0  0  0  0  0  0
  153.6854  143.8411  160.4433 H   0  0  0  0  0  0  0  0  0  0  0  0
  152.4128  141.2575  159.4238 H   0  0  0  0  0  0  0  0  0  0  0  0
  154.0344  141.3945  160.0955 H   0  0  0  0  0  0  0  0  0  0  0  0
  153.6454  142.2008  158.5916 H   0  0  0  0  0  0  0  0  0  0  0  0
  151.5391  142.1657  161.8204 H   0  0  0  0  0  0  0  0  0  0  0  0
  152.2753  143.6416  162.4440 H   0  0  0  0  0  0  0  0  0  0  0  0
  153.2419  142.1935  162.2661 H   0  0  0  0  0  0  0  0  0  0  0  0
  1  2  1  0  0  0  0
  1 19  1  0  0  0  0
  1 20  1  0  0  0  0
  1 21  1  0  0  0  0
  2  7  1  0  0  0  0
  2  3  2  0  0  0  0
  3  4  1  0  0  0  0
  4 18  1  0  0  0  0
  4  5  1  0  0  0  0
  5  6  1  0  0  0  0
  5  7  2  0  0  0  0
  6 22  1  0  0  0  0
  6 23  1  0  0  0  0
  6 24  1  0  0  0  0
  7  8  1  0  0  0  0
  8  9  1  0  0  0  0
  8 10  1  0  0  0  0
  8 25  1  0  0  0  0
  9 26  1  0  0  0  0
  9 27  1  0  0  0  0
  9 28  1  0  0  0  0
 10 11  2  0  0  0  0
 10 12  1  0  0  0  0
 12 13  1  0  0  0  0
 12 29  1  0  0  0  0
 13 14  1  0  0  0  0
 13 15  1  0  0  0  0
 13 30  1  0  0  0  0
 14 31  1  0  0  0  0
 14 32  1  0  0  0  0
 14 33  1  0  0  0  0
 15 16  1  0  0  0  0
 15 17  1  0  0  0  0
 15 34  1  0  0  0  0
 16 35  1  0  0  0  0
 16 36  1  0  0  0  0
 16 37  1  0  0  0  0
 17 38  1  0  0  0  0
 17 39  1  0  0  0  0
 17 40  1  0  0  0  0
M  END
> <s_m_source_file>
AV-unprocessed.smi

> <i_m_source_file_index>
2496

> <i_lp_mmshare_version>
43012

> <i_f3d_flags>
0

> <s_epik_input>
W0NIM11jMW5bbkhdYyhbQ0gzXSljMVtDQEhdKFtDSDNdKUMoPU8pW05IXVtDQEhdKFtDSDNdKVtDSF0oW0NIM10pW0NIM10=

> <s_epik_cmdline>
J2VwaWtfcHl0aG9uJywgJy1waCcsICc3LjAnLCAnLXRuJywgJzgnLCAnLW1hJywgJzIwMCcsICctbWV0YWxfYmluZGluZycsICctaW1hZScsICc8aW5maWxlLm1hZT4nLCAnLW9tYWUnLCAnPG91dGZpbGUubWFlPic=

> <r_lp_tautomer_probability>
1

> <r_epik_Ionization_Penalty>
0.000456212

> <r_epik_Ionization_Penalty_Charging>
0

> <r_epik_Ionization_Penalty_Neutral>
0.000456212

> <r_epik_State_Penalty>
-0

> <r_epik_Charging_Adjusted_Penalty>
0

> <i_epik_Tot_Q>
0

> <i_epik_Tot_abs_Q>
0

> <r_epik_Metal_State_Penalty>
-0

> <b_epik_Metal_Only>
0

> <s_lp_Force_Field>
OPLS_2005

> <r_lp_Energy>
1.67244

> <b_lp_Chiralities_Consistent>
1

> <s_lp_Variant>
AV-unprocessed.smi:2496-1

> <Gold.Version>
5.8.1

> <Gold.Id.Protein>
6NUR|6NUR_protein|mol2

> <Gold.PLP.Fitness>
41.3574

> <Gold.PLP.PLP>
-37.7637

> <Gold.PLP.part.hbond>
-2.0000

> <Gold.PLP.part.metal>
0.0000

> <Gold.PLP.part.buried>
-3.3226

> <Gold.PLP.part.nonpolar>
-33.5250

> <Gold.PLP.part.repulsive>
1.3526

> <Gold.PLP.ligand.clash>
0.0886

> <Gold.PLP.ligand.torsion>
1.0225

> <Gold.PLP.Chemscore.Hbond>
1.8480

> <Gold.PLP.Chemscore.CHOScore>
0.0000

> <Gold.PLP.Chemscore.Metal>
0.0000

> <Gold.Chemscore.Hbonds>
donor molecule, donor type, donor heavy atom, donor atom, acceptor molecule, acceptor atom, score
      L1  H     4    18       P1  7957  0.88
      P1  H  7989  7998       L1     3  0.90

> <Gold.PLP.Chemscore.Internal.Correction>
0.1833

> <Gold.Rescore>
     Score         DG    S(hbond)    S(metal)    S(lipo)     H(rot)  DE(clash)    DE(int)     intcor
     12.06     -16.44       1.08        0.00      94.83       1.47       0.24       4.15       ----

> <Gold.Chemscore.Fitness>
12.0592

> <Gold.Chemscore.DG>
-16.4444

> <Gold.Chemscore.ZeroCoef>
-5.4800

> <Gold.Chemscore.Hbond>
1.0847

> <Gold.Chemscore.Metal>
0.0000

> <Gold.Chemscore.Lipo>
94.8290

> <Gold.Chemscore.Internal_Hbond>
0.0000

> <Gold.Chemscore.DEClash>
0.2361

> <Gold.Chemscore.DEInternal>
4.1490

> <Gold.Chemscore.Rot>
1.4662

> <Gold.Chemscore.Internal.Correction>
   9.000000E+99

> <Gold.Chemscore.Hbonds>
donor molecule, donor type, donor heavy atom, donor atom, acceptor molecule, acceptor atom, score
      L1  H     4    18       P1  7957  0.82
      P1  H  7989  7998       L1     3  0.12

> <Gold.Chemscore.Hbond.Weighted>
-3.6228

> <Gold.Chemscore.Metal.Weighted>
-0.0000

> <Gold.Chemscore.Lipo.Weighted>
-11.0950

> <Gold.Chemscore.Internal_Hbond.Weighted>
0.0000

> <Gold.Chemscore.DEClash.Weighted>
0.2361

> <Gold.Chemscore.DEInternal.Weighted>
4.1490

> <Gold.Chemscore.Rot.Weighted>
3.7534

> <Gold.Chemscore.Internal.Correction.Weighted>
   9.000000E+99

> <Gold.Protein.RotatedTorsions>
[ 6907 6896 6895 6894 ] final  -14.69 input  -60.11 | X-H torsion
[ 7974 7965 7964 7962 ] final   21.20 input  175.53 | X-H torsion
[ 8008 7997 7996 7995 ] final   58.04 input   59.86 | X-H torsion
[ 10167 10162 10161 10158 ] final -131.19 input  -65.29 | X-H torsion
[ 10718 10713 10712 10709 ] final -149.02 input   66.30 | X-H torsion
[ 10763 10752 10751 10750 ] final  129.18 input  -60.55 | X-H torsion
[ 11005 11000 10999 10996 ] final -154.27 input  -57.11 | X-H torsion

> <Gold.Protein.ActiveResidues>
 VAL166  LYS551  ARG553  GLY616  TRP617  ASP618  TYR619  PRO620  LYS621  CYS622 
 ASP623  PHE694  ASN695  SER759  ASP760  ASP761  ALA762  ILE779  LEU786  VAL792 
 PHE793  MET794  SER795  GLU796  ALA797  LYS798  CYS799  TRP800  GLU811  SER814 

> <Gold.Protein.RotatedAtoms>
  151.3356  135.0852  159.9353 H   0  0  0  0  0  0  0  0  0  0  0  0  # atno 6907 bound_to 6896
  152.5224  133.9499  159.7677 H   0  0  0  0  0  0  0  0  0  0  0  0  # atno 6908 bound_to 6896
  150.9846  133.6158  159.2747 H   0  0  0  0  0  0  0  0  0  0  0  0  # atno 6909 bound_to 6896
  146.2081  139.8060  142.8710 H   0  0  0  0  0  0  0  0  0  0  0  0  # atno 7974 bound_to 7965
  155.5436  140.3485  155.4452 H   0  0  0  0  0  0  0  0  0  0  0  0  # atno 8008 bound_to 7997
  156.0634  140.1345  156.9941 H   0  0  0  0  0  0  0  0  0  0  0  0  # atno 8009 bound_to 7997
  154.4491  140.0980  156.6535 H   0  0  0  0  0  0  0  0  0  0  0  0  # atno 8010 bound_to 7997
  139.9215  143.6377  152.2552 H   0  0  0  0  0  0  0  0  0  0  0  0  # atno 10167 bound_to 10162
  156.4277  130.8060  151.2286 H   0  0  0  0  0  0  0  0  0  0  0  0  # atno 10718 bound_to 10713
  153.7376  135.3229  155.3298 H   0  0  0  0  0  0  0  0  0  0  0  0  # atno 10763 bound_to 10752
  154.8306  135.4537  154.1059 H   0  0  0  0  0  0  0  0  0  0  0  0  # atno 10764 bound_to 10752
  153.2224  135.6950  153.8065 H   0  0  0  0  0  0  0  0  0  0  0  0  # atno 10765 bound_to 10752
  140.6991  134.3957  157.5211 H   0  0  0  0  0  0  0  0  0  0  0  0  # atno 11005 bound_to 11000
  145.3245  141.0252  143.3481 LP  0  0  0  0  0  0  0  0  0  0  0  0  # atno 17320 bound_to 7965
  144.8842  139.4861  143.6708 LP  0  0  0  0  0  0  0  0  0  0  0  0  # atno 17321 bound_to 7965
  139.6858  144.7652  151.1527 LP  0  0  0  0  0  0  0  0  0  0  0  0  # atno 17342 bound_to 10162
  140.7661  143.5660  150.9047 LP  0  0  0  0  0  0  0  0  0  0  0  0  # atno 17343 bound_to 10162
  157.7508  131.0208  150.3723 LP  0  0  0  0  0  0  0  0  0  0  0  0  # atno 17370 bound_to 10713
  156.4054  130.3924  149.6929 LP  0  0  0  0  0  0  0  0  0  0  0  0  # atno 17371 bound_to 10713
  139.8902  134.8811  156.2383 LP  0  0  0  0  0  0  0  0  0  0  0  0  # atno 17394 bound_to 11000
  141.0178  133.7058  156.1218 LP  0  0  0  0  0  0  0  0  0  0  0  0  # atno 17395 bound_to 11000

$$$$
