AV-unprocessed.smi:1033|AV-procd|sdf|4509|dock10
  -GOLD-   22720 2513D 1   1.00000     0.00000
 Structure written by MMmdl.
 57 59  0  0  0  0  0  0  0  0  3 V2000
  153.4712  142.0956  160.5464 C   0  0  0  0  0  0  0  0  0  0  0  0
  152.6555  141.7889  159.3027 C   0  0  0  0  0  0  0  0  0  0  0  0
  152.4968  140.4438  158.8997 C   0  0  0  0  0  0  0  0  0  0  0  0
  151.7456  140.1161  157.7499 C   0  0  0  0  0  0  0  0  0  0  0  0
  151.4615  138.8863  157.1814 N   0  0  0  0  0  0  0  0  0  0  0  0
  150.7210  139.2386  156.1348 C   0  0  0  0  0  0  0  0  0  0  0  0
  150.4864  140.5533  155.9596 N   0  0  0  0  0  0  0  0  0  0  0  0
  149.7066  141.1683  154.8997 C   0  0  0  0  0  0  0  0  0  0  0  0
  148.2317  141.3754  155.2960 C   0  0  1  0  0  0  0  0  0  0  0  0
  148.1453  142.3979  156.2706 O   0  0  0  0  0  0  0  0  0  0  0  0
  147.3674  141.7796  154.0850 C   0  0  0  0  0  0  0  0  0  0  0  0
  146.5585  142.9998  154.3408 N   0  3  2  0  0  0  0  0  0  0  0  0
  145.2835  142.7339  155.0541 C   0  0  0  0  0  0  0  0  0  0  0  0
  144.5457  144.0462  155.3768 C   0  0  0  0  0  0  0  0  0  0  0  0
  144.3126  144.8518  154.1499 N   0  3  1  0  0  0  0  0  0  0  0  0
  143.5500  146.1028  154.3984 C   0  0  0  0  0  0  0  0  0  0  0  0
  142.0996  145.8385  154.8486 C   0  0  1  0  0  0  0  0  0  0  0  0
  141.2866  147.1358  154.9464 C   0  0  0  0  0  0  0  0  0  0  0  0
  141.4726  144.9955  153.9038 O   0  0  0  0  0  0  0  0  0  0  0  0
  145.5847  145.1048  153.4286 C   0  0  0  0  0  0  0  0  0  0  0  0
  146.3189  143.7907  153.1092 C   0  0  0  0  0  0  0  0  0  0  0  0
  151.1522  141.1795  157.0084 C   0  0  0  0  0  0  0  0  0  0  0  0
  151.3040  142.5218  157.3987 C   0  0  0  0  0  0  0  0  0  0  0  0
  152.0582  142.8316  158.5498 C   0  0  0  0  0  0  0  0  0  0  0  0
  152.2157  144.2843  158.9631 C   0  0  0  0  0  0  0  0  0  0  0  0
  153.8103  141.1823  161.0363 H   0  0  0  0  0  0  0  0  0  0  0  0
  152.8764  142.6584  161.2661 H   0  0  0  0  0  0  0  0  0  0  0  0
  154.3519  142.6840  160.2883 H   0  0  0  0  0  0  0  0  0  0  0  0
  152.9520  139.6492  159.4728 H   0  0  0  0  0  0  0  0  0  0  0  0
  150.3226  138.4970  155.4577 H   0  0  0  0  0  0  0  0  0  0  0  0
  150.1712  142.1185  154.6326 H   0  0  0  0  0  0  0  0  0  0  0  0
  149.7723  140.5323  154.0157 H   0  0  0  0  0  0  0  0  0  0  0  0
  147.8599  140.4512  155.7378 H   0  0  0  0  0  0  0  0  0  0  0  0
  148.6242  143.1520  155.9587 H   0  0  0  0  0  0  0  0  0  0  0  0
  148.0307  141.9539  153.2361 H   0  0  0  0  0  0  0  0  0  0  0  0
  146.7085  140.9609  153.7916 H   0  0  0  0  0  0  0  0  0  0  0  0
  144.6497  142.0911  154.4408 H   0  0  0  0  0  0  0  0  0  0  0  0
  145.4717  142.1962  155.9826 H   0  0  0  0  0  0  0  0  0  0  0  0
  143.5994  143.8095  155.8618 H   0  0  0  0  0  0  0  0  0  0  0  0
  145.1277  144.6318  156.0907 H   0  0  0  0  0  0  0  0  0  0  0  0
  144.0775  146.7053  155.1396 H   0  0  0  0  0  0  0  0  0  0  0  0
  143.5221  146.7022  153.4866 H   0  0  0  0  0  0  0  0  0  0  0  0
  142.0765  145.3454  155.8197 H   0  0  0  0  0  0  0  0  0  0  0  0
  141.7226  147.8156  155.6790 H   0  0  0  0  0  0  0  0  0  0  0  0
  140.2601  146.9359  155.2553 H   0  0  0  0  0  0  0  0  0  0  0  0
  141.2505  147.6580  153.9896 H   0  0  0  0  0  0  0  0  0  0  0  0
  142.0776  144.3097  153.6624 H   0  0  0  0  0  0  0  0  0  0  0  0
  145.3811  145.6373  152.4987 H   0  0  0  0  0  0  0  0  0  0  0  0
  146.2223  145.7528  154.0325 H   0  0  0  0  0  0  0  0  0  0  0  0
  147.2699  144.0200  152.6264 H   0  0  0  0  0  0  0  0  0  0  0  0
  145.7379  143.1964  152.4016 H   0  0  0  0  0  0  0  0  0  0  0  0
  150.8420  143.3066  156.8183 H   0  0  0  0  0  0  0  0  0  0  0  0
  151.7308  144.9551  158.2534 H   0  0  0  0  0  0  0  0  0  0  0  0
  153.2701  144.5566  159.0124 H   0  0  0  0  0  0  0  0  0  0  0  0
  151.7679  144.4527  159.9426 H   0  0  0  0  0  0  0  0  0  0  0  0
  143.7402  144.2957  153.5296 H   0  0  0  0  0  0  0  0  0  0  0  0
  147.1226  143.5816  154.9450 H   0  0  0  0  0  0  0  0  0  0  0  0
  1  2  1  0  0  0  0
  1 26  1  0  0  0  0
  1 27  1  0  0  0  0
  1 28  1  0  0  0  0
  2 24  1  0  0  0  0
  2  3  2  0  0  0  0
  3  4  1  0  0  0  0
  3 29  1  0  0  0  0
  4 22  2  0  0  0  0
  4  5  1  0  0  0  0
  5  6  2  0  0  0  0
  6  7  1  0  0  0  0
  6 30  1  0  0  0  0
  7  8  1  0  0  0  0
  7 22  1  0  0  0  0
  8  9  1  0  0  0  0
  8 31  1  0  0  0  0
  8 32  1  0  0  0  0
  9 10  1  0  0  0  0
  9 11  1  0  0  0  0
  9 33  1  0  0  0  0
 10 34  1  0  0  0  0
 11 12  1  0  0  0  0
 11 35  1  0  0  0  0
 11 36  1  0  0  0  0
 12 21  1  0  0  0  0
 12 13  1  0  0  0  0
 12 57  1  0  0  0  0
 13 14  1  0  0  0  0
 13 37  1  0  0  0  0
 13 38  1  0  0  0  0
 14 15  1  0  0  0  0
 14 39  1  0  0  0  0
 14 40  1  0  0  0  0
 15 16  1  0  0  0  0
 15 20  1  0  0  0  0
 15 56  1  0  0  0  0
 16 17  1  0  0  0  0
 16 41  1  0  0  0  0
 16 42  1  0  0  0  0
 17 18  1  0  0  0  0
 17 19  1  0  0  0  0
 17 43  1  0  0  0  0
 18 44  1  0  0  0  0
 18 45  1  0  0  0  0
 18 46  1  0  0  0  0
 19 47  1  0  0  0  0
 20 21  1  0  0  0  0
 20 48  1  0  0  0  0
 20 49  1  0  0  0  0
 21 50  1  0  0  0  0
 21 51  1  0  0  0  0
 22 23  1  0  0  0  0
 23 24  2  0  0  0  0
 23 52  1  0  0  0  0
 24 25  1  0  0  0  0
 25 53  1  0  0  0  0
 25 54  1  0  0  0  0
 25 55  1  0  0  0  0
M  CHG  1  12   1
M  CHG  1  15   1
M  END
> <s_m_source_file>
AV-unprocessed.smi

> <i_m_source_file_index>
1033

> <i_lp_mmshare_version>
43012

> <i_f3d_flags>
0

> <s_epik_input>
W0NIM11jKFtjSF0xKWMoW0NIM10pW2NIXWMoYzEyKW4oW2NIXW4yKVtDSDJdW0NASF0oW09IXSlbQ0gyXU4zW0NIMl1bQ0gyXU4oW0NIMl1bQ0gyXTMpW0NIMl1bQ0BIXShbQ0gzXSlbT0hd

> <s_epik_cmdline>
J2VwaWtfcHl0aG9uJywgJy1waCcsICc3LjAnLCAnLXRuJywgJzgnLCAnLW1hJywgJzIwMCcsICctbWV0YWxfYmluZGluZycsICctaW1hZScsICc8aW5maWxlLm1hZT4nLCAnLW9tYWUnLCAnPG91dGZpbGUubWFlPic=

> <r_epik_Ionization_Penalty>
3.16016

> <r_epik_Ionization_Penalty_Charging>
3.07679

> <r_epik_Ionization_Penalty_Neutral>
0.083365

> <r_epik_State_Penalty>
2.09701

> <r_epik_Charging_Adjusted_Penalty>
5.1738

> <i_epik_Tot_Q>
2

> <i_epik_Tot_abs_Q>
2

> <r_epik_Metal_State_Penalty>
2.02534

> <b_epik_Metal_Only>
0

> <s_lp_Force_Field>
OPLS_2005

> <r_lp_Energy>
27.8385

> <b_lp_Chiralities_Consistent>
1

> <s_lp_Variant>
AV-unprocessed.smi:1033-20

> <Gold.Version>
5.8.1

> <Gold.Id.Protein>
6NUR|6NUR_protein|mol2

> <Gold.PLP.Fitness>
63.2306

> <Gold.PLP.PLP>
-51.5611

> <Gold.PLP.part.hbond>
-4.0000

> <Gold.PLP.part.metal>
0.0000

> <Gold.PLP.part.buried>
-6.4223

> <Gold.PLP.part.nonpolar>
-41.8263

> <Gold.PLP.part.repulsive>
0.1545

> <Gold.PLP.ligand.clash>
0.0000

> <Gold.PLP.ligand.torsion>
1.5286

> <Gold.PLP.Chemscore.Hbond>
4.8240

> <Gold.PLP.Chemscore.CHOScore>
0.0000

> <Gold.PLP.Chemscore.Metal>
0.0000

> <Gold.Chemscore.Hbonds>
donor molecule, donor type, donor heavy atom, donor atom, acceptor molecule, acceptor atom, score
      L1  H    10    34       P1  8028  1.00
      L1  H    12    57       P1  8028  0.55

> <Gold.PLP.Chemscore.Internal.Correction>
0.2547

> <Gold.Rescore>
     Score         DG    S(hbond)    S(metal)    S(lipo)     H(rot)  DE(clash)    DE(int)     intcor
     21.67     -24.39       3.01        0.00     144.46       3.14       1.24       1.48       ----

> <Gold.Chemscore.Fitness>
21.6665

> <Gold.Chemscore.DG>
-24.3879

> <Gold.Chemscore.ZeroCoef>
-5.4800

> <Gold.Chemscore.Hbond>
3.0058

> <Gold.Chemscore.Metal>
0.0000

> <Gold.Chemscore.Lipo>
144.4601

> <Gold.Chemscore.Internal_Hbond>
0.0000

> <Gold.Chemscore.DEClash>
1.2390

> <Gold.Chemscore.DEInternal>
1.4824

> <Gold.Chemscore.Rot>
3.1380

> <Gold.Chemscore.Internal.Correction>
   9.000000E+99

> <Gold.Chemscore.Hbonds>
donor molecule, donor type, donor heavy atom, donor atom, acceptor molecule, acceptor atom, score
      L1  H    10    34       P1  8028  0.96
      L1  H    12    57       P1  8028  0.01
      L1  H    15    56       P1 10174  0.01
      L1  H    19    47       P1 10174  0.07

> <Gold.Chemscore.Hbond.Weighted>
-10.0392

> <Gold.Chemscore.Metal.Weighted>
-0.0000

> <Gold.Chemscore.Lipo.Weighted>
-16.9018

> <Gold.Chemscore.Internal_Hbond.Weighted>
0.0000

> <Gold.Chemscore.DEClash.Weighted>
1.2390

> <Gold.Chemscore.DEInternal.Weighted>
1.4824

> <Gold.Chemscore.Rot.Weighted>
8.0332

> <Gold.Chemscore.Internal.Correction.Weighted>
   9.000000E+99

> <Gold.Protein.RotatedTorsions>
[ 6907 6896 6895 6894 ] final   61.03 input  -60.11 | X-H torsion
[ 7974 7965 7964 7962 ] final  -97.31 input  175.53 | X-H torsion
[ 8008 7997 7996 7995 ] final  -11.70 input   59.86 | X-H torsion
[ 10167 10162 10161 10158 ] final -129.86 input  -65.29 | X-H torsion
[ 10718 10713 10712 10709 ] final   11.89 input   66.30 | X-H torsion
[ 10763 10752 10751 10750 ] final   -0.65 input  -60.55 | X-H torsion
[ 11005 11000 10999 10996 ] final -101.97 input  -57.11 | X-H torsion

> <Gold.Protein.ActiveResidues>
 VAL166  LYS551  ARG553  GLY616  TRP617  ASP618  TYR619  PRO620  LYS621  CYS622 
 ASP623  PHE694  ASN695  SER759  ASP760  ASP761  ALA762  ILE779  LEU786  VAL792 
 PHE793  MET794  SER795  GLU796  ALA797  LYS798  CYS799  TRP800  GLU811  SER814 

> <Gold.Protein.RotatedAtoms>
  152.4053  134.6216  160.0052 H   0  0  0  0  0  0  0  0  0  0  0  0  # atno 6907 bound_to 6896
  151.6409  133.3320  159.3138 H   0  0  0  0  0  0  0  0  0  0  0  0  # atno 6908 bound_to 6896
  150.7949  134.7043  159.6612 H   0  0  0  0  0  0  0  0  0  0  0  0  # atno 6909 bound_to 6896
  145.3354  140.9450  143.2638 H   0  0  0  0  0  0  0  0  0  0  0  0  # atno 7974 bound_to 7965
  154.5442  140.2295  155.8591 H   0  0  0  0  0  0  0  0  0  0  0  0  # atno 8008 bound_to 7997
  156.1887  140.3082  155.9251 H   0  0  0  0  0  0  0  0  0  0  0  0  # atno 8009 bound_to 7997
  155.3198  140.0440  157.3029 H   0  0  0  0  0  0  0  0  0  0  0  0  # atno 8010 bound_to 7997
  139.9353  143.6225  152.2518 H   0  0  0  0  0  0  0  0  0  0  0  0  # atno 10167 bound_to 10162
  157.0022  130.6084  149.5698 H   0  0  0  0  0  0  0  0  0  0  0  0  # atno 10718 bound_to 10713
  153.3346  135.6977  153.6918 H   0  0  0  0  0  0  0  0  0  0  0  0  # atno 10763 bound_to 10752
  153.5707  135.3517  155.2837 H   0  0  0  0  0  0  0  0  0  0  0  0  # atno 10764 bound_to 10752
  154.8625  135.4271  154.2544 H   0  0  0  0  0  0  0  0  0  0  0  0  # atno 10765 bound_to 10752
  141.1209  133.8521  157.1300 H   0  0  0  0  0  0  0  0  0  0  0  0  # atno 11005 bound_to 11000
  144.8831  139.4876  143.6713 LP  0  0  0  0  0  0  0  0  0  0  0  0  # atno 17320 bound_to 7965
  146.3029  139.7483  142.9078 LP  0  0  0  0  0  0  0  0  0  0  0  0  # atno 17321 bound_to 7965
  139.6748  144.7659  151.1716 LP  0  0  0  0  0  0  0  0  0  0  0  0  # atno 17342 bound_to 10162
  140.7626  143.5811  150.8894 LP  0  0  0  0  0  0  0  0  0  0  0  0  # atno 17343 bound_to 10162
  156.0167  130.5261  150.8154 LP  0  0  0  0  0  0  0  0  0  0  0  0  # atno 17370 bound_to 10713
  157.5381  131.0939  150.9864 LP  0  0  0  0  0  0  0  0  0  0  0  0  # atno 17371 bound_to 10713
  140.0165  134.9965  157.0504 LP  0  0  0  0  0  0  0  0  0  0  0  0  # atno 17394 bound_to 11000
  140.4511  134.1582  155.7181 LP  0  0  0  0  0  0  0  0  0  0  0  0  # atno 17395 bound_to 11000

$$$$
