AV-unprocessed.smi:1238|AV-procd|sdf|5184|dock4
  -GOLD-   22720 4263D 1   1.00000     0.00000
 Structure written by MMmdl.
 42 43  0  0  0  0  0  0  0  0  2 V2000
  146.5025  139.7486  152.9865 C   0  0  0  0  0  0  0  0  0  0  0  0
  147.2329  140.1023  154.1478 O   0  0  0  0  0  0  0  0  0  0  0  0
  147.5866  138.9739  154.9293 C   0  0  0  0  0  0  0  0  0  0  0  0
  148.7258  139.3657  155.8857 C   0  0  0  0  0  0  0  0  0  0  0  0
  149.9906  139.6182  155.1562 N   0  0  0  0  0  0  0  0  0  0  0  0
  150.5217  140.9413  155.0670 C   0  0  0  0  0  0  0  0  0  0  0  0
  149.4864  142.2571  155.8158 S   0  0  0  0  0  0  0  0  0  0  0  0
  149.6095  141.8593  157.5829 C   0  0  0  0  0  0  0  0  0  0  0  0
  150.7641  142.5898  158.2616 C   0  0  0  0  0  0  0  0  0  0  0  0
  150.7338  143.8141  158.3846 O   0  0  0  0  0  0  0  0  0  0  0  0
  151.7782  141.8274  158.6990 N   0  0  0  0  0  0  0  0  0  0  0  0
  152.9787  142.3297  159.3610 C   0  0  0  0  0  0  0  0  0  0  0  0
  153.8537  141.1813  159.9052 C   0  0  0  0  0  0  0  0  0  0  0  0
  154.1832  141.5487  161.3529 C   0  0  0  0  0  0  0  0  0  0  0  0
  152.9875  142.3770  161.8118 C   0  0  0  0  0  0  0  0  0  0  0  0
  152.6049  143.1956  160.5782 C   0  0  0  0  0  0  0  0  0  0  0  0
  151.6536  141.1622  154.4735 N   0  0  0  0  0  0  0  0  0  0  0  0
  152.3995  140.1434  153.8823 C   0  0  0  0  0  0  0  0  0  0  0  0
  153.4677  140.5530  153.3780 O   0  5  0  0  0  0  0  0  0  0  0  0
  151.8828  138.8587  153.9168 C   0  0  0  0  0  0  0  0  0  0  0  0
  150.6110  138.5541  154.5601 C   0  0  0  0  0  0  0  0  0  0  0  0
  150.1426  137.4144  154.5642 O   0  0  0  0  0  0  0  0  0  0  0  0
  146.2553  140.6467  152.4209 H   0  0  0  0  0  0  0  0  0  0  0  0
  145.5692  139.2470  153.2456 H   0  0  0  0  0  0  0  0  0  0  0  0
  147.0846  139.0918  152.3388 H   0  0  0  0  0  0  0  0  0  0  0  0
  146.7209  138.6307  155.4978 H   0  0  0  0  0  0  0  0  0  0  0  0
  147.8953  138.1549  154.2783 H   0  0  0  0  0  0  0  0  0  0  0  0
  148.4311  140.1998  156.5207 H   0  0  0  0  0  0  0  0  0  0  0  0
  148.8572  138.5626  156.6129 H   0  0  0  0  0  0  0  0  0  0  0  0
  149.7444  140.7837  157.7035 H   0  0  0  0  0  0  0  0  0  0  0  0
  148.6727  142.1232  158.0753 H   0  0  0  0  0  0  0  0  0  0  0  0
  151.7185  140.8299  158.5530 H   0  0  0  0  0  0  0  0  0  0  0  0
  153.5506  142.9389  158.6586 H   0  0  0  0  0  0  0  0  0  0  0  0
  153.3019  140.2397  159.8962 H   0  0  0  0  0  0  0  0  0  0  0  0
  154.7533  141.0319  159.3073 H   0  0  0  0  0  0  0  0  0  0  0  0
  154.3547  140.6729  161.9793 H   0  0  0  0  0  0  0  0  0  0  0  0
  155.0856  142.1609  161.3813 H   0  0  0  0  0  0  0  0  0  0  0  0
  152.1648  141.7146  162.0841 H   0  0  0  0  0  0  0  0  0  0  0  0
  153.2147  143.0012  162.6763 H   0  0  0  0  0  0  0  0  0  0  0  0
  153.1958  144.1124  160.5602 H   0  0  0  0  0  0  0  0  0  0  0  0
  151.5554  143.4928  160.5942 H   0  0  0  0  0  0  0  0  0  0  0  0
  152.4365  138.0507  153.4613 H   0  0  0  0  0  0  0  0  0  0  0  0
  1  2  1  0  0  0  0
  1 23  1  0  0  0  0
  1 24  1  0  0  0  0
  1 25  1  0  0  0  0
  2  3  1  0  0  0  0
  3  4  1  0  0  0  0
  3 26  1  0  0  0  0
  3 27  1  0  0  0  0
  4 28  1  0  0  0  0
  4 29  1  0  0  0  0
  4  5  1  0  0  0  0
  5  6  1  0  0  0  0
  5 21  1  0  0  0  0
  6 17  2  0  0  0  0
  6  7  1  0  0  0  0
  7  8  1  0  0  0  0
  8  9  1  0  0  0  0
  8 30  1  0  0  0  0
  8 31  1  0  0  0  0
  9 10  2  0  0  0  0
  9 11  1  0  0  0  0
 11 12  1  0  0  0  0
 11 32  1  0  0  0  0
 12 16  1  0  0  0  0
 12 13  1  0  0  0  0
 12 33  1  0  0  0  0
 13 14  1  0  0  0  0
 13 34  1  0  0  0  0
 13 35  1  0  0  0  0
 14 15  1  0  0  0  0
 14 36  1  0  0  0  0
 14 37  1  0  0  0  0
 15 16  1  0  0  0  0
 15 38  1  0  0  0  0
 15 39  1  0  0  0  0
 16 40  1  0  0  0  0
 16 41  1  0  0  0  0
 17 18  1  0  0  0  0
 18 20  2  0  0  0  0
 18 19  1  0  0  0  0
 20 21  1  0  0  0  0
 20 42  1  0  0  0  0
 21 22  2  0  0  0  0
M  CHG  1  19  -1
M  END
> <s_m_source_file>
AV-unprocessed.smi

> <i_m_source_file_index>
1238

> <i_lp_mmshare_version>
43012

> <i_f3d_flags>
0

> <s_epik_input>
W0NIM11PW0NIMl1bQ0gyXW4xYyhuYyhbT0hdKVtjSF1jMT1PKVNbQ0gyXUMoPU8pW05IXVtDSF0yW0NIMl1bQ0gyXVtDSDJdW0NIMl0y

> <s_epik_cmdline>
J2VwaWtfcHl0aG9uJywgJy1waCcsICc3LjAnLCAnLXRuJywgJzgnLCAnLW1hJywgJzIwMCcsICctbWV0YWxfYmluZGluZycsICctaW1hZScsICc8aW5maWxlLm1hZT4nLCAnLW9tYWUnLCAnPG91dGZpbGUubWFlPic=

> <r_lp_tautomer_probability>
1

> <r_epik_Ionization_Penalty>
0.0116372

> <r_epik_Ionization_Penalty_Charging>
3.186e-07

> <r_epik_Ionization_Penalty_Neutral>
0.0116369

> <r_epik_State_Penalty>
0.000414464

> <r_epik_Charging_Adjusted_Penalty>
0.000414782

> <i_epik_Tot_Q>
-1

> <i_epik_Tot_abs_Q>
1

> <r_epik_Metal_State_Penalty>
-0

> <b_epik_Metal_Only>
0

> <s_lp_Force_Field>
OPLS_2005

> <r_lp_Energy>
27.578

> <b_lp_Chiralities_Consistent>
1

> <s_lp_Variant>
AV-unprocessed.smi:1238-1

> <Gold.Version>
5.8.1

> <Gold.Id.Protein>
6NUR|6NUR_protein|mol2

> <Gold.PLP.Fitness>
47.8334

> <Gold.PLP.PLP>
-40.3763

> <Gold.PLP.part.hbond>
-2.0000

> <Gold.PLP.part.metal>
0.0000

> <Gold.PLP.part.buried>
-4.1775

> <Gold.PLP.part.nonpolar>
-34.6622

> <Gold.PLP.part.repulsive>
0.5318

> <Gold.PLP.ligand.clash>
0.0000

> <Gold.PLP.ligand.torsion>
0.5233

> <Gold.PLP.Chemscore.Hbond>
2.7776

> <Gold.PLP.Chemscore.CHOScore>
0.0000

> <Gold.PLP.Chemscore.Metal>
0.0000

> <Gold.PLP.Chemscore.Internal.Correction>
0.1708

> <Gold.Rescore>
     Score         DG    S(hbond)    S(metal)    S(lipo)     H(rot)  DE(clash)    DE(int)     intcor
     10.07     -12.20       0.99        0.00      84.11       2.51       0.58       1.55       ----

> <Gold.Chemscore.Fitness>
10.0721

> <Gold.Chemscore.DG>
-12.1965

> <Gold.Chemscore.ZeroCoef>
-5.4800

> <Gold.Chemscore.Hbond>
0.9902

> <Gold.Chemscore.Metal>
0.0000

> <Gold.Chemscore.Lipo>
84.1105

> <Gold.Chemscore.Internal_Hbond>
0.0000

> <Gold.Chemscore.DEClash>
0.5783

> <Gold.Chemscore.DEInternal>
1.5460

> <Gold.Chemscore.Rot>
2.5124

> <Gold.Chemscore.Internal.Correction>
   9.000000E+99

> <Gold.Chemscore.Hbond.Weighted>
-3.3073

> <Gold.Chemscore.Metal.Weighted>
-0.0000

> <Gold.Chemscore.Lipo.Weighted>
-9.8409

> <Gold.Chemscore.Internal_Hbond.Weighted>
0.0000

> <Gold.Chemscore.DEClash.Weighted>
0.5783

> <Gold.Chemscore.DEInternal.Weighted>
1.5460

> <Gold.Chemscore.Rot.Weighted>
6.4318

> <Gold.Chemscore.Internal.Correction.Weighted>
   9.000000E+99

> <Gold.Protein.RotatedTorsions>
[ 6907 6896 6895 6894 ] final -150.06 input  -60.11 | X-H torsion
[ 7974 7965 7964 7962 ] final   44.32 input  175.53 | X-H torsion
[ 8008 7997 7996 7995 ] final    1.23 input   59.86 | X-H torsion
[ 10167 10162 10161 10158 ] final   36.08 input  -65.29 | X-H torsion
[ 10718 10713 10712 10709 ] final -145.85 input   66.30 | X-H torsion
[ 10763 10752 10751 10750 ] final   43.82 input  -60.55 | X-H torsion
[ 11005 11000 10999 10996 ] final  -28.18 input  -57.11 | X-H torsion

> <Gold.Protein.ActiveResidues>
 VAL166  LYS551  ARG553  GLY616  TRP617  ASP618  TYR619  PRO620  LYS621  CYS622 
 ASP623  PHE694  ASN695  SER759  ASP760  ASP761  ALA762  ILE779  LEU786  VAL792 
 PHE793  MET794  SER795  GLU796  ALA797  LYS798  CYS799  TRP800  GLU811  SER814 

> <Gold.Protein.RotatedAtoms>
  151.1931  133.4655  159.2594 H   0  0  0  0  0  0  0  0  0  0  0  0  # atno 6907 bound_to 6896
  151.1144  135.0044  159.8519 H   0  0  0  0  0  0  0  0  0  0  0  0  # atno 6908 bound_to 6896
  152.5452  134.1848  159.8703 H   0  0  0  0  0  0  0  0  0  0  0  0  # atno 6909 bound_to 6896
  146.0578  139.5087  142.9677 H   0  0  0  0  0  0  0  0  0  0  0  0  # atno 7974 bound_to 7965
  154.6773  140.2625  155.6944 H   0  0  0  0  0  0  0  0  0  0  0  0  # atno 8008 bound_to 7997
  156.2683  140.2817  156.1227 H   0  0  0  0  0  0  0  0  0  0  0  0  # atno 8009 bound_to 7997
  155.1082  140.0375  157.2706 H   0  0  0  0  0  0  0  0  0  0  0  0  # atno 8010 bound_to 7997
  140.4161  144.1525  150.6143 H   0  0  0  0  0  0  0  0  0  0  0  0  # atno 10167 bound_to 10162
  156.3875  130.7869  151.2068 H   0  0  0  0  0  0  0  0  0  0  0  0  # atno 10718 bound_to 10713
  152.9853  135.6089  154.3174 H   0  0  0  0  0  0  0  0  0  0  0  0  # atno 10763 bound_to 10752
  154.2886  135.2775  155.2667 H   0  0  0  0  0  0  0  0  0  0  0  0  # atno 10764 bound_to 10752
  154.4973  135.5876  153.6560 H   0  0  0  0  0  0  0  0  0  0  0  0  # atno 10765 bound_to 10752
  140.9185  133.7414  156.0769 H   0  0  0  0  0  0  0  0  0  0  0  0  # atno 11005 bound_to 11000
  145.6613  141.0240  143.1707 LP  0  0  0  0  0  0  0  0  0  0  0  0  # atno 17320 bound_to 7965
  144.7158  139.8203  143.7399 LP  0  0  0  0  0  0  0  0  0  0  0  0  # atno 17321 bound_to 7965
  140.4585  143.2458  151.9252 LP  0  0  0  0  0  0  0  0  0  0  0  0  # atno 17342 bound_to 10162
  139.4782  144.5491  151.8412 LP  0  0  0  0  0  0  0  0  0  0  0  0  # atno 17343 bound_to 10162
  157.7497  131.0325  150.4231 LP  0  0  0  0  0  0  0  0  0  0  0  0  # atno 17370 bound_to 10713
  156.4486  130.4007  149.6650 LP  0  0  0  0  0  0  0  0  0  0  0  0  # atno 17371 bound_to 10713
  140.8018  134.3500  157.5437 LP  0  0  0  0  0  0  0  0  0  0  0  0  # atno 17394 bound_to 11000
  139.8771  134.9202  156.3245 LP  0  0  0  0  0  0  0  0  0  0  0  0  # atno 17395 bound_to 11000

$$$$
