AV-unprocessed.smi:107|AV-procd|sdf|1024|dock5
  -GOLD-   2262018 23D 1   1.00000     0.00000
 Structure written by MMmdl.
 30 31  0  0  0  0  0  0  0  0  2 V2000
  152.2591  143.9441  158.6652 C   0  0  0  0  0  0  0  0  0  0  0  0
  152.0393  142.4419  158.7025 C   0  0  0  0  0  0  0  0  0  0  0  0
  151.1356  141.8253  157.9091 C   0  0  0  0  0  0  0  0  0  0  0  0
  150.9375  140.4557  157.9461 N   0  0  0  0  0  0  0  0  0  0  0  0
  149.9120  139.7865  157.0544 C   0  0  1  0  0  0  0  0  0  0  0  0
  149.3584  140.7870  156.0366 C   0  0  0  0  0  0  0  0  0  0  0  0
  150.2162  140.4977  154.8226 C   0  0  2  0  0  0  0  0  0  0  0  0
  149.5527  140.8767  153.6341 O   0  0  0  0  0  0  0  0  0  0  0  0
  150.4073  138.9828  154.9302 C   0  0  1  0  0  0  0  0  0  0  0  0
  151.6576  138.4655  154.2019 C   0  0  0  0  0  0  0  0  0  0  0  0
  151.6072  137.0590  154.0960 O   0  0  0  0  0  0  0  0  0  0  0  0
  150.5232  138.7531  156.3347 O   0  0  0  0  0  0  0  0  0  0  0  0
  151.6853  139.6652  158.8581 C   0  0  0  0  0  0  0  0  0  0  0  0
  151.4639  138.4544  158.8921 O   0  0  0  0  0  0  0  0  0  0  0  0
  152.6044  140.2773  159.6579 N   0  5  0  0  0  0  0  0  0  0  0  0
  152.8286  141.6223  159.6298 C   0  0  0  0  0  0  0  0  0  0  0  0
  153.6646  142.1614  160.3542 O   0  0  0  0  0  0  0  0  0  0  0  0
  151.6011  144.4236  157.9400 H   0  0  0  0  0  0  0  0  0  0  0  0
  153.2891  144.1709  158.3885 H   0  0  0  0  0  0  0  0  0  0  0  0
  152.0603  144.3828  159.6435 H   0  0  0  0  0  0  0  0  0  0  0  0
  150.5519  142.4290  157.2323 H   0  0  0  0  0  0  0  0  0  0  0  0
  149.1563  139.3675  157.7204 H   0  0  0  0  0  0  0  0  0  0  0  0
  148.3135  140.5355  155.8478 H   0  0  0  0  0  0  0  0  0  0  0  0
  149.4145  141.8180  156.3882 H   0  0  0  0  0  0  0  0  0  0  0  0
  151.1720  141.0175  154.9036 H   0  0  0  0  0  0  0  0  0  0  0  0
  149.6531  140.1818  153.0012 H   0  0  0  0  0  0  0  0  0  0  0  0
  149.5072  138.4798  154.5705 H   0  0  0  0  0  0  0  0  0  0  0  0
  151.6947  138.8680  153.1894 H   0  0  0  0  0  0  0  0  0  0  0  0
  152.5732  138.7746  154.7058 H   0  0  0  0  0  0  0  0  0  0  0  0
  151.3020  136.8373  153.2293 H   0  0  0  0  0  0  0  0  0  0  0  0
  1  2  1  0  0  0  0
  1 18  1  0  0  0  0
  1 19  1  0  0  0  0
  1 20  1  0  0  0  0
  2 16  1  0  0  0  0
  2  3  2  0  0  0  0
  3  4  1  0  0  0  0
  3 21  1  0  0  0  0
  4  5  1  0  0  0  0
  4 13  1  0  0  0  0
  5 12  1  0  0  0  0
  5  6  1  0  0  0  0
  5 22  1  0  0  0  0
  6  7  1  0  0  0  0
  6 23  1  0  0  0  0
  6 24  1  0  0  0  0
  7  8  1  0  0  0  0
  7  9  1  0  0  0  0
  7 25  1  0  0  0  0
  8 26  1  0  0  0  0
  9 10  1  0  0  0  0
  9 12  1  0  0  0  0
  9 27  1  0  0  0  0
 10 11  1  0  0  0  0
 10 28  1  0  0  0  0
 10 29  1  0  0  0  0
 11 30  1  0  0  0  0
 13 14  2  0  0  0  0
 13 15  1  0  0  0  0
 15 16  1  0  0  0  0
 16 17  2  0  0  0  0
M  CHG  1  15  -1
M  END
> <s_m_source_file>
AV-unprocessed.smi

> <i_m_source_file_index>
107

> <i_lp_mmshare_version>
43012

> <i_f3d_flags>
0

> <s_epik_input>
Tz1jMVtuSF1jKD1PKW4oW2NIXWMxW0NIM10pW0NAQEhdMltDSDJdW0NAQEhdKFtPSF0pW0NASF0oTzIpW0NIMl1bT0hd

> <s_epik_cmdline>
J2VwaWtfcHl0aG9uJywgJy1waCcsICc3LjAnLCAnLXRuJywgJzgnLCAnLW1hJywgJzIwMCcsICctbWV0YWxfYmluZGluZycsICctaW1hZScsICc8aW5maWxlLm1hZT4nLCAnLW9tYWUnLCAnPG91dGZpbGUubWFlPic=

> <r_lp_tautomer_probability>
0.999537

> <r_epik_Ionization_Penalty>
3.66603

> <r_epik_Ionization_Penalty_Charging>
1.09773e-07

> <r_epik_Ionization_Penalty_Neutral>
3.66603

> <r_epik_State_Penalty>
3.66562

> <r_epik_Charging_Adjusted_Penalty>
3.66562

> <i_epik_Tot_Q>
-1

> <i_epik_Tot_abs_Q>
1

> <r_epik_Metal_State_Penalty>
0.234536

> <b_epik_Metal_Only>
1

> <s_epik_Chemistry_Notes>
This compound contains an acetal/aminal-like group ( X-CH(R)-Y where X, Y are N, S, or O) that may be acid/base labile, releasing an aldehyde.

> <s_lp_Force_Field>
OPLS_2005

> <r_lp_Energy>
34.1834

> <b_lp_Chiralities_Consistent>
1

> <s_lp_Variant>
AV-unprocessed.smi:107-12

> <Gold.Version>
5.8.1

> <Gold.Id.Protein>
6NUR|6NUR_protein|mol2

> <Gold.PLP.Fitness>
41.3927

> <Gold.PLP.PLP>
-30.7789

> <Gold.PLP.part.hbond>
-5.0000

> <Gold.PLP.part.metal>
0.0000

> <Gold.PLP.part.buried>
-4.2694

> <Gold.PLP.part.nonpolar>
-21.7861

> <Gold.PLP.part.repulsive>
0.0000

> <Gold.PLP.ligand.clash>
0.0000

> <Gold.PLP.ligand.torsion>
0.2065

> <Gold.PLP.Chemscore.Hbond>
3.6720

> <Gold.PLP.Chemscore.CHOScore>
0.0000

> <Gold.PLP.Chemscore.Metal>
0.0000

> <Gold.Chemscore.Hbonds>
donor molecule, donor type, donor heavy atom, donor atom, acceptor molecule, acceptor atom, score
      L1  H     8    26       P1  7957  0.72
      L1  H    11    30       P1  7949  1.00
      P1  H  8011  8017       L1     8  0.80
      P1  H 10752 10764       L1    11  0.95

> <Gold.PLP.Chemscore.Internal.Correction>
0.0107

> <Gold.Rescore>
     Score         DG    S(hbond)    S(metal)    S(lipo)     H(rot)  DE(clash)    DE(int)     intcor
     11.34     -15.32       2.85        0.00      61.52       2.69       2.25       1.73       ----

> <Gold.Chemscore.Fitness>
11.3407

> <Gold.Chemscore.DG>
-15.3219

> <Gold.Chemscore.ZeroCoef>
-5.4800

> <Gold.Chemscore.Hbond>
2.8513

> <Gold.Chemscore.Metal>
0.0000

> <Gold.Chemscore.Lipo>
61.5186

> <Gold.Chemscore.Internal_Hbond>
0.0000

> <Gold.Chemscore.DEClash>
2.2479

> <Gold.Chemscore.DEInternal>
1.7334

> <Gold.Chemscore.Rot>
2.6871

> <Gold.Chemscore.Internal.Correction>
   9.000000E+99

> <Gold.Chemscore.Hbonds>
donor molecule, donor type, donor heavy atom, donor atom, acceptor molecule, acceptor atom, score
      L1  H     8    26       P1  7957  0.72
      L1  H    11    30       P1  7949  0.69
      P1  H  8011  8017       L1     8  0.11
      P1  H 10752 10764       L1    11  0.21

> <Gold.Chemscore.Hbond.Weighted>
-9.5233

> <Gold.Chemscore.Metal.Weighted>
-0.0000

> <Gold.Chemscore.Lipo.Weighted>
-7.1977

> <Gold.Chemscore.Internal_Hbond.Weighted>
0.0000

> <Gold.Chemscore.DEClash.Weighted>
2.2479

> <Gold.Chemscore.DEInternal.Weighted>
1.7334

> <Gold.Chemscore.Rot.Weighted>
6.8791

> <Gold.Chemscore.Internal.Correction.Weighted>
   9.000000E+99

> <Gold.Protein.RotatedTorsions>
[ 6907 6896 6895 6894 ] final   69.29 input  -60.11 | X-H torsion
[ 7974 7965 7964 7962 ] final   35.93 input  175.53 | X-H torsion
[ 8008 7997 7996 7995 ] final   12.78 input   59.86 | X-H torsion
[ 10167 10162 10161 10158 ] final    5.13 input  -65.29 | X-H torsion
[ 10718 10713 10712 10709 ] final   31.63 input   66.30 | X-H torsion
[ 10763 10752 10751 10750 ] final  -75.06 input  -60.55 | X-H torsion
[ 11005 11000 10999 10996 ] final -160.05 input  -57.11 | X-H torsion

> <Gold.Protein.ActiveResidues>
 VAL166  LYS551  ARG553  GLY616  TRP617  ASP618  TYR619  PRO620  LYS621  CYS622 
 ASP623  PHE694  ASN695  SER759  ASP760  ASP761  ALA762  ILE779  LEU786  VAL792 
 PHE793  MET794  SER795  GLU796  ALA797  LYS798  CYS799  TRP800  GLU811  SER814 

> <Gold.Protein.RotatedAtoms>
  152.4676  134.5038  159.9732 H   0  0  0  0  0  0  0  0  0  0  0  0  # atno 6907 bound_to 6896
  151.5072  133.3486  159.2886 H   0  0  0  0  0  0  0  0  0  0  0  0  # atno 6908 bound_to 6896
  150.8669  134.8062  159.7187 H   0  0  0  0  0  0  0  0  0  0  0  0  # atno 6909 bound_to 6896
  146.1248  139.6080  142.9266 H   0  0  0  0  0  0  0  0  0  0  0  0  # atno 7974 bound_to 7965
  154.8253  140.2890  155.5759 H   0  0  0  0  0  0  0  0  0  0  0  0  # atno 8008 bound_to 7997
  156.3001  140.2542  156.3099 H   0  0  0  0  0  0  0  0  0  0  0  0  # atno 8009 bound_to 7997
  154.9292  140.0384  157.2028 H   0  0  0  0  0  0  0  0  0  0  0  0  # atno 8010 bound_to 7997
  140.6498  143.7572  150.7557 H   0  0  0  0  0  0  0  0  0  0  0  0  # atno 10167 bound_to 10162
  157.2750  130.7226  149.6525 H   0  0  0  0  0  0  0  0  0  0  0  0  # atno 10718 bound_to 10713
  154.4815  135.5843  153.6393 H   0  0  0  0  0  0  0  0  0  0  0  0  # atno 10763 bound_to 10752
  152.9848  135.6091  154.3240 H   0  0  0  0  0  0  0  0  0  0  0  0  # atno 10764 bound_to 10752
  154.3131  135.2844  155.2535 H   0  0  0  0  0  0  0  0  0  0  0  0  # atno 10765 bound_to 10752
  140.6358  134.4603  157.5231 H   0  0  0  0  0  0  0  0  0  0  0  0  # atno 11005 bound_to 11000
  145.5390  141.0422  143.2341 LP  0  0  0  0  0  0  0  0  0  0  0  0  # atno 17320 bound_to 7965
  144.7631  139.6909  143.7226 LP  0  0  0  0  0  0  0  0  0  0  0  0  # atno 17321 bound_to 7965
  140.1220  143.4603  152.2307 LP  0  0  0  0  0  0  0  0  0  0  0  0  # atno 17342 bound_to 10162
  139.5712  144.7464  151.3885 LP  0  0  0  0  0  0  0  0  0  0  0  0  # atno 17343 bound_to 10162
  155.9663  130.4356  150.5098 LP  0  0  0  0  0  0  0  0  0  0  0  0  # atno 17370 bound_to 10713
  157.3030  131.0649  151.2055 LP  0  0  0  0  0  0  0  0  0  0  0  0  # atno 17371 bound_to 10713
  139.9098  134.8368  156.1568 LP  0  0  0  0  0  0  0  0  0  0  0  0  # atno 17394 bound_to 11000
  141.0642  133.6827  156.2012 LP  0  0  0  0  0  0  0  0  0  0  0  0  # atno 17395 bound_to 11000

$$$$
