AV-unprocessed.smi:21|AV-procd|sdf|125|dock9
  -GOLD-   2262015303D 1   1.00000     0.00000
 Structure written by MMmdl.
 62 65  0  0  0  0  0  0  0  0  2 V2000
  143.6526  133.1238  147.9806 C   0  0  0  0  0  0  0  0  0  0  0  0
  143.5969  132.1827  149.0406 O   0  0  0  0  0  0  0  0  0  0  0  0
  144.8037  132.0951  149.7836 C   0  0  1  0  0  0  0  0  0  0  0  0
  145.1060  133.4200  150.4704 C   0  0  0  0  0  0  0  0  0  0  0  0
  146.0364  133.0102  151.6156 C   0  0  1  0  0  0  0  0  0  0  0  0
  146.0451  134.0166  152.7858 C   0  0  0  0  0  0  0  0  0  0  0  0
  144.9961  135.0304  152.6933 N   0  0  0  0  0  0  0  0  0  0  0  0
  143.6309  134.5442  152.8301 C   0  0  0  0  0  0  0  0  0  0  0  0
  145.2027  136.1432  153.4310 C   0  0  0  0  0  0  0  0  0  0  0  0
  144.7788  136.1196  154.7179 N   0  0  0  0  0  0  0  0  0  0  0  0
  144.9497  137.1927  155.4963 C   0  0  0  0  0  0  0  0  0  0  0  0
  145.5106  138.3653  155.1910 N   0  0  0  0  0  0  0  0  0  0  0  0
  145.9430  138.3874  153.8976 C   0  0  0  0  0  0  0  0  0  0  0  0
  145.8276  137.3296  152.9531 C   0  0  0  0  0  0  0  0  0  0  0  0
  146.3756  137.7178  151.7363 N   0  0  0  0  0  0  0  0  0  0  0  0
  146.7953  138.9351  151.9506 C   0  0  0  0  0  0  0  0  0  0  0  0
  146.5825  139.4128  153.2243 N   0  0  0  0  0  0  0  0  0  0  0  0
  146.9471  140.7230  153.7357 C   0  0  0  0  0  0  0  0  0  0  0  0
  147.8916  140.6599  154.9659 C   0  0  1  0  0  0  0  0  0  0  0  0
  149.3762  140.5117  154.5517 C   0  0  0  0  0  0  0  0  0  0  0  0
  149.6314  141.1455  153.3155 O   0  0  0  0  0  0  0  0  0  0  0  0
  147.6923  141.8322  155.9681 C   0  0  2  0  0  0  0  0  0  0  0  0
  148.4057  141.7188  157.3032 C   0  0  0  0  0  0  0  0  0  0  0  0
  147.7205  142.8239  158.0997 C   0  0  0  0  0  0  0  0  0  0  0  0
  146.3683  142.8289  157.6516 O   0  0  0  0  0  0  0  0  0  0  0  0
  146.2565  142.1297  156.4137 C   0  0  0  0  0  0  0  0  0  0  0  0
  145.5486  131.6800  152.0500 N   0  3  2  0  0  0  0  0  0  0  0  0
  146.6150  130.7729  152.5283 C   0  0  0  0  0  0  0  0  0  0  0  0
  144.7224  131.1116  150.9585 C   0  0  0  0  0  0  0  0  0  0  0  0
  145.6432  131.8373  149.1349 H   0  0  0  0  0  0  0  0  0  0  0  0
  147.0416  132.8832  151.2089 H   0  0  0  0  0  0  0  0  0  0  0  0
  142.6920  133.1509  147.4664 H   0  0  0  0  0  0  0  0  0  0  0  0
  144.4154  132.8590  147.2478 H   0  0  0  0  0  0  0  0  0  0  0  0
  143.8601  134.1270  148.3547 H   0  0  0  0  0  0  0  0  0  0  0  0
  145.5558  134.1516  149.7983 H   0  0  0  0  0  0  0  0  0  0  0  0
  144.1856  133.8508  150.8679 H   0  0  0  0  0  0  0  0  0  0  0  0
  145.9222  133.4775  153.7260 H   0  0  0  0  0  0  0  0  0  0  0  0
  147.0157  134.5082  152.8489 H   0  0  0  0  0  0  0  0  0  0  0  0
  142.9110  135.3549  152.7073 H   0  0  0  0  0  0  0  0  0  0  0  0
  143.4736  134.0891  153.8089 H   0  0  0  0  0  0  0  0  0  0  0  0
  143.4197  133.7939  152.0676 H   0  0  0  0  0  0  0  0  0  0  0  0
  144.5869  137.0980  156.5093 H   0  0  0  0  0  0  0  0  0  0  0  0
  147.2813  139.5192  151.1826 H   0  0  0  0  0  0  0  0  0  0  0  0
  147.4080  141.2833  152.9229 H   0  0  0  0  0  0  0  0  0  0  0  0
  146.0189  141.2369  153.9812 H   0  0  0  0  0  0  0  0  0  0  0  0
  147.6288  139.7495  155.5069 H   0  0  0  0  0  0  0  0  0  0  0  0
  150.0398  140.9728  155.2824 H   0  0  0  0  0  0  0  0  0  0  0  0
  149.6598  139.4611  154.4854 H   0  0  0  0  0  0  0  0  0  0  0  0
  149.7943  140.4802  152.6642 H   0  0  0  0  0  0  0  0  0  0  0  0
  148.0764  142.7404  155.5007 H   0  0  0  0  0  0  0  0  0  0  0  0
  148.2138  140.7618  157.7861 H   0  0  0  0  0  0  0  0  0  0  0  0
  149.4847  141.8558  157.2272 H   0  0  0  0  0  0  0  0  0  0  0  0
  147.7848  142.6667  159.1767 H   0  0  0  0  0  0  0  0  0  0  0  0
  148.1681  143.7919  157.8705 H   0  0  0  0  0  0  0  0  0  0  0  0
  145.7119  142.7219  155.6778 H   0  0  0  0  0  0  0  0  0  0  0  0
  145.6888  141.2187  156.5966 H   0  0  0  0  0  0  0  0  0  0  0  0
  147.3217  130.5404  151.7303 H   0  0  0  0  0  0  0  0  0  0  0  0
  146.1854  129.8378  152.8885 H   0  0  0  0  0  0  0  0  0  0  0  0
  147.1655  131.2281  153.3523 H   0  0  0  0  0  0  0  0  0  0  0  0
  143.6972  131.0415  151.3245 H   0  0  0  0  0  0  0  0  0  0  0  0
  145.0342  130.1082  150.6646 H   0  0  0  0  0  0  0  0  0  0  0  0
  144.9196  131.8383  152.8243 H   0  0  0  0  0  0  0  0  0  0  0  0
  1  2  1  0  0  0  0
  1 32  1  0  0  0  0
  1 33  1  0  0  0  0
  1 34  1  0  0  0  0
  2  3  1  0  0  0  0
  3 30  1  0  0  0  0
  3 29  1  0  0  0  0
  3  4  1  0  0  0  0
  4  5  1  0  0  0  0
  4 35  1  0  0  0  0
  4 36  1  0  0  0  0
  5 31  1  0  0  0  0
  5  6  1  0  0  0  0
  5 27  1  0  0  0  0
  6  7  1  0  0  0  0
  6 37  1  0  0  0  0
  6 38  1  0  0  0  0
  7  8  1  0  0  0  0
  7  9  1  0  0  0  0
  8 39  1  0  0  0  0
  8 40  1  0  0  0  0
  8 41  1  0  0  0  0
  9 14  1  0  0  0  0
  9 10  2  0  0  0  0
 10 11  1  0  0  0  0
 11 12  2  0  0  0  0
 11 42  1  0  0  0  0
 12 13  1  0  0  0  0
 13 17  1  0  0  0  0
 13 14  2  0  0  0  0
 14 15  1  0  0  0  0
 15 16  2  0  0  0  0
 16 17  1  0  0  0  0
 16 43  1  0  0  0  0
 17 18  1  0  0  0  0
 18 19  1  0  0  0  0
 18 44  1  0  0  0  0
 18 45  1  0  0  0  0
 19 20  1  0  0  0  0
 19 22  1  0  0  0  0
 19 46  1  0  0  0  0
 20 21  1  0  0  0  0
 20 47  1  0  0  0  0
 20 48  1  0  0  0  0
 21 49  1  0  0  0  0
 22 26  1  0  0  0  0
 22 23  1  0  0  0  0
 22 50  1  0  0  0  0
 23 24  1  0  0  0  0
 23 51  1  0  0  0  0
 23 52  1  0  0  0  0
 24 25  1  0  0  0  0
 24 53  1  0  0  0  0
 24 54  1  0  0  0  0
 25 26  1  0  0  0  0
 26 55  1  0  0  0  0
 26 56  1  0  0  0  0
 27 28  1  0  0  0  0
 27 29  1  0  0  0  0
 27 62  1  0  0  0  0
 28 57  1  0  0  0  0
 28 58  1  0  0  0  0
 28 59  1  0  0  0  0
 29 60  1  0  0  0  0
 29 61  1  0  0  0  0
M  CHG  1  27   1
M  END
> <s_m_source_file>
AV-unprocessed.smi

> <i_m_source_file_index>
21

> <i_lp_mmshare_version>
43012

> <i_f3d_flags>
0

> <s_epik_input>
W0NIM11PW0NASF0xW0NIMl1bQ0BIXShOKFtDSDNdKVtDSDJdMSlbQ0gyXU4oW0NIM10pYyhuW2NIXW4yKWMoYzIzKW5bY0hdbjNbQ0gyXVtDQEhdKFtDSDJdW09IXSlbQ0BASF00W0NIMl1bQ0gyXU9bQ0gyXTQ=

> <s_epik_cmdline>
J2VwaWtfcHl0aG9uJywgJy1waCcsICc3LjAnLCAnLXRuJywgJzgnLCAnLW1hJywgJzIwMCcsICctbWV0YWxfYmluZGluZycsICctaW1hZScsICc8aW5maWxlLm1hZT4nLCAnLW9tYWUnLCAnPG91dGZpbGUubWFlPic=

> <r_lp_tautomer_probability>
1

> <r_epik_Ionization_Penalty>
0.0157465

> <r_epik_Ionization_Penalty_Charging>
0.015354

> <r_epik_Ionization_Penalty_Neutral>
0.000392529

> <r_epik_State_Penalty>
0.0120612

> <r_epik_Charging_Adjusted_Penalty>
0.0274152

> <i_epik_Tot_Q>
1

> <i_epik_Tot_abs_Q>
1

> <r_epik_Metal_State_Penalty>
0.0121253

> <b_epik_Metal_Only>
0

> <s_lp_Force_Field>
OPLS_2005

> <r_lp_Energy>
61.1599

> <b_lp_Chiralities_Consistent>
1

> <s_lp_Variant>
AV-unprocessed.smi:21-5

> <Gold.Version>
5.8.1

> <Gold.Id.Protein>
6NUR|6NUR_protein|mol2

> <Gold.PLP.Fitness>
44.9504

> <Gold.PLP.PLP>
-37.3515

> <Gold.PLP.part.hbond>
-3.3534

> <Gold.PLP.part.metal>
0.0000

> <Gold.PLP.part.buried>
-1.8980

> <Gold.PLP.part.nonpolar>
-33.8393

> <Gold.PLP.part.repulsive>
2.0813

> <Gold.PLP.ligand.clash>
0.0139

> <Gold.PLP.ligand.torsion>
2.1170

> <Gold.PLP.Chemscore.Hbond>
2.7420

> <Gold.PLP.Chemscore.CHOScore>
0.9454

> <Gold.PLP.Chemscore.Metal>
0.0000

> <Gold.Chemscore.Hbonds>
donor molecule, donor type, donor heavy atom, donor atom, acceptor molecule, acceptor atom, score
      L1  H    21    49       P1  7957  0.93
      P1  H  8011  8017       L1    21  0.80
      P1  H 10785 10796       L1     2  0.72
      L1  C    16    43       P1  7957  0.91

> <Gold.PLP.Chemscore.Internal.Correction>
0.7846

> <Gold.Rescore>
     Score         DG    S(hbond)    S(metal)    S(lipo)     H(rot)  DE(clash)    DE(int)     intcor
      9.74     -13.65       1.55        0.00      98.78       3.35       0.71       3.21       ----

> <Gold.Chemscore.Fitness>
9.7351

> <Gold.Chemscore.DG>
-13.6519

> <Gold.Chemscore.ZeroCoef>
-5.4800

> <Gold.Chemscore.Hbond>
1.5505

> <Gold.Chemscore.Metal>
0.0000

> <Gold.Chemscore.Lipo>
98.7767

> <Gold.Chemscore.Internal_Hbond>
0.0000

> <Gold.Chemscore.DEClash>
0.7066

> <Gold.Chemscore.DEInternal>
3.2102

> <Gold.Chemscore.Rot>
3.3452

> <Gold.Chemscore.Internal.Correction>
   9.000000E+99

> <Gold.Chemscore.Hbonds>
donor molecule, donor type, donor heavy atom, donor atom, acceptor molecule, acceptor atom, score
      L1  H    21    49       P1  7957  0.87
      P1  H  8011  8017       L1    21  0.11
      P1  H 10785 10796       L1     2  0.18

> <Gold.Chemscore.Hbond.Weighted>
-5.1787

> <Gold.Chemscore.Metal.Weighted>
-0.0000

> <Gold.Chemscore.Lipo.Weighted>
-11.5569

> <Gold.Chemscore.Internal_Hbond.Weighted>
0.0000

> <Gold.Chemscore.DEClash.Weighted>
0.7066

> <Gold.Chemscore.DEInternal.Weighted>
3.2102

> <Gold.Chemscore.Rot.Weighted>
8.5636

> <Gold.Chemscore.Internal.Correction.Weighted>
   9.000000E+99

> <Gold.Protein.RotatedTorsions>
[ 6907 6896 6895 6894 ] final -169.28 input  -60.11 | X-H torsion
[ 7974 7965 7964 7962 ] final  -81.15 input  175.53 | X-H torsion
[ 8008 7997 7996 7995 ] final   95.77 input   59.86 | X-H torsion
[ 10167 10162 10161 10158 ] final  -13.38 input  -65.29 | X-H torsion
[ 10718 10713 10712 10709 ] final   74.65 input   66.30 | X-H torsion
[ 10763 10752 10751 10750 ] final -158.31 input  -60.55 | X-H torsion
[ 11005 11000 10999 10996 ] final -114.41 input  -57.11 | X-H torsion

> <Gold.Protein.ActiveResidues>
 VAL166  LYS551  ARG553  GLY616  TRP617  ASP618  TYR619  PRO620  LYS621  CYS622 
 ASP623  PHE694  ASN695  SER759  ASP760  ASP761  ALA762  ILE779  LEU786  VAL792 
 PHE793  MET794  SER795  GLU796  ALA797  LYS798  CYS799  TRP800  GLU811  SER814 

> <Gold.Protein.RotatedAtoms>
  151.4891  133.3529  159.2850 H   0  0  0  0  0  0  0  0  0  0  0  0  # atno 6907 bound_to 6896
  150.8847  134.8245  159.7261 H   0  0  0  0  0  0  0  0  0  0  0  0  # atno 6908 bound_to 6896
  152.4785  134.4793  159.9712 H   0  0  0  0  0  0  0  0  0  0  0  0  # atno 6909 bound_to 6896
  145.5504  140.9497  143.1502 H   0  0  0  0  0  0  0  0  0  0  0  0  # atno 7974 bound_to 7965
  156.0724  140.3282  155.7593 H   0  0  0  0  0  0  0  0  0  0  0  0  # atno 8008 bound_to 7997
  155.5283  140.0591  157.2911 H   0  0  0  0  0  0  0  0  0  0  0  0  # atno 8009 bound_to 7997
  154.4537  140.1932  156.0459 H   0  0  0  0  0  0  0  0  0  0  0  0  # atno 8010 bound_to 7997
  140.7181  143.5432  150.9385 H   0  0  0  0  0  0  0  0  0  0  0  0  # atno 10167 bound_to 10162
  157.6601  130.9688  150.1241 H   0  0  0  0  0  0  0  0  0  0  0  0  # atno 10718 bound_to 10713
  154.7567  135.3106  154.8456 H   0  0  0  0  0  0  0  0  0  0  0  0  # atno 10763 bound_to 10752
  153.9229  135.6793  153.4751 H   0  0  0  0  0  0  0  0  0  0  0  0  # atno 10764 bound_to 10752
  153.1165  135.4842  154.9053 H   0  0  0  0  0  0  0  0  0  0  0  0  # atno 10765 bound_to 10752
  141.0553  133.9622  157.2764 H   0  0  0  0  0  0  0  0  0  0  0  0  # atno 11005 bound_to 11000
  144.7532  139.7141  143.7264 LP  0  0  0  0  0  0  0  0  0  0  0  0  # atno 17320 bound_to 7965
  146.1920  139.5166  142.9799 LP  0  0  0  0  0  0  0  0  0  0  0  0  # atno 17321 bound_to 7965
  139.9155  143.6668  152.3107 LP  0  0  0  0  0  0  0  0  0  0  0  0  # atno 17342 bound_to 10162
  139.7067  144.7627  151.1181 LP  0  0  0  0  0  0  0  0  0  0  0  0  # atno 17343 bound_to 10162
  156.2105  130.3666  149.8677 LP  0  0  0  0  0  0  0  0  0  0  0  0  # atno 17370 bound_to 10713
  156.6557  130.8761  151.3539 LP  0  0  0  0  0  0  0  0  0  0  0  0  # atno 17371 bound_to 10713
  139.9385  135.0194  156.8633 LP  0  0  0  0  0  0  0  0  0  0  0  0  # atno 17394 bound_to 11000
  140.5976  134.0203  155.7524 LP  0  0  0  0  0  0  0  0  0  0  0  0  # atno 17395 bound_to 11000

$$$$
