AV-unprocessed.smi:2726|AV-procd|sdf|10519|dock2
  -GOLD-   2272014563D 1   1.00000     0.00000
 Structure written by MMmdl.
 41 42  0  0  0  0  0  0  0  0  1 V2000
  147.7188  132.9876  152.6789 C   0  0  0  0  0  0  0  0  0  0  0  0
  148.2682  133.2847  154.0855 C   0  0  0  0  0  0  0  0  0  0  0  0
  147.0932  133.3183  155.0853 C   0  0  0  0  0  0  0  0  0  0  0  0
  149.2775  132.1827  154.4708 C   0  0  0  0  0  0  0  0  0  0  0  0
  148.9287  134.5942  154.0185 N   0  0  0  0  0  0  0  0  0  0  0  0
  149.5512  135.2669  155.0013 C   0  0  0  0  0  0  0  0  0  0  0  0
  149.6639  134.8545  156.1552 O   0  0  0  0  0  0  0  0  0  0  0  0
  150.0083  136.4496  154.5560 N   0  0  0  0  0  0  0  0  0  0  0  0
  150.7160  137.4490  155.2760 C   0  0  0  0  0  0  0  0  0  0  0  0
  150.9379  138.7635  154.8016 C   0  0  0  0  0  0  0  0  0  0  0  0
  151.6381  139.6721  155.6181 C   0  0  0  0  0  0  0  0  0  0  0  0
  152.0890  139.2447  156.8838 C   0  0  0  0  0  0  0  0  0  0  0  0
  152.7900  140.1520  157.6927 N   0  0  0  0  0  0  0  0  0  0  0  0
  152.0409  141.3301  158.0975 C   0  0  0  0  0  0  0  0  0  0  0  0
  152.8396  141.9451  159.2494 C   0  0  0  0  0  0  0  0  0  0  0  0
  153.6932  140.7939  159.7954 C   0  0  0  0  0  0  0  0  0  0  0  0
  153.3432  139.5915  158.9146 C   0  0  0  0  0  0  0  0  0  0  0  0
  151.8675  137.9920  157.3490 N   0  0  0  0  0  0  0  0  0  0  0  0
  151.1943  137.1262  156.5624 C   0  0  0  0  0  0  0  0  0  0  0  0
  147.2057  132.0257  152.6482 H   0  0  0  0  0  0  0  0  0  0  0  0
  148.5180  132.9557  151.9374 H   0  0  0  0  0  0  0  0  0  0  0  0
  147.0054  133.7490  152.3604 H   0  0  0  0  0  0  0  0  0  0  0  0
  146.3877  134.1139  154.8429 H   0  0  0  0  0  0  0  0  0  0  0  0
  147.4299  133.4771  156.1097 H   0  0  0  0  0  0  0  0  0  0  0  0
  146.5420  132.3774  155.0739 H   0  0  0  0  0  0  0  0  0  0  0  0
  148.8141  131.1964  154.4311 H   0  0  0  0  0  0  0  0  0  0  0  0
  149.6617  132.3125  155.4825 H   0  0  0  0  0  0  0  0  0  0  0  0
  150.1313  132.1706  153.7924 H   0  0  0  0  0  0  0  0  0  0  0  0
  148.9016  135.0430  153.1148 H   0  0  0  0  0  0  0  0  0  0  0  0
  149.7653  136.6906  153.6062 H   0  0  0  0  0  0  0  0  0  0  0  0
  150.5755  139.0958  153.8414 H   0  0  0  0  0  0  0  0  0  0  0  0
  151.8206  140.6809  155.2773 H   0  0  0  0  0  0  0  0  0  0  0  0
  151.9293  142.0290  157.2680 H   0  0  0  0  0  0  0  0  0  0  0  0
  151.0433  141.0525  158.4407 H   0  0  0  0  0  0  0  0  0  0  0  0
  153.4856  142.7418  158.8786 H   0  0  0  0  0  0  0  0  0  0  0  0
  152.1847  142.3736  160.0086 H   0  0  0  0  0  0  0  0  0  0  0  0
  154.7518  141.0387  159.7002 H   0  0  0  0  0  0  0  0  0  0  0  0
  153.4919  140.5909  160.8478 H   0  0  0  0  0  0  0  0  0  0  0  0
  152.6071  138.9621  159.4168 H   0  0  0  0  0  0  0  0  0  0  0  0
  154.2208  138.9799  158.7033 H   0  0  0  0  0  0  0  0  0  0  0  0
  151.0379  136.1393  156.9735 H   0  0  0  0  0  0  0  0  0  0  0  0
  1  2  1  0  0  0  0
  1 20  1  0  0  0  0
  1 21  1  0  0  0  0
  1 22  1  0  0  0  0
  2  3  1  0  0  0  0
  2  4  1  0  0  0  0
  2  5  1  0  0  0  0
  3 23  1  0  0  0  0
  3 24  1  0  0  0  0
  3 25  1  0  0  0  0
  4 26  1  0  0  0  0
  4 27  1  0  0  0  0
  4 28  1  0  0  0  0
  5  6  1  0  0  0  0
  5 29  1  0  0  0  0
  6  7  2  0  0  0  0
  6  8  1  0  0  0  0
  8  9  1  0  0  0  0
  8 30  1  0  0  0  0
  9 19  1  0  0  0  0
  9 10  2  0  0  0  0
 10 11  1  0  0  0  0
 10 31  1  0  0  0  0
 11 12  2  0  0  0  0
 11 32  1  0  0  0  0
 12 13  1  0  0  0  0
 12 18  1  0  0  0  0
 13 17  1  0  0  0  0
 13 14  1  0  0  0  0
 14 15  1  0  0  0  0
 14 33  1  0  0  0  0
 14 34  1  0  0  0  0
 15 16  1  0  0  0  0
 15 35  1  0  0  0  0
 15 36  1  0  0  0  0
 16 17  1  0  0  0  0
 16 37  1  0  0  0  0
 16 38  1  0  0  0  0
 17 39  1  0  0  0  0
 17 40  1  0  0  0  0
 18 19  2  0  0  0  0
 19 41  1  0  0  0  0
M  END
> <s_m_source_file>
AV-unprocessed.smi

> <i_m_source_file_index>
2726

> <i_lp_mmshare_version>
43012

> <i_f3d_flags>
0

> <s_epik_input>
W0NIM11DKFtDSDNdKShbQ0gzXSlbTkhdQyg9TylbTkhdYzFbY0hdW2NIXWMobltjSF0xKU4yW0NIMl1bQ0gyXVtDSDJdW0NIMl0y

> <s_epik_cmdline>
J2VwaWtfcHl0aG9uJywgJy1waCcsICc3LjAnLCAnLXRuJywgJzgnLCAnLW1hJywgJzIwMCcsICctbWV0YWxfYmluZGluZycsICctaW1hZScsICc8aW5maWxlLm1hZT4nLCAnLW9tYWUnLCAnPG91dGZpbGUubWFlPic=

> <r_lp_tautomer_probability>
1

> <r_epik_Ionization_Penalty>
0.105331

> <r_epik_Ionization_Penalty_Charging>
0

> <r_epik_Ionization_Penalty_Neutral>
0.105331

> <r_epik_State_Penalty>
0.0946433

> <r_epik_Charging_Adjusted_Penalty>
0.0946433

> <i_epik_Tot_Q>
0

> <i_epik_Tot_abs_Q>
0

> <r_epik_Metal_State_Penalty>
0.0802816

> <b_epik_Metal_Only>
0

> <s_lp_Force_Field>
OPLS_2005

> <r_lp_Energy>
34.5725

> <b_lp_Chiralities_Consistent>
1

> <s_lp_Variant>
AV-unprocessed.smi:2726-1

> <Gold.Version>
5.8.1

> <Gold.Id.Protein>
6NUR|6NUR_protein|mol2

> <Gold.PLP.Fitness>
38.6673

> <Gold.PLP.PLP>
-30.8132

> <Gold.PLP.part.hbond>
-3.1377

> <Gold.PLP.part.metal>
0.0000

> <Gold.PLP.part.buried>
-2.2615

> <Gold.PLP.part.nonpolar>
-25.2653

> <Gold.PLP.part.repulsive>
0.0743

> <Gold.PLP.ligand.clash>
0.0000

> <Gold.PLP.ligand.torsion>
0.0791

> <Gold.PLP.Chemscore.Hbond>
2.6637

> <Gold.PLP.Chemscore.CHOScore>
0.0000

> <Gold.PLP.Chemscore.Metal>
0.0000

> <Gold.Chemscore.Hbonds>
donor molecule, donor type, donor heavy atom, donor atom, acceptor molecule, acceptor atom, score
      L1  H     5    29       P1  7948  1.00
      L1  H     8    30       P1  7948  1.00
      P1  H  7997  8008       L1    13  0.66

> <Gold.PLP.Chemscore.Internal.Correction>
0.0213

> <Gold.Rescore>
     Score         DG    S(hbond)    S(metal)    S(lipo)     H(rot)  DE(clash)    DE(int)     intcor
     15.44     -16.94       2.02        0.00      65.97       1.17       0.00       1.51       ----

> <Gold.Chemscore.Fitness>
15.4382

> <Gold.Chemscore.DG>
-16.9442

> <Gold.Chemscore.ZeroCoef>
-5.4800

> <Gold.Chemscore.Hbond>
2.0192

> <Gold.Chemscore.Metal>
0.0000

> <Gold.Chemscore.Lipo>
65.9655

> <Gold.Chemscore.Internal_Hbond>
0.0000

> <Gold.Chemscore.DEClash>
0.0009

> <Gold.Chemscore.DEInternal>
1.5051

> <Gold.Chemscore.Rot>
1.1710

> <Gold.Chemscore.Internal.Correction>
   9.000000E+99

> <Gold.Chemscore.Hbonds>
donor molecule, donor type, donor heavy atom, donor atom, acceptor molecule, acceptor atom, score
      L1  H     5    29       P1  7948  0.30
      L1  H     8    30       P1  7948  0.47
      P1  H  7997  8008       L1    13  0.02

> <Gold.Chemscore.Hbond.Weighted>
-6.7440

> <Gold.Chemscore.Metal.Weighted>
-0.0000

> <Gold.Chemscore.Lipo.Weighted>
-7.7180

> <Gold.Chemscore.Internal_Hbond.Weighted>
0.0000

> <Gold.Chemscore.DEClash.Weighted>
0.0009

> <Gold.Chemscore.DEInternal.Weighted>
1.5051

> <Gold.Chemscore.Rot.Weighted>
2.9978

> <Gold.Chemscore.Internal.Correction.Weighted>
   9.000000E+99

> <Gold.Protein.RotatedTorsions>
[ 6907 6896 6895 6894 ] final -137.75 input  -60.11 | X-H torsion
[ 7974 7965 7964 7962 ] final  -63.17 input  175.53 | X-H torsion
[ 8008 7997 7996 7995 ] final  -61.79 input   59.86 | X-H torsion
[ 10167 10162 10161 10158 ] final -153.80 input  -65.29 | X-H torsion
[ 10718 10713 10712 10709 ] final  -64.97 input   66.30 | X-H torsion
[ 10763 10752 10751 10750 ] final -115.72 input  -60.55 | X-H torsion
[ 11005 11000 10999 10996 ] final  113.10 input  -57.11 | X-H torsion

> <Gold.Protein.ActiveResidues>
 VAL166  LYS551  ARG553  GLY616  TRP617  ASP618  TYR619  PRO620  LYS621  CYS622 
 ASP623  PHE694  ASN695  SER759  ASP760  ASP761  ALA762  ILE779  LEU786  VAL792 
 PHE793  MET794  SER795  GLU796  ALA797  LYS798  CYS799  TRP800  GLU811  SER814 

> <Gold.Protein.RotatedAtoms>
  151.0264  133.5830  159.2665 H   0  0  0  0  0  0  0  0  0  0  0  0  # atno 6907 bound_to 6896
  151.2928  135.0746  159.9220 H   0  0  0  0  0  0  0  0  0  0  0  0  # atno 6908 bound_to 6896
  152.5335  133.9959  159.7926 H   0  0  0  0  0  0  0  0  0  0  0  0  # atno 6909 bound_to 6896
  145.7823  140.8755  143.0324 H   0  0  0  0  0  0  0  0  0  0  0  0  # atno 7974 bound_to 7965
  154.4466  140.1010  156.6486 H   0  0  0  0  0  0  0  0  0  0  0  0  # atno 8008 bound_to 7997
  155.5423  140.3484  155.4431 H   0  0  0  0  0  0  0  0  0  0  0  0  # atno 8009 bound_to 7997
  156.0588  140.1321  156.9954 H   0  0  0  0  0  0  0  0  0  0  0  0  # atno 8010 bound_to 7997
  139.7067  143.9175  152.2451 H   0  0  0  0  0  0  0  0  0  0  0  0  # atno 10167 bound_to 10162
  156.0697  130.4241  150.1497 H   0  0  0  0  0  0  0  0  0  0  0  0  # atno 10718 bound_to 10713
  154.8492  135.4371  154.1707 H   0  0  0  0  0  0  0  0  0  0  0  0  # atno 10763 bound_to 10752
  153.2821  135.6954  153.7381 H   0  0  0  0  0  0  0  0  0  0  0  0  # atno 10764 bound_to 10752
  153.6581  135.3440  155.3094 H   0  0  0  0  0  0  0  0  0  0  0  0  # atno 10765 bound_to 10752
  139.8944  134.9543  156.6687 H   0  0  0  0  0  0  0  0  0  0  0  0  # atno 11005 bound_to 11000
  144.6794  140.0006  143.7484 LP  0  0  0  0  0  0  0  0  0  0  0  0  # atno 17320 bound_to 7965
  146.0061  139.3131  143.0898 LP  0  0  0  0  0  0  0  0  0  0  0  0  # atno 17321 bound_to 7965
  139.9033  144.6899  150.8642 LP  0  0  0  0  0  0  0  0  0  0  0  0  # atno 17342 bound_to 10162
  140.7723  143.3498  151.2038 LP  0  0  0  0  0  0  0  0  0  0  0  0  # atno 17343 bound_to 10162
  156.9550  130.9787  151.3491 LP  0  0  0  0  0  0  0  0  0  0  0  0  # atno 17370 bound_to 10713
  157.5761  130.8344  149.8457 LP  0  0  0  0  0  0  0  0  0  0  0  0  # atno 17371 bound_to 10713
  140.7390  133.8994  155.8265 LP  0  0  0  0  0  0  0  0  0  0  0  0  # atno 17394 bound_to 11000
  141.0092  134.1043  157.4238 LP  0  0  0  0  0  0  0  0  0  0  0  0  # atno 17395 bound_to 11000

$$$$
