AV-unprocessed.smi:2032|AV-procd|sdf|8252|dock8
  -GOLD-   2272010523D 1   1.00000     0.00000
 Structure written by MMmdl.
 42 43  0  0  0  0  0  0  0  0  3 V2000
  148.1810  141.8262  153.8460 C   0  0  0  0  0  0  0  0  0  0  0  0
  148.6274  140.4844  154.4367 C   0  0  1  0  0  0  0  0  0  0  0  0
  148.4052  139.3173  153.4509 C   0  0  0  0  0  0  0  0  0  0  0  0
  148.9044  138.0320  154.0134 N   0  3  2  0  0  0  0  0  0  0  0  0
  148.0628  137.4280  155.1035 C   0  0  2  0  0  0  0  0  0  0  0  0
  148.8372  136.3419  155.8897 C   0  0  0  0  0  0  0  0  0  0  0  0
  146.7342  136.8356  154.5546 C   0  0  0  0  0  0  0  0  0  0  0  0
  146.9414  135.6742  153.6944 N   0  0  0  0  0  0  0  0  0  0  0  0
  146.2509  134.5264  153.7545 C   0  0  0  0  0  0  0  0  0  0  0  0
  145.3399  134.4005  154.5765 O   0  0  0  0  0  0  0  0  0  0  0  0
  146.6646  133.5954  152.8665 N   0  5  0  0  0  0  0  0  0  0  0  0
  145.7940  133.0747  151.9865 C   0  0  0  0  0  0  0  0  0  0  0  0
  145.9083  131.8371  151.4916 N   0  0  0  0  0  0  0  0  0  0  0  0
  144.8907  131.5010  150.5968 C   0  0  0  0  0  0  0  0  0  0  0  0
  143.9756  132.5035  150.4127 C   0  0  0  0  0  0  0  0  0  0  0  0
  144.3666  133.9074  151.3642 S   0  0  0  0  0  0  0  0  0  0  0  0
  150.3452  138.2127  154.3429 C   0  0  0  0  0  0  0  0  0  0  0  0
  150.5509  139.3913  155.3194 C   0  0  1  0  0  0  0  0  0  0  0  0
  152.0341  139.6374  155.6174 C   0  0  0  0  0  0  0  0  0  0  0  0
  150.0181  140.5763  154.7341 O   0  0  0  0  0  0  0  0  0  0  0  0
  147.1175  141.8145  153.6058 H   0  0  0  0  0  0  0  0  0  0  0  0
  148.7283  142.0579  152.9319 H   0  0  0  0  0  0  0  0  0  0  0  0
  148.3519  142.6394  154.5519 H   0  0  0  0  0  0  0  0  0  0  0  0
  148.0694  140.3176  155.3589 H   0  0  0  0  0  0  0  0  0  0  0  0
  147.3687  139.2634  153.1286 H   0  0  0  0  0  0  0  0  0  0  0  0
  148.9636  139.5199  152.5356 H   0  0  0  0  0  0  0  0  0  0  0  0
  147.8086  138.2138  155.8135 H   0  0  0  0  0  0  0  0  0  0  0  0
  148.2059  135.8334  156.6177 H   0  0  0  0  0  0  0  0  0  0  0  0
  149.6587  136.7586  156.4709 H   0  0  0  0  0  0  0  0  0  0  0  0
  149.2411  135.5811  155.2214 H   0  0  0  0  0  0  0  0  0  0  0  0
  146.0626  136.5132  155.3481 H   0  0  0  0  0  0  0  0  0  0  0  0
  146.1971  137.5916  153.9815 H   0  0  0  0  0  0  0  0  0  0  0  0
  147.6750  135.7382  153.0036 H   0  0  0  0  0  0  0  0  0  0  0  0
  144.8951  130.5238  150.1375 H   0  0  0  0  0  0  0  0  0  0  0  0
  143.1001  132.5019  149.7815 H   0  0  0  0  0  0  0  0  0  0  0  0
  150.8056  137.3009  154.7173 H   0  0  0  0  0  0  0  0  0  0  0  0
  150.8769  138.4263  153.4144 H   0  0  0  0  0  0  0  0  0  0  0  0
  150.0424  139.1961  156.2643 H   0  0  0  0  0  0  0  0  0  0  0  0
  152.4902  138.7644  156.0848 H   0  0  0  0  0  0  0  0  0  0  0  0
  152.1604  140.4808  156.2968 H   0  0  0  0  0  0  0  0  0  0  0  0
  152.5900  139.8583  154.7057 H   0  0  0  0  0  0  0  0  0  0  0  0
  148.8718  137.3629  153.2576 H   0  0  0  0  0  0  0  0  0  0  0  0
  1  2  1  0  0  0  0
  1 21  1  0  0  0  0
  1 22  1  0  0  0  0
  1 23  1  0  0  0  0
  2 20  1  0  0  0  0
  2  3  1  0  0  0  0
  2 24  1  0  0  0  0
  3  4  1  0  0  0  0
  3 25  1  0  0  0  0
  3 26  1  0  0  0  0
  4  5  1  0  0  0  0
  4 17  1  0  0  0  0
  4 42  1  0  0  0  0
  5  6  1  0  0  0  0
  5  7  1  0  0  0  0
  5 27  1  0  0  0  0
  6 28  1  0  0  0  0
  6 29  1  0  0  0  0
  6 30  1  0  0  0  0
  7  8  1  0  0  0  0
  7 31  1  0  0  0  0
  7 32  1  0  0  0  0
  8  9  1  0  0  0  0
  8 33  1  0  0  0  0
  9 10  2  0  0  0  0
  9 11  1  0  0  0  0
 11 12  1  0  0  0  0
 12 16  1  0  0  0  0
 12 13  2  0  0  0  0
 13 14  1  0  0  0  0
 14 15  2  0  0  0  0
 14 34  1  0  0  0  0
 15 16  1  0  0  0  0
 15 35  1  0  0  0  0
 17 18  1  0  0  0  0
 17 36  1  0  0  0  0
 17 37  1  0  0  0  0
 18 19  1  0  0  0  0
 18 20  1  0  0  0  0
 18 38  1  0  0  0  0
 19 39  1  0  0  0  0
 19 40  1  0  0  0  0
 19 41  1  0  0  0  0
M  CHG  1   4   1
M  CHG  1  11  -1
M  END
> <s_m_source_file>
AV-unprocessed.smi

> <i_m_source_file_index>
2032

> <i_lp_mmshare_version>
43012

> <i_f3d_flags>
0

> <s_epik_input>
W0NIM11bQ0BASF0xW0NIMl1OKFtDSDJdW0NASF0oTzEpW0NIM10pW0NASF0oW0NIM10pW0NIMl1bTkhdQyg9TylbTkhdYzJuW2NIXVtjSF1zMg==

> <s_epik_cmdline>
J2VwaWtfcHl0aG9uJywgJy1waCcsICc3LjAnLCAnLXRuJywgJzgnLCAnLW1hJywgJzIwMCcsICctbWV0YWxfYmluZGluZycsICctaW1hZScsICc8aW5maWxlLm1hZT4nLCAnLW9tYWUnLCAnPG91dGZpbGUubWFlPic=

> <r_lp_tautomer_probability>
0.999

> <r_epik_Ionization_Penalty>
6.71699

> <r_epik_Ionization_Penalty_Charging>
5.88592

> <r_epik_Ionization_Penalty_Neutral>
0.831074

> <r_epik_State_Penalty>
6.08365

> <r_epik_Charging_Adjusted_Penalty>
11.9696

> <i_epik_Tot_Q>
0

> <i_epik_Tot_abs_Q>
2

> <r_epik_Metal_State_Penalty>
2.0947

> <b_epik_Metal_Only>
1

> <s_lp_Force_Field>
OPLS_2005

> <r_lp_Energy>
10.9101

> <b_lp_Chiralities_Consistent>
1

> <s_lp_Variant>
AV-unprocessed.smi:2032-22

> <Gold.Version>
5.8.1

> <Gold.Id.Protein>
6NUR|6NUR_protein|mol2

> <Gold.PLP.Fitness>
44.5812

> <Gold.PLP.PLP>
-31.7323

> <Gold.PLP.part.hbond>
-3.0000

> <Gold.PLP.part.metal>
0.0000

> <Gold.PLP.part.buried>
-1.1755

> <Gold.PLP.part.nonpolar>
-27.7016

> <Gold.PLP.part.repulsive>
0.4027

> <Gold.PLP.ligand.clash>
0.0000

> <Gold.PLP.ligand.torsion>
1.1109

> <Gold.PLP.Chemscore.Hbond>
4.0000

> <Gold.PLP.Chemscore.CHOScore>
1.0000

> <Gold.PLP.Chemscore.Metal>
0.0000

> <Gold.Chemscore.Hbonds>
donor molecule, donor type, donor heavy atom, donor atom, acceptor molecule, acceptor atom, score
      L1  H     4    42       P1  7948  2.00
      L1  H     8    33       P1  7948  1.00
      P1  H  7989  7998       L1    20  0.62
      L1  C    15    35       P1 10186  0.21

> <Gold.PLP.Chemscore.Internal.Correction>
0.0708

> <Gold.Rescore>
     Score         DG    S(hbond)    S(metal)    S(lipo)     H(rot)  DE(clash)    DE(int)     intcor
     17.44     -19.11       2.78        0.00      71.80       1.58       0.57       1.11       ----

> <Gold.Chemscore.Fitness>
17.4351

> <Gold.Chemscore.DG>
-19.1132

> <Gold.Chemscore.ZeroCoef>
-5.4800

> <Gold.Chemscore.Hbond>
2.7768

> <Gold.Chemscore.Metal>
0.0000

> <Gold.Chemscore.Lipo>
71.8047

> <Gold.Chemscore.Internal_Hbond>
0.0000

> <Gold.Chemscore.DEClash>
0.5706

> <Gold.Chemscore.DEInternal>
1.1075

> <Gold.Chemscore.Rot>
1.5791

> <Gold.Chemscore.Internal.Correction>
   9.000000E+99

> <Gold.Chemscore.Hbonds>
donor molecule, donor type, donor heavy atom, donor atom, acceptor molecule, acceptor atom, score
      L1  H     4    42       P1  7948  1.00
      L1  H     8    33       P1  7948  1.00
      P1  H  7989  7998       L1    20  0.07

> <Gold.Chemscore.Hbond.Weighted>
-9.2745

> <Gold.Chemscore.Metal.Weighted>
-0.0000

> <Gold.Chemscore.Lipo.Weighted>
-8.4012

> <Gold.Chemscore.Internal_Hbond.Weighted>
0.0000

> <Gold.Chemscore.DEClash.Weighted>
0.5706

> <Gold.Chemscore.DEInternal.Weighted>
1.1075

> <Gold.Chemscore.Rot.Weighted>
4.0425

> <Gold.Chemscore.Internal.Correction.Weighted>
   9.000000E+99

> <Gold.Protein.RotatedTorsions>
[ 6907 6896 6895 6894 ] final -121.40 input  -60.11 | X-H torsion
[ 7974 7965 7964 7962 ] final   93.61 input  175.53 | X-H torsion
[ 8008 7997 7996 7995 ] final  -39.94 input   59.86 | X-H torsion
[ 10167 10162 10161 10158 ] final   97.79 input  -65.29 | X-H torsion
[ 10718 10713 10712 10709 ] final -110.14 input   66.30 | X-H torsion
[ 10763 10752 10751 10750 ] final -107.04 input  -60.55 | X-H torsion
[ 11005 11000 10999 10996 ] final   15.73 input  -57.11 | X-H torsion

> <Gold.Protein.ActiveResidues>
 VAL166  LYS551  ARG553  GLY616  TRP617  ASP618  TYR619  PRO620  LYS621  CYS622 
 ASP623  PHE694  ASN695  SER759  ASP760  ASP761  ALA762  ILE779  LEU786  VAL792 
 PHE793  MET794  SER795  GLU796  ALA797  LYS798  CYS799  TRP800  GLU811  SER814 

> <Gold.Protein.RotatedAtoms>
  150.8480  133.7831  159.3035 H   0  0  0  0  0  0  0  0  0  0  0  0  # atno 6907 bound_to 6896
  151.5511  135.1066  159.9959 H   0  0  0  0  0  0  0  0  0  0  0  0  # atno 6908 bound_to 6896
  152.4530  133.7623  159.6809 H   0  0  0  0  0  0  0  0  0  0  0  0  # atno 6909 bound_to 6896
  145.4766  139.2280  143.2906 H   0  0  0  0  0  0  0  0  0  0  0  0  # atno 7974 bound_to 7965
  154.4017  140.1538  156.2945 H   0  0  0  0  0  0  0  0  0  0  0  0  # atno 8008 bound_to 7997
  155.8755  140.3446  155.5829 H   0  0  0  0  0  0  0  0  0  0  0  0  # atno 8009 bound_to 7997
  155.7726  140.0832  157.2091 H   0  0  0  0  0  0  0  0  0  0  0  0  # atno 8010 bound_to 7997
  139.7769  144.6902  151.0077 H   0  0  0  0  0  0  0  0  0  0  0  0  # atno 10167 bound_to 10162
  156.0575  130.5800  150.8196 H   0  0  0  0  0  0  0  0  0  0  0  0  # atno 10718 bound_to 10713
  154.8050  135.4689  154.0370 H   0  0  0  0  0  0  0  0  0  0  0  0  # atno 10763 bound_to 10752
  153.1846  135.6846  153.8439 H   0  0  0  0  0  0  0  0  0  0  0  0  # atno 10764 bound_to 10752
  153.7978  135.3234  155.3364 H   0  0  0  0  0  0  0  0  0  0  0  0  # atno 10765 bound_to 10752
  140.4551  134.1185  155.7708 H   0  0  0  0  0  0  0  0  0  0  0  0  # atno 11005 bound_to 11000
  146.2366  140.5548  142.8952 LP  0  0  0  0  0  0  0  0  0  0  0  0  # atno 17320 bound_to 7965
  144.7914  140.6038  143.6539 LP  0  0  0  0  0  0  0  0  0  0  0  0  # atno 17321 bound_to 7965
  140.7817  143.4526  151.0391 LP  0  0  0  0  0  0  0  0  0  0  0  0  # atno 17342 bound_to 10162
  139.8208  143.7822  152.3176 LP  0  0  0  0  0  0  0  0  0  0  0  0  # atno 17343 bound_to 10162
  157.5556  131.0945  150.9633 LP  0  0  0  0  0  0  0  0  0  0  0  0  # atno 17370 bound_to 10713
  156.9882  130.5553  149.5301 LP  0  0  0  0  0  0  0  0  0  0  0  0  # atno 17371 bound_to 10713
  141.1647  133.8726  157.1749 LP  0  0  0  0  0  0  0  0  0  0  0  0  # atno 17394 bound_to 11000
  139.9982  135.0038  157.0130 LP  0  0  0  0  0  0  0  0  0  0  0  0  # atno 17395 bound_to 11000

$$$$
