AV-unprocessed.smi:2593|AV-procd|sdf|10163|dock2
  -GOLD-   2272014173D 1   1.00000     0.00000
 Structure written by MMmdl.
 40 42  0  0  0  0  0  0  0  0  1 V2000
  155.8368  140.1781  159.9339 C   0  0  0  0  0  0  0  0  0  0  0  0
  154.6415  140.0784  159.1808 O   0  0  0  0  0  0  0  0  0  0  0  0
  153.4796  140.1677  159.9897 C   0  0  0  0  0  0  0  0  0  0  0  0
  152.2289  140.1364  159.1005 C   0  0  0  0  0  0  0  0  0  0  0  0
  151.9149  141.4475  158.5527 N   0  0  0  0  0  0  0  0  0  0  0  0
  151.5476  141.7519  157.2847 C   0  0  0  0  0  0  0  0  0  0  0  0
  151.3778  140.5205  156.0390 S   0  0  0  0  0  0  0  0  0  0  0  0
  149.6907  140.0032  156.4531 C   0  0  0  0  0  0  0  0  0  0  0  0
  148.7505  140.3842  155.3280 C   0  0  0  0  0  0  0  0  0  0  0  0
  148.2028  141.6828  155.2590 C   0  0  0  0  0  0  0  0  0  0  0  0
  147.3294  141.9857  154.1970 C   0  0  0  0  0  0  0  0  0  0  0  0
  147.0379  140.9838  153.2512 C   0  0  0  0  0  0  0  0  0  0  0  0
  147.6348  139.7164  153.4095 C   0  0  0  0  0  0  0  0  0  0  0  0
  147.3683  138.7002  152.4954 N   0  0  0  0  0  0  0  0  0  0  0  0
  148.4743  139.4171  154.4239 N   0  0  0  0  0  0  0  0  0  0  0  0
  151.3207  143.0422  157.0402 N   0  0  0  0  0  0  0  0  0  0  0  0
  151.5534  143.6295  158.2686 C   0  0  0  0  0  0  0  0  0  0  0  0
  151.4757  144.9828  158.6692 C   0  0  0  0  0  0  0  0  0  0  0  0
  151.7601  145.3504  160.0006 C   0  0  0  0  0  0  0  0  0  0  0  0
  152.1238  144.3726  160.9489 C   0  0  0  0  0  0  0  0  0  0  0  0
  152.2086  143.0189  160.5705 C   0  0  0  0  0  0  0  0  0  0  0  0
  151.9257  142.6573  159.2397 C   0  0  0  0  0  0  0  0  0  0  0  0
  156.6964  140.1007  159.2683 H   0  0  0  0  0  0  0  0  0  0  0  0
  155.9072  139.3761  160.6697 H   0  0  0  0  0  0  0  0  0  0  0  0
  155.8972  141.1361  160.4517 H   0  0  0  0  0  0  0  0  0  0  0  0
  153.4514  139.3368  160.6960 H   0  0  0  0  0  0  0  0  0  0  0  0
  153.5003  141.0896  160.5729 H   0  0  0  0  0  0  0  0  0  0  0  0
  152.3770  139.4396  158.2751 H   0  0  0  0  0  0  0  0  0  0  0  0
  151.3698  139.7666  159.6607 H   0  0  0  0  0  0  0  0  0  0  0  0
  149.6652  138.9241  156.6087 H   0  0  0  0  0  0  0  0  0  0  0  0
  149.3821  140.4756  157.3867 H   0  0  0  0  0  0  0  0  0  0  0  0
  148.4443  142.4278  156.0028 H   0  0  0  0  0  0  0  0  0  0  0  0
  146.8895  142.9682  154.1103 H   0  0  0  0  0  0  0  0  0  0  0  0
  146.3713  141.1875  152.4259 H   0  0  0  0  0  0  0  0  0  0  0  0
  146.7508  138.8448  151.7097 H   0  0  0  0  0  0  0  0  0  0  0  0
  147.7644  137.7779  152.6049 H   0  0  0  0  0  0  0  0  0  0  0  0
  151.1959  145.7391  157.9508 H   0  0  0  0  0  0  0  0  0  0  0  0
  151.6974  146.3875  160.2962 H   0  0  0  0  0  0  0  0  0  0  0  0
  152.3374  144.6621  161.9675 H   0  0  0  0  0  0  0  0  0  0  0  0
  152.4842  142.2673  161.2951 H   0  0  0  0  0  0  0  0  0  0  0  0
  1  2  1  0  0  0  0
  1 23  1  0  0  0  0
  1 24  1  0  0  0  0
  1 25  1  0  0  0  0
  2  3  1  0  0  0  0
  3  4  1  0  0  0  0
  3 26  1  0  0  0  0
  3 27  1  0  0  0  0
  4  5  1  0  0  0  0
  4 28  1  0  0  0  0
  4 29  1  0  0  0  0
  5 22  1  0  0  0  0
  5  6  1  0  0  0  0
  6  7  1  0  0  0  0
  6 16  2  0  0  0  0
  7  8  1  0  0  0  0
  8  9  1  0  0  0  0
  8 30  1  0  0  0  0
  8 31  1  0  0  0  0
  9 15  1  0  0  0  0
  9 10  2  0  0  0  0
 10 11  1  0  0  0  0
 10 32  1  0  0  0  0
 11 12  2  0  0  0  0
 11 33  1  0  0  0  0
 12 13  1  0  0  0  0
 12 34  1  0  0  0  0
 13 14  1  0  0  0  0
 13 15  2  0  0  0  0
 14 35  1  0  0  0  0
 14 36  1  0  0  0  0
 16 17  1  0  0  0  0
 17 22  2  0  0  0  0
 17 18  1  0  0  0  0
 18 19  2  0  0  0  0
 18 37  1  0  0  0  0
 19 20  1  0  0  0  0
 19 38  1  0  0  0  0
 20 21  2  0  0  0  0
 20 39  1  0  0  0  0
 21 22  1  0  0  0  0
 21 40  1  0  0  0  0
M  END
> <s_m_source_file>
AV-unprocessed.smi

> <i_m_source_file_index>
2593

> <i_lp_mmshare_version>
43012

> <i_f3d_flags>
0

> <s_epik_input>
W2NIXTFbY0hdW2NIXVtjSF1jKGMxMiluKFtDSDJdW0NIMl1PW0NIM10pYyhuMilTW0NIMl1jM1tjSF1bY0hdW2NIXWMobjMpW05IMl0=

> <s_epik_cmdline>
J2VwaWtfcHl0aG9uJywgJy1waCcsICc3LjAnLCAnLXRuJywgJzgnLCAnLW1hJywgJzIwMCcsICctbWV0YWxfYmluZGluZycsICctaW1hZScsICc8aW5maWxlLm1hZT4nLCAnLW9tYWUnLCAnPG91dGZpbGUubWFlPic=

> <r_lp_tautomer_probability>
1

> <r_epik_Ionization_Penalty>
0.0555631

> <r_epik_Ionization_Penalty_Charging>
0

> <r_epik_Ionization_Penalty_Neutral>
0.0555631

> <r_epik_State_Penalty>
0.0451694

> <r_epik_Charging_Adjusted_Penalty>
0.0451694

> <i_epik_Tot_Q>
0

> <i_epik_Tot_abs_Q>
0

> <r_epik_Metal_State_Penalty>
0.0431775

> <b_epik_Metal_Only>
0

> <s_lp_Force_Field>
OPLS_2005

> <r_lp_Energy>
6.83129

> <b_lp_Chiralities_Consistent>
1

> <s_lp_Variant>
AV-unprocessed.smi:2593-1

> <Gold.Version>
5.8.1

> <Gold.Id.Protein>
6NUR|6NUR_protein|mol2

> <Gold.PLP.Fitness>
51.2914

> <Gold.PLP.PLP>
-47.9585

> <Gold.PLP.part.hbond>
-3.0000

> <Gold.PLP.part.metal>
0.0000

> <Gold.PLP.part.buried>
-3.4252

> <Gold.PLP.part.nonpolar>
-40.4765

> <Gold.PLP.part.repulsive>
0.3170

> <Gold.PLP.ligand.clash>
0.0000

> <Gold.PLP.ligand.torsion>
1.3680

> <Gold.PLP.Chemscore.Hbond>
1.9920

> <Gold.PLP.Chemscore.CHOScore>
0.0000

> <Gold.PLP.Chemscore.Metal>
0.0000

> <Gold.Chemscore.Hbonds>
donor molecule, donor type, donor heavy atom, donor atom, acceptor molecule, acceptor atom, score
      L1  H    14    36       P1  7948  0.86
      P1  H  7997  8009       L1     2  0.99

> <Gold.PLP.Chemscore.Internal.Correction>
0.0929

> <Gold.Rescore>
     Score         DG    S(hbond)    S(metal)    S(lipo)     H(rot)  DE(clash)    DE(int)     intcor
     18.48     -20.47       1.79        0.00     123.61       2.13       0.57       1.42       ----

> <Gold.Chemscore.Fitness>
18.4809

> <Gold.Chemscore.DG>
-20.4666

> <Gold.Chemscore.ZeroCoef>
-5.4800

> <Gold.Chemscore.Hbond>
1.7863

> <Gold.Chemscore.Metal>
0.0000

> <Gold.Chemscore.Lipo>
123.6135

> <Gold.Chemscore.Internal_Hbond>
0.0000

> <Gold.Chemscore.DEClash>
0.5681

> <Gold.Chemscore.DEInternal>
1.4175

> <Gold.Chemscore.Rot>
2.1260

> <Gold.Chemscore.Internal.Correction>
   9.000000E+99

> <Gold.Chemscore.Hbonds>
donor molecule, donor type, donor heavy atom, donor atom, acceptor molecule, acceptor atom, score
      L1  H    14    36       P1  7948  0.80
      P1  H  7997  8009       L1     2  0.57

> <Gold.Chemscore.Hbond.Weighted>
-5.9663

> <Gold.Chemscore.Metal.Weighted>
-0.0000

> <Gold.Chemscore.Lipo.Weighted>
-14.4628

> <Gold.Chemscore.Internal_Hbond.Weighted>
0.0000

> <Gold.Chemscore.DEClash.Weighted>
0.5681

> <Gold.Chemscore.DEInternal.Weighted>
1.4175

> <Gold.Chemscore.Rot.Weighted>
5.4425

> <Gold.Chemscore.Internal.Correction.Weighted>
   9.000000E+99

> <Gold.Protein.RotatedTorsions>
[ 6907 6896 6895 6894 ] final  142.56 input  -60.11 | X-H torsion
[ 7974 7965 7964 7962 ] final   32.10 input  175.53 | X-H torsion
[ 8008 7997 7996 7995 ] final  118.23 input   59.86 | X-H torsion
[ 10167 10162 10161 10158 ] final  166.45 input  -65.29 | X-H torsion
[ 10718 10713 10712 10709 ] final  123.94 input   66.30 | X-H torsion
[ 10763 10752 10751 10750 ] final  -35.12 input  -60.55 | X-H torsion
[ 11005 11000 10999 10996 ] final -117.33 input  -57.11 | X-H torsion

> <Gold.Protein.ActiveResidues>
 VAL166  LYS551  ARG553  GLY616  TRP617  ASP618  TYR619  PRO620  LYS621  CYS622 
 ASP623  PHE694  ASN695  SER759  ASP760  ASP761  ALA762  ILE779  LEU786  VAL792 
 PHE793  MET794  SER795  GLU796  ALA797  LYS798  CYS799  TRP800  GLU811  SER814 

> <Gold.Protein.RotatedAtoms>
  152.2172  133.4956  159.5142 H   0  0  0  0  0  0  0  0  0  0  0  0  # atno 6907 bound_to 6896
  150.7004  134.1389  159.4107 H   0  0  0  0  0  0  0  0  0  0  0  0  # atno 6908 bound_to 6896
  151.9310  135.0256  160.0580 H   0  0  0  0  0  0  0  0  0  0  0  0  # atno 6909 bound_to 6896
  146.1508  139.6570  142.9100 H   0  0  0  0  0  0  0  0  0  0  0  0  # atno 7974 bound_to 7965
  156.2535  140.2879  156.0802 H   0  0  0  0  0  0  0  0  0  0  0  0  # atno 8008 bound_to 7997
  155.1575  140.0399  157.2852 H   0  0  0  0  0  0  0  0  0  0  0  0  # atno 8009 bound_to 7997
  154.6416  140.2523  155.7322 H   0  0  0  0  0  0  0  0  0  0  0  0  # atno 8010 bound_to 7997
  139.4925  144.4026  151.9392 H   0  0  0  0  0  0  0  0  0  0  0  0  # atno 10167 bound_to 10162
  157.5624  131.1088  150.8514 H   0  0  0  0  0  0  0  0  0  0  0  0  # atno 10718 bound_to 10713
  153.8580  135.6842  153.4785 H   0  0  0  0  0  0  0  0  0  0  0  0  # atno 10763 bound_to 10752
  153.1358  135.4678  154.9418 H   0  0  0  0  0  0  0  0  0  0  0  0  # atno 10764 bound_to 10752
  154.7771  135.3257  154.8017 H   0  0  0  0  0  0  0  0  0  0  0  0  # atno 10765 bound_to 10752
  141.0362  133.9906  157.3067 H   0  0  0  0  0  0  0  0  0  0  0  0  # atno 11005 bound_to 11000
  145.4828  141.0438  143.2636 LP  0  0  0  0  0  0  0  0  0  0  0  0  # atno 17320 bound_to 7965
  144.7901  139.6345  143.7117 LP  0  0  0  0  0  0  0  0  0  0  0  0  # atno 17321 bound_to 7965
  140.3465  144.3140  150.5957 LP  0  0  0  0  0  0  0  0  0  0  0  0  # atno 17342 bound_to 10162
  140.5521  143.2205  151.7909 LP  0  0  0  0  0  0  0  0  0  0  0  0  # atno 17343 bound_to 10162
  156.9008  130.5246  149.5283 LP  0  0  0  0  0  0  0  0  0  0  0  0  # atno 17370 bound_to 10713
  156.0676  130.5716  150.9319 LP  0  0  0  0  0  0  0  0  0  0  0  0  # atno 17371 bound_to 10713
  139.9242  135.0201  156.8176 LP  0  0  0  0  0  0  0  0  0  0  0  0  # atno 17394 bound_to 11000
  140.6318  133.9899  155.7665 LP  0  0  0  0  0  0  0  0  0  0  0  0  # atno 17395 bound_to 11000

$$$$
