AV-unprocessed.smi:2159|AV-procd|sdf|8796|dock6
  -GOLD-   2272011573D 1   1.00000     0.00000
 Structure written by MMmdl.
 48 50  0  0  0  0  0  0  0  0  2 V2000
  150.1210  139.6286  154.3266 O   0  0  0  0  0  0  0  0  0  0  0  0
  149.3133  139.7907  155.2421 C   0  0  0  0  0  0  0  0  0  0  0  0
  149.5567  140.8540  156.3169 C   0  0  0  0  0  0  0  0  0  0  0  0
  150.9381  141.5276  156.1933 C   0  0  0  0  0  0  0  0  0  0  0  0
  151.5824  141.6665  157.5016 N   0  0  0  0  0  0  0  0  0  0  0  0
  151.3277  142.6621  158.3719 C   0  0  0  0  0  0  0  0  0  0  0  0
  150.6178  143.6500  158.1868 O   0  0  0  0  0  0  0  0  0  0  0  0
  151.9884  142.3334  159.7027 C   0  0  2  0  0  0  0  0  0  0  0  0
  152.5827  143.4069  160.6156 C   0  0  0  0  0  0  0  0  0  0  0  0
  153.1393  142.6739  161.8654 C   0  0  0  0  0  0  0  0  0  0  0  0
  154.0725  141.4722  161.5321 C   0  0  0  0  0  0  0  0  0  0  0  0
  153.5032  140.5120  160.4542 C   0  0  0  0  0  0  0  0  0  0  0  0
  153.0837  141.3798  159.2668 C   0  0  1  0  0  0  0  0  0  0  0  0
  152.4832  140.7964  157.9968 C   0  0  0  0  0  0  0  0  0  0  0  0
  152.8348  139.7264  157.5013 O   0  0  0  0  0  0  0  0  0  0  0  0
  148.1955  139.0591  155.3696 N   0  0  0  0  0  0  0  0  0  0  0  0
  147.7892  137.9945  154.4595 C   0  0  0  0  0  0  0  0  0  0  0  0
  146.6309  138.4396  153.5503 C   0  0  0  0  0  0  0  0  0  0  0  0
  145.8572  137.2633  152.9881 C   0  0  0  0  0  0  0  0  0  0  0  0
  144.4745  137.0914  153.2165 C   0  0  0  0  0  0  0  0  0  0  0  0
  143.8183  135.9738  152.6594 C   0  0  0  0  0  0  0  0  0  0  0  0
  144.5571  135.0534  151.8869 C   0  0  0  0  0  0  0  0  0  0  0  0
  145.9354  135.2747  151.6897 C   0  0  0  0  0  0  0  0  0  0  0  0
  146.5278  136.3577  152.2393 N   0  3  0  0  0  0  0  0  0  0  0  0
  148.7734  141.6116  156.2602 H   0  0  0  0  0  0  0  0  0  0  0  0
  149.4600  140.3764  157.2926 H   0  0  0  0  0  0  0  0  0  0  0  0
  151.5861  140.9508  155.5304 H   0  0  0  0  0  0  0  0  0  0  0  0
  150.8356  142.5083  155.7250 H   0  0  0  0  0  0  0  0  0  0  0  0
  151.2267  141.7944  160.2710 H   0  0  0  0  0  0  0  0  0  0  0  0
  153.3750  143.9565  160.1053 H   0  0  0  0  0  0  0  0  0  0  0  0
  151.8233  144.1335  160.9064 H   0  0  0  0  0  0  0  0  0  0  0  0
  153.6640  143.3828  162.5065 H   0  0  0  0  0  0  0  0  0  0  0  0
  152.2991  142.3040  162.4547 H   0  0  0  0  0  0  0  0  0  0  0  0
  155.0276  141.8641  161.1796 H   0  0  0  0  0  0  0  0  0  0  0  0
  154.2965  140.9148  162.4421 H   0  0  0  0  0  0  0  0  0  0  0  0
  154.2580  139.7836  160.1559 H   0  0  0  0  0  0  0  0  0  0  0  0
  152.6530  139.9517  160.8458 H   0  0  0  0  0  0  0  0  0  0  0  0
  153.9601  141.9416  158.9349 H   0  0  0  0  0  0  0  0  0  0  0  0
  147.5848  139.2555  156.1496 H   0  0  0  0  0  0  0  0  0  0  0  0
  148.6514  137.7154  153.8532 H   0  0  0  0  0  0  0  0  0  0  0  0
  147.5119  137.1064  155.0305 H   0  0  0  0  0  0  0  0  0  0  0  0
  145.9379  139.0767  154.1017 H   0  0  0  0  0  0  0  0  0  0  0  0
  147.0141  139.0441  152.7271 H   0  0  0  0  0  0  0  0  0  0  0  0
  143.9219  137.8051  153.8103 H   0  0  0  0  0  0  0  0  0  0  0  0
  142.7611  135.8237  152.8228 H   0  0  0  0  0  0  0  0  0  0  0  0
  144.0731  134.1908  151.4524 H   0  0  0  0  0  0  0  0  0  0  0  0
  146.5773  134.6234  151.1143 H   0  0  0  0  0  0  0  0  0  0  0  0
  147.5268  136.4982  152.0845 H   0  0  0  0  0  0  0  0  0  0  0  0
  1  2  2  0  0  0  0
  2  3  1  0  0  0  0
  2 16  1  0  0  0  0
  3  4  1  0  0  0  0
  3 25  1  0  0  0  0
  3 26  1  0  0  0  0
  4  5  1  0  0  0  0
  4 27  1  0  0  0  0
  4 28  1  0  0  0  0
  5 14  1  0  0  0  0
  5  6  1  0  0  0  0
  6  7  2  0  0  0  0
  6  8  1  0  0  0  0
  8 13  1  0  0  0  0
  8  9  1  0  0  0  0
  8 29  1  0  0  0  0
  9 10  1  0  0  0  0
  9 30  1  0  0  0  0
  9 31  1  0  0  0  0
 10 11  1  0  0  0  0
 10 32  1  0  0  0  0
 10 33  1  0  0  0  0
 11 12  1  0  0  0  0
 11 34  1  0  0  0  0
 11 35  1  0  0  0  0
 12 13  1  0  0  0  0
 12 36  1  0  0  0  0
 12 37  1  0  0  0  0
 13 14  1  0  0  0  0
 13 38  1  0  0  0  0
 14 15  2  0  0  0  0
 16 17  1  0  0  0  0
 16 39  1  0  0  0  0
 17 18  1  0  0  0  0
 17 40  1  0  0  0  0
 17 41  1  0  0  0  0
 18 19  1  0  0  0  0
 18 42  1  0  0  0  0
 18 43  1  0  0  0  0
 19 24  1  0  0  0  0
 19 20  2  0  0  0  0
 20 21  1  0  0  0  0
 20 44  1  0  0  0  0
 21 22  2  0  0  0  0
 21 45  1  0  0  0  0
 22 23  1  0  0  0  0
 22 46  1  0  0  0  0
 23 24  2  0  0  0  0
 23 47  1  0  0  0  0
 24 48  1  0  0  0  0
M  CHG  1  24   1
M  END
> <s_m_source_file>
AV-unprocessed.smi

> <i_m_source_file_index>
2159

> <i_lp_mmshare_version>
43012

> <i_f3d_flags>
0

> <s_epik_input>
bjFbY0hdW2NIXVtjSF1bY0hdYzFbQ0gyXVtDSDJdW05IXUMoPU8pW0NIMl1bQ0gyXU4oQzI9TylDKD1PKVtDQEhdKFtDQEBIXTIzKVtDSDJdW0NIMl1bQ0gyXVtDSDJdMw==

> <s_epik_cmdline>
J2VwaWtfcHl0aG9uJywgJy1waCcsICc3LjAnLCAnLXRuJywgJzgnLCAnLW1hJywgJzIwMCcsICctbWV0YWxfYmluZGluZycsICctaW1hZScsICc8aW5maWxlLm1hZT4nLCAnLW9tYWUnLCAnPG91dGZpbGUubWFlPic=

> <r_lp_tautomer_probability>
1

> <r_epik_Ionization_Penalty>
1.85146

> <r_epik_Ionization_Penalty_Charging>
1.85146

> <r_epik_Ionization_Penalty_Neutral>
2.95922e-08

> <r_epik_State_Penalty>
1.96899

> <r_epik_Charging_Adjusted_Penalty>
3.82044

> <i_epik_Tot_Q>
1

> <i_epik_Tot_abs_Q>
1

> <r_epik_Metal_State_Penalty>
1.99467

> <b_epik_Metal_Only>
0

> <s_lp_Force_Field>
OPLS_2005

> <r_lp_Energy>
35.9889

> <b_lp_Chiralities_Consistent>
1

> <s_lp_Variant>
AV-unprocessed.smi:2159-6

> <Gold.Version>
5.8.1

> <Gold.Id.Protein>
6NUR|6NUR_protein|mol2

> <Gold.PLP.Fitness>
53.7388

> <Gold.PLP.PLP>
-43.4191

> <Gold.PLP.part.hbond>
-2.8346

> <Gold.PLP.part.metal>
0.0000

> <Gold.PLP.part.buried>
-4.6165

> <Gold.PLP.part.nonpolar>
-34.2910

> <Gold.PLP.part.repulsive>
0.7232

> <Gold.PLP.ligand.clash>
0.0000

> <Gold.PLP.ligand.torsion>
0.8769

> <Gold.PLP.Chemscore.Hbond>
4.0000

> <Gold.PLP.Chemscore.CHOScore>
0.0000

> <Gold.PLP.Chemscore.Metal>
0.0000

> <Gold.Chemscore.Hbonds>
donor molecule, donor type, donor heavy atom, donor atom, acceptor molecule, acceptor atom, score
      L1  H    24    48       P1  7948  1.59
      P1  H  7989  7998       L1     1  0.78
      P1  H  7997  8008       L1    15  1.00

> <Gold.PLP.Chemscore.Internal.Correction>
0.0736

> <Gold.Rescore>
     Score         DG    S(hbond)    S(metal)    S(lipo)     H(rot)  DE(clash)    DE(int)     intcor
     20.21     -21.50       2.74        0.00     104.42       2.10       0.40       0.89       ----

> <Gold.Chemscore.Fitness>
20.2102

> <Gold.Chemscore.DG>
-21.4994

> <Gold.Chemscore.ZeroCoef>
-5.4800

> <Gold.Chemscore.Hbond>
2.7449

> <Gold.Chemscore.Metal>
0.0000

> <Gold.Chemscore.Lipo>
104.4193

> <Gold.Chemscore.Internal_Hbond>
0.0000

> <Gold.Chemscore.DEClash>
0.3963

> <Gold.Chemscore.DEInternal>
0.8929

> <Gold.Chemscore.Rot>
2.0959

> <Gold.Chemscore.Internal.Correction>
   9.000000E+99

> <Gold.Chemscore.Hbonds>
donor molecule, donor type, donor heavy atom, donor atom, acceptor molecule, acceptor atom, score
      L1  H    24    48       P1  7948  0.78
      P1  H  7989  7998       L1     1  0.76
      P1  H  7997  8008       L1    15  0.50

> <Gold.Chemscore.Hbond.Weighted>
-9.1678

> <Gold.Chemscore.Metal.Weighted>
-0.0000

> <Gold.Chemscore.Lipo.Weighted>
-12.2171

> <Gold.Chemscore.Internal_Hbond.Weighted>
0.0000

> <Gold.Chemscore.DEClash.Weighted>
0.3963

> <Gold.Chemscore.DEInternal.Weighted>
0.8929

> <Gold.Chemscore.Rot.Weighted>
5.3655

> <Gold.Chemscore.Internal.Correction.Weighted>
   9.000000E+99

> <Gold.Protein.RotatedTorsions>
[ 6907 6896 6895 6894 ] final  -14.06 input  -60.11 | X-H torsion
[ 7974 7965 7964 7962 ] final  177.41 input  175.53 | X-H torsion
[ 8008 7997 7996 7995 ] final  -63.42 input   59.86 | X-H torsion
[ 10167 10162 10161 10158 ] final   47.74 input  -65.29 | X-H torsion
[ 10718 10713 10712 10709 ] final -167.83 input   66.30 | X-H torsion
[ 10763 10752 10751 10750 ] final   58.24 input  -60.55 | X-H torsion
[ 11005 11000 10999 10996 ] final -110.19 input  -57.11 | X-H torsion

> <Gold.Protein.ActiveResidues>
 VAL166  LYS551  ARG553  GLY616  TRP617  ASP618  TYR619  PRO620  LYS621  CYS622 
 ASP623  PHE694  ASN695  SER759  ASP760  ASP761  ALA762  ILE779  LEU786  VAL792 
 PHE793  MET794  SER795  GLU796  ALA797  LYS798  CYS799  TRP800  GLU811  SER814 

> <Gold.Protein.RotatedAtoms>
  151.3452  135.0872  159.9384 H   0  0  0  0  0  0  0  0  0  0  0  0  # atno 6907 bound_to 6896
  152.5201  133.9407  159.7635 H   0  0  0  0  0  0  0  0  0  0  0  0  # atno 6908 bound_to 6896
  150.9772  133.6230  159.2758 H   0  0  0  0  0  0  0  0  0  0  0  0  # atno 6909 bound_to 6896
  144.7169  140.0243  143.6439 H   0  0  0  0  0  0  0  0  0  0  0  0  # atno 7974 bound_to 7965
  154.4554  140.0975  156.6740 H   0  0  0  0  0  0  0  0  0  0  0  0  # atno 8008 bound_to 7997
  155.5156  140.3477  155.4378 H   0  0  0  0  0  0  0  0  0  0  0  0  # atno 8009 bound_to 7997
  156.0766  140.1362  156.9753 H   0  0  0  0  0  0  0  0  0  0  0  0  # atno 8010 bound_to 7997
  140.3005  144.2939  150.6220 H   0  0  0  0  0  0  0  0  0  0  0  0  # atno 10167 bound_to 10162
  156.6881  130.9148  151.3065 H   0  0  0  0  0  0  0  0  0  0  0  0  # atno 10718 bound_to 10713
  152.9866  135.5614  154.5520 H   0  0  0  0  0  0  0  0  0  0  0  0  # atno 10763 bound_to 10752
  154.4955  135.2795  155.1465 H   0  0  0  0  0  0  0  0  0  0  0  0  # atno 10764 bound_to 10752
  154.2917  135.6325  153.5441 H   0  0  0  0  0  0  0  0  0  0  0  0  # atno 10765 bound_to 10752
  141.0806  133.9227  157.2297 H   0  0  0  0  0  0  0  0  0  0  0  0  # atno 11005 bound_to 11000
  146.0155  139.3206  143.0844 LP  0  0  0  0  0  0  0  0  0  0  0  0  # atno 17320 bound_to 7965
  145.8631  140.9464  143.0690 LP  0  0  0  0  0  0  0  0  0  0  0  0  # atno 17321 bound_to 7965
  140.5655  143.2187  151.7691 LP  0  0  0  0  0  0  0  0  0  0  0  0  # atno 17342 bound_to 10162
  139.4916  144.4290  151.9893 LP  0  0  0  0  0  0  0  0  0  0  0  0  # atno 17343 bound_to 10162
  157.7019  130.9342  150.0811 LP  0  0  0  0  0  0  0  0  0  0  0  0  # atno 17370 bound_to 10713
  156.1817  130.3650  149.9026 LP  0  0  0  0  0  0  0  0  0  0  0  0  # atno 17371 bound_to 10713
  139.9619  135.0152  156.9285 LP  0  0  0  0  0  0  0  0  0  0  0  0  # atno 17394 bound_to 11000
  140.5477  134.0657  155.7360 LP  0  0  0  0  0  0  0  0  0  0  0  0  # atno 17395 bound_to 11000

$$$$
