AV-unprocessed.smi:3314|AV-procd|sdf|12738|dock3
  -GOLD-   2272019 83D 1   1.00000     0.00000
 Structure written by MMmdl.
 38 39  0  0  0  0  0  0  0  0  2 V2000
  150.9625  145.0735  159.3890 C   0  0  0  0  0  0  0  0  0  0  0  0
  151.6004  143.7105  159.2140 C   0  0  0  0  0  0  0  0  0  0  0  0
  152.5071  143.1879  160.2218 C   0  0  0  0  0  0  0  0  0  0  0  0
  153.0590  141.9751  160.0505 C   0  0  0  0  0  0  0  0  0  0  0  0
  154.0164  141.3510  161.0443 C   0  0  0  0  0  0  0  0  0  0  0  0
  152.7734  141.2145  158.9230 N   0  0  0  0  0  0  0  0  0  0  0  0
  151.9152  141.6530  157.8993 C   0  0  0  0  0  0  0  0  0  0  0  0
  151.6253  140.9881  156.8187 N   0  0  0  0  0  0  0  0  0  0  0  0
  152.1368  139.7207  156.5521 C   0  0  0  0  0  0  0  0  0  0  0  0
  152.8621  139.0111  157.2552 O   0  0  0  0  0  0  0  0  0  0  0  0
  151.6977  139.2125  155.1616 C   0  0  1  0  0  0  0  0  0  0  0  0
  151.1046  137.7826  155.1464 C   0  0  0  0  0  0  0  0  0  0  0  0
  149.7598  137.7503  155.7695 N   0  3  2  0  0  0  0  0  0  0  0  0
  149.1858  136.3888  155.8171 C   0  0  0  0  0  0  0  0  0  0  0  0
  148.8564  138.7284  155.1225 C   0  0  0  0  0  0  0  0  0  0  0  0
  149.4735  140.1353  155.1649 C   0  0  0  0  0  0  0  0  0  0  0  0
  150.7632  140.1116  154.5541 O   0  0  0  0  0  0  0  0  0  0  0  0
  151.3305  142.9678  158.1147 C   0  0  0  0  0  0  0  0  0  0  0  0
  151.2698  145.5362  160.3273 H   0  0  0  0  0  0  0  0  0  0  0  0
  149.8757  144.9860  159.3931 H   0  0  0  0  0  0  0  0  0  0  0  0
  151.2516  145.7353  158.5722 H   0  0  0  0  0  0  0  0  0  0  0  0
  152.7387  143.7699  161.1021 H   0  0  0  0  0  0  0  0  0  0  0  0
  154.9008  141.9783  161.1598 H   0  0  0  0  0  0  0  0  0  0  0  0
  154.3416  140.3610  160.7221 H   0  0  0  0  0  0  0  0  0  0  0  0
  153.5373  141.2519  162.0187 H   0  0  0  0  0  0  0  0  0  0  0  0
  152.5931  139.2118  154.5388 H   0  0  0  0  0  0  0  0  0  0  0  0
  151.0294  137.4324  154.1157 H   0  0  0  0  0  0  0  0  0  0  0  0
  151.7687  137.0854  155.6595 H   0  0  0  0  0  0  0  0  0  0  0  0
  149.0328  135.9914  154.8128 H   0  0  0  0  0  0  0  0  0  0  0  0
  148.2250  136.3945  156.3330 H   0  0  0  0  0  0  0  0  0  0  0  0
  149.8487  135.7115  156.3563 H   0  0  0  0  0  0  0  0  0  0  0  0
  148.6754  138.4314  154.0881 H   0  0  0  0  0  0  0  0  0  0  0  0
  147.8911  138.7323  155.6297 H   0  0  0  0  0  0  0  0  0  0  0  0
  148.8422  140.8360  154.6187 H   0  0  0  0  0  0  0  0  0  0  0  0
  149.5305  140.5044  156.1894 H   0  0  0  0  0  0  0  0  0  0  0  0
  150.6527  143.3894  157.3860 H   0  0  0  0  0  0  0  0  0  0  0  0
  153.2317  140.3163  158.8683 H   0  0  0  0  0  0  0  0  0  0  0  0
  149.8756  138.0496  156.7275 H   0  0  0  0  0  0  0  0  0  0  0  0
  1  2  1  0  0  0  0
  1 19  1  0  0  0  0
  1 20  1  0  0  0  0
  1 21  1  0  0  0  0
  2 18  2  0  0  0  0
  2  3  1  0  0  0  0
  3  4  2  0  0  0  0
  3 22  1  0  0  0  0
  4  5  1  0  0  0  0
  4  6  1  0  0  0  0
  5 23  1  0  0  0  0
  5 24  1  0  0  0  0
  5 25  1  0  0  0  0
  6  7  1  0  0  0  0
  6 37  1  0  0  0  0
  7  8  2  0  0  0  0
  7 18  1  0  0  0  0
  8  9  1  0  0  0  0
  9 10  2  0  0  0  0
  9 11  1  0  0  0  0
 11 17  1  0  0  0  0
 11 12  1  0  0  0  0
 11 26  1  0  0  0  0
 12 13  1  0  0  0  0
 12 27  1  0  0  0  0
 12 28  1  0  0  0  0
 13 14  1  0  0  0  0
 13 15  1  0  0  0  0
 13 38  1  0  0  0  0
 14 29  1  0  0  0  0
 14 30  1  0  0  0  0
 14 31  1  0  0  0  0
 15 16  1  0  0  0  0
 15 32  1  0  0  0  0
 15 33  1  0  0  0  0
 16 17  1  0  0  0  0
 16 34  1  0  0  0  0
 16 35  1  0  0  0  0
 18 36  1  0  0  0  0
M  CHG  1  13   1
M  END
> <s_m_source_file>
AV-unprocessed.smi

> <i_m_source_file_index>
3314

> <i_lp_mmshare_version>
43012

> <i_f3d_flags>
0

> <s_epik_input>
W0NIM11jMVtjSF1jKFtDSDNdKW5jKFtjSF0xKVtOSF1DKD1PKVtDQEBIXTJbQ0gyXU4oW0NIM10pW0NIMl1bQ0gyXU8y

> <s_epik_cmdline>
J2VwaWtfcHl0aG9uJywgJy1waCcsICc3LjAnLCAnLXRuJywgJzgnLCAnLW1hJywgJzIwMCcsICctbWV0YWxfYmluZGluZycsICctaW1hZScsICc8aW5maWxlLm1hZT4nLCAnLW9tYWUnLCAnPG91dGZpbGUubWFlPic=

> <r_epik_Ionization_Penalty>
0.519783

> <r_epik_Ionization_Penalty_Charging>
0.519783

> <r_epik_Ionization_Penalty_Neutral>
1.74183e-13

> <r_epik_State_Penalty>
2.39351

> <r_epik_Charging_Adjusted_Penalty>
2.91329

> <i_epik_Tot_Q>
1

> <i_epik_Tot_abs_Q>
1

> <r_epik_Metal_State_Penalty>
2.41924

> <b_epik_Metal_Only>
0

> <s_lp_Force_Field>
OPLS_2005

> <r_lp_Energy>
32.167

> <b_lp_Chiralities_Consistent>
1

> <s_lp_Variant>
AV-unprocessed.smi:3314-8

> <Gold.Version>
5.8.1

> <Gold.Id.Protein>
6NUR|6NUR_protein|mol2

> <Gold.PLP.Fitness>
40.6956

> <Gold.PLP.PLP>
-34.9707

> <Gold.PLP.part.hbond>
-1.9371

> <Gold.PLP.part.metal>
0.0000

> <Gold.PLP.part.buried>
-4.0638

> <Gold.PLP.part.nonpolar>
-29.1850

> <Gold.PLP.part.repulsive>
0.2031

> <Gold.PLP.ligand.clash>
0.0000

> <Gold.PLP.ligand.torsion>
0.1348

> <Gold.PLP.Chemscore.Hbond>
1.9913

> <Gold.PLP.Chemscore.CHOScore>
0.0000

> <Gold.PLP.Chemscore.Metal>
0.0000

> <Gold.Chemscore.Hbonds>
donor molecule, donor type, donor heavy atom, donor atom, acceptor molecule, acceptor atom, score
      P1  H  7989  7998       L1    17  1.00
      P1  H  7997  8009       L1    10  0.90

> <Gold.PLP.Chemscore.Internal.Correction>
0.0208

> <Gold.Rescore>
     Score         DG    S(hbond)    S(metal)    S(lipo)     H(rot)  DE(clash)    DE(int)     intcor
     14.03     -16.91       0.98        0.00      91.62       1.00       0.02       2.86       ----

> <Gold.Chemscore.Fitness>
14.0276

> <Gold.Chemscore.DG>
-16.9131

> <Gold.Chemscore.ZeroCoef>
-5.4800

> <Gold.Chemscore.Hbond>
0.9801

> <Gold.Chemscore.Metal>
0.0000

> <Gold.Chemscore.Lipo>
91.6197

> <Gold.Chemscore.Internal_Hbond>
0.0000

> <Gold.Chemscore.DEClash>
0.0215

> <Gold.Chemscore.DEInternal>
2.8640

> <Gold.Chemscore.Rot>
1.0000

> <Gold.Chemscore.Internal.Correction>
   9.000000E+99

> <Gold.Chemscore.Hbonds>
donor molecule, donor type, donor heavy atom, donor atom, acceptor molecule, acceptor atom, score
      P1  H  7989  7998       L1    17  0.38
      P1  H  7997  8009       L1    10  0.17

> <Gold.Chemscore.Hbond.Weighted>
-3.2735

> <Gold.Chemscore.Metal.Weighted>
-0.0000

> <Gold.Chemscore.Lipo.Weighted>
-10.7195

> <Gold.Chemscore.Internal_Hbond.Weighted>
0.0000

> <Gold.Chemscore.DEClash.Weighted>
0.0215

> <Gold.Chemscore.DEInternal.Weighted>
2.8640

> <Gold.Chemscore.Rot.Weighted>
2.5600

> <Gold.Chemscore.Internal.Correction.Weighted>
   9.000000E+99

> <Gold.Protein.RotatedTorsions>
[ 6907 6896 6895 6894 ] final -168.78 input  -60.11 | X-H torsion
[ 7974 7965 7964 7962 ] final -162.44 input  175.53 | X-H torsion
[ 8008 7997 7996 7995 ] final  155.90 input   59.86 | X-H torsion
[ 10167 10162 10161 10158 ] final  -61.87 input  -65.29 | X-H torsion
[ 10718 10713 10712 10709 ] final  126.60 input   66.30 | X-H torsion
[ 10763 10752 10751 10750 ] final -168.29 input  -60.55 | X-H torsion
[ 11005 11000 10999 10996 ] final   -7.37 input  -57.11 | X-H torsion

> <Gold.Protein.ActiveResidues>
 VAL166  LYS551  ARG553  GLY616  TRP617  ASP618  TYR619  PRO620  LYS621  CYS622 
 ASP623  PHE694  ASN695  SER759  ASP760  ASP761  ALA762  ILE779  LEU786  VAL792 
 PHE793  MET794  SER795  GLU796  ALA797  LYS798  CYS799  TRP800  GLU811  SER814 

> <Gold.Protein.RotatedAtoms>
  151.4810  133.3546  159.2838 H   0  0  0  0  0  0  0  0  0  0  0  0  # atno 6907 bound_to 6896
  150.8897  134.8301  159.7295 H   0  0  0  0  0  0  0  0  0  0  0  0  # atno 6908 bound_to 6896
  152.4815  134.4718  159.9690 H   0  0  0  0  0  0  0  0  0  0  0  0  # atno 6909 bound_to 6896
  144.7357  140.3252  143.6163 H   0  0  0  0  0  0  0  0  0  0  0  0  # atno 7974 bound_to 7965
  156.2452  140.1927  156.6873 H   0  0  0  0  0  0  0  0  0  0  0  0  # atno 8008 bound_to 7997
  154.6277  140.0600  156.9720 H   0  0  0  0  0  0  0  0  0  0  0  0  # atno 8009 bound_to 7997
  155.1759  140.3272  155.4386 H   0  0  0  0  0  0  0  0  0  0  0  0  # atno 8010 bound_to 7997
  140.5977  143.2354  151.5999 H   0  0  0  0  0  0  0  0  0  0  0  0  # atno 10167 bound_to 10162
  157.5405  131.1097  150.8866 H   0  0  0  0  0  0  0  0  0  0  0  0  # atno 10718 bound_to 10713
  154.6644  135.2929  154.9825 H   0  0  0  0  0  0  0  0  0  0  0  0  # atno 10763 bound_to 10752
  154.0873  135.6596  153.4851 H   0  0  0  0  0  0  0  0  0  0  0  0  # atno 10764 bound_to 10752
  153.0448  135.5211  154.7610 H   0  0  0  0  0  0  0  0  0  0  0  0  # atno 10765 bound_to 10752
  140.7121  133.8900  155.8758 H   0  0  0  0  0  0  0  0  0  0  0  0  # atno 11005 bound_to 11000
  145.7528  139.1799  143.2311 LP  0  0  0  0  0  0  0  0  0  0  0  0  # atno 17320 bound_to 7965
  146.1047  140.7501  142.9532 LP  0  0  0  0  0  0  0  0  0  0  0  0  # atno 17321 bound_to 7965
  139.5269  144.3031  152.1056 LP  0  0  0  0  0  0  0  0  0  0  0  0  # atno 17342 bound_to 10162
  140.2207  144.4469  150.6343 LP  0  0  0  0  0  0  0  0  0  0  0  0  # atno 17343 bound_to 10162
  156.9420  130.5388  149.5280 LP  0  0  0  0  0  0  0  0  0  0  0  0  # atno 17370 bound_to 10713
  156.0493  130.5565  150.8953 LP  0  0  0  0  0  0  0  0  0  0  0  0  # atno 17371 bound_to 10713
  141.0076  134.1065  157.4255 LP  0  0  0  0  0  0  0  0  0  0  0  0  # atno 17394 bound_to 11000
  139.8869  135.0085  156.6527 LP  0  0  0  0  0  0  0  0  0  0  0  0  # atno 17395 bound_to 11000

$$$$
