AV-unprocessed.smi:1005|AV-procd|sdf|4386|dock4
  -GOLD-   22720 2313D 1   1.00000     0.00000
 Structure written by MMmdl.
 55 57  0  0  0  0  0  0  0  0  1 V2000
  152.8732  143.1546  161.0385 C   0  0  0  0  0  0  0  0  0  0  0  0
  152.2594  142.7218  159.7186 C   0  0  0  0  0  0  0  0  0  0  0  0
  152.2332  141.3475  159.3906 C   0  0  0  0  0  0  0  0  0  0  0  0
  151.6728  140.9039  158.1728 C   0  0  0  0  0  0  0  0  0  0  0  0
  151.5416  139.6260  157.6568 N   0  0  0  0  0  0  0  0  0  0  0  0
  150.9406  139.8668  156.4954 C   0  0  0  0  0  0  0  0  0  0  0  0
  150.6738  141.1523  156.1931 N   0  0  0  0  0  0  0  0  0  0  0  0
  150.0305  141.6563  154.9925 C   0  0  0  0  0  0  0  0  0  0  0  0
  148.7667  140.8584  154.6123 C   0  0  2  0  0  0  0  0  0  0  0  0
  149.1953  139.7200  153.8927 O   0  0  0  0  0  0  0  0  0  0  0  0
  147.7626  141.6548  153.7464 C   0  0  0  0  0  0  0  0  0  0  0  0
  146.5187  142.0228  154.4213 N   0  0  0  0  0  0  0  0  0  0  0  0
  146.7433  142.2558  155.8434 C   0  0  0  0  0  0  0  0  0  0  0  0
  145.4451  142.6330  156.5760 C   0  0  0  0  0  0  0  0  0  0  0  0
  144.8702  143.7857  155.9692 O   0  0  0  0  0  0  0  0  0  0  0  0
  144.6043  143.6119  154.5793 C   0  0  1  0  0  0  0  0  0  0  0  0
  143.9274  144.8685  153.9914 C   0  0  0  0  0  0  0  0  0  0  0  0
  142.7296  145.3621  154.6784 N   0  0  0  0  0  0  0  0  0  0  0  0
  142.0216  146.3871  153.9208 C   0  0  0  0  0  0  0  0  0  0  0  0
  143.0717  145.8659  156.0012 C   0  0  0  0  0  0  0  0  0  0  0  0
  145.8969  143.2091  153.8382 C   0  0  0  0  0  0  0  0  0  0  0  0
  151.1360  141.8807  157.2840 C   0  0  0  0  0  0  0  0  0  0  0  0
  151.1535  143.2506  157.6004 C   0  0  0  0  0  0  0  0  0  0  0  0
  151.7177  143.6768  158.8210 C   0  0  0  0  0  0  0  0  0  0  0  0
  151.7352  145.1587  159.1518 C   0  0  0  0  0  0  0  0  0  0  0  0
  153.2281  142.2981  161.6124 H   0  0  0  0  0  0  0  0  0  0  0  0
  152.1387  143.6828  161.6468 H   0  0  0  0  0  0  0  0  0  0  0  0
  153.7218  143.8169  160.8659 H   0  0  0  0  0  0  0  0  0  0  0  0
  152.6449  140.6196  160.0743 H   0  0  0  0  0  0  0  0  0  0  0  0
  150.6851  139.0622  155.8214 H   0  0  0  0  0  0  0  0  0  0  0  0
  149.7857  142.7091  155.1422 H   0  0  0  0  0  0  0  0  0  0  0  0
  150.7593  141.6168  154.1815 H   0  0  0  0  0  0  0  0  0  0  0  0
  148.2800  140.5190  155.5275 H   0  0  0  0  0  0  0  0  0  0  0  0
  149.2388  139.9427  152.9754 H   0  0  0  0  0  0  0  0  0  0  0  0
  148.2439  142.5800  153.4320 H   0  0  0  0  0  0  0  0  0  0  0  0
  147.5498  141.1197  152.8194 H   0  0  0  0  0  0  0  0  0  0  0  0
  147.1665  141.3618  156.3029 H   0  0  0  0  0  0  0  0  0  0  0  0
  147.4771  143.0522  155.9768 H   0  0  0  0  0  0  0  0  0  0  0  0
  144.7334  141.8065  156.5506 H   0  0  0  0  0  0  0  0  0  0  0  0
  145.6497  142.8470  157.6251 H   0  0  0  0  0  0  0  0  0  0  0  0
  143.8884  142.7926  154.4903 H   0  0  0  0  0  0  0  0  0  0  0  0
  144.6768  145.6613  154.0029 H   0  0  0  0  0  0  0  0  0  0  0  0
  143.7027  144.6953  152.9380 H   0  0  0  0  0  0  0  0  0  0  0  0
  141.1778  146.7750  154.4921 H   0  0  0  0  0  0  0  0  0  0  0  0
  141.6147  145.9847  152.9943 H   0  0  0  0  0  0  0  0  0  0  0  0
  142.6783  147.2230  153.6773 H   0  0  0  0  0  0  0  0  0  0  0  0
  142.1783  146.1884  156.5367 H   0  0  0  0  0  0  0  0  0  0  0  0
  143.7535  146.7147  155.9350 H   0  0  0  0  0  0  0  0  0  0  0  0
  143.5509  145.0907  156.5998 H   0  0  0  0  0  0  0  0  0  0  0  0
  146.6060  144.0379  153.8580 H   0  0  0  0  0  0  0  0  0  0  0  0
  145.6566  143.0295  152.7905 H   0  0  0  0  0  0  0  0  0  0  0  0
  150.7376  143.9674  156.9077 H   0  0  0  0  0  0  0  0  0  0  0  0
  151.2619  145.7475  158.3653 H   0  0  0  0  0  0  0  0  0  0  0  0
  152.7603  145.5124  159.2640 H   0  0  0  0  0  0  0  0  0  0  0  0
  151.1981  145.3500  160.0811 H   0  0  0  0  0  0  0  0  0  0  0  0
  1  2  1  0  0  0  0
  1 26  1  0  0  0  0
  1 27  1  0  0  0  0
  1 28  1  0  0  0  0
  2 24  1  0  0  0  0
  2  3  2  0  0  0  0
  3  4  1  0  0  0  0
  3 29  1  0  0  0  0
  4 22  2  0  0  0  0
  4  5  1  0  0  0  0
  5  6  2  0  0  0  0
  6  7  1  0  0  0  0
  6 30  1  0  0  0  0
  7  8  1  0  0  0  0
  7 22  1  0  0  0  0
  8  9  1  0  0  0  0
  8 31  1  0  0  0  0
  8 32  1  0  0  0  0
  9 10  1  0  0  0  0
  9 11  1  0  0  0  0
  9 33  1  0  0  0  0
 10 34  1  0  0  0  0
 11 12  1  0  0  0  0
 11 35  1  0  0  0  0
 11 36  1  0  0  0  0
 12 21  1  0  0  0  0
 12 13  1  0  0  0  0
 13 14  1  0  0  0  0
 13 37  1  0  0  0  0
 13 38  1  0  0  0  0
 14 15  1  0  0  0  0
 14 39  1  0  0  0  0
 14 40  1  0  0  0  0
 15 16  1  0  0  0  0
 16 17  1  0  0  0  0
 16 21  1  0  0  0  0
 16 41  1  0  0  0  0
 17 18  1  0  0  0  0
 17 42  1  0  0  0  0
 17 43  1  0  0  0  0
 18 19  1  0  0  0  0
 18 20  1  0  0  0  0
 19 44  1  0  0  0  0
 19 45  1  0  0  0  0
 19 46  1  0  0  0  0
 20 47  1  0  0  0  0
 20 48  1  0  0  0  0
 20 49  1  0  0  0  0
 21 50  1  0  0  0  0
 21 51  1  0  0  0  0
 22 23  1  0  0  0  0
 23 24  2  0  0  0  0
 23 52  1  0  0  0  0
 24 25  1  0  0  0  0
 25 53  1  0  0  0  0
 25 54  1  0  0  0  0
 25 55  1  0  0  0  0
M  END
> <s_m_source_file>
AV-unprocessed.smi

> <i_m_source_file_index>
1005

> <i_lp_mmshare_version>
43012

> <i_f3d_flags>
0

> <s_epik_input>
W0NIM11jKFtjSF0xKWMoW0NIM10pW2NIXWMoYzEyKW4oW2NIXW4yKVtDSDJdW0NASF0oW09IXSlbQ0gyXU4zW0NIMl1bQ0gyXU9bQ0BIXShbQ0gyXTMpW0NIMl1OKFtDSDNdKVtDSDNd

> <s_epik_cmdline>
J2VwaWtfcHl0aG9uJywgJy1waCcsICc3LjAnLCAnLXRuJywgJzgnLCAnLW1hJywgJzIwMCcsICctbWV0YWxfYmluZGluZycsICctaW1hZScsICc8aW5maWxlLm1hZT4nLCAnLW9tYWUnLCAnPG91dGZpbGUubWFlPic=

> <r_epik_Ionization_Penalty>
2.78613

> <r_epik_Ionization_Penalty_Charging>
0

> <r_epik_Ionization_Penalty_Neutral>
2.78613

> <r_epik_State_Penalty>
2.57336

> <r_epik_Charging_Adjusted_Penalty>
2.57336

> <i_epik_Tot_Q>
0

> <i_epik_Tot_abs_Q>
0

> <r_epik_Metal_State_Penalty>
2.49087

> <b_epik_Metal_Only>
0

> <s_lp_Force_Field>
OPLS_2005

> <r_lp_Energy>
41.5619

> <b_lp_Chiralities_Consistent>
1

> <s_lp_Variant>
AV-unprocessed.smi:1005-25

> <Gold.Version>
5.8.1

> <Gold.Id.Protein>
6NUR|6NUR_protein|mol2

> <Gold.PLP.Fitness>
51.5095

> <Gold.PLP.PLP>
-51.1411

> <Gold.PLP.part.hbond>
-1.0000

> <Gold.PLP.part.metal>
0.0000

> <Gold.PLP.part.buried>
-6.9594

> <Gold.PLP.part.nonpolar>
-43.1903

> <Gold.PLP.part.repulsive>
0.3209

> <Gold.PLP.ligand.clash>
0.0000

> <Gold.PLP.ligand.torsion>
1.4683

> <Gold.PLP.Chemscore.Hbond>
1.0000

> <Gold.PLP.Chemscore.CHOScore>
0.0000

> <Gold.PLP.Chemscore.Metal>
0.0000

> <Gold.Chemscore.Hbonds>
donor molecule, donor type, donor heavy atom, donor atom, acceptor molecule, acceptor atom, score
      L1  H    10    34       P1  7957  1.00

> <Gold.PLP.Chemscore.Internal.Correction>
0.3048

> <Gold.Rescore>
     Score         DG    S(hbond)    S(metal)    S(lipo)     H(rot)  DE(clash)    DE(int)     intcor
     16.02     -19.07       0.99        0.00     138.00       2.29       0.32       2.73       ----

> <Gold.Chemscore.Fitness>
16.0176

> <Gold.Chemscore.DG>
-19.0730

> <Gold.Chemscore.ZeroCoef>
-5.4800

> <Gold.Chemscore.Hbond>
0.9903

> <Gold.Chemscore.Metal>
0.0000

> <Gold.Chemscore.Lipo>
138.0036

> <Gold.Chemscore.Internal_Hbond>
0.0000

> <Gold.Chemscore.DEClash>
0.3209

> <Gold.Chemscore.DEInternal>
2.7345

> <Gold.Chemscore.Rot>
2.2895

> <Gold.Chemscore.Internal.Correction>
   9.000000E+99

> <Gold.Chemscore.Hbonds>
donor molecule, donor type, donor heavy atom, donor atom, acceptor molecule, acceptor atom, score
      L1  H    10    34       P1  7957  1.00

> <Gold.Chemscore.Hbond.Weighted>
-3.3077

> <Gold.Chemscore.Metal.Weighted>
-0.0000

> <Gold.Chemscore.Lipo.Weighted>
-16.1464

> <Gold.Chemscore.Internal_Hbond.Weighted>
0.0000

> <Gold.Chemscore.DEClash.Weighted>
0.3209

> <Gold.Chemscore.DEInternal.Weighted>
2.7345

> <Gold.Chemscore.Rot.Weighted>
5.8612

> <Gold.Chemscore.Internal.Correction.Weighted>
   9.000000E+99

> <Gold.Protein.RotatedTorsions>
[ 6907 6896 6895 6894 ] final -102.80 input  -60.11 | X-H torsion
[ 7974 7965 7964 7962 ] final  -91.84 input  175.53 | X-H torsion
[ 8008 7997 7996 7995 ] final  -85.62 input   59.86 | X-H torsion
[ 10167 10162 10161 10158 ] final  -29.14 input  -65.29 | X-H torsion
[ 10718 10713 10712 10709 ] final  105.53 input   66.30 | X-H torsion
[ 10763 10752 10751 10750 ] final    3.68 input  -60.55 | X-H torsion
[ 11005 11000 10999 10996 ] final -151.16 input  -57.11 | X-H torsion

> <Gold.Protein.ActiveResidues>
 VAL166  LYS551  ARG553  GLY616  TRP617  ASP618  TYR619  PRO620  LYS621  CYS622 
 ASP623  PHE694  ASN695  SER759  ASP760  ASP761  ALA762  ILE779  LEU786  VAL792 
 PHE793  MET794  SER795  GLU796  ALA797  LYS798  CYS799  TRP800  GLU811  SER814 

> <Gold.Protein.RotatedAtoms>
  150.7212  134.0526  159.3803 H   0  0  0  0  0  0  0  0  0  0  0  0  # atno 6907 bound_to 6896
  151.8503  135.0558  160.0467 H   0  0  0  0  0  0  0  0  0  0  0  0  # atno 6908 bound_to 6896
  152.2795  133.5421  159.5525 H   0  0  0  0  0  0  0  0  0  0  0  0  # atno 6909 bound_to 6896
  145.4078  140.9542  143.2251 H   0  0  0  0  0  0  0  0  0  0  0  0  # atno 7974 bound_to 7965
  154.6428  140.0589  156.9865 H   0  0  0  0  0  0  0  0  0  0  0  0  # atno 8008 bound_to 7997
  155.1491  140.3272  155.4416 H   0  0  0  0  0  0  0  0  0  0  0  0  # atno 8009 bound_to 7997
  156.2539  140.1950  156.6603 H   0  0  0  0  0  0  0  0  0  0  0  0  # atno 8010 bound_to 7997
  140.7263  143.3953  151.1359 H   0  0  0  0  0  0  0  0  0  0  0  0  # atno 10167 bound_to 10162
  157.6702  131.0830  150.5870 H   0  0  0  0  0  0  0  0  0  0  0  0  # atno 10718 bound_to 10713
  153.2804  135.6940  153.7391 H   0  0  0  0  0  0  0  0  0  0  0  0  # atno 10763 bound_to 10752
  153.6381  135.3398  155.3063 H   0  0  0  0  0  0  0  0  0  0  0  0  # atno 10764 bound_to 10752
  154.8493  135.4425  154.1855 H   0  0  0  0  0  0  0  0  0  0  0  0  # atno 10765 bound_to 10752
  140.7325  134.3604  157.5164 H   0  0  0  0  0  0  0  0  0  0  0  0  # atno 11005 bound_to 11000
  144.8329  139.5598  143.6935 LP  0  0  0  0  0  0  0  0  0  0  0  0  # atno 17320 bound_to 7965
  146.2720  139.6658  142.9289 LP  0  0  0  0  0  0  0  0  0  0  0  0  # atno 17321 bound_to 7965
  139.7564  143.8701  152.3090 LP  0  0  0  0  0  0  0  0  0  0  0  0  # atno 17342 bound_to 10162
  139.8572  144.7135  150.9143 LP  0  0  0  0  0  0  0  0  0  0  0  0  # atno 17343 bound_to 10162
  156.6170  130.4395  149.5837 LP  0  0  0  0  0  0  0  0  0  0  0  0  # atno 17370 bound_to 10713
  156.2385  130.6837  151.1533 LP  0  0  0  0  0  0  0  0  0  0  0  0  # atno 17371 bound_to 10713
  139.8823  134.9028  156.2841 LP  0  0  0  0  0  0  0  0  0  0  0  0  # atno 17394 bound_to 11000
  140.9908  133.7210  156.0811 LP  0  0  0  0  0  0  0  0  0  0  0  0  # atno 17395 bound_to 11000

$$$$
