AV-unprocessed.smi:1257|AV-procd|sdf|5285|dock5
  -GOLD-   22720 4403D 1   1.00000     0.00000
 Structure written by MMmdl.
 47 48  0  0  0  0  0  0  0  0  1 V2000
  151.0618  130.3156  155.0784 C   0  0  0  0  0  0  0  0  0  0  0  0
  150.2296  131.1495  156.0617 C   0  0  0  0  0  0  0  0  0  0  0  0
  149.8130  132.4170  155.4733 N   0  0  0  0  0  0  0  0  0  0  0  0
  149.9183  133.6146  156.0686 C   0  0  0  0  0  0  0  0  0  0  0  0
  150.3748  133.7662  157.2029 O   0  0  0  0  0  0  0  0  0  0  0  0
  149.4063  134.8141  155.2617 C   0  0  0  0  0  0  0  0  0  0  0  0
  149.8099  136.0952  155.8354 N   0  0  0  0  0  0  0  0  0  0  0  0
  150.8479  136.8380  155.4160 C   0  0  0  0  0  0  0  0  0  0  0  0
  151.5795  136.5153  154.4795 O   0  0  0  0  0  0  0  0  0  0  0  0
  151.1229  138.0794  156.2146 C   0  0  0  0  0  0  0  0  0  0  0  0
  150.2970  138.4296  157.3046 C   0  0  0  0  0  0  0  0  0  0  0  0
  150.5936  139.5907  158.0438 C   0  0  0  0  0  0  0  0  0  0  0  0
  151.7116  140.3649  157.6718 C   0  0  0  0  0  0  0  0  0  0  0  0
  152.0084  141.5240  158.4019 N   0  0  0  0  0  0  0  0  0  0  0  0
  151.0367  142.5917  158.2050 C   0  0  0  0  0  0  0  0  0  0  0  0
  151.4901  143.8817  158.9174 C   0  0  2  0  0  0  0  0  0  0  0  0
  152.6375  144.6113  158.1963 C   0  0  0  0  0  0  0  0  0  0  0  0
  151.8038  143.6048  160.2855 O   0  0  0  0  0  0  0  0  0  0  0  0
  152.7722  142.5738  160.4835 C   0  0  1  0  0  0  0  0  0  0  0  0
  152.9752  142.3931  161.9912 C   0  0  0  0  0  0  0  0  0  0  0  0
  152.2834  141.2788  159.8108 C   0  0  0  0  0  0  0  0  0  0  0  0
  152.5183  140.0302  156.6370 N   0  0  0  0  0  0  0  0  0  0  0  0
  152.2297  138.9139  155.9347 C   0  0  0  0  0  0  0  0  0  0  0  0
  151.3939  129.3876  155.5438 H   0  0  0  0  0  0  0  0  0  0  0  0
  151.9488  130.8594  154.7522 H   0  0  0  0  0  0  0  0  0  0  0  0
  150.4841  130.0521  154.1919 H   0  0  0  0  0  0  0  0  0  0  0  0
  149.3589  130.5837  156.3974 H   0  0  0  0  0  0  0  0  0  0  0  0
  150.8208  131.3655  156.9518 H   0  0  0  0  0  0  0  0  0  0  0  0
  149.4213  132.3816  154.5432 H   0  0  0  0  0  0  0  0  0  0  0  0
  149.7432  134.7422  154.2257 H   0  0  0  0  0  0  0  0  0  0  0  0
  148.3171  134.7765  155.2403 H   0  0  0  0  0  0  0  0  0  0  0  0
  149.2831  136.4219  156.6323 H   0  0  0  0  0  0  0  0  0  0  0  0
  149.4430  137.8249  157.5738 H   0  0  0  0  0  0  0  0  0  0  0  0
  149.9720  139.8806  158.8785 H   0  0  0  0  0  0  0  0  0  0  0  0
  150.8913  142.7761  157.1398 H   0  0  0  0  0  0  0  0  0  0  0  0
  150.0728  142.2755  158.6072 H   0  0  0  0  0  0  0  0  0  0  0  0
  150.6425  144.5671  158.9318 H   0  0  0  0  0  0  0  0  0  0  0  0
  152.3297  144.9219  157.1975 H   0  0  0  0  0  0  0  0  0  0  0  0
  153.5206  143.9834  158.0811 H   0  0  0  0  0  0  0  0  0  0  0  0
  152.9319  145.5073  158.7436 H   0  0  0  0  0  0  0  0  0  0  0  0
  153.7250  142.8763  160.0481 H   0  0  0  0  0  0  0  0  0  0  0  0
  153.7172  141.6213  162.1977 H   0  0  0  0  0  0  0  0  0  0  0  0
  152.0458  142.1043  162.4829 H   0  0  0  0  0  0  0  0  0  0  0  0
  153.3222  143.3187  162.4512 H   0  0  0  0  0  0  0  0  0  0  0  0
  151.3793  140.9205  160.3053 H   0  0  0  0  0  0  0  0  0  0  0  0
  153.0374  140.4964  159.9079 H   0  0  0  0  0  0  0  0  0  0  0  0
  152.9106  138.6873  155.1272 H   0  0  0  0  0  0  0  0  0  0  0  0
  1  2  1  0  0  0  0
  1 24  1  0  0  0  0
  1 25  1  0  0  0  0
  1 26  1  0  0  0  0
  2  3  1  0  0  0  0
  2 27  1  0  0  0  0
  2 28  1  0  0  0  0
  3  4  1  0  0  0  0
  3 29  1  0  0  0  0
  4  5  2  0  0  0  0
  4  6  1  0  0  0  0
  6  7  1  0  0  0  0
  6 30  1  0  0  0  0
  6 31  1  0  0  0  0
  7  8  1  0  0  0  0
  7 32  1  0  0  0  0
  8  9  2  0  0  0  0
  8 10  1  0  0  0  0
 10 23  1  0  0  0  0
 10 11  2  0  0  0  0
 11 12  1  0  0  0  0
 11 33  1  0  0  0  0
 12 13  2  0  0  0  0
 12 34  1  0  0  0  0
 13 14  1  0  0  0  0
 13 22  1  0  0  0  0
 14 21  1  0  0  0  0
 14 15  1  0  0  0  0
 15 16  1  0  0  0  0
 15 35  1  0  0  0  0
 15 36  1  0  0  0  0
 16 17  1  0  0  0  0
 16 18  1  0  0  0  0
 16 37  1  0  0  0  0
 17 38  1  0  0  0  0
 17 39  1  0  0  0  0
 17 40  1  0  0  0  0
 18 19  1  0  0  0  0
 19 20  1  0  0  0  0
 19 21  1  0  0  0  0
 19 41  1  0  0  0  0
 20 42  1  0  0  0  0
 20 43  1  0  0  0  0
 20 44  1  0  0  0  0
 21 45  1  0  0  0  0
 21 46  1  0  0  0  0
 22 23  2  0  0  0  0
 23 47  1  0  0  0  0
M  END
> <s_m_source_file>
AV-unprocessed.smi

> <i_m_source_file_index>
1257

> <i_lp_mmshare_version>
43012

> <i_f3d_flags>
0

> <s_epik_input>
W0NIM11bQ0gyXVtOSF1DKD1PKVtDSDJdW05IXUMoPU8pYzFbY0hdW2NIXWMobltjSF0xKU4yW0NIMl1bQ0BASF0oW0NIM10pT1tDQEBIXShbQ0gzXSlbQ0gyXTI=

> <s_epik_cmdline>
J2VwaWtfcHl0aG9uJywgJy1waCcsICc3LjAnLCAnLXRuJywgJzgnLCAnLW1hJywgJzIwMCcsICctbWV0YWxfYmluZGluZycsICctaW1hZScsICc8aW5maWxlLm1hZT4nLCAnLW9tYWUnLCAnPG91dGZpbGUubWFlPic=

> <r_lp_tautomer_probability>
1

> <r_epik_Ionization_Penalty>
1.15681e-05

> <r_epik_Ionization_Penalty_Charging>
0

> <r_epik_Ionization_Penalty_Neutral>
1.15681e-05

> <r_epik_State_Penalty>
-0

> <r_epik_Charging_Adjusted_Penalty>
0

> <i_epik_Tot_Q>
0

> <i_epik_Tot_abs_Q>
0

> <r_epik_Metal_State_Penalty>
-0

> <b_epik_Metal_Only>
0

> <s_lp_Force_Field>
OPLS_2005

> <r_lp_Energy>
18.6065

> <b_lp_Chiralities_Consistent>
1

> <s_lp_Variant>
AV-unprocessed.smi:1257-2

> <Gold.Version>
5.8.1

> <Gold.Id.Protein>
6NUR|6NUR_protein|mol2

> <Gold.PLP.Fitness>
48.0622

> <Gold.PLP.PLP>
-40.4488

> <Gold.PLP.part.hbond>
-3.0000

> <Gold.PLP.part.metal>
0.0000

> <Gold.PLP.part.buried>
-6.4304

> <Gold.PLP.part.nonpolar>
-32.2948

> <Gold.PLP.part.repulsive>
0.7935

> <Gold.PLP.ligand.clash>
0.0000

> <Gold.PLP.ligand.torsion>
0.4547

> <Gold.PLP.Chemscore.Hbond>
2.8000

> <Gold.PLP.Chemscore.CHOScore>
0.0000

> <Gold.PLP.Chemscore.Metal>
0.0000

> <Gold.Chemscore.Hbonds>
donor molecule, donor type, donor heavy atom, donor atom, acceptor molecule, acceptor atom, score
      P1  H  6896  6907       L1     5  0.72
      P1  H  7997  8010       L1    22  1.00
      P1  H 10752 10764       L1     9  1.00

> <Gold.PLP.Chemscore.Internal.Correction>
0.1229

> <Gold.Rescore>
     Score         DG    S(hbond)    S(metal)    S(lipo)     H(rot)  DE(clash)    DE(int)     intcor
     21.25     -21.84       2.73        0.00      99.16       1.71       0.12       0.47       ----

> <Gold.Chemscore.Fitness>
21.2494

> <Gold.Chemscore.DG>
-21.8429

> <Gold.Chemscore.ZeroCoef>
-5.4800

> <Gold.Chemscore.Hbond>
2.7336

> <Gold.Chemscore.Metal>
0.0000

> <Gold.Chemscore.Lipo>
99.1600

> <Gold.Chemscore.Internal_Hbond>
0.0000

> <Gold.Chemscore.DEClash>
0.1222

> <Gold.Chemscore.DEInternal>
0.4712

> <Gold.Chemscore.Rot>
1.7066

> <Gold.Chemscore.Internal.Correction>
   9.000000E+99

> <Gold.Chemscore.Hbonds>
donor molecule, donor type, donor heavy atom, donor atom, acceptor molecule, acceptor atom, score
      P1  H  6896  6907       L1     5  0.70
      P1  H  7997  8010       L1    22  0.34
      P1  H 10752 10764       L1     9  0.99

> <Gold.Chemscore.Hbond.Weighted>
-9.1301

> <Gold.Chemscore.Metal.Weighted>
-0.0000

> <Gold.Chemscore.Lipo.Weighted>
-11.6017

> <Gold.Chemscore.Internal_Hbond.Weighted>
0.0000

> <Gold.Chemscore.DEClash.Weighted>
0.1222

> <Gold.Chemscore.DEInternal.Weighted>
0.4712

> <Gold.Chemscore.Rot.Weighted>
4.3690

> <Gold.Chemscore.Internal.Correction.Weighted>
   9.000000E+99

> <Gold.Protein.RotatedTorsions>
[ 6907 6896 6895 6894 ] final -132.81 input  -60.11 | X-H torsion
[ 7974 7965 7964 7962 ] final  -96.38 input  175.53 | X-H torsion
[ 8008 7997 7996 7995 ] final   67.28 input   59.86 | X-H torsion
[ 10167 10162 10161 10158 ] final  -64.94 input  -65.29 | X-H torsion
[ 10718 10713 10712 10709 ] final    4.68 input   66.30 | X-H torsion
[ 10763 10752 10751 10750 ] final  -71.62 input  -60.55 | X-H torsion
[ 11005 11000 10999 10996 ] final  -26.88 input  -57.11 | X-H torsion

> <Gold.Protein.ActiveResidues>
 VAL166  LYS551  ARG553  GLY616  TRP617  ASP618  TYR619  PRO620  LYS621  CYS622 
 ASP623  PHE694  ASN695  SER759  ASP760  ASP761  ALA762  ILE779  LEU786  VAL792 
 PHE793  MET794  SER795  GLU796  ALA797  LYS798  CYS799  TRP800  GLU811  SER814 

> <Gold.Protein.RotatedAtoms>
  150.9666  133.6388  159.2744 H   0  0  0  0  0  0  0  0  0  0  0  0  # atno 6907 bound_to 6896
  151.3691  135.0918  159.9469 H   0  0  0  0  0  0  0  0  0  0  0  0  # atno 6908 bound_to 6896
  152.5168  133.9224  159.7595 H   0  0  0  0  0  0  0  0  0  0  0  0  # atno 6909 bound_to 6896
  145.3476  140.9471  143.2572 H   0  0  0  0  0  0  0  0  0  0  0  0  # atno 7974 bound_to 7965
  155.6905  140.3496  155.4891 H   0  0  0  0  0  0  0  0  0  0  0  0  # atno 8008 bound_to 7997
  155.9528  140.1122  157.0984 H   0  0  0  0  0  0  0  0  0  0  0  0  # atno 8009 bound_to 7997
  154.4125  140.1191  156.5062 H   0  0  0  0  0  0  0  0  0  0  0  0  # atno 8010 bound_to 7997
  140.5765  143.2322  151.6430 H   0  0  0  0  0  0  0  0  0  0  0  0  # atno 10167 bound_to 10162
  156.8962  130.5705  149.5649 H   0  0  0  0  0  0  0  0  0  0  0  0  # atno 10718 bound_to 10713
  154.4343  135.5956  153.6089 H   0  0  0  0  0  0  0  0  0  0  0  0  # atno 10763 bound_to 10752
  152.9801  135.5983  154.3800 H   0  0  0  0  0  0  0  0  0  0  0  0  # atno 10764 bound_to 10752
  154.3642  135.2841  155.2281 H   0  0  0  0  0  0  0  0  0  0  0  0  # atno 10765 bound_to 10752
  140.9069  133.7487  156.0618 H   0  0  0  0  0  0  0  0  0  0  0  0  # atno 11005 bound_to 11000
  144.8742  139.4994  143.6753 LP  0  0  0  0  0  0  0  0  0  0  0  0  # atno 17320 bound_to 7965
  146.2981  139.7342  142.9111 LP  0  0  0  0  0  0  0  0  0  0  0  0  # atno 17321 bound_to 7965
  139.5146  144.3406  152.0743 LP  0  0  0  0  0  0  0  0  0  0  0  0  # atno 17342 bound_to 10162
  140.2550  144.4128  150.6207 LP  0  0  0  0  0  0  0  0  0  0  0  0  # atno 17343 bound_to 10162
  156.0604  130.5658  150.9181 LP  0  0  0  0  0  0  0  0  0  0  0  0  # atno 17370 bound_to 10713
  157.6054  131.0939  150.8889 LP  0  0  0  0  0  0  0  0  0  0  0  0  # atno 17371 bound_to 10713
  140.8160  134.3345  157.5397 LP  0  0  0  0  0  0  0  0  0  0  0  0  # atno 17394 bound_to 11000
  139.8751  134.9281  156.3443 LP  0  0  0  0  0  0  0  0  0  0  0  0  # atno 17395 bound_to 11000

$$$$
