AV-unprocessed.smi:332|AV-procd|sdf|2359|dock1
  -GOLD-   2262022273D 1   1.00000     0.00000
 Structure written by MMmdl.
 42 44  0  0  0  0  0  0  0  0  1 V2000
  144.5903  134.6361  153.3287 C   0  0  0  0  0  0  0  0  0  0  0  0
  144.8158  135.3949  152.0106 C   0  0  1  0  0  0  0  0  0  0  0  0
  145.8809  136.3743  152.2188 N   0  0  0  0  0  0  0  0  0  0  0  0
  145.7608  137.5439  152.8661 C   0  0  0  0  0  0  0  0  0  0  0  0
  144.7210  137.9164  153.4112 O   0  0  0  0  0  0  0  0  0  0  0  0
  147.0198  138.4208  152.9058 C   0  0  0  0  0  0  0  0  0  0  0  0
  146.8474  139.6352  153.7200 N   0  0  0  0  0  0  0  0  0  0  0  0
  147.1660  140.8668  153.1138 C   0  0  0  0  0  0  0  0  0  0  0  0
  147.0478  142.0321  153.7694 C   0  0  0  0  0  0  0  0  0  0  0  0
  146.5796  142.0027  155.1348 C   0  0  0  0  0  0  0  0  0  0  0  0
  146.2754  140.8299  155.7255 C   0  0  0  0  0  0  0  0  0  0  0  0
  146.4043  139.5534  155.0130 C   0  0  0  0  0  0  0  0  0  0  0  0
  146.1310  138.4768  155.5453 O   0  0  0  0  0  0  0  0  0  0  0  0
  145.1857  134.4497  150.8403 C   0  0  1  0  0  0  0  0  0  0  0  0
  146.4899  133.6502  151.0798 C   0  0  0  0  0  0  0  0  0  0  0  0
  146.0589  132.1901  150.8557 C   0  0  2  0  0  0  0  0  0  0  0  0
  145.7541  131.9654  149.3637 C   0  0  0  0  0  0  0  0  0  0  0  0
  144.4262  132.7212  149.1735 C   0  0  0  0  0  0  0  0  0  0  0  0
  144.1666  133.3098  150.5734 C   0  0  1  0  0  0  0  0  0  0  0  0
  144.6667  132.1840  151.4723 C   0  0  0  0  0  0  0  0  0  0  0  0
  143.7667  133.9268  153.2481 H   0  0  0  0  0  0  0  0  0  0  0  0
  144.3453  135.3243  154.1384 H   0  0  0  0  0  0  0  0  0  0  0  0
  145.4803  134.0792  153.6240 H   0  0  0  0  0  0  0  0  0  0  0  0
  143.8840  135.9050  151.7622 H   0  0  0  0  0  0  0  0  0  0  0  0
  146.7779  136.1555  151.8098 H   0  0  0  0  0  0  0  0  0  0  0  0
  147.8437  137.8139  153.2837 H   0  0  0  0  0  0  0  0  0  0  0  0
  147.3098  138.6967  151.8899 H   0  0  0  0  0  0  0  0  0  0  0  0
  147.5162  140.8021  152.0938 H   0  0  0  0  0  0  0  0  0  0  0  0
  147.3006  142.9663  153.2897 H   0  0  0  0  0  0  0  0  0  0  0  0
  146.4742  142.9256  155.6857 H   0  0  0  0  0  0  0  0  0  0  0  0
  145.9285  140.8275  156.7484 H   0  0  0  0  0  0  0  0  0  0  0  0
  145.2874  135.0565  149.9389 H   0  0  0  0  0  0  0  0  0  0  0  0
  147.2921  133.9545  150.4066 H   0  0  0  0  0  0  0  0  0  0  0  0
  146.8533  133.7716  152.1010 H   0  0  0  0  0  0  0  0  0  0  0  0
  146.7525  131.4611  151.2752 H   0  0  0  0  0  0  0  0  0  0  0  0
  146.5466  132.3471  148.7190 H   0  0  0  0  0  0  0  0  0  0  0  0
  145.6261  130.9042  149.1469 H   0  0  0  0  0  0  0  0  0  0  0  0
  144.4876  133.4885  148.4011 H   0  0  0  0  0  0  0  0  0  0  0  0
  143.6306  132.0303  148.8913 H   0  0  0  0  0  0  0  0  0  0  0  0
  143.1223  133.5823  150.7242 H   0  0  0  0  0  0  0  0  0  0  0  0
  144.1334  131.2432  151.3257 H   0  0  0  0  0  0  0  0  0  0  0  0
  144.6594  132.4361  152.5339 H   0  0  0  0  0  0  0  0  0  0  0  0
  1  2  1  0  0  0  0
  1 21  1  0  0  0  0
  1 22  1  0  0  0  0
  1 23  1  0  0  0  0
  2  3  1  0  0  0  0
  2 14  1  0  0  0  0
  2 24  1  0  0  0  0
  3  4  1  0  0  0  0
  3 25  1  0  0  0  0
  4  5  2  0  0  0  0
  4  6  1  0  0  0  0
  6  7  1  0  0  0  0
  6 26  1  0  0  0  0
  6 27  1  0  0  0  0
  7 12  1  0  0  0  0
  7  8  1  0  0  0  0
  8  9  2  0  0  0  0
  8 28  1  0  0  0  0
  9 10  1  0  0  0  0
  9 29  1  0  0  0  0
 10 11  2  0  0  0  0
 10 30  1  0  0  0  0
 11 12  1  0  0  0  0
 11 31  1  0  0  0  0
 12 13  2  0  0  0  0
 14 19  1  0  0  0  0
 14 15  1  0  0  0  0
 14 32  1  0  0  0  0
 15 16  1  0  0  0  0
 15 33  1  0  0  0  0
 15 34  1  0  0  0  0
 16 20  1  0  0  0  0
 16 17  1  0  0  0  0
 16 35  1  0  0  0  0
 17 18  1  0  0  0  0
 17 36  1  0  0  0  0
 17 37  1  0  0  0  0
 18 19  1  0  0  0  0
 18 38  1  0  0  0  0
 18 39  1  0  0  0  0
 19 20  1  0  0  0  0
 19 40  1  0  0  0  0
 20 41  1  0  0  0  0
 20 42  1  0  0  0  0
M  END
> <s_m_source_file>
AV-unprocessed.smi

> <i_m_source_file_index>
332

> <i_lp_mmshare_version>
43012

> <i_f3d_flags>
0

> <s_epik_input>
W0NIMl0xW0NIMl1bQ0BIXShbQ0gyXTIpW0NAQEhdKFtDSDJdW0NAQEhdMTIpW0NASF0oW0NIM10pW05IXUMoPU8pW0NIMl1uM1tjSF1bY0hdW2NIXVtjSF1jMz1P

> <s_epik_cmdline>
J2VwaWtfcHl0aG9uJywgJy1waCcsICc3LjAnLCAnLXRuJywgJzgnLCAnLW1hJywgJzIwMCcsICctbWV0YWxfYmluZGluZycsICctaW1hZScsICc8aW5maWxlLm1hZT4nLCAnLW9tYWUnLCAnPG91dGZpbGUubWFlPic=

> <r_lp_tautomer_probability>
1

> <r_epik_Ionization_Penalty>
4.05802e-07

> <r_epik_Ionization_Penalty_Charging>
3.84175e-07

> <r_epik_Ionization_Penalty_Neutral>
2.16269e-08

> <r_epik_State_Penalty>
-0

> <r_epik_Charging_Adjusted_Penalty>
3.84175e-07

> <i_epik_Tot_Q>
0

> <i_epik_Tot_abs_Q>
0

> <r_epik_Metal_State_Penalty>
-0

> <b_epik_Metal_Only>
0

> <s_lp_Force_Field>
OPLS_2005

> <r_lp_Energy>
59.7004

> <b_lp_Chiralities_Consistent>
1

> <s_lp_Variant>
AV-unprocessed.smi:332-8

> <Gold.Version>
5.8.1

> <Gold.Id.Protein>
6NUR|6NUR_protein|mol2

> <Gold.PLP.Fitness>
39.1357

> <Gold.PLP.PLP>
-34.6172

> <Gold.PLP.part.hbond>
-0.8897

> <Gold.PLP.part.metal>
0.0000

> <Gold.PLP.part.buried>
-4.3780

> <Gold.PLP.part.nonpolar>
-29.5384

> <Gold.PLP.part.repulsive>
0.9650

> <Gold.PLP.ligand.clash>
0.0000

> <Gold.PLP.ligand.torsion>
0.3191

> <Gold.PLP.Chemscore.Hbond>
0.7150

> <Gold.PLP.Chemscore.CHOScore>
0.9942

> <Gold.PLP.Chemscore.Metal>
0.0000

> <Gold.Chemscore.Hbonds>
donor molecule, donor type, donor heavy atom, donor atom, acceptor molecule, acceptor atom, score
      L1  H     3    25       P1  7948  0.70
      L1  C     8    28       P1  7957  1.00

> <Gold.PLP.Chemscore.Internal.Correction>
0.0292

> <Gold.Rescore>
     Score         DG    S(hbond)    S(metal)    S(lipo)     H(rot)  DE(clash)    DE(int)     intcor
     13.46     -15.07       1.00        0.00      87.24       1.54       0.64       0.98       ----

> <Gold.Chemscore.Fitness>
13.4565

> <Gold.Chemscore.DG>
-15.0743

> <Gold.Chemscore.ZeroCoef>
-5.4800

> <Gold.Chemscore.Hbond>
0.9968

> <Gold.Chemscore.Metal>
0.0000

> <Gold.Chemscore.Lipo>
87.2369

> <Gold.Chemscore.Internal_Hbond>
0.0000

> <Gold.Chemscore.DEClash>
0.6393

> <Gold.Chemscore.DEInternal>
0.9785

> <Gold.Chemscore.Rot>
1.5398

> <Gold.Chemscore.Internal.Correction>
   9.000000E+99

> <Gold.Chemscore.Hbonds>
donor molecule, donor type, donor heavy atom, donor atom, acceptor molecule, acceptor atom, score
      L1  H     3    25       P1  7948  0.68

> <Gold.Chemscore.Hbond.Weighted>
-3.3294

> <Gold.Chemscore.Metal.Weighted>
-0.0000

> <Gold.Chemscore.Lipo.Weighted>
-10.2067

> <Gold.Chemscore.Internal_Hbond.Weighted>
0.0000

> <Gold.Chemscore.DEClash.Weighted>
0.6393

> <Gold.Chemscore.DEInternal.Weighted>
0.9785

> <Gold.Chemscore.Rot.Weighted>
3.9419

> <Gold.Chemscore.Internal.Correction.Weighted>
   9.000000E+99

> <Gold.Protein.RotatedTorsions>
[ 6907 6896 6895 6894 ] final   84.58 input  -60.11 | X-H torsion
[ 7974 7965 7964 7962 ] final   75.31 input  175.53 | X-H torsion
[ 8008 7997 7996 7995 ] final  109.20 input   59.86 | X-H torsion
[ 10167 10162 10161 10158 ] final  -45.64 input  -65.29 | X-H torsion
[ 10718 10713 10712 10709 ] final   20.19 input   66.30 | X-H torsion
[ 10763 10752 10751 10750 ] final  -94.86 input  -60.55 | X-H torsion
[ 11005 11000 10999 10996 ] final  -62.71 input  -57.11 | X-H torsion

> <Gold.Protein.ActiveResidues>
 VAL166  LYS551  ARG553  GLY616  TRP617  ASP618  TYR619  PRO620  LYS621  CYS622 
 ASP623  PHE694  ASN695  SER759  ASP760  ASP761  ALA762  ILE779  LEU786  VAL792 
 PHE793  MET794  SER795  GLU796  ALA797  LYS798  CYS799  TRP800  GLU811  SER814 

> <Gold.Protein.RotatedAtoms>
  152.5355  134.2719  159.8974 H   0  0  0  0  0  0  0  0  0  0  0  0  # atno 6907 bound_to 6896
  151.2675  133.4265  159.2627 H   0  0  0  0  0  0  0  0  0  0  0  0  # atno 6908 bound_to 6896
  151.0397  134.9613  159.8211 H   0  0  0  0  0  0  0  0  0  0  0  0  # atno 6909 bound_to 6896
  145.7172  139.2635  143.1617 H   0  0  0  0  0  0  0  0  0  0  0  0  # atno 7974 bound_to 7965
  156.1962  140.3062  155.9431 H   0  0  0  0  0  0  0  0  0  0  0  0  # atno 8008 bound_to 7997
  155.3061  140.0449  157.3049 H   0  0  0  0  0  0  0  0  0  0  0  0  # atno 8009 bound_to 7997
  154.5512  140.2292  155.8491 H   0  0  0  0  0  0  0  0  0  0  0  0  # atno 8010 bound_to 7997
  140.6850  143.2869  151.3668 H   0  0  0  0  0  0  0  0  0  0  0  0  # atno 10167 bound_to 10162
  157.1210  130.6549  149.5924 H   0  0  0  0  0  0  0  0  0  0  0  0  # atno 10718 bound_to 10713
  154.7095  135.5142  153.8645 H   0  0  0  0  0  0  0  0  0  0  0  0  # atno 10763 bound_to 10752
  153.0769  135.6619  154.0136 H   0  0  0  0  0  0  0  0  0  0  0  0  # atno 10764 bound_to 10752
  153.9981  135.3013  155.3385 H   0  0  0  0  0  0  0  0  0  0  0  0  # atno 10765 bound_to 10752
  141.1369  133.6643  156.5570 H   0  0  0  0  0  0  0  0  0  0  0  0  # atno 11005 bound_to 11000
  146.0659  140.7921  142.9712 LP  0  0  0  0  0  0  0  0  0  0  0  0  # atno 17320 bound_to 7965
  144.6926  140.3267  143.7223 LP  0  0  0  0  0  0  0  0  0  0  0  0  # atno 17321 bound_to 7965
  139.6201  144.0925  152.2383 LP  0  0  0  0  0  0  0  0  0  0  0  0  # atno 17342 bound_to 10162
  140.0366  144.6040  150.7444 LP  0  0  0  0  0  0  0  0  0  0  0  0  # atno 17343 bound_to 10162
  155.9828  130.4845  150.6903 LP  0  0  0  0  0  0  0  0  0  0  0  0  # atno 17370 bound_to 10713
  157.4477  131.0869  151.0879 LP  0  0  0  0  0  0  0  0  0  0  0  0  # atno 17371 bound_to 10713
  140.4018  134.7349  157.4784 LP  0  0  0  0  0  0  0  0  0  0  0  0  # atno 17394 bound_to 11000
  140.0490  134.6158  155.8885 LP  0  0  0  0  0  0  0  0  0  0  0  0  # atno 17395 bound_to 11000

$$$$
