AV-unprocessed.smi:162|AV-procd|sdf|1376|dock4
  -GOLD-   2262019 93D 1   1.00000     0.00000
 Structure written by MMmdl.
 54 57  0  0  0  0  0  0  0  0  1 V2000
  154.7389  140.8279  159.7623 C   0  0  0  0  0  0  0  0  0  0  0  0
  154.5164  139.9341  158.6829 O   0  0  0  0  0  0  0  0  0  0  0  0
  153.1526  139.5847  158.4907 C   0  0  0  0  0  0  0  0  0  0  0  0
  152.3353  140.7492  157.8897 C   0  0  2  0  0  0  0  0  0  0  0  0
  152.0710  141.8837  158.8868 C   0  0  0  0  0  0  0  0  0  0  0  0
  150.7254  142.4886  158.4511 C   0  0  1  0  0  0  0  0  0  0  0  0
  150.8445  143.8342  158.0109 O   0  0  0  0  0  0  0  0  0  0  0  0
  151.4830  144.6828  158.9517 C   0  0  0  0  0  0  0  0  0  0  0  0
  150.2782  141.6088  157.2782 C   0  0  0  0  0  0  0  0  0  0  0  0
  151.0104  140.3586  157.4268 N   0  0  0  0  0  0  0  0  0  0  0  0
  150.9942  139.5128  156.3693 C   0  0  0  0  0  0  0  0  0  0  0  0
  151.0462  139.9920  155.0980 N   0  0  0  0  0  0  0  0  0  0  0  0
  151.0616  139.1457  154.0634 C   0  0  0  0  0  0  0  0  0  0  0  0
  151.0399  137.8111  154.0757 N   0  0  0  0  0  0  0  0  0  0  0  0
  150.9894  137.3285  155.3504 C   0  0  0  0  0  0  0  0  0  0  0  0
  150.9619  138.1037  156.5428 C   0  0  0  0  0  0  0  0  0  0  0  0
  150.9182  137.2699  157.6528 N   0  0  0  0  0  0  0  0  0  0  0  0
  150.9279  136.0676  157.1450 C   0  0  0  0  0  0  0  0  0  0  0  0
  150.9599  136.0097  155.7693 N   0  0  0  0  0  0  0  0  0  0  0  0
  150.9886  134.8107  154.9464 C   0  0  0  0  0  0  0  0  0  0  0  0
  149.6233  134.0909  154.8084 C   0  0  0  0  0  0  0  0  0  0  0  0
  148.7610  135.0393  154.2060 O   0  0  0  0  0  0  0  0  0  0  0  0
  149.6889  132.8483  153.8945 C   0  0  0  0  0  0  0  0  0  0  0  0
  148.3419  132.1046  153.8422 C   0  0  0  0  0  0  0  0  0  0  0  0
  147.9297  131.7514  155.1579 O   0  0  0  0  0  0  0  0  0  0  0  0
  147.7079  132.8838  155.9908 C   0  0  0  0  0  0  0  0  0  0  0  0
  149.0175  133.6740  156.1663 C   0  0  0  0  0  0  0  0  0  0  0  0
  152.8660  141.1613  157.0301 H   0  0  0  0  0  0  0  0  0  0  0  0
  149.9965  142.4069  159.2595 H   0  0  0  0  0  0  0  0  0  0  0  0
  155.7949  141.0944  159.7993 H   0  0  0  0  0  0  0  0  0  0  0  0
  154.4797  140.3785  160.7206 H   0  0  0  0  0  0  0  0  0  0  0  0
  154.1666  141.7482  159.6404 H   0  0  0  0  0  0  0  0  0  0  0  0
  153.0885  138.6894  157.8710 H   0  0  0  0  0  0  0  0  0  0  0  0
  152.7385  139.3154  159.4629 H   0  0  0  0  0  0  0  0  0  0  0  0
  151.9775  141.4912  159.9002 H   0  0  0  0  0  0  0  0  0  0  0  0
  152.8885  142.6050  158.8881 H   0  0  0  0  0  0  0  0  0  0  0  0
  151.5438  145.6932  158.5481 H   0  0  0  0  0  0  0  0  0  0  0  0
  152.4973  144.3506  159.1741 H   0  0  0  0  0  0  0  0  0  0  0  0
  150.9191  144.7291  159.8841 H   0  0  0  0  0  0  0  0  0  0  0  0
  149.2009  141.4408  157.2891 H   0  0  0  0  0  0  0  0  0  0  0  0
  150.5319  142.0964  156.3358 H   0  0  0  0  0  0  0  0  0  0  0  0
  151.1003  139.6034  153.0859 H   0  0  0  0  0  0  0  0  0  0  0  0
  150.9090  135.1829  157.7650 H   0  0  0  0  0  0  0  0  0  0  0  0
  151.3652  135.0902  153.9614 H   0  0  0  0  0  0  0  0  0  0  0  0
  151.7299  134.1311  155.3698 H   0  0  0  0  0  0  0  0  0  0  0  0
  149.1555  135.3342  153.3994 H   0  0  0  0  0  0  0  0  0  0  0  0
  150.0035  133.1278  152.8881 H   0  0  0  0  0  0  0  0  0  0  0  0
  150.4386  132.1515  154.2684 H   0  0  0  0  0  0  0  0  0  0  0  0
  147.5746  132.7101  153.3573 H   0  0  0  0  0  0  0  0  0  0  0  0
  148.4427  131.1942  153.2512 H   0  0  0  0  0  0  0  0  0  0  0  0
  146.9209  133.5113  155.5699 H   0  0  0  0  0  0  0  0  0  0  0  0
  147.3492  132.5390  156.9607 H   0  0  0  0  0  0  0  0  0  0  0  0
  149.7195  133.0383  156.7058 H   0  0  0  0  0  0  0  0  0  0  0  0
  148.8487  134.5480  156.7964 H   0  0  0  0  0  0  0  0  0  0  0  0
  1  2  1  0  0  0  0
  1 30  1  0  0  0  0
  1 31  1  0  0  0  0
  1 32  1  0  0  0  0
  2  3  1  0  0  0  0
  3  4  1  0  0  0  0
  3 33  1  0  0  0  0
  3 34  1  0  0  0  0
  4 28  1  0  0  0  0
  4 10  1  0  0  0  0
  4  5  1  0  0  0  0
  5  6  1  0  0  0  0
  5 35  1  0  0  0  0
  5 36  1  0  0  0  0
  6 29  1  0  0  0  0
  6  7  1  0  0  0  0
  6  9  1  0  0  0  0
  7  8  1  0  0  0  0
  8 37  1  0  0  0  0
  8 38  1  0  0  0  0
  8 39  1  0  0  0  0
  9 10  1  0  0  0  0
  9 40  1  0  0  0  0
  9 41  1  0  0  0  0
 10 11  1  0  0  0  0
 11 16  1  0  0  0  0
 11 12  2  0  0  0  0
 12 13  1  0  0  0  0
 13 14  2  0  0  0  0
 13 42  1  0  0  0  0
 14 15  1  0  0  0  0
 15 19  1  0  0  0  0
 15 16  2  0  0  0  0
 16 17  1  0  0  0  0
 17 18  2  0  0  0  0
 18 19  1  0  0  0  0
 18 43  1  0  0  0  0
 19 20  1  0  0  0  0
 20 21  1  0  0  0  0
 20 44  1  0  0  0  0
 20 45  1  0  0  0  0
 21 27  1  0  0  0  0
 21 22  1  0  0  0  0
 21 23  1  0  0  0  0
 22 46  1  0  0  0  0
 23 24  1  0  0  0  0
 23 47  1  0  0  0  0
 23 48  1  0  0  0  0
 24 25  1  0  0  0  0
 24 49  1  0  0  0  0
 24 50  1  0  0  0  0
 25 26  1  0  0  0  0
 26 27  1  0  0  0  0
 26 51  1  0  0  0  0
 26 52  1  0  0  0  0
 27 53  1  0  0  0  0
 27 54  1  0  0  0  0
M  END
> <s_m_source_file>
AV-unprocessed.smi

> <i_m_source_file_index>
162

> <i_lp_mmshare_version>
43012

> <i_f3d_flags>
0

> <s_epik_input>
W0NIM11PW0NIMl1bQ0BASF0xW0NIMl1bQ0BASF0oT1tDSDNdKVtDSDJdTjFjKG5bY0hdbjIpYyhjMjMpbltjSF1uM1tDSDJdQzQoW09IXSlbQ0gyXVtDSDJdT1tDSDJdW0NIMl00

> <s_epik_cmdline>
J2VwaWtfcHl0aG9uJywgJy1waCcsICc3LjAnLCAnLXRuJywgJzgnLCAnLW1hJywgJzIwMCcsICctbWV0YWxfYmluZGluZycsICctaW1hZScsICc8aW5maWxlLm1hZT4nLCAnLW9tYWUnLCAnPG91dGZpbGUubWFlPic=

> <r_lp_tautomer_probability>
1

> <r_epik_Ionization_Penalty>
0.00660334

> <r_epik_Ionization_Penalty_Charging>
0

> <r_epik_Ionization_Penalty_Neutral>
0.00660334

> <r_epik_State_Penalty>
0.00469459

> <r_epik_Charging_Adjusted_Penalty>
0.00469459

> <i_epik_Tot_Q>
0

> <i_epik_Tot_abs_Q>
0

> <r_epik_Metal_State_Penalty>
-0

> <b_epik_Metal_Only>
0

> <s_lp_Force_Field>
OPLS_2005

> <r_lp_Energy>
45.7705

> <b_lp_Chiralities_Consistent>
1

> <s_lp_Variant>
AV-unprocessed.smi:162-1

> <Gold.Version>
5.8.1

> <Gold.Id.Protein>
6NUR|6NUR_protein|mol2

> <Gold.PLP.Fitness>
41.7140

> <Gold.PLP.PLP>
-34.7345

> <Gold.PLP.part.hbond>
-3.0000

> <Gold.PLP.part.metal>
0.0000

> <Gold.PLP.part.buried>
-6.0724

> <Gold.PLP.part.nonpolar>
-26.7561

> <Gold.PLP.part.repulsive>
0.4949

> <Gold.PLP.ligand.clash>
0.0055

> <Gold.PLP.ligand.torsion>
1.0630

> <Gold.PLP.Chemscore.Hbond>
2.0000

> <Gold.PLP.Chemscore.CHOScore>
1.0000

> <Gold.PLP.Chemscore.Metal>
0.0000

> <Gold.Chemscore.Hbonds>
donor molecule, donor type, donor heavy atom, donor atom, acceptor molecule, acceptor atom, score
      L1  H    22    46       P1  7948  0.98
      P1  H  7997  8008       L1     2  0.83
      L1  C    13    42       P1  7957  1.00

> <Gold.PLP.Chemscore.Internal.Correction>
0.1110

> <Gold.Rescore>
     Score         DG    S(hbond)    S(metal)    S(lipo)     H(rot)  DE(clash)    DE(int)     intcor
     12.09     -13.33       1.77        0.00      79.21       2.86       0.18       1.06       ----

> <Gold.Chemscore.Fitness>
12.0871

> <Gold.Chemscore.DG>
-13.3320

> <Gold.Chemscore.ZeroCoef>
-5.4800

> <Gold.Chemscore.Hbond>
1.7716

> <Gold.Chemscore.Metal>
0.0000

> <Gold.Chemscore.Lipo>
79.2081

> <Gold.Chemscore.Internal_Hbond>
0.0000

> <Gold.Chemscore.DEClash>
0.1837

> <Gold.Chemscore.DEInternal>
1.0612

> <Gold.Chemscore.Rot>
2.8642

> <Gold.Chemscore.Internal.Correction>
   9.000000E+99

> <Gold.Chemscore.Hbonds>
donor molecule, donor type, donor heavy atom, donor atom, acceptor molecule, acceptor atom, score
      L1  H    22    46       P1  7948  0.32
      P1  H  7997  8008       L1     2  0.21

> <Gold.Chemscore.Hbond.Weighted>
-5.9170

> <Gold.Chemscore.Metal.Weighted>
-0.0000

> <Gold.Chemscore.Lipo.Weighted>
-9.2673

> <Gold.Chemscore.Internal_Hbond.Weighted>
0.0000

> <Gold.Chemscore.DEClash.Weighted>
0.1837

> <Gold.Chemscore.DEInternal.Weighted>
1.0612

> <Gold.Chemscore.Rot.Weighted>
7.3324

> <Gold.Chemscore.Internal.Correction.Weighted>
   9.000000E+99

> <Gold.Protein.RotatedTorsions>
[ 6907 6896 6895 6894 ] final  -18.49 input  -60.11 | X-H torsion
[ 7974 7965 7964 7962 ] final -158.59 input  175.53 | X-H torsion
[ 8008 7997 7996 7995 ] final -110.04 input   59.86 | X-H torsion
[ 10167 10162 10161 10158 ] final   57.27 input  -65.29 | X-H torsion
[ 10718 10713 10712 10709 ] final -153.28 input   66.30 | X-H torsion
[ 10763 10752 10751 10750 ] final -143.00 input  -60.55 | X-H torsion
[ 11005 11000 10999 10996 ] final  -46.25 input  -57.11 | X-H torsion

> <Gold.Protein.ActiveResidues>
 VAL166  LYS551  ARG553  GLY616  TRP617  ASP618  TYR619  PRO620  LYS621  CYS622 
 ASP623  PHE694  ASN695  SER759  ASP760  ASP761  ALA762  ILE779  LEU786  VAL792 
 PHE793  MET794  SER795  GLU796  ALA797  LYS798  CYS799  TRP800  GLU811  SER814 

> <Gold.Protein.RotatedAtoms>
  151.2774  135.0703  159.9156 H   0  0  0  0  0  0  0  0  0  0  0  0  # atno 6907 bound_to 6896
  152.5340  134.0066  159.7929 H   0  0  0  0  0  0  0  0  0  0  0  0  # atno 6908 bound_to 6896
  151.0315  133.5736  159.2691 H   0  0  0  0  0  0  0  0  0  0  0  0  # atno 6909 bound_to 6896
  144.7499  140.3806  143.6056 H   0  0  0  0  0  0  0  0  0  0  0  0  # atno 7974 bound_to 7965
  154.9685  140.0398  157.2223 H   0  0  0  0  0  0  0  0  0  0  0  0  # atno 8008 bound_to 7997
  154.7823  140.2821  155.6032 H   0  0  0  0  0  0  0  0  0  0  0  0  # atno 8009 bound_to 7997
  156.2938  140.2589  156.2651 H   0  0  0  0  0  0  0  0  0  0  0  0  # atno 8010 bound_to 7997
  140.1998  144.3999  150.6534 H   0  0  0  0  0  0  0  0  0  0  0  0  # atno 10167 bound_to 10162
  156.4838  130.8315  151.2541 H   0  0  0  0  0  0  0  0  0  0  0  0  # atno 10718 bound_to 10713
  154.8487  135.3480  154.6117 H   0  0  0  0  0  0  0  0  0  0  0  0  # atno 10763 bound_to 10752
  153.6726  135.6984  153.5147 H   0  0  0  0  0  0  0  0  0  0  0  0  # atno 10764 bound_to 10752
  153.2731  135.4287  155.0963 H   0  0  0  0  0  0  0  0  0  0  0  0  # atno 10765 bound_to 10752
  141.0567  133.6723  156.3128 H   0  0  0  0  0  0  0  0  0  0  0  0  # atno 11005 bound_to 11000
  145.6981  139.1655  143.2608 LP  0  0  0  0  0  0  0  0  0  0  0  0  # atno 17320 bound_to 7965
  146.1435  140.7025  142.9356 LP  0  0  0  0  0  0  0  0  0  0  0  0  # atno 17321 bound_to 7965
  140.6398  143.2201  151.6315 LP  0  0  0  0  0  0  0  0  0  0  0  0  # atno 17342 bound_to 10162
  139.5222  144.3171  152.0943 LP  0  0  0  0  0  0  0  0  0  0  0  0  # atno 17343 bound_to 10162
  157.7481  131.0036  150.3045 LP  0  0  0  0  0  0  0  0  0  0  0  0  # atno 17370 bound_to 10713
  156.3495  130.3828  149.7341 LP  0  0  0  0  0  0  0  0  0  0  0  0  # atno 17371 bound_to 10713
  140.5950  134.5612  157.5507 LP  0  0  0  0  0  0  0  0  0  0  0  0  # atno 17394 bound_to 11000
  139.9396  134.7811  156.0712 LP  0  0  0  0  0  0  0  0  0  0  0  0  # atno 17395 bound_to 11000

$$$$
