AV-unprocessed.smi:1301|AV-procd|sdf|5423|dock7
  -GOLD-   22720 4583D 1   1.00000     0.00000
 Structure written by MMmdl.
 44 45  0  0  0  0  0  0  0  0  3 V2000
  152.3049  141.4575  159.2658 C   0  0  0  0  0  0  0  0  0  0  0  0
  151.8385  141.0690  157.9043 C   0  0  0  0  0  0  0  0  0  0  0  0
  150.8228  141.5190  157.1095 C   0  0  0  0  0  0  0  0  0  0  0  0
  150.9458  140.7189  155.9409 C   0  0  0  0  0  0  0  0  0  0  0  0
  150.1533  140.7783  154.8595 N   0  5  0  0  0  0  0  0  0  0  0  0
  148.9948  140.0815  154.8257 C   0  0  0  0  0  0  0  0  0  0  0  0
  148.3531  139.6789  155.7988 O   0  0  0  0  0  0  0  0  0  0  0  0
  148.5517  139.8364  153.5843 N   0  0  0  0  0  0  0  0  0  0  0  0
  147.3347  139.1097  153.2359 C   0  0  2  0  0  0  0  0  0  0  0  0
  147.3675  137.7104  153.8693 C   0  0  0  0  0  0  0  0  0  0  0  0
  146.1458  136.8797  153.4452 C   0  0  0  0  0  0  0  0  0  0  0  0
  146.0525  136.7771  151.9660 N   0  3  1  0  0  0  0  0  0  0  0  0
  144.9664  135.8593  151.5348 C   0  0  0  0  0  0  0  0  0  0  0  0
  145.2586  134.3767  151.8539 C   0  0  0  0  0  0  0  0  0  0  0  0
  146.5369  133.9141  151.1391 C   0  0  0  0  0  0  0  0  0  0  0  0
  144.0772  133.4647  151.4821 C   0  0  0  0  0  0  0  0  0  0  0  0
  145.9766  138.1206  151.3332 C   0  0  0  0  0  0  0  0  0  0  0  0
  147.1944  138.9799  151.7086 C   0  0  0  0  0  0  0  0  0  0  0  0
  151.9385  139.8489  156.0255 N   0  0  0  0  0  0  0  0  0  0  0  0
  152.5209  140.0718  157.2791 O   0  0  0  0  0  0  0  0  0  0  0  0
  151.4873  141.3997  159.9842 H   0  0  0  0  0  0  0  0  0  0  0  0
  152.6830  142.4799  159.2656 H   0  0  0  0  0  0  0  0  0  0  0  0
  153.1046  140.8017  159.6110 H   0  0  0  0  0  0  0  0  0  0  0  0
  150.1071  142.2978  157.3265 H   0  0  0  0  0  0  0  0  0  0  0  0
  149.1111  140.1853  152.8198 H   0  0  0  0  0  0  0  0  0  0  0  0
  146.4691  139.6445  153.6318 H   0  0  0  0  0  0  0  0  0  0  0  0
  148.2794  137.1892  153.5729 H   0  0  0  0  0  0  0  0  0  0  0  0
  147.3981  137.7928  154.9565 H   0  0  0  0  0  0  0  0  0  0  0  0
  146.2274  135.8831  153.8804 H   0  0  0  0  0  0  0  0  0  0  0  0
  145.2309  137.3252  153.8394 H   0  0  0  0  0  0  0  0  0  0  0  0
  144.0366  136.1353  152.0345 H   0  0  0  0  0  0  0  0  0  0  0  0
  144.7870  135.9957  150.4670 H   0  0  0  0  0  0  0  0  0  0  0  0
  145.4424  134.2678  152.9220 H   0  0  0  0  0  0  0  0  0  0  0  0
  146.4318  133.9769  150.0554 H   0  0  0  0  0  0  0  0  0  0  0  0
  146.7760  132.8801  151.3902 H   0  0  0  0  0  0  0  0  0  0  0  0
  147.3924  134.5262  151.4266 H   0  0  0  0  0  0  0  0  0  0  0  0
  143.8416  133.5324  150.4194 H   0  0  0  0  0  0  0  0  0  0  0  0
  143.1783  133.7267  152.0404 H   0  0  0  0  0  0  0  0  0  0  0  0
  144.3034  132.4213  151.7046 H   0  0  0  0  0  0  0  0  0  0  0  0
  145.9340  138.0306  150.2487 H   0  0  0  0  0  0  0  0  0  0  0  0
  145.0577  138.6205  151.6436 H   0  0  0  0  0  0  0  0  0  0  0  0
  147.1000  139.9663  151.2530 H   0  0  0  0  0  0  0  0  0  0  0  0
  148.0974  138.5324  151.2900 H   0  0  0  0  0  0  0  0  0  0  0  0
  146.9185  136.3562  151.6608 H   0  0  0  0  0  0  0  0  0  0  0  0
  1  2  1  0  0  0  0
  1 21  1  0  0  0  0
  1 22  1  0  0  0  0
  1 23  1  0  0  0  0
  2 20  1  0  0  0  0
  2  3  2  0  0  0  0
  3  4  1  0  0  0  0
  3 24  1  0  0  0  0
  4  5  1  0  0  0  0
  4 19  2  0  0  0  0
  5  6  1  0  0  0  0
  6  7  2  0  0  0  0
  6  8  1  0  0  0  0
  8  9  1  0  0  0  0
  8 25  1  0  0  0  0
  9 18  1  0  0  0  0
  9 10  1  0  0  0  0
  9 26  1  0  0  0  0
 10 11  1  0  0  0  0
 10 27  1  0  0  0  0
 10 28  1  0  0  0  0
 11 12  1  0  0  0  0
 11 29  1  0  0  0  0
 11 30  1  0  0  0  0
 12 13  1  0  0  0  0
 12 17  1  0  0  0  0
 12 44  1  0  0  0  0
 13 14  1  0  0  0  0
 13 31  1  0  0  0  0
 13 32  1  0  0  0  0
 14 15  1  0  0  0  0
 14 16  1  0  0  0  0
 14 33  1  0  0  0  0
 15 34  1  0  0  0  0
 15 35  1  0  0  0  0
 15 36  1  0  0  0  0
 16 37  1  0  0  0  0
 16 38  1  0  0  0  0
 16 39  1  0  0  0  0
 17 18  1  0  0  0  0
 17 40  1  0  0  0  0
 17 41  1  0  0  0  0
 18 42  1  0  0  0  0
 18 43  1  0  0  0  0
 19 20  1  0  0  0  0
M  CHG  1   5  -1
M  CHG  1  12   1
M  END
> <s_m_source_file>
AV-unprocessed.smi

> <i_m_source_file_index>
1301

> <i_lp_mmshare_version>
43012

> <i_f3d_flags>
0

> <s_epik_input>
W0NIM11jMVtjSF1jKG5vMSlbTkhdQyg9TylbTkhdW0NIXTJbQ0gyXVtDSDJdTihbQ0gyXVtDSDJdMilbQ0gyXVtDSF0oW0NIM10pW0NIM10=

> <s_epik_cmdline>
J2VwaWtfcHl0aG9uJywgJy1waCcsICc3LjAnLCAnLXRuJywgJzgnLCAnLW1hJywgJzIwMCcsICctbWV0YWxfYmluZGluZycsICctaW1hZScsICc8aW5maWxlLm1hZT4nLCAnLW9tYWUnLCAnPG91dGZpbGUubWFlPic=

> <r_epik_Ionization_Penalty>
6.28597

> <r_epik_Ionization_Penalty_Charging>
6.28587

> <r_epik_Ionization_Penalty_Neutral>
9.69304e-05

> <r_epik_State_Penalty>
6.28524

> <r_epik_Charging_Adjusted_Penalty>
12.5711

> <i_epik_Tot_Q>
0

> <i_epik_Tot_abs_Q>
2

> <r_epik_Metal_State_Penalty>
2.21973

> <b_epik_Metal_Only>
1

> <s_lp_Force_Field>
OPLS_2005

> <r_lp_Energy>
7.73982

> <b_lp_Chiralities_Consistent>
1

> <s_lp_Variant>
AV-unprocessed.smi:1301-3

> <Gold.Version>
5.8.1

> <Gold.Id.Protein>
6NUR|6NUR_protein|mol2

> <Gold.PLP.Fitness>
41.2745

> <Gold.PLP.PLP>
-29.1661

> <Gold.PLP.part.hbond>
-4.0000

> <Gold.PLP.part.metal>
0.0000

> <Gold.PLP.part.buried>
5.0146

> <Gold.PLP.part.nonpolar>
-30.0134

> <Gold.PLP.part.repulsive>
0.2633

> <Gold.PLP.ligand.clash>
0.0000

> <Gold.PLP.ligand.torsion>
0.9591

> <Gold.PLP.Chemscore.Hbond>
4.6584

> <Gold.PLP.Chemscore.CHOScore>
0.0000

> <Gold.PLP.Chemscore.Metal>
0.0000

> <Gold.Chemscore.Hbonds>
donor molecule, donor type, donor heavy atom, donor atom, acceptor molecule, acceptor atom, score
      L1  H     8    25       P1  7957  0.98
      L1  H    12    44       P1  7948  1.98
      P1  H  7989  7998       L1     5  0.68
      P1  H  7997  8009       L1    20  1.00

> <Gold.PLP.Chemscore.Internal.Correction>
0.0515

> <Gold.Rescore>
     Score         DG    S(hbond)    S(metal)    S(lipo)     H(rot)  DE(clash)    DE(int)     intcor
     14.14     -19.65       2.71        0.00      74.40       1.41       3.30       2.20       ----

> <Gold.Chemscore.Fitness>
14.1450

> <Gold.Chemscore.DG>
-19.6472

> <Gold.Chemscore.ZeroCoef>
-5.4800

> <Gold.Chemscore.Hbond>
2.7134

> <Gold.Chemscore.Metal>
0.0000

> <Gold.Chemscore.Lipo>
74.3993

> <Gold.Chemscore.Internal_Hbond>
0.0000

> <Gold.Chemscore.DEClash>
3.3013

> <Gold.Chemscore.DEInternal>
2.2009

> <Gold.Chemscore.Rot>
1.4063

> <Gold.Chemscore.Internal.Correction>
   9.000000E+99

> <Gold.Chemscore.Hbonds>
donor molecule, donor type, donor heavy atom, donor atom, acceptor molecule, acceptor atom, score
      L1  H     8    25       P1  7957  0.93
      L1  H    12    44       P1  7948  0.88
      P1  H  7989  7998       L1     5  0.11
      P1  H  7997  8009       L1    20  0.28

> <Gold.Chemscore.Hbond.Weighted>
-9.0627

> <Gold.Chemscore.Metal.Weighted>
-0.0000

> <Gold.Chemscore.Lipo.Weighted>
-8.7047

> <Gold.Chemscore.Internal_Hbond.Weighted>
0.0000

> <Gold.Chemscore.DEClash.Weighted>
3.3013

> <Gold.Chemscore.DEInternal.Weighted>
2.2009

> <Gold.Chemscore.Rot.Weighted>
3.6002

> <Gold.Chemscore.Internal.Correction.Weighted>
   9.000000E+99

> <Gold.Protein.RotatedTorsions>
[ 6907 6896 6895 6894 ] final  -54.16 input  -60.11 | X-H torsion
[ 7974 7965 7964 7962 ] final  -82.55 input  175.53 | X-H torsion
[ 8008 7997 7996 7995 ] final  169.36 input   59.86 | X-H torsion
[ 10167 10162 10161 10158 ] final -170.82 input  -65.29 | X-H torsion
[ 10718 10713 10712 10709 ] final  141.57 input   66.30 | X-H torsion
[ 10763 10752 10751 10750 ] final  -28.17 input  -60.55 | X-H torsion
[ 11005 11000 10999 10996 ] final -159.00 input  -57.11 | X-H torsion

> <Gold.Protein.ActiveResidues>
 VAL166  LYS551  ARG553  GLY616  TRP617  ASP618  TYR619  PRO620  LYS621  CYS622 
 ASP623  PHE694  ASN695  SER759  ASP760  ASP761  ALA762  ILE779  LEU786  VAL792 
 PHE793  MET794  SER795  GLU796  ALA797  LYS798  CYS799  TRP800  GLU811  SER814 

> <Gold.Protein.RotatedAtoms>
  150.8363  134.7637  159.6895 H   0  0  0  0  0  0  0  0  0  0  0  0  # atno 6907 bound_to 6896
  152.4459  134.5492  159.9872 H   0  0  0  0  0  0  0  0  0  0  0  0  # atno 6908 bound_to 6896
  151.5642  133.3361  159.3013 H   0  0  0  0  0  0  0  0  0  0  0  0  # atno 6909 bound_to 6896
  145.5318  140.9520  143.1599 H   0  0  0  0  0  0  0  0  0  0  0  0  # atno 7974 bound_to 7965
  156.1464  140.1566  156.8839 H   0  0  0  0  0  0  0  0  0  0  0  0  # atno 8008 bound_to 7997
  154.5032  140.0820  156.7878 H   0  0  0  0  0  0  0  0  0  0  0  0  # atno 8009 bound_to 7997
  155.3980  140.3413  155.4257 H   0  0  0  0  0  0  0  0  0  0  0  0  # atno 8010 bound_to 7997
  139.5839  144.1362  152.1550 H   0  0  0  0  0  0  0  0  0  0  0  0  # atno 10167 bound_to 10162
  157.3905  131.1004  151.0651 H   0  0  0  0  0  0  0  0  0  0  0  0  # atno 10718 bound_to 10713
  153.7441  135.6930  153.4960 H   0  0  0  0  0  0  0  0  0  0  0  0  # atno 10763 bound_to 10752
  153.2049  135.4423  155.0309 H   0  0  0  0  0  0  0  0  0  0  0  0  # atno 10764 bound_to 10752
  154.8210  135.3422  154.6965 H   0  0  0  0  0  0  0  0  0  0  0  0  # atno 10765 bound_to 10752
  140.6474  134.4487  157.5234 H   0  0  0  0  0  0  0  0  0  0  0  0  # atno 11005 bound_to 11000
  144.7622  139.6930  143.7230 LP  0  0  0  0  0  0  0  0  0  0  0  0  # atno 17320 bound_to 7965
  146.2039  139.5350  142.9725 LP  0  0  0  0  0  0  0  0  0  0  0  0  # atno 17321 bound_to 7965
  140.0921  144.5611  150.7047 LP  0  0  0  0  0  0  0  0  0  0  0  0  # atno 17342 bound_to 10162
  140.7113  143.2507  151.4571 LP  0  0  0  0  0  0  0  0  0  0  0  0  # atno 17343 bound_to 10162
  157.1686  130.6257  149.5633 LP  0  0  0  0  0  0  0  0  0  0  0  0  # atno 17370 bound_to 10713
  155.9797  130.4792  150.6731 LP  0  0  0  0  0  0  0  0  0  0  0  0  # atno 17371 bound_to 10713
  139.9058  134.8452  156.1712 LP  0  0  0  0  0  0  0  0  0  0  0  0  # atno 17394 bound_to 11000
  141.0562  133.6864  156.1865 LP  0  0  0  0  0  0  0  0  0  0  0  0  # atno 17395 bound_to 11000

$$$$
