AV-unprocessed.smi:2237|AV-procd|sdf|9047|dock4
  -GOLD-   2272012253D 1   1.00000     0.00000
 Structure written by MMmdl.
 55 57  0  0  0  0  0  0  0  0  3 V2000
  153.2951  142.9676  163.3686 C   0  0  0  0  0  0  0  0  0  0  0  0
  152.8281  143.2106  161.9488 C   0  0  0  0  0  0  0  0  0  0  0  0
  152.2949  144.4564  161.5637 C   0  0  0  0  0  0  0  0  0  0  0  0
  151.8789  144.6154  160.2299 C   0  0  0  0  0  0  0  0  0  0  0  0
  152.0127  143.5305  159.3419 C   0  0  0  0  0  0  0  0  0  0  0  0
  152.5589  142.3136  159.8087 C   0  0  0  0  0  0  0  0  0  0  0  0
  152.6559  141.2834  158.8354 N   0  0  0  0  0  0  0  0  0  0  0  0
  151.9543  141.1496  157.6958 C   0  0  0  0  0  0  0  0  0  0  0  0
  151.0998  141.9365  157.2874 O   0  0  0  0  0  0  0  0  0  0  0  0
  152.3011  140.0334  157.0373 N   0  0  0  0  0  0  0  0  0  0  0  0
  151.7073  139.5856  155.7806 C   0  0  2  0  0  0  0  0  0  0  0  0
  150.1747  139.5524  155.9055 C   0  0  0  0  0  0  0  0  0  0  0  0
  149.5375  138.9957  154.6189 C   0  0  0  0  0  0  0  0  0  0  0  0
  150.0291  137.6223  154.3078 N   0  3  2  0  0  0  0  0  0  0  0  0
  149.5281  136.5186  155.1968 C   0  0  2  0  0  0  0  0  0  0  0  0
  150.1261  135.1506  154.7834 C   0  0  0  0  0  0  0  0  0  0  0  0
  149.5946  133.9928  155.6455 C   0  0  0  0  0  0  0  0  0  0  0  0
  148.1160  133.9235  155.5938 N   0  3  1  0  0  0  0  0  0  0  0  0
  147.5797  132.7494  156.3157 C   0  0  0  0  0  0  0  0  0  0  0  0
  147.4991  135.1931  156.0419 C   0  0  0  0  0  0  0  0  0  0  0  0
  147.9843  136.3786  155.1901 C   0  0  0  0  0  0  0  0  0  0  0  0
  151.5106  137.6544  154.1313 C   0  0  0  0  0  0  0  0  0  0  0  0
  152.2372  138.1944  155.3800 C   0  0  0  0  0  0  0  0  0  0  0  0
  152.9561  142.1699  161.0978 N   0  0  0  0  0  0  0  0  0  0  0  0
  153.2390  143.8786  163.9650 H   0  0  0  0  0  0  0  0  0  0  0  0
  154.3290  142.6211  163.3749 H   0  0  0  0  0  0  0  0  0  0  0  0
  152.6749  142.2085  163.8462 H   0  0  0  0  0  0  0  0  0  0  0  0
  152.2061  145.2697  162.2690 H   0  0  0  0  0  0  0  0  0  0  0  0
  151.4646  145.5537  159.8921 H   0  0  0  0  0  0  0  0  0  0  0  0
  151.6987  143.6370  158.3138 H   0  0  0  0  0  0  0  0  0  0  0  0
  153.3296  140.5599  159.0376 H   0  0  0  0  0  0  0  0  0  0  0  0
  153.0112  139.4430  157.4452 H   0  0  0  0  0  0  0  0  0  0  0  0
  151.9645  140.2989  154.9947 H   0  0  0  0  0  0  0  0  0  0  0  0
  149.8766  138.9479  156.7631 H   0  0  0  0  0  0  0  0  0  0  0  0
  149.7982  140.5587  156.0936 H   0  0  0  0  0  0  0  0  0  0  0  0
  148.4511  139.0461  154.6598 H   0  0  0  0  0  0  0  0  0  0  0  0
  149.8070  139.6460  153.7851 H   0  0  0  0  0  0  0  0  0  0  0  0
  149.8287  136.7320  156.2226 H   0  0  0  0  0  0  0  0  0  0  0  0
  149.9017  134.9528  153.7340 H   0  0  0  0  0  0  0  0  0  0  0  0
  151.2110  135.1481  154.8708 H   0  0  0  0  0  0  0  0  0  0  0  0
  150.0154  133.0514  155.2889 H   0  0  0  0  0  0  0  0  0  0  0  0
  149.9205  134.1136  156.6800 H   0  0  0  0  0  0  0  0  0  0  0  0
  147.8120  132.8029  157.3801 H   0  0  0  0  0  0  0  0  0  0  0  0
  148.0038  131.8264  155.9188 H   0  0  0  0  0  0  0  0  0  0  0  0
  146.4963  132.6907  156.2043 H   0  0  0  0  0  0  0  0  0  0  0  0
  146.4134  135.1156  155.9704 H   0  0  0  0  0  0  0  0  0  0  0  0
  147.7360  135.3644  157.0935 H   0  0  0  0  0  0  0  0  0  0  0  0
  147.5112  137.2740  155.5923 H   0  0  0  0  0  0  0  0  0  0  0  0
  147.6248  136.2626  154.1665 H   0  0  0  0  0  0  0  0  0  0  0  0
  151.9112  136.6827  153.8515 H   0  0  0  0  0  0  0  0  0  0  0  0
  151.7348  138.3053  153.2852 H   0  0  0  0  0  0  0  0  0  0  0  0
  153.3077  138.2490  155.1772 H   0  0  0  0  0  0  0  0  0  0  0  0
  152.1263  137.4971  156.2105 H   0  0  0  0  0  0  0  0  0  0  0  0
  149.6490  137.4107  153.3959 H   0  0  0  0  0  0  0  0  0  0  0  0
  147.8623  133.8006  154.6235 H   0  0  0  0  0  0  0  0  0  0  0  0
  1  2  1  0  0  0  0
  1 25  1  0  0  0  0
  1 26  1  0  0  0  0
  1 27  1  0  0  0  0
  2 24  1  0  0  0  0
  2  3  2  0  0  0  0
  3  4  1  0  0  0  0
  3 28  1  0  0  0  0
  4  5  2  0  0  0  0
  4 29  1  0  0  0  0
  5  6  1  0  0  0  0
  5 30  1  0  0  0  0
  6  7  1  0  0  0  0
  6 24  2  0  0  0  0
  7  8  1  0  0  0  0
  7 31  1  0  0  0  0
  8  9  2  0  0  0  0
  8 10  1  0  0  0  0
 10 11  1  0  0  0  0
 10 32  1  0  0  0  0
 11 23  1  0  0  0  0
 11 12  1  0  0  0  0
 11 33  1  0  0  0  0
 12 13  1  0  0  0  0
 12 34  1  0  0  0  0
 12 35  1  0  0  0  0
 13 14  1  0  0  0  0
 13 36  1  0  0  0  0
 13 37  1  0  0  0  0
 14 15  1  0  0  0  0
 14 22  1  0  0  0  0
 14 54  1  0  0  0  0
 15 21  1  0  0  0  0
 15 16  1  0  0  0  0
 15 38  1  0  0  0  0
 16 17  1  0  0  0  0
 16 39  1  0  0  0  0
 16 40  1  0  0  0  0
 17 18  1  0  0  0  0
 17 41  1  0  0  0  0
 17 42  1  0  0  0  0
 18 19  1  0  0  0  0
 18 20  1  0  0  0  0
 18 55  1  0  0  0  0
 19 43  1  0  0  0  0
 19 44  1  0  0  0  0
 19 45  1  0  0  0  0
 20 21  1  0  0  0  0
 20 46  1  0  0  0  0
 20 47  1  0  0  0  0
 21 48  1  0  0  0  0
 21 49  1  0  0  0  0
 22 23  1  0  0  0  0
 22 50  1  0  0  0  0
 22 51  1  0  0  0  0
 23 52  1  0  0  0  0
 23 53  1  0  0  0  0
M  CHG  1  14   1
M  CHG  1  18   1
M  END
> <s_m_source_file>
AV-unprocessed.smi

> <i_m_source_file_index>
2237

> <i_lp_mmshare_version>
43012

> <i_f3d_flags>
0

> <s_epik_input>
W0NIM11jMVtjSF1bY0hdW2NIXWMobjEpW05IXUMoPU8pW05IXVtDSF0yW0NIMl1bQ0gyXU4oW0NIMl1bQ0gyXTIpW0NIXTNbQ0gyXVtDSDJdTihbQ0gzXSlbQ0gyXVtDSDJdMw==

> <s_epik_cmdline>
J2VwaWtfcHl0aG9uJywgJy1waCcsICc3LjAnLCAnLXRuJywgJzgnLCAnLW1hJywgJzIwMCcsICctbWV0YWxfYmluZGluZycsICctaW1hZScsICc8aW5maWxlLm1hZT4nLCAnLW9tYWUnLCAnPG91dGZpbGUubWFlPic=

> <r_epik_Ionization_Penalty>
0.180851

> <r_epik_Ionization_Penalty_Charging>
0.180787

> <r_epik_Ionization_Penalty_Neutral>
6.38624e-05

> <r_epik_State_Penalty>
0.153592

> <r_epik_Charging_Adjusted_Penalty>
0.334379

> <i_epik_Tot_Q>
2

> <i_epik_Tot_abs_Q>
2

> <r_epik_Metal_State_Penalty>
0.153595

> <b_epik_Metal_Only>
0

> <s_lp_Force_Field>
OPLS_2005

> <r_lp_Energy>
43.8269

> <b_lp_Chiralities_Consistent>
1

> <s_lp_Variant>
AV-unprocessed.smi:2237-2

> <Gold.Version>
5.8.1

> <Gold.Id.Protein>
6NUR|6NUR_protein|mol2

> <Gold.PLP.Fitness>
48.6278

> <Gold.PLP.PLP>
-42.9863

> <Gold.PLP.part.hbond>
-1.0000

> <Gold.PLP.part.metal>
0.0000

> <Gold.PLP.part.buried>
-5.9467

> <Gold.PLP.part.nonpolar>
-37.2050

> <Gold.PLP.part.repulsive>
0.8378

> <Gold.PLP.ligand.clash>
0.0000

> <Gold.PLP.ligand.torsion>
0.2035

> <Gold.PLP.Chemscore.Hbond>
2.0000

> <Gold.PLP.Chemscore.CHOScore>
0.0000

> <Gold.PLP.Chemscore.Metal>
0.0000

> <Gold.Chemscore.Hbonds>
donor molecule, donor type, donor heavy atom, donor atom, acceptor molecule, acceptor atom, score
      L1  H    14    54       P1  7948  2.00

> <Gold.PLP.Chemscore.Internal.Correction>
0.0486

> <Gold.Rescore>
     Score         DG    S(hbond)    S(metal)    S(lipo)     H(rot)  DE(clash)    DE(int)     intcor
     15.75     -18.80       0.83        0.00     116.94       1.23       0.23       2.82       ----

> <Gold.Chemscore.Fitness>
15.7516

> <Gold.Chemscore.DG>
-18.8040

> <Gold.Chemscore.ZeroCoef>
-5.4800

> <Gold.Chemscore.Hbond>
0.8350

> <Gold.Chemscore.Metal>
0.0000

> <Gold.Chemscore.Lipo>
116.9450

> <Gold.Chemscore.Internal_Hbond>
0.0000

> <Gold.Chemscore.DEClash>
0.2276

> <Gold.Chemscore.DEInternal>
2.8247

> <Gold.Chemscore.Rot>
1.2295

> <Gold.Chemscore.Internal.Correction>
   9.000000E+99

> <Gold.Chemscore.Hbonds>
donor molecule, donor type, donor heavy atom, donor atom, acceptor molecule, acceptor atom, score
      L1  H    14    54       P1  7948  0.73

> <Gold.Chemscore.Hbond.Weighted>
-2.7889

> <Gold.Chemscore.Metal.Weighted>
-0.0000

> <Gold.Chemscore.Lipo.Weighted>
-13.6826

> <Gold.Chemscore.Internal_Hbond.Weighted>
0.0000

> <Gold.Chemscore.DEClash.Weighted>
0.2276

> <Gold.Chemscore.DEInternal.Weighted>
2.8247

> <Gold.Chemscore.Rot.Weighted>
3.1474

> <Gold.Chemscore.Internal.Correction.Weighted>
   9.000000E+99

> <Gold.Protein.RotatedTorsions>
[ 6907 6896 6895 6894 ] final  -17.89 input  -60.11 | X-H torsion
[ 7974 7965 7964 7962 ] final   56.76 input  175.53 | X-H torsion
[ 8008 7997 7996 7995 ] final -132.12 input   59.86 | X-H torsion
[ 10167 10162 10161 10158 ] final  150.99 input  -65.29 | X-H torsion
[ 10718 10713 10712 10709 ] final  152.41 input   66.30 | X-H torsion
[ 10763 10752 10751 10750 ] final   82.45 input  -60.55 | X-H torsion
[ 11005 11000 10999 10996 ] final  -18.16 input  -57.11 | X-H torsion

> <Gold.Protein.ActiveResidues>
 VAL166  LYS551  ARG553  GLY616  TRP617  ASP618  TYR619  PRO620  LYS621  CYS622 
 ASP623  PHE694  ASN695  SER759  ASP760  ASP761  ALA762  ILE779  LEU786  VAL792 
 PHE793  MET794  SER795  GLU796  ALA797  LYS798  CYS799  TRP800  GLU811  SER814 

> <Gold.Protein.RotatedAtoms>
  151.2865  135.0729  159.9188 H   0  0  0  0  0  0  0  0  0  0  0  0  # atno 6907 bound_to 6896
  152.5324  133.9976  159.7890 H   0  0  0  0  0  0  0  0  0  0  0  0  # atno 6908 bound_to 6896
  151.0239  133.5801  159.2699 H   0  0  0  0  0  0  0  0  0  0  0  0  # atno 6909 bound_to 6896
  145.9364  139.3851  143.0390 H   0  0  0  0  0  0  0  0  0  0  0  0  # atno 7974 bound_to 7965
  155.3236  140.0463  157.3040 H   0  0  0  0  0  0  0  0  0  0  0  0  # atno 8008 bound_to 7997
  154.5366  140.2274  155.8678 H   0  0  0  0  0  0  0  0  0  0  0  0  # atno 8009 bound_to 7997
  156.1841  140.3067  155.9211 H   0  0  0  0  0  0  0  0  0  0  0  0  # atno 8010 bound_to 7997
  139.4844  144.5477  151.7455 H   0  0  0  0  0  0  0  0  0  0  0  0  # atno 10167 bound_to 10162
  157.2581  131.0792  151.1684 H   0  0  0  0  0  0  0  0  0  0  0  0  # atno 10718 bound_to 10713
  153.1204  135.4728  154.9185 H   0  0  0  0  0  0  0  0  0  0  0  0  # atno 10763 bound_to 10752
  154.7569  135.3121  154.8454 H   0  0  0  0  0  0  0  0  0  0  0  0  # atno 10764 bound_to 10752
  153.9021  135.6874  153.4808 H   0  0  0  0  0  0  0  0  0  0  0  0  # atno 10765 bound_to 10752
  140.8241  133.8046  155.9689 H   0  0  0  0  0  0  0  0  0  0  0  0  # atno 11005 bound_to 11000
  145.8358  140.9606  143.0825 LP  0  0  0  0  0  0  0  0  0  0  0  0  # atno 17320 bound_to 7965
  144.6772  140.0221  143.7483 LP  0  0  0  0  0  0  0  0  0  0  0  0  # atno 17321 bound_to 7965
  140.5026  144.1146  150.5975 LP  0  0  0  0  0  0  0  0  0  0  0  0  # atno 17342 bound_to 10162
  140.4044  143.2687  151.9909 LP  0  0  0  0  0  0  0  0  0  0  0  0  # atno 17343 bound_to 10162
  157.3205  130.6935  149.6266 LP  0  0  0  0  0  0  0  0  0  0  0  0  # atno 17370 bound_to 10713
  155.9664  130.4337  150.5016 LP  0  0  0  0  0  0  0  0  0  0  0  0  # atno 17371 bound_to 10713
  140.9068  134.2310  157.5009 LP  0  0  0  0  0  0  0  0  0  0  0  0  # atno 17394 bound_to 11000
  139.8707  134.9732  156.4800 LP  0  0  0  0  0  0  0  0  0  0  0  0  # atno 17395 bound_to 11000

$$$$
