AV-unprocessed.smi:1545|AV-procd|sdf|6215|dock1
  -GOLD-   22720 6383D 1   1.00000     0.00000
 Structure written by MMmdl.
 42 44  0  0  0  0  0  0  0  0  2 V2000
  145.4538  136.1041  150.0801 O   0  0  0  0  0  0  0  0  0  0  0  0
  145.9557  137.3633  150.4717 C   0  0  0  0  0  0  0  0  0  0  0  0
  145.9039  137.4977  151.9991 C   0  0  0  0  0  0  0  0  0  0  0  0
  146.2045  138.8532  152.4302 N   0  0  0  0  0  0  0  0  0  0  0  0
  147.3932  139.0970  153.1260 C   0  0  0  0  0  0  0  0  0  0  0  0
  148.4162  138.2165  153.2914 N   0  3  0  0  0  0  0  0  0  0  0  0
  149.4101  138.8356  154.0546 C   0  0  0  0  0  0  0  0  0  0  0  0
  150.6416  138.3627  154.4973 C   0  0  0  0  0  0  0  0  0  0  0  0
  151.4223  139.2509  155.2659 C   0  0  0  0  0  0  0  0  0  0  0  0
  150.9730  140.5531  155.5677 C   0  0  0  0  0  0  0  0  0  0  0  0
  149.7237  141.0249  155.1142 C   0  0  0  0  0  0  0  0  0  0  0  0
  148.9566  140.1428  154.3544 C   0  0  0  0  0  0  0  0  0  0  0  0
  147.6971  140.2625  153.7546 N   0  0  0  0  0  0  0  0  0  0  0  0
  146.9382  141.5146  153.8929 C   0  0  0  0  0  0  0  0  0  0  0  0
  146.1163  141.5634  155.1962 C   0  0  1  0  0  0  0  0  0  0  0  0
  147.0170  141.6081  156.2831 O   0  0  0  0  0  0  0  0  0  0  0  0
  145.1322  142.7247  155.2100 C   0  0  0  0  0  0  0  0  0  0  0  0
  144.2929  142.9465  156.3243 C   0  0  0  0  0  0  0  0  0  0  0  0
  143.4053  144.0397  156.3372 C   0  0  0  0  0  0  0  0  0  0  0  0
  143.3552  144.9202  155.2395 C   0  0  0  0  0  0  0  0  0  0  0  0
  144.1928  144.7069  154.1284 C   0  0  0  0  0  0  0  0  0  0  0  0
  144.1517  145.5575  153.0758 F   0  0  0  0  0  0  0  0  0  0  0  0
  145.0767  143.6109  154.1126 C   0  0  0  0  0  0  0  0  0  0  0  0
  145.8956  135.8374  149.2881 H   0  0  0  0  0  0  0  0  0  0  0  0
  146.9909  137.4202  150.1347 H   0  0  0  0  0  0  0  0  0  0  0  0
  145.4113  138.1667  149.9735 H   0  0  0  0  0  0  0  0  0  0  0  0
  144.9358  137.1753  152.3853 H   0  0  0  0  0  0  0  0  0  0  0  0
  146.6562  136.8401  152.4361 H   0  0  0  0  0  0  0  0  0  0  0  0
  145.4699  139.5468  152.4240 H   0  0  0  0  0  0  0  0  0  0  0  0
  150.9890  137.3656  154.2690 H   0  0  0  0  0  0  0  0  0  0  0  0
  152.3856  138.9265  155.6320 H   0  0  0  0  0  0  0  0  0  0  0  0
  151.5997  141.2042  156.1597 H   0  0  0  0  0  0  0  0  0  0  0  0
  149.3886  142.0238  155.3516 H   0  0  0  0  0  0  0  0  0  0  0  0
  147.6432  142.3454  153.8437 H   0  0  0  0  0  0  0  0  0  0  0  0
  146.2879  141.6133  153.0228 H   0  0  0  0  0  0  0  0  0  0  0  0
  145.5561  140.6336  155.3013 H   0  0  0  0  0  0  0  0  0  0  0  0
  147.8682  141.3311  155.9794 H   0  0  0  0  0  0  0  0  0  0  0  0
  144.3317  142.2834  157.1761 H   0  0  0  0  0  0  0  0  0  0  0  0
  142.7674  144.2075  157.1923 H   0  0  0  0  0  0  0  0  0  0  0  0
  142.6785  145.7617  155.2525 H   0  0  0  0  0  0  0  0  0  0  0  0
  145.7213  143.4593  153.2592 H   0  0  0  0  0  0  0  0  0  0  0  0
  148.4301  137.2761  152.9187 H   0  0  0  0  0  0  0  0  0  0  0  0
  1  2  1  0  0  0  0
  1 24  1  0  0  0  0
  2  3  1  0  0  0  0
  2 25  1  0  0  0  0
  2 26  1  0  0  0  0
  3  4  1  0  0  0  0
  3 27  1  0  0  0  0
  3 28  1  0  0  0  0
  4  5  1  0  0  0  0
  4 29  1  0  0  0  0
  5 13  1  0  0  0  0
  5  6  2  0  0  0  0
  6  7  1  0  0  0  0
  6 42  1  0  0  0  0
  7 12  2  0  0  0  0
  7  8  1  0  0  0  0
  8  9  2  0  0  0  0
  8 30  1  0  0  0  0
  9 10  1  0  0  0  0
  9 31  1  0  0  0  0
 10 11  2  0  0  0  0
 10 32  1  0  0  0  0
 11 12  1  0  0  0  0
 11 33  1  0  0  0  0
 12 13  1  0  0  0  0
 13 14  1  0  0  0  0
 14 15  1  0  0  0  0
 14 34  1  0  0  0  0
 14 35  1  0  0  0  0
 15 16  1  0  0  0  0
 15 17  1  0  0  0  0
 15 36  1  0  0  0  0
 16 37  1  0  0  0  0
 17 23  1  0  0  0  0
 17 18  2  0  0  0  0
 18 19  1  0  0  0  0
 18 38  1  0  0  0  0
 19 20  2  0  0  0  0
 19 39  1  0  0  0  0
 20 21  1  0  0  0  0
 20 40  1  0  0  0  0
 21 22  1  0  0  0  0
 21 23  2  0  0  0  0
 23 41  1  0  0  0  0
M  CHG  1   6   1
M  END
> <s_m_source_file>
AV-unprocessed.smi

> <i_m_source_file_index>
1545

> <i_lp_mmshare_version>
43012

> <i_f3d_flags>
0

> <s_epik_input>
W09IXVtDSDJdW0NIMl1bTkhdYyhuMSluKGMoYzEyKVtjSF1bY0hdW2NIXVtjSF0yKVtDSDJdW0NASF0oW09IXSljM1tjSF1bY0hdW2NIXWMoRilbY0hdMw==

> <s_epik_cmdline>
J2VwaWtfcHl0aG9uJywgJy1waCcsICc3LjAnLCAnLXRuJywgJzgnLCAnLW1hJywgJzIwMCcsICctbWV0YWxfYmluZGluZycsICctaW1hZScsICc8aW5maWxlLm1hZT4nLCAnLW9tYWUnLCAnPG91dGZpbGUubWFlPic=

> <r_epik_Ionization_Penalty>
0.0688114

> <r_epik_Ionization_Penalty_Charging>
0.0688055

> <r_epik_Ionization_Penalty_Neutral>
5.85933e-06

> <r_epik_State_Penalty>
0.0602293

> <r_epik_Charging_Adjusted_Penalty>
0.129035

> <i_epik_Tot_Q>
1

> <i_epik_Tot_abs_Q>
1

> <r_epik_Metal_State_Penalty>
2.77411

> <b_epik_Metal_Only>
0

> <s_lp_Force_Field>
OPLS_2005

> <r_lp_Energy>
23.1511

> <b_lp_Chiralities_Consistent>
1

> <s_lp_Variant>
AV-unprocessed.smi:1545-2

> <Gold.Version>
5.8.1

> <Gold.Id.Protein>
6NUR|6NUR_protein|mol2

> <Gold.PLP.Fitness>
58.9576

> <Gold.PLP.PLP>
-44.8794

> <Gold.PLP.part.hbond>
-4.8963

> <Gold.PLP.part.metal>
0.0000

> <Gold.PLP.part.buried>
4.1521

> <Gold.PLP.part.nonpolar>
-45.1910

> <Gold.PLP.part.repulsive>
0.0738

> <Gold.PLP.ligand.clash>
0.0000

> <Gold.PLP.ligand.torsion>
0.4562

> <Gold.PLP.Chemscore.Hbond>
4.9840

> <Gold.PLP.Chemscore.CHOScore>
0.0000

> <Gold.PLP.Chemscore.Metal>
0.0000

> <Gold.Chemscore.Hbonds>
donor molecule, donor type, donor heavy atom, donor atom, acceptor molecule, acceptor atom, score
      L1  H     1    24       P1  7921  1.00
      L1  H     4    29       P1 10175  2.00
      L1  H     6    42       P1  7948  1.95

> <Gold.PLP.Chemscore.Internal.Correction>
0.0385

> <Gold.Rescore>
     Score         DG    S(hbond)    S(metal)    S(lipo)     H(rot)  DE(clash)    DE(int)     intcor
     15.90     -17.95       2.78        0.00      96.25       3.15       1.83       0.22       ----

> <Gold.Chemscore.Fitness>
15.9016

> <Gold.Chemscore.DG>
-17.9508

> <Gold.Chemscore.ZeroCoef>
-5.4800

> <Gold.Chemscore.Hbond>
2.7768

> <Gold.Chemscore.Metal>
0.0000

> <Gold.Chemscore.Lipo>
96.2517

> <Gold.Chemscore.Internal_Hbond>
0.0000

> <Gold.Chemscore.DEClash>
1.8321

> <Gold.Chemscore.DEInternal>
0.2171

> <Gold.Chemscore.Rot>
3.1505

> <Gold.Chemscore.Internal.Correction>
   9.000000E+99

> <Gold.Chemscore.Hbonds>
donor molecule, donor type, donor heavy atom, donor atom, acceptor molecule, acceptor atom, score
      L1  H     1    24       P1  7921  0.98
      L1  H     4    29       P1 10175  0.95
      L1  H     6    42       P1  7948  0.90

> <Gold.Chemscore.Hbond.Weighted>
-9.2745

> <Gold.Chemscore.Metal.Weighted>
-0.0000

> <Gold.Chemscore.Lipo.Weighted>
-11.2615

> <Gold.Chemscore.Internal_Hbond.Weighted>
0.0000

> <Gold.Chemscore.DEClash.Weighted>
1.8321

> <Gold.Chemscore.DEInternal.Weighted>
0.2171

> <Gold.Chemscore.Rot.Weighted>
8.0652

> <Gold.Chemscore.Internal.Correction.Weighted>
   9.000000E+99

> <Gold.Protein.RotatedTorsions>
[ 6907 6896 6895 6894 ] final  133.85 input  -60.11 | X-H torsion
[ 7974 7965 7964 7962 ] final   23.21 input  175.53 | X-H torsion
[ 8008 7997 7996 7995 ] final  141.58 input   59.86 | X-H torsion
[ 10167 10162 10161 10158 ] final   79.59 input  -65.29 | X-H torsion
[ 10718 10713 10712 10709 ] final    8.48 input   66.30 | X-H torsion
[ 10763 10752 10751 10750 ] final   68.25 input  -60.55 | X-H torsion
[ 11005 11000 10999 10996 ] final  173.54 input  -57.11 | X-H torsion

> <Gold.Protein.ActiveResidues>
 VAL166  LYS551  ARG553  GLY616  TRP617  ASP618  TYR619  PRO620  LYS621  CYS622 
 ASP623  PHE694  ASN695  SER759  ASP760  ASP761  ALA762  ILE779  LEU786  VAL792 
 PHE793  MET794  SER795  GLU796  ALA797  LYS798  CYS799  TRP800  GLU811  SER814 

> <Gold.Protein.RotatedAtoms>
  152.3176  133.5819  159.5722 H   0  0  0  0  0  0  0  0  0  0  0  0  # atno 6907 bound_to 6896
  150.7354  134.0059  159.3662 H   0  0  0  0  0  0  0  0  0  0  0  0  # atno 6908 bound_to 6896
  151.7946  135.0726  160.0443 H   0  0  0  0  0  0  0  0  0  0  0  0  # atno 6909 bound_to 6896
  146.1994  139.7776  142.8772 H   0  0  0  0  0  0  0  0  0  0  0  0  # atno 7974 bound_to 7965
  156.2963  140.2311  156.4588 H   0  0  0  0  0  0  0  0  0  0  0  0  # atno 8008 bound_to 7997
  154.8037  140.0447  157.1312 H   0  0  0  0  0  0  0  0  0  0  0  0  # atno 8009 bound_to 7997
  154.9504  140.3041  155.5081 H   0  0  0  0  0  0  0  0  0  0  0  0  # atno 8010 bound_to 7997
  139.9587  144.5976  150.8092 H   0  0  0  0  0  0  0  0  0  0  0  0  # atno 10167 bound_to 10162
  156.9522  130.5901  149.5657 H   0  0  0  0  0  0  0  0  0  0  0  0  # atno 10718 bound_to 10713
  153.0226  135.5254  154.7105 H   0  0  0  0  0  0  0  0  0  0  0  0  # atno 10763 bound_to 10752
  154.6188  135.2886  155.0351 H   0  0  0  0  0  0  0  0  0  0  0  0  # atno 10764 bound_to 10752
  154.1345  135.6587  153.4981 H   0  0  0  0  0  0  0  0  0  0  0  0  # atno 10765 bound_to 10752
  140.3416  134.7271  157.4206 H   0  0  0  0  0  0  0  0  0  0  0  0  # atno 11005 bound_to 11000
  145.3534  141.0312  143.3326 LP  0  0  0  0  0  0  0  0  0  0  0  0  # atno 17320 bound_to 7965
  144.8651  139.5120  143.6794 LP  0  0  0  0  0  0  0  0  0  0  0  0  # atno 17321 bound_to 7965
  140.7560  143.3057  151.2967 LP  0  0  0  0  0  0  0  0  0  0  0  0  # atno 17342 bound_to 10162
  139.6571  144.0256  152.2667 LP  0  0  0  0  0  0  0  0  0  0  0  0  # atno 17343 bound_to 10162
  156.0358  130.5445  150.8649 LP  0  0  0  0  0  0  0  0  0  0  0  0  # atno 17370 bound_to 10713
  157.5714  131.0946  150.9412 LP  0  0  0  0  0  0  0  0  0  0  0  0  # atno 17371 bound_to 10713
  140.0776  134.5775  155.8574 LP  0  0  0  0  0  0  0  0  0  0  0  0  # atno 17394 bound_to 11000
  141.2037  133.6633  156.6077 LP  0  0  0  0  0  0  0  0  0  0  0  0  # atno 17395 bound_to 11000

$$$$
