AV-unprocessed.smi:157|AV-procd|sdf|1320|dock9
  -GOLD-   2262019 13D 1   1.00000     0.00000
 Structure written by MMmdl.
 36 38  0  0  0  0  0  0  0  0  2 V2000
  153.2416  135.9023  157.2287 O   0  0  0  0  0  0  0  0  0  0  0  0
  153.9223  137.0382  157.7181 C   0  0  0  0  0  0  0  0  0  0  0  0
  153.5466  138.2853  156.9019 C   0  0  2  0  0  0  0  0  0  0  0  0
  152.3053  138.8040  157.3760 O   0  0  0  0  0  0  0  0  0  0  0  0
  151.5534  139.3142  156.3146 C   0  0  1  0  0  0  0  0  0  0  0  0
  151.2490  140.7494  156.6006 N   0  0  0  0  0  0  0  0  0  0  0  0
  150.4681  141.5607  155.8562 C   0  0  0  0  0  0  0  0  0  0  0  0
  150.3590  142.7924  156.3242 N   0  3  0  0  0  0  0  0  0  0  0  0
  151.1182  142.8420  157.4741 C   0  0  0  0  0  0  0  0  0  0  0  0
  151.6530  141.5611  157.6362 C   0  0  0  0  0  0  0  0  0  0  0  0
  152.4856  141.0562  158.6470 N   0  0  0  0  0  0  0  0  0  0  0  0
  152.6776  141.6635  159.7729 C   0  0  0  0  0  0  0  0  0  0  0  0
  152.2224  142.9043  160.1870 N   0  0  0  0  0  0  0  0  0  0  0  0
  152.2834  144.0933  159.3555 C   0  0  0  0  0  0  0  0  0  0  0  0
  151.2272  144.1212  158.2434 C   0  0  2  0  0  0  0  0  0  0  0  0
  149.9935  144.5257  158.8004 O   0  0  0  0  0  0  0  0  0  0  0  0
  152.4033  139.1912  155.0502 C   0  0  0  0  0  0  0  0  0  0  0  0
  153.3024  138.0284  155.4107 C   0  0  1  0  0  0  0  0  0  0  0  0
  154.4935  138.0682  154.6521 O   0  0  0  0  0  0  0  0  0  0  0  0
  154.2941  139.0701  157.0338 H   0  0  0  0  0  0  0  0  0  0  0  0
  150.5926  138.8023  156.2538 H   0  0  0  0  0  0  0  0  0  0  0  0
  151.5102  144.9053  157.5402 H   0  0  0  0  0  0  0  0  0  0  0  0
  152.7810  137.0825  155.2554 H   0  0  0  0  0  0  0  0  0  0  0  0
  152.9770  135.3700  157.9638 H   0  0  0  0  0  0  0  0  0  0  0  0
  153.6931  137.1778  158.7752 H   0  0  0  0  0  0  0  0  0  0  0  0
  154.9937  136.8516  157.6424 H   0  0  0  0  0  0  0  0  0  0  0  0
  149.9796  141.2274  154.9580 H   0  0  0  0  0  0  0  0  0  0  0  0
  153.2829  141.1752  160.5380 H   0  0  0  0  0  0  0  0  0  0  0  0
  152.2774  143.1369  161.1686 H   0  0  0  0  0  0  0  0  0  0  0  0
  152.2089  144.9828  159.9818 H   0  0  0  0  0  0  0  0  0  0  0  0
  153.2754  144.1246  158.9024 H   0  0  0  0  0  0  0  0  0  0  0  0
  149.4878  144.9641  158.1336 H   0  0  0  0  0  0  0  0  0  0  0  0
  151.7834  139.0178  154.1702 H   0  0  0  0  0  0  0  0  0  0  0  0
  152.9865  140.1025  154.9032 H   0  0  0  0  0  0  0  0  0  0  0  0
  154.3275  137.6663  153.8123 H   0  0  0  0  0  0  0  0  0  0  0  0
  149.8275  143.5479  155.9105 H   0  0  0  0  0  0  0  0  0  0  0  0
  1  2  1  0  0  0  0
  1 24  1  0  0  0  0
  2  3  1  0  0  0  0
  2 25  1  0  0  0  0
  2 26  1  0  0  0  0
  3 20  1  0  0  0  0
  3 18  1  0  0  0  0
  3  4  1  0  0  0  0
  4  5  1  0  0  0  0
  5 21  1  0  0  0  0
  5  6  1  0  0  0  0
  5 17  1  0  0  0  0
  6 10  1  0  0  0  0
  6  7  1  0  0  0  0
  7  8  2  0  0  0  0
  7 27  1  0  0  0  0
  8  9  1  0  0  0  0
  8 36  1  0  0  0  0
  9 15  1  0  0  0  0
  9 10  2  0  0  0  0
 10 11  1  0  0  0  0
 11 12  2  0  0  0  0
 12 13  1  0  0  0  0
 12 28  1  0  0  0  0
 13 14  1  0  0  0  0
 13 29  1  0  0  0  0
 14 15  1  0  0  0  0
 14 30  1  0  0  0  0
 14 31  1  0  0  0  0
 15 22  1  0  0  0  0
 15 16  1  0  0  0  0
 16 32  1  0  0  0  0
 17 18  1  0  0  0  0
 17 33  1  0  0  0  0
 17 34  1  0  0  0  0
 18 23  1  0  0  0  0
 18 19  1  0  0  0  0
 19 35  1  0  0  0  0
M  CHG  1   8   1
M  END
> <s_m_source_file>
AV-unprocessed.smi

> <i_m_source_file_index>
157

> <i_lp_mmshare_version>
43012

> <i_f3d_flags>
0

> <s_epik_input>
W09IXVtDSDJdW0NASF0xT1tDQEhdKFtDSDJdW0NAQEhdMVtPSF0pbihbY0hdbjIpYyhjMjMpTj1bQ0hdW05IXVtDSDJdW0NASF0zW09IXQ==

> <s_epik_cmdline>
J2VwaWtfcHl0aG9uJywgJy1waCcsICc3LjAnLCAnLXRuJywgJzgnLCAnLW1hJywgJzIwMCcsICctbWV0YWxfYmluZGluZycsICctaW1hZScsICc8aW5maWxlLm1hZT4nLCAnLW9tYWUnLCAnPG91dGZpbGUubWFlPic=

> <r_epik_Ionization_Penalty>
1.68594

> <r_epik_Ionization_Penalty_Charging>
0

> <r_epik_Ionization_Penalty_Neutral>
1.68594

> <r_epik_State_Penalty>
1.79006

> <r_epik_Charging_Adjusted_Penalty>
1.79006

> <i_epik_Tot_Q>
1

> <i_epik_Tot_abs_Q>
1

> <r_epik_Metal_State_Penalty>
5.85324

> <b_epik_Metal_Only>
0

> <s_epik_Chemistry_Notes>
This compound has an imine and may undergo hydrolysis. This compound contains an acetal/aminal-like group ( X-CH(R)-Y where X, Y are N, S, or O) that may be acid/base labile, releasing an aldehyde.

> <s_lp_Force_Field>
OPLS_2005

> <r_lp_Energy>
53.8289

> <b_lp_Chiralities_Consistent>
1

> <s_lp_Variant>
AV-unprocessed.smi:157-30

> <Gold.Version>
5.8.1

> <Gold.Id.Protein>
6NUR|6NUR_protein|mol2

> <Gold.PLP.Fitness>
43.9166

> <Gold.PLP.PLP>
-32.6213

> <Gold.PLP.part.hbond>
-5.0421

> <Gold.PLP.part.metal>
0.0000

> <Gold.PLP.part.buried>
-1.6225

> <Gold.PLP.part.nonpolar>
-27.1027

> <Gold.PLP.part.repulsive>
0.1756

> <Gold.PLP.ligand.clash>
0.0000

> <Gold.PLP.ligand.torsion>
0.3180

> <Gold.PLP.Chemscore.Hbond>
3.9738

> <Gold.PLP.Chemscore.CHOScore>
0.0000

> <Gold.PLP.Chemscore.Metal>
0.0000

> <Gold.Chemscore.Hbonds>
donor molecule, donor type, donor heavy atom, donor atom, acceptor molecule, acceptor atom, score
      L1  H     8    36       P1  8028  1.95
      L1  H    16    32       P1  8029  0.96
      P1  H 10752 10764       L1     1  1.00

> <Gold.PLP.Chemscore.Internal.Correction>
0.0100

> <Gold.Rescore>
     Score         DG    S(hbond)    S(metal)    S(lipo)     H(rot)  DE(clash)    DE(int)     intcor
      8.23     -11.43       2.68        0.00      54.60       3.67       1.21       1.99       ----

> <Gold.Chemscore.Fitness>
8.2329

> <Gold.Chemscore.DG>
-11.4339

> <Gold.Chemscore.ZeroCoef>
-5.4800

> <Gold.Chemscore.Hbond>
2.6797

> <Gold.Chemscore.Metal>
0.0000

> <Gold.Chemscore.Lipo>
54.6029

> <Gold.Chemscore.Internal_Hbond>
0.0000

> <Gold.Chemscore.DEClash>
1.2137

> <Gold.Chemscore.DEInternal>
1.9873

> <Gold.Chemscore.Rot>
3.6659

> <Gold.Chemscore.Internal.Correction>
   9.000000E+99

> <Gold.Chemscore.Hbonds>
donor molecule, donor type, donor heavy atom, donor atom, acceptor molecule, acceptor atom, score
      L1  H     8    36       P1  8028  0.91
      L1  H    16    32       P1  8029  0.23
      P1  H 10752 10764       L1     1  0.93

> <Gold.Chemscore.Hbond.Weighted>
-8.9502

> <Gold.Chemscore.Metal.Weighted>
-0.0000

> <Gold.Chemscore.Lipo.Weighted>
-6.3885

> <Gold.Chemscore.Internal_Hbond.Weighted>
0.0000

> <Gold.Chemscore.DEClash.Weighted>
1.2137

> <Gold.Chemscore.DEInternal.Weighted>
1.9873

> <Gold.Chemscore.Rot.Weighted>
9.3848

> <Gold.Chemscore.Internal.Correction.Weighted>
   9.000000E+99

> <Gold.Protein.RotatedTorsions>
[ 6907 6896 6895 6894 ] final  106.36 input  -60.11 | X-H torsion
[ 7974 7965 7964 7962 ] final -157.45 input  175.53 | X-H torsion
[ 8008 7997 7996 7995 ] final   51.89 input   59.86 | X-H torsion
[ 10167 10162 10161 10158 ] final    9.19 input  -65.29 | X-H torsion
[ 10718 10713 10712 10709 ] final  173.27 input   66.30 | X-H torsion
[ 10763 10752 10751 10750 ] final   -3.18 input  -60.55 | X-H torsion
[ 11005 11000 10999 10996 ] final  111.51 input  -57.11 | X-H torsion

> <Gold.Protein.ActiveResidues>
 VAL166  LYS551  ARG553  GLY616  TRP617  ASP618  TYR619  PRO620  LYS621  CYS622 
 ASP623  PHE694  ASN695  SER759  ASP760  ASP761  ALA762  ILE779  LEU786  VAL792 
 PHE793  MET794  SER795  GLU796  ALA797  LYS798  CYS799  TRP800  GLU811  SER814 

> <Gold.Protein.RotatedAtoms>
  152.5196  133.9392  159.7617 H   0  0  0  0  0  0  0  0  0  0  0  0  # atno 6907 bound_to 6896
  150.9726  133.6320  159.2742 H   0  0  0  0  0  0  0  0  0  0  0  0  # atno 6908 bound_to 6896
  151.3526  135.0893  159.9461 H   0  0  0  0  0  0  0  0  0  0  0  0  # atno 6909 bound_to 6896
  144.7548  140.3967  143.6021 H   0  0  0  0  0  0  0  0  0  0  0  0  # atno 7974 bound_to 7965
  155.4428  140.3455  155.4292 H   0  0  0  0  0  0  0  0  0  0  0  0  # atno 8008 bound_to 7997
  156.1268  140.1503  156.9154 H   0  0  0  0  0  0  0  0  0  0  0  0  # atno 8009 bound_to 7997
  154.4864  140.0854  156.7476 H   0  0  0  0  0  0  0  0  0  0  0  0  # atno 8010 bound_to 7997
  140.6269  143.8080  150.7245 H   0  0  0  0  0  0  0  0  0  0  0  0  # atno 10167 bound_to 10162
  156.9667  131.0077  151.2915 H   0  0  0  0  0  0  0  0  0  0  0  0  # atno 10718 bound_to 10713
  153.3679  135.6993  153.6661 H   0  0  0  0  0  0  0  0  0  0  0  0  # atno 10763 bound_to 10752
  153.5323  135.3590  155.2681 H   0  0  0  0  0  0  0  0  0  0  0  0  # atno 10764 bound_to 10752
  154.8677  135.4183  154.2951 H   0  0  0  0  0  0  0  0  0  0  0  0  # atno 10765 bound_to 10752
  139.8905  134.9509  156.6444 H   0  0  0  0  0  0  0  0  0  0  0  0  # atno 11005 bound_to 11000
  145.6819  139.1620  143.2696 LP  0  0  0  0  0  0  0  0  0  0  0  0  # atno 17320 bound_to 7965
  146.1544  140.6879  142.9307 LP  0  0  0  0  0  0  0  0  0  0  0  0  # atno 17321 bound_to 7965
  140.1683  143.4216  152.2019 LP  0  0  0  0  0  0  0  0  0  0  0  0  # atno 17342 bound_to 10162
  139.5488  144.7321  151.4498 LP  0  0  0  0  0  0  0  0  0  0  0  0  # atno 17343 bound_to 10162
  157.5621  130.8252  149.8279 LP  0  0  0  0  0  0  0  0  0  0  0  0  # atno 17370 bound_to 10713
  156.0300  130.3767  150.1715 LP  0  0  0  0  0  0  0  0  0  0  0  0  # atno 17371 bound_to 10713
  140.7569  133.8850  155.8389 LP  0  0  0  0  0  0  0  0  0  0  0  0  # atno 17394 bound_to 11000
  140.9954  134.1222  157.4368 LP  0  0  0  0  0  0  0  0  0  0  0  0  # atno 17395 bound_to 11000

$$$$
