AV-unprocessed.smi:69|AV-procd|sdf|646|dock10
  -GOLD-   2262016543D 1   1.00000     0.00000
 Structure written by MMmdl.
 32 34  0  0  0  0  0  0  0  0  1 V2000
  146.1576  133.4110  153.0454 N   0  0  0  0  0  0  0  0  0  0  0  0
  145.8873  134.7218  152.9801 C   0  0  0  0  0  0  0  0  0  0  0  0
  144.9407  135.1401  152.1076 N   0  0  0  0  0  0  0  0  0  0  0  0
  144.6524  136.4431  152.0248 C   0  0  0  0  0  0  0  0  0  0  0  0
  145.1815  137.4606  152.7087 N   0  0  0  0  0  0  0  0  0  0  0  0
  146.1349  137.0372  153.5894 C   0  0  0  0  0  0  0  0  0  0  0  0
  146.5444  135.6886  153.7826 C   0  0  0  0  0  0  0  0  0  0  0  0
  147.5345  135.6284  154.7538 N   0  0  0  0  0  0  0  0  0  0  0  0
  147.6979  136.8738  155.1121 C   0  0  0  0  0  0  0  0  0  0  0  0
  146.8921  137.7871  154.4676 N   0  0  0  0  0  0  0  0  0  0  0  0
  146.8447  139.2697  154.6755 C   0  0  1  0  0  0  0  0  0  0  0  0
  147.6838  139.5960  155.7379 O   0  0  0  0  0  0  0  0  0  0  0  0
  148.2829  140.8609  155.4850 C   0  0  1  0  0  0  0  0  0  0  0  0
  149.5288  141.0672  156.3642 C   0  0  0  0  0  0  0  0  0  0  0  0
  150.1500  142.2939  156.0446 O   0  0  0  0  0  0  0  0  0  0  0  0
  148.5349  140.8315  153.9699 C   0  0  1  0  0  0  0  0  0  0  0  0
  149.7588  140.1833  153.6670 O   0  0  0  0  0  0  0  0  0  0  0  0
  147.3184  140.0713  153.4436 C   0  0  1  0  0  0  0  0  0  0  0  0
  147.5844  139.3120  152.2748 O   0  0  0  0  0  0  0  0  0  0  0  0
  145.8074  139.4798  154.9410 H   0  0  0  0  0  0  0  0  0  0  0  0
  147.5450  141.6392  155.6902 H   0  0  0  0  0  0  0  0  0  0  0  0
  148.5833  141.8381  153.5535 H   0  0  0  0  0  0  0  0  0  0  0  0
  146.5281  140.7854  153.2084 H   0  0  0  0  0  0  0  0  0  0  0  0
  146.8588  133.0738  153.6894 H   0  0  0  0  0  0  0  0  0  0  0  0
  145.6569  132.7635  152.4545 H   0  0  0  0  0  0  0  0  0  0  0  0
  143.8881  136.7092  151.3099 H   0  0  0  0  0  0  0  0  0  0  0  0
  148.4139  137.1624  155.8678 H   0  0  0  0  0  0  0  0  0  0  0  0
  149.2765  141.0353  157.4246 H   0  0  0  0  0  0  0  0  0  0  0  0
  150.2564  140.2768  156.1773 H   0  0  0  0  0  0  0  0  0  0  0  0
  149.5048  142.9816  156.1073 H   0  0  0  0  0  0  0  0  0  0  0  0
  149.7093  139.8539  152.7824 H   0  0  0  0  0  0  0  0  0  0  0  0
  148.4785  139.4689  152.0121 H   0  0  0  0  0  0  0  0  0  0  0  0
  1  2  1  0  0  0  0
  1 24  1  0  0  0  0
  1 25  1  0  0  0  0
  2  7  1  0  0  0  0
  2  3  2  0  0  0  0
  3  4  1  0  0  0  0
  4  5  2  0  0  0  0
  4 26  1  0  0  0  0
  5  6  1  0  0  0  0
  6 10  1  0  0  0  0
  6  7  2  0  0  0  0
  7  8  1  0  0  0  0
  8  9  2  0  0  0  0
  9 10  1  0  0  0  0
  9 27  1  0  0  0  0
 10 11  1  0  0  0  0
 11 20  1  0  0  0  0
 11 18  1  0  0  0  0
 11 12  1  0  0  0  0
 12 13  1  0  0  0  0
 13 21  1  0  0  0  0
 13 14  1  0  0  0  0
 13 16  1  0  0  0  0
 14 15  1  0  0  0  0
 14 28  1  0  0  0  0
 14 29  1  0  0  0  0
 15 30  1  0  0  0  0
 16 22  1  0  0  0  0
 16 17  1  0  0  0  0
 16 18  1  0  0  0  0
 17 31  1  0  0  0  0
 18 23  1  0  0  0  0
 18 19  1  0  0  0  0
 19 32  1  0  0  0  0
M  END
> <s_m_source_file>
AV-unprocessed.smi

> <i_m_source_file_index>
69

> <i_lp_mmshare_version>
43012

> <i_f3d_flags>
0

> <s_epik_input>
bjFbY0hdbmMoW05IMl0pYyhjMTIpbltjSF1uMltDQEBIXTNPW0NASF0oW0NIMl1bT0hdKVtDQEBIXShbT0hdKVtDQEhdM1tPSF0=

> <s_epik_cmdline>
J2VwaWtfcHl0aG9uJywgJy1waCcsICc3LjAnLCAnLXRuJywgJzgnLCAnLW1hJywgJzIwMCcsICctbWV0YWxfYmluZGluZycsICctaW1hZScsICc8aW5maWxlLm1hZT4nLCAnLW9tYWUnLCAnPG91dGZpbGUubWFlPic=

> <r_lp_tautomer_probability>
1

> <r_epik_Ionization_Penalty>
0.000428445

> <r_epik_Ionization_Penalty_Charging>
0

> <r_epik_Ionization_Penalty_Neutral>
0.000428445

> <r_epik_State_Penalty>
-0

> <r_epik_Charging_Adjusted_Penalty>
0

> <i_epik_Tot_Q>
0

> <i_epik_Tot_abs_Q>
0

> <r_epik_Metal_State_Penalty>
-0

> <b_epik_Metal_Only>
0

> <s_epik_Chemistry_Notes>
This compound contains an acetal/aminal-like group ( X-CH(R)-Y where X, Y are N, S, or O) that may be acid/base labile, releasing an aldehyde.

> <s_lp_Force_Field>
OPLS_2005

> <r_lp_Energy>
45.7014

> <b_lp_Chiralities_Consistent>
1

> <s_lp_Variant>
AV-unprocessed.smi:69-4

> <Gold.Version>
5.8.1

> <Gold.Id.Protein>
6NUR|6NUR_protein|mol2

> <Gold.PLP.Fitness>
31.2331

> <Gold.PLP.PLP>
-18.0106

> <Gold.PLP.part.hbond>
-3.7241

> <Gold.PLP.part.metal>
0.0000

> <Gold.PLP.part.buried>
-3.4008

> <Gold.PLP.part.nonpolar>
-10.9570

> <Gold.PLP.part.repulsive>
0.4013

> <Gold.PLP.ligand.clash>
0.0000

> <Gold.PLP.ligand.torsion>
0.0658

> <Gold.PLP.Chemscore.Hbond>
3.4736

> <Gold.PLP.Chemscore.CHOScore>
0.9769

> <Gold.PLP.Chemscore.Metal>
0.0000

> <Gold.Chemscore.Hbonds>
donor molecule, donor type, donor heavy atom, donor atom, acceptor molecule, acceptor atom, score
      L1  H    15    30       P1  8028  1.00
      L1  H    17    31       P1  7957  1.00
      L1  H    19    32       P1  7957  0.94
      P1  H  7989  7998       L1    17  0.46
      L1  C     4    26       P1 10171  0.97

> <Gold.PLP.Chemscore.Internal.Correction>
0.0026

> <Gold.Rescore>
     Score         DG    S(hbond)    S(metal)    S(lipo)     H(rot)  DE(clash)    DE(int)     intcor
      7.84      -8.18       2.99        0.00      25.88       4.03       0.02       0.32       ----

> <Gold.Chemscore.Fitness>
7.8448

> <Gold.Chemscore.DG>
-8.1801

> <Gold.Chemscore.ZeroCoef>
-5.4800

> <Gold.Chemscore.Hbond>
2.9889

> <Gold.Chemscore.Metal>
0.0000

> <Gold.Chemscore.Lipo>
25.8805

> <Gold.Chemscore.Internal_Hbond>
0.0000

> <Gold.Chemscore.DEClash>
0.0174

> <Gold.Chemscore.DEInternal>
0.3179

> <Gold.Chemscore.Rot>
4.0277

> <Gold.Chemscore.Internal.Correction>
   9.000000E+99

> <Gold.Chemscore.Hbonds>
donor molecule, donor type, donor heavy atom, donor atom, acceptor molecule, acceptor atom, score
      L1  H    15    30       P1  8028  0.95
      L1  H    17    31       P1  7957  0.96
      L1  H    19    32       P1  7957  0.88
      P1  H  7989  7998       L1    17  0.05

> <Gold.Chemscore.Hbond.Weighted>
-9.9831

> <Gold.Chemscore.Metal.Weighted>
-0.0000

> <Gold.Chemscore.Lipo.Weighted>
-3.0280

> <Gold.Chemscore.Internal_Hbond.Weighted>
0.0000

> <Gold.Chemscore.DEClash.Weighted>
0.0174

> <Gold.Chemscore.DEInternal.Weighted>
0.3179

> <Gold.Chemscore.Rot.Weighted>
10.3110

> <Gold.Chemscore.Internal.Correction.Weighted>
   9.000000E+99

> <Gold.Protein.RotatedTorsions>
[ 6907 6896 6895 6894 ] final  -26.80 input  -60.11 | X-H torsion
[ 7974 7965 7964 7962 ] final   81.96 input  175.53 | X-H torsion
[ 8008 7997 7996 7995 ] final -116.73 input   59.86 | X-H torsion
[ 10167 10162 10161 10158 ] final  -17.17 input  -65.29 | X-H torsion
[ 10718 10713 10712 10709 ] final -150.46 input   66.30 | X-H torsion
[ 10763 10752 10751 10750 ] final   71.19 input  -60.55 | X-H torsion
[ 11005 11000 10999 10996 ] final  138.44 input  -57.11 | X-H torsion

> <Gold.Protein.ActiveResidues>
 VAL166  LYS551  ARG553  GLY616  TRP617  ASP618  TYR619  PRO620  LYS621  CYS622 
 ASP623  PHE694  ASN695  SER759  ASP760  ASP761  ALA762  ILE779  LEU786  VAL792 
 PHE793  MET794  SER795  GLU796  ALA797  LYS798  CYS799  TRP800  GLU811  SER814 

> <Gold.Protein.RotatedAtoms>
  151.1558  135.0249  159.8688 H   0  0  0  0  0  0  0  0  0  0  0  0  # atno 6907 bound_to 6896
  152.5452  134.1336  159.8459 H   0  0  0  0  0  0  0  0  0  0  0  0  # atno 6908 bound_to 6896
  151.1426  133.4915  159.2629 H   0  0  0  0  0  0  0  0  0  0  0  0  # atno 6909 bound_to 6896
  145.6313  139.2405  143.2083 H   0  0  0  0  0  0  0  0  0  0  0  0  # atno 7974 bound_to 7965
  155.0725  140.0393  157.2613 H   0  0  0  0  0  0  0  0  0  0  0  0  # atno 8008 bound_to 7997
  154.6971  140.2665  155.6731 H   0  0  0  0  0  0  0  0  0  0  0  0  # atno 8009 bound_to 7997
  156.2748  140.2748  156.1569 H   0  0  0  0  0  0  0  0  0  0  0  0  # atno 8010 bound_to 7997
  140.7244  143.5042  150.9831 H   0  0  0  0  0  0  0  0  0  0  0  0  # atno 10167 bound_to 10162
  156.4465  130.8147  151.2377 H   0  0  0  0  0  0  0  0  0  0  0  0  # atno 10718 bound_to 10713
  153.0384  135.5146  154.7555 H   0  0  0  0  0  0  0  0  0  0  0  0  # atno 10763 bound_to 10752
  154.6512  135.2925  154.9986 H   0  0  0  0  0  0  0  0  0  0  0  0  # atno 10764 bound_to 10752
  154.0870  135.6656  153.4899 H   0  0  0  0  0  0  0  0  0  0  0  0  # atno 10765 bound_to 10752
  140.0184  134.9408  157.0423 H   0  0  0  0  0  0  0  0  0  0  0  0  # atno 11005 bound_to 11000
  146.1355  140.7129  142.9392 LP  0  0  0  0  0  0  0  0  0  0  0  0  # atno 17320 bound_to 7965
  144.7193  140.4317  143.7020 LP  0  0  0  0  0  0  0  0  0  0  0  0  # atno 17321 bound_to 7965
  139.8753  143.7141  152.3162 LP  0  0  0  0  0  0  0  0  0  0  0  0  # atno 17342 bound_to 10162
  139.7404  144.7561  151.0662 LP  0  0  0  0  0  0  0  0  0  0  0  0  # atno 17343 bound_to 10162
  157.7504  131.0152  150.3493 LP  0  0  0  0  0  0  0  0  0  0  0  0  # atno 17370 bound_to 10713
  156.3862  130.3889  149.7064 LP  0  0  0  0  0  0  0  0  0  0  0  0  # atno 17371 bound_to 10713
  140.4431  134.1661  155.7175 LP  0  0  0  0  0  0  0  0  0  0  0  0  # atno 17394 bound_to 11000
  141.1758  133.8517  157.1426 LP  0  0  0  0  0  0  0  0  0  0  0  0  # atno 17395 bound_to 11000

$$$$
