AV-unprocessed.smi:1465|AV-procd|sdf|5952|dock8
  -GOLD-   22720 6 33D 1   1.00000     0.00000
 Structure written by MMmdl.
 54 55  0  0  0  0  0  0  0  0  2 V2000
  152.9092  142.8915  161.7361 C   0  0  0  0  0  0  0  0  0  0  0  0
  153.2079  143.0836  160.3642 O   0  0  0  0  0  0  0  0  0  0  0  0
  153.4260  141.8606  159.6816 C   0  0  0  0  0  0  0  0  0  0  0  0
  152.1213  141.0504  159.6801 C   0  0  0  0  0  0  0  0  0  0  0  0
  151.7615  140.6217  158.3222 N   0  0  0  0  0  0  0  0  0  0  0  0
  150.5604  141.1304  157.7917 C   0  0  0  0  0  0  0  0  0  0  0  0
  150.1164  140.7998  156.5633 C   0  0  0  0  0  0  0  0  0  0  0  0
  148.8505  141.3541  156.0784 C   0  0  0  0  0  0  0  0  0  0  0  0
  148.1122  142.0888  156.7358 O   0  0  0  0  0  0  0  0  0  0  0  0
  148.5460  140.9860  154.8219 N   0  0  0  0  0  0  0  0  0  0  0  0
  147.3402  141.3683  154.0882 C   0  0  2  0  0  0  0  0  0  0  0  0
  146.0925  141.1578  154.9624 C   0  0  0  0  0  0  0  0  0  0  0  0
  145.7725  139.6653  155.1650 C   0  0  0  0  0  0  0  0  0  0  0  0
  145.6241  138.9638  153.8618 N   0  3  2  0  0  0  0  0  0  0  0  0
  145.1911  137.5486  153.9992 C   0  0  0  0  0  0  0  0  0  0  0  0
  144.1618  137.1192  152.9306 C   0  0  0  0  0  0  0  0  0  0  0  0
  142.7437  137.5311  153.3529 C   0  0  0  0  0  0  0  0  0  0  0  0
  144.2204  135.6079  152.6508 C   0  0  0  0  0  0  0  0  0  0  0  0
  146.8478  139.0968  153.0298 C   0  0  0  0  0  0  0  0  0  0  0  0
  147.1911  140.5752  152.7752 C   0  0  0  0  0  0  0  0  0  0  0  0
  150.9369  139.8857  155.7819 C   0  0  0  0  0  0  0  0  0  0  0  0
  152.0824  139.3895  156.2892 C   0  0  0  0  0  0  0  0  0  0  0  0
  152.5500  139.7440  157.6327 C   0  0  0  0  0  0  0  0  0  0  0  0
  153.5854  139.2773  158.1079 O   0  0  0  0  0  0  0  0  0  0  0  0
  152.7514  143.8577  162.2156 H   0  0  0  0  0  0  0  0  0  0  0  0
  153.7290  142.3892  162.2518 H   0  0  0  0  0  0  0  0  0  0  0  0
  152.0009  142.3005  161.8634 H   0  0  0  0  0  0  0  0  0  0  0  0
  153.7510  142.0582  158.6588 H   0  0  0  0  0  0  0  0  0  0  0  0
  154.2178  141.2952  160.1761 H   0  0  0  0  0  0  0  0  0  0  0  0
  152.2312  140.1804  160.3295 H   0  0  0  0  0  0  0  0  0  0  0  0
  151.3176  141.6372  160.1285 H   0  0  0  0  0  0  0  0  0  0  0  0
  150.0275  141.7942  158.4585 H   0  0  0  0  0  0  0  0  0  0  0  0
  149.1944  140.3757  154.3462 H   0  0  0  0  0  0  0  0  0  0  0  0
  147.4121  142.4317  153.8525 H   0  0  0  0  0  0  0  0  0  0  0  0
  146.2201  141.6486  155.9282 H   0  0  0  0  0  0  0  0  0  0  0  0
  145.2378  141.6424  154.4882 H   0  0  0  0  0  0  0  0  0  0  0  0
  146.5590  139.1860  155.7500 H   0  0  0  0  0  0  0  0  0  0  0  0
  144.8566  139.5833  155.7480 H   0  0  0  0  0  0  0  0  0  0  0  0
  146.0589  136.8927  153.9144 H   0  0  0  0  0  0  0  0  0  0  0  0
  144.7925  137.3926  155.0029 H   0  0  0  0  0  0  0  0  0  0  0  0
  144.3721  137.6409  151.9977 H   0  0  0  0  0  0  0  0  0  0  0  0
  142.4456  137.0392  154.2795 H   0  0  0  0  0  0  0  0  0  0  0  0
  142.0131  137.2674  152.5874 H   0  0  0  0  0  0  0  0  0  0  0  0
  142.6766  138.6079  153.5111 H   0  0  0  0  0  0  0  0  0  0  0  0
  144.0183  135.0289  153.5527 H   0  0  0  0  0  0  0  0  0  0  0  0
  145.1982  135.3078  152.2736 H   0  0  0  0  0  0  0  0  0  0  0  0
  143.4831  135.3198  151.9007 H   0  0  0  0  0  0  0  0  0  0  0  0
  147.6814  138.5908  153.5194 H   0  0  0  0  0  0  0  0  0  0  0  0
  146.6963  138.6002  152.0707 H   0  0  0  0  0  0  0  0  0  0  0  0
  146.3976  141.0246  152.1766 H   0  0  0  0  0  0  0  0  0  0  0  0
  148.0978  140.6502  152.1740 H   0  0  0  0  0  0  0  0  0  0  0  0
  150.6517  139.5858  154.7845 H   0  0  0  0  0  0  0  0  0  0  0  0
  152.6748  138.7125  155.6915 H   0  0  0  0  0  0  0  0  0  0  0  0
  144.8888  139.4356  153.3546 H   0  0  0  0  0  0  0  0  0  0  0  0
  1  2  1  0  0  0  0
  1 25  1  0  0  0  0
  1 26  1  0  0  0  0
  1 27  1  0  0  0  0
  2  3  1  0  0  0  0
  3  4  1  0  0  0  0
  3 28  1  0  0  0  0
  3 29  1  0  0  0  0
  4  5  1  0  0  0  0
  4 30  1  0  0  0  0
  4 31  1  0  0  0  0
  5 23  1  0  0  0  0
  5  6  1  0  0  0  0
  6  7  2  0  0  0  0
  6 32  1  0  0  0  0
  7  8  1  0  0  0  0
  7 21  1  0  0  0  0
  8  9  2  0  0  0  0
  8 10  1  0  0  0  0
 10 11  1  0  0  0  0
 10 33  1  0  0  0  0
 11 20  1  0  0  0  0
 11 12  1  0  0  0  0
 11 34  1  0  0  0  0
 12 13  1  0  0  0  0
 12 35  1  0  0  0  0
 12 36  1  0  0  0  0
 13 14  1  0  0  0  0
 13 37  1  0  0  0  0
 13 38  1  0  0  0  0
 14 15  1  0  0  0  0
 14 19  1  0  0  0  0
 14 54  1  0  0  0  0
 15 16  1  0  0  0  0
 15 39  1  0  0  0  0
 15 40  1  0  0  0  0
 16 17  1  0  0  0  0
 16 18  1  0  0  0  0
 16 41  1  0  0  0  0
 17 42  1  0  0  0  0
 17 43  1  0  0  0  0
 17 44  1  0  0  0  0
 18 45  1  0  0  0  0
 18 46  1  0  0  0  0
 18 47  1  0  0  0  0
 19 20  1  0  0  0  0
 19 48  1  0  0  0  0
 19 49  1  0  0  0  0
 20 50  1  0  0  0  0
 20 51  1  0  0  0  0
 21 22  2  0  0  0  0
 21 52  1  0  0  0  0
 22 23  1  0  0  0  0
 22 53  1  0  0  0  0
 23 24  2  0  0  0  0
M  CHG  1  14   1
M  END
> <s_m_source_file>
AV-unprocessed.smi

> <i_m_source_file_index>
1465

> <i_lp_mmshare_version>
43012

> <i_f3d_flags>
0

> <s_epik_input>
W0NIM11PW0NIMl1bQ0gyXW4xW2NIXWMoW2NIXVtjSF1jMT1PKUMoPU8pW05IXVtDSF0yW0NIMl1bQ0gyXU4oW0NIMl1bQ0gyXTIpW0NIMl1bQ0hdKFtDSDNdKVtDSDNd

> <s_epik_cmdline>
J2VwaWtfcHl0aG9uJywgJy1waCcsICc3LjAnLCAnLXRuJywgJzgnLCAnLW1hJywgJzIwMCcsICctbWV0YWxfYmluZGluZycsICctaW1hZScsICc8aW5maWxlLm1hZT4nLCAnLW9tYWUnLCAnPG91dGZpbGUubWFlPic=

> <r_lp_tautomer_probability>
1

> <r_epik_Ionization_Penalty>
0.00386091

> <r_epik_Ionization_Penalty_Charging>
0.0038603

> <r_epik_Ionization_Penalty_Neutral>
6.13806e-07

> <r_epik_State_Penalty>
0.00275716

> <r_epik_Charging_Adjusted_Penalty>
0.00661746

> <i_epik_Tot_Q>
1

> <i_epik_Tot_abs_Q>
1

> <r_epik_Metal_State_Penalty>
-0

> <b_epik_Metal_Only>
0

> <s_lp_Force_Field>
OPLS_2005

> <r_lp_Energy>
34.4783

> <b_lp_Chiralities_Consistent>
1

> <s_lp_Variant>
AV-unprocessed.smi:1465-2

> <Gold.Version>
5.8.1

> <Gold.Id.Protein>
6NUR|6NUR_protein|mol2

> <Gold.PLP.Fitness>
45.2705

> <Gold.PLP.PLP>
-38.6886

> <Gold.PLP.part.hbond>
-2.0000

> <Gold.PLP.part.metal>
0.0000

> <Gold.PLP.part.buried>
-2.8289

> <Gold.PLP.part.nonpolar>
-34.2192

> <Gold.PLP.part.repulsive>
0.8796

> <Gold.PLP.ligand.clash>
0.0000

> <Gold.PLP.ligand.torsion>
1.2782

> <Gold.PLP.Chemscore.Hbond>
3.0000

> <Gold.PLP.Chemscore.CHOScore>
0.0000

> <Gold.PLP.Chemscore.Metal>
0.0000

> <Gold.Chemscore.Hbonds>
donor molecule, donor type, donor heavy atom, donor atom, acceptor molecule, acceptor atom, score
      L1  H    14    54       P1 10175  2.00
      P1  H  7997  8010       L1    24  0.75

> <Gold.PLP.Chemscore.Internal.Correction>
0.1382

> <Gold.Rescore>
     Score         DG    S(hbond)    S(metal)    S(lipo)     H(rot)  DE(clash)    DE(int)     intcor
     14.66     -17.57       1.73        0.00      92.85       1.78       0.22       2.69       ----

> <Gold.Chemscore.Fitness>
14.6573

> <Gold.Chemscore.DG>
-17.5725

> <Gold.Chemscore.ZeroCoef>
-5.4800

> <Gold.Chemscore.Hbond>
1.7298

> <Gold.Chemscore.Metal>
0.0000

> <Gold.Chemscore.Lipo>
92.8536

> <Gold.Chemscore.Internal_Hbond>
0.0000

> <Gold.Chemscore.DEClash>
0.2208

> <Gold.Chemscore.DEInternal>
2.6944

> <Gold.Chemscore.Rot>
1.7769

> <Gold.Chemscore.Internal.Correction>
   9.000000E+99

> <Gold.Chemscore.Hbonds>
donor molecule, donor type, donor heavy atom, donor atom, acceptor molecule, acceptor atom, score
      L1  H    14    54       P1 10175  1.00
      P1  H  7997  8010       L1    24  0.09

> <Gold.Chemscore.Hbond.Weighted>
-5.7776

> <Gold.Chemscore.Metal.Weighted>
-0.0000

> <Gold.Chemscore.Lipo.Weighted>
-10.8639

> <Gold.Chemscore.Internal_Hbond.Weighted>
0.0000

> <Gold.Chemscore.DEClash.Weighted>
0.2208

> <Gold.Chemscore.DEInternal.Weighted>
2.6944

> <Gold.Chemscore.Rot.Weighted>
4.5490

> <Gold.Chemscore.Internal.Correction.Weighted>
   9.000000E+99

> <Gold.Protein.RotatedTorsions>
[ 6907 6896 6895 6894 ] final -138.39 input  -60.11 | X-H torsion
[ 7974 7965 7964 7962 ] final -113.42 input  175.53 | X-H torsion
[ 8008 7997 7996 7995 ] final   35.11 input   59.86 | X-H torsion
[ 10167 10162 10161 10158 ] final   62.26 input  -65.29 | X-H torsion
[ 10718 10713 10712 10709 ] final   71.60 input   66.30 | X-H torsion
[ 10763 10752 10751 10750 ] final  127.74 input  -60.55 | X-H torsion
[ 11005 11000 10999 10996 ] final -144.52 input  -57.11 | X-H torsion

> <Gold.Protein.ActiveResidues>
 VAL166  LYS551  ARG553  GLY616  TRP617  ASP618  TYR619  PRO620  LYS621  CYS622 
 ASP623  PHE694  ASN695  SER759  ASP760  ASP761  ALA762  ILE779  LEU786  VAL792 
 PHE793  MET794  SER795  GLU796  ALA797  LYS798  CYS799  TRP800  GLU811  SER814 

> <Gold.Protein.RotatedAtoms>
  151.0345  133.5761  159.2657 H   0  0  0  0  0  0  0  0  0  0  0  0  # atno 6907 bound_to 6896
  151.2830  135.0719  159.9186 H   0  0  0  0  0  0  0  0  0  0  0  0  # atno 6908 bound_to 6896
  152.5351  134.0056  159.7969 H   0  0  0  0  0  0  0  0  0  0  0  0  # atno 6909 bound_to 6896
  145.1322  140.8731  143.3751 H   0  0  0  0  0  0  0  0  0  0  0  0  # atno 7974 bound_to 7965
  155.1657  140.3287  155.4402 H   0  0  0  0  0  0  0  0  0  0  0  0  # atno 8008 bound_to 7997
  156.2527  140.1952  156.6713 H   0  0  0  0  0  0  0  0  0  0  0  0  # atno 8009 bound_to 7997
  154.6373  140.0575  156.9790 H   0  0  0  0  0  0  0  0  0  0  0  0  # atno 8010 bound_to 7997
  140.1458  144.4509  150.6786 H   0  0  0  0  0  0  0  0  0  0  0  0  # atno 10167 bound_to 10162
  157.6460  130.9536  150.0812 H   0  0  0  0  0  0  0  0  0  0  0  0  # atno 10718 bound_to 10713
  153.7143  135.3263  155.3253 H   0  0  0  0  0  0  0  0  0  0  0  0  # atno 10763 bound_to 10752
  154.8375  135.4484  154.1282 H   0  0  0  0  0  0  0  0  0  0  0  0  # atno 10764 bound_to 10752
  153.2385  135.6968  153.7889 H   0  0  0  0  0  0  0  0  0  0  0  0  # atno 10765 bound_to 10752
  140.8016  134.2850  157.4976 H   0  0  0  0  0  0  0  0  0  0  0  0  # atno 11005 bound_to 11000
  145.0623  139.3096  143.5874 LP  0  0  0  0  0  0  0  0  0  0  0  0  # atno 17320 bound_to 7965
  146.3513  140.0069  142.8671 LP  0  0  0  0  0  0  0  0  0  0  0  0  # atno 17321 bound_to 7965
  140.6732  143.2294  151.5572 LP  0  0  0  0  0  0  0  0  0  0  0  0  # atno 17342 bound_to 10162
  139.5449  144.2547  152.1424 LP  0  0  0  0  0  0  0  0  0  0  0  0  # atno 17343 bound_to 10162
  156.1788  130.3649  149.9064 LP  0  0  0  0  0  0  0  0  0  0  0  0  # atno 17370 bound_to 10713
  156.7022  130.8937  151.3600 LP  0  0  0  0  0  0  0  0  0  0  0  0  # atno 17371 bound_to 10713
  139.8721  134.9432  156.3847 LP  0  0  0  0  0  0  0  0  0  0  0  0  # atno 17394 bound_to 11000
  140.9289  133.7593  156.0000 LP  0  0  0  0  0  0  0  0  0  0  0  0  # atno 17395 bound_to 11000

$$$$
