AV-unprocessed.smi:1389|AV-procd|sdf|5647|dock1
  -GOLD-   22720 5263D 1   1.00000     0.00000
 Structure written by MMmdl.
 51 53  0  0  0  0  0  0  0  0  1 V2000
  152.7970  138.7161  154.4938 C   0  0  0  0  0  0  0  0  0  0  0  0
  151.2575  138.6407  154.3746 C   0  0  1  0  0  0  0  0  0  0  0  0
  150.7485  137.5260  155.3253 C   0  0  0  0  0  0  0  0  0  0  0  0
  149.5642  136.8547  154.7940 N   0  0  0  0  0  0  0  0  0  0  0  0
  148.3863  136.7339  155.4219 C   0  0  0  0  0  0  0  0  0  0  0  0
  148.1747  137.1387  156.5652 O   0  0  0  0  0  0  0  0  0  0  0  0
  147.4749  136.1473  154.6292 N   0  0  0  0  0  0  0  0  0  0  0  0
  146.1078  135.8768  154.9188 C   0  0  0  0  0  0  0  0  0  0  0  0
  145.5010  136.2804  156.1328 C   0  0  0  0  0  0  0  0  0  0  0  0
  144.1491  135.9687  156.3613 C   0  0  0  0  0  0  0  0  0  0  0  0
  143.4528  135.2555  155.3701 C   0  0  0  0  0  0  0  0  0  0  0  0
  144.0210  134.8493  154.2166 N   0  0  0  0  0  0  0  0  0  0  0  0
  145.3228  135.1482  153.9849 C   0  0  0  0  0  0  0  0  0  0  0  0
  145.8976  134.6851  152.7830 N   0  0  0  0  0  0  0  0  0  0  0  0
  146.0379  133.2333  152.7197 C   0  0  0  0  0  0  0  0  0  0  0  0
  145.8239  132.8446  151.2562 C   0  0  0  0  0  0  0  0  0  0  0  0
  144.8934  133.9385  150.7464 C   0  0  0  0  0  0  0  0  0  0  0  0
  145.3828  135.1720  151.5036 C   0  0  0  0  0  0  0  0  0  0  0  0
  150.5868  139.9460  154.5645 N   0  0  0  0  0  0  0  0  0  0  0  0
  149.1314  139.8578  154.4129 C   0  0  0  0  0  0  0  0  0  0  0  0
  148.4321  141.2116  154.6248 C   0  0  0  0  0  0  0  0  0  0  0  0
  148.7613  141.7243  155.9091 O   0  0  0  0  0  0  0  0  0  0  0  0
  150.1629  141.8902  156.0783 C   0  0  0  0  0  0  0  0  0  0  0  0
  150.8731  140.5410  155.8735 C   0  0  0  0  0  0  0  0  0  0  0  0
  153.2438  137.7216  154.4813 H   0  0  0  0  0  0  0  0  0  0  0  0
  153.1037  139.2019  155.4207 H   0  0  0  0  0  0  0  0  0  0  0  0
  153.2450  139.2619  153.6641 H   0  0  0  0  0  0  0  0  0  0  0  0
  151.0437  138.2995  153.3606 H   0  0  0  0  0  0  0  0  0  0  0  0
  151.5177  136.7762  155.5045 H   0  0  0  0  0  0  0  0  0  0  0  0
  150.5490  137.9465  156.3124 H   0  0  0  0  0  0  0  0  0  0  0  0
  149.6366  136.4964  153.8531 H   0  0  0  0  0  0  0  0  0  0  0  0
  147.7594  135.9713  153.6767 H   0  0  0  0  0  0  0  0  0  0  0  0
  146.0531  136.8096  156.8946 H   0  0  0  0  0  0  0  0  0  0  0  0
  143.6599  136.2657  157.2771 H   0  0  0  0  0  0  0  0  0  0  0  0
  142.4139  134.9963  155.5104 H   0  0  0  0  0  0  0  0  0  0  0  0
  147.0187  132.9161  153.0742 H   0  0  0  0  0  0  0  0  0  0  0  0
  145.2833  132.7558  153.3475 H   0  0  0  0  0  0  0  0  0  0  0  0
  146.7723  132.8869  150.7187 H   0  0  0  0  0  0  0  0  0  0  0  0
  145.4121  131.8420  151.1391 H   0  0  0  0  0  0  0  0  0  0  0  0
  144.9299  134.0623  149.6637 H   0  0  0  0  0  0  0  0  0  0  0  0
  143.8643  133.7127  151.0296 H   0  0  0  0  0  0  0  0  0  0  0  0
  144.6038  135.9298  151.5862 H   0  0  0  0  0  0  0  0  0  0  0  0
  146.2134  135.6309  150.9669 H   0  0  0  0  0  0  0  0  0  0  0  0
  148.8714  139.5087  153.4146 H   0  0  0  0  0  0  0  0  0  0  0  0
  148.7291  139.1284  155.1178 H   0  0  0  0  0  0  0  0  0  0  0  0
  148.7277  141.9243  153.8532 H   0  0  0  0  0  0  0  0  0  0  0  0
  147.3506  141.0943  154.5551 H   0  0  0  0  0  0  0  0  0  0  0  0
  150.5375  142.6344  155.3737 H   0  0  0  0  0  0  0  0  0  0  0  0
  150.3573  142.2722  157.0805 H   0  0  0  0  0  0  0  0  0  0  0  0
  150.5755  139.8523  156.6658 H   0  0  0  0  0  0  0  0  0  0  0  0
  151.9412  140.7149  155.9909 H   0  0  0  0  0  0  0  0  0  0  0  0
  1  2  1  0  0  0  0
  1 25  1  0  0  0  0
  1 26  1  0  0  0  0
  1 27  1  0  0  0  0
  2  3  1  0  0  0  0
  2 19  1  0  0  0  0
  2 28  1  0  0  0  0
  3  4  1  0  0  0  0
  3 29  1  0  0  0  0
  3 30  1  0  0  0  0
  4  5  1  0  0  0  0
  4 31  1  0  0  0  0
  5  6  2  0  0  0  0
  5  7  1  0  0  0  0
  7  8  1  0  0  0  0
  7 32  1  0  0  0  0
  8 13  1  0  0  0  0
  8  9  2  0  0  0  0
  9 10  1  0  0  0  0
  9 33  1  0  0  0  0
 10 11  2  0  0  0  0
 10 34  1  0  0  0  0
 11 12  1  0  0  0  0
 11 35  1  0  0  0  0
 12 13  2  0  0  0  0
 13 14  1  0  0  0  0
 14 18  1  0  0  0  0
 14 15  1  0  0  0  0
 15 16  1  0  0  0  0
 15 36  1  0  0  0  0
 15 37  1  0  0  0  0
 16 17  1  0  0  0  0
 16 38  1  0  0  0  0
 16 39  1  0  0  0  0
 17 18  1  0  0  0  0
 17 40  1  0  0  0  0
 17 41  1  0  0  0  0
 18 42  1  0  0  0  0
 18 43  1  0  0  0  0
 19 24  1  0  0  0  0
 19 20  1  0  0  0  0
 20 21  1  0  0  0  0
 20 44  1  0  0  0  0
 20 45  1  0  0  0  0
 21 22  1  0  0  0  0
 21 46  1  0  0  0  0
 21 47  1  0  0  0  0
 22 23  1  0  0  0  0
 23 24  1  0  0  0  0
 23 48  1  0  0  0  0
 23 49  1  0  0  0  0
 24 50  1  0  0  0  0
 24 51  1  0  0  0  0
M  END
> <s_m_source_file>
AV-unprocessed.smi

> <i_m_source_file_index>
1389

> <i_lp_mmshare_version>
43012

> <i_f3d_flags>
0

> <s_epik_input>
W0NIMl0xW0NIMl1PW0NIMl1bQ0gyXU4xW0NASF0oW0NIM10pW0NIMl1bTkhdQyg9TylbTkhdYzJbY0hdW2NIXVtjSF1uYzJOM1tDSDJdW0NIMl1bQ0gyXVtDSDJdMw==

> <s_epik_cmdline>
J2VwaWtfcHl0aG9uJywgJy1waCcsICc3LjAnLCAnLXRuJywgJzgnLCAnLW1hJywgJzIwMCcsICctbWV0YWxfYmluZGluZycsICctaW1hZScsICc8aW5maWxlLm1hZT4nLCAnLW9tYWUnLCAnPG91dGZpbGUubWFlPic=

> <r_lp_tautomer_probability>
1

> <r_epik_Ionization_Penalty>
0.365229

> <r_epik_Ionization_Penalty_Charging>
0

> <r_epik_Ionization_Penalty_Neutral>
0.365229

> <r_epik_State_Penalty>
0.350519

> <r_epik_Charging_Adjusted_Penalty>
0.350519

> <i_epik_Tot_Q>
0

> <i_epik_Tot_abs_Q>
0

> <r_epik_Metal_State_Penalty>
0.33386

> <b_epik_Metal_Only>
0

> <s_lp_Force_Field>
OPLS_2005

> <r_lp_Energy>
61.7302

> <b_lp_Chiralities_Consistent>
1

> <s_lp_Variant>
AV-unprocessed.smi:1389-2

> <Gold.Version>
5.8.1

> <Gold.Id.Protein>
6NUR|6NUR_protein|mol2

> <Gold.PLP.Fitness>
42.6289

> <Gold.PLP.PLP>
-33.9420

> <Gold.PLP.part.hbond>
-3.0000

> <Gold.PLP.part.metal>
0.0000

> <Gold.PLP.part.buried>
-6.0453

> <Gold.PLP.part.nonpolar>
-25.2134

> <Gold.PLP.part.repulsive>
0.6891

> <Gold.PLP.ligand.clash>
0.0000

> <Gold.PLP.ligand.torsion>
0.4611

> <Gold.PLP.Chemscore.Hbond>
3.0000

> <Gold.PLP.Chemscore.CHOScore>
0.1319

> <Gold.PLP.Chemscore.Metal>
0.0000

> <Gold.Chemscore.Hbonds>
donor molecule, donor type, donor heavy atom, donor atom, acceptor molecule, acceptor atom, score
      L1  H     4    31       P1  7948  0.84
      L1  H     7    32       P1  7948  0.62
      P1  H  7989  7998       L1    19  0.85
      L1  C    11    35       P1 11000  0.57

> <Gold.PLP.Chemscore.Internal.Correction>
0.2134

> <Gold.Rescore>
     Score         DG    S(hbond)    S(metal)    S(lipo)     H(rot)  DE(clash)    DE(int)     intcor
     14.45     -16.89       1.84        0.00      79.25       1.57       0.64       1.80       ----

> <Gold.Chemscore.Fitness>
14.4504

> <Gold.Chemscore.DG>
-16.8876

> <Gold.Chemscore.ZeroCoef>
-5.4800

> <Gold.Chemscore.Hbond>
1.8439

> <Gold.Chemscore.Metal>
0.0000

> <Gold.Chemscore.Lipo>
79.2550

> <Gold.Chemscore.Internal_Hbond>
0.0000

> <Gold.Chemscore.DEClash>
0.6401

> <Gold.Chemscore.DEInternal>
1.7971

> <Gold.Chemscore.Rot>
1.5718

> <Gold.Chemscore.Internal.Correction>
   9.000000E+99

> <Gold.Chemscore.Hbonds>
donor molecule, donor type, donor heavy atom, donor atom, acceptor molecule, acceptor atom, score
      L1  H     4    31       P1  7948  0.53
      L1  H     7    32       P1  7948  0.62
      P1  H  7989  7998       L1    19  0.06

> <Gold.Chemscore.Hbond.Weighted>
-6.1586

> <Gold.Chemscore.Metal.Weighted>
-0.0000

> <Gold.Chemscore.Lipo.Weighted>
-9.2728

> <Gold.Chemscore.Internal_Hbond.Weighted>
0.0000

> <Gold.Chemscore.DEClash.Weighted>
0.6401

> <Gold.Chemscore.DEInternal.Weighted>
1.7971

> <Gold.Chemscore.Rot.Weighted>
4.0239

> <Gold.Chemscore.Internal.Correction.Weighted>
   9.000000E+99

> <Gold.Protein.RotatedTorsions>
[ 6907 6896 6895 6894 ] final  138.06 input  -60.11 | X-H torsion
[ 7974 7965 7964 7962 ] final -132.41 input  175.53 | X-H torsion
[ 8008 7997 7996 7995 ] final   30.77 input   59.86 | X-H torsion
[ 10167 10162 10161 10158 ] final   94.80 input  -65.29 | X-H torsion
[ 10718 10713 10712 10709 ] final   55.38 input   66.30 | X-H torsion
[ 10763 10752 10751 10750 ] final   66.00 input  -60.55 | X-H torsion
[ 11005 11000 10999 10996 ] final -166.83 input  -57.11 | X-H torsion

> <Gold.Protein.ActiveResidues>
 VAL166  LYS551  ARG553  GLY616  TRP617  ASP618  TYR619  PRO620  LYS621  CYS622 
 ASP623  PHE694  ASN695  SER759  ASP760  ASP761  ALA762  ILE779  LEU786  VAL792 
 PHE793  MET794  SER795  GLU796  ALA797  LYS798  CYS799  TRP800  GLU811  SER814 

> <Gold.Protein.RotatedAtoms>
  152.2710  133.5382  159.5438 H   0  0  0  0  0  0  0  0  0  0  0  0  # atno 6907 bound_to 6896
  150.7159  134.0698  159.3869 H   0  0  0  0  0  0  0  0  0  0  0  0  # atno 6908 bound_to 6896
  151.8613  135.0523  160.0520 H   0  0  0  0  0  0  0  0  0  0  0  0  # atno 6909 bound_to 6896
  144.9288  140.7103  143.4919 H   0  0  0  0  0  0  0  0  0  0  0  0  # atno 7974 bound_to 7965
  155.0958  140.3224  155.4561 H   0  0  0  0  0  0  0  0  0  0  0  0  # atno 8008 bound_to 7997
  156.2730  140.2070  156.6031 H   0  0  0  0  0  0  0  0  0  0  0  0  # atno 8009 bound_to 7997
  154.6868  140.0520  157.0309 H   0  0  0  0  0  0  0  0  0  0  0  0  # atno 8010 bound_to 7997
  139.8049  144.6798  150.9716 H   0  0  0  0  0  0  0  0  0  0  0  0  # atno 10167 bound_to 10162
  157.5340  130.8650  149.8727 H   0  0  0  0  0  0  0  0  0  0  0  0  # atno 10718 bound_to 10713
  153.0121  135.5336  154.6756 H   0  0  0  0  0  0  0  0  0  0  0  0  # atno 10763 bound_to 10752
  154.5929  135.2860  155.0619 H   0  0  0  0  0  0  0  0  0  0  0  0  # atno 10764 bound_to 10752
  154.1705  135.6533  153.5061 H   0  0  0  0  0  0  0  0  0  0  0  0  # atno 10765 bound_to 10752
  140.5601  134.5342  157.5141 H   0  0  0  0  0  0  0  0  0  0  0  0  # atno 11005 bound_to 11000
  145.3176  139.1798  143.4605 LP  0  0  0  0  0  0  0  0  0  0  0  0  # atno 17320 bound_to 7965
  146.3238  140.3189  142.8632 LP  0  0  0  0  0  0  0  0  0  0  0  0  # atno 17321 bound_to 7965
  140.7819  143.4244  151.0791 LP  0  0  0  0  0  0  0  0  0  0  0  0  # atno 17342 bound_to 10162
  139.7914  143.8214  152.3152 LP  0  0  0  0  0  0  0  0  0  0  0  0  # atno 17343 bound_to 10162
  156.0444  130.3731  150.1354 LP  0  0  0  0  0  0  0  0  0  0  0  0  # atno 17370 bound_to 10713
  156.9537  130.9783  151.3493 LP  0  0  0  0  0  0  0  0  0  0  0  0  # atno 17371 bound_to 10713
  139.9412  134.7783  156.0674 LP  0  0  0  0  0  0  0  0  0  0  0  0  # atno 17394 bound_to 11000
  141.1120  133.6640  156.3001 LP  0  0  0  0  0  0  0  0  0  0  0  0  # atno 17395 bound_to 11000

$$$$
