AV-unprocessed.smi:1884|AV-procd|sdf|7649|dock8
  -GOLD-   22720 9383D 1   1.00000     0.00000
 Structure written by MMmdl.
 41 43  0  0  0  0  0  0  0  0  2 V2000
  149.8851  141.2539  154.7793 C   0  0  0  0  0  0  0  0  0  0  0  0
  150.4862  141.6852  156.0748 C   0  0  0  0  0  0  0  0  0  0  0  0
  150.3980  142.9286  156.6257 N   0  3  0  0  0  0  0  0  0  0  0  0
  151.0827  142.9559  157.8416 C   0  0  0  0  0  0  0  0  0  0  0  0
  151.2712  143.9863  158.7575 C   0  0  0  0  0  0  0  0  0  0  0  0
  152.0330  143.6816  159.9048 C   0  0  0  0  0  0  0  0  0  0  0  0
  152.5729  142.3949  160.1072 C   0  0  0  0  0  0  0  0  0  0  0  0
  152.3713  141.3571  159.1735 C   0  0  0  0  0  0  0  0  0  0  0  0
  151.6166  141.6661  158.0419 C   0  0  0  0  0  0  0  0  0  0  0  0
  151.2202  140.9155  156.9281 N   0  0  0  0  0  0  0  0  0  0  0  0
  151.6072  139.4995  156.8268 C   0  0  0  0  0  0  0  0  0  0  0  0
  152.1370  139.1221  155.4287 C   0  0  1  0  0  0  0  0  0  0  0  0
  153.5482  139.0462  155.4045 O   0  0  0  0  0  0  0  0  0  0  0  0
  151.5490  137.8113  154.8815 C   0  0  0  0  0  0  0  0  0  0  0  0
  151.8342  136.7390  155.7720 O   0  0  0  0  0  0  0  0  0  0  0  0
  151.3801  135.4794  155.4452 C   0  0  0  0  0  0  0  0  0  0  0  0
  151.6785  134.4376  156.3475 C   0  0  0  0  0  0  0  0  0  0  0  0
  151.2536  133.1190  156.0945 C   0  0  0  0  0  0  0  0  0  0  0  0
  150.5198  132.8267  154.9281 C   0  0  0  0  0  0  0  0  0  0  0  0
  150.0792  131.4673  154.6633 C   0  0  0  0  0  0  0  0  0  0  0  0
  149.7287  130.3850  154.4523 N   0  0  0  0  0  0  0  0  0  0  0  0
  150.2147  133.8588  154.0189 C   0  0  0  0  0  0  0  0  0  0  0  0
  150.6409  135.1771  154.2736 C   0  0  0  0  0  0  0  0  0  0  0  0
  149.3765  142.0881  154.2957 H   0  0  0  0  0  0  0  0  0  0  0  0
  149.1614  140.4563  154.9475 H   0  0  0  0  0  0  0  0  0  0  0  0
  150.6607  140.8849  154.1081 H   0  0  0  0  0  0  0  0  0  0  0  0
  150.8594  144.9731  158.6039 H   0  0  0  0  0  0  0  0  0  0  0  0
  152.2080  144.4506  160.6432 H   0  0  0  0  0  0  0  0  0  0  0  0
  153.1543  142.1990  160.9966 H   0  0  0  0  0  0  0  0  0  0  0  0
  152.7931  140.3763  159.3373 H   0  0  0  0  0  0  0  0  0  0  0  0
  152.3340  139.2721  157.6067 H   0  0  0  0  0  0  0  0  0  0  0  0
  150.7226  138.9053  157.0581 H   0  0  0  0  0  0  0  0  0  0  0  0
  151.8692  139.9178  154.7327 H   0  0  0  0  0  0  0  0  0  0  0  0
  153.8405  139.1875  154.5172 H   0  0  0  0  0  0  0  0  0  0  0  0
  150.4671  137.9241  154.7971 H   0  0  0  0  0  0  0  0  0  0  0  0
  151.9406  137.6081  153.8830 H   0  0  0  0  0  0  0  0  0  0  0  0
  152.2407  134.6518  157.2446 H   0  0  0  0  0  0  0  0  0  0  0  0
  151.4944  132.3366  156.8001 H   0  0  0  0  0  0  0  0  0  0  0  0
  149.6523  133.6465  153.1209 H   0  0  0  0  0  0  0  0  0  0  0  0
  150.3862  135.9392  153.5531 H   0  0  0  0  0  0  0  0  0  0  0  0
  149.9036  143.7015  156.1991 H   0  0  0  0  0  0  0  0  0  0  0  0
  1  2  1  0  0  0  0
  1 24  1  0  0  0  0
  1 25  1  0  0  0  0
  1 26  1  0  0  0  0
  2 10  1  0  0  0  0
  2  3  2  0  0  0  0
  3  4  1  0  0  0  0
  3 41  1  0  0  0  0
  4  9  2  0  0  0  0
  4  5  1  0  0  0  0
  5  6  2  0  0  0  0
  5 27  1  0  0  0  0
  6  7  1  0  0  0  0
  6 28  1  0  0  0  0
  7  8  2  0  0  0  0
  7 29  1  0  0  0  0
  8  9  1  0  0  0  0
  8 30  1  0  0  0  0
  9 10  1  0  0  0  0
 10 11  1  0  0  0  0
 11 12  1  0  0  0  0
 11 31  1  0  0  0  0
 11 32  1  0  0  0  0
 12 13  1  0  0  0  0
 12 14  1  0  0  0  0
 12 33  1  0  0  0  0
 13 34  1  0  0  0  0
 14 15  1  0  0  0  0
 14 35  1  0  0  0  0
 14 36  1  0  0  0  0
 15 16  1  0  0  0  0
 16 23  1  0  0  0  0
 16 17  2  0  0  0  0
 17 18  1  0  0  0  0
 17 37  1  0  0  0  0
 18 19  2  0  0  0  0
 18 38  1  0  0  0  0
 19 20  1  0  0  0  0
 19 22  1  0  0  0  0
 20 21  3  0  0  0  0
 22 23  2  0  0  0  0
 22 39  1  0  0  0  0
 23 40  1  0  0  0  0
M  CHG  1   3   1
M  END
> <s_m_source_file>
AV-unprocessed.smi

> <i_m_source_file_index>
1884

> <i_lp_mmshare_version>
43012

> <i_f3d_flags>
0

> <s_epik_input>
W2NIXTFbY0hdW2NIXVtjSF1jKGMxMiluKGMobjIpW0NIM10pW0NIMl1bQ0BIXShbT0hdKVtDSDJdT2MzW2NIXVtjSF1jKEMjTilbY0hdW2NIXTM=

> <s_epik_cmdline>
J2VwaWtfcHl0aG9uJywgJy1waCcsICc3LjAnLCAnLXRuJywgJzgnLCAnLW1hJywgJzIwMCcsICctbWV0YWxfYmluZGluZycsICctaW1hZScsICc8aW5maWxlLm1hZT4nLCAnLW9tYWUnLCAnPG91dGZpbGUubWFlPic=

> <r_epik_Ionization_Penalty>
1.04791

> <r_epik_Ionization_Penalty_Charging>
1.04791

> <r_epik_Ionization_Penalty_Neutral>
2.3993e-06

> <r_epik_State_Penalty>
1.10051

> <r_epik_Charging_Adjusted_Penalty>
2.14841

> <i_epik_Tot_Q>
1

> <i_epik_Tot_abs_Q>
1

> <r_epik_Metal_State_Penalty>
5.09283

> <b_epik_Metal_Only>
0

> <s_lp_Force_Field>
OPLS_2005

> <r_lp_Energy>
19.6719

> <b_lp_Chiralities_Consistent>
1

> <s_lp_Variant>
AV-unprocessed.smi:1884-4

> <Gold.Version>
5.8.1

> <Gold.Id.Protein>
6NUR|6NUR_protein|mol2

> <Gold.PLP.Fitness>
55.7895

> <Gold.PLP.PLP>
-48.3454

> <Gold.PLP.part.hbond>
-2.7513

> <Gold.PLP.part.metal>
0.0000

> <Gold.PLP.part.buried>
-3.7035

> <Gold.PLP.part.nonpolar>
-41.9825

> <Gold.PLP.part.repulsive>
0.0990

> <Gold.PLP.ligand.clash>
0.0000

> <Gold.PLP.ligand.torsion>
0.8097

> <Gold.PLP.Chemscore.Hbond>
3.0000

> <Gold.PLP.Chemscore.CHOScore>
0.0000

> <Gold.PLP.Chemscore.Metal>
0.0000

> <Gold.Chemscore.Hbonds>
donor molecule, donor type, donor heavy atom, donor atom, acceptor molecule, acceptor atom, score
      L1  H     3    41       P1  8028  2.00
      P1  H  7997  8009       L1    13  0.96

> <Gold.PLP.Chemscore.Internal.Correction>
0.0636

> <Gold.Rescore>
     Score         DG    S(hbond)    S(metal)    S(lipo)     H(rot)  DE(clash)    DE(int)     intcor
     18.74     -19.90       1.73        0.00     126.25       2.39       0.14       1.02       ----

> <Gold.Chemscore.Fitness>
18.7393

> <Gold.Chemscore.DG>
-19.8997

> <Gold.Chemscore.ZeroCoef>
-5.4800

> <Gold.Chemscore.Hbond>
1.7278

> <Gold.Chemscore.Metal>
0.0000

> <Gold.Chemscore.Lipo>
126.2543

> <Gold.Chemscore.Internal_Hbond>
0.0000

> <Gold.Chemscore.DEClash>
0.1407

> <Gold.Chemscore.DEInternal>
1.0198

> <Gold.Chemscore.Rot>
2.3917

> <Gold.Chemscore.Internal.Correction>
   9.000000E+99

> <Gold.Chemscore.Hbonds>
donor molecule, donor type, donor heavy atom, donor atom, acceptor molecule, acceptor atom, score
      L1  H     3    41       P1  8028  0.93
      P1  H  7997  8009       L1    13  0.22

> <Gold.Chemscore.Hbond.Weighted>
-5.7708

> <Gold.Chemscore.Metal.Weighted>
-0.0000

> <Gold.Chemscore.Lipo.Weighted>
-14.7718

> <Gold.Chemscore.Internal_Hbond.Weighted>
0.0000

> <Gold.Chemscore.DEClash.Weighted>
0.1407

> <Gold.Chemscore.DEInternal.Weighted>
1.0198

> <Gold.Chemscore.Rot.Weighted>
6.1229

> <Gold.Chemscore.Internal.Correction.Weighted>
   9.000000E+99

> <Gold.Protein.RotatedTorsions>
[ 6907 6896 6895 6894 ] final -167.29 input  -60.11 | X-H torsion
[ 7974 7965 7964 7962 ] final   74.58 input  175.53 | X-H torsion
[ 8008 7997 7996 7995 ] final -151.42 input   59.86 | X-H torsion
[ 10167 10162 10161 10158 ] final -178.80 input  -65.29 | X-H torsion
[ 10718 10713 10712 10709 ] final  -18.18 input   66.30 | X-H torsion
[ 10763 10752 10751 10750 ] final   76.20 input  -60.55 | X-H torsion
[ 11005 11000 10999 10996 ] final -125.49 input  -57.11 | X-H torsion

> <Gold.Protein.ActiveResidues>
 VAL166  LYS551  ARG553  GLY616  TRP617  ASP618  TYR619  PRO620  LYS621  CYS622 
 ASP623  PHE694  ASN695  SER759  ASP760  ASP761  ALA762  ILE779  LEU786  VAL792 
 PHE793  MET794  SER795  GLU796  ALA797  LYS798  CYS799  TRP800  GLU811  SER814 

> <Gold.Protein.RotatedAtoms>
  151.4572  133.3602  159.2803 H   0  0  0  0  0  0  0  0  0  0  0  0  # atno 6907 bound_to 6896
  150.9051  134.8467  159.7397 H   0  0  0  0  0  0  0  0  0  0  0  0  # atno 6908 bound_to 6896
  152.4901  134.4496  159.9622 H   0  0  0  0  0  0  0  0  0  0  0  0  # atno 6909 bound_to 6896
  145.7264  139.2667  143.1566 H   0  0  0  0  0  0  0  0  0  0  0  0  # atno 7974 bound_to 7965
  155.6390  140.0699  157.2624 H   0  0  0  0  0  0  0  0  0  0  0  0  # atno 8008 bound_to 7997
  154.4188  140.1754  156.1602 H   0  0  0  0  0  0  0  0  0  0  0  0  # atno 8009 bound_to 7997
  155.9871  140.3348  155.6720 H   0  0  0  0  0  0  0  0  0  0  0  0  # atno 8010 bound_to 7997
  139.5415  144.2349  152.0905 H   0  0  0  0  0  0  0  0  0  0  0  0  # atno 10167 bound_to 10162
  156.5632  130.4731  149.6397 H   0  0  0  0  0  0  0  0  0  0  0  0  # atno 10718 bound_to 10713
  153.0708  135.4960  154.8301 H   0  0  0  0  0  0  0  0  0  0  0  0  # atno 10763 bound_to 10752
  154.7020  135.3003  154.9329 H   0  0  0  0  0  0  0  0  0  0  0  0  # atno 10764 bound_to 10752
  154.0050  135.6761  153.4814 H   0  0  0  0  0  0  0  0  0  0  0  0  # atno 10765 bound_to 10752
  140.9757  134.0743  157.3821 H   0  0  0  0  0  0  0  0  0  0  0  0  # atno 11005 bound_to 11000
  146.0578  140.8002  142.9750 LP  0  0  0  0  0  0  0  0  0  0  0  0  # atno 17320 bound_to 7965
  144.6903  140.3150  143.7242 LP  0  0  0  0  0  0  0  0  0  0  0  0  # atno 17321 bound_to 7965
  140.1828  144.4827  150.6519 LP  0  0  0  0  0  0  0  0  0  0  0  0  # atno 17342 bound_to 10162
  140.6647  143.2264  151.5771 LP  0  0  0  0  0  0  0  0  0  0  0  0  # atno 17343 bound_to 10162
  156.2780  130.7055  151.1871 LP  0  0  0  0  0  0  0  0  0  0  0  0  # atno 17370 bound_to 10713
  157.7364  131.0562  150.5415 LP  0  0  0  0  0  0  0  0  0  0  0  0  # atno 17371 bound_to 10713
  139.8930  135.0128  156.6874 LP  0  0  0  0  0  0  0  0  0  0  0  0  # atno 17394 bound_to 11000
  140.7262  133.9098  155.8180 LP  0  0  0  0  0  0  0  0  0  0  0  0  # atno 17395 bound_to 11000

$$$$
