AV-unprocessed.smi:2710|AV-procd|sdf|10465|dock7
  -GOLD-   2272014503D 1   1.00000     0.00000
 Structure written by MMmdl.
 53 54  0  0  0  0  0  0  0  0  2 V2000
  144.2348  135.2061  148.2657 C   0  0  0  0  0  0  0  0  0  0  0  0
  144.3120  134.9740  149.7823 C   0  0  0  0  0  0  0  0  0  0  0  0
  143.6035  133.7349  150.2184 N   0  3  1  0  0  0  0  0  0  0  0  0
  143.9966  132.5126  149.4617 C   0  0  0  0  0  0  0  0  0  0  0  0
  145.3993  132.0110  149.8592 C   0  0  0  0  0  0  0  0  0  0  0  0
  145.5056  131.7793  151.3773 C   0  0  1  0  0  0  0  0  0  0  0  0
  146.8845  131.4604  151.7392 N   0  0  0  0  0  0  0  0  0  0  0  0
  147.3835  131.4399  152.9837 C   0  0  0  0  0  0  0  0  0  0  0  0
  146.7215  131.6951  153.9892 O   0  0  0  0  0  0  0  0  0  0  0  0
  148.6798  131.0860  152.9801 N   0  0  0  0  0  0  0  0  0  0  0  0
  149.5552  130.9630  154.0915 C   0  0  0  0  0  0  0  0  0  0  0  0
  150.5109  129.9272  154.1039 C   0  0  0  0  0  0  0  0  0  0  0  0
  151.3762  129.7653  155.1268 N   0  0  0  0  0  0  0  0  0  0  0  0
  151.3033  130.6341  156.1435 C   0  0  0  0  0  0  0  0  0  0  0  0
  152.3207  130.4410  157.2827 C   0  0  0  0  0  0  0  0  0  0  0  0
  153.2450  131.6717  157.4550 C   0  0  0  0  0  0  0  0  0  0  0  0
  153.2155  129.2225  156.9803 C   0  0  0  0  0  0  0  0  0  0  0  0
  151.5789  130.2465  158.6219 C   0  0  0  0  0  0  0  0  0  0  0  0
  150.4568  131.6698  156.2168 N   0  0  0  0  0  0  0  0  0  0  0  0
  149.5815  131.8386  155.2029 C   0  0  0  0  0  0  0  0  0  0  0  0
  145.0366  133.0253  152.1498 C   0  0  0  0  0  0  0  0  0  0  0  0
  143.6323  133.4673  151.6886 C   0  0  1  0  0  0  0  0  0  0  0  0
  143.0653  134.6188  152.5382 C   0  0  0  0  0  0  0  0  0  0  0  0
  144.6444  136.1833  148.0096 H   0  0  0  0  0  0  0  0  0  0  0  0
  143.2029  135.1812  147.9144 H   0  0  0  0  0  0  0  0  0  0  0  0
  144.8045  134.4667  147.7039 H   0  0  0  0  0  0  0  0  0  0  0  0
  145.3513  134.9665  150.1093 H   0  0  0  0  0  0  0  0  0  0  0  0
  143.8562  135.8457  150.2472 H   0  0  0  0  0  0  0  0  0  0  0  0
  143.2656  131.7307  149.6718 H   0  0  0  0  0  0  0  0  0  0  0  0
  143.9416  132.6763  148.3867 H   0  0  0  0  0  0  0  0  0  0  0  0
  145.6181  131.0830  149.3292 H   0  0  0  0  0  0  0  0  0  0  0  0
  146.1554  132.7266  149.5349 H   0  0  0  0  0  0  0  0  0  0  0  0
  144.8411  130.9542  151.6405 H   0  0  0  0  0  0  0  0  0  0  0  0
  147.5096  131.2318  150.9801 H   0  0  0  0  0  0  0  0  0  0  0  0
  149.0701  130.8199  152.0879 H   0  0  0  0  0  0  0  0  0  0  0  0
  150.5814  129.2188  153.2913 H   0  0  0  0  0  0  0  0  0  0  0  0
  153.9499  131.5265  158.2744 H   0  0  0  0  0  0  0  0  0  0  0  0
  152.6752  132.5751  157.6770 H   0  0  0  0  0  0  0  0  0  0  0  0
  153.8355  131.8628  156.5579 H   0  0  0  0  0  0  0  0  0  0  0  0
  153.7507  129.3486  156.0386 H   0  0  0  0  0  0  0  0  0  0  0  0
  152.6318  128.3042  156.9064 H   0  0  0  0  0  0  0  0  0  0  0  0
  153.9581  129.0702  157.7642 H   0  0  0  0  0  0  0  0  0  0  0  0
  152.2782  130.1359  159.4515 H   0  0  0  0  0  0  0  0  0  0  0  0
  150.9511  129.3551  158.6120 H   0  0  0  0  0  0  0  0  0  0  0  0
  150.9360  131.0988  158.8448 H   0  0  0  0  0  0  0  0  0  0  0  0
  148.9259  132.6912  155.2880 H   0  0  0  0  0  0  0  0  0  0  0  0
  145.0209  132.8037  153.2179 H   0  0  0  0  0  0  0  0  0  0  0  0
  145.7480  133.8419  152.0188 H   0  0  0  0  0  0  0  0  0  0  0  0
  142.9575  132.6252  151.8515 H   0  0  0  0  0  0  0  0  0  0  0  0
  142.9005  134.2900  153.5647 H   0  0  0  0  0  0  0  0  0  0  0  0
  142.1073  134.9646  152.1490 H   0  0  0  0  0  0  0  0  0  0  0  0
  143.7434  135.4709  152.5863 H   0  0  0  0  0  0  0  0  0  0  0  0
  142.6319  133.8970  149.9950 H   0  0  0  0  0  0  0  0  0  0  0  0
  1  2  1  0  0  0  0
  1 24  1  0  0  0  0
  1 25  1  0  0  0  0
  1 26  1  0  0  0  0
  2  3  1  0  0  0  0
  2 27  1  0  0  0  0
  2 28  1  0  0  0  0
  3 22  1  0  0  0  0
  3  4  1  0  0  0  0
  3 53  1  0  0  0  0
  4  5  1  0  0  0  0
  4 29  1  0  0  0  0
  4 30  1  0  0  0  0
  5  6  1  0  0  0  0
  5 31  1  0  0  0  0
  5 32  1  0  0  0  0
  6  7  1  0  0  0  0
  6 21  1  0  0  0  0
  6 33  1  0  0  0  0
  7  8  1  0  0  0  0
  7 34  1  0  0  0  0
  8  9  2  0  0  0  0
  8 10  1  0  0  0  0
 10 11  1  0  0  0  0
 10 35  1  0  0  0  0
 11 20  1  0  0  0  0
 11 12  2  0  0  0  0
 12 13  1  0  0  0  0
 12 36  1  0  0  0  0
 13 14  2  0  0  0  0
 14 15  1  0  0  0  0
 14 19  1  0  0  0  0
 15 16  1  0  0  0  0
 15 17  1  0  0  0  0
 15 18  1  0  0  0  0
 16 37  1  0  0  0  0
 16 38  1  0  0  0  0
 16 39  1  0  0  0  0
 17 40  1  0  0  0  0
 17 41  1  0  0  0  0
 17 42  1  0  0  0  0
 18 43  1  0  0  0  0
 18 44  1  0  0  0  0
 18 45  1  0  0  0  0
 19 20  2  0  0  0  0
 20 46  1  0  0  0  0
 21 22  1  0  0  0  0
 21 47  1  0  0  0  0
 21 48  1  0  0  0  0
 22 23  1  0  0  0  0
 22 49  1  0  0  0  0
 23 50  1  0  0  0  0
 23 51  1  0  0  0  0
 23 52  1  0  0  0  0
M  CHG  1   3   1
M  END
> <s_m_source_file>
AV-unprocessed.smi

> <i_m_source_file_index>
2710

> <i_lp_mmshare_version>
43012

> <i_f3d_flags>
0

> <s_epik_input>
W0NIM11bQ0gyXU4xW0NIMl1bQ0gyXVtDQEhdKFtDSDJdW0NASF0xW0NIM10pW05IXUMoPU8pW05IXWMyW2NIXW5jKEMoW0NIM10pKFtDSDNdKVtDSDNdKW5bY0hdMg==

> <s_epik_cmdline>
J2VwaWtfcHl0aG9uJywgJy1waCcsICc3LjAnLCAnLXRuJywgJzgnLCAnLW1hJywgJzIwMCcsICctbWV0YWxfYmluZGluZycsICctaW1hZScsICc8aW5maWxlLm1hZT4nLCAnLW9tYWUnLCAnPG91dGZpbGUubWFlPic=

> <r_lp_tautomer_probability>
1

> <r_epik_Ionization_Penalty>
0.00396003

> <r_epik_Ionization_Penalty_Charging>
0.0039379

> <r_epik_Ionization_Penalty_Neutral>
2.21316e-05

> <r_epik_State_Penalty>
0.00281651

> <r_epik_Charging_Adjusted_Penalty>
0.00675441

> <i_epik_Tot_Q>
1

> <i_epik_Tot_abs_Q>
1

> <r_epik_Metal_State_Penalty>
-0

> <b_epik_Metal_Only>
0

> <s_lp_Force_Field>
OPLS_2005

> <r_lp_Energy>
21.9784

> <b_lp_Chiralities_Consistent>
1

> <s_lp_Variant>
AV-unprocessed.smi:2710-2

> <Gold.Version>
5.8.1

> <Gold.Id.Protein>
6NUR|6NUR_protein|mol2

> <Gold.PLP.Fitness>
41.9578

> <Gold.PLP.PLP>
-28.0842

> <Gold.PLP.part.hbond>
-3.0000

> <Gold.PLP.part.metal>
0.0000

> <Gold.PLP.part.buried>
3.7528

> <Gold.PLP.part.nonpolar>
-28.6245

> <Gold.PLP.part.repulsive>
0.2395

> <Gold.PLP.ligand.clash>
0.0000

> <Gold.PLP.ligand.torsion>
0.4786

> <Gold.PLP.Chemscore.Hbond>
4.0000

> <Gold.PLP.Chemscore.CHOScore>
0.9306

> <Gold.PLP.Chemscore.Metal>
0.0000

> <Gold.Chemscore.Hbonds>
donor molecule, donor type, donor heavy atom, donor atom, acceptor molecule, acceptor atom, score
      L1  H     3    53       P1 10186  2.00
      L1  H     7    34       P1 10747  1.00
      L1  H    10    35       P1 10747  1.00
      L1  C    12    36       P1 10737  0.82

> <Gold.PLP.Chemscore.Internal.Correction>
0.0390

> <Gold.Rescore>
     Score         DG    S(hbond)    S(metal)    S(lipo)     H(rot)  DE(clash)    DE(int)     intcor
     17.52     -21.79       2.56        0.00      94.82       1.31       2.43       1.83       ----

> <Gold.Chemscore.Fitness>
17.5240

> <Gold.Chemscore.DG>
-21.7862

> <Gold.Chemscore.ZeroCoef>
-5.4800

> <Gold.Chemscore.Hbond>
2.5632

> <Gold.Chemscore.Metal>
0.0000

> <Gold.Chemscore.Lipo>
94.8195

> <Gold.Chemscore.Internal_Hbond>
0.0000

> <Gold.Chemscore.DEClash>
2.4297

> <Gold.Chemscore.DEInternal>
1.8324

> <Gold.Chemscore.Rot>
1.3081

> <Gold.Chemscore.Internal.Correction>
   9.000000E+99

> <Gold.Chemscore.Hbonds>
donor molecule, donor type, donor heavy atom, donor atom, acceptor molecule, acceptor atom, score
      L1  H     3    53       P1 10186  1.00
      L1  H     7    34       P1 10747  0.98
      L1  H    10    35       P1 10747  0.29

> <Gold.Chemscore.Hbond.Weighted>
-8.5611

> <Gold.Chemscore.Metal.Weighted>
-0.0000

> <Gold.Chemscore.Lipo.Weighted>
-11.0939

> <Gold.Chemscore.Internal_Hbond.Weighted>
0.0000

> <Gold.Chemscore.DEClash.Weighted>
2.4297

> <Gold.Chemscore.DEInternal.Weighted>
1.8324

> <Gold.Chemscore.Rot.Weighted>
3.3488

> <Gold.Chemscore.Internal.Correction.Weighted>
   9.000000E+99

> <Gold.Protein.RotatedTorsions>
[ 6907 6896 6895 6894 ] final  158.97 input  -60.11 | X-H torsion
[ 7974 7965 7964 7962 ] final  -99.73 input  175.53 | X-H torsion
[ 8008 7997 7996 7995 ] final  -45.36 input   59.86 | X-H torsion
[ 10167 10162 10161 10158 ] final -174.50 input  -65.29 | X-H torsion
[ 10718 10713 10712 10709 ] final  137.07 input   66.30 | X-H torsion
[ 10763 10752 10751 10750 ] final  -55.64 input  -60.55 | X-H torsion
[ 11005 11000 10999 10996 ] final    3.68 input  -57.11 | X-H torsion

> <Gold.Protein.ActiveResidues>
 VAL166  LYS551  ARG553  GLY616  TRP617  ASP618  TYR619  PRO620  LYS621  CYS622 
 ASP623  PHE694  ASN695  SER759  ASP760  ASP761  ALA762  ILE779  LEU786  VAL792 
 PHE793  MET794  SER795  GLU796  ALA797  LYS798  CYS799  TRP800  GLU811  SER814 

> <Gold.Protein.RotatedAtoms>
  151.9925  133.3796  159.4149 H   0  0  0  0  0  0  0  0  0  0  0  0  # atno 6907 bound_to 6896
  150.6920  134.3921  159.5090 H   0  0  0  0  0  0  0  0  0  0  0  0  # atno 6908 bound_to 6896
  152.1657  134.8876  160.0589 H   0  0  0  0  0  0  0  0  0  0  0  0  # atno 6909 bound_to 6896
  145.3038  140.9384  143.2808 H   0  0  0  0  0  0  0  0  0  0  0  0  # atno 7974 bound_to 7965
  154.4000  140.1399  156.3834 H   0  0  0  0  0  0  0  0  0  0  0  0  # atno 8008 bound_to 7997
  155.7982  140.3477  155.5367 H   0  0  0  0  0  0  0  0  0  0  0  0  # atno 8009 bound_to 7997
  155.8510  140.0941  157.1665 H   0  0  0  0  0  0  0  0  0  0  0  0  # atno 8010 bound_to 7997
  139.5630  144.1823  152.1269 H   0  0  0  0  0  0  0  0  0  0  0  0  # atno 10167 bound_to 10162
  157.4400  131.1057  151.0154 H   0  0  0  0  0  0  0  0  0  0  0  0  # atno 10718 bound_to 10713
  154.1940  135.6422  153.5068 H   0  0  0  0  0  0  0  0  0  0  0  0  # atno 10763 bound_to 10752
  153.0028  135.5435  154.6386 H   0  0  0  0  0  0  0  0  0  0  0  0  # atno 10764 bound_to 10752
  154.5782  135.2923  155.0733 H   0  0  0  0  0  0  0  0  0  0  0  0  # atno 10765 bound_to 10752
  140.5904  133.9930  155.8086 H   0  0  0  0  0  0  0  0  0  0  0  0  # atno 11005 bound_to 11000
  144.9072  139.4574  143.6604 LP  0  0  0  0  0  0  0  0  0  0  0  0  # atno 17320 bound_to 7965
  146.3142  139.7859  142.8996 LP  0  0  0  0  0  0  0  0  0  0  0  0  # atno 17321 bound_to 7965
  140.1340  144.5262  150.6785 LP  0  0  0  0  0  0  0  0  0  0  0  0  # atno 17342 bound_to 10162
  140.6912  143.2377  151.5126 LP  0  0  0  0  0  0  0  0  0  0  0  0  # atno 17343 bound_to 10162
  157.1020  130.5986  149.5462 LP  0  0  0  0  0  0  0  0  0  0  0  0  # atno 17370 bound_to 10713
  155.9945  130.5009  150.7422 LP  0  0  0  0  0  0  0  0  0  0  0  0  # atno 17371 bound_to 10713
  141.0939  133.9874  157.3192 LP  0  0  0  0  0  0  0  0  0  0  0  0  # atno 17394 bound_to 11000
  139.9277  135.0201  156.8291 LP  0  0  0  0  0  0  0  0  0  0  0  0  # atno 17395 bound_to 11000

$$$$
