AV-unprocessed.smi:3136|AV-procd|sdf|11948|dock3
  -GOLD-   2272017343D 1   1.00000     0.00000
 Structure written by MMmdl.
 40 40  0  0  0  0  0  0  0  0  2 V2000
  144.4841  144.4869  156.5203 C   0  0  0  0  0  0  0  0  0  0  0  0
  144.8801  143.0309  156.2410 C   0  0  0  0  0  0  0  0  0  0  0  0
  146.0452  142.9490  155.3673 N   0  0  0  0  0  0  0  0  0  0  0  0
  146.6437  141.8116  154.9820 C   0  0  0  0  0  0  0  0  0  0  0  0
  146.2617  140.6954  155.3348 O   0  0  0  0  0  0  0  0  0  0  0  0
  147.8583  141.9735  154.0616 C   0  0  0  0  0  0  0  0  0  0  0  0
  149.1648  141.4262  154.6637 C   0  0  0  0  0  0  0  0  0  0  0  0
  149.6588  142.3094  155.7412 N   0  3  0  0  0  0  0  0  0  0  0  0
  149.7449  141.6882  157.0835 C   0  0  2  0  0  0  0  0  0  0  0  0
  148.7936  142.4059  158.0647 C   0  0  0  0  0  0  0  0  0  0  0  0
  151.2202  141.6887  157.5675 C   0  0  2  0  0  0  0  0  0  0  0  0
  151.5447  140.4868  158.4761 C   0  0  0  0  0  0  0  0  0  0  0  0
  151.5820  142.9308  158.2394 N   0  0  0  0  0  0  0  0  0  0  0  0
  151.4692  144.2224  157.7669 C   0  0  0  0  0  0  0  0  0  0  0  0
  151.9330  145.0568  158.7431 C   0  0  0  0  0  0  0  0  0  0  0  0
  152.3180  144.1729  159.7892 C   0  0  0  0  0  0  0  0  0  0  0  0
  152.1084  142.9025  159.4849 N   0  0  0  0  0  0  0  0  0  0  0  0
  143.5871  144.5319  157.1379 H   0  0  0  0  0  0  0  0  0  0  0  0
  144.2762  145.0241  155.5943 H   0  0  0  0  0  0  0  0  0  0  0  0
  145.2752  145.0201  157.0484 H   0  0  0  0  0  0  0  0  0  0  0  0
  145.0687  142.5018  157.1764 H   0  0  0  0  0  0  0  0  0  0  0  0
  144.0538  142.5131  155.7535 H   0  0  0  0  0  0  0  0  0  0  0  0
  146.4233  143.8235  155.0327 H   0  0  0  0  0  0  0  0  0  0  0  0
  147.6469  141.4662  153.1193 H   0  0  0  0  0  0  0  0  0  0  0  0
  147.9741  143.0333  153.8305 H   0  0  0  0  0  0  0  0  0  0  0  0
  148.9996  140.4232  155.0574 H   0  0  0  0  0  0  0  0  0  0  0  0
  149.9300  141.3491  153.8897 H   0  0  0  0  0  0  0  0  0  0  0  0
  150.5913  142.5991  155.4823 H   0  0  0  0  0  0  0  0  0  0  0  0
  149.4230  140.6490  156.9970 H   0  0  0  0  0  0  0  0  0  0  0  0
  148.7868  141.9293  159.0450 H   0  0  0  0  0  0  0  0  0  0  0  0
  147.7630  142.3958  157.7119 H   0  0  0  0  0  0  0  0  0  0  0  0
  149.0853  143.4473  158.2053 H   0  0  0  0  0  0  0  0  0  0  0  0
  151.8608  141.6159  156.6868 H   0  0  0  0  0  0  0  0  0  0  0  0
  151.4103  139.5394  157.9541 H   0  0  0  0  0  0  0  0  0  0  0  0
  150.9074  140.4698  159.3609 H   0  0  0  0  0  0  0  0  0  0  0  0
  152.5804  140.5229  158.8158 H   0  0  0  0  0  0  0  0  0  0  0  0
  151.0717  144.4400  156.7864 H   0  0  0  0  0  0  0  0  0  0  0  0
  151.9906  146.1347  158.7143 H   0  0  0  0  0  0  0  0  0  0  0  0
  152.7405  144.4151  160.7532 H   0  0  0  0  0  0  0  0  0  0  0  0
  149.0735  143.1306  155.7980 H   0  0  0  0  0  0  0  0  0  0  0  0
  1  2  1  0  0  0  0
  1 18  1  0  0  0  0
  1 19  1  0  0  0  0
  1 20  1  0  0  0  0
  2  3  1  0  0  0  0
  2 21  1  0  0  0  0
  2 22  1  0  0  0  0
  3  4  1  0  0  0  0
  3 23  1  0  0  0  0
  4  5  2  0  0  0  0
  4  6  1  0  0  0  0
  6  7  1  0  0  0  0
  6 24  1  0  0  0  0
  6 25  1  0  0  0  0
  7  8  1  0  0  0  0
  7 26  1  0  0  0  0
  7 27  1  0  0  0  0
  8  9  1  0  0  0  0
  8 28  1  0  0  0  0
  8 40  1  0  0  0  0
  9 10  1  0  0  0  0
  9 11  1  0  0  0  0
  9 29  1  0  0  0  0
 10 30  1  0  0  0  0
 10 31  1  0  0  0  0
 10 32  1  0  0  0  0
 11 12  1  0  0  0  0
 11 13  1  0  0  0  0
 11 33  1  0  0  0  0
 12 34  1  0  0  0  0
 12 35  1  0  0  0  0
 12 36  1  0  0  0  0
 13 17  1  0  0  0  0
 13 14  1  0  0  0  0
 14 15  2  0  0  0  0
 14 37  1  0  0  0  0
 15 16  1  0  0  0  0
 15 38  1  0  0  0  0
 16 17  2  0  0  0  0
 16 39  1  0  0  0  0
M  CHG  1   8   1
M  END
> <s_m_source_file>
AV-unprocessed.smi

> <i_m_source_file_index>
3136

> <i_lp_mmshare_version>
43012

> <i_f3d_flags>
0

> <s_epik_input>
W0NIM11bQ0gyXVtOSF1DKD1PKVtDSDJdW0NIMl1bTkhdW0NASF0oW0NIM10pW0NASF0oW0NIM10pbjFbY0hdW2NIXVtjSF1uMQ==

> <s_epik_cmdline>
J2VwaWtfcHl0aG9uJywgJy1waCcsICc3LjAnLCAnLXRuJywgJzgnLCAnLW1hJywgJzIwMCcsICctbWV0YWxfYmluZGluZycsICctaW1hZScsICc8aW5maWxlLm1hZT4nLCAnLW9tYWUnLCAnPG91dGZpbGUubWFlPic=

> <r_lp_tautomer_probability>
1

> <r_epik_Ionization_Penalty>
0.00463447

> <r_epik_Ionization_Penalty_Charging>
0.00462393

> <r_epik_Ionization_Penalty_Neutral>
1.05394e-05

> <r_epik_State_Penalty>
-0

> <r_epik_Charging_Adjusted_Penalty>
0.00462393

> <i_epik_Tot_Q>
1

> <i_epik_Tot_abs_Q>
1

> <r_epik_Metal_State_Penalty>
-0

> <b_epik_Metal_Only>
0

> <s_lp_Force_Field>
OPLS_2005

> <r_lp_Energy>
10.4266

> <b_lp_Chiralities_Consistent>
1

> <s_lp_Variant>
AV-unprocessed.smi:3136-1

> <Gold.Version>
5.8.1

> <Gold.Id.Protein>
6NUR|6NUR_protein|mol2

> <Gold.PLP.Fitness>
41.6659

> <Gold.PLP.PLP>
-36.1578

> <Gold.PLP.part.hbond>
-1.4650

> <Gold.PLP.part.metal>
0.0000

> <Gold.PLP.part.buried>
-5.0891

> <Gold.PLP.part.nonpolar>
-30.0995

> <Gold.PLP.part.repulsive>
0.2733

> <Gold.PLP.ligand.clash>
0.0000

> <Gold.PLP.ligand.torsion>
1.8334

> <Gold.PLP.Chemscore.Hbond>
2.0000

> <Gold.PLP.Chemscore.CHOScore>
1.0000

> <Gold.PLP.Chemscore.Metal>
0.0000

> <Gold.Chemscore.Hbonds>
donor molecule, donor type, donor heavy atom, donor atom, acceptor molecule, acceptor atom, score
      L1  H     8    40       P1  8028  2.00
      L1  C    14    37       P1  8028  1.00

> <Gold.PLP.Chemscore.Internal.Correction>
0.1749

> <Gold.Rescore>
     Score         DG    S(hbond)    S(metal)    S(lipo)     H(rot)  DE(clash)    DE(int)     intcor
     10.84     -12.45       0.99        0.00      81.93       2.32       0.01       1.60       ----

> <Gold.Chemscore.Fitness>
10.8380

> <Gold.Chemscore.DG>
-12.4546

> <Gold.Chemscore.ZeroCoef>
-5.4800

> <Gold.Chemscore.Hbond>
0.9934

> <Gold.Chemscore.Metal>
0.0000

> <Gold.Chemscore.Lipo>
81.9251

> <Gold.Chemscore.Internal_Hbond>
0.0000

> <Gold.Chemscore.DEClash>
0.0125

> <Gold.Chemscore.DEInternal>
1.6041

> <Gold.Chemscore.Rot>
2.3159

> <Gold.Chemscore.Internal.Correction>
   9.000000E+99

> <Gold.Chemscore.Hbonds>
donor molecule, donor type, donor heavy atom, donor atom, acceptor molecule, acceptor atom, score
      L1  H     8    40       P1  8028  0.94

> <Gold.Chemscore.Hbond.Weighted>
-3.3180

> <Gold.Chemscore.Metal.Weighted>
-0.0000

> <Gold.Chemscore.Lipo.Weighted>
-9.5852

> <Gold.Chemscore.Internal_Hbond.Weighted>
0.0000

> <Gold.Chemscore.DEClash.Weighted>
0.0125

> <Gold.Chemscore.DEInternal.Weighted>
1.6041

> <Gold.Chemscore.Rot.Weighted>
5.9286

> <Gold.Chemscore.Internal.Correction.Weighted>
   9.000000E+99

> <Gold.Protein.RotatedTorsions>
[ 6907 6896 6895 6894 ] final  175.18 input  -60.11 | X-H torsion
[ 7974 7965 7964 7962 ] final  -57.22 input  175.53 | X-H torsion
[ 8008 7997 7996 7995 ] final  142.99 input   59.86 | X-H torsion
[ 10167 10162 10161 10158 ] final   63.31 input  -65.29 | X-H torsion
[ 10718 10713 10712 10709 ] final   74.49 input   66.30 | X-H torsion
[ 10763 10752 10751 10750 ] final   83.37 input  -60.55 | X-H torsion
[ 11005 11000 10999 10996 ] final   21.45 input  -57.11 | X-H torsion

> <Gold.Protein.ActiveResidues>
 VAL166  LYS551  ARG553  GLY616  TRP617  ASP618  TYR619  PRO620  LYS621  CYS622 
 ASP623  PHE694  ASN695  SER759  ASP760  ASP761  ALA762  ILE779  LEU786  VAL792 
 PHE793  MET794  SER795  GLU796  ALA797  LYS798  CYS799  TRP800  GLU811  SER814 

> <Gold.Protein.RotatedAtoms>
  151.7404  133.3322  159.3363 H   0  0  0  0  0  0  0  0  0  0  0  0  # atno 6907 bound_to 6896
  150.7576  134.6283  159.6182 H   0  0  0  0  0  0  0  0  0  0  0  0  # atno 6908 bound_to 6896
  152.3534  134.6976  160.0281 H   0  0  0  0  0  0  0  0  0  0  0  0  # atno 6909 bound_to 6896
  145.8535  140.8335  142.9973 H   0  0  0  0  0  0  0  0  0  0  0  0  # atno 7974 bound_to 7965
  156.2939  140.2274  156.4817 H   0  0  0  0  0  0  0  0  0  0  0  0  # atno 8008 bound_to 7997
  154.7847  140.0458  157.1176 H   0  0  0  0  0  0  0  0  0  0  0  0  # atno 8009 bound_to 7997
  154.9716  140.3067  155.4988 H   0  0  0  0  0  0  0  0  0  0  0  0  # atno 8010 bound_to 7997
  140.1345  144.4612  150.6846 H   0  0  0  0  0  0  0  0  0  0  0  0  # atno 10167 bound_to 10162
  157.6594  130.9680  150.1218 H   0  0  0  0  0  0  0  0  0  0  0  0  # atno 10718 bound_to 10713
  153.1285  135.4694  154.9311 H   0  0  0  0  0  0  0  0  0  0  0  0  # atno 10763 bound_to 10752
  154.7642  135.3140  154.8321 H   0  0  0  0  0  0  0  0  0  0  0  0  # atno 10764 bound_to 10752
  153.8868  135.6888  153.4817 H   0  0  0  0  0  0  0  0  0  0  0  0  # atno 10765 bound_to 10752
  140.3914  134.1815  155.7662 H   0  0  0  0  0  0  0  0  0  0  0  0  # atno 11005 bound_to 11000
  144.6728  140.0989  143.7461 LP  0  0  0  0  0  0  0  0  0  0  0  0  # atno 17320 bound_to 7965
  145.9330  139.2618  143.1314 LP  0  0  0  0  0  0  0  0  0  0  0  0  # atno 17321 bound_to 7965
  140.6797  143.2321  151.5415 LP  0  0  0  0  0  0  0  0  0  0  0  0  # atno 17342 bound_to 10162
  139.5503  144.2413  152.1518 LP  0  0  0  0  0  0  0  0  0  0  0  0  # atno 17343 bound_to 10162
  156.2088  130.3665  149.8696 LP  0  0  0  0  0  0  0  0  0  0  0  0  # atno 17370 bound_to 10713
  156.6581  130.8771  151.3542 LP  0  0  0  0  0  0  0  0  0  0  0  0  # atno 17371 bound_to 10713
  141.1889  133.8249  157.0976 LP  0  0  0  0  0  0  0  0  0  0  0  0  # atno 17394 bound_to 11000
  140.0404  134.9857  157.0950 LP  0  0  0  0  0  0  0  0  0  0  0  0  # atno 17395 bound_to 11000

$$$$
