AV-unprocessed.smi:3165|AV-procd|sdf|12091|dock8
  -GOLD-   2272017523D 1   1.00000     0.00000
 Structure written by MMmdl.
 37 38  0  0  0  0  0  0  0  0  1 V2000
  152.1396  139.2092  156.0518 C   0  0  0  0  0  0  0  0  0  0  0  0
  150.7202  139.7835  155.9019 C   0  0  2  0  0  0  0  0  0  0  0  0
  150.2636  139.8830  154.4257 C   0  0  0  0  0  0  0  0  0  0  0  0
  148.9085  140.3855  154.2814 N   0  0  0  0  0  0  0  0  0  0  0  0
  148.4294  141.6468  154.5674 C   0  0  0  0  0  0  0  0  0  0  0  0
  147.0975  141.6539  154.2662 C   0  0  0  0  0  0  0  0  0  0  0  0
  146.8515  140.3349  153.7922 C   0  0  0  0  0  0  0  0  0  0  0  0
  147.9373  139.5789  153.8006 N   0  0  0  0  0  0  0  0  0  0  0  0
  150.6575  141.0820  156.5793 N   0  0  0  0  0  0  0  0  0  0  0  0
  150.9098  141.0558  158.0193 C   0  0  0  0  0  0  0  0  0  0  0  0
  151.8032  142.2312  158.4401 C   0  0  1  0  0  0  0  0  0  0  0  0
  151.4631  143.5122  157.6540 C   0  0  0  0  0  0  0  0  0  0  0  0
  152.3051  144.6918  158.1536 C   0  0  0  0  0  0  0  0  0  0  0  0
  152.1502  144.8303  159.6716 C   0  0  0  0  0  0  0  0  0  0  0  0
  152.4394  143.4882  160.3622 C   0  0  0  0  0  0  0  0  0  0  0  0
  151.5903  142.4764  159.8294 O   0  0  0  0  0  0  0  0  0  0  0  0
  152.2050  138.1892  155.6731 H   0  0  0  0  0  0  0  0  0  0  0  0
  152.4416  139.1802  157.0992 H   0  0  0  0  0  0  0  0  0  0  0  0
  152.8697  139.8131  155.5116 H   0  0  0  0  0  0  0  0  0  0  0  0
  150.0464  139.0949  156.4135 H   0  0  0  0  0  0  0  0  0  0  0  0
  150.9158  140.5500  153.8619 H   0  0  0  0  0  0  0  0  0  0  0  0
  150.3291  138.9049  153.9458 H   0  0  0  0  0  0  0  0  0  0  0  0
  149.0698  142.4239  154.9584 H   0  0  0  0  0  0  0  0  0  0  0  0
  146.4045  142.4758  154.3669 H   0  0  0  0  0  0  0  0  0  0  0  0
  145.9232  139.9077  153.4425 H   0  0  0  0  0  0  0  0  0  0  0  0
  151.3059  141.7265  156.1377 H   0  0  0  0  0  0  0  0  0  0  0  0
  149.9662  141.1225  158.5604 H   0  0  0  0  0  0  0  0  0  0  0  0
  151.3753  140.1135  158.3109 H   0  0  0  0  0  0  0  0  0  0  0  0
  152.8494  141.9701  158.2673 H   0  0  0  0  0  0  0  0  0  0  0  0
  151.6339  143.3594  156.5879 H   0  0  0  0  0  0  0  0  0  0  0  0
  150.4037  143.7449  157.7704 H   0  0  0  0  0  0  0  0  0  0  0  0
  153.3541  144.5257  157.9043 H   0  0  0  0  0  0  0  0  0  0  0  0
  152.0053  145.6131  157.6537 H   0  0  0  0  0  0  0  0  0  0  0  0
  152.8190  145.6035  160.0508 H   0  0  0  0  0  0  0  0  0  0  0  0
  151.1345  145.1496  159.9088 H   0  0  0  0  0  0  0  0  0  0  0  0
  153.4854  143.2035  160.2385 H   0  0  0  0  0  0  0  0  0  0  0  0
  152.2578  143.5718  161.4337 H   0  0  0  0  0  0  0  0  0  0  0  0
  1  2  1  0  0  0  0
  1 17  1  0  0  0  0
  1 18  1  0  0  0  0
  1 19  1  0  0  0  0
  2  3  1  0  0  0  0
  2  9  1  0  0  0  0
  2 20  1  0  0  0  0
  3  4  1  0  0  0  0
  3 21  1  0  0  0  0
  3 22  1  0  0  0  0
  4  8  1  0  0  0  0
  4  5  1  0  0  0  0
  5  6  2  0  0  0  0
  5 23  1  0  0  0  0
  6  7  1  0  0  0  0
  6 24  1  0  0  0  0
  7  8  2  0  0  0  0
  7 25  1  0  0  0  0
  9 10  1  0  0  0  0
  9 26  1  0  0  0  0
 10 11  1  0  0  0  0
 10 27  1  0  0  0  0
 10 28  1  0  0  0  0
 11 16  1  0  0  0  0
 11 12  1  0  0  0  0
 11 29  1  0  0  0  0
 12 13  1  0  0  0  0
 12 30  1  0  0  0  0
 12 31  1  0  0  0  0
 13 14  1  0  0  0  0
 13 32  1  0  0  0  0
 13 33  1  0  0  0  0
 14 15  1  0  0  0  0
 14 34  1  0  0  0  0
 14 35  1  0  0  0  0
 15 16  1  0  0  0  0
 15 36  1  0  0  0  0
 15 37  1  0  0  0  0
M  END
> <s_m_source_file>
AV-unprocessed.smi

> <i_m_source_file_index>
3165

> <i_lp_mmshare_version>
43012

> <i_f3d_flags>
0

> <s_epik_input>
bjFbY0hdW2NIXVtjSF1uMVtDSDJdW0NAQEhdKFtDSDNdKVtOSF1bQ0gyXVtDQEBIXTJbQ0gyXVtDSDJdW0NIMl1bQ0gyXU8y

> <s_epik_cmdline>
J2VwaWtfcHl0aG9uJywgJy1waCcsICc3LjAnLCAnLXRuJywgJzgnLCAnLW1hJywgJzIwMCcsICctbWV0YWxfYmluZGluZycsICctaW1hZScsICc8aW5maWxlLm1hZT4nLCAnLW9tYWUnLCAnPG91dGZpbGUubWFlPic=

> <r_lp_tautomer_probability>
1

> <r_epik_Ionization_Penalty>
2.51982

> <r_epik_Ionization_Penalty_Charging>
0

> <r_epik_Ionization_Penalty_Neutral>
2.51982

> <r_epik_State_Penalty>
2.68614

> <r_epik_Charging_Adjusted_Penalty>
2.68614

> <i_epik_Tot_Q>
0

> <i_epik_Tot_abs_Q>
0

> <r_epik_Metal_State_Penalty>
2.6861

> <b_epik_Metal_Only>
0

> <s_lp_Force_Field>
OPLS_2005

> <r_lp_Energy>
13.227

> <b_lp_Chiralities_Consistent>
1

> <s_lp_Variant>
AV-unprocessed.smi:3165-7

> <Gold.Version>
5.8.1

> <Gold.Id.Protein>
6NUR|6NUR_protein|mol2

> <Gold.PLP.Fitness>
42.5112

> <Gold.PLP.PLP>
-37.6686

> <Gold.PLP.part.hbond>
-0.3550

> <Gold.PLP.part.metal>
0.0000

> <Gold.PLP.part.buried>
-2.0358

> <Gold.PLP.part.nonpolar>
-36.1467

> <Gold.PLP.part.repulsive>
0.2480

> <Gold.PLP.ligand.clash>
0.0000

> <Gold.PLP.ligand.torsion>
0.5914

> <Gold.PLP.Chemscore.Hbond>
0.0000

> <Gold.PLP.Chemscore.CHOScore>
2.0000

> <Gold.PLP.Chemscore.Metal>
0.0000

> <Gold.Chemscore.Hbonds>
donor molecule, donor type, donor heavy atom, donor atom, acceptor molecule, acceptor atom, score
      L1  C     5    23       P1  8028  1.00
      L1  C     7    25       P1 10175  1.00

> <Gold.PLP.Chemscore.Internal.Correction>
0.0254

> <Gold.Rescore>
     Score         DG    S(hbond)    S(metal)    S(lipo)     H(rot)  DE(clash)    DE(int)     intcor
     13.12     -13.73       0.00        0.00     104.90       1.57       0.08       0.53       ----

> <Gold.Chemscore.Fitness>
13.1168

> <Gold.Chemscore.DG>
-13.7259

> <Gold.Chemscore.ZeroCoef>
-5.4800

> <Gold.Chemscore.Hbond>
0.0000

> <Gold.Chemscore.Metal>
0.0000

> <Gold.Chemscore.Lipo>
104.8988

> <Gold.Chemscore.Internal_Hbond>
0.0000

> <Gold.Chemscore.DEClash>
0.0805

> <Gold.Chemscore.DEInternal>
0.5287

> <Gold.Chemscore.Rot>
1.5731

> <Gold.Chemscore.Internal.Correction>
   9.000000E+99

> <Gold.Chemscore.Hbond.Weighted>
-0.0000

> <Gold.Chemscore.Metal.Weighted>
-0.0000

> <Gold.Chemscore.Lipo.Weighted>
-12.2732

> <Gold.Chemscore.Internal_Hbond.Weighted>
0.0000

> <Gold.Chemscore.DEClash.Weighted>
0.0805

> <Gold.Chemscore.DEInternal.Weighted>
0.5287

> <Gold.Chemscore.Rot.Weighted>
4.0273

> <Gold.Chemscore.Internal.Correction.Weighted>
   9.000000E+99

> <Gold.Protein.RotatedTorsions>
[ 6907 6896 6895 6894 ] final -171.45 input  -60.11 | X-H torsion
[ 7974 7965 7964 7962 ] final -119.00 input  175.53 | X-H torsion
[ 8008 7997 7996 7995 ] final  178.07 input   59.86 | X-H torsion
[ 10167 10162 10161 10158 ] final   73.02 input  -65.29 | X-H torsion
[ 10718 10713 10712 10709 ] final -128.14 input   66.30 | X-H torsion
[ 10763 10752 10751 10750 ] final -163.72 input  -60.55 | X-H torsion
[ 11005 11000 10999 10996 ] final  166.03 input  -57.11 | X-H torsion

> <Gold.Protein.ActiveResidues>
 VAL166  LYS551  ARG553  GLY616  TRP617  ASP618  TYR619  PRO620  LYS621  CYS622 
 ASP623  PHE694  ASN695  SER759  ASP760  ASP761  ALA762  ILE779  LEU786  VAL792 
 PHE793  MET794  SER795  GLU796  ALA797  LYS798  CYS799  TRP800  GLU811  SER814 

> <Gold.Protein.RotatedAtoms>
  151.5241  133.3461  159.2906 H   0  0  0  0  0  0  0  0  0  0  0  0  # atno 6907 bound_to 6896
  150.8634  134.7994  159.7111 H   0  0  0  0  0  0  0  0  0  0  0  0  # atno 6908 bound_to 6896
  152.4646  134.5114  159.9806 H   0  0  0  0  0  0  0  0  0  0  0  0  # atno 6909 bound_to 6896
  145.0674  140.8334  143.4116 H   0  0  0  0  0  0  0  0  0  0  0  0  # atno 7974 bound_to 7965
  156.0587  140.1342  156.9967 H   0  0  0  0  0  0  0  0  0  0  0  0  # atno 8008 bound_to 7997
  154.4470  140.0996  156.6555 H   0  0  0  0  0  0  0  0  0  0  0  0  # atno 8009 bound_to 7997
  155.5411  140.3461  155.4449 H   0  0  0  0  0  0  0  0  0  0  0  0  # atno 8010 bound_to 7997
  140.0290  144.5481  150.7522 H   0  0  0  0  0  0  0  0  0  0  0  0  # atno 10167 bound_to 10162
  156.1923  130.6803  151.0439 H   0  0  0  0  0  0  0  0  0  0  0  0  # atno 10718 bound_to 10713
  154.7096  135.3003  154.9217 H   0  0  0  0  0  0  0  0  0  0  0  0  # atno 10763 bound_to 10752
  154.0123  135.6693  153.4770 H   0  0  0  0  0  0  0  0  0  0  0  0  # atno 10764 bound_to 10752
  153.0744  135.5043  154.8287 H   0  0  0  0  0  0  0  0  0  0  0  0  # atno 10765 bound_to 10752
  140.2622  134.7893  157.3600 H   0  0  0  0  0  0  0  0  0  0  0  0  # atno 11005 bound_to 11000
  145.1334  139.2617  143.5527 LP  0  0  0  0  0  0  0  0  0  0  0  0  # atno 17320 bound_to 7965
  146.3527  140.0991  142.8609 LP  0  0  0  0  0  0  0  0  0  0  0  0  # atno 17321 bound_to 7965
  140.7310  143.2690  151.3951 LP  0  0  0  0  0  0  0  0  0  0  0  0  # atno 17342 bound_to 10162
  139.6089  144.1140  152.2278 LP  0  0  0  0  0  0  0  0  0  0  0  0  # atno 17343 bound_to 10162
  157.6936  131.0801  150.7034 LP  0  0  0  0  0  0  0  0  0  0  0  0  # atno 17370 bound_to 10713
  156.7090  130.4646  149.5552 LP  0  0  0  0  0  0  0  0  0  0  0  0  # atno 17371 bound_to 10713
  140.1453  134.4919  155.8001 LP  0  0  0  0  0  0  0  0  0  0  0  0  # atno 17394 bound_to 11000
  141.2189  133.6841  156.7283 LP  0  0  0  0  0  0  0  0  0  0  0  0  # atno 17395 bound_to 11000

$$$$
