AV-unprocessed.smi:753|AV-procd|sdf|3604|dock2
  -GOLD-   22720 0593D 1   1.00000     0.00000
 Structure written by MMmdl.
 44 46  0  0  0  0  0  0  0  0  2 V2000
  150.7664  142.8671  158.3948 C   0  0  0  0  0  0  0  0  0  0  0  0
  150.3966  141.8974  157.2925 C   0  0  0  0  0  0  0  0  0  0  0  0
  151.0362  140.6482  157.1400 C   0  0  0  0  0  0  0  0  0  0  0  0
  150.6407  139.7962  156.0880 C   0  0  0  0  0  0  0  0  0  0  0  0
  149.6132  140.2087  155.2115 C   0  0  0  0  0  0  0  0  0  0  0  0
  149.1705  139.3160  154.0691 C   0  0  0  0  0  0  0  0  0  0  0  0
  147.6648  139.0120  154.1233 C   0  0  0  0  0  0  0  0  0  0  0  0
  147.3366  137.8126  153.3635 N   0  0  0  0  0  0  0  0  0  0  0  0
  146.0944  137.3346  153.1788 C   0  0  0  0  0  0  0  0  0  0  0  0
  145.0890  137.8641  153.6486 O   0  0  0  0  0  0  0  0  0  0  0  0
  146.0270  136.2215  152.4282 N   0  0  0  0  0  0  0  0  0  0  0  0
  144.8309  135.4650  152.0485 C   0  0  1  0  0  0  0  0  0  0  0  0
  144.7080  135.3483  150.5131 C   0  0  0  0  0  0  0  0  0  0  0  0
  144.6698  133.8268  150.2797 C   0  0  1  0  0  0  0  0  0  0  0  0
  146.0650  133.2287  150.5423 C   0  0  0  0  0  0  0  0  0  0  0  0
  146.1803  133.2936  152.0768 C   0  0  0  0  0  0  0  0  0  0  0  0
  144.8575  133.9769  152.4858 C   0  0  2  0  0  0  0  0  0  0  0  0
  143.8859  133.3468  151.4937 C   0  0  0  0  0  0  0  0  0  0  0  0
  149.0097  141.4685  155.4125 C   0  0  0  0  0  0  0  0  0  0  0  0
  149.4182  142.2564  156.4312 N   0  3  0  0  0  0  0  0  0  0  0  0
  151.5300  142.4461  159.0494 H   0  0  0  0  0  0  0  0  0  0  0  0
  149.8925  143.1055  159.0015 H   0  0  0  0  0  0  0  0  0  0  0  0
  151.1545  143.7934  157.9703 H   0  0  0  0  0  0  0  0  0  0  0  0
  151.8210  140.3437  157.8174 H   0  0  0  0  0  0  0  0  0  0  0  0
  151.1223  138.8380  155.9567 H   0  0  0  0  0  0  0  0  0  0  0  0
  149.4258  139.7989  153.1247 H   0  0  0  0  0  0  0  0  0  0  0  0
  149.7409  138.3867  154.1025 H   0  0  0  0  0  0  0  0  0  0  0  0
  147.3522  138.8560  155.1560 H   0  0  0  0  0  0  0  0  0  0  0  0
  147.0884  139.8596  153.7482 H   0  0  0  0  0  0  0  0  0  0  0  0
  148.1047  137.3123  152.9403 H   0  0  0  0  0  0  0  0  0  0  0  0
  146.9041  135.8534  152.0890 H   0  0  0  0  0  0  0  0  0  0  0  0
  143.9384  135.9579  152.4390 H   0  0  0  0  0  0  0  0  0  0  0  0
  143.7828  135.8137  150.1704 H   0  0  0  0  0  0  0  0  0  0  0  0
  145.5310  135.8215  149.9751 H   0  0  0  0  0  0  0  0  0  0  0  0
  144.2469  133.5436  149.3154 H   0  0  0  0  0  0  0  0  0  0  0  0
  146.1188  132.1953  150.1973 H   0  0  0  0  0  0  0  0  0  0  0  0
  146.8545  133.7905  150.0418 H   0  0  0  0  0  0  0  0  0  0  0  0
  146.2320  132.2870  152.4939 H   0  0  0  0  0  0  0  0  0  0  0  0
  147.0706  133.8266  152.4103 H   0  0  0  0  0  0  0  0  0  0  0  0
  144.5973  133.8240  153.5336 H   0  0  0  0  0  0  0  0  0  0  0  0
  142.8782  133.7623  151.5505 H   0  0  0  0  0  0  0  0  0  0  0  0
  143.8294  132.2595  151.5712 H   0  0  0  0  0  0  0  0  0  0  0  0
  148.2202  141.8684  154.7928 H   0  0  0  0  0  0  0  0  0  0  0  0
  148.9681  143.1636  156.5558 H   0  0  0  0  0  0  0  0  0  0  0  0
  1  2  1  0  0  0  0
  1 21  1  0  0  0  0
  1 22  1  0  0  0  0
  1 23  1  0  0  0  0
  2 20  1  0  0  0  0
  2  3  2  0  0  0  0
  3  4  1  0  0  0  0
  3 24  1  0  0  0  0
  4  5  2  0  0  0  0
  4 25  1  0  0  0  0
  5  6  1  0  0  0  0
  5 19  1  0  0  0  0
  6  7  1  0  0  0  0
  6 26  1  0  0  0  0
  6 27  1  0  0  0  0
  7  8  1  0  0  0  0
  7 28  1  0  0  0  0
  7 29  1  0  0  0  0
  8  9  1  0  0  0  0
  8 30  1  0  0  0  0
  9 10  2  0  0  0  0
  9 11  1  0  0  0  0
 11 12  1  0  0  0  0
 11 31  1  0  0  0  0
 12 17  1  0  0  0  0
 12 13  1  0  0  0  0
 12 32  1  0  0  0  0
 13 14  1  0  0  0  0
 13 33  1  0  0  0  0
 13 34  1  0  0  0  0
 14 18  1  0  0  0  0
 14 15  1  0  0  0  0
 14 35  1  0  0  0  0
 15 16  1  0  0  0  0
 15 36  1  0  0  0  0
 15 37  1  0  0  0  0
 16 17  1  0  0  0  0
 16 38  1  0  0  0  0
 16 39  1  0  0  0  0
 17 18  1  0  0  0  0
 17 40  1  0  0  0  0
 18 41  1  0  0  0  0
 18 42  1  0  0  0  0
 19 20  2  0  0  0  0
 19 43  1  0  0  0  0
 20 44  1  0  0  0  0
M  CHG  1  20   1
M  END
> <s_m_source_file>
AV-unprocessed.smi

> <i_m_source_file_index>
753

> <i_lp_mmshare_version>
43012

> <i_f3d_flags>
0

> <s_epik_input>
W0NIM11jMVtjSF1bY0hdYyhbY0hdbjEpW0NIMl1bQ0gyXVtOSF1DKD1PKVtOSF1bQ0BIXShbQ0gyXVtDQEBIXTIzKVtDQEBIXShbQ0gyXTMpW0NIMl1bQ0gyXTI=

> <s_epik_cmdline>
J2VwaWtfcHl0aG9uJywgJy1waCcsICc3LjAnLCAnLXRuJywgJzgnLCAnLW1hJywgJzIwMCcsICctbWV0YWxfYmluZGluZycsICctaW1hZScsICc8aW5maWxlLm1hZT4nLCAnLW9tYWUnLCAnPG91dGZpbGUubWFlPic=

> <r_epik_Ionization_Penalty>
1.41708

> <r_epik_Ionization_Penalty_Charging>
1.41702

> <r_epik_Ionization_Penalty_Neutral>
5.73163e-05

> <r_epik_State_Penalty>
1.50048

> <r_epik_Charging_Adjusted_Penalty>
2.9175

> <i_epik_Tot_Q>
1

> <i_epik_Tot_abs_Q>
1

> <r_epik_Metal_State_Penalty>
1.55295

> <b_epik_Metal_Only>
0

> <s_lp_Force_Field>
OPLS_2005

> <r_lp_Energy>
56.9964

> <b_lp_Chiralities_Consistent>
1

> <s_lp_Variant>
AV-unprocessed.smi:753-6

> <Gold.Version>
5.8.1

> <Gold.Id.Protein>
6NUR|6NUR_protein|mol2

> <Gold.PLP.Fitness>
47.2311

> <Gold.PLP.PLP>
-35.9151

> <Gold.PLP.part.hbond>
-2.9397

> <Gold.PLP.part.metal>
0.0000

> <Gold.PLP.part.buried>
0.8535

> <Gold.PLP.part.nonpolar>
-34.0307

> <Gold.PLP.part.repulsive>
0.3794

> <Gold.PLP.ligand.clash>
0.0000

> <Gold.PLP.ligand.torsion>
0.1274

> <Gold.PLP.Chemscore.Hbond>
3.8480

> <Gold.PLP.Chemscore.CHOScore>
0.0000

> <Gold.PLP.Chemscore.Metal>
0.0000

> <Gold.Chemscore.Hbonds>
donor molecule, donor type, donor heavy atom, donor atom, acceptor molecule, acceptor atom, score
      L1  H     8    30       P1  7948  1.00
      L1  H    11    31       P1  7948  0.83
      L1  H    20    44       P1  8028  1.50

> <Gold.PLP.Chemscore.Internal.Correction>
0.0267

> <Gold.Rescore>
     Score         DG    S(hbond)    S(metal)    S(lipo)     H(rot)  DE(clash)    DE(int)     intcor
     21.64     -21.91       2.87        0.00      91.31       1.50       0.05       0.21       ----

> <Gold.Chemscore.Fitness>
21.6444

> <Gold.Chemscore.DG>
-21.9124

> <Gold.Chemscore.ZeroCoef>
-5.4800

> <Gold.Chemscore.Hbond>
2.8729

> <Gold.Chemscore.Metal>
0.0000

> <Gold.Chemscore.Lipo>
91.3140

> <Gold.Chemscore.Internal_Hbond>
0.0000

> <Gold.Chemscore.DEClash>
0.0538

> <Gold.Chemscore.DEInternal>
0.2143

> <Gold.Chemscore.Rot>
1.5027

> <Gold.Chemscore.Internal.Correction>
   9.000000E+99

> <Gold.Chemscore.Hbonds>
donor molecule, donor type, donor heavy atom, donor atom, acceptor molecule, acceptor atom, score
      L1  H     8    30       P1  7948  1.00
      L1  H    11    31       P1  7948  0.78
      L1  H    20    44       P1  8028  0.74

> <Gold.Chemscore.Hbond.Weighted>
-9.5955

> <Gold.Chemscore.Metal.Weighted>
-0.0000

> <Gold.Chemscore.Lipo.Weighted>
-10.6837

> <Gold.Chemscore.Internal_Hbond.Weighted>
0.0000

> <Gold.Chemscore.DEClash.Weighted>
0.0538

> <Gold.Chemscore.DEInternal.Weighted>
0.2143

> <Gold.Chemscore.Rot.Weighted>
3.8468

> <Gold.Chemscore.Internal.Correction.Weighted>
   9.000000E+99

> <Gold.Protein.RotatedTorsions>
[ 6907 6896 6895 6894 ] final  -90.28 input  -60.11 | X-H torsion
[ 7974 7965 7964 7962 ] final  -26.35 input  175.53 | X-H torsion
[ 8008 7997 7996 7995 ] final   56.11 input   59.86 | X-H torsion
[ 10167 10162 10161 10158 ] final   85.16 input  -65.29 | X-H torsion
[ 10718 10713 10712 10709 ] final  154.59 input   66.30 | X-H torsion
[ 10763 10752 10751 10750 ] final -122.47 input  -60.55 | X-H torsion
[ 11005 11000 10999 10996 ] final  153.14 input  -57.11 | X-H torsion

> <Gold.Protein.ActiveResidues>
 VAL166  LYS551  ARG553  GLY616  TRP617  ASP618  TYR619  PRO620  LYS621  CYS622 
 ASP623  PHE694  ASN695  SER759  ASP760  ASP761  ALA762  ILE779  LEU786  VAL792 
 PHE793  MET794  SER795  GLU796  ALA797  LYS798  CYS799  TRP800  GLU811  SER814 

> <Gold.Protein.RotatedAtoms>
  150.6880  134.2457  159.4490 H   0  0  0  0  0  0  0  0  0  0  0  0  # atno 6907 bound_to 6896
  152.0398  134.9716  160.0583 H   0  0  0  0  0  0  0  0  0  0  0  0  # atno 6908 bound_to 6896
  152.1222  133.4325  159.4718 H   0  0  0  0  0  0  0  0  0  0  0  0  # atno 6909 bound_to 6896
  146.1431  140.5009  142.8643 H   0  0  0  0  0  0  0  0  0  0  0  0  # atno 7974 bound_to 7965
  155.5121  140.3477  155.4390 H   0  0  0  0  0  0  0  0  0  0  0  0  # atno 8008 bound_to 7997
  156.0842  140.1394  156.9701 H   0  0  0  0  0  0  0  0  0  0  0  0  # atno 8009 bound_to 7997
  154.4597  140.0939  156.6835 H   0  0  0  0  0  0  0  0  0  0  0  0  # atno 8010 bound_to 7997
  139.9006  144.6332  150.8641 H   0  0  0  0  0  0  0  0  0  0  0  0  # atno 10167 bound_to 10162
  157.2296  131.0736  151.1861 H   0  0  0  0  0  0  0  0  0  0  0  0  # atno 10718 bound_to 10713
  154.8690  135.4132  154.2787 H   0  0  0  0  0  0  0  0  0  0  0  0  # atno 10763 bound_to 10752
  153.3684  135.7006  153.6663 H   0  0  0  0  0  0  0  0  0  0  0  0  # atno 10764 bound_to 10752
  153.5535  135.3624  155.2741 H   0  0  0  0  0  0  0  0  0  0  0  0  # atno 10765 bound_to 10752
  140.1370  134.8764  157.2281 H   0  0  0  0  0  0  0  0  0  0  0  0  # atno 11005 bound_to 11000
  144.7815  140.5849  143.6602 LP  0  0  0  0  0  0  0  0  0  0  0  0  # atno 17320 bound_to 7965
  145.5001  139.1484  143.3662 LP  0  0  0  0  0  0  0  0  0  0  0  0  # atno 17321 bound_to 7965
  140.7707  143.3440  151.2149 LP  0  0  0  0  0  0  0  0  0  0  0  0  # atno 17342 bound_to 10162
  139.7029  143.9503  152.2913 LP  0  0  0  0  0  0  0  0  0  0  0  0  # atno 17343 bound_to 10162
  157.3492  130.7073  149.6430 LP  0  0  0  0  0  0  0  0  0  0  0  0  # atno 17370 bound_to 10713
  155.9676  130.4257  150.4667 LP  0  0  0  0  0  0  0  0  0  0  0  0  # atno 17371 bound_to 10713
  140.2769  134.3395  155.7355 LP  0  0  0  0  0  0  0  0  0  0  0  0  # atno 17394 bound_to 11000
  141.2180  133.7456  156.9306 LP  0  0  0  0  0  0  0  0  0  0  0  0  # atno 17395 bound_to 11000

$$$$
