AV-unprocessed.smi:2345|AV-procd|sdf|9363|dock8
  -GOLD-   2272012583D 1   1.00000     0.00000
 Structure written by MMmdl.
 37 38  0  0  0  0  0  0  0  0  1 V2000
  150.2310  139.3671  154.1104 C   0  0  0  0  0  0  0  0  0  0  0  0
  148.9110  139.7608  154.7784 C   0  0  0  0  0  0  0  0  0  0  0  0
  148.0740  141.0835  153.8622 S   0  0  0  0  0  0  0  0  0  0  0  0
  146.5560  141.2714  154.8547 C   0  0  2  0  0  0  0  0  0  0  0  0
  145.7072  142.4781  154.4551 C   0  0  0  0  0  0  0  0  0  0  0  0
  144.7598  142.6625  155.6388 C   0  0  0  0  0  0  0  0  0  0  0  0
  145.5600  142.2390  156.8776 C   0  0  0  0  0  0  0  0  0  0  0  0
  146.7844  141.4447  156.3712 C   0  0  2  0  0  0  0  0  0  0  0  0
  148.0262  142.1625  156.6605 N   0  0  0  0  0  0  0  0  0  0  0  0
  148.9878  141.7397  157.4925 C   0  0  0  0  0  0  0  0  0  0  0  0
  148.9151  140.6991  158.1463 O   0  0  0  0  0  0  0  0  0  0  0  0
  150.0139  142.6051  157.5325 N   0  0  0  0  0  0  0  0  0  0  0  0
  151.1903  142.4982  158.3176 C   0  0  0  0  0  0  0  0  0  0  0  0
  151.7316  143.6772  158.8700 C   0  0  0  0  0  0  0  0  0  0  0  0
  152.9125  143.5865  159.6335 C   0  0  0  0  0  0  0  0  0  0  0  0
  153.5667  142.4267  159.8538 N   0  0  0  0  0  0  0  0  0  0  0  0
  153.0602  141.3032  159.3018 C   0  0  0  0  0  0  0  0  0  0  0  0
  151.8872  141.2816  158.5204 C   0  0  0  0  0  0  0  0  0  0  0  0
  151.4735  140.1190  157.9614 F   0  0  0  0  0  0  0  0  0  0  0  0
  150.7262  138.5718  154.6677 H   0  0  0  0  0  0  0  0  0  0  0  0
  150.9147  140.2149  154.0607 H   0  0  0  0  0  0  0  0  0  0  0  0
  150.0655  139.0083  153.0941 H   0  0  0  0  0  0  0  0  0  0  0  0
  148.2533  138.8938  154.8379 H   0  0  0  0  0  0  0  0  0  0  0  0
  149.0958  140.0976  155.7986 H   0  0  0  0  0  0  0  0  0  0  0  0
  145.9568  140.3709  154.7101 H   0  0  0  0  0  0  0  0  0  0  0  0
  146.3386  143.3608  154.3445 H   0  0  0  0  0  0  0  0  0  0  0  0
  145.1709  142.3280  153.5181 H   0  0  0  0  0  0  0  0  0  0  0  0
  144.3843  143.6834  155.7139 H   0  0  0  0  0  0  0  0  0  0  0  0
  143.8983  142.0041  155.5194 H   0  0  0  0  0  0  0  0  0  0  0  0
  145.8600  143.1184  157.4493 H   0  0  0  0  0  0  0  0  0  0  0  0
  144.9438  141.6295  157.5393 H   0  0  0  0  0  0  0  0  0  0  0  0
  146.8288  140.4616  156.8436 H   0  0  0  0  0  0  0  0  0  0  0  0
  148.1705  143.0311  156.1665 H   0  0  0  0  0  0  0  0  0  0  0  0
  149.8875  143.4777  157.0416 H   0  0  0  0  0  0  0  0  0  0  0  0
  151.2491  144.6326  158.7232 H   0  0  0  0  0  0  0  0  0  0  0  0
  153.3448  144.4713  160.0768 H   0  0  0  0  0  0  0  0  0  0  0  0
  153.6149  140.3935  159.4777 H   0  0  0  0  0  0  0  0  0  0  0  0
  1  2  1  0  0  0  0
  1 20  1  0  0  0  0
  1 21  1  0  0  0  0
  1 22  1  0  0  0  0
  2  3  1  0  0  0  0
  2 23  1  0  0  0  0
  2 24  1  0  0  0  0
  3  4  1  0  0  0  0
  4  8  1  0  0  0  0
  4  5  1  0  0  0  0
  4 25  1  0  0  0  0
  5  6  1  0  0  0  0
  5 26  1  0  0  0  0
  5 27  1  0  0  0  0
  6  7  1  0  0  0  0
  6 28  1  0  0  0  0
  6 29  1  0  0  0  0
  7  8  1  0  0  0  0
  7 30  1  0  0  0  0
  7 31  1  0  0  0  0
  8  9  1  0  0  0  0
  8 32  1  0  0  0  0
  9 10  1  0  0  0  0
  9 33  1  0  0  0  0
 10 11  2  0  0  0  0
 10 12  1  0  0  0  0
 12 13  1  0  0  0  0
 12 34  1  0  0  0  0
 13 18  1  0  0  0  0
 13 14  2  0  0  0  0
 14 15  1  0  0  0  0
 14 35  1  0  0  0  0
 15 16  2  0  0  0  0
 15 36  1  0  0  0  0
 16 17  1  0  0  0  0
 17 18  2  0  0  0  0
 17 37  1  0  0  0  0
 18 19  1  0  0  0  0
M  END
> <s_m_source_file>
AV-unprocessed.smi

> <i_m_source_file_index>
2345

> <i_lp_mmshare_version>
43012

> <i_f3d_flags>
0

> <s_epik_input>
W0NIM11bQ0gyXVNbQ0BASF0xW0NIMl1bQ0gyXVtDSDJdW0NASF0xW05IXUMoPU8pW05IXWMyW2NIXVtjSF1uW2NIXWMyRg==

> <s_epik_cmdline>
J2VwaWtfcHl0aG9uJywgJy1waCcsICc3LjAnLCAnLXRuJywgJzgnLCAnLW1hJywgJzIwMCcsICctbWV0YWxfYmluZGluZycsICctaW1hZScsICc8aW5maWxlLm1hZT4nLCAnLW9tYWUnLCAnPG91dGZpbGUubWFlPic=

> <r_epik_Ionization_Penalty>
0.00333745

> <r_epik_Ionization_Penalty_Charging>
0

> <r_epik_Ionization_Penalty_Neutral>
0.00333745

> <r_epik_State_Penalty>
0.00233401

> <r_epik_Charging_Adjusted_Penalty>
0.00233401

> <i_epik_Tot_Q>
0

> <i_epik_Tot_abs_Q>
0

> <r_epik_Metal_State_Penalty>
-0

> <b_epik_Metal_Only>
0

> <s_lp_Force_Field>
OPLS_2005

> <r_lp_Energy>
24.389

> <b_lp_Chiralities_Consistent>
1

> <s_lp_Variant>
AV-unprocessed.smi:2345-3

> <Gold.Version>
5.8.1

> <Gold.Id.Protein>
6NUR|6NUR_protein|mol2

> <Gold.PLP.Fitness>
42.1133

> <Gold.PLP.PLP>
-37.0761

> <Gold.PLP.part.hbond>
-2.2049

> <Gold.PLP.part.metal>
0.0000

> <Gold.PLP.part.buried>
-3.3474

> <Gold.PLP.part.nonpolar>
-31.5268

> <Gold.PLP.part.repulsive>
0.0725

> <Gold.PLP.ligand.clash>
0.0000

> <Gold.PLP.ligand.torsion>
0.3793

> <Gold.PLP.Chemscore.Hbond>
1.8800

> <Gold.PLP.Chemscore.CHOScore>
0.0000

> <Gold.PLP.Chemscore.Metal>
0.0000

> <Gold.Chemscore.Hbonds>
donor molecule, donor type, donor heavy atom, donor atom, acceptor molecule, acceptor atom, score
      L1  H     9    33       P1  8028  1.00
      L1  H    12    34       P1  8028  0.83

> <Gold.PLP.Chemscore.Internal.Correction>
0.1559

> <Gold.Rescore>
     Score         DG    S(hbond)    S(metal)    S(lipo)     H(rot)  DE(clash)    DE(int)     intcor
     13.67     -17.31       1.66        0.00      83.31       1.35       0.02       3.62       ----

> <Gold.Chemscore.Fitness>
13.6678

> <Gold.Chemscore.DG>
-17.3094

> <Gold.Chemscore.ZeroCoef>
-5.4800

> <Gold.Chemscore.Hbond>
1.6562

> <Gold.Chemscore.Metal>
0.0000

> <Gold.Chemscore.Lipo>
83.3109

> <Gold.Chemscore.Internal_Hbond>
0.0000

> <Gold.Chemscore.DEClash>
0.0227

> <Gold.Chemscore.DEInternal>
3.6189

> <Gold.Chemscore.Rot>
1.3475

> <Gold.Chemscore.Internal.Correction>
   9.000000E+99

> <Gold.Chemscore.Hbonds>
donor molecule, donor type, donor heavy atom, donor atom, acceptor molecule, acceptor atom, score
      L1  H     9    33       P1  8028  0.70
      L1  H    12    34       P1  8028  0.77

> <Gold.Chemscore.Hbond.Weighted>
-5.5316

> <Gold.Chemscore.Metal.Weighted>
-0.0000

> <Gold.Chemscore.Lipo.Weighted>
-9.7474

> <Gold.Chemscore.Internal_Hbond.Weighted>
0.0000

> <Gold.Chemscore.DEClash.Weighted>
0.0227

> <Gold.Chemscore.DEInternal.Weighted>
3.6189

> <Gold.Chemscore.Rot.Weighted>
3.4496

> <Gold.Chemscore.Internal.Correction.Weighted>
   9.000000E+99

> <Gold.Protein.RotatedTorsions>
[ 6907 6896 6895 6894 ] final  -50.28 input  -60.11 | X-H torsion
[ 7974 7965 7964 7962 ] final -174.91 input  175.53 | X-H torsion
[ 8008 7997 7996 7995 ] final -145.70 input   59.86 | X-H torsion
[ 10167 10162 10161 10158 ] final   59.97 input  -65.29 | X-H torsion
[ 10718 10713 10712 10709 ] final   87.04 input   66.30 | X-H torsion
[ 10763 10752 10751 10750 ] final   37.79 input  -60.55 | X-H torsion
[ 11005 11000 10999 10996 ] final  -79.72 input  -57.11 | X-H torsion

> <Gold.Protein.ActiveResidues>
 VAL166  LYS551  ARG553  GLY616  TRP617  ASP618  TYR619  PRO620  LYS621  CYS622 
 ASP623  PHE694  ASN695  SER759  ASP760  ASP761  ALA762  ILE779  LEU786  VAL792 
 PHE793  MET794  SER795  GLU796  ALA797  LYS798  CYS799  TRP800  GLU811  SER814 

> <Gold.Protein.RotatedAtoms>
  150.8722  134.8099  159.7163 H   0  0  0  0  0  0  0  0  0  0  0  0  # atno 6907 bound_to 6896
  152.4723  134.4928  159.9710 H   0  0  0  0  0  0  0  0  0  0  0  0  # atno 6908 bound_to 6896
  151.5015  133.3465  159.2905 H   0  0  0  0  0  0  0  0  0  0  0  0  # atno 6909 bound_to 6896
  144.7130  140.1400  143.6392 H   0  0  0  0  0  0  0  0  0  0  0  0  # atno 7974 bound_to 7965
  155.5475  140.0613  157.2857 H   0  0  0  0  0  0  0  0  0  0  0  0  # atno 8008 bound_to 7997
  154.4431  140.1908  156.0697 H   0  0  0  0  0  0  0  0  0  0  0  0  # atno 8009 bound_to 7997
  156.0540  140.3281  155.7388 H   0  0  0  0  0  0  0  0  0  0  0  0  # atno 8010 bound_to 7997
  140.1707  144.4280  150.6663 H   0  0  0  0  0  0  0  0  0  0  0  0  # atno 10167 bound_to 10162
  157.6936  131.0240  150.3064 H   0  0  0  0  0  0  0  0  0  0  0  0  # atno 10718 bound_to 10713
  153.0024  135.6268  154.2201 H   0  0  0  0  0  0  0  0  0  0  0  0  # atno 10763 bound_to 10752
  154.1944  135.2807  155.3013 H   0  0  0  0  0  0  0  0  0  0  0  0  # atno 10764 bound_to 10752
  154.5734  135.5669  153.7175 H   0  0  0  0  0  0  0  0  0  0  0  0  # atno 10765 bound_to 10752
  141.1667  133.7118  156.8165 H   0  0  0  0  0  0  0  0  0  0  0  0  # atno 11005 bound_to 11000
  145.9210  139.2546  143.1381 LP  0  0  0  0  0  0  0  0  0  0  0  0  # atno 17320 bound_to 7965
  145.9620  140.8828  143.0206 LP  0  0  0  0  0  0  0  0  0  0  0  0  # atno 17321 bound_to 7965
  140.6584  143.2244  151.5915 LP  0  0  0  0  0  0  0  0  0  0  0  0  # atno 17342 bound_to 10162
  139.5339  144.2836  152.1209 LP  0  0  0  0  0  0  0  0  0  0  0  0  # atno 17343 bound_to 10162
  156.3572  130.3841  149.7281 LP  0  0  0  0  0  0  0  0  0  0  0  0  # atno 17370 bound_to 10713
  156.4739  130.8009  151.3026 LP  0  0  0  0  0  0  0  0  0  0  0  0  # atno 17371 bound_to 10713
  140.2150  134.8799  157.3316 LP  0  0  0  0  0  0  0  0  0  0  0  0  # atno 17394 bound_to 11000
  140.2047  134.4212  155.7644 LP  0  0  0  0  0  0  0  0  0  0  0  0  # atno 17395 bound_to 11000

$$$$
