AV-unprocessed.smi:2551|AV-procd|sdf|10014|dock5
  -GOLD-   2272014 63D 1   1.00000     0.00000
 Structure written by MMmdl.
 25 26  0  0  0  0  0  0  0  0  2 V2000
  152.6656  140.6678  158.3849 O   0  0  0  0  0  0  0  0  0  0  0  0
  151.8943  141.3274  157.6894 C   0  0  0  0  0  0  0  0  0  0  0  0
  151.0926  140.7767  156.7398 N   0  5  0  0  0  0  0  0  0  0  0  0
  151.5167  139.8129  155.9015 C   0  0  0  0  0  0  0  0  0  0  0  0
  152.7394  139.2656  155.9933 N   0  0  0  0  0  0  0  0  0  0  0  0
  152.9755  138.2925  155.0320 N   0  0  0  0  0  0  0  0  0  0  0  0
  151.9155  138.1223  154.2423 C   0  0  0  0  0  0  0  0  0  0  0  0
  150.5340  139.1366  154.5997 S   0  0  0  0  0  0  0  0  0  0  0  0
  151.8348  142.6616  157.8684 N   0  0  0  0  0  0  0  0  0  0  0  0
  152.6085  143.4379  158.8342 C   0  0  0  0  0  0  0  0  0  0  0  0
  152.3372  142.9464  160.2690 C   0  0  0  0  0  0  0  0  0  0  0  0
  152.0561  144.1992  161.1000 C   0  0  0  0  0  0  0  0  0  0  0  0
  151.4416  145.1795  160.1063 C   0  0  0  0  0  0  0  0  0  0  0  0
  152.2102  144.9270  158.8090 C   0  0  0  0  0  0  0  0  0  0  0  0
  151.9469  137.3943  153.4454 H   0  0  0  0  0  0  0  0  0  0  0  0
  151.1999  143.1792  157.2785 H   0  0  0  0  0  0  0  0  0  0  0  0
  153.6734  143.3411  158.6152 H   0  0  0  0  0  0  0  0  0  0  0  0
  151.4578  142.3004  160.2944 H   0  0  0  0  0  0  0  0  0  0  0  0
  153.1706  142.3691  160.6706 H   0  0  0  0  0  0  0  0  0  0  0  0
  151.4057  144.0006  161.9522 H   0  0  0  0  0  0  0  0  0  0  0  0
  152.9935  144.6051  161.4825 H   0  0  0  0  0  0  0  0  0  0  0  0
  150.3869  144.9424  159.9609 H   0  0  0  0  0  0  0  0  0  0  0  0
  151.5088  146.2155  160.4397 H   0  0  0  0  0  0  0  0  0  0  0  0
  153.1135  145.5383  158.8009 H   0  0  0  0  0  0  0  0  0  0  0  0
  151.6282  145.2070  157.9296 H   0  0  0  0  0  0  0  0  0  0  0  0
  1  2  2  0  0  0  0
  2  3  1  0  0  0  0
  2  9  1  0  0  0  0
  3  4  1  0  0  0  0
  4  8  1  0  0  0  0
  4  5  2  0  0  0  0
  5  6  1  0  0  0  0
  6  7  2  0  0  0  0
  7  8  1  0  0  0  0
  7 15  1  0  0  0  0
  9 10  1  0  0  0  0
  9 16  1  0  0  0  0
 10 14  1  0  0  0  0
 10 11  1  0  0  0  0
 10 17  1  0  0  0  0
 11 12  1  0  0  0  0
 11 18  1  0  0  0  0
 11 19  1  0  0  0  0
 12 13  1  0  0  0  0
 12 20  1  0  0  0  0
 12 21  1  0  0  0  0
 13 14  1  0  0  0  0
 13 22  1  0  0  0  0
 13 23  1  0  0  0  0
 14 24  1  0  0  0  0
 14 25  1  0  0  0  0
M  CHG  1   3  -1
M  END
> <s_m_source_file>
AV-unprocessed.smi

> <i_m_source_file_index>
2551

> <i_lp_mmshare_version>
43012

> <i_f3d_flags>
0

> <s_epik_input>
W0NIMl0xW0NIMl1bQ0gyXVtDSDJdW0NIXTFbTkhdQyg9TylbTkhdYzJubltjSF1zMg==

> <s_epik_cmdline>
J2VwaWtfcHl0aG9uJywgJy1waCcsICc3LjAnLCAnLXRuJywgJzgnLCAnLW1hJywgJzIwMCcsICctbWV0YWxfYmluZGluZycsICctaW1hZScsICc8aW5maWxlLm1hZT4nLCAnLW9tYWUnLCAnPG91dGZpbGUubWFlPic=

> <r_lp_tautomer_probability>
1

> <r_epik_Ionization_Penalty>
4.51495

> <r_epik_Ionization_Penalty_Charging>
4.46823

> <r_epik_Ionization_Penalty_Neutral>
0.0467187

> <r_epik_State_Penalty>
4.46792

> <r_epik_Charging_Adjusted_Penalty>
8.93614

> <i_epik_Tot_Q>
-1

> <i_epik_Tot_abs_Q>
1

> <r_epik_Metal_State_Penalty>
0.803637

> <b_epik_Metal_Only>
1

> <s_lp_Force_Field>
OPLS_2005

> <r_lp_Energy>
17.7165

> <b_lp_Chiralities_Consistent>
1

> <s_lp_Variant>
AV-unprocessed.smi:2551-2

> <Gold.Version>
5.8.1

> <Gold.Id.Protein>
6NUR|6NUR_protein|mol2

> <Gold.PLP.Fitness>
40.0518

> <Gold.PLP.PLP>
-34.7382

> <Gold.PLP.part.hbond>
-1.4946

> <Gold.PLP.part.metal>
0.0000

> <Gold.PLP.part.buried>
-5.0903

> <Gold.PLP.part.nonpolar>
-28.3630

> <Gold.PLP.part.repulsive>
0.0760

> <Gold.PLP.ligand.clash>
0.0000

> <Gold.PLP.ligand.torsion>
0.3453

> <Gold.PLP.Chemscore.Hbond>
1.0000

> <Gold.PLP.Chemscore.CHOScore>
1.0000

> <Gold.PLP.Chemscore.Metal>
0.0000

> <Gold.Chemscore.Hbonds>
donor molecule, donor type, donor heavy atom, donor atom, acceptor molecule, acceptor atom, score
      P1  H  7997  8010       L1     5  1.00
      L1  C     7    15       P1  7949  1.00

> <Gold.PLP.Chemscore.Internal.Correction>
0.0040

> <Gold.Rescore>
     Score         DG    S(hbond)    S(metal)    S(lipo)     H(rot)  DE(clash)    DE(int)     intcor
     13.04     -15.15       0.86        0.00      79.89       1.00       0.28       1.82       ----

> <Gold.Chemscore.Fitness>
13.0450

> <Gold.Chemscore.DG>
-15.1491

> <Gold.Chemscore.ZeroCoef>
-5.4800

> <Gold.Chemscore.Hbond>
0.8628

> <Gold.Chemscore.Metal>
0.0000

> <Gold.Chemscore.Lipo>
79.8916

> <Gold.Chemscore.Internal_Hbond>
0.0000

> <Gold.Chemscore.DEClash>
0.2793

> <Gold.Chemscore.DEInternal>
1.8248

> <Gold.Chemscore.Rot>
1.0000

> <Gold.Chemscore.Internal.Correction>
   9.000000E+99

> <Gold.Chemscore.Hbonds>
donor molecule, donor type, donor heavy atom, donor atom, acceptor molecule, acceptor atom, score
      P1  H  7997  8010       L1     5  0.29

> <Gold.Chemscore.Hbond.Weighted>
-2.8818

> <Gold.Chemscore.Metal.Weighted>
-0.0000

> <Gold.Chemscore.Lipo.Weighted>
-9.3473

> <Gold.Chemscore.Internal_Hbond.Weighted>
0.0000

> <Gold.Chemscore.DEClash.Weighted>
0.2793

> <Gold.Chemscore.DEInternal.Weighted>
1.8248

> <Gold.Chemscore.Rot.Weighted>
2.5600

> <Gold.Chemscore.Internal.Correction.Weighted>
   9.000000E+99

> <Gold.Protein.RotatedTorsions>
[ 6907 6896 6895 6894 ] final -171.92 input  -60.11 | X-H torsion
[ 7974 7965 7964 7962 ] final   19.87 input  175.53 | X-H torsion
[ 8008 7997 7996 7995 ] final   98.85 input   59.86 | X-H torsion
[ 10167 10162 10161 10158 ] final -153.69 input  -65.29 | X-H torsion
[ 10718 10713 10712 10709 ] final   93.21 input   66.30 | X-H torsion
[ 10763 10752 10751 10750 ] final -151.46 input  -60.55 | X-H torsion
[ 11005 11000 10999 10996 ] final -117.45 input  -57.11 | X-H torsion

> <Gold.Protein.ActiveResidues>
 VAL166  LYS551  ARG553  GLY616  TRP617  ASP618  TYR619  PRO620  LYS621  CYS622 
 ASP623  PHE694  ASN695  SER759  ASP760  ASP761  ALA762  ILE779  LEU786  VAL792 
 PHE793  MET794  SER795  GLU796  ALA797  LYS798  CYS799  TRP800  GLU811  SER814 

> <Gold.Protein.RotatedAtoms>
  151.5317  133.3448  159.2919 H   0  0  0  0  0  0  0  0  0  0  0  0  # atno 6907 bound_to 6896
  150.8589  134.7939  159.7079 H   0  0  0  0  0  0  0  0  0  0  0  0  # atno 6908 bound_to 6896
  152.4615  134.5182  159.9826 H   0  0  0  0  0  0  0  0  0  0  0  0  # atno 6909 bound_to 6896
  146.2133  139.8251  142.8671 H   0  0  0  0  0  0  0  0  0  0  0  0  # atno 7974 bound_to 7965
  156.1046  140.3237  155.7989 H   0  0  0  0  0  0  0  0  0  0  0  0  # atno 8008 bound_to 7997
  155.4777  140.0551  157.2988 H   0  0  0  0  0  0  0  0  0  0  0  0  # atno 8009 bound_to 7997
  154.4719  140.2015  155.9988 H   0  0  0  0  0  0  0  0  0  0  0  0  # atno 8010 bound_to 7997
  139.7075  143.9162  152.2455 H   0  0  0  0  0  0  0  0  0  0  0  0  # atno 10167 bound_to 10162
  157.6955  131.0470  150.3999 H   0  0  0  0  0  0  0  0  0  0  0  0  # atno 10718 bound_to 10713
  154.8056  135.3259  154.7439 H   0  0  0  0  0  0  0  0  0  0  0  0  # atno 10763 bound_to 10752
  153.8098  135.6896  153.4847 H   0  0  0  0  0  0  0  0  0  0  0  0  # atno 10764 bound_to 10752
  153.1800  135.4590  154.9960 H   0  0  0  0  0  0  0  0  0  0  0  0  # atno 10765 bound_to 10752
  141.0354  133.9918  157.3079 H   0  0  0  0  0  0  0  0  0  0  0  0  # atno 11005 bound_to 11000
  145.3055  141.0206  143.3584 LP  0  0  0  0  0  0  0  0  0  0  0  0  # atno 17320 bound_to 7965
  144.8974  139.4694  143.6649 LP  0  0  0  0  0  0  0  0  0  0  0  0  # atno 17321 bound_to 7965
  139.9022  144.6905  150.8653 LP  0  0  0  0  0  0  0  0  0  0  0  0  # atno 17342 bound_to 10162
  140.7725  143.3505  151.2023 LP  0  0  0  0  0  0  0  0  0  0  0  0  # atno 17343 bound_to 10162
  156.4394  130.3988  149.6707 LP  0  0  0  0  0  0  0  0  0  0  0  0  # atno 17370 bound_to 10713
  156.3896  130.7620  151.2620 LP  0  0  0  0  0  0  0  0  0  0  0  0  # atno 17371 bound_to 10713
  139.9237  135.0201  156.8156 LP  0  0  0  0  0  0  0  0  0  0  0  0  # atno 17394 bound_to 11000
  140.6332  133.9886  155.7672 LP  0  0  0  0  0  0  0  0  0  0  0  0  # atno 17395 bound_to 11000

$$$$
