AV-unprocessed.smi:2645|AV-procd|sdf|10280|dock5
  -GOLD-   2272014293D 1   1.00000     0.00000
 Structure written by MMmdl.
 50 52  0  0  0  0  0  0  0  0  2 V2000
  144.7455  136.4257  153.2386 O   0  0  0  0  0  0  0  0  0  0  0  0
  145.9122  136.3587  152.8502 C   0  0  0  0  0  0  0  0  0  0  0  0
  146.8427  137.2728  153.1630 N   0  0  0  0  0  0  0  0  0  0  0  0
  146.6076  138.4388  154.0072 C   0  0  0  0  0  0  0  0  0  0  0  0
  147.1174  139.7336  153.3437 C   0  0  0  0  0  0  0  0  0  0  0  0
  148.4971  140.0843  153.7638 N   0  3  0  0  0  0  0  0  0  0  0  0
  148.5117  141.1676  154.7848 C   0  0  0  0  0  0  0  0  0  0  0  0
  149.9459  141.5192  155.2225 C   0  0  0  0  0  0  0  0  0  0  0  0
  150.6100  140.3002  155.6925 N   0  0  0  0  0  0  0  0  0  0  0  0
  150.9614  140.1042  156.9869 C   0  0  0  0  0  0  0  0  0  0  0  0
  151.4239  139.0329  157.3809 O   0  0  0  0  0  0  0  0  0  0  0  0
  150.8211  141.2741  157.9849 C   0  0  0  0  0  0  0  0  0  0  0  0
  151.4864  142.6056  157.5829 C   0  0  0  0  0  0  0  0  0  0  0  0
  152.6454  142.2964  158.5351 C   0  0  0  0  0  0  0  0  0  0  0  0
  151.7906  141.1992  159.1768 C   0  0  0  0  0  0  0  0  0  0  0  0
  150.7220  139.3147  154.6138 C   0  0  0  0  0  0  0  0  0  0  0  0
  149.3084  138.9010  154.1677 C   0  0  0  0  0  0  0  0  0  0  0  0
  146.4212  135.3846  152.0750 N   0  0  0  0  0  0  0  0  0  0  0  0
  145.7498  134.2563  151.5327 C   0  0  0  0  0  0  0  0  0  0  0  0
  146.5881  133.2959  150.9224 C   0  0  0  0  0  0  0  0  0  0  0  0
  146.0179  132.1405  150.3534 C   0  0  0  0  0  0  0  0  0  0  0  0
  144.6223  131.9759  150.4077 C   0  0  0  0  0  0  0  0  0  0  0  0
  143.8599  132.9801  151.0320 C   0  0  0  0  0  0  0  0  0  0  0  0
  144.4042  134.0877  151.5789 N   0  0  0  0  0  0  0  0  0  0  0  0
  147.7789  137.1440  152.8070 H   0  0  0  0  0  0  0  0  0  0  0  0
  145.5434  138.4974  154.2363 H   0  0  0  0  0  0  0  0  0  0  0  0
  147.1213  138.2805  154.9558 H   0  0  0  0  0  0  0  0  0  0  0  0
  147.0988  139.5879  152.2624 H   0  0  0  0  0  0  0  0  0  0  0  0
  146.4521  140.5733  153.5506 H   0  0  0  0  0  0  0  0  0  0  0  0
  148.0254  142.0568  154.3820 H   0  0  0  0  0  0  0  0  0  0  0  0
  147.9293  140.8525  155.6523 H   0  0  0  0  0  0  0  0  0  0  0  0
  150.5054  141.9336  154.3827 H   0  0  0  0  0  0  0  0  0  0  0  0
  149.9161  142.3068  155.9764 H   0  0  0  0  0  0  0  0  0  0  0  0
  149.7836  141.4369  158.2792 H   0  0  0  0  0  0  0  0  0  0  0  0
  151.7868  142.7069  156.5394 H   0  0  0  0  0  0  0  0  0  0  0  0
  150.9022  143.4703  157.9008 H   0  0  0  0  0  0  0  0  0  0  0  0
  153.5200  141.8991  158.0182 H   0  0  0  0  0  0  0  0  0  0  0  0
  152.9093  143.1145  159.2063 H   0  0  0  0  0  0  0  0  0  0  0  0
  151.3264  141.5130  160.1125 H   0  0  0  0  0  0  0  0  0  0  0  0
  152.3134  140.2490  159.2944 H   0  0  0  0  0  0  0  0  0  0  0  0
  151.2564  139.7661  153.7763 H   0  0  0  0  0  0  0  0  0  0  0  0
  151.3046  138.4343  154.8803 H   0  0  0  0  0  0  0  0  0  0  0  0
  148.8053  138.3764  154.9817 H   0  0  0  0  0  0  0  0  0  0  0  0
  149.3907  138.1970  153.3408 H   0  0  0  0  0  0  0  0  0  0  0  0
  147.4018  135.4560  151.8469 H   0  0  0  0  0  0  0  0  0  0  0  0
  147.6588  133.4377  150.8888 H   0  0  0  0  0  0  0  0  0  0  0  0
  146.6416  131.3944  149.8833 H   0  0  0  0  0  0  0  0  0  0  0  0
  144.1482  131.1036  149.9826 H   0  0  0  0  0  0  0  0  0  0  0  0
  142.7851  132.8926  151.0948 H   0  0  0  0  0  0  0  0  0  0  0  0
  148.9507  140.4751  152.9505 H   0  0  0  0  0  0  0  0  0  0  0  0
  1  2  2  0  0  0  0
  2  3  1  0  0  0  0
  2 18  1  0  0  0  0
  3  4  1  0  0  0  0
  3 25  1  0  0  0  0
  4  5  1  0  0  0  0
  4 26  1  0  0  0  0
  4 27  1  0  0  0  0
  5  6  1  0  0  0  0
  5 28  1  0  0  0  0
  5 29  1  0  0  0  0
  6 17  1  0  0  0  0
  6  7  1  0  0  0  0
  6 50  1  0  0  0  0
  7  8  1  0  0  0  0
  7 30  1  0  0  0  0
  7 31  1  0  0  0  0
  8  9  1  0  0  0  0
  8 32  1  0  0  0  0
  8 33  1  0  0  0  0
  9 10  1  0  0  0  0
  9 16  1  0  0  0  0
 10 11  2  0  0  0  0
 10 12  1  0  0  0  0
 12 15  1  0  0  0  0
 12 13  1  0  0  0  0
 12 34  1  0  0  0  0
 13 14  1  0  0  0  0
 13 35  1  0  0  0  0
 13 36  1  0  0  0  0
 14 15  1  0  0  0  0
 14 37  1  0  0  0  0
 14 38  1  0  0  0  0
 15 39  1  0  0  0  0
 15 40  1  0  0  0  0
 16 17  1  0  0  0  0
 16 41  1  0  0  0  0
 16 42  1  0  0  0  0
 17 43  1  0  0  0  0
 17 44  1  0  0  0  0
 18 19  1  0  0  0  0
 18 45  1  0  0  0  0
 19 24  1  0  0  0  0
 19 20  2  0  0  0  0
 20 21  1  0  0  0  0
 20 46  1  0  0  0  0
 21 22  2  0  0  0  0
 21 47  1  0  0  0  0
 22 23  1  0  0  0  0
 22 48  1  0  0  0  0
 23 24  2  0  0  0  0
 23 49  1  0  0  0  0
M  CHG  1   6   1
M  END
> <s_m_source_file>
AV-unprocessed.smi

> <i_m_source_file_index>
2645

> <i_lp_mmshare_version>
43012

> <i_f3d_flags>
0

> <s_epik_input>
bjFbY0hdW2NIXVtjSF1bY0hdYzFbTkhdQyg9TylbTkhdW0NIMl1bQ0gyXU4yW0NIMl1bQ0gyXU4oW0NIMl1bQ0gyXTIpQyg9TylbQ0hdM1tDSDJdW0NIMl1bQ0gyXTM=

> <s_epik_cmdline>
J2VwaWtfcHl0aG9uJywgJy1waCcsICc3LjAnLCAnLXRuJywgJzgnLCAnLW1hJywgJzIwMCcsICctbWV0YWxfYmluZGluZycsICctaW1hZScsICc8aW5maWxlLm1hZT4nLCAnLW9tYWUnLCAnPG91dGZpbGUubWFlPic=

> <r_epik_Ionization_Penalty>
0.58203

> <r_epik_Ionization_Penalty_Charging>
0.581996

> <r_epik_Ionization_Penalty_Neutral>
3.43439e-05

> <r_epik_State_Penalty>
0.594836

> <r_epik_Charging_Adjusted_Penalty>
1.17683

> <i_epik_Tot_Q>
1

> <i_epik_Tot_abs_Q>
1

> <r_epik_Metal_State_Penalty>
0.594839

> <b_epik_Metal_Only>
0

> <s_lp_Force_Field>
OPLS_2005

> <r_lp_Energy>
52.325

> <b_lp_Chiralities_Consistent>
1

> <s_lp_Variant>
AV-unprocessed.smi:2645-2

> <Gold.Version>
5.8.1

> <Gold.Id.Protein>
6NUR|6NUR_protein|mol2

> <Gold.PLP.Fitness>
53.4539

> <Gold.PLP.PLP>
-44.0396

> <Gold.PLP.part.hbond>
-3.0000

> <Gold.PLP.part.metal>
0.0000

> <Gold.PLP.part.buried>
-4.9873

> <Gold.PLP.part.nonpolar>
-35.7796

> <Gold.PLP.part.repulsive>
0.4690

> <Gold.PLP.ligand.clash>
0.1924

> <Gold.PLP.ligand.torsion>
1.2144

> <Gold.PLP.Chemscore.Hbond>
2.8640

> <Gold.PLP.Chemscore.CHOScore>
0.9992

> <Gold.PLP.Chemscore.Metal>
0.0000

> <Gold.Chemscore.Hbonds>
donor molecule, donor type, donor heavy atom, donor atom, acceptor molecule, acceptor atom, score
      L1  H     3    25       P1  7948  1.00
      L1  H     6    50       P1  7957  0.88
      L1  H    18    45       P1  7948  1.00
      L1  C    23    49       P1 10186  0.29

> <Gold.PLP.Chemscore.Internal.Correction>
0.4460

> <Gold.Rescore>
     Score         DG    S(hbond)    S(metal)    S(lipo)     H(rot)  DE(clash)    DE(int)     intcor
     20.62     -23.08       2.91        0.00     106.53       1.79       0.00       2.45       ----

> <Gold.Chemscore.Fitness>
20.6235

> <Gold.Chemscore.DG>
-23.0809

> <Gold.Chemscore.ZeroCoef>
-5.4800

> <Gold.Chemscore.Hbond>
2.9095

> <Gold.Chemscore.Metal>
0.0000

> <Gold.Chemscore.Lipo>
106.5295

> <Gold.Chemscore.Internal_Hbond>
0.0000

> <Gold.Chemscore.DEClash>
0.0029

> <Gold.Chemscore.DEInternal>
2.4545

> <Gold.Chemscore.Rot>
1.7894

> <Gold.Chemscore.Internal.Correction>
   9.000000E+99

> <Gold.Chemscore.Hbonds>
donor molecule, donor type, donor heavy atom, donor atom, acceptor molecule, acceptor atom, score
      L1  H     3    25       P1  7948  0.95
      L1  H     6    50       P1  7957  0.86
      L1  H    18    45       P1  7948  0.98

> <Gold.Chemscore.Hbond.Weighted>
-9.7177

> <Gold.Chemscore.Metal.Weighted>
-0.0000

> <Gold.Chemscore.Lipo.Weighted>
-12.4640

> <Gold.Chemscore.Internal_Hbond.Weighted>
0.0000

> <Gold.Chemscore.DEClash.Weighted>
0.0029

> <Gold.Chemscore.DEInternal.Weighted>
2.4545

> <Gold.Chemscore.Rot.Weighted>
4.5807

> <Gold.Chemscore.Internal.Correction.Weighted>
   9.000000E+99

> <Gold.Protein.RotatedTorsions>
[ 6907 6896 6895 6894 ] final   61.48 input  -60.11 | X-H torsion
[ 7974 7965 7964 7962 ] final  -78.53 input  175.53 | X-H torsion
[ 8008 7997 7996 7995 ] final -142.03 input   59.86 | X-H torsion
[ 10167 10162 10161 10158 ] final  -89.03 input  -65.29 | X-H torsion
[ 10718 10713 10712 10709 ] final -131.04 input   66.30 | X-H torsion
[ 10763 10752 10751 10750 ] final   74.17 input  -60.55 | X-H torsion
[ 11005 11000 10999 10996 ] final   20.83 input  -57.11 | X-H torsion

> <Gold.Protein.ActiveResidues>
 VAL166  LYS551  ARG553  GLY616  TRP617  ASP618  TYR619  PRO620  LYS621  CYS622 
 ASP623  PHE694  ASN695  SER759  ASP760  ASP761  ALA762  ILE779  LEU786  VAL792 
 PHE793  MET794  SER795  GLU796  ALA797  LYS798  CYS799  TRP800  GLU811  SER814 

> <Gold.Protein.RotatedAtoms>
  152.4093  134.6153  160.0036 H   0  0  0  0  0  0  0  0  0  0  0  0  # atno 6907 bound_to 6896
  151.6335  133.3325  159.3122 H   0  0  0  0  0  0  0  0  0  0  0  0  # atno 6908 bound_to 6896
  150.7985  134.7102  159.6644 H   0  0  0  0  0  0  0  0  0  0  0  0  # atno 6909 bound_to 6896
  145.5852  140.9440  143.1322 H   0  0  0  0  0  0  0  0  0  0  0  0  # atno 7974 bound_to 7965
  155.4876  140.0565  157.2958 H   0  0  0  0  0  0  0  0  0  0  0  0  # atno 8008 bound_to 7997
  154.4636  140.2008  156.0130 H   0  0  0  0  0  0  0  0  0  0  0  0  # atno 8009 bound_to 7997
  156.0934  140.3230  155.7850 H   0  0  0  0  0  0  0  0  0  0  0  0  # atno 8010 bound_to 7997
  140.3689  143.2804  151.9525 H   0  0  0  0  0  0  0  0  0  0  0  0  # atno 10167 bound_to 10162
  156.2204  130.6975  151.0749 H   0  0  0  0  0  0  0  0  0  0  0  0  # atno 10718 bound_to 10713
  153.0569  135.5035  154.8003 H   0  0  0  0  0  0  0  0  0  0  0  0  # atno 10763 bound_to 10752
  154.6822  135.2970  154.9600 H   0  0  0  0  0  0  0  0  0  0  0  0  # atno 10764 bound_to 10752
  154.0382  135.6720  153.4840 H   0  0  0  0  0  0  0  0  0  0  0  0  # atno 10765 bound_to 10752
  140.3982  134.1746  155.7663 H   0  0  0  0  0  0  0  0  0  0  0  0  # atno 11005 bound_to 11000
  144.7376  139.7541  143.7323 LP  0  0  0  0  0  0  0  0  0  0  0  0  # atno 17320 bound_to 7965
  146.1687  139.4829  142.9941 LP  0  0  0  0  0  0  0  0  0  0  0  0  # atno 17321 bound_to 7965
  139.4806  144.5925  151.7747 LP  0  0  0  0  0  0  0  0  0  0  0  0  # atno 17342 bound_to 10162
  140.5053  144.1107  150.5981 LP  0  0  0  0  0  0  0  0  0  0  0  0  # atno 17343 bound_to 10162
  157.7084  131.0745  150.6586 LP  0  0  0  0  0  0  0  0  0  0  0  0  # atno 17370 bound_to 10713
  156.6648  130.4522  149.5676 LP  0  0  0  0  0  0  0  0  0  0  0  0  # atno 17371 bound_to 10713
  141.1866  133.8298  157.1062 LP  0  0  0  0  0  0  0  0  0  0  0  0  # atno 17394 bound_to 11000
  140.0356  134.9880  157.0864 LP  0  0  0  0  0  0  0  0  0  0  0  0  # atno 17395 bound_to 11000

$$$$
