AV-unprocessed.smi:1756|AV-procd|sdf|7072|dock9
  -GOLD-   22720 8293D 1   1.00000     0.00000
 Structure written by MMmdl.
 38 39  0  0  0  0  0  0  0  0  1 V2000
  146.6647  135.1735  155.5661 O   0  0  0  0  0  0  0  0  0  0  0  0
  147.3837  135.4815  154.6162 C   0  0  0  0  0  0  0  0  0  0  0  0
  148.6039  136.0176  154.7605 N   0  0  0  0  0  0  0  0  0  0  0  0
  149.2623  136.2982  156.0331 C   0  0  0  0  0  0  0  0  0  0  0  0
  149.7568  137.7535  156.1260 C   0  0  1  0  0  0  0  0  0  0  0  0
  150.8230  138.1112  155.0680 C   0  0  0  0  0  0  0  0  0  0  0  0
  151.1883  139.5977  155.1454 C   0  0  0  0  0  0  0  0  0  0  0  0
  149.9168  140.4485  155.0710 C   0  0  0  0  0  0  0  0  0  0  0  0
  148.9030  139.9817  156.1266 C   0  0  0  0  0  0  0  0  0  0  0  0
  148.6209  138.5971  155.9483 O   0  0  0  0  0  0  0  0  0  0  0  0
  147.0681  135.3560  153.3139 N   0  0  0  0  0  0  0  0  0  0  0  0
  145.9053  134.8333  152.7223 C   0  0  0  0  0  0  0  0  0  0  0  0
  145.8846  133.9134  151.7221 C   0  0  0  0  0  0  0  0  0  0  0  0
  144.6418  133.4230  151.1499 C   0  0  0  0  0  0  0  0  0  0  0  0
  144.6283  132.3316  150.0911 C   0  0  0  0  0  0  0  0  0  0  0  0
  145.8588  132.0760  149.6450 F   0  0  0  0  0  0  0  0  0  0  0  0
  144.1320  131.2077  150.6058 F   0  0  0  0  0  0  0  0  0  0  0  0
  143.8704  132.6819  149.0519 F   0  0  0  0  0  0  0  0  0  0  0  0
  143.5045  133.9228  151.6672 C   0  0  0  0  0  0  0  0  0  0  0  0
  143.5169  134.8855  152.6787 N   0  0  0  0  0  0  0  0  0  0  0  0
  144.6413  135.3786  153.2447 C   0  0  0  0  0  0  0  0  0  0  0  0
  144.5677  136.2256  154.1344 O   0  0  0  0  0  0  0  0  0  0  0  0
  142.6217  135.2236  153.0014 H   0  0  0  0  0  0  0  0  0  0  0  0
  149.1210  136.2479  153.9246 H   0  0  0  0  0  0  0  0  0  0  0  0
  148.6123  136.0616  156.8771 H   0  0  0  0  0  0  0  0  0  0  0  0
  150.1148  135.6232  156.1115 H   0  0  0  0  0  0  0  0  0  0  0  0
  150.1627  137.9214  157.1253 H   0  0  0  0  0  0  0  0  0  0  0  0
  151.7212  137.5098  155.2071 H   0  0  0  0  0  0  0  0  0  0  0  0
  150.4433  137.8798  154.0719 H   0  0  0  0  0  0  0  0  0  0  0  0
  151.7110  139.7989  156.0812 H   0  0  0  0  0  0  0  0  0  0  0  0
  151.8725  139.8641  154.3395 H   0  0  0  0  0  0  0  0  0  0  0  0
  150.1572  141.5020  155.2167 H   0  0  0  0  0  0  0  0  0  0  0  0
  149.4743  140.3619  154.0778 H   0  0  0  0  0  0  0  0  0  0  0  0
  149.2788  140.1613  157.1349 H   0  0  0  0  0  0  0  0  0  0  0  0
  147.9747  140.5447  156.0287 H   0  0  0  0  0  0  0  0  0  0  0  0
  147.7445  135.7146  152.6556 H   0  0  0  0  0  0  0  0  0  0  0  0
  146.7984  133.5269  151.3023 H   0  0  0  0  0  0  0  0  0  0  0  0
  142.5131  133.6256  151.3575 H   0  0  0  0  0  0  0  0  0  0  0  0
  1  2  2  0  0  0  0
  2  3  1  0  0  0  0
  2 11  1  0  0  0  0
  3  4  1  0  0  0  0
  3 24  1  0  0  0  0
  4  5  1  0  0  0  0
  4 25  1  0  0  0  0
  4 26  1  0  0  0  0
  5 10  1  0  0  0  0
  5  6  1  0  0  0  0
  5 27  1  0  0  0  0
  6  7  1  0  0  0  0
  6 28  1  0  0  0  0
  6 29  1  0  0  0  0
  7  8  1  0  0  0  0
  7 30  1  0  0  0  0
  7 31  1  0  0  0  0
  8  9  1  0  0  0  0
  8 32  1  0  0  0  0
  8 33  1  0  0  0  0
  9 10  1  0  0  0  0
  9 34  1  0  0  0  0
  9 35  1  0  0  0  0
 11 12  1  0  0  0  0
 11 36  1  0  0  0  0
 12 21  1  0  0  0  0
 12 13  2  0  0  0  0
 13 14  1  0  0  0  0
 13 37  1  0  0  0  0
 14 15  1  0  0  0  0
 14 19  2  0  0  0  0
 15 16  1  0  0  0  0
 15 17  1  0  0  0  0
 15 18  1  0  0  0  0
 19 20  1  0  0  0  0
 19 38  1  0  0  0  0
 20 23  1  0  0  0  0
 20 21  1  0  0  0  0
 21 22  2  0  0  0  0
M  END
> <s_m_source_file>
AV-unprocessed.smi

> <i_m_source_file_index>
1756

> <i_lp_mmshare_version>
43012

> <i_f3d_flags>
0

> <s_epik_input>
Tz1jMVtuSF1bY0hdYyhDKEYpKEYpRilbY0hdYzFbTkhdQyg9TylbTkhdW0NIMl1bQ0BASF0yW0NIMl1bQ0gyXVtDSDJdW0NIMl1PMg==

> <s_epik_cmdline>
J2VwaWtfcHl0aG9uJywgJy1waCcsICc3LjAnLCAnLXRuJywgJzgnLCAnLW1hJywgJzIwMCcsICctbWV0YWxfYmluZGluZycsICctaW1hZScsICc8aW5maWxlLm1hZT4nLCAnLW9tYWUnLCAnPG91dGZpbGUubWFlPic=

> <r_lp_tautomer_probability>
1

> <r_epik_Ionization_Penalty>
0.00380944

> <r_epik_Ionization_Penalty_Charging>
0.00379057

> <r_epik_Ionization_Penalty_Neutral>
1.88732e-05

> <r_epik_State_Penalty>
-0

> <r_epik_Charging_Adjusted_Penalty>
0.00379057

> <i_epik_Tot_Q>
0

> <i_epik_Tot_abs_Q>
0

> <r_epik_Metal_State_Penalty>
0.371099

> <b_epik_Metal_Only>
0

> <s_lp_Force_Field>
OPLS_2005

> <r_lp_Energy>
19.4394

> <b_lp_Chiralities_Consistent>
1

> <s_lp_Variant>
AV-unprocessed.smi:1756-2

> <Gold.Version>
5.8.1

> <Gold.Id.Protein>
6NUR|6NUR_protein|mol2

> <Gold.PLP.Fitness>
37.8776

> <Gold.PLP.PLP>
-31.0784

> <Gold.PLP.part.hbond>
-1.8087

> <Gold.PLP.part.metal>
0.0000

> <Gold.PLP.part.buried>
-1.2642

> <Gold.PLP.part.nonpolar>
-28.1230

> <Gold.PLP.part.repulsive>
0.0669

> <Gold.PLP.ligand.clash>
0.0000

> <Gold.PLP.ligand.torsion>
0.6587

> <Gold.PLP.Chemscore.Hbond>
1.6933

> <Gold.PLP.Chemscore.CHOScore>
1.0000

> <Gold.PLP.Chemscore.Metal>
0.0000

> <Gold.Chemscore.Hbonds>
donor molecule, donor type, donor heavy atom, donor atom, acceptor molecule, acceptor atom, score
      L1  H     3    24       P1  7948  0.81
      L1  H    11    36       P1  7948  0.98
      L1  C    19    38       P1 10186  1.00

> <Gold.PLP.Chemscore.Internal.Correction>
0.0368

> <Gold.Rescore>
     Score         DG    S(hbond)    S(metal)    S(lipo)     H(rot)  DE(clash)    DE(int)     intcor
     13.10     -13.93       1.59        0.00      56.08       1.33       0.19       0.65       ----

> <Gold.Chemscore.Fitness>
13.0955

> <Gold.Chemscore.DG>
-13.9336

> <Gold.Chemscore.ZeroCoef>
-5.4800

> <Gold.Chemscore.Hbond>
1.5893

> <Gold.Chemscore.Metal>
0.0000

> <Gold.Chemscore.Lipo>
56.0783

> <Gold.Chemscore.Internal_Hbond>
0.0000

> <Gold.Chemscore.DEClash>
0.1908

> <Gold.Chemscore.DEInternal>
0.6473

> <Gold.Chemscore.Rot>
1.3344

> <Gold.Chemscore.Internal.Correction>
   9.000000E+99

> <Gold.Chemscore.Hbonds>
donor molecule, donor type, donor heavy atom, donor atom, acceptor molecule, acceptor atom, score
      L1  H     3    24       P1  7948  0.72
      L1  H    11    36       P1  7948  0.92

> <Gold.Chemscore.Hbond.Weighted>
-5.3084

> <Gold.Chemscore.Metal.Weighted>
-0.0000

> <Gold.Chemscore.Lipo.Weighted>
-6.5612

> <Gold.Chemscore.Internal_Hbond.Weighted>
0.0000

> <Gold.Chemscore.DEClash.Weighted>
0.1908

> <Gold.Chemscore.DEInternal.Weighted>
0.6473

> <Gold.Chemscore.Rot.Weighted>
3.4160

> <Gold.Chemscore.Internal.Correction.Weighted>
   9.000000E+99

> <Gold.Protein.RotatedTorsions>
[ 6907 6896 6895 6894 ] final  -70.21 input  -60.11 | X-H torsion
[ 7974 7965 7964 7962 ] final   81.90 input  175.53 | X-H torsion
[ 8008 7997 7996 7995 ] final  -67.42 input   59.86 | X-H torsion
[ 10167 10162 10161 10158 ] final  -49.69 input  -65.29 | X-H torsion
[ 10718 10713 10712 10709 ] final  159.29 input   66.30 | X-H torsion
[ 10763 10752 10751 10750 ] final   85.52 input  -60.55 | X-H torsion
[ 11005 11000 10999 10996 ] final  108.44 input  -57.11 | X-H torsion

> <Gold.Protein.ActiveResidues>
 VAL166  LYS551  ARG553  GLY616  TRP617  ASP618  TYR619  PRO620  LYS621  CYS622 
 ASP623  PHE694  ASN695  SER759  ASP760  ASP761  ALA762  ILE779  LEU786  VAL792 
 PHE793  MET794  SER795  GLU796  ALA797  LYS798  CYS799  TRP800  GLU811  SER814 

> <Gold.Protein.RotatedAtoms>
  150.7268  134.5486  159.5782 H   0  0  0  0  0  0  0  0  0  0  0  0  # atno 6907 bound_to 6896
  152.2979  134.7643  160.0373 H   0  0  0  0  0  0  0  0  0  0  0  0  # atno 6908 bound_to 6896
  151.8234  133.3362  159.3628 H   0  0  0  0  0  0  0  0  0  0  0  0  # atno 6909 bound_to 6896
  145.6321  139.2407  143.2079 H   0  0  0  0  0  0  0  0  0  0  0  0  # atno 7974 bound_to 7965
  154.4799  140.0893  156.7352 H   0  0  0  0  0  0  0  0  0  0  0  0  # atno 8008 bound_to 7997
  155.4498  140.3457  155.4281 H   0  0  0  0  0  0  0  0  0  0  0  0  # atno 8009 bound_to 7997
  156.1175  140.1465  156.9240 H   0  0  0  0  0  0  0  0  0  0  0  0  # atno 8010 bound_to 7997
  140.6673  143.2687  151.4252 H   0  0  0  0  0  0  0  0  0  0  0  0  # atno 10167 bound_to 10162
  157.1662  131.0599  151.2207 H   0  0  0  0  0  0  0  0  0  0  0  0  # atno 10718 bound_to 10713
  153.1483  135.4614  154.9598 H   0  0  0  0  0  0  0  0  0  0  0  0  # atno 10763 bound_to 10752
  154.7804  135.3186  154.8005 H   0  0  0  0  0  0  0  0  0  0  0  0  # atno 10764 bound_to 10752
  153.8515  135.6921  153.4846 H   0  0  0  0  0  0  0  0  0  0  0  0  # atno 10765 bound_to 10752
  139.8844  134.9430  156.5973 H   0  0  0  0  0  0  0  0  0  0  0  0  # atno 11005 bound_to 11000
  146.1348  140.7137  142.9395 LP  0  0  0  0  0  0  0  0  0  0  0  0  # atno 17320 bound_to 7965
  144.7189  140.4307  143.7023 LP  0  0  0  0  0  0  0  0  0  0  0  0  # atno 17321 bound_to 7965
  139.5927  144.1465  152.2107 LP  0  0  0  0  0  0  0  0  0  0  0  0  # atno 17342 bound_to 10162
  140.0824  144.5689  150.7112 LP  0  0  0  0  0  0  0  0  0  0  0  0  # atno 17343 bound_to 10162
  157.4086  130.7373  149.6822 LP  0  0  0  0  0  0  0  0  0  0  0  0  # atno 17370 bound_to 10713
  155.9745  130.4101  150.3914 LP  0  0  0  0  0  0  0  0  0  0  0  0  # atno 17371 bound_to 10713
  140.7910  133.8582  155.8646 LP  0  0  0  0  0  0  0  0  0  0  0  0  # atno 17394 bound_to 11000
  140.9677  134.1572  157.4602 LP  0  0  0  0  0  0  0  0  0  0  0  0  # atno 17395 bound_to 11000

$$$$
