AV-unprocessed.smi:52|AV-procd|sdf|508|dock5
  -GOLD-   2262016383D 1   1.00000     0.00000
 Structure written by MMmdl.
 27 28  0  0  0  0  0  0  0  0  3 V2000
  151.1468  133.1321  157.3206 O   0  0  0  0  0  0  0  0  0  0  0  0
  150.8618  134.0794  156.5556 C   0  0  0  0  0  0  0  0  0  0  0  0
  151.5841  135.0962  156.4633 O   0  5  0  0  0  0  0  0  0  0  0  0
  149.6263  133.9963  155.7356 C   0  0  0  0  0  0  0  0  0  0  0  0
  149.1748  132.9056  155.0363 C   0  0  0  0  0  0  0  0  0  0  0  0
  147.9935  133.2228  154.4216 O   0  0  0  0  0  0  0  0  0  0  0  0
  147.7715  134.5182  154.7736 C   0  0  0  0  0  0  0  0  0  0  0  0
  146.5301  135.1958  154.2965 C   0  0  0  0  0  0  0  0  0  0  0  0
  146.6267  135.1360  152.8179 N   0  3  1  0  0  0  0  0  0  0  0  0
  146.4379  133.7926  152.2206 C   0  0  0  0  0  0  0  0  0  0  0  0
  145.9192  134.0511  150.8099 C   0  0  0  0  0  0  0  0  0  0  0  0
  145.0165  135.2625  151.0139 C   0  0  2  0  0  0  0  0  0  0  0  0
  144.8541  136.0070  149.8258 O   0  0  0  0  0  0  0  0  0  0  0  0
  145.7176  136.0715  152.1138 C   0  0  0  0  0  0  0  0  0  0  0  0
  148.7183  135.0314  155.5544 N   0  0  0  0  0  0  0  0  0  0  0  0
  144.0398  134.9313  151.3702 H   0  0  0  0  0  0  0  0  0  0  0  0
  149.5490  131.9028  154.8916 H   0  0  0  0  0  0  0  0  0  0  0  0
  145.6379  134.6931  154.6721 H   0  0  0  0  0  0  0  0  0  0  0  0
  146.5275  136.2282  154.6481 H   0  0  0  0  0  0  0  0  0  0  0  0
  147.3621  133.2136  152.2225 H   0  0  0  0  0  0  0  0  0  0  0  0
  145.6900  133.2347  152.7866 H   0  0  0  0  0  0  0  0  0  0  0  0
  146.7539  134.3014  150.1528 H   0  0  0  0  0  0  0  0  0  0  0  0
  145.3960  133.1945  150.3835 H   0  0  0  0  0  0  0  0  0  0  0  0
  145.1982  135.5040  149.1031 H   0  0  0  0  0  0  0  0  0  0  0  0
  144.9880  136.5313  152.7821 H   0  0  0  0  0  0  0  0  0  0  0  0
  146.3269  136.8720  151.6921 H   0  0  0  0  0  0  0  0  0  0  0  0
  147.5624  135.4284  152.5740 H   0  0  0  0  0  0  0  0  0  0  0  0
  1  2  2  0  0  0  0
  2  3  1  0  0  0  0
  2  4  1  0  0  0  0
  4 15  1  0  0  0  0
  4  5  2  0  0  0  0
  5  6  1  0  0  0  0
  5 17  1  0  0  0  0
  6  7  1  0  0  0  0
  7  8  1  0  0  0  0
  7 15  2  0  0  0  0
  8  9  1  0  0  0  0
  8 18  1  0  0  0  0
  8 19  1  0  0  0  0
  9 14  1  0  0  0  0
  9 10  1  0  0  0  0
  9 27  1  0  0  0  0
 10 11  1  0  0  0  0
 10 20  1  0  0  0  0
 10 21  1  0  0  0  0
 11 12  1  0  0  0  0
 11 22  1  0  0  0  0
 11 23  1  0  0  0  0
 12 16  1  0  0  0  0
 12 13  1  0  0  0  0
 12 14  1  0  0  0  0
 13 24  1  0  0  0  0
 14 25  1  0  0  0  0
 14 26  1  0  0  0  0
M  CHG  1   3  -1
M  CHG  1   9   1
M  END
> <s_m_source_file>
AV-unprocessed.smi

> <i_m_source_file_index>
52

> <i_lp_mmshare_version>
43012

> <i_f3d_flags>
0

> <s_epik_input>
Tz1DKFtPSF0pYzFbY0hdb2MobjEpW0NIMl1OMltDSDJdW0NIMl1bQ0BIXShbT0hdKVtDSDJdMg==

> <s_epik_cmdline>
J2VwaWtfcHl0aG9uJywgJy1waCcsICc3LjAnLCAnLXRuJywgJzgnLCAnLW1hJywgJzIwMCcsICctbWV0YWxfYmluZGluZycsICctaW1hZScsICc8aW5maWxlLm1hZT4nLCAnLW9tYWUnLCAnPG91dGZpbGUubWFlPic=

> <r_epik_Ionization_Penalty>
0.0376014

> <r_epik_Ionization_Penalty_Charging>
0.0376013

> <r_epik_Ionization_Penalty_Neutral>
1.78687e-08

> <r_epik_State_Penalty>
0.0314164

> <r_epik_Charging_Adjusted_Penalty>
0.0690177

> <i_epik_Tot_Q>
0

> <i_epik_Tot_abs_Q>
2

> <r_epik_Metal_State_Penalty>
0.0314164

> <b_epik_Metal_Only>
0

> <s_lp_Force_Field>
OPLS_2005

> <r_lp_Energy>
18.2584

> <b_lp_Chiralities_Consistent>
1

> <s_lp_Variant>
AV-unprocessed.smi:52-2

> <Gold.Version>
5.8.1

> <Gold.Id.Protein>
6NUR|6NUR_protein|mol2

> <Gold.PLP.Fitness>
39.7734

> <Gold.PLP.PLP>
-21.3949

> <Gold.PLP.part.hbond>
-5.0000

> <Gold.PLP.part.metal>
0.0000

> <Gold.PLP.part.buried>
-4.0221

> <Gold.PLP.part.nonpolar>
-13.5605

> <Gold.PLP.part.repulsive>
0.1320

> <Gold.PLP.ligand.clash>
0.0000

> <Gold.PLP.ligand.torsion>
0.8135

> <Gold.PLP.Chemscore.Hbond>
6.6640

> <Gold.PLP.Chemscore.CHOScore>
0.0000

> <Gold.PLP.Chemscore.Metal>
0.0000

> <Gold.Chemscore.Hbonds>
donor molecule, donor type, donor heavy atom, donor atom, acceptor molecule, acceptor atom, score
      L1  H     9    27       P1  7948  2.00
      L1  H    13    24       P1  7921  1.00
      P1  H  6896  6907       L1     1  1.70
      P1  H 10752 10765       L1     3  1.43

> <Gold.PLP.Chemscore.Internal.Correction>
0.0136

> <Gold.Rescore>
     Score         DG    S(hbond)    S(metal)    S(lipo)     H(rot)  DE(clash)    DE(int)     intcor
     14.60     -16.85       3.77        0.00      33.24       1.99       0.07       2.18       ----

> <Gold.Chemscore.Fitness>
14.5959

> <Gold.Chemscore.DG>
-16.8462

> <Gold.Chemscore.ZeroCoef>
-5.4800

> <Gold.Chemscore.Hbond>
3.7653

> <Gold.Chemscore.Metal>
0.0000

> <Gold.Chemscore.Lipo>
33.2427

> <Gold.Chemscore.Internal_Hbond>
0.0000

> <Gold.Chemscore.DEClash>
0.0731

> <Gold.Chemscore.DEInternal>
2.1772

> <Gold.Chemscore.Rot>
1.9919

> <Gold.Chemscore.Internal.Correction>
   9.000000E+99

> <Gold.Chemscore.Hbonds>
donor molecule, donor type, donor heavy atom, donor atom, acceptor molecule, acceptor atom, score
      L1  H     9    27       P1  7948  1.00
      L1  H    13    24       P1  7921  1.00
      P1  H  6896  6907       L1     1  0.82
      P1  H 10752 10765       L1     3  0.67

> <Gold.Chemscore.Hbond.Weighted>
-12.5760

> <Gold.Chemscore.Metal.Weighted>
-0.0000

> <Gold.Chemscore.Lipo.Weighted>
-3.8894

> <Gold.Chemscore.Internal_Hbond.Weighted>
0.0000

> <Gold.Chemscore.DEClash.Weighted>
0.0731

> <Gold.Chemscore.DEInternal.Weighted>
2.1772

> <Gold.Chemscore.Rot.Weighted>
5.0991

> <Gold.Chemscore.Internal.Correction.Weighted>
   9.000000E+99

> <Gold.Protein.RotatedTorsions>
[ 6907 6896 6895 6894 ] final -160.58 input  -60.11 | X-H torsion
[ 7974 7965 7964 7962 ] final -102.24 input  175.53 | X-H torsion
[ 8008 7997 7996 7995 ] final  -67.44 input   59.86 | X-H torsion
[ 10167 10162 10161 10158 ] final -154.62 input  -65.29 | X-H torsion
[ 10718 10713 10712 10709 ] final  106.16 input   66.30 | X-H torsion
[ 10763 10752 10751 10750 ] final -157.16 input  -60.55 | X-H torsion
[ 11005 11000 10999 10996 ] final  170.09 input  -57.11 | X-H torsion

> <Gold.Protein.ActiveResidues>
 VAL166  LYS551  ARG553  GLY616  TRP617  ASP618  TYR619  PRO620  LYS621  CYS622 
 ASP623  PHE694  ASN695  SER759  ASP760  ASP761  ALA762  ILE779  LEU786  VAL792 
 PHE793  MET794  SER795  GLU796  ALA797  LYS798  CYS799  TRP800  GLU811  SER814 

> <Gold.Protein.RotatedAtoms>
  151.3513  133.3924  159.2680 H   0  0  0  0  0  0  0  0  0  0  0  0  # atno 6907 bound_to 6896
  150.9799  134.9157  159.7848 H   0  0  0  0  0  0  0  0  0  0  0  0  # atno 6908 bound_to 6896
  152.5213  134.3476  159.9292 H   0  0  0  0  0  0  0  0  0  0  0  0  # atno 6909 bound_to 6896
  145.2712  140.9299  143.2985 H   0  0  0  0  0  0  0  0  0  0  0  0  # atno 7974 bound_to 7965
  154.4800  140.0892  156.7354 H   0  0  0  0  0  0  0  0  0  0  0  0  # atno 8008 bound_to 7997
  155.4495  140.3457  155.4281 H   0  0  0  0  0  0  0  0  0  0  0  0  # atno 8009 bound_to 7997
  156.1176  140.1465  156.9238 H   0  0  0  0  0  0  0  0  0  0  0  0  # atno 8010 bound_to 7997
  139.6998  143.9282  152.2423 H   0  0  0  0  0  0  0  0  0  0  0  0  # atno 10167 bound_to 10162
  157.6678  131.0844  150.5966 H   0  0  0  0  0  0  0  0  0  0  0  0  # atno 10718 bound_to 10713
  154.7657  135.3130  154.8290 H   0  0  0  0  0  0  0  0  0  0  0  0  # atno 10763 bound_to 10752
  153.9038  135.6813  153.4758 H   0  0  0  0  0  0  0  0  0  0  0  0  # atno 10764 bound_to 10752
  153.1263  135.4800  154.9211 H   0  0  0  0  0  0  0  0  0  0  0  0  # atno 10765 bound_to 10752
  140.3046  134.7567  157.3943 H   0  0  0  0  0  0  0  0  0  0  0  0  # atno 11005 bound_to 11000
  144.9333  139.4273  143.6484 LP  0  0  0  0  0  0  0  0  0  0  0  0  # atno 17320 bound_to 7965
  146.3246  139.8255  142.8918 LP  0  0  0  0  0  0  0  0  0  0  0  0  # atno 17321 bound_to 7965
  139.9121  144.6850  150.8551 LP  0  0  0  0  0  0  0  0  0  0  0  0  # atno 17342 bound_to 10162
  140.7706  143.3436  151.2158 LP  0  0  0  0  0  0  0  0  0  0  0  0  # atno 17343 bound_to 10162
  156.6266  130.4420  149.5802 LP  0  0  0  0  0  0  0  0  0  0  0  0  # atno 17370 bound_to 10713
  156.2314  130.6797  151.1467 LP  0  0  0  0  0  0  0  0  0  0  0  0  # atno 17371 bound_to 10713
  140.1078  134.5385  155.8293 LP  0  0  0  0  0  0  0  0  0  0  0  0  # atno 17394 bound_to 11000
  141.2121  133.6715  156.6632 LP  0  0  0  0  0  0  0  0  0  0  0  0  # atno 17395 bound_to 11000

$$$$
