AV-unprocessed.smi:2283|AV-procd|sdf|9199|dock1
  -GOLD-   2272012413D 1   1.00000     0.00000
 Structure written by MMmdl.
 37 38  0  0  0  0  0  0  0  0  1 V2000
  150.0111  138.0643  155.0736 C   0  0  0  0  0  0  0  0  0  0  0  0
  149.1139  139.1688  154.5421 C   0  0  0  0  0  0  0  0  0  0  0  0
  147.9851  138.8082  153.7746 C   0  0  0  0  0  0  0  0  0  0  0  0
  147.1323  139.7947  153.2473 C   0  0  0  0  0  0  0  0  0  0  0  0
  147.4053  141.1534  153.4810 C   0  0  0  0  0  0  0  0  0  0  0  0
  148.5269  141.5222  154.2463 C   0  0  0  0  0  0  0  0  0  0  0  0
  149.3875  140.5406  154.7916 C   0  0  0  0  0  0  0  0  0  0  0  0
  150.5969  140.9861  155.6145 C   0  0  2  0  0  0  0  0  0  0  0  0
  151.8029  140.4707  155.0830 O   0  0  0  0  0  0  0  0  0  0  0  0
  150.4661  140.5201  157.0821 C   0  0  0  0  0  0  0  0  0  0  0  0
  150.9743  141.5192  158.0391 N   0  0  0  0  0  0  0  0  0  0  0  0
  150.3635  142.7837  158.0010 C   0  0  0  0  0  0  0  0  0  0  0  0
  150.7248  143.7376  158.7955 N   0  0  0  0  0  0  0  0  0  0  0  0
  151.7456  143.5212  159.7255 C   0  0  0  0  0  0  0  0  0  0  0  0
  152.0876  144.7053  160.6121 C   0  0  0  0  0  0  0  0  0  0  0  0
  152.3767  142.3187  159.8151 C   0  0  0  0  0  0  0  0  0  0  0  0
  153.4925  142.0238  160.8100 C   0  0  0  0  0  0  0  0  0  0  0  0
  151.9779  141.2245  158.9153 C   0  0  0  0  0  0  0  0  0  0  0  0
  152.5065  140.1118  158.9439 O   0  0  0  0  0  0  0  0  0  0  0  0
  149.6933  137.0851  154.7141 H   0  0  0  0  0  0  0  0  0  0  0  0
  149.9881  138.0416  156.1633 H   0  0  0  0  0  0  0  0  0  0  0  0
  151.0390  138.2166  154.7462 H   0  0  0  0  0  0  0  0  0  0  0  0
  147.7681  137.7675  153.5824 H   0  0  0  0  0  0  0  0  0  0  0  0
  146.2721  139.5087  152.6601 H   0  0  0  0  0  0  0  0  0  0  0  0
  146.7556  141.9134  153.0726 H   0  0  0  0  0  0  0  0  0  0  0  0
  148.7249  142.5713  154.4112 H   0  0  0  0  0  0  0  0  0  0  0  0
  150.6895  142.0702  155.5749 H   0  0  0  0  0  0  0  0  0  0  0  0
  152.5137  140.7330  155.6479 H   0  0  0  0  0  0  0  0  0  0  0  0
  149.4130  140.3392  157.3063 H   0  0  0  0  0  0  0  0  0  0  0  0
  150.9404  139.5452  157.2147 H   0  0  0  0  0  0  0  0  0  0  0  0
  149.5678  142.8995  157.2629 H   0  0  0  0  0  0  0  0  0  0  0  0
  153.1275  145.0007  160.4710 H   0  0  0  0  0  0  0  0  0  0  0  0
  151.9357  144.4526  161.6618 H   0  0  0  0  0  0  0  0  0  0  0  0
  151.4612  145.5682  160.3829 H   0  0  0  0  0  0  0  0  0  0  0  0
  153.2042  141.2000  161.4640 H   0  0  0  0  0  0  0  0  0  0  0  0
  153.7393  142.8739  161.4439 H   0  0  0  0  0  0  0  0  0  0  0  0
  154.4012  141.7341  160.2812 H   0  0  0  0  0  0  0  0  0  0  0  0
  1  2  1  0  0  0  0
  1 20  1  0  0  0  0
  1 21  1  0  0  0  0
  1 22  1  0  0  0  0
  2  7  1  0  0  0  0
  2  3  2  0  0  0  0
  3  4  1  0  0  0  0
  3 23  1  0  0  0  0
  4  5  2  0  0  0  0
  4 24  1  0  0  0  0
  5  6  1  0  0  0  0
  5 25  1  0  0  0  0
  6  7  2  0  0  0  0
  6 26  1  0  0  0  0
  7  8  1  0  0  0  0
  8  9  1  0  0  0  0
  8 10  1  0  0  0  0
  8 27  1  0  0  0  0
  9 28  1  0  0  0  0
 10 11  1  0  0  0  0
 10 29  1  0  0  0  0
 10 30  1  0  0  0  0
 11 18  1  0  0  0  0
 11 12  1  0  0  0  0
 12 13  2  0  0  0  0
 12 31  1  0  0  0  0
 13 14  1  0  0  0  0
 14 15  1  0  0  0  0
 14 16  2  0  0  0  0
 15 32  1  0  0  0  0
 15 33  1  0  0  0  0
 15 34  1  0  0  0  0
 16 17  1  0  0  0  0
 16 18  1  0  0  0  0
 17 35  1  0  0  0  0
 17 36  1  0  0  0  0
 17 37  1  0  0  0  0
 18 19  2  0  0  0  0
M  END
> <s_m_source_file>
AV-unprocessed.smi

> <i_m_source_file_index>
2283

> <i_lp_mmshare_version>
43012

> <i_f3d_flags>
0

> <s_epik_input>
W0NIM11jMVtjSF1bY0hdW2NIXVtjSF1jMVtDQEhdKFtPSF0pW0NIMl1uMltjSF1uYyhbQ0gzXSljKFtDSDNdKWMyPU8=

> <s_epik_cmdline>
J2VwaWtfcHl0aG9uJywgJy1waCcsICc3LjAnLCAnLXRuJywgJzgnLCAnLW1hJywgJzIwMCcsICctbWV0YWxfYmluZGluZycsICctaW1hZScsICc8aW5maWxlLm1hZT4nLCAnLW9tYWUnLCAnPG91dGZpbGUubWFlPic=

> <r_lp_tautomer_probability>
1

> <r_epik_Ionization_Penalty>
5.07259e-05

> <r_epik_Ionization_Penalty_Charging>
7.56727e-08

> <r_epik_Ionization_Penalty_Neutral>
5.06502e-05

> <r_epik_State_Penalty>
-0

> <r_epik_Charging_Adjusted_Penalty>
7.56727e-08

> <i_epik_Tot_Q>
0

> <i_epik_Tot_abs_Q>
0

> <r_epik_Metal_State_Penalty>
-0

> <b_epik_Metal_Only>
0

> <s_lp_Force_Field>
OPLS_2005

> <r_lp_Energy>
20.4761

> <b_lp_Chiralities_Consistent>
1

> <s_lp_Variant>
AV-unprocessed.smi:2283-1

> <Gold.Version>
5.8.1

> <Gold.Id.Protein>
6NUR|6NUR_protein|mol2

> <Gold.PLP.Fitness>
44.3940

> <Gold.PLP.PLP>
-40.1592

> <Gold.PLP.part.hbond>
-0.7486

> <Gold.PLP.part.metal>
0.0000

> <Gold.PLP.part.buried>
-3.2764

> <Gold.PLP.part.nonpolar>
-35.8374

> <Gold.PLP.part.repulsive>
0.1239

> <Gold.PLP.ligand.clash>
0.0000

> <Gold.PLP.ligand.torsion>
0.5390

> <Gold.PLP.Chemscore.Hbond>
0.7680

> <Gold.PLP.Chemscore.CHOScore>
1.0000

> <Gold.PLP.Chemscore.Metal>
0.0000

> <Gold.Chemscore.Hbonds>
donor molecule, donor type, donor heavy atom, donor atom, acceptor molecule, acceptor atom, score
      P1  H  7989  7998       L1     9  0.77
      L1  C    12    31       P1  8028  1.00

> <Gold.PLP.Chemscore.Internal.Correction>
0.0088

> <Gold.Rescore>
     Score         DG    S(hbond)    S(metal)    S(lipo)     H(rot)  DE(clash)    DE(int)     intcor
     12.77     -13.88       0.66        0.00      94.67       1.91       0.03       1.08       ----

> <Gold.Chemscore.Fitness>
12.7659

> <Gold.Chemscore.DG>
-13.8767

> <Gold.Chemscore.ZeroCoef>
-5.4800

> <Gold.Chemscore.Hbond>
0.6587

> <Gold.Chemscore.Metal>
0.0000

> <Gold.Chemscore.Lipo>
94.6709

> <Gold.Chemscore.Internal_Hbond>
0.0000

> <Gold.Chemscore.DEClash>
0.0280

> <Gold.Chemscore.DEInternal>
1.0828

> <Gold.Chemscore.Rot>
1.9061

> <Gold.Chemscore.Internal.Correction>
   9.000000E+99

> <Gold.Chemscore.Hbonds>
donor molecule, donor type, donor heavy atom, donor atom, acceptor molecule, acceptor atom, score
      P1  H  7989  7998       L1     9  0.23

> <Gold.Chemscore.Hbond.Weighted>
-2.1999

> <Gold.Chemscore.Metal.Weighted>
-0.0000

> <Gold.Chemscore.Lipo.Weighted>
-11.0765

> <Gold.Chemscore.Internal_Hbond.Weighted>
0.0000

> <Gold.Chemscore.DEClash.Weighted>
0.0280

> <Gold.Chemscore.DEInternal.Weighted>
1.0828

> <Gold.Chemscore.Rot.Weighted>
4.8797

> <Gold.Chemscore.Internal.Correction.Weighted>
   9.000000E+99

> <Gold.Protein.RotatedTorsions>
[ 6907 6896 6895 6894 ] final  -80.37 input  -60.11 | X-H torsion
[ 7974 7965 7964 7962 ] final -124.73 input  175.53 | X-H torsion
[ 8008 7997 7996 7995 ] final  -90.96 input   59.86 | X-H torsion
[ 10167 10162 10161 10158 ] final  -90.77 input  -65.29 | X-H torsion
[ 10718 10713 10712 10709 ] final  -93.44 input   66.30 | X-H torsion
[ 10763 10752 10751 10750 ] final  -78.07 input  -60.55 | X-H torsion
[ 11005 11000 10999 10996 ] final -109.33 input  -57.11 | X-H torsion

> <Gold.Protein.ActiveResidues>
 VAL166  LYS551  ARG553  GLY616  TRP617  ASP618  TYR619  PRO620  LYS621  CYS622 
 ASP623  PHE694  ASN695  SER759  ASP760  ASP761  ALA762  ILE779  LEU786  VAL792 
 PHE793  MET794  SER795  GLU796  ALA797  LYS798  CYS799  TRP800  GLU811  SER814 

> <Gold.Protein.RotatedAtoms>
  150.6931  134.3980  159.5105 H   0  0  0  0  0  0  0  0  0  0  0  0  # atno 6907 bound_to 6896
  152.1758  134.8793  160.0540 H   0  0  0  0  0  0  0  0  0  0  0  0  # atno 6908 bound_to 6896
  151.9802  133.3720  159.4141 H   0  0  0  0  0  0  0  0  0  0  0  0  # atno 6909 bound_to 6896
  145.0050  140.7855  143.4473 H   0  0  0  0  0  0  0  0  0  0  0  0  # atno 7974 bound_to 7965
  154.7050  140.0524  157.0495 H   0  0  0  0  0  0  0  0  0  0  0  0  # atno 8008 bound_to 7997
  155.0633  140.3192  155.4635 H   0  0  0  0  0  0  0  0  0  0  0  0  # atno 8009 bound_to 7997
  156.2772  140.2095  156.5760 H   0  0  0  0  0  0  0  0  0  0  0  0  # atno 8010 bound_to 7997
  140.3516  143.2888  151.9719 H   0  0  0  0  0  0  0  0  0  0  0  0  # atno 10167 bound_to 10162
  156.0013  130.5027  150.5777 H   0  0  0  0  0  0  0  0  0  0  0  0  # atno 10718 bound_to 10713
  154.5212  135.5742  153.6682 H   0  0  0  0  0  0  0  0  0  0  0  0  # atno 10763 bound_to 10752
  152.9917  135.6182  154.2752 H   0  0  0  0  0  0  0  0  0  0  0  0  # atno 10764 bound_to 10752
  154.2673  135.2854  155.2732 H   0  0  0  0  0  0  0  0  0  0  0  0  # atno 10765 bound_to 10752
  141.0853  133.9149  157.2199 H   0  0  0  0  0  0  0  0  0  0  0  0  # atno 11005 bound_to 11000
  145.2101  139.2209  143.5147 LP  0  0  0  0  0  0  0  0  0  0  0  0  # atno 17320 bound_to 7965
  146.3459  140.1937  142.8589 LP  0  0  0  0  0  0  0  0  0  0  0  0  # atno 17321 bound_to 7965
  139.4825  144.6071  151.7501 LP  0  0  0  0  0  0  0  0  0  0  0  0  # atno 17342 bound_to 10162
  140.5213  144.0874  150.6023 LP  0  0  0  0  0  0  0  0  0  0  0  0  # atno 17343 bound_to 10162
  157.3662  131.0758  151.1596 LP  0  0  0  0  0  0  0  0  0  0  0  0  # atno 17370 bound_to 10713
  157.2364  130.6549  149.5871 LP  0  0  0  0  0  0  0  0  0  0  0  0  # atno 17371 bound_to 10713
  139.9671  135.0139  156.9415 LP  0  0  0  0  0  0  0  0  0  0  0  0  # atno 17394 bound_to 11000
  140.5376  134.0751  155.7332 LP  0  0  0  0  0  0  0  0  0  0  0  0  # atno 17395 bound_to 11000

$$$$
