AV-unprocessed.smi:15|AV-procd|sdf|85|dock4
  -GOLD-   2262015223D 1   1.00000     0.00000
 Structure written by MMmdl.
 53 56  0  0  0  0  0  0  0  0  1 V2000
  152.4733  138.9355  155.5487 C   0  0  0  0  0  0  0  0  0  0  0  0
  151.5834  140.1399  155.8952 C   0  0  0  0  0  0  0  0  0  0  0  0
  151.4934  140.4012  157.3322 N   0  0  0  0  0  0  0  0  0  0  0  0
  150.6397  141.5078  157.7559 C   0  0  0  0  0  0  0  0  0  0  0  0
  151.2910  142.3582  158.8578 C   0  0  2  0  0  0  0  0  0  0  0  0
  151.3099  143.8580  158.5627 C   0  0  0  0  0  0  0  0  0  0  0  0
  152.5111  144.3636  159.3470 C   0  0  0  0  0  0  0  0  0  0  0  0
  153.2767  143.0914  159.7224 C   0  0  0  0  0  0  0  0  0  0  0  0
  152.6724  142.0552  158.9609 O   0  0  0  0  0  0  0  0  0  0  0  0
  151.3222  139.3074  158.1062 C   0  0  0  0  0  0  0  0  0  0  0  0
  152.3999  138.8618  158.7969 N   0  0  0  0  0  0  0  0  0  0  0  0
  152.2911  137.7824  159.5772 C   0  0  0  0  0  0  0  0  0  0  0  0
  151.2180  137.0218  159.8064 N   0  0  0  0  0  0  0  0  0  0  0  0
  150.1300  137.4772  159.1209 C   0  0  0  0  0  0  0  0  0  0  0  0
  150.0934  138.6053  158.2542 C   0  0  0  0  0  0  0  0  0  0  0  0
  148.8141  138.7659  157.7366 N   0  0  0  0  0  0  0  0  0  0  0  0
  148.1339  137.7842  158.2631 C   0  0  0  0  0  0  0  0  0  0  0  0
  148.8446  136.9643  159.1112 N   0  0  0  0  0  0  0  0  0  0  0  0
  148.3381  135.8040  159.8292 C   0  0  0  0  0  0  0  0  0  0  0  0
  147.5626  136.1687  161.1222 C   0  0  2  0  0  0  0  0  0  0  0  0
  146.5278  137.0710  160.7664 O   0  0  0  0  0  0  0  0  0  0  0  0
  148.4243  136.8410  162.1864 C   0  0  0  0  0  0  0  0  0  0  0  0
  147.7082  136.4816  163.4791 C   0  0  0  0  0  0  0  0  0  0  0  0
  147.3190  135.1380  163.2530 O   0  0  0  0  0  0  0  0  0  0  0  0
  146.9090  134.9885  161.8951 C   0  0  2  0  0  0  0  0  0  0  0  0
  147.3051  133.5711  161.4525 C   0  0  0  0  0  0  0  0  0  0  0  0
  152.5624  138.8227  154.4683 H   0  0  0  0  0  0  0  0  0  0  0  0
  152.0665  138.0030  155.9411 H   0  0  0  0  0  0  0  0  0  0  0  0
  153.4781  139.0616  155.9530 H   0  0  0  0  0  0  0  0  0  0  0  0
  151.9890  141.0223  155.4016 H   0  0  0  0  0  0  0  0  0  0  0  0
  150.5853  139.9957  155.4814 H   0  0  0  0  0  0  0  0  0  0  0  0
  150.4254  142.1355  156.8900 H   0  0  0  0  0  0  0  0  0  0  0  0
  149.6762  141.1374  158.1115 H   0  0  0  0  0  0  0  0  0  0  0  0
  150.8270  142.1695  159.8271 H   0  0  0  0  0  0  0  0  0  0  0  0
  151.4708  144.0308  157.4977 H   0  0  0  0  0  0  0  0  0  0  0  0
  150.3790  144.3510  158.8449 H   0  0  0  0  0  0  0  0  0  0  0  0
  153.1179  145.0326  158.7360 H   0  0  0  0  0  0  0  0  0  0  0  0
  152.2072  144.9084  160.2414 H   0  0  0  0  0  0  0  0  0  0  0  0
  154.3432  143.1653  159.5091 H   0  0  0  0  0  0  0  0  0  0  0  0
  153.1564  142.8717  160.7843 H   0  0  0  0  0  0  0  0  0  0  0  0
  153.1932  137.4851  160.0915 H   0  0  0  0  0  0  0  0  0  0  0  0
  147.0855  137.6325  158.0506 H   0  0  0  0  0  0  0  0  0  0  0  0
  147.7003  135.2365  159.1501 H   0  0  0  0  0  0  0  0  0  0  0  0
  149.1891  135.1632  160.0603 H   0  0  0  0  0  0  0  0  0  0  0  0
  145.7569  136.8544  161.2684 H   0  0  0  0  0  0  0  0  0  0  0  0
  149.4185  136.3930  162.2018 H   0  0  0  0  0  0  0  0  0  0  0  0
  148.5455  137.9160  162.0444 H   0  0  0  0  0  0  0  0  0  0  0  0
  148.3478  136.5734  164.3571 H   0  0  0  0  0  0  0  0  0  0  0  0
  146.8236  137.1031  163.6262 H   0  0  0  0  0  0  0  0  0  0  0  0
  145.8205  135.0666  161.8636 H   0  0  0  0  0  0  0  0  0  0  0  0
  147.0114  133.3776  160.4208 H   0  0  0  0  0  0  0  0  0  0  0  0
  146.8144  132.8232  162.0759 H   0  0  0  0  0  0  0  0  0  0  0  0
  148.3801  133.4116  161.5384 H   0  0  0  0  0  0  0  0  0  0  0  0
  1  2  1  0  0  0  0
  1 27  1  0  0  0  0
  1 28  1  0  0  0  0
  1 29  1  0  0  0  0
  2  3  1  0  0  0  0
  2 30  1  0  0  0  0
  2 31  1  0  0  0  0
  3  4  1  0  0  0  0
  3 10  1  0  0  0  0
  4  5  1  0  0  0  0
  4 32  1  0  0  0  0
  4 33  1  0  0  0  0
  5  9  1  0  0  0  0
  5  6  1  0  0  0  0
  5 34  1  0  0  0  0
  6  7  1  0  0  0  0
  6 35  1  0  0  0  0
  6 36  1  0  0  0  0
  7  8  1  0  0  0  0
  7 37  1  0  0  0  0
  7 38  1  0  0  0  0
  8  9  1  0  0  0  0
  8 39  1  0  0  0  0
  8 40  1  0  0  0  0
 10 15  1  0  0  0  0
 10 11  2  0  0  0  0
 11 12  1  0  0  0  0
 12 13  2  0  0  0  0
 12 41  1  0  0  0  0
 13 14  1  0  0  0  0
 14 18  1  0  0  0  0
 14 15  2  0  0  0  0
 15 16  1  0  0  0  0
 16 17  2  0  0  0  0
 17 18  1  0  0  0  0
 17 42  1  0  0  0  0
 18 19  1  0  0  0  0
 19 20  1  0  0  0  0
 19 43  1  0  0  0  0
 19 44  1  0  0  0  0
 20 25  1  0  0  0  0
 20 21  1  0  0  0  0
 20 22  1  0  0  0  0
 21 45  1  0  0  0  0
 22 23  1  0  0  0  0
 22 46  1  0  0  0  0
 22 47  1  0  0  0  0
 23 24  1  0  0  0  0
 23 48  1  0  0  0  0
 23 49  1  0  0  0  0
 24 25  1  0  0  0  0
 25 26  1  0  0  0  0
 25 50  1  0  0  0  0
 26 51  1  0  0  0  0
 26 52  1  0  0  0  0
 26 53  1  0  0  0  0
M  END
> <s_m_source_file>
AV-unprocessed.smi

> <i_m_source_file_index>
15

> <i_lp_mmshare_version>
43012

> <i_f3d_flags>
0

> <s_epik_input>
TzFbQ0gyXVtDSDJdW0NIMl1bQ0BIXTFbQ0gyXU4oW0NIMl1bQ0gzXSljKG5bY0hdbjIpYyhjMjMpbltjSF1uM1tDSDJdW0NAQF00KFtPSF0pW0NIMl1bQ0gyXU9bQ0BIXTRbQ0gzXQ==

> <s_epik_cmdline>
J2VwaWtfcHl0aG9uJywgJy1waCcsICc3LjAnLCAnLXRuJywgJzgnLCAnLW1hJywgJzIwMCcsICctbWV0YWxfYmluZGluZycsICctaW1hZScsICc8aW5maWxlLm1hZT4nLCAnLW9tYWUnLCAnPG91dGZpbGUubWFlPic=

> <r_lp_tautomer_probability>
1

> <r_epik_Ionization_Penalty>
0.00360814

> <r_epik_Ionization_Penalty_Charging>
0

> <r_epik_Ionization_Penalty_Neutral>
0.00360814

> <r_epik_State_Penalty>
0.00237482

> <r_epik_Charging_Adjusted_Penalty>
0.00237482

> <i_epik_Tot_Q>
0

> <i_epik_Tot_abs_Q>
0

> <r_epik_Metal_State_Penalty>
-0

> <b_epik_Metal_Only>
0

> <s_lp_Force_Field>
OPLS_2005

> <r_lp_Energy>
47.4065

> <b_lp_Chiralities_Consistent>
1

> <s_lp_Variant>
AV-unprocessed.smi:15-7

> <Gold.Version>
5.8.1

> <Gold.Id.Protein>
6NUR|6NUR_protein|mol2

> <Gold.PLP.Fitness>
48.8042

> <Gold.PLP.PLP>
-45.6171

> <Gold.PLP.part.hbond>
-1.9766

> <Gold.PLP.part.metal>
0.0000

> <Gold.PLP.part.buried>
-3.8244

> <Gold.PLP.part.nonpolar>
-40.6223

> <Gold.PLP.part.repulsive>
0.0075

> <Gold.PLP.ligand.clash>
0.0000

> <Gold.PLP.ligand.torsion>
1.7163

> <Gold.PLP.Chemscore.Hbond>
2.0000

> <Gold.PLP.Chemscore.CHOScore>
0.0000

> <Gold.PLP.Chemscore.Metal>
0.0000

> <Gold.Chemscore.Hbonds>
donor molecule, donor type, donor heavy atom, donor atom, acceptor molecule, acceptor atom, score
      P1  H  6896  6909       L1    13  1.00
      P1  H  6934  6947       L1    21  0.93

> <Gold.PLP.Chemscore.Internal.Correction>
0.6196

> <Gold.Rescore>
     Score         DG    S(hbond)    S(metal)    S(lipo)     H(rot)  DE(clash)    DE(int)     intcor
     15.02     -18.47       1.76        0.00     119.93       2.71       1.81       1.64       ----

> <Gold.Chemscore.Fitness>
15.0205

> <Gold.Chemscore.DG>
-18.4749

> <Gold.Chemscore.ZeroCoef>
-5.4800

> <Gold.Chemscore.Hbond>
1.7647

> <Gold.Chemscore.Metal>
0.0000

> <Gold.Chemscore.Lipo>
119.9280

> <Gold.Chemscore.Internal_Hbond>
0.0000

> <Gold.Chemscore.DEClash>
1.8125

> <Gold.Chemscore.DEInternal>
1.6419

> <Gold.Chemscore.Rot>
2.7074

> <Gold.Chemscore.Internal.Correction>
   9.000000E+99

> <Gold.Chemscore.Hbonds>
donor molecule, donor type, donor heavy atom, donor atom, acceptor molecule, acceptor atom, score
      P1  H  6896  6909       L1    13  0.69
      P1  H  6934  6947       L1    21  0.63

> <Gold.Chemscore.Hbond.Weighted>
-5.8941

> <Gold.Chemscore.Metal.Weighted>
-0.0000

> <Gold.Chemscore.Lipo.Weighted>
-14.0316

> <Gold.Chemscore.Internal_Hbond.Weighted>
0.0000

> <Gold.Chemscore.DEClash.Weighted>
1.8125

> <Gold.Chemscore.DEInternal.Weighted>
1.6419

> <Gold.Chemscore.Rot.Weighted>
6.9308

> <Gold.Chemscore.Internal.Correction.Weighted>
   9.000000E+99

> <Gold.Protein.RotatedTorsions>
[ 6907 6896 6895 6894 ] final   94.31 input  -60.11 | X-H torsion
[ 7974 7965 7964 7962 ] final  157.87 input  175.53 | X-H torsion
[ 8008 7997 7996 7995 ] final -118.81 input   59.86 | X-H torsion
[ 10167 10162 10161 10158 ] final  117.35 input  -65.29 | X-H torsion
[ 10718 10713 10712 10709 ] final  -61.93 input   66.30 | X-H torsion
[ 10763 10752 10751 10750 ] final  138.79 input  -60.55 | X-H torsion
[ 11005 11000 10999 10996 ] final -159.85 input  -57.11 | X-H torsion

> <Gold.Protein.ActiveResidues>
 VAL166  LYS551  ARG553  GLY616  TRP617  ASP618  TYR619  PRO620  LYS621  CYS622 
 ASP623  PHE694  ASN695  SER759  ASP760  ASP761  ALA762  ILE779  LEU786  VAL792 
 PHE793  MET794  SER795  GLU796  ALA797  LYS798  CYS799  TRP800  GLU811  SER814 

> <Gold.Protein.RotatedAtoms>
  152.5450  134.1213  159.8399 H   0  0  0  0  0  0  0  0  0  0  0  0  # atno 6907 bound_to 6896
  151.1269  133.5057  159.2607 H   0  0  0  0  0  0  0  0  0  0  0  0  # atno 6908 bound_to 6896
  151.1718  135.0331  159.8809 H   0  0  0  0  0  0  0  0  0  0  0  0  # atno 6909 bound_to 6896
  144.7878  139.7400  143.6233 H   0  0  0  0  0  0  0  0  0  0  0  0  # atno 7974 bound_to 7965
  155.1057  140.0396  157.2709 H   0  0  0  0  0  0  0  0  0  0  0  0  # atno 8008 bound_to 7997
  154.6724  140.2615  155.6968 H   0  0  0  0  0  0  0  0  0  0  0  0  # atno 8009 bound_to 7997
  156.2663  140.2795  156.1238 H   0  0  0  0  0  0  0  0  0  0  0  0  # atno 8010 bound_to 7997
  139.6185  144.7096  151.2687 H   0  0  0  0  0  0  0  0  0  0  0  0  # atno 10167 bound_to 10162
  156.0888  130.4203  150.1064 H   0  0  0  0  0  0  0  0  0  0  0  0  # atno 10718 bound_to 10713
  153.8954  135.3028  155.3448 H   0  0  0  0  0  0  0  0  0  0  0  0  # atno 10763 bound_to 10752
  154.7696  135.4893  153.9625 H   0  0  0  0  0  0  0  0  0  0  0  0  # atno 10764 bound_to 10752
  153.1274  135.6796  153.9333 H   0  0  0  0  0  0  0  0  0  0  0  0  # atno 10765 bound_to 10752
  140.6380  134.4581  157.5232 H   0  0  0  0  0  0  0  0  0  0  0  0  # atno 11005 bound_to 11000
  146.2118  139.5479  142.9676 LP  0  0  0  0  0  0  0  0  0  0  0  0  # atno 17320 bound_to 7965
  145.5874  141.0374  143.2089 LP  0  0  0  0  0  0  0  0  0  0  0  0  # atno 17321 bound_to 7965
  140.7366  143.6701  150.8089 LP  0  0  0  0  0  0  0  0  0  0  0  0  # atno 17342 bound_to 10162
  140.0308  143.5445  152.2761 LP  0  0  0  0  0  0  0  0  0  0  0  0  # atno 17343 bound_to 10162
  156.9079  130.9642  151.3567 LP  0  0  0  0  0  0  0  0  0  0  0  0  # atno 17370 bound_to 10713
  157.6031  130.8527  149.8833 LP  0  0  0  0  0  0  0  0  0  0  0  0  # atno 17371 bound_to 10713
  139.9091  134.8384  156.1595 LP  0  0  0  0  0  0  0  0  0  0  0  0  # atno 17394 bound_to 11000
  141.0627  133.6834  156.1985 LP  0  0  0  0  0  0  0  0  0  0  0  0  # atno 17395 bound_to 11000

$$$$
