AV-unprocessed.smi:102|AV-procd|sdf|951|dock9
  -GOLD-   2262017483D 1   1.00000     0.00000
 Structure written by MMmdl.
 44 45  0  0  0  0  0  0  0  0  1 V2000
  151.8809  144.5336  161.6741 C   0  0  0  0  0  0  0  0  0  0  0  0
  151.2528  144.5526  160.2866 C   0  0  0  0  0  0  0  0  0  0  0  0
  150.4727  145.4433  159.9487 O   0  0  0  0  0  0  0  0  0  0  0  0
  151.6532  143.5166  159.5268 O   0  0  0  0  0  0  0  0  0  0  0  0
  150.8844  143.1078  158.4040 C   0  0  0  0  0  0  0  0  0  0  0  0
  151.5792  141.9680  157.6434 C   0  0  2  0  0  0  0  0  0  0  0  0
  151.0656  141.8730  156.3230 O   0  0  0  0  0  0  0  0  0  0  0  0
  151.2154  140.5719  155.8454 C   0  0  2  0  0  0  0  0  0  0  0  0
  150.0210  140.2604  154.9644 N   0  0  0  0  0  0  0  0  0  0  0  0
  148.9816  141.1732  154.8518 C   0  0  0  0  0  0  0  0  0  0  0  0
  147.8700  140.9394  154.1150 C   0  0  0  0  0  0  0  0  0  0  0  0
  146.9092  141.8766  154.0480 F   0  0  0  0  0  0  0  0  0  0  0  0
  147.7038  139.6794  153.3967 C   0  0  0  0  0  0  0  0  0  0  0  0
  146.7365  139.3782  152.7001 O   0  0  0  0  0  0  0  0  0  0  0  0
  148.7624  138.7810  153.5557 N   0  0  0  0  0  0  0  0  0  0  0  0
  149.9115  139.0073  154.3148 C   0  0  0  0  0  0  0  0  0  0  0  0
  150.7751  138.1348  154.3931 O   0  0  0  0  0  0  0  0  0  0  0  0
  151.4043  139.6268  157.0563 C   0  0  2  0  0  0  0  0  0  0  0  0
  150.4301  138.5896  157.1046 O   0  0  0  0  0  0  0  0  0  0  0  0
  150.3174  137.8120  158.1925 C   0  0  0  0  0  0  0  0  0  0  0  0
  149.1302  136.8630  158.1029 C   0  0  0  0  0  0  0  0  0  0  0  0
  151.0586  137.8256  159.1751 O   0  0  0  0  0  0  0  0  0  0  0  0
  151.2758  140.5861  158.2399 C   0  0  1  0  0  0  0  0  0  0  0  0
  152.0543  140.2405  159.3907 O   0  0  0  0  0  0  0  0  0  0  0  0
  153.3926  140.0431  159.3624 C   0  0  0  0  0  0  0  0  0  0  0  0
  154.0565  140.4083  160.6834 C   0  0  0  0  0  0  0  0  0  0  0  0
  154.0535  139.6217  158.4136 O   0  0  0  0  0  0  0  0  0  0  0  0
  148.6865  137.8901  153.0865 H   0  0  0  0  0  0  0  0  0  0  0  0
  152.8214  145.0846  161.6689 H   0  0  0  0  0  0  0  0  0  0  0  0
  152.0802  143.5102  161.9928 H   0  0  0  0  0  0  0  0  0  0  0  0
  151.2124  144.9959  162.4007 H   0  0  0  0  0  0  0  0  0  0  0  0
  149.9292  142.7483  158.7872 H   0  0  0  0  0  0  0  0  0  0  0  0
  150.6560  143.9440  157.7412 H   0  0  0  0  0  0  0  0  0  0  0  0
  152.6517  142.1486  157.5765 H   0  0  0  0  0  0  0  0  0  0  0  0
  152.0869  140.5504  155.1901 H   0  0  0  0  0  0  0  0  0  0  0  0
  149.0527  142.1215  155.3648 H   0  0  0  0  0  0  0  0  0  0  0  0
  152.4068  139.2083  156.9688 H   0  0  0  0  0  0  0  0  0  0  0  0
  149.2004  136.2524  157.2025 H   0  0  0  0  0  0  0  0  0  0  0  0
  148.1978  137.4268  158.0677 H   0  0  0  0  0  0  0  0  0  0  0  0
  149.1021  136.2008  158.9683 H   0  0  0  0  0  0  0  0  0  0  0  0
  150.2313  140.5874  158.5534 H   0  0  0  0  0  0  0  0  0  0  0  0
  153.3653  140.2657  161.5143 H   0  0  0  0  0  0  0  0  0  0  0  0
  154.3731  141.4514  160.6702 H   0  0  0  0  0  0  0  0  0  0  0  0
  154.9329  139.7826  160.8542 H   0  0  0  0  0  0  0  0  0  0  0  0
  1  2  1  0  0  0  0
  1 29  1  0  0  0  0
  1 30  1  0  0  0  0
  1 31  1  0  0  0  0
  2  3  2  0  0  0  0
  2  4  1  0  0  0  0
  4  5  1  0  0  0  0
  5  6  1  0  0  0  0
  5 32  1  0  0  0  0
  5 33  1  0  0  0  0
  6 23  1  0  0  0  0
  6  7  1  0  0  0  0
  6 34  1  0  0  0  0
  7  8  1  0  0  0  0
  8  9  1  0  0  0  0
  8 18  1  0  0  0  0
  8 35  1  0  0  0  0
  9 16  1  0  0  0  0
  9 10  1  0  0  0  0
 10 11  2  0  0  0  0
 10 36  1  0  0  0  0
 11 12  1  0  0  0  0
 11 13  1  0  0  0  0
 13 14  2  0  0  0  0
 13 15  1  0  0  0  0
 15 28  1  0  0  0  0
 15 16  1  0  0  0  0
 16 17  2  0  0  0  0
 18 19  1  0  0  0  0
 18 23  1  0  0  0  0
 18 37  1  0  0  0  0
 19 20  1  0  0  0  0
 20 21  1  0  0  0  0
 20 22  2  0  0  0  0
 21 38  1  0  0  0  0
 21 39  1  0  0  0  0
 21 40  1  0  0  0  0
 23 24  1  0  0  0  0
 23 41  1  0  0  0  0
 24 25  1  0  0  0  0
 25 26  1  0  0  0  0
 25 27  2  0  0  0  0
 26 42  1  0  0  0  0
 26 43  1  0  0  0  0
 26 44  1  0  0  0  0
M  END
> <s_m_source_file>
AV-unprocessed.smi

> <i_m_source_file_index>
102

> <i_lp_mmshare_version>
43012

> <i_f3d_flags>
0

> <s_epik_input>
W0NIM11DKD1PKU9bQ0gyXVtDQEBIXTFPW0NASF0oW0NAQEhdKE9DKD1PKVtDSDNdKVtDQEhdMU9DKD1PKVtDSDNdKW4yW2NIXWMoRiljKD1PKVtuSF1jMj1P

> <s_epik_cmdline>
J2VwaWtfcHl0aG9uJywgJy1waCcsICc3LjAnLCAnLXRuJywgJzgnLCAnLW1hJywgJzIwMCcsICctbWV0YWxfYmluZGluZycsICctaW1hZScsICc8aW5maWxlLm1hZT4nLCAnLW9tYWUnLCAnPG91dGZpbGUubWFlPic=

> <r_lp_tautomer_probability>
0.999537

> <r_epik_Ionization_Penalty>
0.058267

> <r_epik_Ionization_Penalty_Charging>
0.058267

> <r_epik_Ionization_Penalty_Neutral>
6.57791e-16

> <r_epik_State_Penalty>
0.0503774

> <r_epik_Charging_Adjusted_Penalty>
0.108644

> <i_epik_Tot_Q>
0

> <i_epik_Tot_abs_Q>
0

> <r_epik_Metal_State_Penalty>
2.6644

> <b_epik_Metal_Only>
0

> <s_epik_Chemistry_Notes>
This compound has an ester and may undergo hydrolysis at high or low pH. This compound contains an acetal/aminal-like group ( X-CH(R)-Y where X, Y are N, S, or O) that may be acid/base labile, releasing an aldehyde.

> <s_lp_Force_Field>
OPLS_2005

> <r_lp_Energy>
7.12504

> <b_lp_Chiralities_Consistent>
1

> <s_lp_Variant>
AV-unprocessed.smi:102-7

> <Gold.Version>
5.8.1

> <Gold.Id.Protein>
6NUR|6NUR_protein|mol2

> <Gold.PLP.Fitness>
49.0682

> <Gold.PLP.PLP>
-42.8101

> <Gold.PLP.part.hbond>
-4.3018

> <Gold.PLP.part.metal>
0.0000

> <Gold.PLP.part.buried>
-2.3234

> <Gold.PLP.part.nonpolar>
-36.3415

> <Gold.PLP.part.repulsive>
0.8211

> <Gold.PLP.ligand.clash>
0.0000

> <Gold.PLP.ligand.torsion>
1.0007

> <Gold.PLP.Chemscore.Hbond>
1.7963

> <Gold.PLP.Chemscore.CHOScore>
0.9003

> <Gold.PLP.Chemscore.Metal>
0.0000

> <Gold.Chemscore.Hbonds>
donor molecule, donor type, donor heavy atom, donor atom, acceptor molecule, acceptor atom, score
      L1  H    15    28       P1  7948  0.93
      P1  H  7997  8008       L1    27  1.00
      L1  C    10    36       P1  8028  0.79

> <Gold.PLP.Chemscore.Internal.Correction>
0.1697

> <Gold.Rescore>
     Score         DG    S(hbond)    S(metal)    S(lipo)     H(rot)  DE(clash)    DE(int)     intcor
      6.56     -11.75       2.91        0.00      59.24       4.05       0.01       5.18       ----

> <Gold.Chemscore.Fitness>
6.5640

> <Gold.Chemscore.DG>
-11.7456

> <Gold.Chemscore.ZeroCoef>
-5.4800

> <Gold.Chemscore.Hbond>
2.9066

> <Gold.Chemscore.Metal>
0.0000

> <Gold.Chemscore.Lipo>
59.2371

> <Gold.Chemscore.Internal_Hbond>
0.0000

> <Gold.Chemscore.DEClash>
0.0063

> <Gold.Chemscore.DEInternal>
5.1753

> <Gold.Chemscore.Rot>
4.0520

> <Gold.Chemscore.Internal.Correction>
   9.000000E+99

> <Gold.Chemscore.Hbonds>
donor molecule, donor type, donor heavy atom, donor atom, acceptor molecule, acceptor atom, score
      L1  H    15    28       P1  7948  0.88
      P1  H  7997  8008       L1    27  0.89

> <Gold.Chemscore.Hbond.Weighted>
-9.7081

> <Gold.Chemscore.Metal.Weighted>
-0.0000

> <Gold.Chemscore.Lipo.Weighted>
-6.9307

> <Gold.Chemscore.Internal_Hbond.Weighted>
0.0000

> <Gold.Chemscore.DEClash.Weighted>
0.0063

> <Gold.Chemscore.DEInternal.Weighted>
5.1753

> <Gold.Chemscore.Rot.Weighted>
10.3732

> <Gold.Chemscore.Internal.Correction.Weighted>
   9.000000E+99

> <Gold.Protein.RotatedTorsions>
[ 6907 6896 6895 6894 ] final  101.88 input  -60.11 | X-H torsion
[ 7974 7965 7964 7962 ] final   90.37 input  175.53 | X-H torsion
[ 8008 7997 7996 7995 ] final -118.42 input   59.86 | X-H torsion
[ 10167 10162 10161 10158 ] final  -85.29 input  -65.29 | X-H torsion
[ 10718 10713 10712 10709 ] final   10.88 input   66.30 | X-H torsion
[ 10763 10752 10751 10750 ] final   92.92 input  -60.55 | X-H torsion
[ 11005 11000 10999 10996 ] final   25.06 input  -57.11 | X-H torsion

> <Gold.Protein.ActiveResidues>
 VAL166  LYS551  ARG553  GLY616  TRP617  ASP618  TYR619  PRO620  LYS621  CYS622 
 ASP623  PHE694  ASN695  SER759  ASP760  ASP761  ALA762  ILE779  LEU786  VAL792 
 PHE793  MET794  SER795  GLU796  ALA797  LYS798  CYS799  TRP800  GLU811  SER814 

> <Gold.Protein.RotatedAtoms>
  152.5338  134.0060  159.7916 H   0  0  0  0  0  0  0  0  0  0  0  0  # atno 6907 bound_to 6896
  151.0270  133.5816  159.2672 H   0  0  0  0  0  0  0  0  0  0  0  0  # atno 6908 bound_to 6896
  151.2835  135.0728  159.9231 H   0  0  0  0  0  0  0  0  0  0  0  0  # atno 6909 bound_to 6896
  145.5199  139.2279  143.2677 H   0  0  0  0  0  0  0  0  0  0  0  0  # atno 7974 bound_to 7965
  155.0994  140.0396  157.2692 H   0  0  0  0  0  0  0  0  0  0  0  0  # atno 8008 bound_to 7997
  154.6770  140.2625  155.6922 H   0  0  0  0  0  0  0  0  0  0  0  0  # atno 8009 bound_to 7997
  156.2680  140.2786  156.1300 H   0  0  0  0  0  0  0  0  0  0  0  0  # atno 8010 bound_to 7997
  140.4051  143.2646  151.9091 H   0  0  0  0  0  0  0  0  0  0  0  0  # atno 10167 bound_to 10162
  156.9874  130.6029  149.5682 H   0  0  0  0  0  0  0  0  0  0  0  0  # atno 10718 bound_to 10713
  153.2245  135.4344  155.0527 H   0  0  0  0  0  0  0  0  0  0  0  0  # atno 10763 bound_to 10752
  154.8266  135.3364  154.6878 H   0  0  0  0  0  0  0  0  0  0  0  0  # atno 10764 bound_to 10752
  153.7308  135.7011  153.5046 H   0  0  0  0  0  0  0  0  0  0  0  0  # atno 10765 bound_to 10752
  140.3520  134.2219  155.7679 H   0  0  0  0  0  0  0  0  0  0  0  0  # atno 11005 bound_to 11000
  146.2113  140.6010  142.9058 LP  0  0  0  0  0  0  0  0  0  0  0  0  # atno 17320 bound_to 7965
  144.7682  140.5577  143.6689 LP  0  0  0  0  0  0  0  0  0  0  0  0  # atno 17321 bound_to 7965
  139.4783  144.5594  151.8263 LP  0  0  0  0  0  0  0  0  0  0  0  0  # atno 17342 bound_to 10162
  140.4698  144.1603  150.5916 LP  0  0  0  0  0  0  0  0  0  0  0  0  # atno 17343 bound_to 10162
  156.0220  130.5315  150.8302 LP  0  0  0  0  0  0  0  0  0  0  0  0  # atno 17370 bound_to 10713
  157.5483  131.0943  150.9732 LP  0  0  0  0  0  0  0  0  0  0  0  0  # atno 17371 bound_to 10713
  141.2009  133.7975  157.0465 LP  0  0  0  0  0  0  0  0  0  0  0  0  # atno 17394 bound_to 11000
  140.0696  134.9710  157.1444 LP  0  0  0  0  0  0  0  0  0  0  0  0  # atno 17395 bound_to 11000

$$$$
