AV-unprocessed.smi:2330|AV-procd|sdf|9312|dock9
  -GOLD-   2272012533D 1   1.00000     0.00000
 Structure written by MMmdl.
 42 43  0  0  0  0  0  0  0  0  1 V2000
  145.9407  133.0828  151.5806 C   0  0  0  0  0  0  0  0  0  0  0  0
  146.5153  133.2124  152.9983 C   0  0  2  0  0  0  0  0  0  0  0  0
  146.0249  134.5001  153.6876 C   0  0  0  0  0  0  0  0  0  0  0  0
  146.6053  134.6443  155.1064 C   0  0  0  0  0  0  0  0  0  0  0  0
  148.1445  134.5767  155.1159 C   0  0  2  0  0  0  0  0  0  0  0  0
  148.7048  135.7787  154.5005 N   0  0  0  0  0  0  0  0  0  0  0  0
  148.8689  136.9606  155.1102 C   0  0  0  0  0  0  0  0  0  0  0  0
  148.5458  137.1873  156.2764 O   0  0  0  0  0  0  0  0  0  0  0  0
  149.4432  137.8593  154.2982 N   0  0  0  0  0  0  0  0  0  0  0  0
  149.7850  139.2318  154.6602 C   0  0  0  0  0  0  0  0  0  0  0  0
  151.2981  139.4163  154.9043 C   0  0  2  0  0  0  0  0  0  0  0  0
  152.0829  138.1058  155.0903 C   0  0  0  0  0  0  0  0  0  0  0  0
  151.5586  140.3725  156.0263 C   0  0  0  0  0  0  0  0  0  0  0  0
  152.3761  140.1118  157.0517 N   0  0  0  0  0  0  0  0  0  0  0  0
  152.4459  141.1674  157.9639 C   0  0  0  0  0  0  0  0  0  0  0  0
  151.6674  142.2420  157.6175 C   0  0  0  0  0  0  0  0  0  0  0  0
  150.8125  141.9649  156.1252 S   0  0  0  0  0  0  0  0  0  0  0  0
  148.6371  133.2974  154.4064 C   0  0  0  0  0  0  0  0  0  0  0  0
  148.0550  133.1581  152.9887 C   0  0  0  0  0  0  0  0  0  0  0  0
  146.2645  133.9074  150.9447 H   0  0  0  0  0  0  0  0  0  0  0  0
  144.8505  133.0833  151.5974 H   0  0  0  0  0  0  0  0  0  0  0  0
  146.2620  132.1534  151.1096 H   0  0  0  0  0  0  0  0  0  0  0  0
  146.1532  132.3622  153.5785 H   0  0  0  0  0  0  0  0  0  0  0  0
  146.3023  135.3680  153.0879 H   0  0  0  0  0  0  0  0  0  0  0  0
  144.9355  134.5018  153.7399 H   0  0  0  0  0  0  0  0  0  0  0  0
  146.2656  135.5783  155.5559 H   0  0  0  0  0  0  0  0  0  0  0  0
  146.2090  133.8457  155.7348 H   0  0  0  0  0  0  0  0  0  0  0  0
  148.4720  134.5467  156.1567 H   0  0  0  0  0  0  0  0  0  0  0  0
  149.0052  135.6952  153.5403 H   0  0  0  0  0  0  0  0  0  0  0  0
  149.6706  137.5697  153.3583 H   0  0  0  0  0  0  0  0  0  0  0  0
  149.4704  139.8691  153.8330 H   0  0  0  0  0  0  0  0  0  0  0  0
  149.2144  139.5621  155.5300 H   0  0  0  0  0  0  0  0  0  0  0  0
  151.7024  139.8888  154.0080 H   0  0  0  0  0  0  0  0  0  0  0  0
  153.1462  138.3043  155.2291 H   0  0  0  0  0  0  0  0  0  0  0  0
  151.9880  137.4520  154.2237 H   0  0  0  0  0  0  0  0  0  0  0  0
  151.7302  137.5550  155.9629 H   0  0  0  0  0  0  0  0  0  0  0  0
  153.0766  141.0690  158.8351 H   0  0  0  0  0  0  0  0  0  0  0  0
  151.5453  143.1753  158.1471 H   0  0  0  0  0  0  0  0  0  0  0  0
  149.7267  133.2767  154.3656 H   0  0  0  0  0  0  0  0  0  0  0  0
  148.3435  132.4284  154.9964 H   0  0  0  0  0  0  0  0  0  0  0  0
  148.3905  132.2177  152.5504 H   0  0  0  0  0  0  0  0  0  0  0  0
  148.4497  133.9504  152.3511 H   0  0  0  0  0  0  0  0  0  0  0  0
  1  2  1  0  0  0  0
  1 20  1  0  0  0  0
  1 21  1  0  0  0  0
  1 22  1  0  0  0  0
  2 19  1  0  0  0  0
  2  3  1  0  0  0  0
  2 23  1  0  0  0  0
  3  4  1  0  0  0  0
  3 24  1  0  0  0  0
  3 25  1  0  0  0  0
  4  5  1  0  0  0  0
  4 26  1  0  0  0  0
  4 27  1  0  0  0  0
  5  6  1  0  0  0  0
  5 18  1  0  0  0  0
  5 28  1  0  0  0  0
  6  7  1  0  0  0  0
  6 29  1  0  0  0  0
  7  8  2  0  0  0  0
  7  9  1  0  0  0  0
  9 10  1  0  0  0  0
  9 30  1  0  0  0  0
 10 11  1  0  0  0  0
 10 31  1  0  0  0  0
 10 32  1  0  0  0  0
 11 12  1  0  0  0  0
 11 13  1  0  0  0  0
 11 33  1  0  0  0  0
 12 34  1  0  0  0  0
 12 35  1  0  0  0  0
 12 36  1  0  0  0  0
 13 17  1  0  0  0  0
 13 14  2  0  0  0  0
 14 15  1  0  0  0  0
 15 16  2  0  0  0  0
 15 37  1  0  0  0  0
 16 17  1  0  0  0  0
 16 38  1  0  0  0  0
 18 19  1  0  0  0  0
 18 39  1  0  0  0  0
 18 40  1  0  0  0  0
 19 41  1  0  0  0  0
 19 42  1  0  0  0  0
M  END
> <s_m_source_file>
AV-unprocessed.smi

> <i_m_source_file_index>
2330

> <i_lp_mmshare_version>
43012

> <i_f3d_flags>
0

> <s_epik_input>
W0NIM11bQ0BASF0xW0NIMl1bQ0gyXVtDQEhdKFtDSDJdW0NIMl0xKVtOSF1DKD1PKVtOSF1bQ0gyXVtDQEhdKFtDSDNdKWMybltjSF1bY0hdczI=

> <s_epik_cmdline>
J2VwaWtfcHl0aG9uJywgJy1waCcsICc3LjAnLCAnLXRuJywgJzgnLCAnLW1hJywgJzIwMCcsICctbWV0YWxfYmluZGluZycsICctaW1hZScsICc8aW5maWxlLm1hZT4nLCAnLW9tYWUnLCAnPG91dGZpbGUubWFlPic=

> <r_lp_tautomer_probability>
1

> <r_epik_Ionization_Penalty>
0.000331107

> <r_epik_Ionization_Penalty_Charging>
0

> <r_epik_Ionization_Penalty_Neutral>
0.000331107

> <r_epik_State_Penalty>
-0

> <r_epik_Charging_Adjusted_Penalty>
0

> <i_epik_Tot_Q>
0

> <i_epik_Tot_abs_Q>
0

> <r_epik_Metal_State_Penalty>
-0

> <b_epik_Metal_Only>
0

> <s_lp_Force_Field>
OPLS_2005

> <r_lp_Energy>
-1.48662

> <b_lp_Chiralities_Consistent>
1

> <s_lp_Variant>
AV-unprocessed.smi:2330-3

> <Gold.Version>
5.8.1

> <Gold.Id.Protein>
6NUR|6NUR_protein|mol2

> <Gold.PLP.Fitness>
38.4306

> <Gold.PLP.PLP>
-32.5806

> <Gold.PLP.part.hbond>
-3.0000

> <Gold.PLP.part.metal>
0.0000

> <Gold.PLP.part.buried>
-2.4879

> <Gold.PLP.part.nonpolar>
-27.3181

> <Gold.PLP.part.repulsive>
0.0438

> <Gold.PLP.ligand.clash>
0.0000

> <Gold.PLP.ligand.torsion>
1.0880

> <Gold.PLP.Chemscore.Hbond>
2.6368

> <Gold.PLP.Chemscore.CHOScore>
0.0000

> <Gold.PLP.Chemscore.Metal>
0.0000

> <Gold.Chemscore.Hbonds>
donor molecule, donor type, donor heavy atom, donor atom, acceptor molecule, acceptor atom, score
      L1  H     6    29       P1  7948  1.00
      L1  H     9    30       P1  7948  0.69
      P1  H  7997  8008       L1    14  0.81

> <Gold.PLP.Chemscore.Internal.Correction>
0.1158

> <Gold.Rescore>
     Score         DG    S(hbond)    S(metal)    S(lipo)     H(rot)  DE(clash)    DE(int)     intcor
     14.89     -15.94       1.55        0.00      77.05       1.45       0.12       0.93       ----

> <Gold.Chemscore.Fitness>
14.8908

> <Gold.Chemscore.DG>
-15.9440

> <Gold.Chemscore.ZeroCoef>
-5.4800

> <Gold.Chemscore.Hbond>
1.5479

> <Gold.Chemscore.Metal>
0.0000

> <Gold.Chemscore.Lipo>
77.0528

> <Gold.Chemscore.Internal_Hbond>
0.0000

> <Gold.Chemscore.DEClash>
0.1197

> <Gold.Chemscore.DEInternal>
0.9335

> <Gold.Chemscore.Rot>
1.4536

> <Gold.Chemscore.Internal.Correction>
   9.000000E+99

> <Gold.Chemscore.Hbonds>
donor molecule, donor type, donor heavy atom, donor atom, acceptor molecule, acceptor atom, score
      L1  H     6    29       P1  7948  0.82
      L1  H     9    30       P1  7948  0.52
      P1  H  7997  8008       L1    14  0.11

> <Gold.Chemscore.Hbond.Weighted>
-5.1700

> <Gold.Chemscore.Metal.Weighted>
-0.0000

> <Gold.Chemscore.Lipo.Weighted>
-9.0152

> <Gold.Chemscore.Internal_Hbond.Weighted>
0.0000

> <Gold.Chemscore.DEClash.Weighted>
0.1197

> <Gold.Chemscore.DEInternal.Weighted>
0.9335

> <Gold.Chemscore.Rot.Weighted>
3.7212

> <Gold.Chemscore.Internal.Correction.Weighted>
   9.000000E+99

> <Gold.Protein.RotatedTorsions>
[ 6907 6896 6895 6894 ] final  163.12 input  -60.11 | X-H torsion
[ 7974 7965 7964 7962 ] final  -17.52 input  175.53 | X-H torsion
[ 8008 7997 7996 7995 ] final  -50.00 input   59.86 | X-H torsion
[ 10167 10162 10161 10158 ] final   -9.32 input  -65.29 | X-H torsion
[ 10718 10713 10712 10709 ] final  -45.38 input   66.30 | X-H torsion
[ 10763 10752 10751 10750 ] final   61.08 input  -60.55 | X-H torsion
[ 11005 11000 10999 10996 ] final -130.47 input  -57.11 | X-H torsion

> <Gold.Protein.ActiveResidues>
 VAL166  LYS551  ARG553  GLY616  TRP617  ASP618  TYR619  PRO620  LYS621  CYS622 
 ASP623  PHE694  ASN695  SER759  ASP760  ASP761  ALA762  ILE779  LEU786  VAL792 
 PHE793  MET794  SER795  GLU796  ALA797  LYS798  CYS799  TRP800  GLU811  SER814 

> <Gold.Protein.RotatedAtoms>
  151.9300  133.3608  159.3927 H   0  0  0  0  0  0  0  0  0  0  0  0  # atno 6907 bound_to 6896
  150.7019  134.4547  159.5362 H   0  0  0  0  0  0  0  0  0  0  0  0  # atno 6908 bound_to 6896
  152.2186  134.8435  160.0539 H   0  0  0  0  0  0  0  0  0  0  0  0  # atno 6909 bound_to 6896
  146.1937  140.3791  142.8448 H   0  0  0  0  0  0  0  0  0  0  0  0  # atno 7974 bound_to 7965
  154.4054  140.1283  156.4594 H   0  0  0  0  0  0  0  0  0  0  0  0  # atno 8008 bound_to 7997
  155.7288  140.3491  155.5030 H   0  0  0  0  0  0  0  0  0  0  0  0  # atno 8009 bound_to 7997
  155.9146  140.1042  157.1243 H   0  0  0  0  0  0  0  0  0  0  0  0  # atno 8010 bound_to 7997
  140.7084  143.5871  150.8931 H   0  0  0  0  0  0  0  0  0  0  0  0  # atno 10167 bound_to 10162
  156.2289  130.4171  149.8899 H   0  0  0  0  0  0  0  0  0  0  0  0  # atno 10718 bound_to 10713
  152.9940  135.5513  154.5976 H   0  0  0  0  0  0  0  0  0  0  0  0  # atno 10763 bound_to 10752
  154.5324  135.2814  155.1170 H   0  0  0  0  0  0  0  0  0  0  0  0  # atno 10764 bound_to 10752
  154.2480  135.6404  153.5283 H   0  0  0  0  0  0  0  0  0  0  0  0  # atno 10765 bound_to 10752
  140.9342  134.1278  157.4208 H   0  0  0  0  0  0  0  0  0  0  0  0  # atno 11005 bound_to 11000
  144.8537  140.7039  143.6152 LP  0  0  0  0  0  0  0  0  0  0  0  0  # atno 17320 bound_to 7965
  145.3712  139.1658  143.4331 LP  0  0  0  0  0  0  0  0  0  0  0  0  # atno 17321 bound_to 7965
  139.9597  143.6178  152.3006 LP  0  0  0  0  0  0  0  0  0  0  0  0  # atno 17342 bound_to 10162
  139.6726  144.7660  151.1755 LP  0  0  0  0  0  0  0  0  0  0  0  0  # atno 17343 bound_to 10162
  156.6520  130.8747  151.3533 LP  0  0  0  0  0  0  0  0  0  0  0  0  # atno 17370 bound_to 10713
  157.7124  130.9456  150.1135 LP  0  0  0  0  0  0  0  0  0  0  0  0  # atno 17371 bound_to 10713
  139.8804  135.0015  156.6073 LP  0  0  0  0  0  0  0  0  0  0  0  0  # atno 17394 bound_to 11000
  140.7821  133.8651  155.8576 LP  0  0  0  0  0  0  0  0  0  0  0  0  # atno 17395 bound_to 11000

$$$$
