AV-unprocessed.smi:1240|AV-procd|sdf|5207|dock3
  -GOLD-   22720 4293D 1   1.00000     0.00000
 Structure written by MMmdl.
 49 51  0  0  0  0  0  0  0  0  3 V2000
  147.0214  133.2326  153.8259 O   0  0  0  0  0  0  0  0  0  0  0  0
  147.5689  132.6159  152.9129 C   0  0  0  0  0  0  0  0  0  0  0  0
  148.7974  132.0904  153.0099 N   0  0  0  0  0  0  0  0  0  0  0  0
  149.6350  132.1324  154.2031 C   0  0  0  0  0  0  0  0  0  0  0  0
  149.4094  130.9069  155.1292 C   0  0  2  0  0  0  0  0  0  0  0  0
  149.2095  131.2822  156.6257 C   0  0  2  0  0  0  0  0  0  0  0  0
  147.9685  132.1176  156.8980 C   0  0  0  0  0  0  0  0  0  0  0  0
  148.2628  132.6891  158.2785 C   0  0  0  0  0  0  0  0  0  0  0  0
  149.6627  132.9307  158.2831 O   0  0  0  0  0  0  0  0  0  0  0  0
  150.2881  132.1843  157.2436 C   0  0  0  0  0  0  0  0  0  0  0  0
  150.5091  129.9029  155.0017 N   0  3  0  0  0  0  0  0  0  0  0  0
  151.8477  130.4169  155.3819 C   0  0  0  0  0  0  0  0  0  0  0  0
  152.9305  129.3818  155.0313 C   0  0  0  0  0  0  0  0  0  0  0  0
  152.6388  128.1442  155.6699 O   0  0  0  0  0  0  0  0  0  0  0  0
  151.3915  127.6046  155.2492 C   0  0  0  0  0  0  0  0  0  0  0  0
  150.2604  128.5768  155.6230 C   0  0  0  0  0  0  0  0  0  0  0  0
  147.0395  132.3889  151.6982 N   0  0  0  0  0  0  0  0  0  0  0  0
  145.7481  132.7305  151.2111 C   0  0  0  0  0  0  0  0  0  0  0  0
  145.4728  132.4598  149.8522 C   0  0  0  0  0  0  0  0  0  0  0  0
  144.2002  132.7616  149.3260 C   0  0  0  0  0  0  0  0  0  0  0  0
  143.2524  133.2975  150.1242 N   0  3  0  0  0  0  0  0  0  0  0  0
  143.4635  133.5624  151.4313 C   0  0  0  0  0  0  0  0  0  0  0  0
  144.7165  133.2822  152.0137 C   0  0  0  0  0  0  0  0  0  0  0  0
  149.1752  131.6117  152.2052 H   0  0  0  0  0  0  0  0  0  0  0  0
  150.6714  132.1819  153.8693 H   0  0  0  0  0  0  0  0  0  0  0  0
  149.4370  133.0529  154.7546 H   0  0  0  0  0  0  0  0  0  0  0  0
  148.4938  130.4087  154.8054 H   0  0  0  0  0  0  0  0  0  0  0  0
  149.1478  130.3748  157.2283 H   0  0  0  0  0  0  0  0  0  0  0  0
  147.8823  132.9254  156.1695 H   0  0  0  0  0  0  0  0  0  0  0  0
  147.0451  131.5380  156.8777 H   0  0  0  0  0  0  0  0  0  0  0  0
  147.6979  133.5974  158.4884 H   0  0  0  0  0  0  0  0  0  0  0  0
  148.0308  131.9562  159.0524 H   0  0  0  0  0  0  0  0  0  0  0  0
  151.1273  131.6122  157.6396 H   0  0  0  0  0  0  0  0  0  0  0  0
  150.6763  132.8912  156.5095 H   0  0  0  0  0  0  0  0  0  0  0  0
  152.0542  131.3503  154.8571 H   0  0  0  0  0  0  0  0  0  0  0  0
  151.8791  130.6343  156.4499 H   0  0  0  0  0  0  0  0  0  0  0  0
  152.9980  129.2395  153.9514 H   0  0  0  0  0  0  0  0  0  0  0  0
  153.9068  129.7314  155.3677 H   0  0  0  0  0  0  0  0  0  0  0  0
  151.4053  127.4165  154.1743 H   0  0  0  0  0  0  0  0  0  0  0  0
  151.2389  126.6430  155.7393 H   0  0  0  0  0  0  0  0  0  0  0  0
  150.2119  128.6690  156.7086 H   0  0  0  0  0  0  0  0  0  0  0  0
  149.3067  128.1690  155.2895 H   0  0  0  0  0  0  0  0  0  0  0  0
  147.6483  131.9431  151.0275 H   0  0  0  0  0  0  0  0  0  0  0  0
  146.2291  132.0275  149.2130 H   0  0  0  0  0  0  0  0  0  0  0  0
  143.9139  132.5885  148.2989 H   0  0  0  0  0  0  0  0  0  0  0  0
  142.6270  133.9817  151.9710 H   0  0  0  0  0  0  0  0  0  0  0  0
  144.8537  133.4840  153.0648 H   0  0  0  0  0  0  0  0  0  0  0  0
  150.5760  129.7258  154.0094 H   0  0  0  0  0  0  0  0  0  0  0  0
  142.3372  133.5068  149.7244 H   0  0  0  0  0  0  0  0  0  0  0  0
  1  2  2  0  0  0  0
  2  3  1  0  0  0  0
  2 17  1  0  0  0  0
  3  4  1  0  0  0  0
  3 24  1  0  0  0  0
  4  5  1  0  0  0  0
  4 25  1  0  0  0  0
  4 26  1  0  0  0  0
  5  6  1  0  0  0  0
  5 11  1  0  0  0  0
  5 27  1  0  0  0  0
  6 10  1  0  0  0  0
  6  7  1  0  0  0  0
  6 28  1  0  0  0  0
  7  8  1  0  0  0  0
  7 29  1  0  0  0  0
  7 30  1  0  0  0  0
  8  9  1  0  0  0  0
  8 31  1  0  0  0  0
  8 32  1  0  0  0  0
  9 10  1  0  0  0  0
 10 33  1  0  0  0  0
 10 34  1  0  0  0  0
 11 16  1  0  0  0  0
 11 12  1  0  0  0  0
 11 48  1  0  0  0  0
 12 13  1  0  0  0  0
 12 35  1  0  0  0  0
 12 36  1  0  0  0  0
 13 14  1  0  0  0  0
 13 37  1  0  0  0  0
 13 38  1  0  0  0  0
 14 15  1  0  0  0  0
 15 16  1  0  0  0  0
 15 39  1  0  0  0  0
 15 40  1  0  0  0  0
 16 41  1  0  0  0  0
 16 42  1  0  0  0  0
 17 18  1  0  0  0  0
 17 43  1  0  0  0  0
 18 23  1  0  0  0  0
 18 19  2  0  0  0  0
 19 20  1  0  0  0  0
 19 44  1  0  0  0  0
 20 21  2  0  0  0  0
 20 45  1  0  0  0  0
 21 22  1  0  0  0  0
 21 49  1  0  0  0  0
 22 23  2  0  0  0  0
 22 46  1  0  0  0  0
 23 47  1  0  0  0  0
M  CHG  1  11   1
M  CHG  1  21   1
M  END
> <s_m_source_file>
AV-unprocessed.smi

> <i_m_source_file_index>
1240

> <i_lp_mmshare_version>
43012

> <i_f3d_flags>
0

> <s_epik_input>
W2NIXTFbY0hdbltjSF1bY0hdYzFbTkhdQyg9TylbTkhdW0NIMl1bQ0BIXShbQ0BASF0yW0NIMl1bQ0gyXU9bQ0gyXTIpTjNbQ0gyXVtDSDJdT1tDSDJdW0NIMl0z

> <s_epik_cmdline>
J2VwaWtfcHl0aG9uJywgJy1waCcsICc3LjAnLCAnLXRuJywgJzgnLCAnLW1hJywgJzIwMCcsICctbWV0YWxfYmluZGluZycsICctaW1hZScsICc8aW5maWxlLm1hZT4nLCAnLW9tYWUnLCAnPG91dGZpbGUubWFlPic=

> <r_epik_Ionization_Penalty>
2.08105

> <r_epik_Ionization_Penalty_Charging>
2.08103

> <r_epik_Ionization_Penalty_Neutral>
2.04144e-05

> <r_epik_State_Penalty>
2.15598

> <r_epik_Charging_Adjusted_Penalty>
4.23701

> <i_epik_Tot_Q>
2

> <i_epik_Tot_abs_Q>
2

> <r_epik_Metal_State_Penalty>
2.25158

> <b_epik_Metal_Only>
0

> <s_lp_Force_Field>
OPLS_2005

> <r_lp_Energy>
50.7828

> <b_lp_Chiralities_Consistent>
1

> <s_lp_Variant>
AV-unprocessed.smi:1240-13

> <Gold.Version>
5.8.1

> <Gold.Id.Protein>
6NUR|6NUR_protein|mol2

> <Gold.PLP.Fitness>
46.7077

> <Gold.PLP.PLP>
-33.3911

> <Gold.PLP.part.hbond>
-4.0000

> <Gold.PLP.part.metal>
0.0000

> <Gold.PLP.part.buried>
-4.8982

> <Gold.PLP.part.nonpolar>
-23.5993

> <Gold.PLP.part.repulsive>
0.2517

> <Gold.PLP.ligand.clash>
0.0000

> <Gold.PLP.ligand.torsion>
0.9778

> <Gold.PLP.Chemscore.Hbond>
5.0000

> <Gold.PLP.Chemscore.CHOScore>
0.0000

> <Gold.PLP.Chemscore.Metal>
0.0000

> <Gold.Chemscore.Hbonds>
donor molecule, donor type, donor heavy atom, donor atom, acceptor molecule, acceptor atom, score
      L1  H     3    24       P1 10747  0.96
      L1  H    17    43       P1 10747  1.00
      L1  H    21    49       P1 10186  2.00
      P1  H  6896  6908       L1     9  1.00

> <Gold.PLP.Chemscore.Internal.Correction>
0.2723

> <Gold.Rescore>
     Score         DG    S(hbond)    S(metal)    S(lipo)     H(rot)  DE(clash)    DE(int)     intcor
     19.75     -22.12       3.45        0.00      81.88       1.74       0.09       2.28       ----

> <Gold.Chemscore.Fitness>
19.7514

> <Gold.Chemscore.DG>
-22.1224

> <Gold.Chemscore.ZeroCoef>
-5.4800

> <Gold.Chemscore.Hbond>
3.4497

> <Gold.Chemscore.Metal>
0.0000

> <Gold.Chemscore.Lipo>
81.8821

> <Gold.Chemscore.Internal_Hbond>
0.0000

> <Gold.Chemscore.DEClash>
0.0916

> <Gold.Chemscore.DEInternal>
2.2794

> <Gold.Chemscore.Rot>
1.7421

> <Gold.Chemscore.Internal.Correction>
   9.000000E+99

> <Gold.Chemscore.Hbonds>
donor molecule, donor type, donor heavy atom, donor atom, acceptor molecule, acceptor atom, score
      L1  H     3    24       P1 10747  0.44
      L1  H    17    43       P1 10747  1.00
      L1  H    21    49       P1 10186  0.97
      P1  H  6896  6908       L1     9  0.82

> <Gold.Chemscore.Hbond.Weighted>
-11.5219

> <Gold.Chemscore.Metal.Weighted>
-0.0000

> <Gold.Chemscore.Lipo.Weighted>
-9.5802

> <Gold.Chemscore.Internal_Hbond.Weighted>
0.0000

> <Gold.Chemscore.DEClash.Weighted>
0.0916

> <Gold.Chemscore.DEInternal.Weighted>
2.2794

> <Gold.Chemscore.Rot.Weighted>
4.4597

> <Gold.Chemscore.Internal.Correction.Weighted>
   9.000000E+99

> <Gold.Protein.RotatedTorsions>
[ 6907 6896 6895 6894 ] final  117.75 input  -60.11 | X-H torsion
[ 7974 7965 7964 7962 ] final  133.57 input  175.53 | X-H torsion
[ 8008 7997 7996 7995 ] final   -9.82 input   59.86 | X-H torsion
[ 10167 10162 10161 10158 ] final  -70.34 input  -65.29 | X-H torsion
[ 10718 10713 10712 10709 ] final -119.02 input   66.30 | X-H torsion
[ 10763 10752 10751 10750 ] final -113.19 input  -60.55 | X-H torsion
[ 11005 11000 10999 10996 ] final  -78.07 input  -57.11 | X-H torsion

> <Gold.Protein.ActiveResidues>
 VAL166  LYS551  ARG553  GLY616  TRP617  ASP618  TYR619  PRO620  LYS621  CYS622 
 ASP623  PHE694  ASN695  SER759  ASP760  ASP761  ALA762  ILE779  LEU786  VAL792 
 PHE793  MET794  SER795  GLU796  ALA797  LYS798  CYS799  TRP800  GLU811  SER814 

> <Gold.Protein.RotatedAtoms>
  152.4590  133.7783  159.6836 H   0  0  0  0  0  0  0  0  0  0  0  0  # atno 6907 bound_to 6896
  150.8527  133.7752  159.3026 H   0  0  0  0  0  0  0  0  0  0  0  0  # atno 6908 bound_to 6896
  151.5343  135.1071  159.9962 H   0  0  0  0  0  0  0  0  0  0  0  0  # atno 6909 bound_to 6896
  144.9851  139.4463  143.5367 H   0  0  0  0  0  0  0  0  0  0  0  0  # atno 7974 bound_to 7965
  154.5611  140.2345  155.8334 H   0  0  0  0  0  0  0  0  0  0  0  0  # atno 8008 bound_to 7997
  156.2030  140.3047  155.9526 H   0  0  0  0  0  0  0  0  0  0  0  0  # atno 8009 bound_to 7997
  155.2888  140.0426  157.3012 H   0  0  0  0  0  0  0  0  0  0  0  0  # atno 8010 bound_to 7997
  140.5360  143.2318  151.7177 H   0  0  0  0  0  0  0  0  0  0  0  0  # atno 10167 bound_to 10162
  156.1149  130.6278  150.9364 H   0  0  0  0  0  0  0  0  0  0  0  0  # atno 10718 bound_to 10713
  154.8385  135.4463  154.1311 H   0  0  0  0  0  0  0  0  0  0  0  0  # atno 10763 bound_to 10752
  153.2521  135.6927  153.7674 H   0  0  0  0  0  0  0  0  0  0  0  0  # atno 10764 bound_to 10752
  153.6982  135.3376  155.3194 H   0  0  0  0  0  0  0  0  0  0  0  0  # atno 10765 bound_to 10752
  141.1663  133.7048  156.7916 H   0  0  0  0  0  0  0  0  0  0  0  0  # atno 11005 bound_to 11000
  146.3418  139.9149  142.8775 LP  0  0  0  0  0  0  0  0  0  0  0  0  # atno 17320 bound_to 7965
  145.2365  140.9993  143.3961 LP  0  0  0  0  0  0  0  0  0  0  0  0  # atno 17321 bound_to 7965
  139.4971  144.4042  152.0149 LP  0  0  0  0  0  0  0  0  0  0  0  0  # atno 17342 bound_to 10162
  140.3148  144.3496  150.6024 LP  0  0  0  0  0  0  0  0  0  0  0  0  # atno 17343 bound_to 10162
  157.6332  131.0919  150.8400 LP  0  0  0  0  0  0  0  0  0  0  0  0  # atno 17370 bound_to 10713
  156.8505  130.5078  149.5312 LP  0  0  0  0  0  0  0  0  0  0  0  0  # atno 17371 bound_to 10713
  140.2321  134.8678  157.3487 LP  0  0  0  0  0  0  0  0  0  0  0  0  # atno 17394 bound_to 11000
  140.1880  134.4407  155.7732 LP  0  0  0  0  0  0  0  0  0  0  0  0  # atno 17395 bound_to 11000

$$$$
