AV-unprocessed.smi:3250|AV-procd|sdf|12431|dock7
  -GOLD-   2272018323D 1   1.00000     0.00000
 Structure written by MMmdl.
 40 41  0  0  0  0  0  0  0  0  3 V2000
  146.4476  142.5080  154.0602 C   0  0  0  0  0  0  0  0  0  0  0  0
  147.1858  141.3648  153.3499 C   0  0  0  0  0  0  0  0  0  0  0  0
  148.1880  140.7043  154.2232 N   0  3  1  0  0  0  0  0  0  0  0  0
  148.8997  139.6050  153.5299 C   0  0  0  0  0  0  0  0  0  0  0  0
  149.8910  138.9204  154.4837 C   0  0  0  0  0  0  0  0  0  0  0  0
  150.8001  139.8867  154.9957 O   0  0  0  0  0  0  0  0  0  0  0  0
  150.1459  140.9004  155.7524 C   0  0  1  0  0  0  0  0  0  0  0  0
  151.2213  141.8429  156.3125 C   0  0  0  0  0  0  0  0  0  0  0  0
  150.6387  143.0363  156.9080 N   0  0  0  0  0  0  0  0  0  0  0  0
  150.9428  143.4878  158.1789 C   0  0  0  0  0  0  0  0  0  0  0  0
  150.3323  144.6036  158.6048 N   0  3  0  0  0  0  0  0  0  0  0  0
  150.5994  145.0866  159.8433 C   0  0  0  0  0  0  0  0  0  0  0  0
  151.5112  144.4226  160.6835 C   0  0  0  0  0  0  0  0  0  0  0  0
  152.1121  143.2587  160.1771 C   0  0  0  0  0  0  0  0  0  0  0  0
  153.0100  142.5615  160.9588 O   0  0  0  0  0  0  0  0  0  0  0  0
  153.6074  141.3877  160.4182 C   0  0  0  0  0  0  0  0  0  0  0  0
  151.8208  142.8107  158.9326 N   0  0  0  0  0  0  0  0  0  0  0  0
  149.1614  141.6472  154.8293 C   0  0  0  0  0  0  0  0  0  0  0  0
  145.6601  142.9092  153.4218 H   0  0  0  0  0  0  0  0  0  0  0  0
  147.1131  143.3344  154.3083 H   0  0  0  0  0  0  0  0  0  0  0  0
  145.9790  142.1621  154.9819 H   0  0  0  0  0  0  0  0  0  0  0  0
  146.4415  140.6285  153.0430 H   0  0  0  0  0  0  0  0  0  0  0  0
  147.6614  141.7228  152.4356 H   0  0  0  0  0  0  0  0  0  0  0  0
  148.1819  138.8715  153.1610 H   0  0  0  0  0  0  0  0  0  0  0  0
  149.4287  140.0014  152.6616 H   0  0  0  0  0  0  0  0  0  0  0  0
  149.3676  138.4235  155.3020 H   0  0  0  0  0  0  0  0  0  0  0  0
  150.4535  138.1526  153.9523 H   0  0  0  0  0  0  0  0  0  0  0  0
  149.5950  140.4478  156.5794 H   0  0  0  0  0  0  0  0  0  0  0  0
  151.8313  141.3207  157.0507 H   0  0  0  0  0  0  0  0  0  0  0  0
  151.8896  142.1578  155.5102 H   0  0  0  0  0  0  0  0  0  0  0  0
  149.9966  143.5862  156.3559 H   0  0  0  0  0  0  0  0  0  0  0  0
  150.0732  145.9882  160.1214 H   0  0  0  0  0  0  0  0  0  0  0  0
  151.7375  144.7895  161.6742 H   0  0  0  0  0  0  0  0  0  0  0  0
  154.2837  140.9548  161.1551 H   0  0  0  0  0  0  0  0  0  0  0  0
  154.1920  141.6122  159.5248 H   0  0  0  0  0  0  0  0  0  0  0  0
  152.8568  140.6340  160.1753 H   0  0  0  0  0  0  0  0  0  0  0  0
  149.7063  142.1655  154.0382 H   0  0  0  0  0  0  0  0  0  0  0  0
  148.6369  142.4086  155.4061 H   0  0  0  0  0  0  0  0  0  0  0  0
  147.6734  140.2764  154.9801 H   0  0  0  0  0  0  0  0  0  0  0  0
  149.6673  145.0979  158.0095 H   0  0  0  0  0  0  0  0  0  0  0  0
  1  2  1  0  0  0  0
  1 19  1  0  0  0  0
  1 20  1  0  0  0  0
  1 21  1  0  0  0  0
  2  3  1  0  0  0  0
  2 22  1  0  0  0  0
  2 23  1  0  0  0  0
  3 18  1  0  0  0  0
  3  4  1  0  0  0  0
  3 39  1  0  0  0  0
  4  5  1  0  0  0  0
  4 24  1  0  0  0  0
  4 25  1  0  0  0  0
  5  6  1  0  0  0  0
  5 26  1  0  0  0  0
  5 27  1  0  0  0  0
  6  7  1  0  0  0  0
  7  8  1  0  0  0  0
  7 18  1  0  0  0  0
  7 28  1  0  0  0  0
  8  9  1  0  0  0  0
  8 29  1  0  0  0  0
  8 30  1  0  0  0  0
  9 10  1  0  0  0  0
  9 31  1  0  0  0  0
 10 17  1  0  0  0  0
 10 11  2  0  0  0  0
 11 12  1  0  0  0  0
 11 40  1  0  0  0  0
 12 13  2  0  0  0  0
 12 32  1  0  0  0  0
 13 14  1  0  0  0  0
 13 33  1  0  0  0  0
 14 15  1  0  0  0  0
 14 17  2  0  0  0  0
 15 16  1  0  0  0  0
 16 34  1  0  0  0  0
 16 35  1  0  0  0  0
 16 36  1  0  0  0  0
 18 37  1  0  0  0  0
 18 38  1  0  0  0  0
M  CHG  1   3   1
M  CHG  1  11   1
M  END
> <s_m_source_file>
AV-unprocessed.smi

> <i_m_source_file_index>
3250

> <i_lp_mmshare_version>
43012

> <i_f3d_flags>
0

> <s_epik_input>
W0NIM11bQ0gyXU4xW0NIMl1bQ0gyXU9bQ0BIXShbQ0gyXTEpW0NIMl1bTkhdYzJuW2NIXVtjSF1jKG4yKU9bQ0gzXQ==

> <s_epik_cmdline>
J2VwaWtfcHl0aG9uJywgJy1waCcsICc3LjAnLCAnLXRuJywgJzgnLCAnLW1hJywgJzIwMCcsICctbWV0YWxfYmluZGluZycsICctaW1hZScsICc8aW5maWxlLm1hZT4nLCAnLW9tYWUnLCAnPG91dGZpbGUubWFlPic=

> <r_lp_tautomer_probability>
0.999985

> <r_epik_Ionization_Penalty>
2.24691

> <r_epik_Ionization_Penalty_Charging>
2.24686

> <r_epik_Ionization_Penalty_Neutral>
4.52111e-05

> <r_epik_State_Penalty>
2.24709

> <r_epik_Charging_Adjusted_Penalty>
4.49395

> <i_epik_Tot_Q>
2

> <i_epik_Tot_abs_Q>
2

> <r_epik_Metal_State_Penalty>
2.26327

> <b_epik_Metal_Only>
0

> <s_lp_Force_Field>
OPLS_2005

> <r_lp_Energy>
18.3796

> <b_lp_Chiralities_Consistent>
1

> <s_lp_Variant>
AV-unprocessed.smi:3250-7

> <Gold.Version>
5.8.1

> <Gold.Id.Protein>
6NUR|6NUR_protein|mol2

> <Gold.PLP.Fitness>
51.4592

> <Gold.PLP.PLP>
-38.4192

> <Gold.PLP.part.hbond>
-3.6866

> <Gold.PLP.part.metal>
0.0000

> <Gold.PLP.part.buried>
-4.0691

> <Gold.PLP.part.nonpolar>
-31.4453

> <Gold.PLP.part.repulsive>
0.3580

> <Gold.PLP.ligand.clash>
0.0000

> <Gold.PLP.ligand.torsion>
0.0917

> <Gold.PLP.Chemscore.Hbond>
4.4000

> <Gold.PLP.Chemscore.CHOScore>
0.0000

> <Gold.PLP.Chemscore.Metal>
0.0000

> <Gold.Chemscore.Hbonds>
donor molecule, donor type, donor heavy atom, donor atom, acceptor molecule, acceptor atom, score
      L1  H     9    31       P1  8028  2.00
      L1  H    11    40       P1  8029  1.49
      P1  H  7989  7998       L1     6  1.00

> <Gold.PLP.Chemscore.Internal.Correction>
0.0235

> <Gold.Rescore>
     Score         DG    S(hbond)    S(metal)    S(lipo)     H(rot)  DE(clash)    DE(int)     intcor
     13.67     -13.83       1.02        0.00      80.71       1.75       0.11       0.05       ----

> <Gold.Chemscore.Fitness>
13.6720

> <Gold.Chemscore.DG>
-13.8331

> <Gold.Chemscore.ZeroCoef>
-5.4800

> <Gold.Chemscore.Hbond>
1.0172

> <Gold.Chemscore.Metal>
0.0000

> <Gold.Chemscore.Lipo>
80.7112

> <Gold.Chemscore.Internal_Hbond>
0.0000

> <Gold.Chemscore.DEClash>
0.1143

> <Gold.Chemscore.DEInternal>
0.0468

> <Gold.Chemscore.Rot>
1.7530

> <Gold.Chemscore.Internal.Correction>
   9.000000E+99

> <Gold.Chemscore.Hbonds>
donor molecule, donor type, donor heavy atom, donor atom, acceptor molecule, acceptor atom, score
      L1  H     9    31       P1  8028  1.00
      L1  H    11    40       P1  8029  0.13
      P1  H  7989  7998       L1     6  0.33

> <Gold.Chemscore.Hbond.Weighted>
-3.3975

> <Gold.Chemscore.Metal.Weighted>
-0.0000

> <Gold.Chemscore.Lipo.Weighted>
-9.4432

> <Gold.Chemscore.Internal_Hbond.Weighted>
0.0000

> <Gold.Chemscore.DEClash.Weighted>
0.1143

> <Gold.Chemscore.DEInternal.Weighted>
0.0468

> <Gold.Chemscore.Rot.Weighted>
4.4876

> <Gold.Chemscore.Internal.Correction.Weighted>
   9.000000E+99

> <Gold.Protein.RotatedTorsions>
[ 6907 6896 6895 6894 ] final -108.00 input  -60.11 | X-H torsion
[ 7974 7965 7964 7962 ] final  115.03 input  175.53 | X-H torsion
[ 8008 7997 7996 7995 ] final  -45.81 input   59.86 | X-H torsion
[ 10167 10162 10161 10158 ] final   71.56 input  -65.29 | X-H torsion
[ 10718 10713 10712 10709 ] final  124.50 input   66.30 | X-H torsion
[ 10763 10752 10751 10750 ] final -113.75 input  -60.55 | X-H torsion
[ 11005 11000 10999 10996 ] final -177.47 input  -57.11 | X-H torsion

> <Gold.Protein.ActiveResidues>
 VAL166  LYS551  ARG553  GLY616  TRP617  ASP618  TYR619  PRO620  LYS621  CYS622 
 ASP623  PHE694  ASN695  SER759  ASP760  ASP761  ALA762  ILE779  LEU786  VAL792 
 PHE793  MET794  SER795  GLU796  ALA797  LYS798  CYS799  TRP800  GLU811  SER814 

> <Gold.Protein.RotatedAtoms>
  150.7476  133.9742  159.3555 H   0  0  0  0  0  0  0  0  0  0  0  0  # atno 6907 bound_to 6896
  151.7678  135.0792  160.0365 H   0  0  0  0  0  0  0  0  0  0  0  0  # atno 6908 bound_to 6896
  152.3359  133.5974  159.5878 H   0  0  0  0  0  0  0  0  0  0  0  0  # atno 6909 bound_to 6896
  145.1971  139.2971  143.4338 H   0  0  0  0  0  0  0  0  0  0  0  0  # atno 7974 bound_to 7965
  154.4003  140.1387  156.3908 H   0  0  0  0  0  0  0  0  0  0  0  0  # atno 8008 bound_to 7997
  155.7916  140.3478  155.5332 H   0  0  0  0  0  0  0  0  0  0  0  0  # atno 8009 bound_to 7997
  155.8574  140.0951  157.1626 H   0  0  0  0  0  0  0  0  0  0  0  0  # atno 8010 bound_to 7997
  140.0447  144.5360  150.7407 H   0  0  0  0  0  0  0  0  0  0  0  0  # atno 10167 bound_to 10162
  157.5580  131.1091  150.8588 H   0  0  0  0  0  0  0  0  0  0  0  0  # atno 10718 bound_to 10713
  154.8410  135.4443  154.1398 H   0  0  0  0  0  0  0  0  0  0  0  0  # atno 10763 bound_to 10752
  153.2586  135.6934  153.7608 H   0  0  0  0  0  0  0  0  0  0  0  0  # atno 10764 bound_to 10752
  153.6894  135.3390  155.3174 H   0  0  0  0  0  0  0  0  0  0  0  0  # atno 10765 bound_to 10752
  140.4406  134.6435  157.4755 H   0  0  0  0  0  0  0  0  0  0  0  0  # atno 11005 bound_to 11000
  146.3425  140.2203  142.8591 LP  0  0  0  0  0  0  0  0  0  0  0  0  # atno 17320 bound_to 7965
  144.9984  140.8610  143.5296 LP  0  0  0  0  0  0  0  0  0  0  0  0  # atno 17321 bound_to 7965
  140.7244  143.2621  151.4170 LP  0  0  0  0  0  0  0  0  0  0  0  0  # atno 17342 bound_to 10162
  139.5991  144.1334  152.2178 LP  0  0  0  0  0  0  0  0  0  0  0  0  # atno 17343 bound_to 10162
  156.9094  130.5275  149.5280 LP  0  0  0  0  0  0  0  0  0  0  0  0  # atno 17370 bound_to 10713
  156.0636  130.5684  150.9243 LP  0  0  0  0  0  0  0  0  0  0  0  0  # atno 17371 bound_to 10713
  140.0072  134.6745  155.9436 LP  0  0  0  0  0  0  0  0  0  0  0  0  # atno 17394 bound_to 11000
  141.1707  133.6537  156.4641 LP  0  0  0  0  0  0  0  0  0  0  0  0  # atno 17395 bound_to 11000

$$$$
