AV-unprocessed.smi:872|AV-procd|sdf|4012|dock1
  -GOLD-   22720 1503D 1   1.00000     0.00000
 Structure written by MMmdl.
 26 27  0  0  0  0  0  0  0  0  2 V2000
  152.9058  137.3763  155.8332 O   0  0  0  0  0  0  0  0  0  0  0  0
  152.0719  137.8503  155.0300 C   0  0  0  0  0  0  0  0  0  0  0  0
  151.7695  137.2750  153.9609 O   0  5  0  0  0  0  0  0  0  0  0  0
  151.4095  139.1580  155.3610 C   0  0  0  0  0  0  0  0  0  0  0  0
  150.4037  139.7009  154.5288 C   0  0  0  0  0  0  0  0  0  0  0  0
  149.7760  140.8703  154.7798 N   0  0  0  0  0  0  0  0  0  0  0  0
  150.1323  141.5543  155.8869 C   0  0  0  0  0  0  0  0  0  0  0  0
  151.1213  141.1132  156.7900 C   0  0  0  0  0  0  0  0  0  0  0  0
  151.4283  141.8877  157.9181 N   0  0  0  0  0  0  0  0  0  0  0  0
  152.5898  141.4011  158.6518 C   0  0  0  0  0  0  0  0  0  0  0  0
  152.7873  142.2299  159.9331 C   0  0  0  0  0  0  0  0  0  0  0  0
  152.8971  143.6107  159.5985 O   0  0  0  0  0  0  0  0  0  0  0  0
  151.7282  144.0970  158.9440 C   0  0  0  0  0  0  0  0  0  0  0  0
  151.5046  143.3159  157.6373 C   0  0  0  0  0  0  0  0  0  0  0  0
  151.7704  139.8878  156.5157 C   0  0  0  0  0  0  0  0  0  0  0  0
  150.0845  139.1901  153.6320 H   0  0  0  0  0  0  0  0  0  0  0  0
  149.6099  142.4845  156.0571 H   0  0  0  0  0  0  0  0  0  0  0  0
  152.4543  140.3486  158.9037 H   0  0  0  0  0  0  0  0  0  0  0  0
  153.4808  141.4716  158.0262 H   0  0  0  0  0  0  0  0  0  0  0  0
  151.9582  142.0778  160.6259 H   0  0  0  0  0  0  0  0  0  0  0  0
  153.6953  141.9156  160.4479 H   0  0  0  0  0  0  0  0  0  0  0  0
  150.8644  144.0052  159.6044 H   0  0  0  0  0  0  0  0  0  0  0  0
  151.8556  145.1583  158.7309 H   0  0  0  0  0  0  0  0  0  0  0  0
  152.3229  143.5162  156.9444 H   0  0  0  0  0  0  0  0  0  0  0  0
  150.5842  143.6481  157.1552 H   0  0  0  0  0  0  0  0  0  0  0  0
  152.5327  139.5181  157.1862 H   0  0  0  0  0  0  0  0  0  0  0  0
  1  2  2  0  0  0  0
  2  3  1  0  0  0  0
  2  4  1  0  0  0  0
  4 15  1  0  0  0  0
  4  5  2  0  0  0  0
  5  6  1  0  0  0  0
  5 16  1  0  0  0  0
  6  7  2  0  0  0  0
  7  8  1  0  0  0  0
  7 17  1  0  0  0  0
  8  9  1  0  0  0  0
  8 15  2  0  0  0  0
  9 14  1  0  0  0  0
  9 10  1  0  0  0  0
 10 11  1  0  0  0  0
 10 18  1  0  0  0  0
 10 19  1  0  0  0  0
 11 12  1  0  0  0  0
 11 20  1  0  0  0  0
 11 21  1  0  0  0  0
 12 13  1  0  0  0  0
 13 14  1  0  0  0  0
 13 22  1  0  0  0  0
 13 23  1  0  0  0  0
 14 24  1  0  0  0  0
 14 25  1  0  0  0  0
 15 26  1  0  0  0  0
M  CHG  1   3  -1
M  END
> <s_m_source_file>
AV-unprocessed.smi

> <i_m_source_file_index>
872

> <i_lp_mmshare_version>
43012

> <i_f3d_flags>
0

> <s_epik_input>
Tz1DKFtPSF0pYzFbY0hdbltjSF1jKFtjSF0xKU4yW0NIMl1bQ0gyXU9bQ0gyXVtDSDJdMg==

> <s_epik_cmdline>
J2VwaWtfcHl0aG9uJywgJy1waCcsICc3LjAnLCAnLXRuJywgJzgnLCAnLW1hJywgJzIwMCcsICctbWV0YWxfYmluZGluZycsICctaW1hZScsICc8aW5maWxlLm1hZT4nLCAnLW9tYWUnLCAnPG91dGZpbGUubWFlPic=

> <r_epik_Ionization_Penalty>
0.0365058

> <r_epik_Ionization_Penalty_Charging>
0.000173346

> <r_epik_Ionization_Penalty_Neutral>
0.0363324

> <r_epik_State_Penalty>
0.0303445

> <r_epik_Charging_Adjusted_Penalty>
0.0305178

> <i_epik_Tot_Q>
-1

> <i_epik_Tot_abs_Q>
1

> <r_epik_Metal_State_Penalty>
3.11342e-05

> <b_epik_Metal_Only>
0

> <s_lp_Force_Field>
OPLS_2005

> <r_lp_Energy>
23.1788

> <b_lp_Chiralities_Consistent>
1

> <s_lp_Variant>
AV-unprocessed.smi:872-1

> <Gold.Version>
5.8.1

> <Gold.Id.Protein>
6NUR|6NUR_protein|mol2

> <Gold.PLP.Fitness>
40.8926

> <Gold.PLP.PLP>
-29.2272

> <Gold.PLP.part.hbond>
-3.0000

> <Gold.PLP.part.metal>
0.0000

> <Gold.PLP.part.buried>
-2.3377

> <Gold.PLP.part.nonpolar>
-26.1131

> <Gold.PLP.part.repulsive>
2.2725

> <Gold.PLP.ligand.clash>
0.2525

> <Gold.PLP.ligand.torsion>
0.3109

> <Gold.PLP.Chemscore.Hbond>
2.1618

> <Gold.PLP.Chemscore.CHOScore>
1.9852

> <Gold.PLP.Chemscore.Metal>
0.0000

> <Gold.Chemscore.Hbonds>
donor molecule, donor type, donor heavy atom, donor atom, acceptor molecule, acceptor atom, score
      P1  H 10752 10764       L1     3  1.81
      P1  H 10752 10765       L1     1  0.21
      L1  C     5    16       P1  7957  0.70
      L1  C     7    17       P1  8028  1.00

> <Gold.PLP.Chemscore.Internal.Correction>
0.0986

> <Gold.Rescore>
     Score         DG    S(hbond)    S(metal)    S(lipo)     H(rot)  DE(clash)    DE(int)     intcor
     13.69     -14.33       0.70        0.00      77.62       1.00       0.17       0.47       ----

> <Gold.Chemscore.Fitness>
13.6903

> <Gold.Chemscore.DG>
-14.3300

> <Gold.Chemscore.ZeroCoef>
-5.4800

> <Gold.Chemscore.Hbond>
0.6970

> <Gold.Chemscore.Metal>
0.0000

> <Gold.Chemscore.Lipo>
77.6237

> <Gold.Chemscore.Internal_Hbond>
0.0000

> <Gold.Chemscore.DEClash>
0.1659

> <Gold.Chemscore.DEInternal>
0.4738

> <Gold.Chemscore.Rot>
1.0000

> <Gold.Chemscore.Internal.Correction>
   9.000000E+99

> <Gold.Chemscore.Hbonds>
donor molecule, donor type, donor heavy atom, donor atom, acceptor molecule, acceptor atom, score
      P1  H 10752 10764       L1     3  0.33
      P1  H 10752 10765       L1     1  0.11

> <Gold.Chemscore.Hbond.Weighted>
-2.3280

> <Gold.Chemscore.Metal.Weighted>
-0.0000

> <Gold.Chemscore.Lipo.Weighted>
-9.0820

> <Gold.Chemscore.Internal_Hbond.Weighted>
0.0000

> <Gold.Chemscore.DEClash.Weighted>
0.1659

> <Gold.Chemscore.DEInternal.Weighted>
0.4738

> <Gold.Chemscore.Rot.Weighted>
2.5600

> <Gold.Chemscore.Internal.Correction.Weighted>
   9.000000E+99

> <Gold.Protein.RotatedTorsions>
[ 6907 6896 6895 6894 ] final   -0.05 input  -60.11 | X-H torsion
[ 7974 7965 7964 7962 ] final -147.87 input  175.53 | X-H torsion
[ 8008 7997 7996 7995 ] final   13.81 input   59.86 | X-H torsion
[ 10167 10162 10161 10158 ] final  -12.73 input  -65.29 | X-H torsion
[ 10718 10713 10712 10709 ] final  157.89 input   66.30 | X-H torsion
[ 10763 10752 10751 10750 ] final -104.59 input  -60.55 | X-H torsion
[ 11005 11000 10999 10996 ] final   91.19 input  -57.11 | X-H torsion

> <Gold.Protein.ActiveResidues>
 VAL166  LYS551  ARG553  GLY616  TRP617  ASP618  TYR619  PRO620  LYS621  CYS622 
 ASP623  PHE694  ASN695  SER759  ASP760  ASP761  ALA762  ILE779  LEU786  VAL792 
 PHE793  MET794  SER795  GLU796  ALA797  LYS798  CYS799  TRP800  GLU811  SER814 

> <Gold.Protein.RotatedAtoms>
  151.5686  135.1063  159.9989 H   0  0  0  0  0  0  0  0  0  0  0  0  # atno 6907 bound_to 6896
  152.4412  133.7447  159.6671 H   0  0  0  0  0  0  0  0  0  0  0  0  # atno 6908 bound_to 6896
  150.8318  133.8010  159.3119 H   0  0  0  0  0  0  0  0  0  0  0  0  # atno 6909 bound_to 6896
  144.8065  140.5271  143.5671 H   0  0  0  0  0  0  0  0  0  0  0  0  # atno 7974 bound_to 7965
  154.8396  140.2912  155.5668 H   0  0  0  0  0  0  0  0  0  0  0  0  # atno 8008 bound_to 7997
  156.3011  140.2516  156.3268 H   0  0  0  0  0  0  0  0  0  0  0  0  # atno 8009 bound_to 7997
  154.9140  140.0388  157.1951 H   0  0  0  0  0  0  0  0  0  0  0  0  # atno 8010 bound_to 7997
  140.7167  143.5501  150.9311 H   0  0  0  0  0  0  0  0  0  0  0  0  # atno 10167 bound_to 10162
  157.1853  131.0642  151.2109 H   0  0  0  0  0  0  0  0  0  0  0  0  # atno 10718 bound_to 10713
  154.7889  135.4780  154.0007 H   0  0  0  0  0  0  0  0  0  0  0  0  # atno 10763 bound_to 10752
  153.1601  135.6807  153.8762 H   0  0  0  0  0  0  0  0  0  0  0  0  # atno 10764 bound_to 10752
  153.8379  135.3183  155.3402 H   0  0  0  0  0  0  0  0  0  0  0  0  # atno 10765 bound_to 10752
  139.8843  134.8659  156.3392 H   0  0  0  0  0  0  0  0  0  0  0  0  # atno 11005 bound_to 11000
  145.5425  139.1475  143.3439 LP  0  0  0  0  0  0  0  0  0  0  0  0  # atno 17320 bound_to 7965
  146.2358  140.5564  142.8955 LP  0  0  0  0  0  0  0  0  0  0  0  0  # atno 17321 bound_to 7965
  139.9225  143.6589  152.3094 LP  0  0  0  0  0  0  0  0  0  0  0  0  # atno 17342 bound_to 10162
  139.7011  144.7635  151.1272 LP  0  0  0  0  0  0  0  0  0  0  0  0  # atno 17343 bound_to 10162
  157.3913  130.7283  149.6699 LP  0  0  0  0  0  0  0  0  0  0  0  0  # atno 17370 bound_to 10713
  155.9719  130.4146  150.4139 LP  0  0  0  0  0  0  0  0  0  0  0  0  # atno 17371 bound_to 10713
  140.9670  133.7352  156.0481 LP  0  0  0  0  0  0  0  0  0  0  0  0  # atno 17394 bound_to 11000
  140.7919  134.3608  157.5462 LP  0  0  0  0  0  0  0  0  0  0  0  0  # atno 17395 bound_to 11000

$$$$
