AV-unprocessed.smi:2168|AV-procd|sdf|8821|dock7
  -GOLD-   2272012 13D 1   1.00000     0.00000
 Structure written by MMmdl.
 46 47  0  0  0  0  0  0  0  0  3 V2000
  147.2230  134.8293  163.0438 C   0  0  0  0  0  0  0  0  0  0  0  0
  146.8961  135.5982  161.7533 C   0  0  0  0  0  0  0  0  0  0  0  0
  147.6677  135.1249  160.5860 N   0  0  0  0  0  0  0  0  0  0  0  0
  147.6418  133.6739  160.3119 C   0  0  0  0  0  0  0  0  0  0  0  0
  146.2688  133.0364  160.5739 C   0  0  0  0  0  0  0  0  0  0  0  0
  148.2089  136.2419  159.3638 S   0  0  0  0  0  0  0  0  0  0  0  0
  147.4464  137.4842  159.5714 O   0  0  0  0  0  0  0  0  0  0  0  0
  149.6748  136.3069  159.4824 O   0  0  0  0  0  0  0  0  0  0  0  0
  147.7161  135.3927  158.0749 N   0  5  0  0  0  0  0  0  0  0  0  0
  146.3033  135.3422  157.7595 C   0  0  0  0  0  0  0  0  0  0  0  0
  146.0853  134.8783  156.3284 C   0  0  0  0  0  0  0  0  0  0  0  0
  146.9611  135.2777  155.2942 C   0  0  0  0  0  0  0  0  0  0  0  0
  146.7430  134.8148  153.9796 C   0  0  0  0  0  0  0  0  0  0  0  0
  145.6498  133.9548  153.7027 C   0  0  0  0  0  0  0  0  0  0  0  0
  145.3634  133.4321  152.4211 N   0  0  0  0  0  0  0  0  0  0  0  0
  146.3813  133.5569  151.3810 C   0  0  0  0  0  0  0  0  0  0  0  0
  146.0368  132.6678  150.1743 C   0  0  0  0  0  0  0  0  0  0  0  0
  144.7243  132.9677  149.7150 O   0  0  0  0  0  0  0  0  0  0  0  0
  143.7453  132.6930  150.7098 C   0  0  0  0  0  0  0  0  0  0  0  0
  143.9906  133.5838  151.9390 C   0  0  0  0  0  0  0  0  0  0  0  0
  144.8402  133.6034  154.7317 N   0  3  0  0  0  0  0  0  0  0  0  0
  145.0118  134.0209  156.0053 C   0  0  0  0  0  0  0  0  0  0  0  0
  146.6884  135.2594  163.8905 H   0  0  0  0  0  0  0  0  0  0  0  0
  148.2864  134.8566  163.2776 H   0  0  0  0  0  0  0  0  0  0  0  0
  146.9247  133.7836  162.9720 H   0  0  0  0  0  0  0  0  0  0  0  0
  145.8333  135.4993  161.5319 H   0  0  0  0  0  0  0  0  0  0  0  0
  147.0747  136.6634  161.9024 H   0  0  0  0  0  0  0  0  0  0  0  0
  147.9324  133.4941  159.2774 H   0  0  0  0  0  0  0  0  0  0  0  0
  148.3973  133.1853  160.9277 H   0  0  0  0  0  0  0  0  0  0  0  0
  146.2809  131.9818  160.2990 H   0  0  0  0  0  0  0  0  0  0  0  0
  145.4837  133.5171  159.9910 H   0  0  0  0  0  0  0  0  0  0  0  0
  145.9931  133.0919  161.6266 H   0  0  0  0  0  0  0  0  0  0  0  0
  145.7630  134.6654  158.4223 H   0  0  0  0  0  0  0  0  0  0  0  0
  145.8265  136.3156  157.8783 H   0  0  0  0  0  0  0  0  0  0  0  0
  147.8024  135.9284  155.4913 H   0  0  0  0  0  0  0  0  0  0  0  0
  147.4242  135.1370  153.2074 H   0  0  0  0  0  0  0  0  0  0  0  0
  146.4538  134.6005  151.0721 H   0  0  0  0  0  0  0  0  0  0  0  0
  147.3568  133.2558  151.7632 H   0  0  0  0  0  0  0  0  0  0  0  0
  146.7454  132.8436  149.3650 H   0  0  0  0  0  0  0  0  0  0  0  0
  146.1098  131.6109  150.4360 H   0  0  0  0  0  0  0  0  0  0  0  0
  142.7555  132.8881  150.2974 H   0  0  0  0  0  0  0  0  0  0  0  0
  143.7729  131.6367  150.9826 H   0  0  0  0  0  0  0  0  0  0  0  0
  143.2632  133.3211  152.7069 H   0  0  0  0  0  0  0  0  0  0  0  0
  143.8218  134.6302  151.6819 H   0  0  0  0  0  0  0  0  0  0  0  0
  144.2893  133.6459  156.7174 H   0  0  0  0  0  0  0  0  0  0  0  0
  144.0581  132.9787  154.5370 H   0  0  0  0  0  0  0  0  0  0  0  0
  1  2  1  0  0  0  0
  1 23  1  0  0  0  0
  1 24  1  0  0  0  0
  1 25  1  0  0  0  0
  2  3  1  0  0  0  0
  2 26  1  0  0  0  0
  2 27  1  0  0  0  0
  3  4  1  0  0  0  0
  3  6  1  0  0  0  0
  4  5  1  0  0  0  0
  4 28  1  0  0  0  0
  4 29  1  0  0  0  0
  5 30  1  0  0  0  0
  5 31  1  0  0  0  0
  5 32  1  0  0  0  0
  6  7  2  0  0  0  0
  6  8  2  0  0  0  0
  6  9  1  0  0  0  0
  9 10  1  0  0  0  0
 10 11  1  0  0  0  0
 10 33  1  0  0  0  0
 10 34  1  0  0  0  0
 11 22  1  0  0  0  0
 11 12  2  0  0  0  0
 12 13  1  0  0  0  0
 12 35  1  0  0  0  0
 13 14  2  0  0  0  0
 13 36  1  0  0  0  0
 14 15  1  0  0  0  0
 14 21  1  0  0  0  0
 15 20  1  0  0  0  0
 15 16  1  0  0  0  0
 16 17  1  0  0  0  0
 16 37  1  0  0  0  0
 16 38  1  0  0  0  0
 17 18  1  0  0  0  0
 17 39  1  0  0  0  0
 17 40  1  0  0  0  0
 18 19  1  0  0  0  0
 19 20  1  0  0  0  0
 19 41  1  0  0  0  0
 19 42  1  0  0  0  0
 20 43  1  0  0  0  0
 20 44  1  0  0  0  0
 21 22  2  0  0  0  0
 21 46  1  0  0  0  0
 22 45  1  0  0  0  0
M  CHG  1   9  -1
M  CHG  1  21   1
M  END
> <s_m_source_file>
AV-unprocessed.smi

> <i_m_source_file_index>
2168

> <i_lp_mmshare_version>
43012

> <i_f3d_flags>
0

> <s_epik_input>
W0NIM11bQ0gyXU4oW0NIMl1bQ0gzXSlTKD1PKSg9TylbTkhdW0NIMl1jMVtjSF1bY0hdYyhuW2NIXTEpTjJbQ0gyXVtDSDJdT1tDSDJdW0NIMl0y

> <s_epik_cmdline>
J2VwaWtfcHl0aG9uJywgJy1waCcsICc3LjAnLCAnLXRuJywgJzgnLCAnLW1hJywgJzIwMCcsICctbWV0YWxfYmluZGluZycsICctaW1hZScsICc8aW5maWxlLm1hZT4nLCAnLW9tYWUnLCAnPG91dGZpbGUubWFlPic=

> <r_lp_tautomer_probability>
0.999994

> <r_epik_Ionization_Penalty>
2.67026

> <r_epik_Ionization_Penalty_Charging>
2.67026

> <r_epik_Ionization_Penalty_Neutral>
4.07977e-08

> <r_epik_State_Penalty>
4.05768

> <r_epik_Charging_Adjusted_Penalty>
6.72795

> <i_epik_Tot_Q>
0

> <i_epik_Tot_abs_Q>
2

> <r_epik_Metal_State_Penalty>
2.91237

> <b_epik_Metal_Only>
1

> <s_lp_Force_Field>
OPLS_2005

> <r_lp_Energy>
13.0843

> <b_lp_Chiralities_Consistent>
1

> <s_lp_Variant>
AV-unprocessed.smi:2168-4

> <Gold.Version>
5.8.1

> <Gold.Id.Protein>
6NUR|6NUR_protein|mol2

> <Gold.PLP.Fitness>
39.1614

> <Gold.PLP.PLP>
-29.6690

> <Gold.PLP.part.hbond>
-3.0000

> <Gold.PLP.part.metal>
0.0000

> <Gold.PLP.part.buried>
-5.0346

> <Gold.PLP.part.nonpolar>
-22.1805

> <Gold.PLP.part.repulsive>
0.2926

> <Gold.PLP.ligand.clash>
0.0000

> <Gold.PLP.ligand.torsion>
2.6651

> <Gold.PLP.Chemscore.Hbond>
3.6560

> <Gold.PLP.Chemscore.CHOScore>
0.0000

> <Gold.PLP.Chemscore.Metal>
0.0000

> <Gold.Chemscore.Hbonds>
donor molecule, donor type, donor heavy atom, donor atom, acceptor molecule, acceptor atom, score
      L1  H    21    46       P1 10957  2.00
      P1  H  6896  6908       L1     8  1.00
      P1  H  6934  6947       L1     7  0.74

> <Gold.PLP.Chemscore.Internal.Correction>
3.8545

> <Gold.Rescore>
     Score         DG    S(hbond)    S(metal)    S(lipo)     H(rot)  DE(clash)    DE(int)     intcor
     15.23     -17.71       2.87        0.00      60.09       1.72       0.03       2.46       ----

> <Gold.Chemscore.Fitness>
15.2257

> <Gold.Chemscore.DG>
-17.7095

> <Gold.Chemscore.ZeroCoef>
-5.4800

> <Gold.Chemscore.Hbond>
2.8719

> <Gold.Chemscore.Metal>
0.0000

> <Gold.Chemscore.Lipo>
60.0853

> <Gold.Chemscore.Internal_Hbond>
0.0000

> <Gold.Chemscore.DEClash>
0.0253

> <Gold.Chemscore.DEInternal>
2.4586

> <Gold.Chemscore.Rot>
1.7159

> <Gold.Chemscore.Internal.Correction>
   9.000000E+99

> <Gold.Chemscore.Hbonds>
donor molecule, donor type, donor heavy atom, donor atom, acceptor molecule, acceptor atom, score
      L1  H    21    46       P1 10957  1.00
      P1  H  6896  6908       L1     8  1.00
      P1  H  6934  6947       L1     7  0.70

> <Gold.Chemscore.Hbond.Weighted>
-9.5921

> <Gold.Chemscore.Metal.Weighted>
-0.0000

> <Gold.Chemscore.Lipo.Weighted>
-7.0300

> <Gold.Chemscore.Internal_Hbond.Weighted>
0.0000

> <Gold.Chemscore.DEClash.Weighted>
0.0253

> <Gold.Chemscore.DEInternal.Weighted>
2.4586

> <Gold.Chemscore.Rot.Weighted>
4.3926

> <Gold.Chemscore.Internal.Correction.Weighted>
   9.000000E+99

> <Gold.Protein.RotatedTorsions>
[ 6907 6896 6895 6894 ] final -170.30 input  -60.11 | X-H torsion
[ 7974 7965 7964 7962 ] final  -68.36 input  175.53 | X-H torsion
[ 8008 7997 7996 7995 ] final  -35.98 input   59.86 | X-H torsion
[ 10167 10162 10161 10158 ] final  -97.12 input  -65.29 | X-H torsion
[ 10718 10713 10712 10709 ] final  -82.96 input   66.30 | X-H torsion
[ 10763 10752 10751 10750 ] final   90.86 input  -60.55 | X-H torsion
[ 11005 11000 10999 10996 ] final   33.52 input  -57.11 | X-H torsion

> <Gold.Protein.ActiveResidues>
 VAL166  LYS551  ARG553  GLY616  TRP617  ASP618  TYR619  PRO620  LYS621  CYS622 
 ASP623  PHE694  ASN695  SER759  ASP760  ASP761  ALA762  ILE779  LEU786  VAL792 
 PHE793  MET794  SER795  GLU796  ALA797  LYS798  CYS799  TRP800  GLU811  SER814 

> <Gold.Protein.RotatedAtoms>
  151.5056  133.3495  159.2875 H   0  0  0  0  0  0  0  0  0  0  0  0  # atno 6907 bound_to 6896
  150.8745  134.8127  159.7190 H   0  0  0  0  0  0  0  0  0  0  0  0  # atno 6908 bound_to 6896
  152.4721  134.4944  159.9757 H   0  0  0  0  0  0  0  0  0  0  0  0  # atno 6909 bound_to 6896
  145.7175  140.9053  143.0648 H   0  0  0  0  0  0  0  0  0  0  0  0  # atno 7974 bound_to 7965
  154.4083  140.1643  156.2300 H   0  0  0  0  0  0  0  0  0  0  0  0  # atno 8008 bound_to 7997
  155.9291  140.3416  155.6211 H   0  0  0  0  0  0  0  0  0  0  0  0  # atno 8009 bound_to 7997
  155.7128  140.0759  157.2354 H   0  0  0  0  0  0  0  0  0  0  0  0  # atno 8010 bound_to 7997
  140.2867  143.3247  152.0387 H   0  0  0  0  0  0  0  0  0  0  0  0  # atno 10167 bound_to 10162
  156.0025  130.4650  150.4184 H   0  0  0  0  0  0  0  0  0  0  0  0  # atno 10718 bound_to 10713
  153.2020  135.4418  155.0278 H   0  0  0  0  0  0  0  0  0  0  0  0  # atno 10763 bound_to 10752
  154.8152  135.3312  154.7197 H   0  0  0  0  0  0  0  0  0  0  0  0  # atno 10764 bound_to 10752
  153.7642  135.6989  153.4975 H   0  0  0  0  0  0  0  0  0  0  0  0  # atno 10765 bound_to 10752
  140.2623  134.3178  155.7854 H   0  0  0  0  0  0  0  0  0  0  0  0  # atno 11005 bound_to 11000
  144.6925  139.9157  143.7465 LP  0  0  0  0  0  0  0  0  0  0  0  0  # atno 17320 bound_to 7965
  146.0656  139.3647  143.0554 LP  0  0  0  0  0  0  0  0  0  0  0  0  # atno 17321 bound_to 7965
  139.4948  144.6554  151.6584 LP  0  0  0  0  0  0  0  0  0  0  0  0  # atno 17342 bound_to 10162
  140.5767  144.0017  150.6245 LP  0  0  0  0  0  0  0  0  0  0  0  0  # atno 17343 bound_to 10162
  157.2242  131.0489  151.2529 LP  0  0  0  0  0  0  0  0  0  0  0  0  # atno 17370 bound_to 10713
  157.3772  130.7212  149.6605 LP  0  0  0  0  0  0  0  0  0  0  0  0  # atno 17371 bound_to 10713
  141.2189  133.7417  156.9205 LP  0  0  0  0  0  0  0  0  0  0  0  0  # atno 17394 bound_to 11000
  140.1453  134.9266  157.2521 LP  0  0  0  0  0  0  0  0  0  0  0  0  # atno 17395 bound_to 11000

$$$$
