AV-unprocessed.smi:49|AV-procd|sdf|480|dock7
  -GOLD-   2262016343D 1   1.00000     0.00000
 Structure written by MMmdl.
 28 29  0  0  0  0  0  0  0  0  2 V2000
  152.1610  144.4197  157.7915 C   0  0  0  0  0  0  0  0  0  0  0  0
  151.3886  143.2174  158.3451 C   0  0  0  0  0  0  0  0  0  0  0  0
  151.0328  142.2263  157.2861 C   0  0  0  0  0  0  0  0  0  0  0  0
  150.1430  142.5044  156.3222 N   0  0  0  0  0  0  0  0  0  0  0  0
  150.1020  141.3678  155.6115 C   0  0  0  0  0  0  0  0  0  0  0  0
  149.2241  141.2318  154.4031 C   0  0  1  0  0  0  0  0  0  0  0  0
  148.1961  140.1004  154.4739 C   0  0  0  0  0  0  0  0  0  0  0  0
  147.0412  140.6626  153.6505 C   0  0  1  0  0  0  0  0  0  0  0  0
  145.8117  140.0458  153.9679 O   0  0  0  0  0  0  0  0  0  0  0  0
  147.0499  142.1537  154.0067 C   0  0  0  0  0  0  0  0  0  0  0  0
  148.4505  142.4898  154.3336 N   0  3  0  0  0  0  0  0  0  0  0  0
  150.9193  140.4232  156.0939 N   0  0  0  0  0  0  0  0  0  0  0  0
  151.5262  140.9876  157.2019 N   0  0  0  0  0  0  0  0  0  0  0  0
  149.8288  141.1438  153.4991 H   0  0  0  0  0  0  0  0  0  0  0  0
  147.2505  140.5345  152.5875 H   0  0  0  0  0  0  0  0  0  0  0  0
  149.6326  143.3625  156.1709 H   0  0  0  0  0  0  0  0  0  0  0  0
  152.4034  145.1247  158.5869 H   0  0  0  0  0  0  0  0  0  0  0  0
  151.5748  144.9524  157.0421 H   0  0  0  0  0  0  0  0  0  0  0  0
  153.0961  144.1075  157.3259 H   0  0  0  0  0  0  0  0  0  0  0  0
  151.9783  142.7199  159.1162 H   0  0  0  0  0  0  0  0  0  0  0  0
  150.4715  143.5573  158.8275 H   0  0  0  0  0  0  0  0  0  0  0  0
  148.5786  139.1485  154.1046 H   0  0  0  0  0  0  0  0  0  0  0  0
  147.8697  139.9547  155.5055 H   0  0  0  0  0  0  0  0  0  0  0  0
  145.1217  140.4735  153.4833 H   0  0  0  0  0  0  0  0  0  0  0  0
  146.6622  142.7783  153.2017 H   0  0  0  0  0  0  0  0  0  0  0  0
  146.4478  142.3413  154.8971 H   0  0  0  0  0  0  0  0  0  0  0  0
  148.4758  142.9477  155.2342 H   0  0  0  0  0  0  0  0  0  0  0  0
  148.8467  143.0972  153.6309 H   0  0  0  0  0  0  0  0  0  0  0  0
  1  2  1  0  0  0  0
  1 17  1  0  0  0  0
  1 18  1  0  0  0  0
  1 19  1  0  0  0  0
  2 20  1  0  0  0  0
  2 21  1  0  0  0  0
  2  3  1  0  0  0  0
  3  4  1  0  0  0  0
  3 13  2  0  0  0  0
  4 16  1  0  0  0  0
  4  5  1  0  0  0  0
  5 12  2  0  0  0  0
  5  6  1  0  0  0  0
  6 14  1  0  0  0  0
  6 11  1  0  0  0  0
  6  7  1  0  0  0  0
  7  8  1  0  0  0  0
  7 22  1  0  0  0  0
  7 23  1  0  0  0  0
  8 15  1  0  0  0  0
  8  9  1  0  0  0  0
  8 10  1  0  0  0  0
  9 24  1  0  0  0  0
 10 11  1  0  0  0  0
 10 25  1  0  0  0  0
 10 26  1  0  0  0  0
 11 27  1  0  0  0  0
 11 28  1  0  0  0  0
 12 13  1  0  0  0  0
M  CHG  1  11   1
M  END
> <s_m_source_file>
AV-unprocessed.smi

> <i_m_source_file_index>
49

> <i_lp_mmshare_version>
43012

> <i_f3d_flags>
0

> <s_epik_input>
W0NIM11bQ0gyXWMxbmMobltuSF0xKVtDQEBIXTJbQ0gyXVtDQEBIXShbT0hdKVtDSDJdW05IXTI=

> <s_epik_cmdline>
J2VwaWtfcHl0aG9uJywgJy1waCcsICc3LjAnLCAnLXRuJywgJzgnLCAnLW1hJywgJzIwMCcsICctbWV0YWxfYmluZGluZycsICctaW1hZScsICc8aW5maWxlLm1hZT4nLCAnLW9tYWUnLCAnPG91dGZpbGUubWFlPic=

> <r_lp_tautomer_probability>
0.0517155

> <r_epik_Ionization_Penalty>
0.939819

> <r_epik_Ionization_Penalty_Charging>
0.0688988

> <r_epik_Ionization_Penalty_Neutral>
0.87092

> <r_epik_State_Penalty>
2.1224

> <r_epik_Charging_Adjusted_Penalty>
2.1913

> <i_epik_Tot_Q>
1

> <i_epik_Tot_abs_Q>
1

> <r_epik_Metal_State_Penalty>
2.39725

> <b_epik_Metal_Only>
0

> <s_lp_Force_Field>
OPLS_2005

> <r_lp_Energy>
21.0642

> <b_lp_Chiralities_Consistent>
1

> <s_lp_Variant>
AV-unprocessed.smi:49-18

> <Gold.Version>
5.8.1

> <Gold.Id.Protein>
6NUR|6NUR_protein|mol2

> <Gold.PLP.Fitness>
36.6484

> <Gold.PLP.PLP>
-27.6119

> <Gold.PLP.part.hbond>
-3.0000

> <Gold.PLP.part.metal>
0.0000

> <Gold.PLP.part.buried>
-4.9846

> <Gold.PLP.part.nonpolar>
-21.1984

> <Gold.PLP.part.repulsive>
1.7276

> <Gold.PLP.ligand.clash>
0.0000

> <Gold.PLP.ligand.torsion>
0.0720

> <Gold.PLP.Chemscore.Hbond>
3.0560

> <Gold.PLP.Chemscore.CHOScore>
0.0000

> <Gold.PLP.Chemscore.Metal>
0.0000

> <Gold.Chemscore.Hbonds>
donor molecule, donor type, donor heavy atom, donor atom, acceptor molecule, acceptor atom, score
      L1  H     4    16       P1  8028  1.00
      L1  H     9    24       P1 10175  1.00
      L1  H    11    27       P1  8028  1.15

> <Gold.PLP.Chemscore.Internal.Correction>
0.0125

> <Gold.Rescore>
     Score         DG    S(hbond)    S(metal)    S(lipo)     H(rot)  DE(clash)    DE(int)     intcor
     14.57     -15.92       2.73        0.00      52.71       1.89       1.32       0.03       ----

> <Gold.Chemscore.Fitness>
14.5688

> <Gold.Chemscore.DG>
-15.9245

> <Gold.Chemscore.ZeroCoef>
-5.4800

> <Gold.Chemscore.Hbond>
2.7279

> <Gold.Chemscore.Metal>
0.0000

> <Gold.Chemscore.Lipo>
52.7112

> <Gold.Chemscore.Internal_Hbond>
0.0000

> <Gold.Chemscore.DEClash>
1.3227

> <Gold.Chemscore.DEInternal>
0.0330

> <Gold.Chemscore.Rot>
1.8883

> <Gold.Chemscore.Internal.Correction>
   9.000000E+99

> <Gold.Chemscore.Hbonds>
donor molecule, donor type, donor heavy atom, donor atom, acceptor molecule, acceptor atom, score
      L1  H     4    16       P1  8028  0.99
      L1  H     9    24       P1 10175  0.97
      L1  H    11    27       P1  8028  0.58

> <Gold.Chemscore.Hbond.Weighted>
-9.1113

> <Gold.Chemscore.Metal.Weighted>
-0.0000

> <Gold.Chemscore.Lipo.Weighted>
-6.1672

> <Gold.Chemscore.Internal_Hbond.Weighted>
0.0000

> <Gold.Chemscore.DEClash.Weighted>
1.3227

> <Gold.Chemscore.DEInternal.Weighted>
0.0330

> <Gold.Chemscore.Rot.Weighted>
4.8340

> <Gold.Chemscore.Internal.Correction.Weighted>
   9.000000E+99

> <Gold.Protein.RotatedTorsions>
[ 6907 6896 6895 6894 ] final -107.67 input  -60.11 | X-H torsion
[ 7974 7965 7964 7962 ] final   55.98 input  175.53 | X-H torsion
[ 8008 7997 7996 7995 ] final   77.25 input   59.86 | X-H torsion
[ 10167 10162 10161 10158 ] final -139.93 input  -65.29 | X-H torsion
[ 10718 10713 10712 10709 ] final  125.58 input   66.30 | X-H torsion
[ 10763 10752 10751 10750 ] final -156.23 input  -60.55 | X-H torsion
[ 11005 11000 10999 10996 ] final   80.56 input  -57.11 | X-H torsion

> <Gold.Protein.ActiveResidues>
 VAL166  LYS551  ARG553  GLY616  TRP617  ASP618  TYR619  PRO620  LYS621  CYS622 
 ASP623  PHE694  ASN695  SER759  ASP760  ASP761  ALA762  ILE779  LEU786  VAL792 
 PHE793  MET794  SER795  GLU796  ALA797  LYS798  CYS799  TRP800  GLU811  SER814 

> <Gold.Protein.RotatedAtoms>
  150.7457  133.9791  159.3570 H   0  0  0  0  0  0  0  0  0  0  0  0  # atno 6907 bound_to 6896
  151.7731  135.0779  160.0372 H   0  0  0  0  0  0  0  0  0  0  0  0  # atno 6908 bound_to 6896
  152.3325  133.5938  159.5856 H   0  0  0  0  0  0  0  0  0  0  0  0  # atno 6909 bound_to 6896
  145.9447  139.3919  143.0342 H   0  0  0  0  0  0  0  0  0  0  0  0  # atno 7974 bound_to 7965
  155.8389  140.3463  155.5619 H   0  0  0  0  0  0  0  0  0  0  0  0  # atno 8008 bound_to 7997
  155.8162  140.0906  157.1895 H   0  0  0  0  0  0  0  0  0  0  0  0  # atno 8009 bound_to 7997
  154.4005  140.1438  156.3432 H   0  0  0  0  0  0  0  0  0  0  0  0  # atno 8010 bound_to 7997
  139.8331  143.7420  152.2665 H   0  0  0  0  0  0  0  0  0  0  0  0  # atno 10167 bound_to 10162
  157.5491  131.1094  150.8732 H   0  0  0  0  0  0  0  0  0  0  0  0  # atno 10718 bound_to 10713
  154.7728  135.3150  154.8154 H   0  0  0  0  0  0  0  0  0  0  0  0  # atno 10763 bound_to 10752
  153.8885  135.6828  153.4766 H   0  0  0  0  0  0  0  0  0  0  0  0  # atno 10764 bound_to 10752
  153.1345  135.4765  154.9336 H   0  0  0  0  0  0  0  0  0  0  0  0  # atno 10765 bound_to 10752
  139.9130  134.7929  156.1925 H   0  0  0  0  0  0  0  0  0  0  0  0  # atno 11005 bound_to 11000
  145.8252  140.9659  143.0878 LP  0  0  0  0  0  0  0  0  0  0  0  0  # atno 17320 bound_to 7965
  144.6785  140.0092  143.7484 LP  0  0  0  0  0  0  0  0  0  0  0  0  # atno 17321 bound_to 7965
  139.7634  144.7499  151.0330 LP  0  0  0  0  0  0  0  0  0  0  0  0  # atno 17342 bound_to 10162
  140.7805  143.4725  151.0126 LP  0  0  0  0  0  0  0  0  0  0  0  0  # atno 17343 bound_to 10162
  156.9262  130.5333  149.5279 LP  0  0  0  0  0  0  0  0  0  0  0  0  # atno 17370 bound_to 10713
  156.0561  130.5622  150.9094 LP  0  0  0  0  0  0  0  0  0  0  0  0  # atno 17371 bound_to 10713
  141.0575  133.6858  156.1888 LP  0  0  0  0  0  0  0  0  0  0  0  0  # atno 17394 bound_to 11000
  140.6714  134.4864  157.5587 LP  0  0  0  0  0  0  0  0  0  0  0  0  # atno 17395 bound_to 11000

$$$$
