AV-unprocessed.smi:592|AV-procd|sdf|3012|dock5
  -GOLD-   2262023523D 1   1.00000     0.00000
 Structure written by MMmdl.
 27 28  0  0  0  0  0  0  0  0  1 V2000
  151.3032  140.5449  158.5410 O   0  0  0  0  0  0  0  0  0  0  0  0
  151.2888  141.7659  158.3637 C   0  0  0  0  0  0  0  0  0  0  0  0
  151.0853  142.2949  156.9388 C   0  0  0  0  0  0  0  0  0  0  0  0
  150.4945  141.2710  156.0627 N   0  0  0  0  0  0  0  0  0  0  0  0
  149.2439  141.5738  155.4880 C   0  0  0  0  0  0  0  0  0  0  0  0
  148.6045  140.7123  154.6813 C   0  0  0  0  0  0  0  0  0  0  0  0
  149.2324  139.4423  154.4051 C   0  0  0  0  0  0  0  0  0  0  0  0
  150.4289  139.1422  154.9484 C   0  0  0  0  0  0  0  0  0  0  0  0
  151.1321  140.0817  155.8299 C   0  0  0  0  0  0  0  0  0  0  0  0
  152.2251  139.8124  156.3282 O   0  0  0  0  0  0  0  0  0  0  0  0
  151.4415  142.7923  159.2895 N   0  0  0  0  0  0  0  0  0  0  0  0
  152.1714  142.6425  160.3533 C   0  0  0  0  0  0  0  0  0  0  0  0
  152.8944  141.5269  160.7651 N   0  0  0  0  0  0  0  0  0  0  0  0
  153.9021  141.7244  161.7905 C   0  0  0  0  0  0  0  0  0  0  0  0
  153.4249  142.8658  162.6841 C   0  0  0  0  0  0  0  0  0  0  0  0
  152.4360  143.9216  161.6103 S   0  0  0  0  0  0  0  0  0  0  0  0
  150.4325  143.1686  156.9780 H   0  0  0  0  0  0  0  0  0  0  0  0
  152.0306  142.6715  156.5427 H   0  0  0  0  0  0  0  0  0  0  0  0
  148.8417  142.5419  155.7500 H   0  0  0  0  0  0  0  0  0  0  0  0
  147.6448  140.9616  154.2529 H   0  0  0  0  0  0  0  0  0  0  0  0
  148.7400  138.7286  153.7611 H   0  0  0  0  0  0  0  0  0  0  0  0
  150.8828  138.1863  154.7318 H   0  0  0  0  0  0  0  0  0  0  0  0
  154.0622  140.8095  162.3613 H   0  0  0  0  0  0  0  0  0  0  0  0
  154.8438  141.9850  161.3061 H   0  0  0  0  0  0  0  0  0  0  0  0
  152.7811  142.4838  163.4768 H   0  0  0  0  0  0  0  0  0  0  0  0
  154.2492  143.4117  163.1432 H   0  0  0  0  0  0  0  0  0  0  0  0
  152.9403  140.6673  160.2364 H   0  0  0  0  0  0  0  0  0  0  0  0
  1  2  2  0  0  0  0
  2  3  1  0  0  0  0
  2 11  1  0  0  0  0
  3  4  1  0  0  0  0
  3 17  1  0  0  0  0
  3 18  1  0  0  0  0
  4  9  1  0  0  0  0
  4  5  1  0  0  0  0
  5  6  2  0  0  0  0
  5 19  1  0  0  0  0
  6  7  1  0  0  0  0
  6 20  1  0  0  0  0
  7  8  2  0  0  0  0
  7 21  1  0  0  0  0
  8  9  1  0  0  0  0
  8 22  1  0  0  0  0
  9 10  2  0  0  0  0
 11 12  2  0  0  0  0
 12 16  1  0  0  0  0
 12 13  1  0  0  0  0
 13 14  1  0  0  0  0
 13 27  1  0  0  0  0
 14 15  1  0  0  0  0
 14 23  1  0  0  0  0
 14 24  1  0  0  0  0
 15 16  1  0  0  0  0
 15 25  1  0  0  0  0
 15 26  1  0  0  0  0
M  END
> <s_m_source_file>
AV-unprocessed.smi

> <i_m_source_file_index>
592

> <i_lp_mmshare_version>
43012

> <i_f3d_flags>
0

> <s_epik_input>
UzFbQ0gyXVtDSDJdTj1DMVtOSF1DKD1PKVtDSDJdbjJbY0hdW2NIXVtjSF1bY0hdYzI9Tw==

> <s_epik_cmdline>
J2VwaWtfcHl0aG9uJywgJy1waCcsICc3LjAnLCAnLXRuJywgJzgnLCAnLW1hJywgJzIwMCcsICctbWV0YWxfYmluZGluZycsICctaW1hZScsICc8aW5maWxlLm1hZT4nLCAnLW9tYWUnLCAnPG91dGZpbGUubWFlPic=

> <r_lp_tautomer_probability>
1

> <r_epik_Ionization_Penalty>
2.71369

> <r_epik_Ionization_Penalty_Charging>
3.63323e-07

> <r_epik_Ionization_Penalty_Neutral>
2.71369

> <r_epik_State_Penalty>
1.599

> <r_epik_Charging_Adjusted_Penalty>
1.599

> <i_epik_Tot_Q>
0

> <i_epik_Tot_abs_Q>
0

> <r_epik_Metal_State_Penalty>
1.59596

> <b_epik_Metal_Only>
1

> <s_epik_Chemistry_Notes>
This compound has an imine and may undergo hydrolysis.

> <s_lp_Force_Field>
OPLS_2005

> <r_lp_Energy>
29.0057

> <b_lp_Chiralities_Consistent>
1

> <s_lp_Variant>
AV-unprocessed.smi:592-3

> <Gold.Version>
5.8.1

> <Gold.Id.Protein>
6NUR|6NUR_protein|mol2

> <Gold.PLP.Fitness>
43.2843

> <Gold.PLP.PLP>
-38.1934

> <Gold.PLP.part.hbond>
-1.0000

> <Gold.PLP.part.metal>
0.0000

> <Gold.PLP.part.buried>
-2.9983

> <Gold.PLP.part.nonpolar>
-33.6643

> <Gold.PLP.part.repulsive>
0.1043

> <Gold.PLP.ligand.clash>
0.0000

> <Gold.PLP.ligand.torsion>
0.4559

> <Gold.PLP.Chemscore.Hbond>
1.0000

> <Gold.PLP.Chemscore.CHOScore>
1.0000

> <Gold.PLP.Chemscore.Metal>
0.0000

> <Gold.Chemscore.Hbonds>
donor molecule, donor type, donor heavy atom, donor atom, acceptor molecule, acceptor atom, score
      P1  H  7997  8008       L1    10  0.73
      L1  C     5    19       P1  8028  1.00

> <Gold.PLP.Chemscore.Internal.Correction>
0.0027

> <Gold.Rescore>
     Score         DG    S(hbond)    S(metal)    S(lipo)     H(rot)  DE(clash)    DE(int)     intcor
     10.46     -13.86       1.00        0.00      72.18       1.33       0.15       3.24       ----

> <Gold.Chemscore.Fitness>
10.4650

> <Gold.Chemscore.DG>
-13.8573

> <Gold.Chemscore.ZeroCoef>
-5.4800

> <Gold.Chemscore.Hbond>
0.9999

> <Gold.Chemscore.Metal>
0.0000

> <Gold.Chemscore.Lipo>
72.1757

> <Gold.Chemscore.Internal_Hbond>
0.0000

> <Gold.Chemscore.DEClash>
0.1543

> <Gold.Chemscore.DEInternal>
3.2380

> <Gold.Chemscore.Rot>
1.3309

> <Gold.Chemscore.Internal.Correction>
   9.000000E+99

> <Gold.Chemscore.Hbonds>
donor molecule, donor type, donor heavy atom, donor atom, acceptor molecule, acceptor atom, score
      P1  H  7997  8008       L1    10  0.73

> <Gold.Chemscore.Hbond.Weighted>
-3.3398

> <Gold.Chemscore.Metal.Weighted>
-0.0000

> <Gold.Chemscore.Lipo.Weighted>
-8.4446

> <Gold.Chemscore.Internal_Hbond.Weighted>
0.0000

> <Gold.Chemscore.DEClash.Weighted>
0.1543

> <Gold.Chemscore.DEInternal.Weighted>
3.2380

> <Gold.Chemscore.Rot.Weighted>
3.4071

> <Gold.Chemscore.Internal.Correction.Weighted>
   9.000000E+99

> <Gold.Protein.RotatedTorsions>
[ 6907 6896 6895 6894 ] final  -52.23 input  -60.11 | X-H torsion
[ 7974 7965 7964 7962 ] final   74.08 input  175.53 | X-H torsion
[ 8008 7997 7996 7995 ] final  -38.94 input   59.86 | X-H torsion
[ 10167 10162 10161 10158 ] final  -54.80 input  -65.29 | X-H torsion
[ 10718 10713 10712 10709 ] final   54.67 input   66.30 | X-H torsion
[ 10763 10752 10751 10750 ] final  121.82 input  -60.55 | X-H torsion
[ 11005 11000 10999 10996 ] final  164.35 input  -57.11 | X-H torsion

> <Gold.Protein.ActiveResidues>
 VAL166  LYS551  ARG553  GLY616  TRP617  ASP618  TYR619  PRO620  LYS621  CYS622 
 ASP623  PHE694  ASN695  SER759  ASP760  ASP761  ALA762  ILE779  LEU786  VAL792 
 PHE793  MET794  SER795  GLU796  ALA797  LYS798  CYS799  TRP800  GLU811  SER814 

> <Gold.Protein.RotatedAtoms>
  150.8537  134.7869  159.7028 H   0  0  0  0  0  0  0  0  0  0  0  0  # atno 6907 bound_to 6896
  152.4595  134.5214  159.9793 H   0  0  0  0  0  0  0  0  0  0  0  0  # atno 6908 bound_to 6896
  151.5330  133.3407  159.2957 H   0  0  0  0  0  0  0  0  0  0  0  0  # atno 6909 bound_to 6896
  145.7328  139.2690  143.1531 H   0  0  0  0  0  0  0  0  0  0  0  0  # atno 7974 bound_to 7965
  154.4029  140.1564  156.2782 H   0  0  0  0  0  0  0  0  0  0  0  0  # atno 8008 bound_to 7997
  155.8893  140.3439  155.5922 H   0  0  0  0  0  0  0  0  0  0  0  0  # atno 8009 bound_to 7997
  155.7577  140.0813  157.2161 H   0  0  0  0  0  0  0  0  0  0  0  0  # atno 8010 bound_to 7997
  140.6410  143.2508  151.4988 H   0  0  0  0  0  0  0  0  0  0  0  0  # atno 10167 bound_to 10162
  157.5277  130.8609  149.8645 H   0  0  0  0  0  0  0  0  0  0  0  0  # atno 10718 bound_to 10713
  153.6201  135.3414  155.3008 H   0  0  0  0  0  0  0  0  0  0  0  0  # atno 10763 bound_to 10752
  154.8601  135.4271  154.2216 H   0  0  0  0  0  0  0  0  0  0  0  0  # atno 10764 bound_to 10752
  153.3087  135.7030  153.7208 H   0  0  0  0  0  0  0  0  0  0  0  0  # atno 10765 bound_to 10752
  140.2450  134.8021  157.3447 H   0  0  0  0  0  0  0  0  0  0  0  0  # atno 11005 bound_to 11000
  146.0522  140.8058  142.9776 LP  0  0  0  0  0  0  0  0  0  0  0  0  # atno 17320 bound_to 7965
  144.6889  140.3070  143.7254 LP  0  0  0  0  0  0  0  0  0  0  0  0  # atno 17321 bound_to 7965
  139.5620  144.2134  152.1705 LP  0  0  0  0  0  0  0  0  0  0  0  0  # atno 17342 bound_to 10162
  140.1405  144.5206  150.6747 LP  0  0  0  0  0  0  0  0  0  0  0  0  # atno 17343 bound_to 10162
  156.0399  130.3741  150.1462 LP  0  0  0  0  0  0  0  0  0  0  0  0  # atno 17370 bound_to 10713
  156.9647  130.9816  151.3471 LP  0  0  0  0  0  0  0  0  0  0  0  0  # atno 17371 bound_to 10713
  140.1615  134.4723  155.7892 LP  0  0  0  0  0  0  0  0  0  0  0  0  # atno 17394 bound_to 11000
  141.2207  133.6903  156.7552 LP  0  0  0  0  0  0  0  0  0  0  0  0  # atno 17395 bound_to 11000

$$$$
