AV-unprocessed.smi:527|AV-procd|sdf|2825|dock7
  -GOLD-   2262023313D 1   1.00000     0.00000
 Structure written by MMmdl.
 43 44  0  0  0  0  0  0  0  0  2 V2000
  153.0216  141.4240  160.6179 C   0  0  0  0  0  0  0  0  0  0  0  0
  152.8896  142.2778  159.3430 C   0  0  2  0  0  0  0  0  0  0  0  0
  152.8966  143.7723  159.7222 C   0  0  0  0  0  0  0  0  0  0  0  0
  152.8040  144.6745  158.4872 C   0  0  0  0  0  0  0  0  0  0  0  0
  151.5461  144.3502  157.6765 C   0  0  0  0  0  0  0  0  0  0  0  0
  151.5080  142.8652  157.2669 C   0  0  2  0  0  0  0  0  0  0  0  0
  150.2661  142.5993  156.5423 N   0  0  0  0  0  0  0  0  0  0  0  0
  150.1067  141.6801  155.5785 C   0  0  0  0  0  0  0  0  0  0  0  0
  150.9083  140.7663  155.3724 O   0  0  0  0  0  0  0  0  0  0  0  0
  148.9704  141.8987  154.8891 N   0  0  0  0  0  0  0  0  0  0  0  0
  148.2922  141.0224  154.1206 C   0  0  0  0  0  0  0  0  0  0  0  0
  148.6228  139.8500  153.9251 O   0  0  0  0  0  0  0  0  0  0  0  0
  147.0237  141.5887  153.4693 C   0  0  0  0  0  0  0  0  0  0  0  0
  146.1637  142.3132  154.4139 N   0  0  0  0  0  0  0  0  0  0  0  0
  145.5587  143.5295  154.2228 C   0  0  0  0  0  0  0  0  0  0  0  0
  144.8644  143.8057  155.3725 C   0  0  0  0  0  0  0  0  0  0  0  0
  145.0756  142.7485  156.2166 N   0  3  0  0  0  0  0  0  0  0  0  0
  145.8664  141.8421  155.6325 C   0  0  0  0  0  0  0  0  0  0  0  0
  151.6358  141.9214  158.4940 C   0  0  1  0  0  0  0  0  0  0  0  0
  151.6367  140.4404  158.0551 C   0  0  0  0  0  0  0  0  0  0  0  0
  152.1266  141.4938  161.2367 H   0  0  0  0  0  0  0  0  0  0  0  0
  153.8672  141.7534  161.2225 H   0  0  0  0  0  0  0  0  0  0  0  0
  153.1932  140.3728  160.3890 H   0  0  0  0  0  0  0  0  0  0  0  0
  153.7744  142.0905  158.7327 H   0  0  0  0  0  0  0  0  0  0  0  0
  152.0635  143.9878  160.3928 H   0  0  0  0  0  0  0  0  0  0  0  0
  153.8055  144.0135  160.2747 H   0  0  0  0  0  0  0  0  0  0  0  0
  152.7902  145.7216  158.7913 H   0  0  0  0  0  0  0  0  0  0  0  0
  153.6898  144.5426  157.8647 H   0  0  0  0  0  0  0  0  0  0  0  0
  150.6625  144.5951  158.2675 H   0  0  0  0  0  0  0  0  0  0  0  0
  151.5117  144.9866  156.7912 H   0  0  0  0  0  0  0  0  0  0  0  0
  152.3552  142.6682  156.6066 H   0  0  0  0  0  0  0  0  0  0  0  0
  149.4663  143.1564  156.8043 H   0  0  0  0  0  0  0  0  0  0  0  0
  148.5810  142.8273  154.9571 H   0  0  0  0  0  0  0  0  0  0  0  0
  147.2986  142.2767  152.6687 H   0  0  0  0  0  0  0  0  0  0  0  0
  146.4416  140.7810  153.0228 H   0  0  0  0  0  0  0  0  0  0  0  0
  145.6665  144.0946  153.3083 H   0  0  0  0  0  0  0  0  0  0  0  0
  144.2537  144.6536  155.6464 H   0  0  0  0  0  0  0  0  0  0  0  0
  146.2005  140.9145  156.0624 H   0  0  0  0  0  0  0  0  0  0  0  0
  150.7574  142.0748  159.1233 H   0  0  0  0  0  0  0  0  0  0  0  0
  152.5217  140.2052  157.4633 H   0  0  0  0  0  0  0  0  0  0  0  0
  150.7630  140.1930  157.4524 H   0  0  0  0  0  0  0  0  0  0  0  0
  151.6155  139.7641  158.9086 H   0  0  0  0  0  0  0  0  0  0  0  0
  144.6912  142.6633  157.1494 H   0  0  0  0  0  0  0  0  0  0  0  0
  1  2  1  0  0  0  0
  1 21  1  0  0  0  0
  1 22  1  0  0  0  0
  1 23  1  0  0  0  0
  2 19  1  0  0  0  0
  2  3  1  0  0  0  0
  2 24  1  0  0  0  0
  3  4  1  0  0  0  0
  3 25  1  0  0  0  0
  3 26  1  0  0  0  0
  4  5  1  0  0  0  0
  4 27  1  0  0  0  0
  4 28  1  0  0  0  0
  5  6  1  0  0  0  0
  5 29  1  0  0  0  0
  5 30  1  0  0  0  0
  6  7  1  0  0  0  0
  6 19  1  0  0  0  0
  6 31  1  0  0  0  0
  7  8  1  0  0  0  0
  7 32  1  0  0  0  0
  8  9  2  0  0  0  0
  8 10  1  0  0  0  0
 10 11  1  0  0  0  0
 10 33  1  0  0  0  0
 11 12  2  0  0  0  0
 11 13  1  0  0  0  0
 13 14  1  0  0  0  0
 13 34  1  0  0  0  0
 13 35  1  0  0  0  0
 14 18  1  0  0  0  0
 14 15  1  0  0  0  0
 15 16  2  0  0  0  0
 15 36  1  0  0  0  0
 16 17  1  0  0  0  0
 16 37  1  0  0  0  0
 17 18  2  0  0  0  0
 17 43  1  0  0  0  0
 18 38  1  0  0  0  0
 19 20  1  0  0  0  0
 19 39  1  0  0  0  0
 20 40  1  0  0  0  0
 20 41  1  0  0  0  0
 20 42  1  0  0  0  0
M  CHG  1  17   1
M  END
> <s_m_source_file>
AV-unprocessed.smi

> <i_m_source_file_index>
527

> <i_lp_mmshare_version>
43012

> <i_f3d_flags>
0

> <s_epik_input>
W0NIM11bQ0BASF0xW0NIMl1bQ0gyXVtDSDJdW0NASF0oW0NASF0xW0NIM10pW05IXUMoPU8pW05IXUMoPU8pW0NIMl1uMltjSF1bY0hdbltjSF0y

> <s_epik_cmdline>
J2VwaWtfcHl0aG9uJywgJy1waCcsICc3LjAnLCAnLXRuJywgJzgnLCAnLW1hJywgJzIwMCcsICctbWV0YWxfYmluZGluZycsICctaW1hZScsICc8aW5maWxlLm1hZT4nLCAnLW9tYWUnLCAnPG91dGZpbGUubWFlPic=

> <r_lp_tautomer_probability>
1

> <r_epik_Ionization_Penalty>
0.816441

> <r_epik_Ionization_Penalty_Charging>
0

> <r_epik_Ionization_Penalty_Neutral>
0.816441

> <r_epik_State_Penalty>
0.849034

> <r_epik_Charging_Adjusted_Penalty>
0.849034

> <i_epik_Tot_Q>
1

> <i_epik_Tot_abs_Q>
1

> <r_epik_Metal_State_Penalty>
0.984327

> <b_epik_Metal_Only>
0

> <s_lp_Force_Field>
OPLS_2005

> <r_lp_Energy>
16.8338

> <b_lp_Chiralities_Consistent>
1

> <s_lp_Variant>
AV-unprocessed.smi:527-11

> <Gold.Version>
5.8.1

> <Gold.Id.Protein>
6NUR|6NUR_protein|mol2

> <Gold.PLP.Fitness>
51.8497

> <Gold.PLP.PLP>
-46.8543

> <Gold.PLP.part.hbond>
-3.0000

> <Gold.PLP.part.metal>
0.0000

> <Gold.PLP.part.buried>
-8.0656

> <Gold.PLP.part.nonpolar>
-36.5916

> <Gold.PLP.part.repulsive>
1.4631

> <Gold.PLP.ligand.clash>
0.0000

> <Gold.PLP.ligand.torsion>
0.8107

> <Gold.PLP.Chemscore.Hbond>
2.1999

> <Gold.PLP.Chemscore.CHOScore>
0.0000

> <Gold.PLP.Chemscore.Metal>
0.0000

> <Gold.Chemscore.Hbonds>
donor molecule, donor type, donor heavy atom, donor atom, acceptor molecule, acceptor atom, score
      L1  H     7    32       P1  8028  0.42
      L1  H    10    33       P1  8028  0.93
      P1  H  7989  7998       L1     9  0.83

> <Gold.PLP.Chemscore.Internal.Correction>
0.0171

> <Gold.Rescore>
     Score         DG    S(hbond)    S(metal)    S(lipo)     H(rot)  DE(clash)    DE(int)     intcor
     16.43     -19.44       1.84        0.00     104.25       1.71       0.50       2.51       ----

> <Gold.Chemscore.Fitness>
16.4285

> <Gold.Chemscore.DG>
-19.4426

> <Gold.Chemscore.ZeroCoef>
-5.4800

> <Gold.Chemscore.Hbond>
1.8356

> <Gold.Chemscore.Metal>
0.0000

> <Gold.Chemscore.Lipo>
104.2469

> <Gold.Chemscore.Internal_Hbond>
0.0000

> <Gold.Chemscore.DEClash>
0.5015

> <Gold.Chemscore.DEInternal>
2.5126

> <Gold.Chemscore.Rot>
1.7052

> <Gold.Chemscore.Internal.Correction>
   9.000000E+99

> <Gold.Chemscore.Hbonds>
donor molecule, donor type, donor heavy atom, donor atom, acceptor molecule, acceptor atom, score
      L1  H     7    32       P1  8028  0.39
      L1  H    10    33       P1  8028  0.84
      P1  H  7989  7998       L1     9  0.58

> <Gold.Chemscore.Hbond.Weighted>
-6.1310

> <Gold.Chemscore.Metal.Weighted>
-0.0000

> <Gold.Chemscore.Lipo.Weighted>
-12.1969

> <Gold.Chemscore.Internal_Hbond.Weighted>
0.0000

> <Gold.Chemscore.DEClash.Weighted>
0.5015

> <Gold.Chemscore.DEInternal.Weighted>
2.5126

> <Gold.Chemscore.Rot.Weighted>
4.3653

> <Gold.Chemscore.Internal.Correction.Weighted>
   9.000000E+99

> <Gold.Protein.RotatedTorsions>
[ 6907 6896 6895 6894 ] final  134.28 input  -60.11 | X-H torsion
[ 7974 7965 7964 7962 ] final  103.34 input  175.53 | X-H torsion
[ 8008 7997 7996 7995 ] final   91.36 input   59.86 | X-H torsion
[ 10167 10162 10161 10158 ] final   39.53 input  -65.29 | X-H torsion
[ 10718 10713 10712 10709 ] final  -89.90 input   66.30 | X-H torsion
[ 10763 10752 10751 10750 ] final  175.65 input  -60.55 | X-H torsion
[ 11005 11000 10999 10996 ] final -145.93 input  -57.11 | X-H torsion

> <Gold.Protein.ActiveResidues>
 VAL166  LYS551  ARG553  GLY616  TRP617  ASP618  TYR619  PRO620  LYS621  CYS622 
 ASP623  PHE694  ASN695  SER759  ASP760  ASP761  ALA762  ILE779  LEU786  VAL792 
 PHE793  MET794  SER795  GLU796  ALA797  LYS798  CYS799  TRP800  GLU811  SER814 

> <Gold.Protein.RotatedAtoms>
  152.3130  133.5772  159.5692 H   0  0  0  0  0  0  0  0  0  0  0  0  # atno 6907 bound_to 6896
  150.7332  134.0125  159.3683 H   0  0  0  0  0  0  0  0  0  0  0  0  # atno 6908 bound_to 6896
  151.8016  135.0707  160.0452 H   0  0  0  0  0  0  0  0  0  0  0  0  # atno 6909 bound_to 6896
  145.3472  139.2448  143.3578 H   0  0  0  0  0  0  0  0  0  0  0  0  # atno 7974 bound_to 7965
  156.0228  140.3338  155.7057 H   0  0  0  0  0  0  0  0  0  0  0  0  # atno 8008 bound_to 7997
  155.5998  140.0654  157.2754 H   0  0  0  0  0  0  0  0  0  0  0  0  # atno 8009 bound_to 7997
  154.4322  140.1812  156.1149 H   0  0  0  0  0  0  0  0  0  0  0  0  # atno 8010 bound_to 7997
  140.3830  144.1954  150.6130 H   0  0  0  0  0  0  0  0  0  0  0  0  # atno 10167 bound_to 10162
  155.9986  130.4889  150.5241 H   0  0  0  0  0  0  0  0  0  0  0  0  # atno 10718 bound_to 10713
  154.4705  135.2771  155.1646 H   0  0  0  0  0  0  0  0  0  0  0  0  # atno 10763 bound_to 10752
  154.3397  135.6172  153.5594 H   0  0  0  0  0  0  0  0  0  0  0  0  # atno 10764 bound_to 10752
  152.9863  135.5785  154.5085 H   0  0  0  0  0  0  0  0  0  0  0  0  # atno 10765 bound_to 10752
  140.7872  134.3011  157.5026 H   0  0  0  0  0  0  0  0  0  0  0  0  # atno 11005 bound_to 11000
  146.2983  140.4081  142.8713 LP  0  0  0  0  0  0  0  0  0  0  0  0  # atno 17320 bound_to 7965
  144.8745  140.7318  143.6026 LP  0  0  0  0  0  0  0  0  0  0  0  0  # atno 17321 bound_to 7965
  140.4918  143.2345  151.8808 LP  0  0  0  0  0  0  0  0  0  0  0  0  # atno 17342 bound_to 10162
  139.4794  144.5158  151.8870 LP  0  0  0  0  0  0  0  0  0  0  0  0  # atno 17343 bound_to 10162
  157.3199  131.0680  151.1939 LP  0  0  0  0  0  0  0  0  0  0  0  0  # atno 17370 bound_to 10713
  157.2856  130.6771  149.6088 LP  0  0  0  0  0  0  0  0  0  0  0  0  # atno 17371 bound_to 10713
  139.8735  134.9353  156.3630 LP  0  0  0  0  0  0  0  0  0  0  0  0  # atno 17394 bound_to 11000
  140.9425  133.7505  156.0165 LP  0  0  0  0  0  0  0  0  0  0  0  0  # atno 17395 bound_to 11000

$$$$
