AV-unprocessed.smi:155|AV-procd|sdf|1267|dock1
  -GOLD-   2262018523D 1   1.00000     0.00000
 Structure written by MMmdl.
 63 66  0  0  0  0  0  0  0  0  2 V2000
  145.7210  131.7695  150.9649 C   0  0  0  0  0  0  0  0  0  0  0  0
  145.5961  132.8609  151.9248 N   0  0  0  0  0  0  0  0  0  0  0  0
  145.0144  134.0068  151.2383 C   0  0  0  0  0  0  0  0  0  0  0  0
  146.8921  133.2454  152.4838 C   0  0  0  0  0  0  0  0  0  0  0  0
  146.8341  134.4839  153.4127 C   0  0  0  0  0  0  0  0  0  0  0  0
  147.8550  134.5126  154.4944 N   0  3  2  0  0  0  0  0  0  0  0  0
  148.8169  133.3760  154.4590 C   0  0  0  0  0  0  0  0  0  0  0  0
  149.8774  133.4142  155.5798 C   0  0  0  0  0  0  0  0  0  0  0  0
  150.5672  134.7798  155.7699 C   0  0  0  0  0  0  0  0  0  0  0  0
  149.6233  135.8598  156.0702 N   0  0  0  0  0  0  0  0  0  0  0  0
  149.9262  137.1288  155.6911 C   0  0  0  0  0  0  0  0  0  0  0  0
  150.0638  137.3874  154.3640 N   0  0  0  0  0  0  0  0  0  0  0  0
  150.3692  138.6168  153.9395 C   0  0  0  0  0  0  0  0  0  0  0  0
  150.5721  139.7206  154.6601 N   0  0  0  0  0  0  0  0  0  0  0  0
  150.4218  139.4742  155.9923 C   0  0  0  0  0  0  0  0  0  0  0  0
  150.1001  138.2222  156.5908 C   0  0  0  0  0  0  0  0  0  0  0  0
  150.0101  138.3755  157.9707 N   0  0  0  0  0  0  0  0  0  0  0  0
  150.2847  139.6348  158.1757 C   0  0  0  0  0  0  0  0  0  0  0  0
  150.5463  140.3667  157.0410 N   0  0  0  0  0  0  0  0  0  0  0  0
  150.8813  141.7786  156.9693 C   0  0  0  0  0  0  0  0  0  0  0  0
  150.6855  142.4986  158.3234 C   0  0  2  0  0  0  0  0  0  0  0  0
  149.6766  143.4748  158.1410 O   0  0  0  0  0  0  0  0  0  0  0  0
  151.9423  143.2358  158.8404 C   0  0  2  0  0  0  0  0  0  0  0  0
  153.1323  142.3299  159.2099 C   0  0  0  0  0  0  0  0  0  0  0  0
  153.0041  142.1611  160.7066 C   0  0  0  0  0  0  0  0  0  0  0  0
  152.4884  143.5316  161.1088 C   0  0  0  0  0  0  0  0  0  0  0  0
  151.5799  143.8719  160.0708 O   0  0  0  0  0  0  0  0  0  0  0  0
  148.3572  135.5680  156.7462 C   0  0  0  0  0  0  0  0  0  0  0  0
  147.3213  134.8528  155.8420 C   0  0  0  0  0  0  0  0  0  0  0  0
  146.0774  130.8564  151.4393 H   0  0  0  0  0  0  0  0  0  0  0  0
  146.4066  132.0263  150.1559 H   0  0  0  0  0  0  0  0  0  0  0  0
  144.7502  131.5396  150.5238 H   0  0  0  0  0  0  0  0  0  0  0  0
  144.8743  134.8394  151.9286 H   0  0  0  0  0  0  0  0  0  0  0  0
  144.0358  133.7526  150.8288 H   0  0  0  0  0  0  0  0  0  0  0  0
  145.6498  134.3458  150.4184 H   0  0  0  0  0  0  0  0  0  0  0  0
  147.2922  132.3972  153.0416 H   0  0  0  0  0  0  0  0  0  0  0  0
  147.6025  133.4261  151.6768 H   0  0  0  0  0  0  0  0  0  0  0  0
  146.8596  135.4201  152.8567 H   0  0  0  0  0  0  0  0  0  0  0  0
  145.8618  134.4818  153.9069 H   0  0  0  0  0  0  0  0  0  0  0  0
  148.2848  132.4290  154.5316 H   0  0  0  0  0  0  0  0  0  0  0  0
  149.3155  133.3820  153.4890 H   0  0  0  0  0  0  0  0  0  0  0  0
  149.4297  133.0919  156.5201 H   0  0  0  0  0  0  0  0  0  0  0  0
  150.6391  132.6648  155.3625 H   0  0  0  0  0  0  0  0  0  0  0  0
  151.2959  134.7168  156.5787 H   0  0  0  0  0  0  0  0  0  0  0  0
  151.1233  135.0180  154.8620 H   0  0  0  0  0  0  0  0  0  0  0  0
  150.4659  138.7322  152.8699 H   0  0  0  0  0  0  0  0  0  0  0  0
  150.3077  140.0673  159.1655 H   0  0  0  0  0  0  0  0  0  0  0  0
  151.9131  141.8461  156.6286 H   0  0  0  0  0  0  0  0  0  0  0  0
  150.2668  142.2450  156.1978 H   0  0  0  0  0  0  0  0  0  0  0  0
  150.3462  141.7805  159.0714 H   0  0  0  0  0  0  0  0  0  0  0  0
  149.5137  143.5620  157.2138 H   0  0  0  0  0  0  0  0  0  0  0  0
  152.2660  143.9847  158.1156 H   0  0  0  0  0  0  0  0  0  0  0  0
  153.1700  141.3766  158.6874 H   0  0  0  0  0  0  0  0  0  0  0  0
  154.0643  142.8522  158.9888 H   0  0  0  0  0  0  0  0  0  0  0  0
  152.2648  141.3934  160.9394 H   0  0  0  0  0  0  0  0  0  0  0  0
  153.9438  141.8969  161.1922 H   0  0  0  0  0  0  0  0  0  0  0  0
  152.0022  143.5318  162.0848 H   0  0  0  0  0  0  0  0  0  0  0  0
  153.3010  144.2594  161.1278 H   0  0  0  0  0  0  0  0  0  0  0  0
  148.5797  134.9348  157.6056 H   0  0  0  0  0  0  0  0  0  0  0  0
  147.9272  136.4727  157.1768 H   0  0  0  0  0  0  0  0  0  0  0  0
  146.4672  135.5208  155.7249 H   0  0  0  0  0  0  0  0  0  0  0  0
  146.9388  133.9567  156.3323 H   0  0  0  0  0  0  0  0  0  0  0  0
  148.4221  135.3149  154.2594 H   0  0  0  0  0  0  0  0  0  0  0  0
  1  2  1  0  0  0  0
  1 30  1  0  0  0  0
  1 31  1  0  0  0  0
  1 32  1  0  0  0  0
  2  3  1  0  0  0  0
  2  4  1  0  0  0  0
  3 33  1  0  0  0  0
  3 34  1  0  0  0  0
  3 35  1  0  0  0  0
  4  5  1  0  0  0  0
  4 36  1  0  0  0  0
  4 37  1  0  0  0  0
  5  6  1  0  0  0  0
  5 38  1  0  0  0  0
  5 39  1  0  0  0  0
  6 29  1  0  0  0  0
  6  7  1  0  0  0  0
  6 63  1  0  0  0  0
  7  8  1  0  0  0  0
  7 40  1  0  0  0  0
  7 41  1  0  0  0  0
  8  9  1  0  0  0  0
  8 42  1  0  0  0  0
  8 43  1  0  0  0  0
  9 10  1  0  0  0  0
  9 44  1  0  0  0  0
  9 45  1  0  0  0  0
 10 11  1  0  0  0  0
 10 28  1  0  0  0  0
 11 16  1  0  0  0  0
 11 12  2  0  0  0  0
 12 13  1  0  0  0  0
 13 14  2  0  0  0  0
 13 46  1  0  0  0  0
 14 15  1  0  0  0  0
 15 19  1  0  0  0  0
 15 16  2  0  0  0  0
 16 17  1  0  0  0  0
 17 18  2  0  0  0  0
 18 19  1  0  0  0  0
 18 47  1  0  0  0  0
 19 20  1  0  0  0  0
 20 21  1  0  0  0  0
 20 48  1  0  0  0  0
 20 49  1  0  0  0  0
 21 22  1  0  0  0  0
 21 23  1  0  0  0  0
 21 50  1  0  0  0  0
 22 51  1  0  0  0  0
 23 27  1  0  0  0  0
 23 24  1  0  0  0  0
 23 52  1  0  0  0  0
 24 25  1  0  0  0  0
 24 53  1  0  0  0  0
 24 54  1  0  0  0  0
 25 26  1  0  0  0  0
 25 55  1  0  0  0  0
 25 56  1  0  0  0  0
 26 27  1  0  0  0  0
 26 57  1  0  0  0  0
 26 58  1  0  0  0  0
 28 29  1  0  0  0  0
 28 59  1  0  0  0  0
 28 60  1  0  0  0  0
 29 61  1  0  0  0  0
 29 62  1  0  0  0  0
M  CHG  1   6   1
M  END
> <s_m_source_file>
AV-unprocessed.smi

> <i_m_source_file_index>
155

> <i_lp_mmshare_version>
43012

> <i_f3d_flags>
0

> <s_epik_input>
W0NIM11OKFtDSDNdKVtDSDJdW0NIMl1OMVtDSDJdW0NIMl1bQ0gyXU4oW0NIMl1bQ0gyXTEpYyhuW2NIXW4yKWMoYzIzKW5bY0hdbjNbQ0gyXVtDQEhdKFtPSF0pW0NAQEhdNFtDSDJdW0NIMl1bQ0gyXU80

> <s_epik_cmdline>
J2VwaWtfcHl0aG9uJywgJy1waCcsICc3LjAnLCAnLXRuJywgJzgnLCAnLW1hJywgJzIwMCcsICctbWV0YWxfYmluZGluZycsICctaW1hZScsICc8aW5maWxlLm1hZT4nLCAnLW9tYWUnLCAnPG91dGZpbGUubWFlPic=

> <r_epik_Ionization_Penalty>
0.0619615

> <r_epik_Ionization_Penalty_Charging>
0.0161638

> <r_epik_Ionization_Penalty_Neutral>
0.0457976

> <r_epik_State_Penalty>
0.403408

> <r_epik_Charging_Adjusted_Penalty>
0.419572

> <i_epik_Tot_Q>
1

> <i_epik_Tot_abs_Q>
1

> <r_epik_Metal_State_Penalty>
0.404222

> <b_epik_Metal_Only>
0

> <s_lp_Force_Field>
OPLS_2005

> <r_lp_Energy>
58.592

> <b_lp_Chiralities_Consistent>
1

> <s_lp_Variant>
AV-unprocessed.smi:155-1

> <Gold.Version>
5.8.1

> <Gold.Id.Protein>
6NUR|6NUR_protein|mol2

> <Gold.PLP.Fitness>
48.0362

> <Gold.PLP.PLP>
-42.8271

> <Gold.PLP.part.hbond>
-3.7264

> <Gold.PLP.part.metal>
0.0000

> <Gold.PLP.part.buried>
-3.2867

> <Gold.PLP.part.nonpolar>
-37.6091

> <Gold.PLP.part.repulsive>
2.1781

> <Gold.PLP.ligand.clash>
0.0000

> <Gold.PLP.ligand.torsion>
2.9411

> <Gold.PLP.Chemscore.Hbond>
2.5429

> <Gold.PLP.Chemscore.CHOScore>
1.0000

> <Gold.PLP.Chemscore.Metal>
0.0000

> <Gold.Chemscore.Hbonds>
donor molecule, donor type, donor heavy atom, donor atom, acceptor molecule, acceptor atom, score
      L1  H    22    51       P1  8028  0.94
      P1  H  7989  7998       L1    14  1.00
      L1  C    13    46       P1  7957  1.00

> <Gold.PLP.Chemscore.Internal.Correction>
0.4626

> <Gold.Rescore>
     Score         DG    S(hbond)    S(metal)    S(lipo)     H(rot)  DE(clash)    DE(int)     intcor
     13.00     -16.34       1.50        0.00     107.66       2.63       0.20       3.14       ----

> <Gold.Chemscore.Fitness>
13.0013

> <Gold.Chemscore.DG>
-16.3394

> <Gold.Chemscore.ZeroCoef>
-5.4800

> <Gold.Chemscore.Hbond>
1.4977

> <Gold.Chemscore.Metal>
0.0000

> <Gold.Chemscore.Lipo>
107.6564

> <Gold.Chemscore.Internal_Hbond>
0.0000

> <Gold.Chemscore.DEClash>
0.1994

> <Gold.Chemscore.DEInternal>
3.1387

> <Gold.Chemscore.Rot>
2.6324

> <Gold.Chemscore.Internal.Correction>
   9.000000E+99

> <Gold.Chemscore.Hbonds>
donor molecule, donor type, donor heavy atom, donor atom, acceptor molecule, acceptor atom, score
      L1  H    22    51       P1  8028  0.70
      P1  H  7989  7998       L1    14  0.44

> <Gold.Chemscore.Hbond.Weighted>
-5.0025

> <Gold.Chemscore.Metal.Weighted>
-0.0000

> <Gold.Chemscore.Lipo.Weighted>
-12.5958

> <Gold.Chemscore.Internal_Hbond.Weighted>
0.0000

> <Gold.Chemscore.DEClash.Weighted>
0.1994

> <Gold.Chemscore.DEInternal.Weighted>
3.1387

> <Gold.Chemscore.Rot.Weighted>
6.7389

> <Gold.Chemscore.Internal.Correction.Weighted>
   9.000000E+99

> <Gold.Protein.RotatedTorsions>
[ 6907 6896 6895 6894 ] final  -45.53 input  -60.11 | X-H torsion
[ 7974 7965 7964 7962 ] final -160.68 input  175.53 | X-H torsion
[ 8008 7997 7996 7995 ] final   34.90 input   59.86 | X-H torsion
[ 10167 10162 10161 10158 ] final  -57.28 input  -65.29 | X-H torsion
[ 10718 10713 10712 10709 ] final   99.18 input   66.30 | X-H torsion
[ 10763 10752 10751 10750 ] final  153.72 input  -60.55 | X-H torsion
[ 11005 11000 10999 10996 ] final  138.78 input  -57.11 | X-H torsion

> <Gold.Protein.ActiveResidues>
 VAL166  LYS551  ARG553  GLY616  TRP617  ASP618  TYR619  PRO620  LYS621  CYS622 
 ASP623  PHE694  ASN695  SER759  ASP760  ASP761  ALA762  ILE779  LEU786  VAL792 
 PHE793  MET794  SER795  GLU796  ALA797  LYS798  CYS799  TRP800  GLU811  SER814 

> <Gold.Protein.RotatedAtoms>
  150.9209  134.8627  159.7487 H   0  0  0  0  0  0  0  0  0  0  0  0  # atno 6907 bound_to 6896
  152.4992  134.4219  159.9493 H   0  0  0  0  0  0  0  0  0  0  0  0  # atno 6908 bound_to 6896
  151.4254  133.3646  159.2796 H   0  0  0  0  0  0  0  0  0  0  0  0  # atno 6909 bound_to 6896
  144.7418  140.3507  143.6116 H   0  0  0  0  0  0  0  0  0  0  0  0  # atno 7974 bound_to 7965
  155.1624  140.3284  155.4409 H   0  0  0  0  0  0  0  0  0  0  0  0  # atno 8008 bound_to 7997
  156.2538  140.1958  156.6681 H   0  0  0  0  0  0  0  0  0  0  0  0  # atno 8009 bound_to 7997
  154.6395  140.0572  156.9815 H   0  0  0  0  0  0  0  0  0  0  0  0  # atno 8010 bound_to 7997
  140.6267  143.2441  151.5345 H   0  0  0  0  0  0  0  0  0  0  0  0  # atno 10167 bound_to 10162
  157.6881  131.0662  150.4909 H   0  0  0  0  0  0  0  0  0  0  0  0  # atno 10718 bound_to 10713
  154.1408  135.2821  155.3161 H   0  0  0  0  0  0  0  0  0  0  0  0  # atno 10763 bound_to 10752
  154.6288  135.5442  153.7661 H   0  0  0  0  0  0  0  0  0  0  0  0  # atno 10764 bound_to 10752
  153.0251  135.6457  154.1555 H   0  0  0  0  0  0  0  0  0  0  0  0  # atno 10765 bound_to 10752
  140.0208  134.9397  157.0470 H   0  0  0  0  0  0  0  0  0  0  0  0  # atno 11005 bound_to 11000
  145.7279  139.1728  143.2447 LP  0  0  0  0  0  0  0  0  0  0  0  0  # atno 17320 bound_to 7965
  146.1228  140.7287  142.9449 LP  0  0  0  0  0  0  0  0  0  0  0  0  # atno 17321 bound_to 7965
  139.5487  144.2454  152.1490 LP  0  0  0  0  0  0  0  0  0  0  0  0  # atno 17342 bound_to 10162
  140.1687  144.4957  150.6592 LP  0  0  0  0  0  0  0  0  0  0  0  0  # atno 17343 bound_to 10162
  156.5236  130.4168  149.6238 LP  0  0  0  0  0  0  0  0  0  0  0  0  # atno 17370 bound_to 10713
  156.3132  130.7240  151.2137 LP  0  0  0  0  0  0  0  0  0  0  0  0  # atno 17371 bound_to 10713
  140.4390  134.1700  155.7172 LP  0  0  0  0  0  0  0  0  0  0  0  0  # atno 17394 bound_to 11000
  141.1772  133.8488  157.1380 LP  0  0  0  0  0  0  0  0  0  0  0  0  # atno 17395 bound_to 11000

$$$$
