AV-unprocessed.smi:3172|AV-procd|sdf|12116|dock6
  -GOLD-   2272017553D 1   1.00000     0.00000
 Structure written by MMmdl.
 43 44  0  0  0  0  0  0  0  0  2 V2000
  145.3329  133.6125  152.0778 C   0  0  0  0  0  0  0  0  0  0  0  0
  145.3810  135.0700  152.4173 C   0  0  0  0  0  0  0  0  0  0  0  0
  144.5990  135.9983  151.7345 N   0  0  0  0  0  0  0  0  0  0  0  0
  144.9077  137.1534  152.3062 C   0  0  0  0  0  0  0  0  0  0  0  0
  145.8184  137.0642  153.2858 N   0  0  0  0  0  0  0  0  0  0  0  0
  146.3462  138.1630  154.0778 C   0  0  0  0  0  0  0  0  0  0  0  0
  147.0418  139.2436  153.2249 C   0  0  1  0  0  0  0  0  0  0  0  0
  146.8835  140.6601  153.8039 C   0  0  0  0  0  0  0  0  0  0  0  0
  148.4782  138.9126  153.0873 N   0  3  0  0  0  0  0  0  0  0  0  0
  149.2954  139.0446  154.3148 C   0  0  0  0  0  0  0  0  0  0  0  0
  149.8113  140.4908  154.4414 C   0  0  0  0  0  0  0  0  0  0  0  0
  150.6865  140.6724  155.6918 C   0  0  0  0  0  0  0  0  0  0  0  0
  151.8571  139.6775  155.6991 C   0  0  0  0  0  0  0  0  0  0  0  0
  151.3542  138.2310  155.5747 C   0  0  0  0  0  0  0  0  0  0  0  0
  150.4767  138.0498  154.3252 C   0  0  0  0  0  0  0  0  0  0  0  0
  146.1329  135.7095  153.3801 C   0  0  0  0  0  0  0  0  0  0  0  0
  147.1097  135.1494  154.3640 C   0  0  0  0  0  0  0  0  0  0  0  0
  144.9605  133.0267  152.9184 H   0  0  0  0  0  0  0  0  0  0  0  0
  146.3242  133.2359  151.8241 H   0  0  0  0  0  0  0  0  0  0  0  0
  144.6793  133.4189  151.2263 H   0  0  0  0  0  0  0  0  0  0  0  0
  144.4644  138.0896  151.9994 H   0  0  0  0  0  0  0  0  0  0  0  0
  145.5242  138.6036  154.6444 H   0  0  0  0  0  0  0  0  0  0  0  0
  147.0399  137.7544  154.8135 H   0  0  0  0  0  0  0  0  0  0  0  0
  146.5790  139.2358  152.2378 H   0  0  0  0  0  0  0  0  0  0  0  0
  145.8370  140.9647  153.8357 H   0  0  0  0  0  0  0  0  0  0  0  0
  147.4125  141.3968  153.1989 H   0  0  0  0  0  0  0  0  0  0  0  0
  147.2786  140.7200  154.8184 H   0  0  0  0  0  0  0  0  0  0  0  0
  148.5679  137.9721  152.7300 H   0  0  0  0  0  0  0  0  0  0  0  0
  148.6514  138.8440  155.1729 H   0  0  0  0  0  0  0  0  0  0  0  0
  150.3890  140.7575  153.5549 H   0  0  0  0  0  0  0  0  0  0  0  0
  148.9708  141.1848  154.4820 H   0  0  0  0  0  0  0  0  0  0  0  0
  151.0664  141.6935  155.7348 H   0  0  0  0  0  0  0  0  0  0  0  0
  150.0801  140.5306  156.5874 H   0  0  0  0  0  0  0  0  0  0  0  0
  152.5339  139.9021  154.8737 H   0  0  0  0  0  0  0  0  0  0  0  0
  152.4372  139.7925  156.6152 H   0  0  0  0  0  0  0  0  0  0  0  0
  152.2012  137.5454  155.5371 H   0  0  0  0  0  0  0  0  0  0  0  0
  150.7818  137.9657  156.4645 H   0  0  0  0  0  0  0  0  0  0  0  0
  150.1140  137.0222  154.2933 H   0  0  0  0  0  0  0  0  0  0  0  0
  151.0864  138.1898  153.4313 H   0  0  0  0  0  0  0  0  0  0  0  0
  147.0616  134.0606  154.3860 H   0  0  0  0  0  0  0  0  0  0  0  0
  146.9025  135.5086  155.3721 H   0  0  0  0  0  0  0  0  0  0  0  0
  148.1299  135.4306  154.1034 H   0  0  0  0  0  0  0  0  0  0  0  0
  148.8645  139.5473  152.4033 H   0  0  0  0  0  0  0  0  0  0  0  0
  1  2  1  0  0  0  0
  1 18  1  0  0  0  0
  1 19  1  0  0  0  0
  1 20  1  0  0  0  0
  2 16  2  0  0  0  0
  2  3  1  0  0  0  0
  3  4  2  0  0  0  0
  4  5  1  0  0  0  0
  4 21  1  0  0  0  0
  5  6  1  0  0  0  0
  5 16  1  0  0  0  0
  6  7  1  0  0  0  0
  6 22  1  0  0  0  0
  6 23  1  0  0  0  0
  7  8  1  0  0  0  0
  7  9  1  0  0  0  0
  7 24  1  0  0  0  0
  8 25  1  0  0  0  0
  8 26  1  0  0  0  0
  8 27  1  0  0  0  0
  9 10  1  0  0  0  0
  9 28  1  0  0  0  0
  9 43  1  0  0  0  0
 10 15  1  0  0  0  0
 10 11  1  0  0  0  0
 10 29  1  0  0  0  0
 11 12  1  0  0  0  0
 11 30  1  0  0  0  0
 11 31  1  0  0  0  0
 12 13  1  0  0  0  0
 12 32  1  0  0  0  0
 12 33  1  0  0  0  0
 13 14  1  0  0  0  0
 13 34  1  0  0  0  0
 13 35  1  0  0  0  0
 14 15  1  0  0  0  0
 14 36  1  0  0  0  0
 14 37  1  0  0  0  0
 15 38  1  0  0  0  0
 15 39  1  0  0  0  0
 16 17  1  0  0  0  0
 17 40  1  0  0  0  0
 17 41  1  0  0  0  0
 17 42  1  0  0  0  0
M  CHG  1   9   1
M  END
> <s_m_source_file>
AV-unprocessed.smi

> <i_m_source_file_index>
3172

> <i_lp_mmshare_version>
43012

> <i_f3d_flags>
0

> <s_epik_input>
W0NIM11jMW5bY0hdbihjMVtDSDNdKVtDSDJdW0NASF0oW0NIM10pW05IXVtDSF0yW0NIMl1bQ0gyXVtDSDJdW0NIMl1bQ0gyXTI=

> <s_epik_cmdline>
J2VwaWtfcHl0aG9uJywgJy1waCcsICc3LjAnLCAnLXRuJywgJzgnLCAnLW1hJywgJzIwMCcsICctbWV0YWxfYmluZGluZycsICctaW1hZScsICc8aW5maWxlLm1hZT4nLCAnLW9tYWUnLCAnPG91dGZpbGUubWFlPic=

> <r_lp_tautomer_probability>
1

> <r_epik_Ionization_Penalty>
0.328572

> <r_epik_Ionization_Penalty_Charging>
0.328572

> <r_epik_Ionization_Penalty_Neutral>
3.58496e-13

> <r_epik_State_Penalty>
0.596179

> <r_epik_Charging_Adjusted_Penalty>
0.924751

> <i_epik_Tot_Q>
1

> <i_epik_Tot_abs_Q>
1

> <r_epik_Metal_State_Penalty>
0.00102252

> <b_epik_Metal_Only>
0

> <s_lp_Force_Field>
OPLS_2005

> <r_lp_Energy>
17.121

> <b_lp_Chiralities_Consistent>
1

> <s_lp_Variant>
AV-unprocessed.smi:3172-4

> <Gold.Version>
5.8.1

> <Gold.Id.Protein>
6NUR|6NUR_protein|mol2

> <Gold.PLP.Fitness>
39.1411

> <Gold.PLP.PLP>
-26.0071

> <Gold.PLP.part.hbond>
-1.8827

> <Gold.PLP.part.metal>
0.0000

> <Gold.PLP.part.buried>
-0.4174

> <Gold.PLP.part.nonpolar>
-24.4171

> <Gold.PLP.part.repulsive>
0.2673

> <Gold.PLP.ligand.clash>
0.0000

> <Gold.PLP.ligand.torsion>
0.7854

> <Gold.PLP.Chemscore.Hbond>
2.9913

> <Gold.PLP.Chemscore.CHOScore>
1.8992

> <Gold.PLP.Chemscore.Metal>
0.0000

> <Gold.Chemscore.Hbonds>
donor molecule, donor type, donor heavy atom, donor atom, acceptor molecule, acceptor atom, score
      L1  H     9    28       P1  7948  2.00
      L1  H     9    43       P1  7957  0.99
      L1  C     4    21       P1 10171  0.89
      L1  C     4    21       P1 10175  1.00

> <Gold.PLP.Chemscore.Internal.Correction>
0.0335

> <Gold.Rescore>
     Score         DG    S(hbond)    S(metal)    S(lipo)     H(rot)  DE(clash)    DE(int)     intcor
     14.49     -16.16       1.97        0.00      67.78       1.50       0.01       1.66       ----

> <Gold.Chemscore.Fitness>
14.4895

> <Gold.Chemscore.DG>
-16.1600

> <Gold.Chemscore.ZeroCoef>
-5.4800

> <Gold.Chemscore.Hbond>
1.9728

> <Gold.Chemscore.Metal>
0.0000

> <Gold.Chemscore.Lipo>
67.7830

> <Gold.Chemscore.Internal_Hbond>
0.0000

> <Gold.Chemscore.DEClash>
0.0149

> <Gold.Chemscore.DEInternal>
1.6557

> <Gold.Chemscore.Rot>
1.4999

> <Gold.Chemscore.Internal.Correction>
   9.000000E+99

> <Gold.Chemscore.Hbonds>
donor molecule, donor type, donor heavy atom, donor atom, acceptor molecule, acceptor atom, score
      L1  H     9    28       P1  7948  0.99
      L1  H     9    43       P1  7957  0.92

> <Gold.Chemscore.Hbond.Weighted>
-6.5891

> <Gold.Chemscore.Metal.Weighted>
-0.0000

> <Gold.Chemscore.Lipo.Weighted>
-7.9306

> <Gold.Chemscore.Internal_Hbond.Weighted>
0.0000

> <Gold.Chemscore.DEClash.Weighted>
0.0149

> <Gold.Chemscore.DEInternal.Weighted>
1.6557

> <Gold.Chemscore.Rot.Weighted>
3.8397

> <Gold.Chemscore.Internal.Correction.Weighted>
   9.000000E+99

> <Gold.Protein.RotatedTorsions>
[ 6907 6896 6895 6894 ] final  160.02 input  -60.11 | X-H torsion
[ 7974 7965 7964 7962 ] final  135.65 input  175.53 | X-H torsion
[ 8008 7997 7996 7995 ] final   94.39 input   59.86 | X-H torsion
[ 10167 10162 10161 10158 ] final -116.38 input  -65.29 | X-H torsion
[ 10718 10713 10712 10709 ] final -137.74 input   66.30 | X-H torsion
[ 10763 10752 10751 10750 ] final   93.39 input  -60.55 | X-H torsion
[ 11005 11000 10999 10996 ] final -112.05 input  -57.11 | X-H torsion

> <Gold.Protein.ActiveResidues>
 VAL166  LYS551  ARG553  GLY616  TRP617  ASP618  TYR619  PRO620  LYS621  CYS622 
 ASP623  PHE694  ASN695  SER759  ASP760  ASP761  ALA762  ILE779  LEU786  VAL792 
 PHE793  MET794  SER795  GLU796  ALA797  LYS798  CYS799  TRP800  GLU811  SER814 

> <Gold.Protein.RotatedAtoms>
  151.9769  133.3744  159.4092 H   0  0  0  0  0  0  0  0  0  0  0  0  # atno 6907 bound_to 6896
  150.6940  134.4080  159.5158 H   0  0  0  0  0  0  0  0  0  0  0  0  # atno 6908 bound_to 6896
  152.1793  134.8767  160.0578 H   0  0  0  0  0  0  0  0  0  0  0  0  # atno 6909 bound_to 6896
  144.9642  139.4676  143.5464 H   0  0  0  0  0  0  0  0  0  0  0  0  # atno 7974 bound_to 7965
  156.0574  140.3300  155.7421 H   0  0  0  0  0  0  0  0  0  0  0  0  # atno 8008 bound_to 7997
  155.5508  140.0610  157.2868 H   0  0  0  0  0  0  0  0  0  0  0  0  # atno 8009 bound_to 7997
  154.4464  140.1894  156.0673 H   0  0  0  0  0  0  0  0  0  0  0  0  # atno 8010 bound_to 7997
  140.0799  143.4798  152.1932 H   0  0  0  0  0  0  0  0  0  0  0  0  # atno 10167 bound_to 10162
  156.2915  130.7378  151.1405 H   0  0  0  0  0  0  0  0  0  0  0  0  # atno 10718 bound_to 10713
  153.2298  135.4327  155.0582 H   0  0  0  0  0  0  0  0  0  0  0  0  # atno 10763 bound_to 10752
  154.8291  135.3376  154.6804 H   0  0  0  0  0  0  0  0  0  0  0  0  # atno 10764 bound_to 10752
  153.7232  135.7015  153.5064 H   0  0  0  0  0  0  0  0  0  0  0  0  # atno 10765 bound_to 10752
  141.0698  133.9398  157.2507 H   0  0  0  0  0  0  0  0  0  0  0  0  # atno 11005 bound_to 11000
  146.3362  139.8812  142.8824 LP  0  0  0  0  0  0  0  0  0  0  0  0  # atno 17320 bound_to 7965
  145.2654  141.0091  143.3802 LP  0  0  0  0  0  0  0  0  0  0  0  0  # atno 17321 bound_to 7965
  139.5786  144.7499  151.3700 LP  0  0  0  0  0  0  0  0  0  0  0  0  # atno 17342 bound_to 10162
  140.7083  143.7457  150.7521 LP  0  0  0  0  0  0  0  0  0  0  0  0  # atno 17343 bound_to 10162
  157.7344  131.0582  150.5528 LP  0  0  0  0  0  0  0  0  0  0  0  0  # atno 17370 bound_to 10713
  156.5645  130.4264  149.6048 LP  0  0  0  0  0  0  0  0  0  0  0  0  # atno 17371 bound_to 10713
  139.9512  135.0175  156.9000 LP  0  0  0  0  0  0  0  0  0  0  0  0  # atno 17394 bound_to 11000
  140.5697  134.0455  155.7426 LP  0  0  0  0  0  0  0  0  0  0  0  0  # atno 17395 bound_to 11000

$$$$
