AV-unprocessed.smi:1929|AV-procd|sdf|7806|dock7
  -GOLD-   22720 9543D 1   1.00000     0.00000
 Structure written by MMmdl.
 42 43  0  0  0  0  0  0  0  0  3 V2000
  148.2252  134.7295  157.5862 C   0  0  0  0  0  0  0  0  0  0  0  0
  149.6551  134.4460  157.5457 N   0  5  0  0  0  0  0  0  0  0  0  0
  150.4863  134.9142  156.5762 C   0  0  0  0  0  0  0  0  0  0  0  0
  151.6599  135.2958  156.6348 O   0  0  0  0  0  0  0  0  0  0  0  0
  149.7742  134.9718  155.2197 C   0  0  0  0  0  0  0  0  0  0  0  0
  149.5949  136.3810  154.7883 N   0  3  2  0  0  0  0  0  0  0  0  0
  150.8661  137.1548  154.7663 C   0  0  0  0  0  0  0  0  0  0  0  0
  150.6478  138.5687  154.2003 C   0  0  0  0  0  0  0  0  0  0  0  0
  149.5628  139.3386  154.9782 C   0  0  2  0  0  0  0  0  0  0  0  0
  150.0085  139.6897  156.3267 N   0  0  0  0  0  0  0  0  0  0  0  0
  150.2925  140.9296  156.7519 C   0  0  0  0  0  0  0  0  0  0  0  0
  150.1938  141.9277  156.0388 O   0  0  0  0  0  0  0  0  0  0  0  0
  150.7119  140.9193  158.0291 N   0  0  0  0  0  0  0  0  0  0  0  0
  151.1380  142.0095  158.8358 C   0  0  0  0  0  0  0  0  0  0  0  0
  150.8750  143.3130  158.3660 C   0  0  0  0  0  0  0  0  0  0  0  0
  151.2987  144.4125  159.1390 C   0  0  0  0  0  0  0  0  0  0  0  0
  151.9558  144.2859  160.3109 N   0  0  0  0  0  0  0  0  0  0  0  0
  152.2192  143.0378  160.7524 C   0  0  0  0  0  0  0  0  0  0  0  0
  151.8397  141.8717  160.0578 C   0  0  0  0  0  0  0  0  0  0  0  0
  148.2790  138.4932  155.0381 C   0  0  0  0  0  0  0  0  0  0  0  0
  148.5442  137.0749  155.5761 C   0  0  0  0  0  0  0  0  0  0  0  0
  147.7244  134.1714  158.3772 H   0  0  0  0  0  0  0  0  0  0  0  0
  147.7204  134.4650  156.6563 H   0  0  0  0  0  0  0  0  0  0  0  0
  148.0163  135.7839  157.7705 H   0  0  0  0  0  0  0  0  0  0  0  0
  150.4104  134.4442  154.5079 H   0  0  0  0  0  0  0  0  0  0  0  0
  148.8156  134.4478  155.2212 H   0  0  0  0  0  0  0  0  0  0  0  0
  151.2792  137.2089  155.7746 H   0  0  0  0  0  0  0  0  0  0  0  0
  151.6091  136.6455  154.1525 H   0  0  0  0  0  0  0  0  0  0  0  0
  151.5884  139.1201  154.2015 H   0  0  0  0  0  0  0  0  0  0  0  0
  150.3491  138.4894  153.1542 H   0  0  0  0  0  0  0  0  0  0  0  0
  149.3355  140.2644  154.4464 H   0  0  0  0  0  0  0  0  0  0  0  0
  150.1167  138.9296  156.9820 H   0  0  0  0  0  0  0  0  0  0  0  0
  150.8020  140.0095  158.4566 H   0  0  0  0  0  0  0  0  0  0  0  0
  150.3537  143.4735  157.4337 H   0  0  0  0  0  0  0  0  0  0  0  0
  151.1051  145.4213  158.8054 H   0  0  0  0  0  0  0  0  0  0  0  0
  152.7554  142.9648  161.6870 H   0  0  0  0  0  0  0  0  0  0  0  0
  152.1035  140.9095  160.4681 H   0  0  0  0  0  0  0  0  0  0  0  0
  147.5253  138.9916  155.6493 H   0  0  0  0  0  0  0  0  0  0  0  0
  147.8539  138.4183  154.0361 H   0  0  0  0  0  0  0  0  0  0  0  0
  147.6171  136.5015  155.5359 H   0  0  0  0  0  0  0  0  0  0  0  0
  148.8438  137.1157  156.6244 H   0  0  0  0  0  0  0  0  0  0  0  0
  149.2595  136.3386  153.8365 H   0  0  0  0  0  0  0  0  0  0  0  0
  1  2  1  0  0  0  0
  1 22  1  0  0  0  0
  1 23  1  0  0  0  0
  1 24  1  0  0  0  0
  2  3  1  0  0  0  0
  3  4  2  0  0  0  0
  3  5  1  0  0  0  0
  5  6  1  0  0  0  0
  5 25  1  0  0  0  0
  5 26  1  0  0  0  0
  6 21  1  0  0  0  0
  6  7  1  0  0  0  0
  6 42  1  0  0  0  0
  7  8  1  0  0  0  0
  7 27  1  0  0  0  0
  7 28  1  0  0  0  0
  8  9  1  0  0  0  0
  8 29  1  0  0  0  0
  8 30  1  0  0  0  0
  9 10  1  0  0  0  0
  9 20  1  0  0  0  0
  9 31  1  0  0  0  0
 10 11  1  0  0  0  0
 10 32  1  0  0  0  0
 11 12  2  0  0  0  0
 11 13  1  0  0  0  0
 13 14  1  0  0  0  0
 13 33  1  0  0  0  0
 14 19  1  0  0  0  0
 14 15  2  0  0  0  0
 15 16  1  0  0  0  0
 15 34  1  0  0  0  0
 16 17  2  0  0  0  0
 16 35  1  0  0  0  0
 17 18  1  0  0  0  0
 18 19  2  0  0  0  0
 18 36  1  0  0  0  0
 19 37  1  0  0  0  0
 20 21  1  0  0  0  0
 20 38  1  0  0  0  0
 20 39  1  0  0  0  0
 21 40  1  0  0  0  0
 21 41  1  0  0  0  0
M  CHG  1   2  -1
M  CHG  1   6   1
M  END
> <s_m_source_file>
AV-unprocessed.smi

> <i_m_source_file_index>
1929

> <i_lp_mmshare_version>
43012

> <i_f3d_flags>
0

> <s_epik_input>
W0NIM11bTkhdQyg9TylbQ0gyXU4xW0NIMl1bQ0gyXVtDSF0oW0NIMl1bQ0gyXTEpW05IXUMoPU8pW05IXWMyW2NIXVtjSF1uW2NIXVtjSF0y

> <s_epik_cmdline>
J2VwaWtfcHl0aG9uJywgJy1waCcsICc3LjAnLCAnLXRuJywgJzgnLCAnLW1hJywgJzIwMCcsICctbWV0YWxfYmluZGluZycsICctaW1hZScsICc8aW5maWxlLm1hZT4nLCAnLW9tYWUnLCAnPG91dGZpbGUubWFlPic=

> <r_epik_Ionization_Penalty>
6.23856

> <r_epik_Ionization_Penalty_Charging>
6.13946

> <r_epik_Ionization_Penalty_Neutral>
0.0990993

> <r_epik_State_Penalty>
7.04382

> <r_epik_Charging_Adjusted_Penalty>
13.1833

> <i_epik_Tot_Q>
0

> <i_epik_Tot_abs_Q>
2

> <r_epik_Metal_State_Penalty>
3.07449

> <b_epik_Metal_Only>
1

> <s_lp_Force_Field>
OPLS_2005

> <r_lp_Energy>
14.5033

> <b_lp_Chiralities_Consistent>
1

> <s_lp_Variant>
AV-unprocessed.smi:1929-8

> <Gold.Version>
5.8.1

> <Gold.Id.Protein>
6NUR|6NUR_protein|mol2

> <Gold.PLP.Fitness>
47.3612

> <Gold.PLP.PLP>
-33.5973

> <Gold.PLP.part.hbond>
-3.0000

> <Gold.PLP.part.metal>
0.0000

> <Gold.PLP.part.buried>
-5.0669

> <Gold.PLP.part.nonpolar>
-26.0710

> <Gold.PLP.part.repulsive>
0.2730

> <Gold.PLP.ligand.clash>
0.0000

> <Gold.PLP.ligand.torsion>
0.4729

> <Gold.PLP.Chemscore.Hbond>
4.8880

> <Gold.PLP.Chemscore.CHOScore>
0.0000

> <Gold.PLP.Chemscore.Metal>
0.0000

> <Gold.Chemscore.Hbonds>
donor molecule, donor type, donor heavy atom, donor atom, acceptor molecule, acceptor atom, score
      L1  H     6    42       P1  7948  2.00
      P1  H  6896  6909       L1     2  1.55
      P1  H 10752 10764       L1     4  0.67

> <Gold.PLP.Chemscore.Internal.Correction>
0.0457

> <Gold.Rescore>
     Score         DG    S(hbond)    S(metal)    S(lipo)     H(rot)  DE(clash)    DE(int)     intcor
     16.42     -19.73       2.53        0.00      85.24       1.63       0.04       3.27       ----

> <Gold.Chemscore.Fitness>
16.4205

> <Gold.Chemscore.DG>
-19.7323

> <Gold.Chemscore.ZeroCoef>
-5.4800

> <Gold.Chemscore.Hbond>
2.5324

> <Gold.Chemscore.Metal>
0.0000

> <Gold.Chemscore.Lipo>
85.2371

> <Gold.Chemscore.Internal_Hbond>
0.0000

> <Gold.Chemscore.DEClash>
0.0380

> <Gold.Chemscore.DEInternal>
3.2738

> <Gold.Chemscore.Rot>
1.6323

> <Gold.Chemscore.Internal.Correction>
   9.000000E+99

> <Gold.Chemscore.Hbonds>
donor molecule, donor type, donor heavy atom, donor atom, acceptor molecule, acceptor atom, score
      L1  H     6    42       P1  7948  0.91
      P1  H  6896  6909       L1     2  0.57
      P1  H 10752 10764       L1     4  0.66

> <Gold.Chemscore.Hbond.Weighted>
-8.4581

> <Gold.Chemscore.Metal.Weighted>
-0.0000

> <Gold.Chemscore.Lipo.Weighted>
-9.9727

> <Gold.Chemscore.Internal_Hbond.Weighted>
0.0000

> <Gold.Chemscore.DEClash.Weighted>
0.0380

> <Gold.Chemscore.DEInternal.Weighted>
3.2738

> <Gold.Chemscore.Rot.Weighted>
4.1786

> <Gold.Chemscore.Internal.Correction.Weighted>
   9.000000E+99

> <Gold.Protein.RotatedTorsions>
[ 6907 6896 6895 6894 ] final    8.20 input  -60.11 | X-H torsion
[ 7974 7965 7964 7962 ] final   92.10 input  175.53 | X-H torsion
[ 8008 7997 7996 7995 ] final -122.94 input   59.86 | X-H torsion
[ 10167 10162 10161 10158 ] final   72.96 input  -65.29 | X-H torsion
[ 10718 10713 10712 10709 ] final   51.29 input   66.30 | X-H torsion
[ 10763 10752 10751 10750 ] final  -18.20 input  -60.55 | X-H torsion
[ 11005 11000 10999 10996 ] final   16.04 input  -57.11 | X-H torsion

> <Gold.Protein.ActiveResidues>
 VAL166  LYS551  ARG553  GLY616  TRP617  ASP618  TYR619  PRO620  LYS621  CYS622 
 ASP623  PHE694  ASN695  SER759  ASP760  ASP761  ALA762  ILE779  LEU786  VAL792 
 PHE793  MET794  SER795  GLU796  ALA797  LYS798  CYS799  TRP800  GLU811  SER814 

> <Gold.Protein.RotatedAtoms>
  151.7022  135.0928  160.0252 H   0  0  0  0  0  0  0  0  0  0  0  0  # atno 6907 bound_to 6896
  152.3714  133.6419  159.6098 H   0  0  0  0  0  0  0  0  0  0  0  0  # atno 6908 bound_to 6896
  150.7676  133.9181  159.3431 H   0  0  0  0  0  0  0  0  0  0  0  0  # atno 6909 bound_to 6896
  145.4968  139.2276  143.2800 H   0  0  0  0  0  0  0  0  0  0  0  0  # atno 7974 bound_to 7965
  155.1724  140.0408  157.2865 H   0  0  0  0  0  0  0  0  0  0  0  0  # atno 8008 bound_to 7997
  154.6260  140.2512  155.7464 H   0  0  0  0  0  0  0  0  0  0  0  0  # atno 8009 bound_to 7997
  156.2459  140.2885  156.0590 H   0  0  0  0  0  0  0  0  0  0  0  0  # atno 8010 bound_to 7997
  140.0296  144.5476  150.7517 H   0  0  0  0  0  0  0  0  0  0  0  0  # atno 10167 bound_to 10162
  157.4966  130.8411  149.8266 H   0  0  0  0  0  0  0  0  0  0  0  0  # atno 10718 bound_to 10713
  153.5855  135.7004  153.5445 H   0  0  0  0  0  0  0  0  0  0  0  0  # atno 10763 bound_to 10752
  153.3223  135.4070  155.1427 H   0  0  0  0  0  0  0  0  0  0  0  0  # atno 10764 bound_to 10752
  154.8610  135.3698  154.5385 H   0  0  0  0  0  0  0  0  0  0  0  0  # atno 10765 bound_to 10752
  140.4516  134.1219  155.7703 H   0  0  0  0  0  0  0  0  0  0  0  0  # atno 11005 bound_to 11000
  146.2251  140.5765  142.9000 LP  0  0  0  0  0  0  0  0  0  0  0  0  # atno 17320 bound_to 7965
  144.7803  140.5826  143.6610 LP  0  0  0  0  0  0  0  0  0  0  0  0  # atno 17321 bound_to 7965
  140.7307  143.2687  151.3960 LP  0  0  0  0  0  0  0  0  0  0  0  0  # atno 17342 bound_to 10162
  139.6085  144.1148  152.2274 LP  0  0  0  0  0  0  0  0  0  0  0  0  # atno 17343 bound_to 10162
  156.0204  130.3797  150.1979 LP  0  0  0  0  0  0  0  0  0  0  0  0  # atno 17370 bound_to 10713
  157.0168  130.9967  151.3351 LP  0  0  0  0  0  0  0  0  0  0  0  0  # atno 17371 bound_to 10713
  141.1661  133.8699  157.1709 LP  0  0  0  0  0  0  0  0  0  0  0  0  # atno 17394 bound_to 11000
  140.0003  135.0030  157.0175 LP  0  0  0  0  0  0  0  0  0  0  0  0  # atno 17395 bound_to 11000

$$$$
