AV-unprocessed.smi:3056|AV-procd|sdf|11650|dock10
  -GOLD-   2272017 43D 1   1.00000     0.00000
 Structure written by MMmdl.
 48 49  0  0  0  0  0  0  0  0  2 V2000
  151.7267  145.3930  160.2469 C   0  0  0  0  0  0  0  0  0  0  0  0
  151.6830  144.2214  159.3087 C   0  0  0  0  0  0  0  0  0  0  0  0
  152.5572  143.0988  159.2693 C   0  0  0  0  0  0  0  0  0  0  0  0
  152.2510  142.2428  158.3082 N   0  0  0  0  0  0  0  0  0  0  0  0
  151.1631  142.7756  157.7099 N   0  0  0  0  0  0  0  0  0  0  0  0
  150.5695  142.0995  156.5622 C   0  0  1  0  0  0  0  0  0  0  0  0
  151.4660  140.9227  156.1308 C   0  0  0  0  0  0  0  0  0  0  0  0
  149.0990  141.6860  156.8479 C   0  0  2  0  0  0  0  0  0  0  0  0
  148.9196  140.1594  156.9079 C   0  0  0  0  0  0  0  0  0  0  0  0
  148.1869  142.2194  155.8052 N   0  3  0  0  0  0  0  0  0  0  0  0
  146.7409  141.9681  156.0130 C   0  0  0  0  0  0  0  0  0  0  0  0
  145.8330  142.7652  155.0612 C   0  0  0  0  0  0  0  0  0  0  0  0
  146.1822  142.9123  153.8888 O   0  0  0  0  0  0  0  0  0  0  0  0
  144.6813  143.2902  155.5432 N   0  0  0  0  0  0  0  0  0  0  0  0
  144.2183  143.2274  156.9328 C   0  0  0  0  0  0  0  0  0  0  0  0
  144.2268  144.6561  157.5039 C   0  0  0  0  0  0  0  0  0  0  0  0
  143.4014  145.4981  156.7017 O   0  0  0  0  0  0  0  0  0  0  0  0
  143.8032  145.5543  155.3332 C   0  0  2  0  0  0  0  0  0  0  0  0
  142.8544  146.5025  154.5923 C   0  0  0  0  0  0  0  0  0  0  0  0
  143.7847  144.1292  154.7435 C   0  0  0  0  0  0  0  0  0  0  0  0
  150.8065  143.9774  158.2899 C   0  0  0  0  0  0  0  0  0  0  0  0
  152.4007  145.2164  161.0855 H   0  0  0  0  0  0  0  0  0  0  0  0
  150.7441  145.6102  160.6661 H   0  0  0  0  0  0  0  0  0  0  0  0
  152.0699  146.2974  159.7443 H   0  0  0  0  0  0  0  0  0  0  0  0
  153.4053  142.8852  159.9033 H   0  0  0  0  0  0  0  0  0  0  0  0
  150.5649  142.8103  155.7335 H   0  0  0  0  0  0  0  0  0  0  0  0
  151.1638  140.5193  155.1648 H   0  0  0  0  0  0  0  0  0  0  0  0
  151.4384  140.1084  156.8553 H   0  0  0  0  0  0  0  0  0  0  0  0
  152.5043  141.2406  156.0273 H   0  0  0  0  0  0  0  0  0  0  0  0
  148.8015  142.0842  157.8195 H   0  0  0  0  0  0  0  0  0  0  0  0
  149.4682  139.7196  157.7405 H   0  0  0  0  0  0  0  0  0  0  0  0
  149.2617  139.6814  155.9892 H   0  0  0  0  0  0  0  0  0  0  0  0
  147.8713  139.8937  157.0483 H   0  0  0  0  0  0  0  0  0  0  0  0
  148.3353  143.2172  155.7502 H   0  0  0  0  0  0  0  0  0  0  0  0
  146.5288  140.9031  155.9301 H   0  0  0  0  0  0  0  0  0  0  0  0
  146.5067  142.2663  157.0353 H   0  0  0  0  0  0  0  0  0  0  0  0
  143.2055  142.8223  156.9562 H   0  0  0  0  0  0  0  0  0  0  0  0
  144.8121  142.5746  157.5702 H   0  0  0  0  0  0  0  0  0  0  0  0
  143.8454  144.6575  158.5251 H   0  0  0  0  0  0  0  0  0  0  0  0
  145.2422  145.0540  157.5404 H   0  0  0  0  0  0  0  0  0  0  0  0
  144.8147  145.9605  155.2775 H   0  0  0  0  0  0  0  0  0  0  0  0
  143.1244  146.5838  153.5391 H   0  0  0  0  0  0  0  0  0  0  0  0
  142.8903  147.5037  155.0222 H   0  0  0  0  0  0  0  0  0  0  0  0
  141.8232  146.1526  154.6481 H   0  0  0  0  0  0  0  0  0  0  0  0
  144.0620  144.1593  153.6890 H   0  0  0  0  0  0  0  0  0  0  0  0
  142.7754  143.7159  154.7775 H   0  0  0  0  0  0  0  0  0  0  0  0
  149.9696  144.5586  157.9313 H   0  0  0  0  0  0  0  0  0  0  0  0
  148.4401  141.8086  154.9179 H   0  0  0  0  0  0  0  0  0  0  0  0
  1  2  1  0  0  0  0
  1 22  1  0  0  0  0
  1 23  1  0  0  0  0
  1 24  1  0  0  0  0
  2 21  2  0  0  0  0
  2  3  1  0  0  0  0
  3  4  2  0  0  0  0
  3 25  1  0  0  0  0
  4  5  1  0  0  0  0
  5  6  1  0  0  0  0
  5 21  1  0  0  0  0
  6  7  1  0  0  0  0
  6  8  1  0  0  0  0
  6 26  1  0  0  0  0
  7 27  1  0  0  0  0
  7 28  1  0  0  0  0
  7 29  1  0  0  0  0
  8  9  1  0  0  0  0
  8 10  1  0  0  0  0
  8 30  1  0  0  0  0
  9 31  1  0  0  0  0
  9 32  1  0  0  0  0
  9 33  1  0  0  0  0
 10 11  1  0  0  0  0
 10 34  1  0  0  0  0
 10 48  1  0  0  0  0
 11 12  1  0  0  0  0
 11 35  1  0  0  0  0
 11 36  1  0  0  0  0
 12 13  2  0  0  0  0
 12 14  1  0  0  0  0
 14 20  1  0  0  0  0
 14 15  1  0  0  0  0
 15 16  1  0  0  0  0
 15 37  1  0  0  0  0
 15 38  1  0  0  0  0
 16 17  1  0  0  0  0
 16 39  1  0  0  0  0
 16 40  1  0  0  0  0
 17 18  1  0  0  0  0
 18 19  1  0  0  0  0
 18 20  1  0  0  0  0
 18 41  1  0  0  0  0
 19 42  1  0  0  0  0
 19 43  1  0  0  0  0
 19 44  1  0  0  0  0
 20 45  1  0  0  0  0
 20 46  1  0  0  0  0
 21 47  1  0  0  0  0
M  CHG  1  10   1
M  END
> <s_m_source_file>
AV-unprocessed.smi

> <i_m_source_file_index>
3056

> <i_lp_mmshare_version>
43012

> <i_f3d_flags>
0

> <s_epik_input>
W0NIM11jMVtjSF1ubihbY0hdMSlbQ0BIXShbQ0gzXSlbQ0BIXShbQ0gzXSlbTkhdW0NIMl1DKD1PKU4yW0NIMl1bQ0gyXU9bQ0BASF0oW0NIM10pW0NIMl0y

> <s_epik_cmdline>
J2VwaWtfcHl0aG9uJywgJy1waCcsICc3LjAnLCAnLXRuJywgJzgnLCAnLW1hJywgJzIwMCcsICctbWV0YWxfYmluZGluZycsICctaW1hZScsICc8aW5maWxlLm1hZT4nLCAnLW9tYWUnLCAnPG91dGZpbGUubWFlPic=

> <r_lp_tautomer_probability>
1

> <r_epik_Ionization_Penalty>
0.233715

> <r_epik_Ionization_Penalty_Charging>
0.233698

> <r_epik_Ionization_Penalty_Neutral>
1.68157e-05

> <r_epik_State_Penalty>
0.225221

> <r_epik_Charging_Adjusted_Penalty>
0.458919

> <i_epik_Tot_Q>
1

> <i_epik_Tot_abs_Q>
1

> <r_epik_Metal_State_Penalty>
0.225535

> <b_epik_Metal_Only>
0

> <s_lp_Force_Field>
OPLS_2005

> <r_lp_Energy>
28.2676

> <b_lp_Chiralities_Consistent>
1

> <s_lp_Variant>
AV-unprocessed.smi:3056-6

> <Gold.Version>
5.8.1

> <Gold.Id.Protein>
6NUR|6NUR_protein|mol2

> <Gold.PLP.Fitness>
45.5214

> <Gold.PLP.PLP>
-39.7958

> <Gold.PLP.part.hbond>
-1.0000

> <Gold.PLP.part.metal>
0.0000

> <Gold.PLP.part.buried>
-5.1695

> <Gold.PLP.part.nonpolar>
-34.0273

> <Gold.PLP.part.repulsive>
0.2979

> <Gold.PLP.ligand.clash>
0.0000

> <Gold.PLP.ligand.torsion>
1.8418

> <Gold.PLP.Chemscore.Hbond>
2.0000

> <Gold.PLP.Chemscore.CHOScore>
1.1031

> <Gold.PLP.Chemscore.Metal>
0.0000

> <Gold.Chemscore.Hbonds>
donor molecule, donor type, donor heavy atom, donor atom, acceptor molecule, acceptor atom, score
      L1  H    10    34       P1  8028  2.00
      L1  C    21    47       P1  8028  0.68
      L1  C    21    47       P1  8029  0.45

> <Gold.PLP.Chemscore.Internal.Correction>
0.0998

> <Gold.Rescore>
     Score         DG    S(hbond)    S(metal)    S(lipo)     H(rot)  DE(clash)    DE(int)     intcor
     13.75     -15.60       0.96        0.00      97.16       1.74       0.14       1.72       ----

> <Gold.Chemscore.Fitness>
13.7458

> <Gold.Chemscore.DG>
-15.5993

> <Gold.Chemscore.ZeroCoef>
-5.4800

> <Gold.Chemscore.Hbond>
0.9565

> <Gold.Chemscore.Metal>
0.0000

> <Gold.Chemscore.Lipo>
97.1553

> <Gold.Chemscore.Internal_Hbond>
0.0000

> <Gold.Chemscore.DEClash>
0.1373

> <Gold.Chemscore.DEInternal>
1.7162

> <Gold.Chemscore.Rot>
1.7354

> <Gold.Chemscore.Internal.Correction>
   9.000000E+99

> <Gold.Chemscore.Hbonds>
donor molecule, donor type, donor heavy atom, donor atom, acceptor molecule, acceptor atom, score
      L1  H    10    34       P1  8028  0.91

> <Gold.Chemscore.Hbond.Weighted>
-3.1948

> <Gold.Chemscore.Metal.Weighted>
-0.0000

> <Gold.Chemscore.Lipo.Weighted>
-11.3672

> <Gold.Chemscore.Internal_Hbond.Weighted>
0.0000

> <Gold.Chemscore.DEClash.Weighted>
0.1373

> <Gold.Chemscore.DEInternal.Weighted>
1.7162

> <Gold.Chemscore.Rot.Weighted>
4.4426

> <Gold.Chemscore.Internal.Correction.Weighted>
   9.000000E+99

> <Gold.Protein.RotatedTorsions>
[ 6907 6896 6895 6894 ] final -117.71 input  -60.11 | X-H torsion
[ 7974 7965 7964 7962 ] final  106.56 input  175.53 | X-H torsion
[ 8008 7997 7996 7995 ] final -153.42 input   59.86 | X-H torsion
[ 10167 10162 10161 10158 ] final  161.27 input  -65.29 | X-H torsion
[ 10718 10713 10712 10709 ] final   52.07 input   66.30 | X-H torsion
[ 10763 10752 10751 10750 ] final  -12.46 input  -60.55 | X-H torsion
[ 11005 11000 10999 10996 ] final  -97.11 input  -57.11 | X-H torsion

> <Gold.Protein.ActiveResidues>
 VAL166  LYS551  ARG553  GLY616  TRP617  ASP618  TYR619  PRO620  LYS621  CYS622 
 ASP623  PHE694  ASN695  SER759  ASP760  ASP761  ALA762  ILE779  LEU786  VAL792 
 PHE793  MET794  SER795  GLU796  ALA797  LYS798  CYS799  TRP800  GLU811  SER814 

> <Gold.Protein.RotatedAtoms>
  150.8159  133.8338  159.3160 H   0  0  0  0  0  0  0  0  0  0  0  0  # atno 6907 bound_to 6896
  151.6110  135.1038  160.0091 H   0  0  0  0  0  0  0  0  0  0  0  0  # atno 6908 bound_to 6896
  152.4250  133.7139  159.6551 H   0  0  0  0  0  0  0  0  0  0  0  0  # atno 6909 bound_to 6896
  145.3051  139.2557  143.3793 H   0  0  0  0  0  0  0  0  0  0  0  0  # atno 7974 bound_to 7965
  155.6706  140.0733  157.2521 H   0  0  0  0  0  0  0  0  0  0  0  0  # atno 8008 bound_to 7997
  154.4124  140.1700  156.1926 H   0  0  0  0  0  0  0  0  0  0  0  0  # atno 8009 bound_to 7997
  155.9620  140.3369  155.6502 H   0  0  0  0  0  0  0  0  0  0  0  0  # atno 8010 bound_to 7997
  139.4848  144.4553  151.8777 H   0  0  0  0  0  0  0  0  0  0  0  0  # atno 10167 bound_to 10162
  157.5040  130.8457  149.8352 H   0  0  0  0  0  0  0  0  0  0  0  0  # atno 10718 bound_to 10713
  153.4988  135.7017  153.5843 H   0  0  0  0  0  0  0  0  0  0  0  0  # atno 10763 bound_to 10752
  153.3984  135.3878  155.1971 H   0  0  0  0  0  0  0  0  0  0  0  0  # atno 10764 bound_to 10752
  154.8712  135.3875  154.4456 H   0  0  0  0  0  0  0  0  0  0  0  0  # atno 10765 bound_to 10752
  141.1390  133.8147  157.0662 H   0  0  0  0  0  0  0  0  0  0  0  0  # atno 11005 bound_to 11000
  146.3138  140.3574  142.8661 LP  0  0  0  0  0  0  0  0  0  0  0  0  # atno 17320 bound_to 7965
  144.9062  140.7702  143.5836 LP  0  0  0  0  0  0  0  0  0  0  0  0  # atno 17321 bound_to 7965
  140.4012  144.2491  150.5893 LP  0  0  0  0  0  0  0  0  0  0  0  0  # atno 17342 bound_to 10162
  140.5055  143.2305  151.8614 LP  0  0  0  0  0  0  0  0  0  0  0  0  # atno 17343 bound_to 10162
  156.0247  130.3783  150.1859 LP  0  0  0  0  0  0  0  0  0  0  0  0  # atno 17370 bound_to 10713
  157.0048  130.9933  151.3381 LP  0  0  0  0  0  0  0  0  0  0  0  0  # atno 17371 bound_to 10713
  140.0540  134.9790  157.1187 LP  0  0  0  0  0  0  0  0  0  0  0  0  # atno 17394 bound_to 11000
  140.3947  134.2147  155.7165 LP  0  0  0  0  0  0  0  0  0  0  0  0  # atno 17395 bound_to 11000

$$$$
