AV-unprocessed.smi:20|AV-procd|sdf|120|dock9
  -GOLD-   2262015293D 1   1.00000     0.00000
 Structure written by MMmdl.
 57 61  0  0  0  0  0  0  0  0  1 V2000
  140.5932  136.8958  153.6541 O   0  0  0  0  0  0  0  0  0  0  0  0
  141.7552  136.6793  153.9898 C   0  0  0  0  0  0  0  0  0  0  0  0
  142.9449  137.4672  153.4695 C   0  0  0  0  0  0  0  0  0  0  0  0
  144.1578  136.5928  153.8706 C   0  0  1  0  0  0  0  0  0  0  0  0
  144.5876  135.6440  152.7193 C   0  0  0  0  0  0  0  0  0  0  0  0
  145.2907  136.3978  151.5764 C   0  0  0  0  0  0  0  0  0  0  0  0
  146.4521  137.2491  152.1077 C   0  0  0  0  0  0  0  0  0  0  0  0
  145.9987  138.1221  153.1877 N   0  0  0  0  0  0  0  0  0  0  0  0
  146.8213  139.1662  153.4579 C   0  0  0  0  0  0  0  0  0  0  0  0
  146.5609  140.3918  152.9288 N   0  0  0  0  0  0  0  0  0  0  0  0
  147.3656  141.4256  153.1920 C   0  0  0  0  0  0  0  0  0  0  0  0
  148.4688  141.4542  153.9419 N   0  0  0  0  0  0  0  0  0  0  0  0
  148.7373  140.2270  154.4720 C   0  0  0  0  0  0  0  0  0  0  0  0
  147.9733  139.0409  154.2841 C   0  0  0  0  0  0  0  0  0  0  0  0
  148.5642  137.9847  154.9682 N   0  0  0  0  0  0  0  0  0  0  0  0
  149.6140  138.5166  155.5324 C   0  0  0  0  0  0  0  0  0  0  0  0
  149.7986  139.8566  155.2787 N   0  0  0  0  0  0  0  0  0  0  0  0
  150.8844  140.6883  155.7664 C   0  0  0  0  0  0  0  0  0  0  0  0
  151.0110  140.7145  157.3128 C   0  0  1  0  0  0  0  0  0  0  0  0
  151.6332  139.4122  157.8795 C   0  0  0  0  0  0  0  0  0  0  0  0
  152.9254  139.1724  157.3611 O   0  0  0  0  0  0  0  0  0  0  0  0
  151.8222  141.9557  157.7678 C   0  0  1  0  0  0  0  0  0  0  0  0
  151.2137  143.2967  157.3918 C   0  0  0  0  0  0  0  0  0  0  0  0
  151.9308  144.2501  158.3385 C   0  0  0  0  0  0  0  0  0  0  0  0
  152.1045  143.5157  159.5427 O   0  0  0  0  0  0  0  0  0  0  0  0
  151.9464  142.1227  159.2894 C   0  0  0  0  0  0  0  0  0  0  0  0
  145.3734  137.4351  154.3189 C   0  0  0  0  0  0  0  0  0  0  0  0
  143.5969  135.7608  155.0485 C   0  0  0  0  0  0  0  0  0  0  0  0
  142.1617  135.7432  154.8437 N   0  0  0  0  0  0  0  0  0  0  0  0
  142.8647  137.6436  152.3975 H   0  0  0  0  0  0  0  0  0  0  0  0
  142.9624  138.4358  153.9705 H   0  0  0  0  0  0  0  0  0  0  0  0
  145.2775  134.8935  153.1075 H   0  0  0  0  0  0  0  0  0  0  0  0
  143.7303  135.0936  152.3293 H   0  0  0  0  0  0  0  0  0  0  0  0
  145.6616  135.6882  150.8364 H   0  0  0  0  0  0  0  0  0  0  0  0
  144.5817  137.0383  151.0521 H   0  0  0  0  0  0  0  0  0  0  0  0
  147.2408  136.6010  152.4923 H   0  0  0  0  0  0  0  0  0  0  0  0
  146.8886  137.8175  151.2869 H   0  0  0  0  0  0  0  0  0  0  0  0
  147.0860  142.3636  152.7356 H   0  0  0  0  0  0  0  0  0  0  0  0
  150.2934  137.9411  156.1445 H   0  0  0  0  0  0  0  0  0  0  0  0
  151.8167  140.3390  155.3206 H   0  0  0  0  0  0  0  0  0  0  0  0
  150.7175  141.6927  155.3772 H   0  0  0  0  0  0  0  0  0  0  0  0
  150.0077  140.8160  157.7304 H   0  0  0  0  0  0  0  0  0  0  0  0
  151.6740  139.4436  158.9688 H   0  0  0  0  0  0  0  0  0  0  0  0
  151.0362  138.5406  157.6159 H   0  0  0  0  0  0  0  0  0  0  0  0
  152.8813  138.4300  156.7780 H   0  0  0  0  0  0  0  0  0  0  0  0
  152.8258  141.9063  157.3418 H   0  0  0  0  0  0  0  0  0  0  0  0
  151.3674  143.5631  156.3458 H   0  0  0  0  0  0  0  0  0  0  0  0
  150.1418  143.3030  157.5949 H   0  0  0  0  0  0  0  0  0  0  0  0
  152.9132  144.5110  157.9428 H   0  0  0  0  0  0  0  0  0  0  0  0
  151.3753  145.1727  158.5074 H   0  0  0  0  0  0  0  0  0  0  0  0
  151.0392  141.7880  159.7937 H   0  0  0  0  0  0  0  0  0  0  0  0
  152.7857  141.5620  159.7008 H   0  0  0  0  0  0  0  0  0  0  0  0
  145.0600  138.1599  155.0720 H   0  0  0  0  0  0  0  0  0  0  0  0
  146.1168  136.7904  154.7904 H   0  0  0  0  0  0  0  0  0  0  0  0
  144.0027  134.7494  155.0904 H   0  0  0  0  0  0  0  0  0  0  0  0
  143.7986  136.2391  156.0082 H   0  0  0  0  0  0  0  0  0  0  0  0
  141.5470  135.0965  155.3169 H   0  0  0  0  0  0  0  0  0  0  0  0
  1  2  2  0  0  0  0
  2 29  1  0  0  0  0
  2  3  1  0  0  0  0
  3  4  1  0  0  0  0
  3 30  1  0  0  0  0
  3 31  1  0  0  0  0
  4 27  1  0  0  0  0
  4  5  1  0  0  0  0
  4 28  1  0  0  0  0
  5  6  1  0  0  0  0
  5 32  1  0  0  0  0
  5 33  1  0  0  0  0
  6  7  1  0  0  0  0
  6 34  1  0  0  0  0
  6 35  1  0  0  0  0
  7  8  1  0  0  0  0
  7 36  1  0  0  0  0
  7 37  1  0  0  0  0
  8  9  1  0  0  0  0
  8 27  1  0  0  0  0
  9 14  1  0  0  0  0
  9 10  2  0  0  0  0
 10 11  1  0  0  0  0
 11 12  2  0  0  0  0
 11 38  1  0  0  0  0
 12 13  1  0  0  0  0
 13 17  1  0  0  0  0
 13 14  2  0  0  0  0
 14 15  1  0  0  0  0
 15 16  2  0  0  0  0
 16 17  1  0  0  0  0
 16 39  1  0  0  0  0
 17 18  1  0  0  0  0
 18 19  1  0  0  0  0
 18 40  1  0  0  0  0
 18 41  1  0  0  0  0
 19 20  1  0  0  0  0
 19 22  1  0  0  0  0
 19 42  1  0  0  0  0
 20 21  1  0  0  0  0
 20 43  1  0  0  0  0
 20 44  1  0  0  0  0
 21 45  1  0  0  0  0
 22 26  1  0  0  0  0
 22 23  1  0  0  0  0
 22 46  1  0  0  0  0
 23 24  1  0  0  0  0
 23 47  1  0  0  0  0
 23 48  1  0  0  0  0
 24 25  1  0  0  0  0
 24 49  1  0  0  0  0
 24 50  1  0  0  0  0
 25 26  1  0  0  0  0
 26 51  1  0  0  0  0
 26 52  1  0  0  0  0
 27 53  1  0  0  0  0
 27 54  1  0  0  0  0
 28 29  1  0  0  0  0
 28 55  1  0  0  0  0
 28 56  1  0  0  0  0
 29 57  1  0  0  0  0
M  END
> <s_m_source_file>
AV-unprocessed.smi

> <i_m_source_file_index>
20

> <i_lp_mmshare_version>
43012

> <i_f3d_flags>
0

> <s_epik_input>
W0NIMl0xW05IXUMoPU8pW0NIMl1bQ0BAXTEyW0NIMl1bQ0gyXVtDSDJdTihbQ0gyXTIpYyhuW2NIXW4zKWMoYzM0KW5bY0hdbjRbQ0gyXVtDQEhdKFtDSDJdW09IXSlbQ0BASF01W0NIMl1bQ0gyXU9bQ0gyXTU=

> <s_epik_cmdline>
J2VwaWtfcHl0aG9uJywgJy1waCcsICc3LjAnLCAnLXRuJywgJzgnLCAnLW1hJywgJzIwMCcsICctbWV0YWxfYmluZGluZycsICctaW1hZScsICc8aW5maWxlLm1hZT4nLCAnLW9tYWUnLCAnPG91dGZpbGUubWFlPic=

> <r_lp_tautomer_probability>
1

> <r_epik_Ionization_Penalty>
0.0019697

> <r_epik_Ionization_Penalty_Charging>
0

> <r_epik_Ionization_Penalty_Neutral>
0.0019697

> <r_epik_State_Penalty>
0.00113613

> <r_epik_Charging_Adjusted_Penalty>
0.00113613

> <i_epik_Tot_Q>
0

> <i_epik_Tot_abs_Q>
0

> <r_epik_Metal_State_Penalty>
-0

> <b_epik_Metal_Only>
0

> <s_lp_Force_Field>
OPLS_2005

> <r_lp_Energy>
57.3449

> <b_lp_Chiralities_Consistent>
1

> <s_lp_Variant>
AV-unprocessed.smi:20-8

> <Gold.Version>
5.8.1

> <Gold.Id.Protein>
6NUR|6NUR_protein|mol2

> <Gold.PLP.Fitness>
41.2096

> <Gold.PLP.PLP>
-35.3491

> <Gold.PLP.part.hbond>
-2.8325

> <Gold.PLP.part.metal>
0.0000

> <Gold.PLP.part.buried>
-4.1547

> <Gold.PLP.part.nonpolar>
-30.7750

> <Gold.PLP.part.repulsive>
1.9097

> <Gold.PLP.ligand.clash>
0.0000

> <Gold.PLP.ligand.torsion>
0.4995

> <Gold.PLP.Chemscore.Hbond>
2.1303

> <Gold.PLP.Chemscore.CHOScore>
0.0000

> <Gold.PLP.Chemscore.Metal>
0.0000

> <Gold.Chemscore.Hbonds>
donor molecule, donor type, donor heavy atom, donor atom, acceptor molecule, acceptor atom, score
      L1  H    29    57       P1 11000  0.98
      P1  H  7997  8008       L1    21  1.00
      P1  H  8011  8017       L1    12  0.17

> <Gold.PLP.Chemscore.Internal.Correction>
0.4686

> <Gold.Rescore>
     Score         DG    S(hbond)    S(metal)    S(lipo)     H(rot)  DE(clash)    DE(int)     intcor
      9.69     -11.26       0.99        0.00      81.16       2.74       0.98       0.59       ----

> <Gold.Chemscore.Fitness>
9.6887

> <Gold.Chemscore.DG>
-11.2562

> <Gold.Chemscore.ZeroCoef>
-5.4800

> <Gold.Chemscore.Hbond>
0.9876

> <Gold.Chemscore.Metal>
0.0000

> <Gold.Chemscore.Lipo>
81.1599

> <Gold.Chemscore.Internal_Hbond>
0.0000

> <Gold.Chemscore.DEClash>
0.9814

> <Gold.Chemscore.DEInternal>
0.5861

> <Gold.Chemscore.Rot>
2.7415

> <Gold.Chemscore.Internal.Correction>
   9.000000E+99

> <Gold.Chemscore.Hbonds>
donor molecule, donor type, donor heavy atom, donor atom, acceptor molecule, acceptor atom, score
      L1  H    29    57       P1 11000  0.24
      P1  H  7997  8008       L1    21  0.30
      P1  H  8011  8017       L1    12  0.02

> <Gold.Chemscore.Hbond.Weighted>
-3.2987

> <Gold.Chemscore.Metal.Weighted>
-0.0000

> <Gold.Chemscore.Lipo.Weighted>
-9.4957

> <Gold.Chemscore.Internal_Hbond.Weighted>
0.0000

> <Gold.Chemscore.DEClash.Weighted>
0.9814

> <Gold.Chemscore.DEInternal.Weighted>
0.5861

> <Gold.Chemscore.Rot.Weighted>
7.0182

> <Gold.Chemscore.Internal.Correction.Weighted>
   9.000000E+99

> <Gold.Protein.RotatedTorsions>
[ 6907 6896 6895 6894 ] final   28.39 input  -60.11 | X-H torsion
[ 7974 7965 7964 7962 ] final  122.72 input  175.53 | X-H torsion
[ 8008 7997 7996 7995 ] final  -62.97 input   59.86 | X-H torsion
[ 10167 10162 10161 10158 ] final  135.49 input  -65.29 | X-H torsion
[ 10718 10713 10712 10709 ] final   25.31 input   66.30 | X-H torsion
[ 10763 10752 10751 10750 ] final -135.89 input  -60.55 | X-H torsion
[ 11005 11000 10999 10996 ] final -152.50 input  -57.11 | X-H torsion

> <Gold.Protein.ActiveResidues>
 VAL166  LYS551  ARG553  GLY616  TRP617  ASP618  TYR619  PRO620  LYS621  CYS622 
 ASP623  PHE694  ASN695  SER759  ASP760  ASP761  ALA762  ILE779  LEU786  VAL792 
 PHE793  MET794  SER795  GLU796  ALA797  LYS798  CYS799  TRP800  GLU811  SER814 

> <Gold.Protein.RotatedAtoms>
  152.0163  134.9848  160.0569 H   0  0  0  0  0  0  0  0  0  0  0  0  # atno 6907 bound_to 6896
  152.1381  133.4442  159.4761 H   0  0  0  0  0  0  0  0  0  0  0  0  # atno 6908 bound_to 6896
  150.6862  134.2257  159.4458 H   0  0  0  0  0  0  0  0  0  0  0  0  # atno 6909 bound_to 6896
  145.1042  139.3497  143.4796 H   0  0  0  0  0  0  0  0  0  0  0  0  # atno 7974 bound_to 7965
  154.4528  140.0985  156.6669 H   0  0  0  0  0  0  0  0  0  0  0  0  # atno 8008 bound_to 7997
  155.5231  140.3479  155.4392 H   0  0  0  0  0  0  0  0  0  0  0  0  # atno 8009 bound_to 7997
  156.0717  140.1351  156.9810 H   0  0  0  0  0  0  0  0  0  0  0  0  # atno 8010 bound_to 7997
  139.5215  144.6514  151.5291 H   0  0  0  0  0  0  0  0  0  0  0  0  # atno 10167 bound_to 10162
  157.1916  130.6848  149.6152 H   0  0  0  0  0  0  0  0  0  0  0  0  # atno 10718 bound_to 10713
  154.8694  135.3689  154.4972 H   0  0  0  0  0  0  0  0  0  0  0  0  # atno 10763 bound_to 10752
  153.5615  135.7023  153.5550 H   0  0  0  0  0  0  0  0  0  0  0  0  # atno 10764 bound_to 10752
  153.3624  135.4043  155.1691 H   0  0  0  0  0  0  0  0  0  0  0  0  # atno 10765 bound_to 10752
  140.7182  134.3757  157.5187 H   0  0  0  0  0  0  0  0  0  0  0  0  # atno 11005 bound_to 11000
  146.3529  140.0933  142.8611 LP  0  0  0  0  0  0  0  0  0  0  0  0  # atno 17320 bound_to 7965
  145.0920  140.9291  143.4763 LP  0  0  0  0  0  0  0  0  0  0  0  0  # atno 17321 bound_to 7965
  140.6320  143.9057  150.6614 LP  0  0  0  0  0  0  0  0  0  0  0  0  # atno 17342 bound_to 10162
  140.2364  143.3696  152.1523 LP  0  0  0  0  0  0  0  0  0  0  0  0  # atno 17343 bound_to 10162
  155.9711  130.4613  150.6103 LP  0  0  0  0  0  0  0  0  0  0  0  0  # atno 17370 bound_to 10713
  157.3855  131.0787  151.1439 LP  0  0  0  0  0  0  0  0  0  0  0  0  # atno 17371 bound_to 10713
  139.8854  134.8937  156.2642 LP  0  0  0  0  0  0  0  0  0  0  0  0  # atno 17394 bound_to 11000
  141.0026  133.7142  156.0984 LP  0  0  0  0  0  0  0  0  0  0  0  0  # atno 17395 bound_to 11000

$$$$
