AV-unprocessed.smi:1434|AV-procd|sdf|5854|dock2
  -GOLD-   22720 5523D 1   1.00000     0.00000
 Structure written by MMmdl.
 43 44  0  0  0  0  0  0  0  0  2 V2000
  147.1067  135.1747  162.2172 C   0  0  0  0  0  0  0  0  0  0  0  0
  147.3764  136.3093  160.7890 S   0  0  0  0  0  0  0  0  0  0  0  0
  146.2642  137.2750  160.8132 O   0  0  0  0  0  0  0  0  0  0  0  0
  148.7291  136.8520  160.9850 O   0  0  0  0  0  0  0  0  0  0  0  0
  147.3338  135.2831  159.5270 N   0  5  0  0  0  0  0  0  0  0  0  0
  148.4827  135.1282  158.6451 C   0  0  1  0  0  0  0  0  0  0  0  0
  148.2658  133.9473  157.6626 C   0  0  0  0  0  0  0  0  0  0  0  0
  149.3338  133.8732  156.5359 C   0  0  0  0  0  0  0  0  0  0  0  0
  149.5444  135.2314  155.8257 C   0  0  0  0  0  0  0  0  0  0  0  0
  149.8455  136.2282  156.8763 N   0  0  0  0  0  0  0  0  0  0  0  0
  151.0427  136.8444  157.0617 C   0  0  0  0  0  0  0  0  0  0  0  0
  152.0891  136.4565  156.5400 O   0  0  0  0  0  0  0  0  0  0  0  0
  150.9774  137.9842  157.7730 N   0  0  0  0  0  0  0  0  0  0  0  0
  152.0468  138.9722  157.8962 C   0  0  0  0  0  0  0  0  0  0  0  0
  151.5469  140.4007  157.5973 C   0  0  0  0  0  0  0  0  0  0  0  0
  152.0630  141.4481  158.5716 C   0  0  0  0  0  0  0  0  0  0  0  0
  152.8413  141.0725  159.6883 C   0  0  0  0  0  0  0  0  0  0  0  0
  153.2546  142.0748  160.5870 C   0  0  0  0  0  0  0  0  0  0  0  0
  152.8787  143.4074  160.3342 C   0  0  0  0  0  0  0  0  0  0  0  0
  152.1053  143.6800  159.1883 C   0  0  0  0  0  0  0  0  0  0  0  0
  151.7054  142.7270  158.3185 N   0  0  0  0  0  0  0  0  0  0  0  0
  148.7167  136.4206  157.8153 C   0  0  0  0  0  0  0  0  0  0  0  0
  147.1894  135.7400  163.1446 H   0  0  0  0  0  0  0  0  0  0  0  0
  147.8618  134.3893  162.2043 H   0  0  0  0  0  0  0  0  0  0  0  0
  146.1154  134.7272  162.1575 H   0  0  0  0  0  0  0  0  0  0  0  0
  149.3959  134.9371  159.2093 H   0  0  0  0  0  0  0  0  0  0  0  0
  148.2443  133.0047  158.2105 H   0  0  0  0  0  0  0  0  0  0  0  0
  147.2855  134.0481  157.1939 H   0  0  0  0  0  0  0  0  0  0  0  0
  150.2847  133.5329  156.9502 H   0  0  0  0  0  0  0  0  0  0  0  0
  149.0407  133.1189  155.8055 H   0  0  0  0  0  0  0  0  0  0  0  0
  150.3077  135.1470  155.0521 H   0  0  0  0  0  0  0  0  0  0  0  0
  148.6313  135.5269  155.3067 H   0  0  0  0  0  0  0  0  0  0  0  0
  150.0805  138.2385  158.1605 H   0  0  0  0  0  0  0  0  0  0  0  0
  152.4421  138.9268  158.9110 H   0  0  0  0  0  0  0  0  0  0  0  0
  152.8797  138.7249  157.2361 H   0  0  0  0  0  0  0  0  0  0  0  0
  151.8447  140.6845  156.5870 H   0  0  0  0  0  0  0  0  0  0  0  0
  150.4563  140.4173  157.6039 H   0  0  0  0  0  0  0  0  0  0  0  0
  153.1006  140.0391  159.8645 H   0  0  0  0  0  0  0  0  0  0  0  0
  153.8398  141.8245  161.4596 H   0  0  0  0  0  0  0  0  0  0  0  0
  153.1718  144.2005  161.0062 H   0  0  0  0  0  0  0  0  0  0  0  0
  151.7990  144.6910  158.9649 H   0  0  0  0  0  0  0  0  0  0  0  0
  147.8215  136.6695  157.2428 H   0  0  0  0  0  0  0  0  0  0  0  0
  148.8772  137.2640  158.4887 H   0  0  0  0  0  0  0  0  0  0  0  0
  1  2  1  0  0  0  0
  1 23  1  0  0  0  0
  1 24  1  0  0  0  0
  1 25  1  0  0  0  0
  2  3  2  0  0  0  0
  2  4  2  0  0  0  0
  2  5  1  0  0  0  0
  5  6  1  0  0  0  0
  6 22  1  0  0  0  0
  6  7  1  0  0  0  0
  6 26  1  0  0  0  0
  7  8  1  0  0  0  0
  7 27  1  0  0  0  0
  7 28  1  0  0  0  0
  8  9  1  0  0  0  0
  8 29  1  0  0  0  0
  8 30  1  0  0  0  0
  9 10  1  0  0  0  0
  9 31  1  0  0  0  0
  9 32  1  0  0  0  0
 10 11  1  0  0  0  0
 10 22  1  0  0  0  0
 11 12  2  0  0  0  0
 11 13  1  0  0  0  0
 13 14  1  0  0  0  0
 13 33  1  0  0  0  0
 14 15  1  0  0  0  0
 14 34  1  0  0  0  0
 14 35  1  0  0  0  0
 15 16  1  0  0  0  0
 15 36  1  0  0  0  0
 15 37  1  0  0  0  0
 16 21  1  0  0  0  0
 16 17  2  0  0  0  0
 17 18  1  0  0  0  0
 17 38  1  0  0  0  0
 18 19  2  0  0  0  0
 18 39  1  0  0  0  0
 19 20  1  0  0  0  0
 19 40  1  0  0  0  0
 20 21  2  0  0  0  0
 20 41  1  0  0  0  0
 22 42  1  0  0  0  0
 22 43  1  0  0  0  0
M  CHG  1   5  -1
M  END
> <s_m_source_file>
AV-unprocessed.smi

> <i_m_source_file_index>
1434

> <i_lp_mmshare_version>
43012

> <i_f3d_flags>
0

> <s_epik_input>
W0NIM11TKD1PKSg9TylbTkhdW0NAQEhdMVtDSDJdW0NIMl1bQ0gyXU4oW0NIMl0xKUMoPU8pW05IXVtDSDJdW0NIMl1jMltjSF1bY0hdW2NIXVtjSF1uMg==

> <s_epik_cmdline>
J2VwaWtfcHl0aG9uJywgJy1waCcsICc3LjAnLCAnLXRuJywgJzgnLCAnLW1hJywgJzIwMCcsICctbWV0YWxfYmluZGluZycsICctaW1hZScsICc8aW5maWxlLm1hZT4nLCAnLW9tYWUnLCAnPG91dGZpbGUubWFlPic=

> <r_epik_Ionization_Penalty>
6.57847

> <r_epik_Ionization_Penalty_Charging>
6.53351

> <r_epik_Ionization_Penalty_Neutral>
0.0449527

> <r_epik_State_Penalty>
6.57157

> <r_epik_Charging_Adjusted_Penalty>
13.1051

> <i_epik_Tot_Q>
-1

> <i_epik_Tot_abs_Q>
1

> <r_epik_Metal_State_Penalty>
2.53928

> <b_epik_Metal_Only>
1

> <s_lp_Force_Field>
OPLS_2005

> <r_lp_Energy>
21.2682

> <b_lp_Chiralities_Consistent>
1

> <s_lp_Variant>
AV-unprocessed.smi:1434-6

> <Gold.Version>
5.8.1

> <Gold.Id.Protein>
6NUR|6NUR_protein|mol2

> <Gold.PLP.Fitness>
41.0832

> <Gold.PLP.PLP>
-33.4015

> <Gold.PLP.part.hbond>
-3.0334

> <Gold.PLP.part.metal>
0.0000

> <Gold.PLP.part.buried>
-4.8826

> <Gold.PLP.part.nonpolar>
-26.5410

> <Gold.PLP.part.repulsive>
0.0859

> <Gold.PLP.ligand.clash>
0.0354

> <Gold.PLP.ligand.torsion>
1.1492

> <Gold.PLP.Chemscore.Hbond>
3.0000

> <Gold.PLP.Chemscore.CHOScore>
0.0000

> <Gold.PLP.Chemscore.Metal>
0.0000

> <Gold.Chemscore.Hbonds>
donor molecule, donor type, donor heavy atom, donor atom, acceptor molecule, acceptor atom, score
      P1  H  6931  6943       L1     4  1.00
      P1  H  6934  6947       L1     3  1.00
      P1  H 10752 10764       L1    12  0.88

> <Gold.PLP.Chemscore.Internal.Correction>
1.0155

> <Gold.Rescore>
     Score         DG    S(hbond)    S(metal)    S(lipo)     H(rot)  DE(clash)    DE(int)     intcor
     19.77     -20.86       2.78        0.00      88.99       1.68       0.00       1.09       ----

> <Gold.Chemscore.Fitness>
19.7686

> <Gold.Chemscore.DG>
-20.8588

> <Gold.Chemscore.ZeroCoef>
-5.4800

> <Gold.Chemscore.Hbond>
2.7759

> <Gold.Chemscore.Metal>
0.0000

> <Gold.Chemscore.Lipo>
88.9886

> <Gold.Chemscore.Internal_Hbond>
0.0000

> <Gold.Chemscore.DEClash>
0.0045

> <Gold.Chemscore.DEInternal>
1.0856

> <Gold.Chemscore.Rot>
1.6813

> <Gold.Chemscore.Internal.Correction>
   9.000000E+99

> <Gold.Chemscore.Hbonds>
donor molecule, donor type, donor heavy atom, donor atom, acceptor molecule, acceptor atom, score
      P1  H  6931  6943       L1     4  0.96
      P1  H  6934  6947       L1     3  0.44
      P1  H 10752 10764       L1    12  0.85

> <Gold.Chemscore.Hbond.Weighted>
-9.2714

> <Gold.Chemscore.Metal.Weighted>
-0.0000

> <Gold.Chemscore.Lipo.Weighted>
-10.4117

> <Gold.Chemscore.Internal_Hbond.Weighted>
0.0000

> <Gold.Chemscore.DEClash.Weighted>
0.0045

> <Gold.Chemscore.DEInternal.Weighted>
1.0856

> <Gold.Chemscore.Rot.Weighted>
4.3042

> <Gold.Chemscore.Internal.Correction.Weighted>
   9.000000E+99

> <Gold.Protein.RotatedTorsions>
[ 6907 6896 6895 6894 ] final  -55.86 input  -60.11 | X-H torsion
[ 7974 7965 7964 7962 ] final   81.47 input  175.53 | X-H torsion
[ 8008 7997 7996 7995 ] final  -64.64 input   59.86 | X-H torsion
[ 10167 10162 10161 10158 ] final -125.45 input  -65.29 | X-H torsion
[ 10718 10713 10712 10709 ] final  -37.69 input   66.30 | X-H torsion
[ 10763 10752 10751 10750 ] final  -14.97 input  -60.55 | X-H torsion
[ 11005 11000 10999 10996 ] final  179.06 input  -57.11 | X-H torsion

> <Gold.Protein.ActiveResidues>
 VAL166  LYS551  ARG553  GLY616  TRP617  ASP618  TYR619  PRO620  LYS621  CYS622 
 ASP623  PHE694  ASN695  SER759  ASP760  ASP761  ALA762  ILE779  LEU786  VAL792 
 PHE793  MET794  SER795  GLU796  ALA797  LYS798  CYS799  TRP800  GLU811  SER814 

> <Gold.Protein.RotatedAtoms>
  150.8215  134.7426  159.6776 H   0  0  0  0  0  0  0  0  0  0  0  0  # atno 6907 bound_to 6896
  152.4330  134.5737  159.9938 H   0  0  0  0  0  0  0  0  0  0  0  0  # atno 6908 bound_to 6896
  151.5920  133.3328  159.3065 H   0  0  0  0  0  0  0  0  0  0  0  0  # atno 6909 bound_to 6896
  145.6378  139.2418  143.2048 H   0  0  0  0  0  0  0  0  0  0  0  0  # atno 7974 bound_to 7965
  154.4623  140.0949  156.6927 H   0  0  0  0  0  0  0  0  0  0  0  0  # atno 8008 bound_to 7997
  155.4957  140.3472  155.4344 H   0  0  0  0  0  0  0  0  0  0  0  0  # atno 8009 bound_to 7997
  156.0894  140.1393  156.9601 H   0  0  0  0  0  0  0  0  0  0  0  0  # atno 8010 bound_to 7997
  139.9820  143.5732  152.2375 H   0  0  0  0  0  0  0  0  0  0  0  0  # atno 10167 bound_to 10162
  156.3124  130.4254  149.8038 H   0  0  0  0  0  0  0  0  0  0  0  0  # atno 10718 bound_to 10713
  153.5363  135.7014  153.5658 H   0  0  0  0  0  0  0  0  0  0  0  0  # atno 10763 bound_to 10752
  153.3644  135.3961  155.1742 H   0  0  0  0  0  0  0  0  0  0  0  0  # atno 10764 bound_to 10752
  154.8679  135.3796  154.4863 H   0  0  0  0  0  0  0  0  0  0  0  0  # atno 10765 bound_to 10752
  140.4020  134.6769  157.4567 H   0  0  0  0  0  0  0  0  0  0  0  0  # atno 11005 bound_to 11000
  146.1305  140.7191  142.9414 LP  0  0  0  0  0  0  0  0  0  0  0  0  # atno 17320 bound_to 7965
  144.7169  140.4240  143.7037 LP  0  0  0  0  0  0  0  0  0  0  0  0  # atno 17321 bound_to 7965
  139.6403  144.7654  151.2353 LP  0  0  0  0  0  0  0  0  0  0  0  0  # atno 17342 bound_to 10162
  140.7486  143.6329  150.8406 LP  0  0  0  0  0  0  0  0  0  0  0  0  # atno 17343 bound_to 10162
  156.5376  130.8286  151.3258 LP  0  0  0  0  0  0  0  0  0  0  0  0  # atno 17370 bound_to 10713
  157.7394  130.9830  150.2310 LP  0  0  0  0  0  0  0  0  0  0  0  0  # atno 17371 bound_to 10713
  140.0329  134.6379  155.9082 LP  0  0  0  0  0  0  0  0  0  0  0  0  # atno 17394 bound_to 11000
  141.1853  133.6555  156.5193 LP  0  0  0  0  0  0  0  0  0  0  0  0  # atno 17395 bound_to 11000

$$$$
