AV-unprocessed.smi:37|AV-procd|sdf|313|dock7
  -GOLD-   2262016133D 1   1.00000     0.00000
 Structure written by MMmdl.
 44 45  0  0  0  0  0  0  0  0  1 V2000
  151.7835  145.1774  159.4775 C   0  0  0  0  0  0  0  0  0  0  0  0
  152.4214  144.2709  158.4144 C   0  0  0  0  0  0  0  0  0  0  0  0
  151.6849  142.9437  158.2218 C   0  0  0  0  0  0  0  0  0  0  0  0
  150.8564  142.7736  157.3257 O   0  0  0  0  0  0  0  0  0  0  0  0
  152.0528  142.0302  159.1346 O   0  0  0  0  0  0  0  0  0  0  0  0
  151.3760  140.7842  159.2134 C   0  0  0  0  0  0  0  0  0  0  0  0
  152.1884  139.7229  158.4563 C   0  0  2  0  0  0  0  0  0  0  0  0
  152.3903  140.0907  157.0916 O   0  0  0  0  0  0  0  0  0  0  0  0
  152.3268  138.9657  156.2605 C   0  0  2  0  0  0  0  0  0  0  0  0
  151.1122  139.0683  155.3570 N   0  0  0  0  0  0  0  0  0  0  0  0
  150.3527  140.2288  155.2521 C   0  0  0  0  0  0  0  0  0  0  0  0
  149.2503  140.3209  154.4716 C   0  0  0  0  0  0  0  0  0  0  0  0
  148.5621  141.4743  154.4293 F   0  0  0  0  0  0  0  0  0  0  0  0
  148.8010  139.1808  153.6788 C   0  0  0  0  0  0  0  0  0  0  0  0
  147.8147  139.1667  152.9454 O   0  0  0  0  0  0  0  0  0  0  0  0
  149.5982  138.0400  153.8062 N   0  0  0  0  0  0  0  0  0  0  0  0
  150.7346  137.9308  154.6091 C   0  0  0  0  0  0  0  0  0  0  0  0
  151.3595  136.8718  154.6513 O   0  0  0  0  0  0  0  0  0  0  0  0
  152.2068  137.7350  157.1722 C   0  0  1  0  0  0  0  0  0  0  0  0
  154.0261  137.0502  157.6082 Br  0  0  0  0  0  0  0  0  0  0  0  0
  151.5751  138.3179  158.4232 C   0  0  2  0  0  0  0  0  0  0  0  0
  150.1615  138.4011  158.2777 O   0  0  0  0  0  0  0  0  0  0  0  0
  149.3720  137.3643  158.6008 C   0  0  0  0  0  0  0  0  0  0  0  0
  149.7498  136.2751  159.0317 O   0  0  0  0  0  0  0  0  0  0  0  0
  147.8940  137.6548  158.3491 C   0  0  0  0  0  0  0  0  0  0  0  0
  146.9860  136.5002  158.7953 C   0  0  0  0  0  0  0  0  0  0  0  0
  149.3271  137.2257  153.2742 H   0  0  0  0  0  0  0  0  0  0  0  0
  152.3533  146.1002  159.5861 H   0  0  0  0  0  0  0  0  0  0  0  0
  151.7577  144.6899  160.4528 H   0  0  0  0  0  0  0  0  0  0  0  0
  150.7628  145.4505  159.2078 H   0  0  0  0  0  0  0  0  0  0  0  0
  152.4526  144.7919  157.4572 H   0  0  0  0  0  0  0  0  0  0  0  0
  153.4539  144.0557  158.6905 H   0  0  0  0  0  0  0  0  0  0  0  0
  151.2365  140.4723  160.2491 H   0  0  0  0  0  0  0  0  0  0  0  0
  150.3838  140.8878  158.7738 H   0  0  0  0  0  0  0  0  0  0  0  0
  153.1790  139.6518  158.9076 H   0  0  0  0  0  0  0  0  0  0  0  0
  153.1855  138.9436  155.5869 H   0  0  0  0  0  0  0  0  0  0  0  0
  150.6260  141.1084  155.8137 H   0  0  0  0  0  0  0  0  0  0  0  0
  151.6413  136.9196  156.7202 H   0  0  0  0  0  0  0  0  0  0  0  0
  151.8316  137.7535  159.3210 H   0  0  0  0  0  0  0  0  0  0  0  0
  147.6208  138.5695  158.8757 H   0  0  0  0  0  0  0  0  0  0  0  0
  147.7501  137.8467  157.2856 H   0  0  0  0  0  0  0  0  0  0  0  0
  145.9469  136.7090  158.5416 H   0  0  0  0  0  0  0  0  0  0  0  0
  147.0347  136.3476  159.8740 H   0  0  0  0  0  0  0  0  0  0  0  0
  147.2638  135.5646  158.3083 H   0  0  0  0  0  0  0  0  0  0  0  0
  1  2  1  0  0  0  0
  1 28  1  0  0  0  0
  1 29  1  0  0  0  0
  1 30  1  0  0  0  0
  2  3  1  0  0  0  0
  2 31  1  0  0  0  0
  2 32  1  0  0  0  0
  3  4  2  0  0  0  0
  3  5  1  0  0  0  0
  5  6  1  0  0  0  0
  6  7  1  0  0  0  0
  6 33  1  0  0  0  0
  6 34  1  0  0  0  0
  7 21  1  0  0  0  0
  7  8  1  0  0  0  0
  7 35  1  0  0  0  0
  8  9  1  0  0  0  0
  9 10  1  0  0  0  0
  9 19  1  0  0  0  0
  9 36  1  0  0  0  0
 10 17  1  0  0  0  0
 10 11  1  0  0  0  0
 11 12  2  0  0  0  0
 11 37  1  0  0  0  0
 12 13  1  0  0  0  0
 12 14  1  0  0  0  0
 14 15  2  0  0  0  0
 14 16  1  0  0  0  0
 16 27  1  0  0  0  0
 16 17  1  0  0  0  0
 17 18  2  0  0  0  0
 19 20  1  0  0  0  0
 19 21  1  0  0  0  0
 19 38  1  0  0  0  0
 21 22  1  0  0  0  0
 21 39  1  0  0  0  0
 22 23  1  0  0  0  0
 23 24  2  0  0  0  0
 23 25  1  0  0  0  0
 25 26  1  0  0  0  0
 25 40  1  0  0  0  0
 25 41  1  0  0  0  0
 26 42  1  0  0  0  0
 26 43  1  0  0  0  0
 26 44  1  0  0  0  0
M  END
> <s_m_source_file>
AV-unprocessed.smi

> <i_m_source_file_index>
37

> <i_lp_mmshare_version>
43012

> <i_f3d_flags>
0

> <s_epik_input>
W0NIM11bQ0gyXUMoPU8pT1tDSDJdW0NAQEhdMU9bQ0BASF0objJbY0hdYyhGKWMoPU8pW25IXWMyPU8pW0NAQEhdKEJyKVtDQEhdMU9DKD1PKVtDSDJdW0NIM10=

> <s_epik_cmdline>
J2VwaWtfcHl0aG9uJywgJy1waCcsICc3LjAnLCAnLXRuJywgJzgnLCAnLW1hJywgJzIwMCcsICctbWV0YWxfYmluZGluZycsICctaW1hZScsICc8aW5maWxlLm1hZT4nLCAnLW9tYWUnLCAnPG91dGZpbGUubWFlPic=

> <r_lp_tautomer_probability>
0.999537

> <r_epik_Ionization_Penalty>
0.104106

> <r_epik_Ionization_Penalty_Charging>
0.104106

> <r_epik_Ionization_Penalty_Neutral>
3.94675e-16

> <r_epik_State_Penalty>
0.0940182

> <r_epik_Charging_Adjusted_Penalty>
0.198124

> <i_epik_Tot_Q>
0

> <i_epik_Tot_abs_Q>
0

> <r_epik_Metal_State_Penalty>
3.05314

> <b_epik_Metal_Only>
0

> <s_epik_Chemistry_Notes>
This compound has an ester and may undergo hydrolysis at high or low pH. This compound contains an acetal/aminal-like group ( X-CH(R)-Y where X, Y are N, S, or O) that may be acid/base labile, releasing an aldehyde.

> <s_lp_Force_Field>
OPLS_2005

> <r_lp_Energy>
21.1206

> <b_lp_Chiralities_Consistent>
1

> <s_lp_Variant>
AV-unprocessed.smi:37-11

> <Gold.Version>
5.8.1

> <Gold.Id.Protein>
6NUR|6NUR_protein|mol2

> <Gold.PLP.Fitness>
51.6687

> <Gold.PLP.PLP>
-43.4137

> <Gold.PLP.part.hbond>
-4.0000

> <Gold.PLP.part.metal>
0.0000

> <Gold.PLP.part.buried>
-4.6745

> <Gold.PLP.part.nonpolar>
-35.5500

> <Gold.PLP.part.repulsive>
1.3780

> <Gold.PLP.ligand.clash>
0.0000

> <Gold.PLP.ligand.torsion>
1.0714

> <Gold.PLP.Chemscore.Hbond>
3.4018

> <Gold.PLP.Chemscore.CHOScore>
0.0000

> <Gold.PLP.Chemscore.Metal>
0.0000

> <Gold.Chemscore.Hbonds>
donor molecule, donor type, donor heavy atom, donor atom, acceptor molecule, acceptor atom, score
      L1  H    16    27       P1  7948  1.00
      P1  H  6896  6909       L1    24  1.00
      P1  H  7997  8009       L1     8  0.29
      P1  H 10752 10765       L1    18  1.00

> <Gold.PLP.Chemscore.Internal.Correction>
0.1924

> <Gold.Rescore>
     Score         DG    S(hbond)    S(metal)    S(lipo)     H(rot)  DE(clash)    DE(int)     intcor
     12.36     -14.81       2.90        0.00      69.81       3.33       0.07       2.38       ----

> <Gold.Chemscore.Fitness>
12.3576

> <Gold.Chemscore.DG>
-14.8120

> <Gold.Chemscore.ZeroCoef>
-5.4800

> <Gold.Chemscore.Hbond>
2.9012

> <Gold.Chemscore.Metal>
0.0000

> <Gold.Chemscore.Lipo>
69.8094

> <Gold.Chemscore.Internal_Hbond>
0.0000

> <Gold.Chemscore.DEClash>
0.0720

> <Gold.Chemscore.DEInternal>
2.3824

> <Gold.Chemscore.Rot>
3.3303

> <Gold.Chemscore.Internal.Correction>
   9.000000E+99

> <Gold.Chemscore.Hbonds>
donor molecule, donor type, donor heavy atom, donor atom, acceptor molecule, acceptor atom, score
      L1  H    16    27       P1  7948  0.96
      P1  H  6896  6909       L1    24  0.98
      P1  H 10752 10765       L1    18  0.94

> <Gold.Chemscore.Hbond.Weighted>
-9.6899

> <Gold.Chemscore.Metal.Weighted>
-0.0000

> <Gold.Chemscore.Lipo.Weighted>
-8.1677

> <Gold.Chemscore.Internal_Hbond.Weighted>
0.0000

> <Gold.Chemscore.DEClash.Weighted>
0.0720

> <Gold.Chemscore.DEInternal.Weighted>
2.3824

> <Gold.Chemscore.Rot.Weighted>
8.5256

> <Gold.Chemscore.Internal.Correction.Weighted>
   9.000000E+99

> <Gold.Protein.RotatedTorsions>
[ 6907 6896 6895 6894 ] final   86.07 input  -60.11 | X-H torsion
[ 7974 7965 7964 7962 ] final  106.36 input  175.53 | X-H torsion
[ 8008 7997 7996 7995 ] final  174.39 input   59.86 | X-H torsion
[ 10167 10162 10161 10158 ] final -119.56 input  -65.29 | X-H torsion
[ 10718 10713 10712 10709 ] final -173.54 input   66.30 | X-H torsion
[ 10763 10752 10751 10750 ] final  162.94 input  -60.55 | X-H torsion
[ 11005 11000 10999 10996 ] final    2.76 input  -57.11 | X-H torsion

> <Gold.Protein.ActiveResidues>
 VAL166  LYS551  ARG553  GLY616  TRP617  ASP618  TYR619  PRO620  LYS621  CYS622 
 ASP623  PHE694  ASN695  SER759  ASP760  ASP761  ALA762  ILE779  LEU786  VAL792 
 PHE793  MET794  SER795  GLU796  ALA797  LYS798  CYS799  TRP800  GLU811  SER814 

> <Gold.Protein.RotatedAtoms>
  152.5387  134.2489  159.8890 H   0  0  0  0  0  0  0  0  0  0  0  0  # atno 6907 bound_to 6896
  151.2453  133.4371  159.2616 H   0  0  0  0  0  0  0  0  0  0  0  0  # atno 6908 bound_to 6896
  151.0589  134.9737  159.8306 H   0  0  0  0  0  0  0  0  0  0  0  0  # atno 6909 bound_to 6896
  145.3076  139.2550  143.3780 H   0  0  0  0  0  0  0  0  0  0  0  0  # atno 7974 bound_to 7965
  156.0979  140.1435  156.9507 H   0  0  0  0  0  0  0  0  0  0  0  0  # atno 8008 bound_to 7997
  154.4683  140.0918  156.7124 H   0  0  0  0  0  0  0  0  0  0  0  0  # atno 8009 bound_to 7997
  155.4810  140.3445  155.4342 H   0  0  0  0  0  0  0  0  0  0  0  0  # atno 8010 bound_to 7997
  140.0454  143.5112  152.2109 H   0  0  0  0  0  0  0  0  0  0  0  0  # atno 10167 bound_to 10162
  156.7719  130.9451  151.3120 H   0  0  0  0  0  0  0  0  0  0  0  0  # atno 10718 bound_to 10713
  154.2860  135.2762  155.2676 H   0  0  0  0  0  0  0  0  0  0  0  0  # atno 10763 bound_to 10752
  154.5176  135.5765  153.6658 H   0  0  0  0  0  0  0  0  0  0  0  0  # atno 10764 bound_to 10752
  152.9921  135.6196  154.3022 H   0  0  0  0  0  0  0  0  0  0  0  0  # atno 10765 bound_to 10752
  140.6007  133.9838  155.8131 H   0  0  0  0  0  0  0  0  0  0  0  0  # atno 11005 bound_to 11000
  146.3129  140.3604  142.8664 LP  0  0  0  0  0  0  0  0  0  0  0  0  # atno 17320 bound_to 7965
  144.9042  140.7680  143.5848 LP  0  0  0  0  0  0  0  0  0  0  0  0  # atno 17321 bound_to 7965
  139.5987  144.7575  151.3224 LP  0  0  0  0  0  0  0  0  0  0  0  0  # atno 17342 bound_to 10162
  140.7241  143.7053  150.7812 LP  0  0  0  0  0  0  0  0  0  0  0  0  # atno 17343 bound_to 10162
  157.6687  130.9031  149.9991 LP  0  0  0  0  0  0  0  0  0  0  0  0  # atno 17370 bound_to 10713
  156.1273  130.3644  149.9789 LP  0  0  0  0  0  0  0  0  0  0  0  0  # atno 17371 bound_to 10713
  141.0874  133.9969  157.3292 LP  0  0  0  0  0  0  0  0  0  0  0  0  # atno 17394 bound_to 11000
  139.9234  135.0201  156.8146 LP  0  0  0  0  0  0  0  0  0  0  0  0  # atno 17395 bound_to 11000

$$$$
