AV-unprocessed.smi:1870|AV-procd|sdf|7597|dock4
  -GOLD-   22720 9313D 1   1.00000     0.00000
 Structure written by MMmdl.
 47 49  0  0  0  0  0  0  0  0  1 V2000
  146.6369  137.0170  162.5876 C   0  0  0  0  0  0  0  0  0  0  0  0
  147.2928  136.2391  161.4788 C   0  0  0  0  0  0  0  0  0  0  0  0
  147.8844  136.9266  160.5579 N   0  0  0  0  0  0  0  0  0  0  0  0
  148.5148  136.3116  159.4932 N   0  0  0  0  0  0  0  0  0  0  0  0
  149.1238  137.2468  158.5392 C   0  0  0  0  0  0  0  0  0  0  0  0
  150.6453  137.0239  158.4017 C   0  0  2  0  0  0  0  0  0  0  0  0
  151.2568  137.3208  159.6411 O   0  0  0  0  0  0  0  0  0  0  0  0
  151.2591  137.9800  157.3576 C   0  0  0  0  0  0  0  0  0  0  0  0
  151.0395  139.4078  157.5994 N   0  0  0  0  0  0  0  0  0  0  0  0
  151.0233  140.1522  156.3438 C   0  0  0  0  0  0  0  0  0  0  0  0
  150.5448  141.5982  156.5446 C   0  0  0  0  0  0  0  0  0  0  0  0
  151.2351  142.2726  157.7180 C   0  0  0  0  0  0  0  0  0  0  0  0
  151.1561  143.6712  157.8775 C   0  0  0  0  0  0  0  0  0  0  0  0
  151.7745  144.2918  158.9800 C   0  0  0  0  0  0  0  0  0  0  0  0
  152.4720  143.5158  159.9257 C   0  0  0  0  0  0  0  0  0  0  0  0
  152.5518  142.1182  159.7706 C   0  0  0  0  0  0  0  0  0  0  0  0
  151.9308  141.4908  158.6710 C   0  0  0  0  0  0  0  0  0  0  0  0
  152.0534  139.9827  158.4914 C   0  0  0  0  0  0  0  0  0  0  0  0
  148.5746  134.9631  159.3001 C   0  0  0  0  0  0  0  0  0  0  0  0
  149.1405  134.4542  158.3315 O   0  0  0  0  0  0  0  0  0  0  0  0
  147.9062  134.1902  160.3497 C   0  0  0  0  0  0  0  0  0  0  0  0
  147.9489  132.7728  160.1885 C   0  0  0  0  0  0  0  0  0  0  0  0
  147.9621  131.6225  160.0585 N   0  0  0  0  0  0  0  0  0  0  0  0
  147.2885  134.7820  161.4026 C   0  0  0  0  0  0  0  0  0  0  0  0
  146.5796  134.0245  162.5173 C   0  0  0  0  0  0  0  0  0  0  0  0
  147.0939  136.7805  163.5485 H   0  0  0  0  0  0  0  0  0  0  0  0
  145.5746  136.7806  162.6504 H   0  0  0  0  0  0  0  0  0  0  0  0
  146.7256  138.0940  162.4372 H   0  0  0  0  0  0  0  0  0  0  0  0
  148.6492  137.0786  157.5709 H   0  0  0  0  0  0  0  0  0  0  0  0
  148.8988  138.2884  158.7774 H   0  0  0  0  0  0  0  0  0  0  0  0
  150.8396  135.9851  158.1371 H   0  0  0  0  0  0  0  0  0  0  0  0
  150.7748  138.0242  160.0492 H   0  0  0  0  0  0  0  0  0  0  0  0
  152.3327  137.7974  157.2899 H   0  0  0  0  0  0  0  0  0  0  0  0
  150.8551  137.7120  156.3798 H   0  0  0  0  0  0  0  0  0  0  0  0
  152.0227  140.1503  155.9055 H   0  0  0  0  0  0  0  0  0  0  0  0
  150.3677  139.6658  155.6206 H   0  0  0  0  0  0  0  0  0  0  0  0
  150.7100  142.1771  155.6354 H   0  0  0  0  0  0  0  0  0  0  0  0
  149.4711  141.6064  156.7351 H   0  0  0  0  0  0  0  0  0  0  0  0
  150.6182  144.2701  157.1573 H   0  0  0  0  0  0  0  0  0  0  0  0
  151.7127  145.3630  159.1013 H   0  0  0  0  0  0  0  0  0  0  0  0
  152.9478  143.9932  160.7696 H   0  0  0  0  0  0  0  0  0  0  0  0
  153.0942  141.5294  160.4957 H   0  0  0  0  0  0  0  0  0  0  0  0
  151.9898  139.5268  159.4785 H   0  0  0  0  0  0  0  0  0  0  0  0
  153.0529  139.7718  158.1082 H   0  0  0  0  0  0  0  0  0  0  0  0
  146.6755  132.9446  162.4090 H   0  0  0  0  0  0  0  0  0  0  0  0
  145.5153  134.2612  162.5221 H   0  0  0  0  0  0  0  0  0  0  0  0
  146.9958  134.2913  163.4894 H   0  0  0  0  0  0  0  0  0  0  0  0
  1  2  1  0  0  0  0
  1 26  1  0  0  0  0
  1 27  1  0  0  0  0
  1 28  1  0  0  0  0
  2 24  1  0  0  0  0
  2  3  2  0  0  0  0
  3  4  1  0  0  0  0
  4  5  1  0  0  0  0
  4 19  1  0  0  0  0
  5  6  1  0  0  0  0
  5 29  1  0  0  0  0
  5 30  1  0  0  0  0
  6  7  1  0  0  0  0
  6  8  1  0  0  0  0
  6 31  1  0  0  0  0
  7 32  1  0  0  0  0
  8  9  1  0  0  0  0
  8 33  1  0  0  0  0
  8 34  1  0  0  0  0
  9 18  1  0  0  0  0
  9 10  1  0  0  0  0
 10 11  1  0  0  0  0
 10 35  1  0  0  0  0
 10 36  1  0  0  0  0
 11 12  1  0  0  0  0
 11 37  1  0  0  0  0
 11 38  1  0  0  0  0
 12 17  2  0  0  0  0
 12 13  1  0  0  0  0
 13 14  2  0  0  0  0
 13 39  1  0  0  0  0
 14 15  1  0  0  0  0
 14 40  1  0  0  0  0
 15 16  2  0  0  0  0
 15 41  1  0  0  0  0
 16 17  1  0  0  0  0
 16 42  1  0  0  0  0
 17 18  1  0  0  0  0
 18 43  1  0  0  0  0
 18 44  1  0  0  0  0
 19 20  2  0  0  0  0
 19 21  1  0  0  0  0
 21 22  1  0  0  0  0
 21 24  2  0  0  0  0
 22 23  3  0  0  0  0
 24 25  1  0  0  0  0
 25 45  1  0  0  0  0
 25 46  1  0  0  0  0
 25 47  1  0  0  0  0
M  END
> <s_m_source_file>
AV-unprocessed.smi

> <i_m_source_file_index>
1870

> <i_lp_mmshare_version>
43012

> <i_f3d_flags>
0

> <s_epik_input>
TiNDYyhjMVtDSDNdKWMoPU8pbihuYzFbQ0gzXSlbQ0gyXVtDQEhdKFtPSF0pW0NIMl1OKFtDSDJdW0NIMl0yKVtDSDJdYyhjMjMpW2NIXVtjSF1bY0hdW2NIXTM=

> <s_epik_cmdline>
J2VwaWtfcHl0aG9uJywgJy1waCcsICc3LjAnLCAnLXRuJywgJzgnLCAnLW1hJywgJzIwMCcsICctbWV0YWxfYmluZGluZycsICctaW1hZScsICc8aW5maWxlLm1hZT4nLCAnLW9tYWUnLCAnPG91dGZpbGUubWFlPic=

> <r_epik_Ionization_Penalty>
2.30251

> <r_epik_Ionization_Penalty_Charging>
1.06171e-10

> <r_epik_Ionization_Penalty_Neutral>
2.30251

> <r_epik_State_Penalty>
2.45335

> <r_epik_Charging_Adjusted_Penalty>
2.45335

> <i_epik_Tot_Q>
0

> <i_epik_Tot_abs_Q>
0

> <r_epik_Metal_State_Penalty>
2.45335

> <b_epik_Metal_Only>
0

> <s_lp_Force_Field>
OPLS_2005

> <r_lp_Energy>
46.0919

> <b_lp_Chiralities_Consistent>
1

> <s_lp_Variant>
AV-unprocessed.smi:1870-5

> <Gold.Version>
5.8.1

> <Gold.Id.Protein>
6NUR|6NUR_protein|mol2

> <Gold.PLP.Fitness>
57.9718

> <Gold.PLP.PLP>
-50.3500

> <Gold.PLP.part.hbond>
-3.5283

> <Gold.PLP.part.metal>
0.0000

> <Gold.PLP.part.buried>
-4.8065

> <Gold.PLP.part.nonpolar>
-43.6641

> <Gold.PLP.part.repulsive>
0.0000

> <Gold.PLP.ligand.clash>
0.0000

> <Gold.PLP.ligand.torsion>
0.3316

> <Gold.PLP.Chemscore.Hbond>
2.7479

> <Gold.PLP.Chemscore.CHOScore>
0.0000

> <Gold.PLP.Chemscore.Metal>
0.0000

> <Gold.Chemscore.Hbonds>
donor molecule, donor type, donor heavy atom, donor atom, acceptor molecule, acceptor atom, score
      P1  H  6896  6908       L1    20  0.60
      P1  H  6896  6909       L1     7  0.18
      P1  H  6931  6943       L1     3  0.44
      P1  H  6934  6947       L1     3  0.42

> <Gold.PLP.Chemscore.Internal.Correction>
0.0414

> <Gold.Rescore>
     Score         DG    S(hbond)    S(metal)    S(lipo)     H(rot)  DE(clash)    DE(int)     intcor
     18.55     -19.41       1.07        0.00     134.28       2.10       0.30       0.56       ----

> <Gold.Chemscore.Fitness>
18.5540

> <Gold.Chemscore.DG>
-19.4068

> <Gold.Chemscore.ZeroCoef>
-5.4800

> <Gold.Chemscore.Hbond>
1.0731

> <Gold.Chemscore.Metal>
0.0000

> <Gold.Chemscore.Lipo>
134.2834

> <Gold.Chemscore.Internal_Hbond>
0.0000

> <Gold.Chemscore.DEClash>
0.2966

> <Gold.Chemscore.DEInternal>
0.5563

> <Gold.Chemscore.Rot>
2.0971

> <Gold.Chemscore.Internal.Correction>
   9.000000E+99

> <Gold.Chemscore.Hbonds>
donor molecule, donor type, donor heavy atom, donor atom, acceptor molecule, acceptor atom, score
      P1  H  6896  6908       L1    20  0.04
      P1  H  6896  6909       L1     7  0.02
      P1  H  6931  6943       L1     3  0.09
      P1  H  6934  6947       L1     3  0.18

> <Gold.Chemscore.Hbond.Weighted>
-3.5842

> <Gold.Chemscore.Metal.Weighted>
-0.0000

> <Gold.Chemscore.Lipo.Weighted>
-15.7112

> <Gold.Chemscore.Internal_Hbond.Weighted>
0.0000

> <Gold.Chemscore.DEClash.Weighted>
0.2966

> <Gold.Chemscore.DEInternal.Weighted>
0.5563

> <Gold.Chemscore.Rot.Weighted>
5.3685

> <Gold.Chemscore.Internal.Correction.Weighted>
   9.000000E+99

> <Gold.Protein.RotatedTorsions>
[ 6907 6896 6895 6894 ] final  137.02 input  -60.11 | X-H torsion
[ 7974 7965 7964 7962 ] final -122.90 input  175.53 | X-H torsion
[ 8008 7997 7996 7995 ] final -119.84 input   59.86 | X-H torsion
[ 10167 10162 10161 10158 ] final  -28.02 input  -65.29 | X-H torsion
[ 10718 10713 10712 10709 ] final    8.76 input   66.30 | X-H torsion
[ 10763 10752 10751 10750 ] final   63.58 input  -60.55 | X-H torsion
[ 11005 11000 10999 10996 ] final   10.90 input  -57.11 | X-H torsion

> <Gold.Protein.ActiveResidues>
 VAL166  LYS551  ARG553  GLY616  TRP617  ASP618  TYR619  PRO620  LYS621  CYS622 
 ASP623  PHE694  ASN695  SER759  ASP760  ASP761  ALA762  ILE779  LEU786  VAL792 
 PHE793  MET794  SER795  GLU796  ALA797  LYS798  CYS799  TRP800  GLU811  SER814 

> <Gold.Protein.RotatedAtoms>
  152.2828  133.5486  159.5507 H   0  0  0  0  0  0  0  0  0  0  0  0  # atno 6907 bound_to 6896
  150.7203  134.0540  159.3817 H   0  0  0  0  0  0  0  0  0  0  0  0  # atno 6908 bound_to 6896
  151.8450  135.0577  160.0503 H   0  0  0  0  0  0  0  0  0  0  0  0  # atno 6909 bound_to 6896
  145.0244  140.8015  143.4361 H   0  0  0  0  0  0  0  0  0  0  0  0  # atno 7974 bound_to 7965
  155.1222  140.0399  157.2753 H   0  0  0  0  0  0  0  0  0  0  0  0  # atno 8008 bound_to 7997
  154.6605  140.2590  155.7088 H   0  0  0  0  0  0  0  0  0  0  0  0  # atno 8009 bound_to 7997
  156.2617  140.2818  156.1075 H   0  0  0  0  0  0  0  0  0  0  0  0  # atno 8010 bound_to 7997
  140.7273  143.4044  151.1210 H   0  0  0  0  0  0  0  0  0  0  0  0  # atno 10167 bound_to 10162
  156.9564  130.5916  149.5659 H   0  0  0  0  0  0  0  0  0  0  0  0  # atno 10718 bound_to 10713
  153.0023  135.5424  154.6375 H   0  0  0  0  0  0  0  0  0  0  0  0  # atno 10763 bound_to 10752
  154.5638  135.2836  155.0896 H   0  0  0  0  0  0  0  0  0  0  0  0  # atno 10764 bound_to 10752
  154.2088  135.6471  153.5161 H   0  0  0  0  0  0  0  0  0  0  0  0  # atno 10765 bound_to 10752
  140.5093  134.0668  155.7814 H   0  0  0  0  0  0  0  0  0  0  0  0  # atno 11005 bound_to 11000
  145.1853  139.2330  143.5271 LP  0  0  0  0  0  0  0  0  0  0  0  0  # atno 17320 bound_to 7965
  146.3490  140.1636  142.8590 LP  0  0  0  0  0  0  0  0  0  0  0  0  # atno 17321 bound_to 7965
  139.7669  143.8552  152.3112 LP  0  0  0  0  0  0  0  0  0  0  0  0  # atno 17342 bound_to 10162
  139.8457  144.7189  150.9276 LP  0  0  0  0  0  0  0  0  0  0  0  0  # atno 17343 bound_to 10162
  156.0341  130.5430  150.8608 LP  0  0  0  0  0  0  0  0  0  0  0  0  # atno 17370 bound_to 10713
  157.5687  131.0946  150.9450 LP  0  0  0  0  0  0  0  0  0  0  0  0  # atno 17371 bound_to 10713
  141.1394  133.9164  157.2360 LP  0  0  0  0  0  0  0  0  0  0  0  0  # atno 17394 bound_to 11000
  139.9668  135.0139  156.9408 LP  0  0  0  0  0  0  0  0  0  0  0  0  # atno 17395 bound_to 11000

$$$$
