AV-unprocessed.smi:781|AV-procd|sdf|3713|dock8
  -GOLD-   22720 1133D 1   1.00000     0.00000
 Structure written by MMmdl.
 38 40  0  0  0  0  0  0  0  0  1 V2000
  137.8558  137.1950  154.1074 C   0  0  0  0  0  0  0  0  0  0  0  0
  139.3461  137.2045  154.0958 C   0  0  0  0  0  0  0  0  0  0  0  0
  140.2674  138.1717  153.8066 C   0  0  0  0  0  0  0  0  0  0  0  0
  141.5050  137.5012  153.9952 C   0  0  0  0  0  0  0  0  0  0  0  0
  142.7361  138.1741  153.7886 N   0  0  0  0  0  0  0  0  0  0  0  0
  143.9006  137.9662  154.4261 C   0  0  0  0  0  0  0  0  0  0  0  0
  144.0830  137.1414  155.3218 O   0  0  0  0  0  0  0  0  0  0  0  0
  144.8583  138.7838  153.9674 N   0  0  0  0  0  0  0  0  0  0  0  0
  146.2345  138.8225  154.4631 C   0  0  2  0  0  0  0  0  0  0  0  0
  146.5170  140.0252  155.4012 C   0  0  2  0  0  0  0  0  0  0  0  0
  146.0357  141.3509  154.7739 C   0  0  0  0  0  0  0  0  0  0  0  0
  147.0345  141.5575  153.6212 C   0  0  0  0  0  0  0  0  0  0  0  0
  147.9792  140.3449  153.7595 C   0  0  1  0  0  0  0  0  0  0  0  0
  148.0290  140.1802  155.2741 C   0  0  0  0  0  0  0  0  0  0  0  0
  147.2947  139.0198  153.3430 C   0  0  2  0  0  0  0  0  0  0  0  0
  146.8016  138.9390  151.8805 C   0  0  0  0  0  0  0  0  0  0  0  0
  146.3518  137.6334  151.5865 O   0  0  0  0  0  0  0  0  0  0  0  0
  141.3534  136.2387  154.3652 N   0  0  0  0  0  0  0  0  0  0  0  0
  139.9689  136.0418  154.4302 O   0  0  0  0  0  0  0  0  0  0  0  0
  137.4616  138.2039  154.2295 H   0  0  0  0  0  0  0  0  0  0  0  0
  137.4768  136.5839  154.9267 H   0  0  0  0  0  0  0  0  0  0  0  0
  137.4658  136.7900  153.1738 H   0  0  0  0  0  0  0  0  0  0  0  0
  140.0822  139.1932  153.5092 H   0  0  0  0  0  0  0  0  0  0  0  0
  142.7287  138.8918  153.0793 H   0  0  0  0  0  0  0  0  0  0  0  0
  144.6214  139.4318  153.2307 H   0  0  0  0  0  0  0  0  0  0  0  0
  146.4485  137.8885  154.9864 H   0  0  0  0  0  0  0  0  0  0  0  0
  146.1588  139.8744  156.4201 H   0  0  0  0  0  0  0  0  0  0  0  0
  145.0001  141.3275  154.4353 H   0  0  0  0  0  0  0  0  0  0  0  0
  146.1192  142.1646  155.4955 H   0  0  0  0  0  0  0  0  0  0  0  0
  146.5486  141.6185  152.6487 H   0  0  0  0  0  0  0  0  0  0  0  0
  147.5853  142.4879  153.7644 H   0  0  0  0  0  0  0  0  0  0  0  0
  148.9519  140.4964  153.2908 H   0  0  0  0  0  0  0  0  0  0  0  0
  148.4214  141.0565  155.7937 H   0  0  0  0  0  0  0  0  0  0  0  0
  148.5834  139.2977  155.5990 H   0  0  0  0  0  0  0  0  0  0  0  0
  148.0342  138.2254  153.4626 H   0  0  0  0  0  0  0  0  0  0  0  0
  145.9678  139.6253  151.7297 H   0  0  0  0  0  0  0  0  0  0  0  0
  147.5747  139.2208  151.1668 H   0  0  0  0  0  0  0  0  0  0  0  0
  147.0527  137.0257  151.7665 H   0  0  0  0  0  0  0  0  0  0  0  0
  1  2  1  0  0  0  0
  1 20  1  0  0  0  0
  1 21  1  0  0  0  0
  1 22  1  0  0  0  0
  2 19  1  0  0  0  0
  2  3  2  0  0  0  0
  3  4  1  0  0  0  0
  3 23  1  0  0  0  0
  4  5  1  0  0  0  0
  4 18  2  0  0  0  0
  5  6  1  0  0  0  0
  5 24  1  0  0  0  0
  6  7  2  0  0  0  0
  6  8  1  0  0  0  0
  8  9  1  0  0  0  0
  8 25  1  0  0  0  0
  9 15  1  0  0  0  0
  9 10  1  0  0  0  0
  9 26  1  0  0  0  0
 10 14  1  0  0  0  0
 10 11  1  0  0  0  0
 10 27  1  0  0  0  0
 11 12  1  0  0  0  0
 11 28  1  0  0  0  0
 11 29  1  0  0  0  0
 12 13  1  0  0  0  0
 12 30  1  0  0  0  0
 12 31  1  0  0  0  0
 13 14  1  0  0  0  0
 13 15  1  0  0  0  0
 13 32  1  0  0  0  0
 14 33  1  0  0  0  0
 14 34  1  0  0  0  0
 15 16  1  0  0  0  0
 15 35  1  0  0  0  0
 16 17  1  0  0  0  0
 16 36  1  0  0  0  0
 16 37  1  0  0  0  0
 17 38  1  0  0  0  0
 18 19  1  0  0  0  0
M  END
> <s_m_source_file>
AV-unprocessed.smi

> <i_m_source_file_index>
781

> <i_lp_mmshare_version>
43012

> <i_f3d_flags>
0

> <s_epik_input>
W0NIM11jMVtjSF1jKG5vMSlbTkhdQyg9TylbTkhdW0NASF0oW0NAQEhdMjMpW0NASF0oW0NIMl1bT0hdKVtDQEBIXShbQ0gyXTMpW0NIMl1bQ0gyXTI=

> <s_epik_cmdline>
J2VwaWtfcHl0aG9uJywgJy1waCcsICc3LjAnLCAnLXRuJywgJzgnLCAnLW1hJywgJzIwMCcsICctbWV0YWxfYmluZGluZycsICctaW1hZScsICc8aW5maWxlLm1hZT4nLCAnLW9tYWUnLCAnPG91dGZpbGUubWFlPic=

> <r_lp_tautomer_probability>
1

> <r_epik_Ionization_Penalty>
2.32222e-05

> <r_epik_Ionization_Penalty_Charging>
0

> <r_epik_Ionization_Penalty_Neutral>
2.32222e-05

> <r_epik_State_Penalty>
-0

> <r_epik_Charging_Adjusted_Penalty>
0

> <i_epik_Tot_Q>
0

> <i_epik_Tot_abs_Q>
0

> <r_epik_Metal_State_Penalty>
-0

> <b_epik_Metal_Only>
0

> <s_lp_Force_Field>
OPLS_2005

> <r_lp_Energy>
48.8518

> <b_lp_Chiralities_Consistent>
1

> <s_lp_Variant>
AV-unprocessed.smi:781-7

> <Gold.Version>
5.8.1

> <Gold.Id.Protein>
6NUR|6NUR_protein|mol2

> <Gold.PLP.Fitness>
39.1311

> <Gold.PLP.PLP>
-28.8670

> <Gold.PLP.part.hbond>
-4.6375

> <Gold.PLP.part.metal>
0.0000

> <Gold.PLP.part.buried>
-3.4912

> <Gold.PLP.part.nonpolar>
-20.7976

> <Gold.PLP.part.repulsive>
0.1753

> <Gold.PLP.ligand.clash>
0.0000

> <Gold.PLP.ligand.torsion>
0.4909

> <Gold.PLP.Chemscore.Hbond>
3.7460

> <Gold.PLP.Chemscore.CHOScore>
0.0000

> <Gold.PLP.Chemscore.Metal>
0.0000

> <Gold.Chemscore.Hbonds>
donor molecule, donor type, donor heavy atom, donor atom, acceptor molecule, acceptor atom, score
      L1  H     5    24       P1 10175  0.90
      L1  H     8    25       P1 10175  1.00
      L1  H    17    38       P1  7948  0.99
      P1  H 11000 11005       L1    19  0.80

> <Gold.PLP.Chemscore.Internal.Correction>
0.0078

> <Gold.Rescore>
     Score         DG    S(hbond)    S(metal)    S(lipo)     H(rot)  DE(clash)    DE(int)     intcor
     18.79     -19.67       3.53        0.00      61.12       1.86       0.32       0.57       ----

> <Gold.Chemscore.Fitness>
18.7890

> <Gold.Chemscore.DG>
-19.6711

> <Gold.Chemscore.ZeroCoef>
-5.4800

> <Gold.Chemscore.Hbond>
3.5325

> <Gold.Chemscore.Metal>
0.0000

> <Gold.Chemscore.Lipo>
61.1172

> <Gold.Chemscore.Internal_Hbond>
0.0000

> <Gold.Chemscore.DEClash>
0.3155

> <Gold.Chemscore.DEInternal>
0.5666

> <Gold.Chemscore.Rot>
1.8587

> <Gold.Chemscore.Internal.Correction>
   9.000000E+99

> <Gold.Chemscore.Hbonds>
donor molecule, donor type, donor heavy atom, donor atom, acceptor molecule, acceptor atom, score
      L1  H     5    24       P1 10175  0.86
      L1  H     8    25       P1 10175  0.96
      L1  H    17    38       P1  7948  0.92
      P1  H 11000 11005       L1    19  0.11

> <Gold.Chemscore.Hbond.Weighted>
-11.7987

> <Gold.Chemscore.Metal.Weighted>
-0.0000

> <Gold.Chemscore.Lipo.Weighted>
-7.1507

> <Gold.Chemscore.Internal_Hbond.Weighted>
0.0000

> <Gold.Chemscore.DEClash.Weighted>
0.3155

> <Gold.Chemscore.DEInternal.Weighted>
0.5666

> <Gold.Chemscore.Rot.Weighted>
4.7583

> <Gold.Chemscore.Internal.Correction.Weighted>
   9.000000E+99

> <Gold.Protein.RotatedTorsions>
[ 6907 6896 6895 6894 ] final  137.46 input  -60.11 | X-H torsion
[ 7974 7965 7964 7962 ] final   31.95 input  175.53 | X-H torsion
[ 8008 7997 7996 7995 ] final  160.99 input   59.86 | X-H torsion
[ 10167 10162 10161 10158 ] final   13.03 input  -65.29 | X-H torsion
[ 10718 10713 10712 10709 ] final  -57.84 input   66.30 | X-H torsion
[ 10763 10752 10751 10750 ] final  130.23 input  -60.55 | X-H torsion
[ 11005 11000 10999 10996 ] final   63.55 input  -57.11 | X-H torsion

> <Gold.Protein.ActiveResidues>
 VAL166  LYS551  ARG553  GLY616  TRP617  ASP618  TYR619  PRO620  LYS621  CYS622 
 ASP623  PHE694  ASN695  SER759  ASP760  ASP761  ALA762  ILE779  LEU786  VAL792 
 PHE793  MET794  SER795  GLU796  ALA797  LYS798  CYS799  TRP800  GLU811  SER814 

> <Gold.Protein.RotatedAtoms>
  152.2778  133.5442  159.5478 H   0  0  0  0  0  0  0  0  0  0  0  0  # atno 6907 bound_to 6896
  150.7184  134.0607  159.3839 H   0  0  0  0  0  0  0  0  0  0  0  0  # atno 6908 bound_to 6896
  151.8519  135.0555  160.0510 H   0  0  0  0  0  0  0  0  0  0  0  0  # atno 6909 bound_to 6896
  146.1518  139.6590  142.9093 H   0  0  0  0  0  0  0  0  0  0  0  0  # atno 7974 bound_to 7965
  156.2134  140.1789  156.7643 H   0  0  0  0  0  0  0  0  0  0  0  0  # atno 8008 bound_to 7997
  154.5756  140.0675  156.9058 H   0  0  0  0  0  0  0  0  0  0  0  0  # atno 8009 bound_to 7997
  155.2594  140.3334  155.4277 H   0  0  0  0  0  0  0  0  0  0  0  0  # atno 8010 bound_to 7997
  140.6029  143.8567  150.6984 H   0  0  0  0  0  0  0  0  0  0  0  0  # atno 10167 bound_to 10162
  156.1180  130.4168  150.0496 H   0  0  0  0  0  0  0  0  0  0  0  0  # atno 10718 bound_to 10713
  153.7546  135.3205  155.3327 H   0  0  0  0  0  0  0  0  0  0  0  0  # atno 10763 bound_to 10752
  154.8251  135.4575  154.0898 H   0  0  0  0  0  0  0  0  0  0  0  0  # atno 10764 bound_to 10752
  153.2111  135.6936  153.8196 H   0  0  0  0  0  0  0  0  0  0  0  0  # atno 10765 bound_to 10752
  140.0017  134.6432  155.9920 H   0  0  0  0  0  0  0  0  0  0  0  0  # atno 11005 bound_to 11000
  145.4805  141.0438  143.2648 LP  0  0  0  0  0  0  0  0  0  0  0  0  # atno 17320 bound_to 7965
  144.7913  139.6322  143.7112 LP  0  0  0  0  0  0  0  0  0  0  0  0  # atno 17321 bound_to 7965
  140.2117  143.3878  152.1713 LP  0  0  0  0  0  0  0  0  0  0  0  0  # atno 17342 bound_to 10162
  139.5304  144.7152  151.5076 LP  0  0  0  0  0  0  0  0  0  0  0  0  # atno 17343 bound_to 10162
  156.8442  130.9436  151.3630 LP  0  0  0  0  0  0  0  0  0  0  0  0  # atno 17370 bound_to 10713
  157.6363  130.8770  149.9366 LP  0  0  0  0  0  0  0  0  0  0  0  0  # atno 17371 bound_to 10713
  141.1647  133.6537  156.4437 LP  0  0  0  0  0  0  0  0  0  0  0  0  # atno 17394 bound_to 11000
  140.4716  134.6748  157.5131 LP  0  0  0  0  0  0  0  0  0  0  0  0  # atno 17395 bound_to 11000

$$$$
