AV-unprocessed.smi:2510|AV-procd|sdf|9873|dock3
  -GOLD-   2272013503D 1   1.00000     0.00000
 Structure written by MMmdl.
 48 49  0  0  0  0  0  0  0  0  1 V2000
  150.8070  141.3370  155.6971 C   0  0  0  0  0  0  0  0  0  0  0  0
  150.2019  140.0092  156.1825 C   0  0  0  0  0  0  0  0  0  0  0  0
  149.9971  138.9404  155.0805 C   0  0  0  0  0  0  0  0  0  0  0  0
  151.3636  138.6159  154.4273 C   0  0  0  0  0  0  0  0  0  0  0  0
  152.5174  138.3804  155.4145 C   0  0  0  0  0  0  0  0  0  0  0  0
  149.1015  137.7493  155.5403 C   0  0  2  0  0  0  0  0  0  0  0  0
  149.3984  136.4891  154.8601 N   0  0  0  0  0  0  0  0  0  0  0  0
  149.6034  135.3151  155.4764 C   0  0  0  0  0  0  0  0  0  0  0  0
  149.4752  135.1553  156.6899 O   0  0  0  0  0  0  0  0  0  0  0  0
  150.0426  134.1494  154.5883 C   0  0  0  0  0  0  0  0  0  0  0  0
  148.9234  133.1487  154.4625 C   0  0  0  0  0  0  0  0  0  0  0  0
  148.2573  132.7234  153.2746 C   0  0  0  0  0  0  0  0  0  0  0  0
  147.3592  131.7887  153.7064 C   0  0  0  0  0  0  0  0  0  0  0  0
  146.3685  130.9572  152.9657 C   0  0  0  0  0  0  0  0  0  0  0  0
  147.5137  131.7089  155.0710 N   0  0  0  0  0  0  0  0  0  0  0  0
  148.4635  132.5361  155.5449 N   0  0  0  0  0  0  0  0  0  0  0  0
  147.8740  138.4527  154.9332 C   0  0  2  0  0  0  0  0  0  0  0  0
  146.7613  137.6420  154.2730 C   0  0  0  0  0  0  0  0  0  0  0  0
  148.8651  139.2435  154.0674 C   0  0  1  0  0  0  0  0  0  0  0  0
  148.5897  140.6314  153.9481 O   0  0  0  0  0  0  0  0  0  0  0  0
  147.3208  140.9008  153.3792 C   0  0  0  0  0  0  0  0  0  0  0  0
  146.9862  131.1023  155.6829 H   0  0  0  0  0  0  0  0  0  0  0  0
  151.0277  141.9870  156.5437 H   0  0  0  0  0  0  0  0  0  0  0  0
  150.1229  141.8810  155.0464 H   0  0  0  0  0  0  0  0  0  0  0  0
  151.7377  141.1813  155.1519 H   0  0  0  0  0  0  0  0  0  0  0  0
  150.8640  139.6179  156.9553 H   0  0  0  0  0  0  0  0  0  0  0  0
  149.2685  140.2128  156.7066 H   0  0  0  0  0  0  0  0  0  0  0  0
  151.2814  137.7665  153.7494 H   0  0  0  0  0  0  0  0  0  0  0  0
  151.6771  139.4451  153.7937 H   0  0  0  0  0  0  0  0  0  0  0  0
  153.4627  138.2883  154.8798 H   0  0  0  0  0  0  0  0  0  0  0  0
  152.3837  137.4638  155.9878 H   0  0  0  0  0  0  0  0  0  0  0  0
  152.6153  139.2092  156.1159 H   0  0  0  0  0  0  0  0  0  0  0  0
  149.0152  137.6477  156.6231 H   0  0  0  0  0  0  0  0  0  0  0  0
  149.5216  136.5283  153.8586 H   0  0  0  0  0  0  0  0  0  0  0  0
  150.3397  134.5256  153.6083 H   0  0  0  0  0  0  0  0  0  0  0  0
  150.9260  133.6819  155.0245 H   0  0  0  0  0  0  0  0  0  0  0  0
  148.4254  133.0473  152.2580 H   0  0  0  0  0  0  0  0  0  0  0  0
  146.5267  131.0302  151.8896 H   0  0  0  0  0  0  0  0  0  0  0  0
  145.3510  131.2847  153.1800 H   0  0  0  0  0  0  0  0  0  0  0  0
  146.4544  129.9075  153.2475 H   0  0  0  0  0  0  0  0  0  0  0  0
  147.4517  139.1153  155.6907 H   0  0  0  0  0  0  0  0  0  0  0  0
  147.1190  137.1047  153.3944 H   0  0  0  0  0  0  0  0  0  0  0  0
  145.9417  138.2835  153.9505 H   0  0  0  0  0  0  0  0  0  0  0  0
  146.3473  136.9076  154.9641 H   0  0  0  0  0  0  0  0  0  0  0  0
  149.0482  138.7655  153.1022 H   0  0  0  0  0  0  0  0  0  0  0  0
  147.1893  141.9777  153.2766 H   0  0  0  0  0  0  0  0  0  0  0  0
  146.5146  140.5259  154.0093 H   0  0  0  0  0  0  0  0  0  0  0  0
  147.2293  140.4550  152.3881 H   0  0  0  0  0  0  0  0  0  0  0  0
  1  2  1  0  0  0  0
  1 23  1  0  0  0  0
  1 24  1  0  0  0  0
  1 25  1  0  0  0  0
  2  3  1  0  0  0  0
  2 26  1  0  0  0  0
  2 27  1  0  0  0  0
  3 19  1  0  0  0  0
  3  4  1  0  0  0  0
  3  6  1  0  0  0  0
  4  5  1  0  0  0  0
  4 28  1  0  0  0  0
  4 29  1  0  0  0  0
  5 30  1  0  0  0  0
  5 31  1  0  0  0  0
  5 32  1  0  0  0  0
  6  7  1  0  0  0  0
  6 17  1  0  0  0  0
  6 33  1  0  0  0  0
  7  8  1  0  0  0  0
  7 34  1  0  0  0  0
  8  9  2  0  0  0  0
  8 10  1  0  0  0  0
 10 11  1  0  0  0  0
 10 35  1  0  0  0  0
 10 36  1  0  0  0  0
 11 16  2  0  0  0  0
 11 12  1  0  0  0  0
 12 13  2  0  0  0  0
 12 37  1  0  0  0  0
 13 14  1  0  0  0  0
 13 15  1  0  0  0  0
 14 38  1  0  0  0  0
 14 39  1  0  0  0  0
 14 40  1  0  0  0  0
 15 22  1  0  0  0  0
 15 16  1  0  0  0  0
 17 18  1  0  0  0  0
 17 19  1  0  0  0  0
 17 41  1  0  0  0  0
 18 42  1  0  0  0  0
 18 43  1  0  0  0  0
 18 44  1  0  0  0  0
 19 20  1  0  0  0  0
 19 45  1  0  0  0  0
 20 21  1  0  0  0  0
 21 46  1  0  0  0  0
 21 47  1  0  0  0  0
 21 48  1  0  0  0  0
M  END
> <s_m_source_file>
AV-unprocessed.smi

> <i_m_source_file_index>
2510

> <i_lp_mmshare_version>
43012

> <i_f3d_flags>
0

> <s_epik_input>
W0NIM11PW0NAQEhdMVtDQEhdKFtDSDNdKVtDQEBIXShDMShbQ0gyXVtDSDNdKVtDSDJdW0NIM10pW05IXUMoPU8pW0NIMl1jMltjSF1jKFtDSDNdKVtuSF1uMg==

> <s_epik_cmdline>
J2VwaWtfcHl0aG9uJywgJy1waCcsICc3LjAnLCAnLXRuJywgJzgnLCAnLW1hJywgJzIwMCcsICctbWV0YWxfYmluZGluZycsICctaW1hZScsICc8aW5maWxlLm1hZT4nLCAnLW9tYWUnLCAnPG91dGZpbGUubWFlPic=

> <r_lp_tautomer_probability>
0.5

> <r_epik_Ionization_Penalty>
9.73156e-05

> <r_epik_Ionization_Penalty_Charging>
0

> <r_epik_Ionization_Penalty_Neutral>
9.73156e-05

> <r_epik_State_Penalty>
0.41068

> <r_epik_Charging_Adjusted_Penalty>
0.41068

> <i_epik_Tot_Q>
0

> <i_epik_Tot_abs_Q>
0

> <r_epik_Metal_State_Penalty>
0.410699

> <b_epik_Metal_Only>
0

> <s_lp_Force_Field>
OPLS_2005

> <r_lp_Energy>
25.1692

> <b_lp_Chiralities_Consistent>
1

> <s_lp_Variant>
AV-unprocessed.smi:2510-4

> <Gold.Version>
5.8.1

> <Gold.Id.Protein>
6NUR|6NUR_protein|mol2

> <Gold.PLP.Fitness>
33.9410

> <Gold.PLP.PLP>
-31.4691

> <Gold.PLP.part.hbond>
-1.0000

> <Gold.PLP.part.metal>
0.0000

> <Gold.PLP.part.buried>
-4.0803

> <Gold.PLP.part.nonpolar>
-25.9374

> <Gold.PLP.part.repulsive>
0.1683

> <Gold.PLP.ligand.clash>
0.0000

> <Gold.PLP.ligand.torsion>
0.5528

> <Gold.PLP.Chemscore.Hbond>
0.9920

> <Gold.PLP.Chemscore.CHOScore>
0.0000

> <Gold.PLP.Chemscore.Metal>
0.0000

> <Gold.Chemscore.Hbonds>
donor molecule, donor type, donor heavy atom, donor atom, acceptor molecule, acceptor atom, score
      L1  H     7    34       P1  7948  0.91

> <Gold.PLP.Chemscore.Internal.Correction>
0.6015

> <Gold.Rescore>
     Score         DG    S(hbond)    S(metal)    S(lipo)     H(rot)  DE(clash)    DE(int)     intcor
     12.70     -13.30       0.93        0.00      79.90       1.81       0.04       0.56       ----

> <Gold.Chemscore.Fitness>
12.7049

> <Gold.Chemscore.DG>
-13.3033

> <Gold.Chemscore.ZeroCoef>
-5.4800

> <Gold.Chemscore.Hbond>
0.9309

> <Gold.Chemscore.Metal>
0.0000

> <Gold.Chemscore.Lipo>
79.8978

> <Gold.Chemscore.Internal_Hbond>
0.0000

> <Gold.Chemscore.DEClash>
0.0360

> <Gold.Chemscore.DEInternal>
0.5624

> <Gold.Chemscore.Rot>
1.8102

> <Gold.Chemscore.Internal.Correction>
   9.000000E+99

> <Gold.Chemscore.Hbonds>
donor molecule, donor type, donor heavy atom, donor atom, acceptor molecule, acceptor atom, score
      L1  H     7    34       P1  7948  0.67

> <Gold.Chemscore.Hbond.Weighted>
-3.1094

> <Gold.Chemscore.Metal.Weighted>
-0.0000

> <Gold.Chemscore.Lipo.Weighted>
-9.3480

> <Gold.Chemscore.Internal_Hbond.Weighted>
0.0000

> <Gold.Chemscore.DEClash.Weighted>
0.0360

> <Gold.Chemscore.DEInternal.Weighted>
0.5624

> <Gold.Chemscore.Rot.Weighted>
4.6341

> <Gold.Chemscore.Internal.Correction.Weighted>
   9.000000E+99

> <Gold.Protein.RotatedTorsions>
[ 6907 6896 6895 6894 ] final -123.39 input  -60.11 | X-H torsion
[ 7974 7965 7964 7962 ] final   44.64 input  175.53 | X-H torsion
[ 8008 7997 7996 7995 ] final -132.85 input   59.86 | X-H torsion
[ 10167 10162 10161 10158 ] final -133.05 input  -65.29 | X-H torsion
[ 10718 10713 10712 10709 ] final -135.11 input   66.30 | X-H torsion
[ 10763 10752 10751 10750 ] final   62.07 input  -60.55 | X-H torsion
[ 11005 11000 10999 10996 ] final  -41.39 input  -57.11 | X-H torsion

> <Gold.Protein.ActiveResidues>
 VAL166  LYS551  ARG553  GLY616  TRP617  ASP618  TYR619  PRO620  LYS621  CYS622 
 ASP623  PHE694  ASN695  SER759  ASP760  ASP761  ALA762  ILE779  LEU786  VAL792 
 PHE793  MET794  SER795  GLU796  ALA797  LYS798  CYS799  TRP800  GLU811  SER814 

> <Gold.Protein.RotatedAtoms>
  150.8666  133.7565  159.2974 H   0  0  0  0  0  0  0  0  0  0  0  0  # atno 6907 bound_to 6896
  151.5190  135.1065  159.9883 H   0  0  0  0  0  0  0  0  0  0  0  0  # atno 6908 bound_to 6896
  152.4665  133.7891  159.6948 H   0  0  0  0  0  0  0  0  0  0  0  0  # atno 6909 bound_to 6896
  146.0551  139.5052  142.9694 H   0  0  0  0  0  0  0  0  0  0  0  0  # atno 7974 bound_to 7965
  155.3357  140.0469  157.3044 H   0  0  0  0  0  0  0  0  0  0  0  0  # atno 8008 bound_to 7997
  154.5304  140.2255  155.8780 H   0  0  0  0  0  0  0  0  0  0  0  0  # atno 8009 bound_to 7997
  156.1782  140.3080  155.9106 H   0  0  0  0  0  0  0  0  0  0  0  0  # atno 8010 bound_to 7997
  139.9023  143.6593  152.2592 H   0  0  0  0  0  0  0  0  0  0  0  0  # atno 10167 bound_to 10162
  156.2627  130.7219  151.1159 H   0  0  0  0  0  0  0  0  0  0  0  0  # atno 10718 bound_to 10713
  152.9971  135.5478  154.6135 H   0  0  0  0  0  0  0  0  0  0  0  0  # atno 10763 bound_to 10752
  154.5450  135.2822  155.1063 H   0  0  0  0  0  0  0  0  0  0  0  0  # atno 10764 bound_to 10752
  154.2325  135.6431  153.5232 H   0  0  0  0  0  0  0  0  0  0  0  0  # atno 10765 bound_to 10752
  141.0242  133.6849  156.2451 H   0  0  0  0  0  0  0  0  0  0  0  0  # atno 11005 bound_to 11000
  145.6658  141.0229  143.1684 LP  0  0  0  0  0  0  0  0  0  0  0  0  # atno 17320 bound_to 7965
  144.7143  139.8253  143.7404 LP  0  0  0  0  0  0  0  0  0  0  0  0  # atno 17321 bound_to 7965
  139.7015  144.7634  151.1266 LP  0  0  0  0  0  0  0  0  0  0  0  0  # atno 17342 bound_to 10162
  140.7704  143.5452  150.9267 LP  0  0  0  0  0  0  0  0  0  0  0  0  # atno 17343 bound_to 10162
  157.7256  131.0652  150.5945 LP  0  0  0  0  0  0  0  0  0  0  0  0  # atno 17370 bound_to 10713
  156.6034  130.4360  149.5888 LP  0  0  0  0  0  0  0  0  0  0  0  0  # atno 17371 bound_to 10713
  140.6520  134.5057  157.5578 LP  0  0  0  0  0  0  0  0  0  0  0  0  # atno 17394 bound_to 11000
  139.9165  134.8235  156.1348 LP  0  0  0  0  0  0  0  0  0  0  0  0  # atno 17395 bound_to 11000

$$$$
