AV-unprocessed.smi:1493|AV-procd|sdf|6049|dock4
  -GOLD-   22720 6163D 1   1.00000     0.00000
 Structure written by MMmdl.
 33 33  0  0  0  0  0  0  0  0  2 V2000
  153.1795  142.9270  161.6316 C   0  0  0  0  0  0  0  0  0  0  0  0
  153.2802  141.9003  160.4983 C   0  0  0  0  0  0  0  0  0  0  0  0
  153.1859  142.5479  159.1056 C   0  0  0  0  0  0  0  0  0  0  0  0
  151.8827  143.3365  158.8725 C   0  0  1  0  0  0  0  0  0  0  0  0
  152.1313  144.8512  158.8563 C   0  0  0  0  0  0  0  0  0  0  0  0
  151.2618  142.9370  157.6108 N   0  0  0  0  0  0  0  0  0  0  0  0
  150.5128  141.8415  157.4089 C   0  0  0  0  0  0  0  0  0  0  0  0
  150.2549  141.0253  158.2952 O   0  0  0  0  0  0  0  0  0  0  0  0
  149.9883  141.6582  155.9758 C   0  0  0  0  0  0  0  0  0  0  0  0
  150.3855  140.3914  155.3446 N   0  0  0  0  0  0  0  0  0  0  0  0
  151.8313  140.2096  155.2478 N   0  5  0  0  0  0  0  0  0  0  0  0
  152.3197  139.0651  154.7006 C   0  0  0  0  0  0  0  0  0  0  0  0
  153.5226  138.8346  154.6007 O   0  0  0  0  0  0  0  0  0  0  0  0
  151.3691  138.0803  154.2116 C   0  0  0  0  0  0  0  0  0  0  0  0
  150.0395  138.2842  154.2948 C   0  0  0  0  0  0  0  0  0  0  0  0
  149.4713  139.4929  154.8795 C   0  0  0  0  0  0  0  0  0  0  0  0
  148.2579  139.6884  154.9530 O   0  0  0  0  0  0  0  0  0  0  0  0
  153.2511  142.4393  162.6039 H   0  0  0  0  0  0  0  0  0  0  0  0
  152.2295  143.4608  161.5966 H   0  0  0  0  0  0  0  0  0  0  0  0
  153.9813  143.6631  161.5687 H   0  0  0  0  0  0  0  0  0  0  0  0
  154.2212  141.3581  160.5964 H   0  0  0  0  0  0  0  0  0  0  0  0
  152.4867  141.1609  160.6126 H   0  0  0  0  0  0  0  0  0  0  0  0
  154.0330  143.2227  158.9754 H   0  0  0  0  0  0  0  0  0  0  0  0
  153.2910  141.7785  158.3394 H   0  0  0  0  0  0  0  0  0  0  0  0
  151.2124  143.1245  159.7072 H   0  0  0  0  0  0  0  0  0  0  0  0
  152.5800  145.1844  159.7923 H   0  0  0  0  0  0  0  0  0  0  0  0
  151.1983  145.4004  158.7255 H   0  0  0  0  0  0  0  0  0  0  0  0
  152.8028  145.1360  158.0455 H   0  0  0  0  0  0  0  0  0  0  0  0
  151.4194  143.5431  156.8189 H   0  0  0  0  0  0  0  0  0  0  0  0
  148.9000  141.7395  155.9872 H   0  0  0  0  0  0  0  0  0  0  0  0
  150.3350  142.5011  155.3748 H   0  0  0  0  0  0  0  0  0  0  0  0
  151.7377  137.1662  153.7702 H   0  0  0  0  0  0  0  0  0  0  0  0
  149.3697  137.5259  153.9178 H   0  0  0  0  0  0  0  0  0  0  0  0
  1  2  1  0  0  0  0
  1 18  1  0  0  0  0
  1 19  1  0  0  0  0
  1 20  1  0  0  0  0
  2  3  1  0  0  0  0
  2 21  1  0  0  0  0
  2 22  1  0  0  0  0
  3  4  1  0  0  0  0
  3 23  1  0  0  0  0
  3 24  1  0  0  0  0
  4  5  1  0  0  0  0
  4  6  1  0  0  0  0
  4 25  1  0  0  0  0
  5 26  1  0  0  0  0
  5 27  1  0  0  0  0
  5 28  1  0  0  0  0
  6  7  1  0  0  0  0
  6 29  1  0  0  0  0
  7  8  2  0  0  0  0
  7  9  1  0  0  0  0
  9 30  1  0  0  0  0
  9 31  1  0  0  0  0
  9 10  1  0  0  0  0
 10 11  1  0  0  0  0
 10 16  1  0  0  0  0
 11 12  1  0  0  0  0
 12 13  2  0  0  0  0
 12 14  1  0  0  0  0
 14 32  1  0  0  0  0
 14 15  2  0  0  0  0
 15 33  1  0  0  0  0
 15 16  1  0  0  0  0
 16 17  2  0  0  0  0
M  CHG  1  11  -1
M  END
> <s_m_source_file>
AV-unprocessed.smi

> <i_m_source_file_index>
1493

> <i_lp_mmshare_version>
43012

> <i_f3d_flags>
0

> <s_epik_input>
W0NIM11bQ0gyXVtDSDJdW0NASF0oW0NIM10pW05IXUMoPU8pW0NIMl1uMVtuSF1jKD1PKVtjSF1bY0hdYzE9Tw==

> <s_epik_cmdline>
J2VwaWtfcHl0aG9uJywgJy1waCcsICc3LjAnLCAnLXRuJywgJzgnLCAnLW1hJywgJzIwMCcsICctbWV0YWxfYmluZGluZycsICctaW1hZScsICc8aW5maWxlLm1hZT4nLCAnLW9tYWUnLCAnPG91dGZpbGUubWFlPic=

> <r_lp_tautomer_probability>
1

> <r_epik_Ionization_Penalty>
0.0986298

> <r_epik_Ionization_Penalty_Charging>
0.0986298

> <r_epik_Ionization_Penalty_Neutral>
1.93017e-08

> <r_epik_State_Penalty>
0.0347731

> <r_epik_Charging_Adjusted_Penalty>
0.133403

> <i_epik_Tot_Q>
-1

> <i_epik_Tot_abs_Q>
1

> <r_epik_Metal_State_Penalty>
0.0347731

> <b_epik_Metal_Only>
0

> <s_lp_Force_Field>
OPLS_2005

> <r_lp_Energy>
19.264

> <b_lp_Chiralities_Consistent>
1

> <s_lp_Variant>
AV-unprocessed.smi:1493-2

> <Gold.Version>
5.8.1

> <Gold.Id.Protein>
6NUR|6NUR_protein|mol2

> <Gold.PLP.Fitness>
43.6137

> <Gold.PLP.PLP>
-42.8463

> <Gold.PLP.part.hbond>
-2.0000

> <Gold.PLP.part.metal>
0.0000

> <Gold.PLP.part.buried>
-4.3742

> <Gold.PLP.part.nonpolar>
-36.7544

> <Gold.PLP.part.repulsive>
0.1235

> <Gold.PLP.ligand.clash>
0.0000

> <Gold.PLP.ligand.torsion>
1.0082

> <Gold.PLP.Chemscore.Hbond>
0.9120

> <Gold.PLP.Chemscore.CHOScore>
0.0000

> <Gold.PLP.Chemscore.Metal>
0.0000

> <Gold.Chemscore.Hbonds>
donor molecule, donor type, donor heavy atom, donor atom, acceptor molecule, acceptor atom, score
      P1  H  7989  7998       L1    11  0.10
      P1  H  7997  8009       L1    13  0.93

> <Gold.PLP.Chemscore.Internal.Correction>
0.0478

> <Gold.Rescore>
     Score         DG    S(hbond)    S(metal)    S(lipo)     H(rot)  DE(clash)    DE(int)     intcor
     11.48     -12.41       0.84        0.00      81.99       2.14       0.10       0.83       ----

> <Gold.Chemscore.Fitness>
11.4845

> <Gold.Chemscore.DG>
-12.4113

> <Gold.Chemscore.ZeroCoef>
-5.4800

> <Gold.Chemscore.Hbond>
0.8411

> <Gold.Chemscore.Metal>
0.0000

> <Gold.Chemscore.Lipo>
81.9930

> <Gold.Chemscore.Internal_Hbond>
0.0000

> <Gold.Chemscore.DEClash>
0.0985

> <Gold.Chemscore.DEInternal>
0.8283

> <Gold.Chemscore.Rot>
2.1372

> <Gold.Chemscore.Internal.Correction>
   9.000000E+99

> <Gold.Chemscore.Hbonds>
donor molecule, donor type, donor heavy atom, donor atom, acceptor molecule, acceptor atom, score
      P1  H  7997  8009       L1    13  0.60

> <Gold.Chemscore.Hbond.Weighted>
-2.8094

> <Gold.Chemscore.Metal.Weighted>
-0.0000

> <Gold.Chemscore.Lipo.Weighted>
-9.5932

> <Gold.Chemscore.Internal_Hbond.Weighted>
0.0000

> <Gold.Chemscore.DEClash.Weighted>
0.0985

> <Gold.Chemscore.DEInternal.Weighted>
0.8283

> <Gold.Chemscore.Rot.Weighted>
5.4713

> <Gold.Chemscore.Internal.Correction.Weighted>
   9.000000E+99

> <Gold.Protein.RotatedTorsions>
[ 6907 6896 6895 6894 ] final   36.86 input  -60.11 | X-H torsion
[ 7974 7965 7964 7962 ] final   92.98 input  175.53 | X-H torsion
[ 8008 7997 7996 7995 ] final -126.28 input   59.86 | X-H torsion
[ 10167 10162 10161 10158 ] final    8.34 input  -65.29 | X-H torsion
[ 10718 10713 10712 10709 ] final -116.64 input   66.30 | X-H torsion
[ 10763 10752 10751 10750 ] final  -42.14 input  -60.55 | X-H torsion
[ 11005 11000 10999 10996 ] final  163.55 input  -57.11 | X-H torsion

> <Gold.Protein.ActiveResidues>
 VAL166  LYS551  ARG553  GLY616  TRP617  ASP618  TYR619  PRO620  LYS621  CYS622 
 ASP623  PHE694  ASN695  SER759  ASP760  ASP761  ALA762  ILE779  LEU786  VAL792 
 PHE793  MET794  SER795  GLU796  ALA797  LYS798  CYS799  TRP800  GLU811  SER814 

> <Gold.Protein.RotatedAtoms>
  152.1354  134.9103  160.0556 H   0  0  0  0  0  0  0  0  0  0  0  0  # atno 6907 bound_to 6896
  152.0191  133.3887  159.4259 H   0  0  0  0  0  0  0  0  0  0  0  0  # atno 6908 bound_to 6896
  150.6860  134.3567  159.4976 H   0  0  0  0  0  0  0  0  0  0  0  0  # atno 6909 bound_to 6896
  145.4850  139.2277  143.2861 H   0  0  0  0  0  0  0  0  0  0  0  0  # atno 7974 bound_to 7965
  155.2270  140.0424  157.2957 H   0  0  0  0  0  0  0  0  0  0  0  0  # atno 8008 bound_to 7997
  154.5913  140.2427  155.7888 H   0  0  0  0  0  0  0  0  0  0  0  0  # atno 8009 bound_to 7997
  156.2260  140.2954  156.0078 H   0  0  0  0  0  0  0  0  0  0  0  0  # atno 8010 bound_to 7997
  140.6320  143.7972  150.7308 H   0  0  0  0  0  0  0  0  0  0  0  0  # atno 10167 bound_to 10162
  156.0978  130.6146  150.9062 H   0  0  0  0  0  0  0  0  0  0  0  0  # atno 10718 bound_to 10713
  153.9741  135.6725  153.4748 H   0  0  0  0  0  0  0  0  0  0  0  0  # atno 10763 bound_to 10752
  153.0779  135.4939  154.8438 H   0  0  0  0  0  0  0  0  0  0  0  0  # atno 10764 bound_to 10752
  154.7202  135.3115  154.9021 H   0  0  0  0  0  0  0  0  0  0  0  0  # atno 10765 bound_to 10752
  140.2369  134.8081  157.3372 H   0  0  0  0  0  0  0  0  0  0  0  0  # atno 11005 bound_to 11000
  146.2318  140.5639  142.8972 LP  0  0  0  0  0  0  0  0  0  0  0  0  # atno 17320 bound_to 7965
  144.7867  140.5950  143.6569 LP  0  0  0  0  0  0  0  0  0  0  0  0  # atno 17321 bound_to 7965
  140.1585  143.4296  152.2083 LP  0  0  0  0  0  0  0  0  0  0  0  0  # atno 17342 bound_to 10162
  139.5533  144.7354  151.4369 LP  0  0  0  0  0  0  0  0  0  0  0  0  # atno 17343 bound_to 10162
  157.6142  131.0934  150.8740 LP  0  0  0  0  0  0  0  0  0  0  0  0  # atno 17370 bound_to 10713
  156.8874  130.5201  149.5288 LP  0  0  0  0  0  0  0  0  0  0  0  0  # atno 17371 bound_to 10713
  140.1693  134.4629  155.7842 LP  0  0  0  0  0  0  0  0  0  0  0  0  # atno 17394 bound_to 11000
  141.2213  133.6935  156.7680 LP  0  0  0  0  0  0  0  0  0  0  0  0  # atno 17395 bound_to 11000

$$$$
