AV-unprocessed.smi:1129|AV-procd|sdf|4846|dock3
  -GOLD-   22720 3413D 1   1.00000     0.00000
 Structure written by MMmdl.
 40 41  0  0  0  0  0  0  0  0  1 V2000
  150.8862  144.3845  159.3026 C   0  0  0  0  0  0  0  0  0  0  0  0
  151.2550  144.1749  157.9507 O   0  0  0  0  0  0  0  0  0  0  0  0
  151.8644  142.9116  157.7435 C   0  0  0  0  0  0  0  0  0  0  0  0
  150.7742  141.8420  157.6353 C   0  0  0  0  0  0  0  0  0  0  0  0
  150.5237  141.5828  156.2573 O   0  0  0  0  0  0  0  0  0  0  0  0
  150.4464  140.2710  155.8366 C   0  0  0  0  0  0  0  0  0  0  0  0
  150.6230  139.2475  156.7885 C   0  0  0  0  0  0  0  0  0  0  0  0
  150.5422  137.9075  156.3657 C   0  0  0  0  0  0  0  0  0  0  0  0
  150.2778  137.6277  155.0099 C   0  0  0  0  0  0  0  0  0  0  0  0
  150.2141  136.2648  154.6121 N   0  0  0  0  0  0  0  0  0  0  0  0
  150.6651  135.1762  155.2628 C   0  0  0  0  0  0  0  0  0  0  0  0
  151.2352  135.2007  156.3534 O   0  0  0  0  0  0  0  0  0  0  0  0
  150.4518  133.8352  154.5460 C   0  0  2  0  0  0  0  0  0  0  0  0
  148.9659  133.6087  154.2229 C   0  0  0  0  0  0  0  0  0  0  0  0
  148.7646  132.2955  153.4497 C   0  0  0  0  0  0  0  0  0  0  0  0
  149.5279  131.1079  154.0550 C   0  0  0  0  0  0  0  0  0  0  0  0
  149.2082  129.9627  153.7453 O   0  0  0  0  0  0  0  0  0  0  0  0
  150.5575  131.3495  154.8855 N   0  0  0  0  0  0  0  0  0  0  0  0
  150.9733  132.6561  155.3956 C   0  0  0  0  0  0  0  0  0  0  0  0
  150.1299  138.7260  154.1280 C   0  0  0  0  0  0  0  0  0  0  0  0
  150.2083  140.0134  154.5270 N   0  0  0  0  0  0  0  0  0  0  0  0
  150.4414  145.3735  159.4120 H   0  0  0  0  0  0  0  0  0  0  0  0
  151.7535  144.3308  159.9621 H   0  0  0  0  0  0  0  0  0  0  0  0
  150.1517  143.6473  159.6290 H   0  0  0  0  0  0  0  0  0  0  0  0
  152.4610  142.9302  156.8304 H   0  0  0  0  0  0  0  0  0  0  0  0
  152.5348  142.6771  158.5717 H   0  0  0  0  0  0  0  0  0  0  0  0
  151.1022  140.9317  158.1400 H   0  0  0  0  0  0  0  0  0  0  0  0
  149.8653  142.1933  158.1266 H   0  0  0  0  0  0  0  0  0  0  0  0
  150.8170  139.4862  157.8237 H   0  0  0  0  0  0  0  0  0  0  0  0
  150.6764  137.1063  157.0779 H   0  0  0  0  0  0  0  0  0  0  0  0
  149.8340  136.1006  153.6911 H   0  0  0  0  0  0  0  0  0  0  0  0
  151.0035  133.8509  153.6039 H   0  0  0  0  0  0  0  0  0  0  0  0
  148.3786  133.5799  155.1425 H   0  0  0  0  0  0  0  0  0  0  0  0
  148.5747  134.4398  153.6344 H   0  0  0  0  0  0  0  0  0  0  0  0
  147.7024  132.0547  153.3912 H   0  0  0  0  0  0  0  0  0  0  0  0
  149.1124  132.4206  152.4237 H   0  0  0  0  0  0  0  0  0  0  0  0
  151.0605  130.5495  155.2417 H   0  0  0  0  0  0  0  0  0  0  0  0
  152.0624  132.6803  155.4430 H   0  0  0  0  0  0  0  0  0  0  0  0
  150.6150  132.7304  156.4235 H   0  0  0  0  0  0  0  0  0  0  0  0
  149.9641  138.5936  153.0705 H   0  0  0  0  0  0  0  0  0  0  0  0
  1  2  1  0  0  0  0
  1 22  1  0  0  0  0
  1 23  1  0  0  0  0
  1 24  1  0  0  0  0
  2  3  1  0  0  0  0
  3  4  1  0  0  0  0
  3 25  1  0  0  0  0
  3 26  1  0  0  0  0
  4  5  1  0  0  0  0
  4 27  1  0  0  0  0
  4 28  1  0  0  0  0
  5  6  1  0  0  0  0
  6 21  1  0  0  0  0
  6  7  2  0  0  0  0
  7  8  1  0  0  0  0
  7 29  1  0  0  0  0
  8  9  2  0  0  0  0
  8 30  1  0  0  0  0
  9 10  1  0  0  0  0
  9 20  1  0  0  0  0
 10 11  1  0  0  0  0
 10 31  1  0  0  0  0
 11 12  2  0  0  0  0
 11 13  1  0  0  0  0
 13 19  1  0  0  0  0
 13 14  1  0  0  0  0
 13 32  1  0  0  0  0
 14 15  1  0  0  0  0
 14 33  1  0  0  0  0
 14 34  1  0  0  0  0
 15 16  1  0  0  0  0
 15 35  1  0  0  0  0
 15 36  1  0  0  0  0
 16 17  2  0  0  0  0
 16 18  1  0  0  0  0
 18 19  1  0  0  0  0
 18 37  1  0  0  0  0
 19 38  1  0  0  0  0
 19 39  1  0  0  0  0
 20 21  2  0  0  0  0
 20 40  1  0  0  0  0
M  END
> <s_m_source_file>
AV-unprocessed.smi

> <i_m_source_file_index>
1129

> <i_lp_mmshare_version>
43012

> <i_f3d_flags>
0

> <s_epik_input>
W0NIM11PW0NIMl1bQ0gyXU9jMVtjSF1bY0hdYyhbY0hdbjEpW05IXUMoPU8pW0NAQEhdMltDSDJdW0NIMl1DKD1PKVtOSF1bQ0gyXTI=

> <s_epik_cmdline>
J2VwaWtfcHl0aG9uJywgJy1waCcsICc3LjAnLCAnLXRuJywgJzgnLCAnLW1hJywgJzIwMCcsICctbWV0YWxfYmluZGluZycsICctaW1hZScsICc8aW5maWxlLm1hZT4nLCAnLW9tYWUnLCAnPG91dGZpbGUubWFlPic=

> <r_lp_tautomer_probability>
1

> <r_epik_Ionization_Penalty>
1.79985e-05

> <r_epik_Ionization_Penalty_Charging>
0

> <r_epik_Ionization_Penalty_Neutral>
1.79985e-05

> <r_epik_State_Penalty>
-0

> <r_epik_Charging_Adjusted_Penalty>
0

> <i_epik_Tot_Q>
0

> <i_epik_Tot_abs_Q>
0

> <r_epik_Metal_State_Penalty>
-0

> <b_epik_Metal_Only>
0

> <s_lp_Force_Field>
OPLS_2005

> <r_lp_Energy>
17.0479

> <b_lp_Chiralities_Consistent>
1

> <s_lp_Variant>
AV-unprocessed.smi:1129-1

> <Gold.Version>
5.8.1

> <Gold.Id.Protein>
6NUR|6NUR_protein|mol2

> <Gold.PLP.Fitness>
38.8953

> <Gold.PLP.PLP>
-31.2377

> <Gold.PLP.part.hbond>
-2.0000

> <Gold.PLP.part.metal>
0.0000

> <Gold.PLP.part.buried>
-8.0088

> <Gold.PLP.part.nonpolar>
-22.5719

> <Gold.PLP.part.repulsive>
0.4766

> <Gold.PLP.ligand.clash>
0.6036

> <Gold.PLP.ligand.torsion>
0.7837

> <Gold.PLP.Chemscore.Hbond>
2.0000

> <Gold.PLP.Chemscore.CHOScore>
1.2394

> <Gold.PLP.Chemscore.Metal>
0.0000

> <Gold.Chemscore.Hbonds>
donor molecule, donor type, donor heavy atom, donor atom, acceptor molecule, acceptor atom, score
      L1  H    10    31       P1  7948  0.90
      P1  H  7989  7998       L1    21  1.00
      P1  H 10752 10765       L1    12  0.01
      L1  C    20    40       P1  7948  0.32
      L1  C    20    40       P1  7957  1.00

> <Gold.PLP.Chemscore.Internal.Correction>
0.1103

> <Gold.Rescore>
     Score         DG    S(hbond)    S(metal)    S(lipo)     H(rot)  DE(clash)    DE(int)     intcor
     11.39     -13.73       1.80        0.00      63.51       2.03       0.16       2.18       ----

> <Gold.Chemscore.Fitness>
11.3900

> <Gold.Chemscore.DG>
-13.7294

> <Gold.Chemscore.ZeroCoef>
-5.4800

> <Gold.Chemscore.Hbond>
1.7977

> <Gold.Chemscore.Metal>
0.0000

> <Gold.Chemscore.Lipo>
63.5063

> <Gold.Chemscore.Internal_Hbond>
0.0000

> <Gold.Chemscore.DEClash>
0.1611

> <Gold.Chemscore.DEInternal>
2.1782

> <Gold.Chemscore.Rot>
2.0255

> <Gold.Chemscore.Internal.Correction>
   9.000000E+99

> <Gold.Chemscore.Hbonds>
donor molecule, donor type, donor heavy atom, donor atom, acceptor molecule, acceptor atom, score
      L1  H    10    31       P1  7948  0.17
      P1  H  7989  7998       L1    21  0.42

> <Gold.Chemscore.Hbond.Weighted>
-6.0044

> <Gold.Chemscore.Metal.Weighted>
-0.0000

> <Gold.Chemscore.Lipo.Weighted>
-7.4302

> <Gold.Chemscore.Internal_Hbond.Weighted>
0.0000

> <Gold.Chemscore.DEClash.Weighted>
0.1611

> <Gold.Chemscore.DEInternal.Weighted>
2.1782

> <Gold.Chemscore.Rot.Weighted>
5.1853

> <Gold.Chemscore.Internal.Correction.Weighted>
   9.000000E+99

> <Gold.Protein.RotatedTorsions>
[ 6907 6896 6895 6894 ] final   75.48 input  -60.11 | X-H torsion
[ 7974 7965 7964 7962 ] final   75.66 input  175.53 | X-H torsion
[ 8008 7997 7996 7995 ] final -164.98 input   59.86 | X-H torsion
[ 10167 10162 10161 10158 ] final  149.24 input  -65.29 | X-H torsion
[ 10718 10713 10712 10709 ] final -177.80 input   66.30 | X-H torsion
[ 10763 10752 10751 10750 ] final -129.25 input  -60.55 | X-H torsion
[ 11005 11000 10999 10996 ] final   62.76 input  -57.11 | X-H torsion

> <Gold.Protein.ActiveResidues>
 VAL166  LYS551  ARG553  GLY616  TRP617  ASP618  TYR619  PRO620  LYS621  CYS622 
 ASP623  PHE694  ASN695  SER759  ASP760  ASP761  ALA762  ILE779  LEU786  VAL792 
 PHE793  MET794  SER795  GLU796  ALA797  LYS798  CYS799  TRP800  GLU811  SER814 

> <Gold.Protein.RotatedAtoms>
  152.5027  134.4115  159.9449 H   0  0  0  0  0  0  0  0  0  0  0  0  # atno 6907 bound_to 6896
  151.4083  133.3729  159.2748 H   0  0  0  0  0  0  0  0  0  0  0  0  # atno 6908 bound_to 6896
  150.9310  134.8747  159.7611 H   0  0  0  0  0  0  0  0  0  0  0  0  # atno 6909 bound_to 6896
  145.7128  139.2621  143.1641 H   0  0  0  0  0  0  0  0  0  0  0  0  # atno 7974 bound_to 7965
  155.8433  140.0951  157.1721 H   0  0  0  0  0  0  0  0  0  0  0  0  # atno 8008 bound_to 7997
  154.3982  140.1397  156.3816 H   0  0  0  0  0  0  0  0  0  0  0  0  # atno 8009 bound_to 7997
  155.8041  140.3452  155.5422 H   0  0  0  0  0  0  0  0  0  0  0  0  # atno 8010 bound_to 7997
  139.4864  144.5617  151.7218 H   0  0  0  0  0  0  0  0  0  0  0  0  # atno 10167 bound_to 10162
  156.8348  130.9666  151.3104 H   0  0  0  0  0  0  0  0  0  0  0  0  # atno 10718 bound_to 10713
  154.8757  135.3902  154.3888 H   0  0  0  0  0  0  0  0  0  0  0  0  # atno 10763 bound_to 10752
  153.4627  135.7029  153.6046 H   0  0  0  0  0  0  0  0  0  0  0  0  # atno 10764 bound_to 10752
  153.4538  135.3828  155.2267 H   0  0  0  0  0  0  0  0  0  0  0  0  # atno 10765 bound_to 10752
  140.0070  134.6354  155.9840 H   0  0  0  0  0  0  0  0  0  0  0  0  # atno 11005 bound_to 11000
  146.0697  140.7882  142.9694 LP  0  0  0  0  0  0  0  0  0  0  0  0  # atno 17320 bound_to 7965
  144.6937  140.3323  143.7214 LP  0  0  0  0  0  0  0  0  0  0  0  0  # atno 17321 bound_to 7965
  140.5188  144.0911  150.6016 LP  0  0  0  0  0  0  0  0  0  0  0  0  # atno 17342 bound_to 10162
  140.3862  143.2776  152.0114 LP  0  0  0  0  0  0  0  0  0  0  0  0  # atno 17343 bound_to 10162
  157.6387  130.8788  149.9408 LP  0  0  0  0  0  0  0  0  0  0  0  0  # atno 17370 bound_to 10713
  156.0914  130.3663  150.0388 LP  0  0  0  0  0  0  0  0  0  0  0  0  # atno 17371 bound_to 10713
  141.1684  133.6537  156.4562 LP  0  0  0  0  0  0  0  0  0  0  0  0  # atno 17394 bound_to 11000
  140.4623  134.6830  157.5091 LP  0  0  0  0  0  0  0  0  0  0  0  0  # atno 17395 bound_to 11000

$$$$
