AV-unprocessed.smi:1064|AV-procd|sdf|4665|dock4
  -GOLD-   22720 3173D 1   1.00000     0.00000
 Structure written by MMmdl.
 36 37  0  0  0  0  0  0  0  0  2 V2000
  150.0709  140.0477  154.2310 O   0  0  0  0  0  0  0  0  0  0  0  0
  149.2500  140.8307  154.7115 C   0  0  0  0  0  0  0  0  0  0  0  0
  149.5948  141.7433  155.6365 N   0  0  0  0  0  0  0  0  0  0  0  0
  150.9379  141.9351  156.1701 C   0  0  0  0  0  0  0  0  0  0  0  0
  150.9624  141.7965  157.7032 C   0  0  0  0  0  0  0  0  0  0  0  0
  151.0244  143.1030  158.4378 C   0  0  0  0  0  0  0  0  0  0  0  0
  150.3435  144.2149  158.1314 N   0  3  0  0  0  0  0  0  0  0  0  0
  150.6549  145.2230  159.0016 C   0  0  0  0  0  0  0  0  0  0  0  0
  151.5784  144.7090  159.8732 C   0  0  0  0  0  0  0  0  0  0  0  0
  151.7956  143.4083  159.4961 N   0  0  0  0  0  0  0  0  0  0  0  0
  152.7091  142.4607  160.1431 C   0  0  0  0  0  0  0  0  0  0  0  0
  153.7255  142.1711  159.3313 F   0  0  0  0  0  0  0  0  0  0  0  0
  153.1614  142.9576  161.2946 F   0  0  0  0  0  0  0  0  0  0  0  0
  147.9353  140.8305  154.3737 N   0  0  0  0  0  0  0  0  0  0  0  0
  147.1529  139.6599  153.9427 C   0  0  0  0  0  0  0  0  0  0  0  0
  146.3895  139.0916  155.1506 C   0  0  0  0  0  0  0  0  0  0  0  0
  145.2026  140.3084  155.8014 S   0  0  0  0  0  0  0  0  0  0  0  0
  146.2934  141.7593  155.9383 C   0  0  0  0  0  0  0  0  0  0  0  0
  147.0741  141.9904  154.6332 C   0  0  0  0  0  0  0  0  0  0  0  0
  148.8702  142.3501  155.9918 H   0  0  0  0  0  0  0  0  0  0  0  0
  151.6234  141.2248  155.7045 H   0  0  0  0  0  0  0  0  0  0  0  0
  151.2741  142.9312  155.8809 H   0  0  0  0  0  0  0  0  0  0  0  0
  150.0687  141.2756  158.0468 H   0  0  0  0  0  0  0  0  0  0  0  0
  151.8281  141.2196  158.0300 H   0  0  0  0  0  0  0  0  0  0  0  0
  150.2095  146.2050  158.9358 H   0  0  0  0  0  0  0  0  0  0  0  0
  152.0877  145.1633  160.7107 H   0  0  0  0  0  0  0  0  0  0  0  0
  152.1774  141.5342  160.3627 H   0  0  0  0  0  0  0  0  0  0  0  0
  146.4478  139.9518  153.1631 H   0  0  0  0  0  0  0  0  0  0  0  0
  147.7632  138.8799  153.4874 H   0  0  0  0  0  0  0  0  0  0  0  0
  145.8449  138.1908  154.8671 H   0  0  0  0  0  0  0  0  0  0  0  0
  147.0837  138.8103  155.9433 H   0  0  0  0  0  0  0  0  0  0  0  0
  145.6860  142.6320  156.1782 H   0  0  0  0  0  0  0  0  0  0  0  0
  146.9814  141.6103  156.7714 H   0  0  0  0  0  0  0  0  0  0  0  0
  147.6467  142.9165  154.7018 H   0  0  0  0  0  0  0  0  0  0  0  0
  146.3836  142.1403  153.8019 H   0  0  0  0  0  0  0  0  0  0  0  0
  149.6889  144.2944  157.3634 H   0  0  0  0  0  0  0  0  0  0  0  0
  1  2  2  0  0  0  0
  2  3  1  0  0  0  0
  2 14  1  0  0  0  0
  3  4  1  0  0  0  0
  3 20  1  0  0  0  0
  4  5  1  0  0  0  0
  4 21  1  0  0  0  0
  4 22  1  0  0  0  0
  5  6  1  0  0  0  0
  5 23  1  0  0  0  0
  5 24  1  0  0  0  0
  6 10  1  0  0  0  0
  6  7  2  0  0  0  0
  7  8  1  0  0  0  0
  7 36  1  0  0  0  0
  8  9  2  0  0  0  0
  8 25  1  0  0  0  0
  9 10  1  0  0  0  0
  9 26  1  0  0  0  0
 10 11  1  0  0  0  0
 11 12  1  0  0  0  0
 11 13  1  0  0  0  0
 11 27  1  0  0  0  0
 14 19  1  0  0  0  0
 14 15  1  0  0  0  0
 15 16  1  0  0  0  0
 15 28  1  0  0  0  0
 15 29  1  0  0  0  0
 16 17  1  0  0  0  0
 16 30  1  0  0  0  0
 16 31  1  0  0  0  0
 17 18  1  0  0  0  0
 18 19  1  0  0  0  0
 18 32  1  0  0  0  0
 18 33  1  0  0  0  0
 19 34  1  0  0  0  0
 19 35  1  0  0  0  0
M  CHG  1   7   1
M  END
> <s_m_source_file>
AV-unprocessed.smi

> <i_m_source_file_index>
1064

> <i_lp_mmshare_version>
43012

> <i_f3d_flags>
0

> <s_epik_input>
W0NIMl0xW0NIMl1TW0NIMl1bQ0gyXU4xQyg9TylbTkhdW0NIMl1bQ0gyXWMybltjSF1bY0hdbjJbQ0hdKEYpRg==

> <s_epik_cmdline>
J2VwaWtfcHl0aG9uJywgJy1waCcsICc3LjAnLCAnLXRuJywgJzgnLCAnLW1hJywgJzIwMCcsICctbWV0YWxfYmluZGluZycsICctaW1hZScsICc8aW5maWxlLm1hZT4nLCAnLW9tYWUnLCAnPG91dGZpbGUubWFlPic=

> <r_lp_tautomer_probability>
1

> <r_epik_Ionization_Penalty>
1.10071

> <r_epik_Ionization_Penalty_Charging>
0

> <r_epik_Ionization_Penalty_Neutral>
1.10071

> <r_epik_State_Penalty>
1.15778

> <r_epik_Charging_Adjusted_Penalty>
1.15778

> <i_epik_Tot_Q>
1

> <i_epik_Tot_abs_Q>
1

> <r_epik_Metal_State_Penalty>
1.24497

> <b_epik_Metal_Only>
0

> <s_lp_Force_Field>
OPLS_2005

> <r_lp_Energy>
29.6346

> <b_lp_Chiralities_Consistent>
1

> <s_lp_Variant>
AV-unprocessed.smi:1064-2

> <Gold.Version>
5.8.1

> <Gold.Id.Protein>
6NUR|6NUR_protein|mol2

> <Gold.PLP.Fitness>
53.6606

> <Gold.PLP.PLP>
-45.1806

> <Gold.PLP.part.hbond>
-3.0000

> <Gold.PLP.part.metal>
0.0000

> <Gold.PLP.part.buried>
-3.3921

> <Gold.PLP.part.nonpolar>
-38.0925

> <Gold.PLP.part.repulsive>
0.4840

> <Gold.PLP.ligand.clash>
0.9310

> <Gold.PLP.ligand.torsion>
0.9738

> <Gold.PLP.Chemscore.Hbond>
3.7642

> <Gold.PLP.Chemscore.CHOScore>
0.0000

> <Gold.PLP.Chemscore.Metal>
0.0000

> <Gold.Chemscore.Hbonds>
donor molecule, donor type, donor heavy atom, donor atom, acceptor molecule, acceptor atom, score
      L1  H     3    20       P1  8028  0.05
      L1  H     7    36       P1  8028  2.00
      P1  H  7989  7998       L1     1  1.00

> <Gold.PLP.Chemscore.Internal.Correction>
0.0661

> <Gold.Rescore>
     Score         DG    S(hbond)    S(metal)    S(lipo)     H(rot)  DE(clash)    DE(int)     intcor
     13.16     -14.86       1.52        0.00      72.81       1.65       1.01       0.69       ----

> <Gold.Chemscore.Fitness>
13.1638

> <Gold.Chemscore.DG>
-14.8598

> <Gold.Chemscore.ZeroCoef>
-5.4800

> <Gold.Chemscore.Hbond>
1.5244

> <Gold.Chemscore.Metal>
0.0000

> <Gold.Chemscore.Lipo>
72.8090

> <Gold.Chemscore.Internal_Hbond>
0.0000

> <Gold.Chemscore.DEClash>
1.0090

> <Gold.Chemscore.DEInternal>
0.6871

> <Gold.Chemscore.Rot>
1.6525

> <Gold.Chemscore.Internal.Correction>
   9.000000E+99

> <Gold.Chemscore.Hbonds>
donor molecule, donor type, donor heavy atom, donor atom, acceptor molecule, acceptor atom, score
      L1  H     3    20       P1  8028  0.06
      L1  H     7    36       P1  8028  0.25
      P1  H  7989  7998       L1     1  0.85

> <Gold.Chemscore.Hbond.Weighted>
-5.0916

> <Gold.Chemscore.Metal.Weighted>
-0.0000

> <Gold.Chemscore.Lipo.Weighted>
-8.5187

> <Gold.Chemscore.Internal_Hbond.Weighted>
0.0000

> <Gold.Chemscore.DEClash.Weighted>
1.0090

> <Gold.Chemscore.DEInternal.Weighted>
0.6871

> <Gold.Chemscore.Rot.Weighted>
4.2304

> <Gold.Chemscore.Internal.Correction.Weighted>
   9.000000E+99

> <Gold.Protein.RotatedTorsions>
[ 6907 6896 6895 6894 ] final   21.55 input  -60.11 | X-H torsion
[ 7974 7965 7964 7962 ] final  122.48 input  175.53 | X-H torsion
[ 8008 7997 7996 7995 ] final  -90.65 input   59.86 | X-H torsion
[ 10167 10162 10161 10158 ] final  -49.23 input  -65.29 | X-H torsion
[ 10718 10713 10712 10709 ] final -118.95 input   66.30 | X-H torsion
[ 10763 10752 10751 10750 ] final -103.33 input  -60.55 | X-H torsion
[ 11005 11000 10999 10996 ] final  -16.75 input  -57.11 | X-H torsion

> <Gold.Protein.ActiveResidues>
 VAL166  LYS551  ARG553  GLY616  TRP617  ASP618  TYR619  PRO620  LYS621  CYS622 
 ASP623  PHE694  ASN695  SER759  ASP760  ASP761  ALA762  ILE779  LEU786  VAL792 
 PHE793  MET794  SER795  GLU796  ALA797  LYS798  CYS799  TRP800  GLU811  SER814 

> <Gold.Protein.RotatedAtoms>
  151.9135  135.0329  160.0516 H   0  0  0  0  0  0  0  0  0  0  0  0  # atno 6907 bound_to 6896
  152.2259  133.5015  159.5197 H   0  0  0  0  0  0  0  0  0  0  0  0  # atno 6908 bound_to 6896
  150.7012  134.1197  159.4073 H   0  0  0  0  0  0  0  0  0  0  0  0  # atno 6909 bound_to 6896
  145.1070  139.3479  143.4782 H   0  0  0  0  0  0  0  0  0  0  0  0  # atno 7974 bound_to 7965
  154.7012  140.0528  157.0459 H   0  0  0  0  0  0  0  0  0  0  0  0  # atno 8008 bound_to 7997
  155.0682  140.3197  155.4620 H   0  0  0  0  0  0  0  0  0  0  0  0  # atno 8009 bound_to 7997
  156.2760  140.2086  156.5810 H   0  0  0  0  0  0  0  0  0  0  0  0  # atno 8010 bound_to 7997
  140.6695  143.2706  151.4184 H   0  0  0  0  0  0  0  0  0  0  0  0  # atno 10167 bound_to 10162
  156.1145  130.6274  150.9356 H   0  0  0  0  0  0  0  0  0  0  0  0  # atno 10718 bound_to 10713
  154.7799  135.4827  153.9823 H   0  0  0  0  0  0  0  0  0  0  0  0  # atno 10763 bound_to 10752
  153.1480  135.6785  153.8932 H   0  0  0  0  0  0  0  0  0  0  0  0  # atno 10764 bound_to 10752
  153.8586  135.3158  155.3415 H   0  0  0  0  0  0  0  0  0  0  0  0  # atno 10765 bound_to 10752
  140.8099  133.8149  155.9553 H   0  0  0  0  0  0  0  0  0  0  0  0  # atno 11005 bound_to 11000
  146.3528  140.0972  142.8609 LP  0  0  0  0  0  0  0  0  0  0  0  0  # atno 17320 bound_to 7965
  145.0890  140.9272  143.4780 LP  0  0  0  0  0  0  0  0  0  0  0  0  # atno 17321 bound_to 7965
  139.5957  144.1403  152.2141 LP  0  0  0  0  0  0  0  0  0  0  0  0  # atno 17342 bound_to 10162
  140.0771  144.5731  150.7149 LP  0  0  0  0  0  0  0  0  0  0  0  0  # atno 17343 bound_to 10162
  157.6327  131.0919  150.8409 LP  0  0  0  0  0  0  0  0  0  0  0  0  # atno 17370 bound_to 10713
  156.8515  130.5082  149.5311 LP  0  0  0  0  0  0  0  0  0  0  0  0  # atno 17371 bound_to 10713
  140.9208  134.2143  157.4927 LP  0  0  0  0  0  0  0  0  0  0  0  0  # atno 17394 bound_to 11000
  139.8715  134.9791  156.5025 LP  0  0  0  0  0  0  0  0  0  0  0  0  # atno 17395 bound_to 11000

$$$$
