AV-unprocessed.smi:3258|AV-procd|sdf|12468|dock5
  -GOLD-   2272018363D 1   1.00000     0.00000
 Structure written by MMmdl.
 38 39  0  0  0  0  0  0  0  0  1 V2000
  144.1950  135.0150  153.2981 C   0  0  0  0  0  0  0  0  0  0  0  0
  144.9017  135.9576  152.3100 C   0  0  2  0  0  0  0  0  0  0  0  0
  144.9409  135.4095  150.8666 C   0  0  0  0  0  0  0  0  0  0  0  0
  145.0038  133.9602  150.8182 N   0  0  0  0  0  0  0  0  0  0  0  0
  144.0275  133.0780  150.4065 C   0  0  0  0  0  0  0  0  0  0  0  0
  144.5385  131.8183  150.5346 C   0  0  0  0  0  0  0  0  0  0  0  0
  145.8522  132.0359  151.0367 C   0  0  0  0  0  0  0  0  0  0  0  0
  146.1286  133.3192  151.2038 N   0  0  0  0  0  0  0  0  0  0  0  0
  146.2576  136.2190  152.7847 N   0  0  0  0  0  0  0  0  0  0  0  0
  146.5793  136.6308  154.0193 C   0  0  0  0  0  0  0  0  0  0  0  0
  145.7588  136.8384  154.9132 O   0  0  0  0  0  0  0  0  0  0  0  0
  147.9021  136.7968  154.1578 N   0  0  0  0  0  0  0  0  0  0  0  0
  148.5754  137.2483  155.3714 C   0  0  0  0  0  0  0  0  0  0  0  0
  149.9639  137.8428  155.0697 C   0  0  2  0  0  0  0  0  0  0  0  0
  150.7701  138.1742  156.3090 C   0  0  0  0  0  0  0  0  0  0  0  0
  151.8235  139.1350  155.7623 C   0  0  0  0  0  0  0  0  0  0  0  0
  151.2270  139.7777  154.6389 O   0  0  0  0  0  0  0  0  0  0  0  0
  149.9539  139.2012  154.3673 C   0  0  0  0  0  0  0  0  0  0  0  0
  143.1494  134.8642  153.0295 H   0  0  0  0  0  0  0  0  0  0  0  0
  144.2125  135.4225  154.3095 H   0  0  0  0  0  0  0  0  0  0  0  0
  144.6762  134.0368  153.3243 H   0  0  0  0  0  0  0  0  0  0  0  0
  144.3494  136.8994  152.3087 H   0  0  0  0  0  0  0  0  0  0  0  0
  144.0520  135.7218  150.3169 H   0  0  0  0  0  0  0  0  0  0  0  0
  145.7971  135.8199  150.3283 H   0  0  0  0  0  0  0  0  0  0  0  0
  143.0616  133.4173  150.0620 H   0  0  0  0  0  0  0  0  0  0  0  0
  144.0487  130.8840  150.3041 H   0  0  0  0  0  0  0  0  0  0  0  0
  146.6082  131.3048  151.2820 H   0  0  0  0  0  0  0  0  0  0  0  0
  147.0053  136.0794  152.1208 H   0  0  0  0  0  0  0  0  0  0  0  0
  148.4900  136.5995  153.3611 H   0  0  0  0  0  0  0  0  0  0  0  0
  147.9579  137.9649  155.9159 H   0  0  0  0  0  0  0  0  0  0  0  0
  148.6852  136.3836  156.0263 H   0  0  0  0  0  0  0  0  0  0  0  0
  150.5372  137.1386  154.4640 H   0  0  0  0  0  0  0  0  0  0  0  0
  150.1452  138.6854  157.0430 H   0  0  0  0  0  0  0  0  0  0  0  0
  151.2056  137.2956  156.7859 H   0  0  0  0  0  0  0  0  0  0  0  0
  152.1481  139.8603  156.5089 H   0  0  0  0  0  0  0  0  0  0  0  0
  152.7014  138.5859  155.4206 H   0  0  0  0  0  0  0  0  0  0  0  0
  149.7746  139.1205  153.2949 H   0  0  0  0  0  0  0  0  0  0  0  0
  149.1852  139.8490  154.7910 H   0  0  0  0  0  0  0  0  0  0  0  0
  1  2  1  0  0  0  0
  1 19  1  0  0  0  0
  1 20  1  0  0  0  0
  1 21  1  0  0  0  0
  2  3  1  0  0  0  0
  2  9  1  0  0  0  0
  2 22  1  0  0  0  0
  3  4  1  0  0  0  0
  3 23  1  0  0  0  0
  3 24  1  0  0  0  0
  4  8  1  0  0  0  0
  4  5  1  0  0  0  0
  5  6  2  0  0  0  0
  5 25  1  0  0  0  0
  6  7  1  0  0  0  0
  6 26  1  0  0  0  0
  7  8  2  0  0  0  0
  7 27  1  0  0  0  0
  9 10  1  0  0  0  0
  9 28  1  0  0  0  0
 10 11  2  0  0  0  0
 10 12  1  0  0  0  0
 12 13  1  0  0  0  0
 12 29  1  0  0  0  0
 13 14  1  0  0  0  0
 13 30  1  0  0  0  0
 13 31  1  0  0  0  0
 14 18  1  0  0  0  0
 14 15  1  0  0  0  0
 14 32  1  0  0  0  0
 15 16  1  0  0  0  0
 15 33  1  0  0  0  0
 15 34  1  0  0  0  0
 16 17  1  0  0  0  0
 16 35  1  0  0  0  0
 16 36  1  0  0  0  0
 17 18  1  0  0  0  0
 18 37  1  0  0  0  0
 18 38  1  0  0  0  0
M  END
> <s_m_source_file>
AV-unprocessed.smi

> <i_m_source_file_index>
3258

> <i_lp_mmshare_version>
43012

> <i_f3d_flags>
0

> <s_epik_input>
bjFbY0hdW2NIXVtjSF1uMVtDSDJdW0NAQEhdKFtDSDNdKVtOSF1DKD1PKVtOSF1bQ0gyXVtDQEBIXTJbQ0gyXVtDSDJdT1tDSDJdMg==

> <s_epik_cmdline>
J2VwaWtfcHl0aG9uJywgJy1waCcsICc3LjAnLCAnLXRuJywgJzgnLCAnLW1hJywgJzIwMCcsICctbWV0YWxfYmluZGluZycsICctaW1hZScsICc8aW5maWxlLm1hZT4nLCAnLW9tYWUnLCAnPG91dGZpbGUubWFlPic=

> <r_lp_tautomer_probability>
1

> <r_epik_Ionization_Penalty>
6.85079e-05

> <r_epik_Ionization_Penalty_Charging>
0

> <r_epik_Ionization_Penalty_Neutral>
6.85079e-05

> <r_epik_State_Penalty>
-0

> <r_epik_Charging_Adjusted_Penalty>
0

> <i_epik_Tot_Q>
0

> <i_epik_Tot_abs_Q>
0

> <r_epik_Metal_State_Penalty>
-0

> <b_epik_Metal_Only>
0

> <s_lp_Force_Field>
OPLS_2005

> <r_lp_Energy>
16.0555

> <b_lp_Chiralities_Consistent>
1

> <s_lp_Variant>
AV-unprocessed.smi:3258-1

> <Gold.Version>
5.8.1

> <Gold.Id.Protein>
6NUR|6NUR_protein|mol2

> <Gold.PLP.Fitness>
41.9293

> <Gold.PLP.PLP>
-28.5674

> <Gold.PLP.part.hbond>
-3.0000

> <Gold.PLP.part.metal>
0.0000

> <Gold.PLP.part.buried>
-6.1799

> <Gold.PLP.part.nonpolar>
-20.9212

> <Gold.PLP.part.repulsive>
0.2918

> <Gold.PLP.ligand.clash>
0.0000

> <Gold.PLP.ligand.torsion>
0.7107

> <Gold.PLP.Chemscore.Hbond>
2.9280

> <Gold.PLP.Chemscore.CHOScore>
1.9834

> <Gold.PLP.Chemscore.Metal>
0.0000

> <Gold.Chemscore.Hbonds>
donor molecule, donor type, donor heavy atom, donor atom, acceptor molecule, acceptor atom, score
      L1  H     9    28       P1  7948  0.91
      L1  H    12    29       P1  7948  1.00
      P1  H  7989  7998       L1    17  1.00
      L1  C     5    25       P1 10186  1.00
      L1  C     7    27       P1 10747  0.80

> <Gold.PLP.Chemscore.Internal.Correction>
0.0492

> <Gold.Rescore>
     Score         DG    S(hbond)    S(metal)    S(lipo)     H(rot)  DE(clash)    DE(int)     intcor
     17.20     -18.12       2.90        0.00      66.07       1.87       0.25       0.66       ----

> <Gold.Chemscore.Fitness>
17.2042

> <Gold.Chemscore.DG>
-18.1154

> <Gold.Chemscore.ZeroCoef>
-5.4800

> <Gold.Chemscore.Hbond>
2.9037

> <Gold.Chemscore.Metal>
0.0000

> <Gold.Chemscore.Lipo>
66.0708

> <Gold.Chemscore.Internal_Hbond>
0.0000

> <Gold.Chemscore.DEClash>
0.2463

> <Gold.Chemscore.DEInternal>
0.6650

> <Gold.Chemscore.Rot>
1.8724

> <Gold.Chemscore.Internal.Correction>
   9.000000E+99

> <Gold.Chemscore.Hbonds>
donor molecule, donor type, donor heavy atom, donor atom, acceptor molecule, acceptor atom, score
      L1  H     9    28       P1  7948  0.87
      L1  H    12    29       P1  7948  0.99
      P1  H  7989  7998       L1    17  0.78

> <Gold.Chemscore.Hbond.Weighted>
-9.6984

> <Gold.Chemscore.Metal.Weighted>
-0.0000

> <Gold.Chemscore.Lipo.Weighted>
-7.7303

> <Gold.Chemscore.Internal_Hbond.Weighted>
0.0000

> <Gold.Chemscore.DEClash.Weighted>
0.2463

> <Gold.Chemscore.DEInternal.Weighted>
0.6650

> <Gold.Chemscore.Rot.Weighted>
4.7933

> <Gold.Chemscore.Internal.Correction.Weighted>
   9.000000E+99

> <Gold.Protein.RotatedTorsions>
[ 6907 6896 6895 6894 ] final   12.02 input  -60.11 | X-H torsion
[ 7974 7965 7964 7962 ] final -100.77 input  175.53 | X-H torsion
[ 8008 7997 7996 7995 ] final   64.80 input   59.86 | X-H torsion
[ 10167 10162 10161 10158 ] final  125.19 input  -65.29 | X-H torsion
[ 10718 10713 10712 10709 ] final   40.03 input   66.30 | X-H torsion
[ 10763 10752 10751 10750 ] final   39.68 input  -60.55 | X-H torsion
[ 11005 11000 10999 10996 ] final -128.65 input  -57.11 | X-H torsion

> <Gold.Protein.ActiveResidues>
 VAL166  LYS551  ARG553  GLY616  TRP617  ASP618  TYR619  PRO620  LYS621  CYS622 
 ASP623  PHE694  ASN695  SER759  ASP760  ASP761  ALA762  ILE779  LEU786  VAL792 
 PHE793  MET794  SER795  GLU796  ALA797  LYS798  CYS799  TRP800  GLU811  SER814 

> <Gold.Protein.RotatedAtoms>
  151.7636  135.0804  160.0349 H   0  0  0  0  0  0  0  0  0  0  0  0  # atno 6907 bound_to 6896
  152.3336  133.5982  159.5835 H   0  0  0  0  0  0  0  0  0  0  0  0  # atno 6908 bound_to 6896
  150.7437  133.9745  159.3598 H   0  0  0  0  0  0  0  0  0  0  0  0  # atno 6909 bound_to 6896
  145.2902  140.9350  143.2882 H   0  0  0  0  0  0  0  0  0  0  0  0  # atno 7974 bound_to 7965
  155.6518  140.3497  155.4751 H   0  0  0  0  0  0  0  0  0  0  0  0  # atno 8008 bound_to 7997
  155.9841  140.1180  157.0722 H   0  0  0  0  0  0  0  0  0  0  0  0  # atno 8009 bound_to 7997
  154.4200  140.1132  156.5462 H   0  0  0  0  0  0  0  0  0  0  0  0  # atno 8010 bound_to 7997
  139.5700  144.6933  151.3806 H   0  0  0  0  0  0  0  0  0  0  0  0  # atno 10167 bound_to 10162
  157.3774  130.7735  149.7166 H   0  0  0  0  0  0  0  0  0  0  0  0  # atno 10718 bound_to 10713
  152.9959  135.6213  154.2504 H   0  0  0  0  0  0  0  0  0  0  0  0  # atno 10763 bound_to 10752
  154.2243  135.2794  155.2915 H   0  0  0  0  0  0  0  0  0  0  0  0  # atno 10764 bound_to 10752
  154.5503  135.5735  153.6974 H   0  0  0  0  0  0  0  0  0  0  0  0  # atno 10765 bound_to 10752
  140.9498  134.1081  157.4073 H   0  0  0  0  0  0  0  0  0  0  0  0  # atno 11005 bound_to 11000
  144.9179  139.4448  143.6555 LP  0  0  0  0  0  0  0  0  0  0  0  0  # atno 17320 bound_to 7965
  146.3187  139.8023  142.8963 LP  0  0  0  0  0  0  0  0  0  0  0  0  # atno 17321 bound_to 7965
  140.6984  143.7693  150.7363 LP  0  0  0  0  0  0  0  0  0  0  0  0  # atno 17342 bound_to 10162
  140.1196  143.4624  152.2321 LP  0  0  0  0  0  0  0  0  0  0  0  0  # atno 17343 bound_to 10162
  155.9768  130.4070  150.3753 LP  0  0  0  0  0  0  0  0  0  0  0  0  # atno 17370 bound_to 10713
  157.1852  131.0402  151.2728 LP  0  0  0  0  0  0  0  0  0  0  0  0  # atno 17371 bound_to 10713
  139.8844  135.0062  156.6366 LP  0  0  0  0  0  0  0  0  0  0  0  0  # atno 17394 bound_to 11000
  140.7618  133.8811  155.8424 LP  0  0  0  0  0  0  0  0  0  0  0  0  # atno 17395 bound_to 11000

$$$$
