AV-unprocessed.smi:213|AV-procd|sdf|1639|dock2
  -GOLD-   2262020 03D 1   1.00000     0.00000
 Structure written by MMmdl.
 59 62  0  0  0  0  0  0  0  0  2 V2000
  146.5593  138.9687  151.4605 C   0  0  0  0  0  0  0  0  0  0  0  0
  146.5377  137.7208  152.3582 C   0  0  2  0  0  0  0  0  0  0  0  0
  145.5156  136.6766  151.8474 C   0  0  0  0  0  0  0  0  0  0  0  0
  146.0582  135.2943  151.8245 N   0  3  0  0  0  0  0  0  0  0  0  0
  146.0210  134.6337  153.1493 C   0  0  0  0  0  0  0  0  0  0  0  0
  146.6848  133.2487  153.0690 C   0  0  0  0  0  0  0  0  0  0  0  0
  146.0347  132.4624  152.0775 O   0  0  0  0  0  0  0  0  0  0  0  0
  146.1298  133.0479  150.7845 C   0  0  0  0  0  0  0  0  0  0  0  0
  145.4443  134.4242  150.7918 C   0  0  0  0  0  0  0  0  0  0  0  0
  146.3251  138.0764  153.7696 N   0  0  0  0  0  0  0  0  0  0  0  0
  145.2001  137.4923  154.4990 C   0  0  0  0  0  0  0  0  0  0  0  0
  147.4365  138.3751  154.4935 C   0  0  0  0  0  0  0  0  0  0  0  0
  148.1436  137.3683  155.0745 N   0  0  0  0  0  0  0  0  0  0  0  0
  149.2649  137.6314  155.7513 C   0  0  0  0  0  0  0  0  0  0  0  0
  149.8540  138.8094  155.9613 N   0  0  0  0  0  0  0  0  0  0  0  0
  149.1442  139.8256  155.3933 C   0  0  0  0  0  0  0  0  0  0  0  0
  147.9362  139.6993  154.6509 C   0  0  0  0  0  0  0  0  0  0  0  0
  147.5057  140.9540  154.2347 N   0  0  0  0  0  0  0  0  0  0  0  0
  148.4070  141.7738  154.7028 C   0  0  0  0  0  0  0  0  0  0  0  0
  149.4268  141.1796  155.4096 N   0  0  0  0  0  0  0  0  0  0  0  0
  150.5491  141.8493  156.0426 C   0  0  0  0  0  0  0  0  0  0  0  0
  150.4075  141.9084  157.5765 C   0  0  1  0  0  0  0  0  0  0  0  0
  150.4670  140.6104  158.1370 O   0  0  0  0  0  0  0  0  0  0  0  0
  151.4521  142.8297  158.2387 C   0  0  1  0  0  0  0  0  0  0  0  0
  151.4619  144.2908  157.7787 C   0  0  0  0  0  0  0  0  0  0  0  0
  152.0913  144.9731  158.9725 C   0  0  0  0  0  0  0  0  0  0  0  0
  151.4843  144.1899  160.1337 C   0  0  0  0  0  0  0  0  0  0  0  0
  151.3116  142.8580  159.6575 O   0  0  0  0  0  0  0  0  0  0  0  0
  146.8369  138.7059  150.4396 H   0  0  0  0  0  0  0  0  0  0  0  0
  147.2881  139.6963  151.8194 H   0  0  0  0  0  0  0  0  0  0  0  0
  145.5876  139.4603  151.4154 H   0  0  0  0  0  0  0  0  0  0  0  0
  147.5253  137.2772  152.2521 H   0  0  0  0  0  0  0  0  0  0  0  0
  144.6385  136.7045  152.4956 H   0  0  0  0  0  0  0  0  0  0  0  0
  145.1621  136.9430  150.8503 H   0  0  0  0  0  0  0  0  0  0  0  0
  146.5436  135.2463  153.8848 H   0  0  0  0  0  0  0  0  0  0  0  0
  144.9868  134.5386  153.4842 H   0  0  0  0  0  0  0  0  0  0  0  0
  147.7476  133.3397  152.8382 H   0  0  0  0  0  0  0  0  0  0  0  0
  146.6095  132.7398  154.0302 H   0  0  0  0  0  0  0  0  0  0  0  0
  147.1759  133.1352  150.4866 H   0  0  0  0  0  0  0  0  0  0  0  0
  145.6475  132.3904  150.0611 H   0  0  0  0  0  0  0  0  0  0  0  0
  144.3781  134.3102  150.9928 H   0  0  0  0  0  0  0  0  0  0  0  0
  145.5370  134.8753  149.8044 H   0  0  0  0  0  0  0  0  0  0  0  0
  145.0142  138.0399  155.4240 H   0  0  0  0  0  0  0  0  0  0  0  0
  145.3986  136.4500  154.7512 H   0  0  0  0  0  0  0  0  0  0  0  0
  144.2836  137.5291  153.9118 H   0  0  0  0  0  0  0  0  0  0  0  0
  149.7655  136.7758  156.1805 H   0  0  0  0  0  0  0  0  0  0  0  0
  148.3506  142.8417  154.5474 H   0  0  0  0  0  0  0  0  0  0  0  0
  151.4665  141.3319  155.7591 H   0  0  0  0  0  0  0  0  0  0  0  0
  150.6212  142.8575  155.6327 H   0  0  0  0  0  0  0  0  0  0  0  0
  149.4182  142.3012  157.8148 H   0  0  0  0  0  0  0  0  0  0  0  0
  151.3176  140.4962  158.5332 H   0  0  0  0  0  0  0  0  0  0  0  0
  152.4435  142.4159  158.0474 H   0  0  0  0  0  0  0  0  0  0  0  0
  152.0209  144.4420  156.8551 H   0  0  0  0  0  0  0  0  0  0  0  0
  150.4523  144.6756  157.6313 H   0  0  0  0  0  0  0  0  0  0  0  0
  153.1736  144.8403  158.9529 H   0  0  0  0  0  0  0  0  0  0  0  0
  151.8769  146.0409  159.0199 H   0  0  0  0  0  0  0  0  0  0  0  0
  152.1076  144.2172  161.0274 H   0  0  0  0  0  0  0  0  0  0  0  0
  150.5045  144.5937  160.3916 H   0  0  0  0  0  0  0  0  0  0  0  0
  147.0366  135.3822  151.5870 H   0  0  0  0  0  0  0  0  0  0  0  0
  1  2  1  0  0  0  0
  1 29  1  0  0  0  0
  1 30  1  0  0  0  0
  1 31  1  0  0  0  0
  2  3  1  0  0  0  0
  2 10  1  0  0  0  0
  2 32  1  0  0  0  0
  3  4  1  0  0  0  0
  3 33  1  0  0  0  0
  3 34  1  0  0  0  0
  4  9  1  0  0  0  0
  4  5  1  0  0  0  0
  4 59  1  0  0  0  0
  5  6  1  0  0  0  0
  5 35  1  0  0  0  0
  5 36  1  0  0  0  0
  6  7  1  0  0  0  0
  6 37  1  0  0  0  0
  6 38  1  0  0  0  0
  7  8  1  0  0  0  0
  8  9  1  0  0  0  0
  8 39  1  0  0  0  0
  8 40  1  0  0  0  0
  9 41  1  0  0  0  0
  9 42  1  0  0  0  0
 10 11  1  0  0  0  0
 10 12  1  0  0  0  0
 11 43  1  0  0  0  0
 11 44  1  0  0  0  0
 11 45  1  0  0  0  0
 12 17  1  0  0  0  0
 12 13  2  0  0  0  0
 13 14  1  0  0  0  0
 14 15  2  0  0  0  0
 14 46  1  0  0  0  0
 15 16  1  0  0  0  0
 16 20  1  0  0  0  0
 16 17  2  0  0  0  0
 17 18  1  0  0  0  0
 18 19  2  0  0  0  0
 19 20  1  0  0  0  0
 19 47  1  0  0  0  0
 20 21  1  0  0  0  0
 21 22  1  0  0  0  0
 21 48  1  0  0  0  0
 21 49  1  0  0  0  0
 22 23  1  0  0  0  0
 22 24  1  0  0  0  0
 22 50  1  0  0  0  0
 23 51  1  0  0  0  0
 24 28  1  0  0  0  0
 24 25  1  0  0  0  0
 24 52  1  0  0  0  0
 25 26  1  0  0  0  0
 25 53  1  0  0  0  0
 25 54  1  0  0  0  0
 26 27  1  0  0  0  0
 26 55  1  0  0  0  0
 26 56  1  0  0  0  0
 27 28  1  0  0  0  0
 27 57  1  0  0  0  0
 27 58  1  0  0  0  0
M  CHG  1   4   1
M  END
> <s_m_source_file>
AV-unprocessed.smi

> <i_m_source_file_index>
213

> <i_lp_mmshare_version>
43012

> <i_f3d_flags>
0

> <s_epik_input>
W0NIMl0xW0NIMl1PW0NIMl1bQ0gyXU4xW0NIMl1bQ0BASF0oW0NIM10pTihbQ0gzXSljKG5bY0hdbjIpYyhjMjMpbltjSF1uM1tDSDJdW0NASF0oW09IXSlbQ0BASF00W0NIMl1bQ0gyXVtDSDJdTzQ=

> <s_epik_cmdline>
J2VwaWtfcHl0aG9uJywgJy1waCcsICc3LjAnLCAnLXRuJywgJzgnLCAnLW1hJywgJzIwMCcsICctbWV0YWxfYmluZGluZycsICctaW1hZScsICc8aW5maWxlLm1hZT4nLCAnLW9tYWUnLCAnPG91dGZpbGUubWFlPic=

> <r_lp_tautomer_probability>
1

> <r_epik_Ionization_Penalty>
0.399679

> <r_epik_Ionization_Penalty_Charging>
0.399433

> <r_epik_Ionization_Penalty_Neutral>
0.000246213

> <r_epik_State_Penalty>
0.286032

> <r_epik_Charging_Adjusted_Penalty>
0.685465

> <i_epik_Tot_Q>
1

> <i_epik_Tot_abs_Q>
1

> <r_epik_Metal_State_Penalty>
0.286072

> <b_epik_Metal_Only>
0

> <s_lp_Force_Field>
OPLS_2005

> <r_lp_Energy>
47.0923

> <b_lp_Chiralities_Consistent>
1

> <s_lp_Variant>
AV-unprocessed.smi:213-7

> <Gold.Version>
5.8.1

> <Gold.Id.Protein>
6NUR|6NUR_protein|mol2

> <Gold.PLP.Fitness>
48.4753

> <Gold.PLP.PLP>
-43.6925

> <Gold.PLP.part.hbond>
-1.0000

> <Gold.PLP.part.metal>
0.0000

> <Gold.PLP.part.buried>
-3.0980

> <Gold.PLP.part.nonpolar>
-42.0014

> <Gold.PLP.part.repulsive>
0.4200

> <Gold.PLP.ligand.clash>
0.0000

> <Gold.PLP.ligand.torsion>
2.8219

> <Gold.PLP.Chemscore.Hbond>
2.0000

> <Gold.PLP.Chemscore.CHOScore>
1.0000

> <Gold.PLP.Chemscore.Metal>
0.0000

> <Gold.Chemscore.Hbonds>
donor molecule, donor type, donor heavy atom, donor atom, acceptor molecule, acceptor atom, score
      L1  H     4    59       P1  7948  1.79
      L1  C    19    47       P1  8028  1.00

> <Gold.PLP.Chemscore.Internal.Correction>
1.4266

> <Gold.Rescore>
     Score         DG    S(hbond)    S(metal)    S(lipo)     H(rot)  DE(clash)    DE(int)     intcor
     10.47     -14.25       0.90        0.00     111.19       2.83       0.96       2.82       ----

> <Gold.Chemscore.Fitness>
10.4682

> <Gold.Chemscore.DG>
-14.2492

> <Gold.Chemscore.ZeroCoef>
-5.4800

> <Gold.Chemscore.Hbond>
0.8961

> <Gold.Chemscore.Metal>
0.0000

> <Gold.Chemscore.Lipo>
111.1896

> <Gold.Chemscore.Internal_Hbond>
0.0000

> <Gold.Chemscore.DEClash>
0.9562

> <Gold.Chemscore.DEInternal>
2.8248

> <Gold.Chemscore.Rot>
2.8254

> <Gold.Chemscore.Internal.Correction>
   9.000000E+99

> <Gold.Chemscore.Hbonds>
donor molecule, donor type, donor heavy atom, donor atom, acceptor molecule, acceptor atom, score
      L1  H     4    59       P1  7948  0.84

> <Gold.Chemscore.Hbond.Weighted>
-2.9930

> <Gold.Chemscore.Metal.Weighted>
-0.0000

> <Gold.Chemscore.Lipo.Weighted>
-13.0092

> <Gold.Chemscore.Internal_Hbond.Weighted>
0.0000

> <Gold.Chemscore.DEClash.Weighted>
0.9562

> <Gold.Chemscore.DEInternal.Weighted>
2.8248

> <Gold.Chemscore.Rot.Weighted>
7.2330

> <Gold.Chemscore.Internal.Correction.Weighted>
   9.000000E+99

> <Gold.Protein.RotatedTorsions>
[ 6907 6896 6895 6894 ] final   23.06 input  -60.11 | X-H torsion
[ 7974 7965 7964 7962 ] final  -15.19 input  175.53 | X-H torsion
[ 8008 7997 7996 7995 ] final   50.97 input   59.86 | X-H torsion
[ 10167 10162 10161 10158 ] final -116.81 input  -65.29 | X-H torsion
[ 10718 10713 10712 10709 ] final  -55.07 input   66.30 | X-H torsion
[ 10763 10752 10751 10750 ] final  179.28 input  -60.55 | X-H torsion
[ 11005 11000 10999 10996 ] final -169.69 input  -57.11 | X-H torsion

> <Gold.Protein.ActiveResidues>
 VAL166  LYS551  ARG553  GLY616  TRP617  ASP618  TYR619  PRO620  LYS621  CYS622 
 ASP623  PHE694  ASN695  SER759  ASP760  ASP761  ALA762  ILE779  LEU786  VAL792 
 PHE793  MET794  SER795  GLU796  ALA797  LYS798  CYS799  TRP800  GLU811  SER814 

> <Gold.Protein.RotatedAtoms>
  151.9366  135.0232  160.0532 H   0  0  0  0  0  0  0  0  0  0  0  0  # atno 6907 bound_to 6896
  152.2072  133.4880  159.5099 H   0  0  0  0  0  0  0  0  0  0  0  0  # atno 6908 bound_to 6896
  150.6968  134.1431  159.4155 H   0  0  0  0  0  0  0  0  0  0  0  0  # atno 6909 bound_to 6896
  146.2042  140.3457  142.8412 H   0  0  0  0  0  0  0  0  0  0  0  0  # atno 7974 bound_to 7965
  155.4276  140.3449  155.4277 H   0  0  0  0  0  0  0  0  0  0  0  0  # atno 8008 bound_to 7997
  156.1356  140.1527  156.9030 H   0  0  0  0  0  0  0  0  0  0  0  0  # atno 8009 bound_to 7997
  154.4929  140.0836  156.7614 H   0  0  0  0  0  0  0  0  0  0  0  0  # atno 8010 bound_to 7997
  140.0751  143.4840  152.1957 H   0  0  0  0  0  0  0  0  0  0  0  0  # atno 10167 bound_to 10162
  156.1399  130.4155  150.0122 H   0  0  0  0  0  0  0  0  0  0  0  0  # atno 10718 bound_to 10713
  154.5186  135.2792  155.1282 H   0  0  0  0  0  0  0  0  0  0  0  0  # atno 10763 bound_to 10752
  154.2848  135.6278  153.5365 H   0  0  0  0  0  0  0  0  0  0  0  0  # atno 10764 bound_to 10752
  152.9932  135.5660  154.5669 H   0  0  0  0  0  0  0  0  0  0  0  0  # atno 10765 bound_to 10752
  140.5279  134.5645  157.5066 H   0  0  0  0  0  0  0  0  0  0  0  0  # atno 11005 bound_to 11000
  144.8754  140.7329  143.6020 LP  0  0  0  0  0  0  0  0  0  0  0  0  # atno 17320 bound_to 7965
  145.3377  139.1741  143.4503 LP  0  0  0  0  0  0  0  0  0  0  0  0  # atno 17321 bound_to 7965
  139.5812  144.7511  151.3634 LP  0  0  0  0  0  0  0  0  0  0  0  0  # atno 17342 bound_to 10162
  140.7106  143.7400  150.7560 LP  0  0  0  0  0  0  0  0  0  0  0  0  # atno 17343 bound_to 10162
  156.8010  130.9290  151.3646 LP  0  0  0  0  0  0  0  0  0  0  0  0  # atno 17370 bound_to 10713
  157.6566  130.8929  149.9741 LP  0  0  0  0  0  0  0  0  0  0  0  0  # atno 17371 bound_to 10713
  139.9570  134.7518  156.0320 LP  0  0  0  0  0  0  0  0  0  0  0  0  # atno 17394 bound_to 11000
  141.1298  133.6589  156.3433 LP  0  0  0  0  0  0  0  0  0  0  0  0  # atno 17395 bound_to 11000

$$$$
