AV-unprocessed.smi:2079|AV-procd|sdf|8484|dock1
  -GOLD-   2272011193D 1   1.00000     0.00000
 Structure written by MMmdl.
 41 42  0  0  0  0  0  0  0  0  3 V2000
  153.2642  142.2598  161.5066 C   0  0  0  0  0  0  0  0  0  0  0  0
  153.0325  141.4926  160.2503 C   0  0  0  0  0  0  0  0  0  0  0  0
  152.3534  141.7758  159.0989 C   0  0  0  0  0  0  0  0  0  0  0  0
  152.5342  140.6005  158.3218 C   0  0  0  0  0  0  0  0  0  0  0  0
  151.9645  140.4946  157.0253 N   0  0  0  0  0  0  0  0  0  0  0  0
  152.3215  139.6850  156.0116 C   0  0  0  0  0  0  0  0  0  0  0  0
  153.2730  138.9049  156.1396 O   0  0  0  0  0  0  0  0  0  0  0  0
  151.5340  139.8551  154.9133 N   0  5  0  0  0  0  0  0  0  0  0  0
  150.6014  138.8566  154.3925 C   0  0  0  0  0  0  0  0  0  0  0  0
  149.4790  139.5385  153.5833 C   0  0  0  0  0  0  0  0  0  0  0  0
  148.2852  138.6612  153.4420 N   0  3  1  0  0  0  0  0  0  0  0  0
  147.8637  137.9923  154.7069 C   0  0  0  0  0  0  0  0  0  0  0  0
  146.7873  136.9289  154.4346 C   0  0  0  0  0  0  0  0  0  0  0  0
  145.5835  137.5322  153.7000 C   0  0  0  0  0  0  0  0  0  0  0  0
  146.0485  138.2522  152.4248 C   0  0  0  0  0  0  0  0  0  0  0  0
  147.1456  139.2979  152.7158 C   0  0  1  0  0  0  0  0  0  0  0  0
  146.5898  140.5511  153.4273 C   0  0  0  0  0  0  0  0  0  0  0  0
  153.2624  139.6845  158.9432 N   0  0  0  0  0  0  0  0  0  0  0  0
  153.5841  140.2509  160.1822 O   0  0  0  0  0  0  0  0  0  0  0  0
  152.9325  143.2927  161.3994 H   0  0  0  0  0  0  0  0  0  0  0  0
  154.3232  142.2700  161.7646 H   0  0  0  0  0  0  0  0  0  0  0  0
  152.7174  141.8129  162.3370 H   0  0  0  0  0  0  0  0  0  0  0  0
  151.8121  142.6777  158.8545 H   0  0  0  0  0  0  0  0  0  0  0  0
  151.1776  141.1000  156.8446 H   0  0  0  0  0  0  0  0  0  0  0  0
  151.0977  138.1181  153.7613 H   0  0  0  0  0  0  0  0  0  0  0  0
  150.1522  138.2848  155.2046 H   0  0  0  0  0  0  0  0  0  0  0  0
  149.1927  140.4917  154.0308 H   0  0  0  0  0  0  0  0  0  0  0  0
  149.8766  139.7741  152.5950 H   0  0  0  0  0  0  0  0  0  0  0  0
  148.7193  137.5097  155.1799 H   0  0  0  0  0  0  0  0  0  0  0  0
  147.4982  138.7314  155.4204 H   0  0  0  0  0  0  0  0  0  0  0  0
  147.2145  136.1237  153.8354 H   0  0  0  0  0  0  0  0  0  0  0  0
  146.4633  136.4772  155.3726 H   0  0  0  0  0  0  0  0  0  0  0  0
  144.8672  136.7495  153.4488 H   0  0  0  0  0  0  0  0  0  0  0  0
  145.0605  138.2289  154.3556 H   0  0  0  0  0  0  0  0  0  0  0  0
  146.4377  137.5130  151.7230 H   0  0  0  0  0  0  0  0  0  0  0  0
  145.1987  138.7214  151.9280 H   0  0  0  0  0  0  0  0  0  0  0  0
  147.5288  139.6247  151.7479 H   0  0  0  0  0  0  0  0  0  0  0  0
  145.7862  140.9993  152.8425 H   0  0  0  0  0  0  0  0  0  0  0  0
  147.3544  141.3172  153.5556 H   0  0  0  0  0  0  0  0  0  0  0  0
  146.1832  140.3253  154.4124 H   0  0  0  0  0  0  0  0  0  0  0  0
  148.5934  137.9178  152.8315 H   0  0  0  0  0  0  0  0  0  0  0  0
  1  2  1  0  0  0  0
  1 20  1  0  0  0  0
  1 21  1  0  0  0  0
  1 22  1  0  0  0  0
  2 19  1  0  0  0  0
  2  3  2  0  0  0  0
  3  4  1  0  0  0  0
  3 23  1  0  0  0  0
  4  5  1  0  0  0  0
  4 18  2  0  0  0  0
  5  6  1  0  0  0  0
  5 24  1  0  0  0  0
  6  7  2  0  0  0  0
  6  8  1  0  0  0  0
  8  9  1  0  0  0  0
  9 10  1  0  0  0  0
  9 25  1  0  0  0  0
  9 26  1  0  0  0  0
 10 11  1  0  0  0  0
 10 27  1  0  0  0  0
 10 28  1  0  0  0  0
 11 16  1  0  0  0  0
 11 12  1  0  0  0  0
 11 41  1  0  0  0  0
 12 13  1  0  0  0  0
 12 29  1  0  0  0  0
 12 30  1  0  0  0  0
 13 14  1  0  0  0  0
 13 31  1  0  0  0  0
 13 32  1  0  0  0  0
 14 15  1  0  0  0  0
 14 33  1  0  0  0  0
 14 34  1  0  0  0  0
 15 16  1  0  0  0  0
 15 35  1  0  0  0  0
 15 36  1  0  0  0  0
 16 17  1  0  0  0  0
 16 37  1  0  0  0  0
 17 38  1  0  0  0  0
 17 39  1  0  0  0  0
 17 40  1  0  0  0  0
 18 19  1  0  0  0  0
M  CHG  1   8  -1
M  CHG  1  11   1
M  END
> <s_m_source_file>
AV-unprocessed.smi

> <i_m_source_file_index>
2079

> <i_lp_mmshare_version>
43012

> <i_f3d_flags>
0

> <s_epik_input>
W0NIM11jMVtjSF1jKG5vMSlbTkhdQyg9TylbTkhdW0NIMl1bQ0gyXU4yW0NIMl1bQ0gyXVtDSDJdW0NIMl1bQ0BIXTJbQ0gzXQ==

> <s_epik_cmdline>
J2VwaWtfcHl0aG9uJywgJy1waCcsICc3LjAnLCAnLXRuJywgJzgnLCAnLW1hJywgJzIwMCcsICctbWV0YWxfYmluZGluZycsICctaW1hZScsICc8aW5maWxlLm1hZT4nLCAnLW9tYWUnLCAnPG91dGZpbGUubWFlPic=

> <r_epik_Ionization_Penalty>
6.7666

> <r_epik_Ionization_Penalty_Charging>
6.7666

> <r_epik_Ionization_Penalty_Neutral>
5.77131e-06

> <r_epik_State_Penalty>
6.79217

> <r_epik_Charging_Adjusted_Penalty>
13.5588

> <i_epik_Tot_Q>
0

> <i_epik_Tot_abs_Q>
2

> <r_epik_Metal_State_Penalty>
2.72569

> <b_epik_Metal_Only>
1

> <s_lp_Force_Field>
OPLS_2005

> <r_lp_Energy>
14.7698

> <b_lp_Chiralities_Consistent>
1

> <s_lp_Variant>
AV-unprocessed.smi:2079-10

> <Gold.Version>
5.8.1

> <Gold.Id.Protein>
6NUR|6NUR_protein|mol2

> <Gold.PLP.Fitness>
38.9295

> <Gold.PLP.PLP>
-28.9498

> <Gold.PLP.part.hbond>
-4.0000

> <Gold.PLP.part.metal>
0.0000

> <Gold.PLP.part.buried>
4.0305

> <Gold.PLP.part.nonpolar>
-29.0981

> <Gold.PLP.part.repulsive>
0.2053

> <Gold.PLP.ligand.clash>
0.0000

> <Gold.PLP.ligand.torsion>
1.0555

> <Gold.PLP.Chemscore.Hbond>
4.0000

> <Gold.PLP.Chemscore.CHOScore>
0.0000

> <Gold.PLP.Chemscore.Metal>
0.0000

> <Gold.Chemscore.Hbonds>
donor molecule, donor type, donor heavy atom, donor atom, acceptor molecule, acceptor atom, score
      L1  H    11    41       P1  7948  2.00
      P1  H  7989  7998       L1     8  0.95
      P1  H  7997  8008       L1     7  0.65

> <Gold.PLP.Chemscore.Internal.Correction>
0.0907

> <Gold.Rescore>
     Score         DG    S(hbond)    S(metal)    S(lipo)     H(rot)  DE(clash)    DE(int)     intcor
     14.68     -18.16       2.75        0.00      63.66       1.54       1.06       2.42       ----

> <Gold.Chemscore.Fitness>
14.6795

> <Gold.Chemscore.DG>
-18.1623

> <Gold.Chemscore.ZeroCoef>
-5.4800

> <Gold.Chemscore.Hbond>
2.7480

> <Gold.Chemscore.Metal>
0.0000

> <Gold.Chemscore.Lipo>
63.6634

> <Gold.Chemscore.Internal_Hbond>
0.0000

> <Gold.Chemscore.DEClash>
1.0642

> <Gold.Chemscore.DEInternal>
2.4186

> <Gold.Chemscore.Rot>
1.5409

> <Gold.Chemscore.Internal.Correction>
   9.000000E+99

> <Gold.Chemscore.Hbonds>
donor molecule, donor type, donor heavy atom, donor atom, acceptor molecule, acceptor atom, score
      L1  H    11    41       P1  7948  0.99
      P1  H  7989  7998       L1     8  0.21
      P1  H  7997  8008       L1     7  0.05

> <Gold.Chemscore.Hbond.Weighted>
-9.1783

> <Gold.Chemscore.Metal.Weighted>
-0.0000

> <Gold.Chemscore.Lipo.Weighted>
-7.4486

> <Gold.Chemscore.Internal_Hbond.Weighted>
0.0000

> <Gold.Chemscore.DEClash.Weighted>
1.0642

> <Gold.Chemscore.DEInternal.Weighted>
2.4186

> <Gold.Chemscore.Rot.Weighted>
3.9446

> <Gold.Chemscore.Internal.Correction.Weighted>
   9.000000E+99

> <Gold.Protein.RotatedTorsions>
[ 6907 6896 6895 6894 ] final  169.93 input  -60.11 | X-H torsion
[ 7974 7965 7964 7962 ] final   30.76 input  175.53 | X-H torsion
[ 8008 7997 7996 7995 ] final  -39.88 input   59.86 | X-H torsion
[ 10167 10162 10161 10158 ] final -153.20 input  -65.29 | X-H torsion
[ 10718 10713 10712 10709 ] final  -77.79 input   66.30 | X-H torsion
[ 10763 10752 10751 10750 ] final  -49.51 input  -60.55 | X-H torsion
[ 11005 11000 10999 10996 ] final -168.43 input  -57.11 | X-H torsion

> <Gold.Protein.ActiveResidues>
 VAL166  LYS551  ARG553  GLY616  TRP617  ASP618  TYR619  PRO620  LYS621  CYS622 
 ASP623  PHE694  ASN695  SER759  ASP760  ASP761  ALA762  ILE779  LEU786  VAL792 
 PHE793  MET794  SER795  GLU796  ALA797  LYS798  CYS799  TRP800  GLU811  SER814 

> <Gold.Protein.RotatedAtoms>
  151.8241  133.3399  159.3593 H   0  0  0  0  0  0  0  0  0  0  0  0  # atno 6907 bound_to 6896
  150.7285  134.5545  159.5821 H   0  0  0  0  0  0  0  0  0  0  0  0  # atno 6908 bound_to 6896
  152.2984  134.7641  160.0414 H   0  0  0  0  0  0  0  0  0  0  0  0  # atno 6909 bound_to 6896
  146.1592  139.6746  142.9045 H   0  0  0  0  0  0  0  0  0  0  0  0  # atno 7974 bound_to 7965
  154.4018  140.1540  156.2935 H   0  0  0  0  0  0  0  0  0  0  0  0  # atno 8008 bound_to 7997
  155.8764  140.3446  155.5835 H   0  0  0  0  0  0  0  0  0  0  0  0  # atno 8009 bound_to 7997
  155.7717  140.0831  157.2095 H   0  0  0  0  0  0  0  0  0  0  0  0  # atno 8010 bound_to 7997
  139.7117  143.9098  152.2470 H   0  0  0  0  0  0  0  0  0  0  0  0  # atno 10167 bound_to 10162
  156.0135  130.4500  150.3398 H   0  0  0  0  0  0  0  0  0  0  0  0  # atno 10718 bound_to 10713
  154.0953  135.6571  153.4859 H   0  0  0  0  0  0  0  0  0  0  0  0  # atno 10763 bound_to 10752
  153.0307  135.5212  154.7340 H   0  0  0  0  0  0  0  0  0  0  0  0  # atno 10764 bound_to 10752
  154.6476  135.2997  154.9996 H   0  0  0  0  0  0  0  0  0  0  0  0  # atno 10765 bound_to 10752
  140.5421  134.5512  157.5102 H   0  0  0  0  0  0  0  0  0  0  0  0  # atno 11005 bound_to 11000
  145.4631  141.0433  143.2740 LP  0  0  0  0  0  0  0  0  0  0  0  0  # atno 17320 bound_to 7965
  144.8004  139.6152  143.7074 LP  0  0  0  0  0  0  0  0  0  0  0  0  # atno 17321 bound_to 7965
  139.8969  144.6934  150.8708 LP  0  0  0  0  0  0  0  0  0  0  0  0  # atno 17342 bound_to 10162
  140.7734  143.3543  151.1952 LP  0  0  0  0  0  0  0  0  0  0  0  0  # atno 17343 bound_to 10162
  157.1494  131.0317  151.2892 LP  0  0  0  0  0  0  0  0  0  0  0  0  # atno 17370 bound_to 10713
  157.4405  130.7541  149.7065 LP  0  0  0  0  0  0  0  0  0  0  0  0  # atno 17371 bound_to 10713
  139.9499  134.7636  156.0474 LP  0  0  0  0  0  0  0  0  0  0  0  0  # atno 17394 bound_to 11000
  141.1221  133.6610  156.3242 LP  0  0  0  0  0  0  0  0  0  0  0  0  # atno 17395 bound_to 11000

$$$$
