AV-unprocessed.smi:148|AV-procd|sdf|1213|dock10
  -GOLD-   2262018393D 1   1.00000     0.00000
 Structure written by MMmdl.
 63 67  0  0  0  0  0  0  0  0  1 V2000
  156.2137  140.2612  159.0808 O   0  0  0  0  0  0  0  0  0  0  0  0
  155.3872  140.8822  160.0428 C   0  0  0  0  0  0  0  0  0  0  0  0
  153.9224  140.9618  159.5515 C   0  0  1  0  0  0  0  0  0  0  0  0
  153.3487  139.5677  159.1746 C   0  0  0  0  0  0  0  0  0  0  0  0
  152.1457  139.6135  158.3555 N   0  0  0  0  0  0  0  0  0  0  0  0
  150.8443  139.6998  158.7996 C   0  0  0  0  0  0  0  0  0  0  0  0
  149.9347  139.7205  157.8645 N   0  0  0  0  0  0  0  0  0  0  0  0
  150.6638  139.6634  156.6839 C   0  0  0  0  0  0  0  0  0  0  0  0
  150.3205  139.6550  155.3023 C   0  0  0  0  0  0  0  0  0  0  0  0
  149.0574  139.6895  154.8245 N   0  0  0  0  0  0  0  0  0  0  0  0
  148.8693  140.9402  154.0849 C   0  0  0  0  0  0  0  0  0  0  0  0
  147.3971  141.1740  153.7360 C   0  0  0  0  0  0  0  0  0  0  0  0
  146.8578  139.9752  152.9564 C   0  0  0  0  0  0  0  0  0  0  0  0
  147.0625  138.6942  153.7737 C   0  0  0  0  0  0  0  0  0  0  0  0
  148.5469  138.4640  154.1720 C   0  0  2  0  0  0  0  0  0  0  0  0
  148.6717  137.1742  155.0564 C   0  0  2  0  0  0  0  0  0  0  0  0
  150.0178  136.4175  155.0175 C   0  0  0  0  0  0  0  0  0  0  0  0
  149.7308  134.9650  155.4245 C   0  0  0  0  0  0  0  0  0  0  0  0
  148.2075  134.8363  155.5035 C   0  0  0  0  0  0  0  0  0  0  0  0
  147.6614  136.0482  154.7479 C   0  0  2  0  0  0  0  0  0  0  0  0
  147.6340  135.7417  153.3647 O   0  0  0  0  0  0  0  0  0  0  0  0
  151.3255  139.5807  154.3952 N   0  0  0  0  0  0  0  0  0  0  0  0
  152.5954  139.5427  154.8102 C   0  0  0  0  0  0  0  0  0  0  0  0
  153.0666  139.5563  156.0593 N   0  0  0  0  0  0  0  0  0  0  0  0
  152.0556  139.6084  156.9736 C   0  0  0  0  0  0  0  0  0  0  0  0
  153.0309  141.7153  160.5738 C   0  0  2  0  0  0  0  0  0  0  0  0
  152.8079  143.1851  160.2585 C   0  0  0  0  0  0  0  0  0  0  0  0
  152.3358  143.7370  161.5988 C   0  0  0  0  0  0  0  0  0  0  0  0
  153.0051  142.9635  162.5876 O   0  0  0  0  0  0  0  0  0  0  0  0
  153.6224  141.8314  161.9836 C   0  0  0  0  0  0  0  0  0  0  0  0
  156.3583  139.3647  159.3445 H   0  0  0  0  0  0  0  0  0  0  0  0
  155.4626  140.3491  160.9905 H   0  0  0  0  0  0  0  0  0  0  0  0
  155.7957  141.8780  160.2107 H   0  0  0  0  0  0  0  0  0  0  0  0
  153.9270  141.5563  158.6364 H   0  0  0  0  0  0  0  0  0  0  0  0
  154.0973  138.9778  158.6458 H   0  0  0  0  0  0  0  0  0  0  0  0
  153.1224  138.9999  160.0776 H   0  0  0  0  0  0  0  0  0  0  0  0
  150.5835  139.7408  159.8463 H   0  0  0  0  0  0  0  0  0  0  0  0
  149.2370  141.7828  154.6734 H   0  0  0  0  0  0  0  0  0  0  0  0
  149.4578  140.9144  153.1668 H   0  0  0  0  0  0  0  0  0  0  0  0
  146.8168  141.3179  154.6484 H   0  0  0  0  0  0  0  0  0  0  0  0
  147.2901  142.0862  153.1484 H   0  0  0  0  0  0  0  0  0  0  0  0
  145.8002  140.1165  152.7324 H   0  0  0  0  0  0  0  0  0  0  0  0
  147.3745  139.8899  151.9993 H   0  0  0  0  0  0  0  0  0  0  0  0
  146.4469  138.7418  154.6733 H   0  0  0  0  0  0  0  0  0  0  0  0
  146.6797  137.8623  153.1844 H   0  0  0  0  0  0  0  0  0  0  0  0
  149.1152  138.3118  153.2538 H   0  0  0  0  0  0  0  0  0  0  0  0
  148.4972  137.4704  156.0925 H   0  0  0  0  0  0  0  0  0  0  0  0
  150.4269  136.4311  154.0067 H   0  0  0  0  0  0  0  0  0  0  0  0
  150.7631  136.8543  155.6805 H   0  0  0  0  0  0  0  0  0  0  0  0
  150.1381  134.2808  154.6789 H   0  0  0  0  0  0  0  0  0  0  0  0
  150.1913  134.7168  156.3813 H   0  0  0  0  0  0  0  0  0  0  0  0
  147.8418  133.8853  155.1135 H   0  0  0  0  0  0  0  0  0  0  0  0
  147.8977  134.8976  156.5478 H   0  0  0  0  0  0  0  0  0  0  0  0
  146.6520  136.2925  155.0803 H   0  0  0  0  0  0  0  0  0  0  0  0
  148.4130  136.0956  152.9632 H   0  0  0  0  0  0  0  0  0  0  0  0
  153.3408  139.4946  154.0301 H   0  0  0  0  0  0  0  0  0  0  0  0
  152.0614  141.2216  160.6554 H   0  0  0  0  0  0  0  0  0  0  0  0
  153.7472  143.6598  159.9709 H   0  0  0  0  0  0  0  0  0  0  0  0
  152.0849  143.3585  159.4624 H   0  0  0  0  0  0  0  0  0  0  0  0
  152.5488  144.8003  161.7111 H   0  0  0  0  0  0  0  0  0  0  0  0
  151.2607  143.5916  161.7133 H   0  0  0  0  0  0  0  0  0  0  0  0
  153.4551  140.9354  162.5818 H   0  0  0  0  0  0  0  0  0  0  0  0
  154.6974  142.0121  161.9396 H   0  0  0  0  0  0  0  0  0  0  0  0
  1  2  1  0  0  0  0
  1 31  1  0  0  0  0
  2  3  1  0  0  0  0
  2 32  1  0  0  0  0
  2 33  1  0  0  0  0
  3  4  1  0  0  0  0
  3 26  1  0  0  0  0
  3 34  1  0  0  0  0
  4  5  1  0  0  0  0
  4 35  1  0  0  0  0
  4 36  1  0  0  0  0
  5 25  1  0  0  0  0
  5  6  1  0  0  0  0
  6  7  2  0  0  0  0
  6 37  1  0  0  0  0
  7  8  1  0  0  0  0
  8 25  2  0  0  0  0
  8  9  1  0  0  0  0
  9 10  1  0  0  0  0
  9 22  2  0  0  0  0
 10 15  1  0  0  0  0
 10 11  1  0  0  0  0
 11 12  1  0  0  0  0
 11 38  1  0  0  0  0
 11 39  1  0  0  0  0
 12 13  1  0  0  0  0
 12 40  1  0  0  0  0
 12 41  1  0  0  0  0
 13 14  1  0  0  0  0
 13 42  1  0  0  0  0
 13 43  1  0  0  0  0
 14 15  1  0  0  0  0
 14 44  1  0  0  0  0
 14 45  1  0  0  0  0
 15 16  1  0  0  0  0
 15 46  1  0  0  0  0
 16 20  1  0  0  0  0
 16 17  1  0  0  0  0
 16 47  1  0  0  0  0
 17 18  1  0  0  0  0
 17 48  1  0  0  0  0
 17 49  1  0  0  0  0
 18 19  1  0  0  0  0
 18 50  1  0  0  0  0
 18 51  1  0  0  0  0
 19 20  1  0  0  0  0
 19 52  1  0  0  0  0
 19 53  1  0  0  0  0
 20 21  1  0  0  0  0
 20 54  1  0  0  0  0
 21 55  1  0  0  0  0
 22 23  1  0  0  0  0
 23 24  2  0  0  0  0
 23 56  1  0  0  0  0
 24 25  1  0  0  0  0
 26 30  1  0  0  0  0
 26 27  1  0  0  0  0
 26 57  1  0  0  0  0
 27 28  1  0  0  0  0
 27 58  1  0  0  0  0
 27 59  1  0  0  0  0
 28 29  1  0  0  0  0
 28 60  1  0  0  0  0
 28 61  1  0  0  0  0
 29 30  1  0  0  0  0
 30 62  1  0  0  0  0
 30 63  1  0  0  0  0
M  END
> <s_m_source_file>
AV-unprocessed.smi

> <i_m_source_file_index>
148

> <i_lp_mmshare_version>
43012

> <i_f3d_flags>
0

> <s_epik_input>
W0NIMl0xT1tDSDJdW0NIMl1bQ0BIXTFbQ0BIXShbQ0gyXVtPSF0pW0NIMl1uKFtjSF1uMiljKGMyMyluW2NIXW5jM040W0NIMl1bQ0gyXVtDSDJdW0NIMl1bQ0BIXTRbQ0BASF01W0NIMl1bQ0gyXVtDSDJdW0NASF01W09IXQ==

> <s_epik_cmdline>
J2VwaWtfcHl0aG9uJywgJy1waCcsICc3LjAnLCAnLXRuJywgJzgnLCAnLW1hJywgJzIwMCcsICctbWV0YWxfYmluZGluZycsICctaW1hZScsICc8aW5maWxlLm1hZT4nLCAnLW9tYWUnLCAnPG91dGZpbGUubWFlPic=

> <r_lp_tautomer_probability>
1

> <r_epik_Ionization_Penalty>
0.00556303

> <r_epik_Ionization_Penalty_Charging>
0

> <r_epik_Ionization_Penalty_Neutral>
0.00556303

> <r_epik_State_Penalty>
0.00401767

> <r_epik_Charging_Adjusted_Penalty>
0.00401767

> <i_epik_Tot_Q>
0

> <i_epik_Tot_abs_Q>
0

> <r_epik_Metal_State_Penalty>
-0

> <b_epik_Metal_Only>
0

> <s_lp_Force_Field>
OPLS_2005

> <r_lp_Energy>
69.1671

> <b_lp_Chiralities_Consistent>
1

> <s_lp_Variant>
AV-unprocessed.smi:148-12

> <Gold.Version>
5.8.1

> <Gold.Id.Protein>
6NUR|6NUR_protein|mol2

> <Gold.PLP.Fitness>
54.7556

> <Gold.PLP.PLP>
-47.9901

> <Gold.PLP.part.hbond>
-3.5058

> <Gold.PLP.part.metal>
0.0000

> <Gold.PLP.part.buried>
-4.5245

> <Gold.PLP.part.nonpolar>
-40.8542

> <Gold.PLP.part.repulsive>
0.3042

> <Gold.PLP.ligand.clash>
0.0000

> <Gold.PLP.ligand.torsion>
2.4044

> <Gold.PLP.Chemscore.Hbond>
3.6280

> <Gold.PLP.Chemscore.CHOScore>
0.0000

> <Gold.PLP.Chemscore.Metal>
0.0000

> <Gold.Chemscore.Hbonds>
donor molecule, donor type, donor heavy atom, donor atom, acceptor molecule, acceptor atom, score
      L1  H    21    55       P1  7948  0.20
      P1  H  7989  7998       L1    22  0.50
      P1  H  7997  8008       L1    24  0.76
      P1  H  7997  8010       L1     1  0.94

> <Gold.PLP.Chemscore.Internal.Correction>
0.6904

> <Gold.Rescore>
     Score         DG    S(hbond)    S(metal)    S(lipo)     H(rot)  DE(clash)    DE(int)     intcor
     16.76     -19.22       2.68        0.00     113.58       3.32       0.02       2.44       ----

> <Gold.Chemscore.Fitness>
16.7588

> <Gold.Chemscore.DG>
-19.2156

> <Gold.Chemscore.ZeroCoef>
-5.4800

> <Gold.Chemscore.Hbond>
2.6788

> <Gold.Chemscore.Metal>
0.0000

> <Gold.Chemscore.Lipo>
113.5755

> <Gold.Chemscore.Internal_Hbond>
0.0000

> <Gold.Chemscore.DEClash>
0.0203

> <Gold.Chemscore.DEInternal>
2.4366

> <Gold.Chemscore.Rot>
3.3203

> <Gold.Chemscore.Internal.Correction>
   9.000000E+99

> <Gold.Chemscore.Hbonds>
donor molecule, donor type, donor heavy atom, donor atom, acceptor molecule, acceptor atom, score
      L1  H    21    55       P1  7948  0.20
      P1  H  7989  7998       L1    22  0.02
      P1  H  7997  8008       L1    24  0.59
      P1  H  7997  8010       L1     1  0.31

> <Gold.Chemscore.Hbond.Weighted>
-8.9473

> <Gold.Chemscore.Metal.Weighted>
-0.0000

> <Gold.Chemscore.Lipo.Weighted>
-13.2883

> <Gold.Chemscore.Internal_Hbond.Weighted>
0.0000

> <Gold.Chemscore.DEClash.Weighted>
0.0203

> <Gold.Chemscore.DEInternal.Weighted>
2.4366

> <Gold.Chemscore.Rot.Weighted>
8.5000

> <Gold.Chemscore.Internal.Correction.Weighted>
   9.000000E+99

> <Gold.Protein.RotatedTorsions>
[ 6907 6896 6895 6894 ] final -175.80 input  -60.11 | X-H torsion
[ 7974 7965 7964 7962 ] final   -0.96 input  175.53 | X-H torsion
[ 8008 7997 7996 7995 ] final  -28.62 input   59.86 | X-H torsion
[ 10167 10162 10161 10158 ] final  176.05 input  -65.29 | X-H torsion
[ 10718 10713 10712 10709 ] final -141.43 input   66.30 | X-H torsion
[ 10763 10752 10751 10750 ] final  177.17 input  -60.55 | X-H torsion
[ 11005 11000 10999 10996 ] final  176.51 input  -57.11 | X-H torsion

> <Gold.Protein.ActiveResidues>
 VAL166  LYS551  ARG553  GLY616  TRP617  ASP618  TYR619  PRO620  LYS621  CYS622 
 ASP623  PHE694  ASN695  SER759  ASP760  ASP761  ALA762  ILE779  LEU786  VAL792 
 PHE793  MET794  SER795  GLU796  ALA797  LYS798  CYS799  TRP800  GLU811  SER814 

> <Gold.Protein.RotatedAtoms>
  151.5945  133.3363  159.3034 H   0  0  0  0  0  0  0  0  0  0  0  0  # atno 6907 bound_to 6896
  150.8242  134.7468  159.6809 H   0  0  0  0  0  0  0  0  0  0  0  0  # atno 6908 bound_to 6896
  152.4333  134.5742  159.9981 H   0  0  0  0  0  0  0  0  0  0  0  0  # atno 6909 bound_to 6896
  146.2422  140.1348  142.8337 H   0  0  0  0  0  0  0  0  0  0  0  0  # atno 7974 bound_to 7965
  154.4324  140.1840  156.1119 H   0  0  0  0  0  0  0  0  0  0  0  0  # atno 8008 bound_to 7997
  156.0211  140.3340  155.7014 H   0  0  0  0  0  0  0  0  0  0  0  0  # atno 8009 bound_to 7997
  155.5974  140.0637  157.2733 H   0  0  0  0  0  0  0  0  0  0  0  0  # atno 8010 bound_to 7997
  139.5200  144.2960  152.0421 H   0  0  0  0  0  0  0  0  0  0  0  0  # atno 10167 bound_to 10162
  156.3340  130.7601  151.1725 H   0  0  0  0  0  0  0  0  0  0  0  0  # atno 10718 bound_to 10713
  154.4910  135.2779  155.1497 H   0  0  0  0  0  0  0  0  0  0  0  0  # atno 10763 bound_to 10752
  154.3168  135.6217  153.5494 H   0  0  0  0  0  0  0  0  0  0  0  0  # atno 10764 bound_to 10752
  152.9888  135.5733  154.5331 H   0  0  0  0  0  0  0  0  0  0  0  0  # atno 10765 bound_to 10752
  140.3739  134.7005  157.4409 H   0  0  0  0  0  0  0  0  0  0  0  0  # atno 11005 bound_to 11000
  145.0296  140.8860  143.5117 LP  0  0  0  0  0  0  0  0  0  0  0  0  # atno 17320 bound_to 7965
  145.1410  139.2572  143.5490 LP  0  0  0  0  0  0  0  0  0  0  0  0  # atno 17321 bound_to 7965
  140.2409  144.4270  150.6260 LP  0  0  0  0  0  0  0  0  0  0  0  0  # atno 17342 bound_to 10162
  140.6291  143.2185  151.6534 LP  0  0  0  0  0  0  0  0  0  0  0  0  # atno 17343 bound_to 10162
  157.7435  131.0473  150.4938 LP  0  0  0  0  0  0  0  0  0  0  0  0  # atno 17370 bound_to 10713
  156.5108  130.4139  149.6302 LP  0  0  0  0  0  0  0  0  0  0  0  0  # atno 17371 bound_to 10713
  140.0530  134.6103  155.8839 LP  0  0  0  0  0  0  0  0  0  0  0  0  # atno 17394 bound_to 11000
  141.1945  133.6583  156.5600 LP  0  0  0  0  0  0  0  0  0  0  0  0  # atno 17395 bound_to 11000

$$$$
