AV-unprocessed.smi:1100|AV-procd|sdf|4763|dock8
  -GOLD-   22720 3303D 1   1.00000     0.00000
 Structure written by MMmdl.
 43 44  0  0  0  0  0  0  0  0  3 V2000
  147.8957  139.1068  153.7826 C   0  0  0  0  0  0  0  0  0  0  0  0
  148.9150  138.2556  154.5812 C   0  0  2  0  0  0  0  0  0  0  0  0
  150.3997  138.6491  154.3417 C   0  0  0  0  0  0  0  0  0  0  0  0
  150.6668  140.0137  154.8000 N   0  5  0  0  0  0  0  0  0  0  0  0
  151.3590  140.3371  155.9270 C   0  0  0  0  0  0  0  0  0  0  0  0
  152.3850  139.7946  156.3522 O   0  0  0  0  0  0  0  0  0  0  0  0
  150.7963  141.3744  156.5782 N   0  0  0  0  0  0  0  0  0  0  0  0
  151.1497  141.9897  157.7902 C   0  0  0  0  0  0  0  0  0  0  0  0
  151.7376  141.1540  158.8154 C   0  0  0  0  0  0  0  0  0  0  0  0
  152.1216  141.6657  160.0009 C   0  0  0  0  0  0  0  0  0  0  0  0
  151.9636  143.0891  160.3071 C   0  0  0  0  0  0  0  0  0  0  0  0
  152.3061  143.5709  161.3874 O   0  0  0  0  0  0  0  0  0  0  0  0
  151.4131  143.8473  159.3156 N   0  0  0  0  0  0  0  0  0  0  0  0
  151.2211  145.2851  159.5237 C   0  0  0  0  0  0  0  0  0  0  0  0
  151.0178  143.3040  158.0776 C   0  0  0  0  0  0  0  0  0  0  0  0
  148.7251  136.7844  154.3860 N   0  3  0  0  0  0  0  0  0  0  0  0
  149.7672  135.9584  155.0452 C   0  0  0  0  0  0  0  0  0  0  0  0
  149.6107  134.4821  154.6426 C   0  0  0  0  0  0  0  0  0  0  0  0
  148.3024  134.0277  154.9678 O   0  0  0  0  0  0  0  0  0  0  0  0
  147.2967  134.7603  154.2784 C   0  0  0  0  0  0  0  0  0  0  0  0
  147.3714  136.2398  154.6871 C   0  0  0  0  0  0  0  0  0  0  0  0
  147.9457  140.1619  154.0572 H   0  0  0  0  0  0  0  0  0  0  0  0
  146.8751  138.7833  153.9881 H   0  0  0  0  0  0  0  0  0  0  0  0
  148.0477  139.0460  152.7036 H   0  0  0  0  0  0  0  0  0  0  0  0
  148.7210  138.4502  155.6371 H   0  0  0  0  0  0  0  0  0  0  0  0
  151.0417  137.9265  154.8484 H   0  0  0  0  0  0  0  0  0  0  0  0
  150.6298  138.5361  153.2821 H   0  0  0  0  0  0  0  0  0  0  0  0
  149.9925  141.7801  156.1217 H   0  0  0  0  0  0  0  0  0  0  0  0
  151.8719  140.0979  158.6304 H   0  0  0  0  0  0  0  0  0  0  0  0
  152.5563  141.0129  160.7433 H   0  0  0  0  0  0  0  0  0  0  0  0
  150.7697  145.7819  158.6643 H   0  0  0  0  0  0  0  0  0  0  0  0
  152.1771  145.7748  159.7160 H   0  0  0  0  0  0  0  0  0  0  0  0
  150.5695  145.4644  160.3802 H   0  0  0  0  0  0  0  0  0  0  0  0
  150.6201  144.0381  157.3962 H   0  0  0  0  0  0  0  0  0  0  0  0
  150.7605  136.3044  154.7561 H   0  0  0  0  0  0  0  0  0  0  0  0
  149.6916  136.0645  156.1283 H   0  0  0  0  0  0  0  0  0  0  0  0
  149.7984  134.3488  153.5762 H   0  0  0  0  0  0  0  0  0  0  0  0
  150.3400  133.8687  155.1721 H   0  0  0  0  0  0  0  0  0  0  0  0
  147.4173  134.6459  153.1998 H   0  0  0  0  0  0  0  0  0  0  0  0
  146.3207  134.3486  154.5354 H   0  0  0  0  0  0  0  0  0  0  0  0
  147.1570  136.3268  155.7530 H   0  0  0  0  0  0  0  0  0  0  0  0
  146.6022  136.8022  154.1572 H   0  0  0  0  0  0  0  0  0  0  0  0
  148.8674  136.6436  153.3957 H   0  0  0  0  0  0  0  0  0  0  0  0
  1  2  1  0  0  0  0
  1 22  1  0  0  0  0
  1 23  1  0  0  0  0
  1 24  1  0  0  0  0
  2  3  1  0  0  0  0
  2 16  1  0  0  0  0
  2 25  1  0  0  0  0
  3  4  1  0  0  0  0
  3 26  1  0  0  0  0
  3 27  1  0  0  0  0
  4  5  1  0  0  0  0
  5  6  2  0  0  0  0
  5  7  1  0  0  0  0
  7  8  1  0  0  0  0
  7 28  1  0  0  0  0
  8 15  2  0  0  0  0
  8  9  1  0  0  0  0
  9 10  2  0  0  0  0
  9 29  1  0  0  0  0
 10 11  1  0  0  0  0
 10 30  1  0  0  0  0
 11 12  2  0  0  0  0
 11 13  1  0  0  0  0
 13 14  1  0  0  0  0
 13 15  1  0  0  0  0
 14 31  1  0  0  0  0
 14 32  1  0  0  0  0
 14 33  1  0  0  0  0
 15 34  1  0  0  0  0
 16 21  1  0  0  0  0
 16 17  1  0  0  0  0
 16 43  1  0  0  0  0
 17 18  1  0  0  0  0
 17 35  1  0  0  0  0
 17 36  1  0  0  0  0
 18 19  1  0  0  0  0
 18 37  1  0  0  0  0
 18 38  1  0  0  0  0
 19 20  1  0  0  0  0
 20 21  1  0  0  0  0
 20 39  1  0  0  0  0
 20 40  1  0  0  0  0
 21 41  1  0  0  0  0
 21 42  1  0  0  0  0
M  CHG  1   4  -1
M  CHG  1  16   1
M  END
> <s_m_source_file>
AV-unprocessed.smi

> <i_m_source_file_index>
1100

> <i_lp_mmshare_version>
43012

> <i_f3d_flags>
0

> <s_epik_input>
W0NIMl0xW0NIMl1PW0NIMl1bQ0gyXU4xW0NASF0oW0NIM10pW0NIMl1bTkhdQyg9TylbTkhdYzJbY0hdW2NIXWMoPU8pbihbQ0gzXSlbY0hdMg==

> <s_epik_cmdline>
J2VwaWtfcHl0aG9uJywgJy1waCcsICc3LjAnLCAnLXRuJywgJzgnLCAnLW1hJywgJzIwMCcsICctbWV0YWxfYmluZGluZycsICctaW1hZScsICc8aW5maWxlLm1hZT4nLCAnLW9tYWUnLCAnPG91dGZpbGUubWFlPic=

> <r_lp_tautomer_probability>
1

> <r_epik_Ionization_Penalty>
6.79272

> <r_epik_Ionization_Penalty_Charging>
6.79272

> <r_epik_Ionization_Penalty_Neutral>
3.37009e-06

> <r_epik_State_Penalty>
7.34577

> <r_epik_Charging_Adjusted_Penalty>
14.1385

> <i_epik_Tot_Q>
0

> <i_epik_Tot_abs_Q>
2

> <r_epik_Metal_State_Penalty>
3.26257

> <b_epik_Metal_Only>
1

> <s_lp_Force_Field>
OPLS_2005

> <r_lp_Energy>
31.7412

> <b_lp_Chiralities_Consistent>
1

> <s_lp_Variant>
AV-unprocessed.smi:1100-5

> <Gold.Version>
5.8.1

> <Gold.Id.Protein>
6NUR|6NUR_protein|mol2

> <Gold.PLP.Fitness>
52.8361

> <Gold.PLP.PLP>
-39.1837

> <Gold.PLP.part.hbond>
-3.0000

> <Gold.PLP.part.metal>
0.0000

> <Gold.PLP.part.buried>
-4.9787

> <Gold.PLP.part.nonpolar>
-31.8518

> <Gold.PLP.part.repulsive>
0.3274

> <Gold.PLP.ligand.clash>
0.0000

> <Gold.PLP.ligand.torsion>
0.7349

> <Gold.PLP.Chemscore.Hbond>
4.0000

> <Gold.PLP.Chemscore.CHOScore>
0.9947

> <Gold.PLP.Chemscore.Metal>
0.0000

> <Gold.Chemscore.Hbonds>
donor molecule, donor type, donor heavy atom, donor atom, acceptor molecule, acceptor atom, score
      L1  H    16    43       P1  7948  2.00
      P1  H  7989  7998       L1     4  1.00
      P1  H  7997  8009       L1     6  1.00
      L1  C    15    34       P1  8028  1.00

> <Gold.PLP.Chemscore.Internal.Correction>
0.1381

> <Gold.Rescore>
     Score         DG    S(hbond)    S(metal)    S(lipo)     H(rot)  DE(clash)    DE(int)     intcor
     17.41     -19.55       2.60        0.00      79.23       1.51       0.08       2.06       ----

> <Gold.Chemscore.Fitness>
17.4098

> <Gold.Chemscore.DG>
-19.5486

> <Gold.Chemscore.ZeroCoef>
-5.4800

> <Gold.Chemscore.Hbond>
2.5963

> <Gold.Chemscore.Metal>
0.0000

> <Gold.Chemscore.Lipo>
79.2263

> <Gold.Chemscore.Internal_Hbond>
0.0000

> <Gold.Chemscore.DEClash>
0.0817

> <Gold.Chemscore.DEInternal>
2.0572

> <Gold.Chemscore.Rot>
1.5128

> <Gold.Chemscore.Internal.Correction>
   9.000000E+99

> <Gold.Chemscore.Hbonds>
donor molecule, donor type, donor heavy atom, donor atom, acceptor molecule, acceptor atom, score
      L1  H    16    43       P1  7948  0.97
      P1  H  7989  7998       L1     4  0.23
      P1  H  7997  8009       L1     6  0.97

> <Gold.Chemscore.Hbond.Weighted>
-8.6718

> <Gold.Chemscore.Metal.Weighted>
-0.0000

> <Gold.Chemscore.Lipo.Weighted>
-9.2695

> <Gold.Chemscore.Internal_Hbond.Weighted>
0.0000

> <Gold.Chemscore.DEClash.Weighted>
0.0817

> <Gold.Chemscore.DEInternal.Weighted>
2.0572

> <Gold.Chemscore.Rot.Weighted>
3.8726

> <Gold.Chemscore.Internal.Correction.Weighted>
   9.000000E+99

> <Gold.Protein.RotatedTorsions>
[ 6907 6896 6895 6894 ] final  138.74 input  -60.11 | X-H torsion
[ 7974 7965 7964 7962 ] final -156.44 input  175.53 | X-H torsion
[ 8008 7997 7996 7995 ] final -158.49 input   59.86 | X-H torsion
[ 10167 10162 10161 10158 ] final   48.62 input  -65.29 | X-H torsion
[ 10718 10713 10712 10709 ] final -115.41 input   66.30 | X-H torsion
[ 10763 10752 10751 10750 ] final   -3.84 input  -60.55 | X-H torsion
[ 11005 11000 10999 10996 ] final  133.94 input  -57.11 | X-H torsion

> <Gold.Protein.ActiveResidues>
 VAL166  LYS551  ARG553  GLY616  TRP617  ASP618  TYR619  PRO620  LYS621  CYS622 
 ASP623  PHE694  ASN695  SER759  ASP760  ASP761  ALA762  ILE779  LEU786  VAL792 
 PHE793  MET794  SER795  GLU796  ALA797  LYS798  CYS799  TRP800  GLU811  SER814 

> <Gold.Protein.RotatedAtoms>
  152.2631  133.5314  159.5393 H   0  0  0  0  0  0  0  0  0  0  0  0  # atno 6907 bound_to 6896
  150.7132  134.0803  159.3904 H   0  0  0  0  0  0  0  0  0  0  0  0  # atno 6908 bound_to 6896
  151.8720  135.0486  160.0531 H   0  0  0  0  0  0  0  0  0  0  0  0  # atno 6909 bound_to 6896
  144.7593  140.4109  143.5989 H   0  0  0  0  0  0  0  0  0  0  0  0  # atno 7974 bound_to 7965
  155.7483  140.0823  157.2213 H   0  0  0  0  0  0  0  0  0  0  0  0  # atno 8008 bound_to 7997
  154.4014  140.1565  156.2750 H   0  0  0  0  0  0  0  0  0  0  0  0  # atno 8009 bound_to 7997
  155.8955  140.3413  155.5990 H   0  0  0  0  0  0  0  0  0  0  0  0  # atno 8010 bound_to 7997
  140.2914  144.3042  150.6240 H   0  0  0  0  0  0  0  0  0  0  0  0  # atno 10167 bound_to 10162
  156.0894  130.6079  150.8902 H   0  0  0  0  0  0  0  0  0  0  0  0  # atno 10718 bound_to 10713
  153.3768  135.6997  153.6596 H   0  0  0  0  0  0  0  0  0  0  0  0  # atno 10763 bound_to 10752
  153.5223  135.3609  155.2638 H   0  0  0  0  0  0  0  0  0  0  0  0  # atno 10764 bound_to 10752
  154.8688  135.4161  154.3057 H   0  0  0  0  0  0  0  0  0  0  0  0  # atno 10765 bound_to 10752
  139.9883  134.9524  156.9797 H   0  0  0  0  0  0  0  0  0  0  0  0  # atno 11005 bound_to 11000
  145.6673  139.1592  143.2774 LP  0  0  0  0  0  0  0  0  0  0  0  0  # atno 17320 bound_to 7965
  146.1638  140.6748  142.9265 LP  0  0  0  0  0  0  0  0  0  0  0  0  # atno 17321 bound_to 7965
  140.5729  143.2179  151.7566 LP  0  0  0  0  0  0  0  0  0  0  0  0  # atno 17342 bound_to 10162
  139.4937  144.4191  151.9998 LP  0  0  0  0  0  0  0  0  0  0  0  0  # atno 17343 bound_to 10162
  157.6038  131.0940  150.8914 LP  0  0  0  0  0  0  0  0  0  0  0  0  # atno 17370 bound_to 10713
  156.9066  130.5266  149.5281 LP  0  0  0  0  0  0  0  0  0  0  0  0  # atno 17371 bound_to 10713
  140.4958  134.1147  155.7241 LP  0  0  0  0  0  0  0  0  0  0  0  0  # atno 17394 bound_to 11000
  141.1544  133.8909  157.2015 LP  0  0  0  0  0  0  0  0  0  0  0  0  # atno 17395 bound_to 11000

$$$$
