AV-unprocessed.smi:729|AV-procd|sdf|3519|dock5
  -GOLD-   22720 0513D 1   1.00000     0.00000
 Structure written by MMmdl.
 20 20  0  0  0  0  0  0  0  0  3 V2000
  149.8446  141.7019  155.3177 C   0  0  0  0  0  0  0  0  0  0  0  0
  150.7197  141.6257  156.5650 C   0  0  0  0  0  0  0  0  0  0  0  0
  150.8956  142.7227  157.3351 C   0  0  0  0  0  0  0  0  0  0  0  0
  151.6627  142.6898  158.4910 C   0  0  0  0  0  0  0  0  0  0  0  0
  151.8313  143.7034  159.2050 O   0  5  0  0  0  0  0  0  0  0  0  0
  152.2235  141.4614  158.8101 C   0  0  0  0  0  0  0  0  0  0  0  0
  152.0647  140.2418  158.0264 C   0  0  0  0  0  0  0  0  0  0  0  0
  152.5784  139.1784  158.3785 O   0  0  0  0  0  0  0  0  0  0  0  0
  151.3243  140.3778  156.8888 N   0  0  0  0  0  0  0  0  0  0  0  0
  151.0967  139.1824  156.0400 C   0  0  0  0  0  0  0  0  0  0  0  0
  152.3579  138.7012  155.3115 C   0  0  0  0  0  0  0  0  0  0  0  0
  153.0283  139.5633  154.7014 O   0  0  0  0  0  0  0  0  0  0  0  0
  152.6199  137.4789  155.3567 O   0  5  0  0  0  0  0  0  0  0  0  0
  149.3156  142.6545  155.2787 H   0  0  0  0  0  0  0  0  0  0  0  0
  149.0816  140.9251  155.2989 H   0  0  0  0  0  0  0  0  0  0  0  0
  150.4485  141.6371  154.4132 H   0  0  0  0  0  0  0  0  0  0  0  0
  150.4223  143.6495  157.0435 H   0  0  0  0  0  0  0  0  0  0  0  0
  152.8255  141.3893  159.7045 H   0  0  0  0  0  0  0  0  0  0  0  0
  150.7111  138.3282  156.5972 H   0  0  0  0  0  0  0  0  0  0  0  0
  150.3067  139.3846  155.3180 H   0  0  0  0  0  0  0  0  0  0  0  0
  1  2  1  0  0  0  0
  1 14  1  0  0  0  0
  1 15  1  0  0  0  0
  1 16  1  0  0  0  0
  2  9  1  0  0  0  0
  2  3  2  0  0  0  0
  3  4  1  0  0  0  0
  3 17  1  0  0  0  0
  4  5  1  0  0  0  0
  4  6  2  0  0  0  0
  6  7  1  0  0  0  0
  6 18  1  0  0  0  0
  7  8  2  0  0  0  0
  7  9  1  0  0  0  0
  9 10  1  0  0  0  0
 10 11  1  0  0  0  0
 10 19  1  0  0  0  0
 10 20  1  0  0  0  0
 11 12  2  0  0  0  0
 11 13  1  0  0  0  0
M  CHG  1   5  -1
M  CHG  1  13  -1
M  END
> <s_m_source_file>
AV-unprocessed.smi

> <i_m_source_file_index>
729

> <i_lp_mmshare_version>
43012

> <i_f3d_flags>
0

> <s_epik_input>
W0NIM11jMVtjSF1jKFtPSF0pW2NIXWMoPU8pbjFbQ0gyXUMoPU8pW09IXQ==

> <s_epik_cmdline>
J2VwaWtfcHl0aG9uJywgJy1waCcsICc3LjAnLCAnLXRuJywgJzgnLCAnLW1hJywgJzIwMCcsICctbWV0YWxfYmluZGluZycsICctaW1hZScsICc8aW5maWxlLm1hZT4nLCAnLW9tYWUnLCAnPG91dGZpbGUubWFlPic=

> <r_lp_tautomer_probability>
1

> <r_epik_Ionization_Penalty>
0.494568

> <r_epik_Ionization_Penalty_Charging>
0.494568

> <r_epik_Ionization_Penalty_Neutral>
1.61422e-13

> <r_epik_State_Penalty>
0.445538

> <r_epik_Charging_Adjusted_Penalty>
0.940106

> <i_epik_Tot_Q>
-2

> <i_epik_Tot_abs_Q>
2

> <r_epik_Metal_State_Penalty>
0.445538

> <b_epik_Metal_Only>
0

> <s_lp_Force_Field>
OPLS_2005

> <r_lp_Energy>
22.4438

> <b_lp_Chiralities_Consistent>
1

> <s_lp_Variant>
AV-unprocessed.smi:729-1

> <Gold.Version>
5.8.1

> <Gold.Id.Protein>
6NUR|6NUR_protein|mol2

> <Gold.PLP.Fitness>
33.6103

> <Gold.PLP.PLP>
-24.0228

> <Gold.PLP.part.hbond>
-3.0000

> <Gold.PLP.part.metal>
0.0000

> <Gold.PLP.part.buried>
-3.3280

> <Gold.PLP.part.nonpolar>
-18.2830

> <Gold.PLP.part.repulsive>
0.0712

> <Gold.PLP.ligand.clash>
0.0000

> <Gold.PLP.ligand.torsion>
0.1987

> <Gold.PLP.Chemscore.Hbond>
3.3259

> <Gold.PLP.Chemscore.CHOScore>
0.0000

> <Gold.PLP.Chemscore.Metal>
0.0000

> <Gold.Chemscore.Hbonds>
donor molecule, donor type, donor heavy atom, donor atom, acceptor molecule, acceptor atom, score
      P1  H  7989  7998       L1    12  0.21
      P1  H  7997  8009       L1    12  2.00
      P1  H 10752 10763       L1    13  1.12

> <Gold.PLP.Chemscore.Internal.Correction>
0.0071

> <Gold.Rescore>
     Score         DG    S(hbond)    S(metal)    S(lipo)     H(rot)  DE(clash)    DE(int)     intcor
     12.48     -12.72       1.69        0.00      46.53       1.51       0.00       0.24       ----

> <Gold.Chemscore.Fitness>
12.4774

> <Gold.Chemscore.DG>
-12.7206

> <Gold.Chemscore.ZeroCoef>
-5.4800

> <Gold.Chemscore.Hbond>
1.6917

> <Gold.Chemscore.Metal>
0.0000

> <Gold.Chemscore.Lipo>
46.5265

> <Gold.Chemscore.Internal_Hbond>
0.0000

> <Gold.Chemscore.DEClash>
0.0021

> <Gold.Chemscore.DEInternal>
0.2410

> <Gold.Chemscore.Rot>
1.5053

> <Gold.Chemscore.Internal.Correction>
   9.000000E+99

> <Gold.Chemscore.Hbonds>
donor molecule, donor type, donor heavy atom, donor atom, acceptor molecule, acceptor atom, score
      P1  H  7989  7998       L1    12  0.16
      P1  H  7997  8009       L1    12  0.90
      P1  H 10752 10763       L1    13  0.52

> <Gold.Chemscore.Hbond.Weighted>
-5.6504

> <Gold.Chemscore.Metal.Weighted>
-0.0000

> <Gold.Chemscore.Lipo.Weighted>
-5.4436

> <Gold.Chemscore.Internal_Hbond.Weighted>
0.0000

> <Gold.Chemscore.DEClash.Weighted>
0.0021

> <Gold.Chemscore.DEInternal.Weighted>
0.2410

> <Gold.Chemscore.Rot.Weighted>
3.8534

> <Gold.Chemscore.Internal.Correction.Weighted>
   9.000000E+99

> <Gold.Protein.RotatedTorsions>
[ 6907 6896 6895 6894 ] final  -80.59 input  -60.11 | X-H torsion
[ 7974 7965 7964 7962 ] final  101.04 input  175.53 | X-H torsion
[ 8008 7997 7996 7995 ] final -116.82 input   59.86 | X-H torsion
[ 10167 10162 10161 10158 ] final   24.52 input  -65.29 | X-H torsion
[ 10718 10713 10712 10709 ] final -125.89 input   66.30 | X-H torsion
[ 10763 10752 10751 10750 ] final   70.43 input  -60.55 | X-H torsion
[ 11005 11000 10999 10996 ] final  112.82 input  -57.11 | X-H torsion

> <Gold.Protein.ActiveResidues>
 VAL166  LYS551  ARG553  GLY616  TRP617  ASP618  TYR619  PRO620  LYS621  CYS622 
 ASP623  PHE694  ASN695  SER759  ASP760  ASP761  ALA762  ILE779  LEU786  VAL792 
 PHE793  MET794  SER795  GLU796  ALA797  LYS798  CYS799  TRP800  GLU811  SER814 

> <Gold.Protein.RotatedAtoms>
  150.6927  134.3947  159.5091 H   0  0  0  0  0  0  0  0  0  0  0  0  # atno 6907 bound_to 6896
  152.1730  134.8816  160.0542 H   0  0  0  0  0  0  0  0  0  0  0  0  # atno 6908 bound_to 6896
  151.9835  133.3731  159.4153 H   0  0  0  0  0  0  0  0  0  0  0  0  # atno 6909 bound_to 6896
  145.3776  139.2386  143.3421 H   0  0  0  0  0  0  0  0  0  0  0  0  # atno 7974 bound_to 7965
  155.0740  140.0393  157.2617 H   0  0  0  0  0  0  0  0  0  0  0  0  # atno 8008 bound_to 7997
  154.6960  140.2663  155.6741 H   0  0  0  0  0  0  0  0  0  0  0  0  # atno 8009 bound_to 7997
  156.2745  140.2750  156.1554 H   0  0  0  0  0  0  0  0  0  0  0  0  # atno 8010 bound_to 7997
  140.5182  144.0047  150.6404 H   0  0  0  0  0  0  0  0  0  0  0  0  # atno 10167 bound_to 10162
  156.1716  130.6671  151.0187 H   0  0  0  0  0  0  0  0  0  0  0  0  # atno 10718 bound_to 10713
  153.0341  135.5174  154.7439 H   0  0  0  0  0  0  0  0  0  0  0  0  # atno 10763 bound_to 10752
  154.6430  135.2915  155.0082 H   0  0  0  0  0  0  0  0  0  0  0  0  # atno 10764 bound_to 10752
  154.0993  135.6638  153.4918 H   0  0  0  0  0  0  0  0  0  0  0  0  # atno 10765 bound_to 10752
  139.8937  134.9537  156.6644 H   0  0  0  0  0  0  0  0  0  0  0  0  # atno 11005 bound_to 11000
  146.2857  140.4438  142.8759 LP  0  0  0  0  0  0  0  0  0  0  0  0  # atno 17320 bound_to 7965
  144.8531  140.7030  143.6156 LP  0  0  0  0  0  0  0  0  0  0  0  0  # atno 17321 bound_to 7965
  140.3389  143.3032  152.0609 LP  0  0  0  0  0  0  0  0  0  0  0  0  # atno 17342 bound_to 10162
  139.4915  144.6457  151.6784 LP  0  0  0  0  0  0  0  0  0  0  0  0  # atno 17343 bound_to 10162
  157.6807  131.0839  150.7378 LP  0  0  0  0  0  0  0  0  0  0  0  0  # atno 17370 bound_to 10713
  156.7437  130.4747  149.5472 LP  0  0  0  0  0  0  0  0  0  0  0  0  # atno 17371 bound_to 10713
  140.7421  133.8968  155.8286 LP  0  0  0  0  0  0  0  0  0  0  0  0  # atno 17394 bound_to 11000
  141.0069  134.1074  157.4261 LP  0  0  0  0  0  0  0  0  0  0  0  0  # atno 17395 bound_to 11000

$$$$
