AV-unprocessed.smi:1821|AV-procd|sdf|7386|dock9
  -GOLD-   22720 9 53D 1   1.00000     0.00000
 Structure written by MMmdl.
 35 37  0  0  0  0  0  0  0  0  1 V2000
  152.0088  139.3243  156.0872 C   0  0  0  0  0  0  0  0  0  0  0  0
  152.2326  140.1498  157.3143 C   0  0  0  0  0  0  0  0  0  0  0  0
  153.1748  139.8511  158.2092 N   0  0  0  0  0  0  0  0  0  0  0  0
  153.0275  140.8528  159.1494 C   0  0  0  0  0  0  0  0  0  0  0  0
  153.7327  141.0975  160.3495 C   0  0  0  0  0  0  0  0  0  0  0  0
  153.3989  142.2016  161.1612 C   0  0  0  0  0  0  0  0  0  0  0  0
  152.3577  143.0752  160.7855 C   0  0  0  0  0  0  0  0  0  0  0  0
  151.6431  142.8504  159.5932 C   0  0  0  0  0  0  0  0  0  0  0  0
  151.9803  141.7467  158.7870 C   0  0  0  0  0  0  0  0  0  0  0  0
  151.4888  141.2512  157.5839 N   0  0  0  0  0  0  0  0  0  0  0  0
  150.4014  141.8214  156.8002 C   0  0  0  0  0  0  0  0  0  0  0  0
  149.0447  141.1462  157.0871 C   0  0  2  0  0  0  0  0  0  0  0  0
  149.1691  139.7386  157.0088 O   0  0  0  0  0  0  0  0  0  0  0  0
  147.9496  141.6871  156.1739 C   0  0  0  0  0  0  0  0  0  0  0  0
  146.8023  142.3171  156.7134 C   0  0  0  0  0  0  0  0  0  0  0  0
  146.6533  142.4482  158.0536 F   0  0  0  0  0  0  0  0  0  0  0  0
  145.7961  142.8114  155.8612 C   0  0  0  0  0  0  0  0  0  0  0  0
  145.9212  142.6765  154.4663 C   0  0  0  0  0  0  0  0  0  0  0  0
  147.0533  142.0422  153.9228 C   0  0  0  0  0  0  0  0  0  0  0  0
  148.0631  141.5471  154.7708 C   0  0  0  0  0  0  0  0  0  0  0  0
  149.1407  140.9334  154.2249 F   0  0  0  0  0  0  0  0  0  0  0  0
  152.6396  138.4350  156.1041 H   0  0  0  0  0  0  0  0  0  0  0  0
  152.2527  139.9022  155.1955 H   0  0  0  0  0  0  0  0  0  0  0  0
  150.9685  139.0045  156.0279 H   0  0  0  0  0  0  0  0  0  0  0  0
  154.5320  140.4346  160.6458 H   0  0  0  0  0  0  0  0  0  0  0  0
  153.9450  142.3790  162.0762 H   0  0  0  0  0  0  0  0  0  0  0  0
  152.1083  143.9183  161.4131 H   0  0  0  0  0  0  0  0  0  0  0  0
  150.8453  143.5172  159.3019 H   0  0  0  0  0  0  0  0  0  0  0  0
  150.3415  142.8845  157.0367 H   0  0  0  0  0  0  0  0  0  0  0  0
  150.6463  141.7627  155.7400 H   0  0  0  0  0  0  0  0  0  0  0  0
  148.7706  141.3561  158.1211 H   0  0  0  0  0  0  0  0  0  0  0  0
  150.0317  139.5309  156.6837 H   0  0  0  0  0  0  0  0  0  0  0  0
  144.9247  143.2934  156.2797 H   0  0  0  0  0  0  0  0  0  0  0  0
  145.1481  143.0557  153.8146 H   0  0  0  0  0  0  0  0  0  0  0  0
  147.1475  141.9339  152.8524 H   0  0  0  0  0  0  0  0  0  0  0  0
  1  2  1  0  0  0  0
  1 22  1  0  0  0  0
  1 23  1  0  0  0  0
  1 24  1  0  0  0  0
  2 10  1  0  0  0  0
  2  3  2  0  0  0  0
  3  4  1  0  0  0  0
  4  9  2  0  0  0  0
  4  5  1  0  0  0  0
  5  6  2  0  0  0  0
  5 25  1  0  0  0  0
  6  7  1  0  0  0  0
  6 26  1  0  0  0  0
  7  8  2  0  0  0  0
  7 27  1  0  0  0  0
  8  9  1  0  0  0  0
  8 28  1  0  0  0  0
  9 10  1  0  0  0  0
 10 11  1  0  0  0  0
 11 12  1  0  0  0  0
 11 29  1  0  0  0  0
 11 30  1  0  0  0  0
 12 13  1  0  0  0  0
 12 14  1  0  0  0  0
 12 31  1  0  0  0  0
 13 32  1  0  0  0  0
 14 20  1  0  0  0  0
 14 15  2  0  0  0  0
 15 16  1  0  0  0  0
 15 17  1  0  0  0  0
 17 18  2  0  0  0  0
 17 33  1  0  0  0  0
 18 19  1  0  0  0  0
 18 34  1  0  0  0  0
 19 20  2  0  0  0  0
 19 35  1  0  0  0  0
 20 21  1  0  0  0  0
M  END
> <s_m_source_file>
AV-unprocessed.smi

> <i_m_source_file_index>
1821

> <i_lp_mmshare_version>
43012

> <i_f3d_flags>
0

> <s_epik_input>
W2NIXTFbY0hdW2NIXVtjSF1jKGMxMiluKGMobjIpW0NIM10pW0NIMl1bQ0BIXShbT0hdKWMzYyhGKVtjSF1bY0hdW2NIXWMzRg==

> <s_epik_cmdline>
J2VwaWtfcHl0aG9uJywgJy1waCcsICc3LjAnLCAnLXRuJywgJzgnLCAnLW1hJywgJzIwMCcsICctbWV0YWxfYmluZGluZycsICctaW1hZScsICc8aW5maWxlLm1hZT4nLCAnLW9tYWUnLCAnPG91dGZpbGUubWFlPic=

> <r_epik_Ionization_Penalty>
0.129663

> <r_epik_Ionization_Penalty_Charging>
0

> <r_epik_Ionization_Penalty_Neutral>
0.129663

> <r_epik_State_Penalty>
0.119073

> <r_epik_Charging_Adjusted_Penalty>
0.119073

> <i_epik_Tot_Q>
0

> <i_epik_Tot_abs_Q>
0

> <r_epik_Metal_State_Penalty>
0.000131867

> <b_epik_Metal_Only>
0

> <s_lp_Force_Field>
OPLS_2005

> <r_lp_Energy>
13.297

> <b_lp_Chiralities_Consistent>
1

> <s_lp_Variant>
AV-unprocessed.smi:1821-1

> <Gold.Version>
5.8.1

> <Gold.Id.Protein>
6NUR|6NUR_protein|mol2

> <Gold.PLP.Fitness>
46.1516

> <Gold.PLP.PLP>
-43.9225

> <Gold.PLP.part.hbond>
-1.0000

> <Gold.PLP.part.metal>
0.0000

> <Gold.PLP.part.buried>
-4.3339

> <Gold.PLP.part.nonpolar>
-38.5953

> <Gold.PLP.part.repulsive>
0.0000

> <Gold.PLP.ligand.clash>
0.0000

> <Gold.PLP.ligand.torsion>
0.3897

> <Gold.PLP.Chemscore.Hbond>
0.9920

> <Gold.PLP.Chemscore.CHOScore>
0.0000

> <Gold.PLP.Chemscore.Metal>
0.0000

> <Gold.Chemscore.Hbonds>
donor molecule, donor type, donor heavy atom, donor atom, acceptor molecule, acceptor atom, score
      P1  H  7997  8009       L1     3  0.98

> <Gold.PLP.Chemscore.Internal.Correction>
0.0326

> <Gold.Rescore>
     Score         DG    S(hbond)    S(metal)    S(lipo)     H(rot)  DE(clash)    DE(int)     intcor
     11.68     -14.14       0.21        0.00     109.33       1.88       0.17       2.30       ----

> <Gold.Chemscore.Fitness>
11.6785

> <Gold.Chemscore.DG>
-14.1426

> <Gold.Chemscore.ZeroCoef>
-5.4800

> <Gold.Chemscore.Hbond>
0.2077

> <Gold.Chemscore.Metal>
0.0000

> <Gold.Chemscore.Lipo>
109.3305

> <Gold.Chemscore.Internal_Hbond>
0.0000

> <Gold.Chemscore.DEClash>
0.1660

> <Gold.Chemscore.DEInternal>
2.2981

> <Gold.Chemscore.Rot>
1.8839

> <Gold.Chemscore.Internal.Correction>
   9.000000E+99

> <Gold.Chemscore.Hbonds>
donor molecule, donor type, donor heavy atom, donor atom, acceptor molecule, acceptor atom, score
      P1  H  7997  8009       L1     3  0.28

> <Gold.Chemscore.Hbond.Weighted>
-0.6936

> <Gold.Chemscore.Metal.Weighted>
-0.0000

> <Gold.Chemscore.Lipo.Weighted>
-12.7917

> <Gold.Chemscore.Internal_Hbond.Weighted>
0.0000

> <Gold.Chemscore.DEClash.Weighted>
0.1660

> <Gold.Chemscore.DEInternal.Weighted>
2.2981

> <Gold.Chemscore.Rot.Weighted>
4.8227

> <Gold.Chemscore.Internal.Correction.Weighted>
   9.000000E+99

> <Gold.Protein.RotatedTorsions>
[ 6907 6896 6895 6894 ] final   89.30 input  -60.11 | X-H torsion
[ 7974 7965 7964 7962 ] final   51.67 input  175.53 | X-H torsion
[ 8008 7997 7996 7995 ] final  140.20 input   59.86 | X-H torsion
[ 10167 10162 10161 10158 ] final  138.27 input  -65.29 | X-H torsion
[ 10718 10713 10712 10709 ] final  148.53 input   66.30 | X-H torsion
[ 10763 10752 10751 10750 ] final  -56.62 input  -60.55 | X-H torsion
[ 11005 11000 10999 10996 ] final   -0.96 input  -57.11 | X-H torsion

> <Gold.Protein.ActiveResidues>
 VAL166  LYS551  ARG553  GLY616  TRP617  ASP618  TYR619  PRO620  LYS621  CYS622 
 ASP623  PHE694  ASN695  SER759  ASP760  ASP761  ALA762  ILE779  LEU786  VAL792 
 PHE793  MET794  SER795  GLU796  ALA797  LYS798  CYS799  TRP800  GLU811  SER814 

> <Gold.Protein.RotatedAtoms>
  152.5435  134.1988  159.8703 H   0  0  0  0  0  0  0  0  0  0  0  0  # atno 6907 bound_to 6896
  151.1979  133.4621  159.2603 H   0  0  0  0  0  0  0  0  0  0  0  0  # atno 6908 bound_to 6896
  151.1019  134.9989  159.8508 H   0  0  0  0  0  0  0  0  0  0  0  0  # atno 6909 bound_to 6896
  145.9890  139.4320  143.0085 H   0  0  0  0  0  0  0  0  0  0  0  0  # atno 7974 bound_to 7965
  156.2982  140.2347  156.4362 H   0  0  0  0  0  0  0  0  0  0  0  0  # atno 8008 bound_to 7997
  154.8226  140.0437  157.1442 H   0  0  0  0  0  0  0  0  0  0  0  0  # atno 8009 bound_to 7997
  154.9298  140.3015  155.5177 H   0  0  0  0  0  0  0  0  0  0  0  0  # atno 8010 bound_to 7997
  139.5116  144.6363  151.5688 H   0  0  0  0  0  0  0  0  0  0  0  0  # atno 10167 bound_to 10162
  157.3075  131.0882  151.1342 H   0  0  0  0  0  0  0  0  0  0  0  0  # atno 10718 bound_to 10713
  154.2095  135.6397  153.5111 H   0  0  0  0  0  0  0  0  0  0  0  0  # atno 10763 bound_to 10752
  152.9993  135.5470  154.6230 H   0  0  0  0  0  0  0  0  0  0  0  0  # atno 10764 bound_to 10752
  154.5664  135.2913  155.0844 H   0  0  0  0  0  0  0  0  0  0  0  0  # atno 10765 bound_to 10752
  140.6420  133.9481  155.8331 H   0  0  0  0  0  0  0  0  0  0  0  0  # atno 11005 bound_to 11000
  145.7657  140.9917  143.1176 LP  0  0  0  0  0  0  0  0  0  0  0  0  # atno 17320 bound_to 7965
  144.6883  139.9385  143.7474 LP  0  0  0  0  0  0  0  0  0  0  0  0  # atno 17321 bound_to 7965
  140.6113  143.9431  150.6455 LP  0  0  0  0  0  0  0  0  0  0  0  0  # atno 17342 bound_to 10162
  140.2674  143.3480  152.1268 LP  0  0  0  0  0  0  0  0  0  0  0  0  # atno 17343 bound_to 10162
  157.2677  130.6689  149.6004 LP  0  0  0  0  0  0  0  0  0  0  0  0  # atno 17370 bound_to 10713
  155.9675  130.4489  150.5636 LP  0  0  0  0  0  0  0  0  0  0  0  0  # atno 17371 bound_to 10713
  141.0600  134.0360  157.3671 LP  0  0  0  0  0  0  0  0  0  0  0  0  # atno 17394 bound_to 11000
  139.9077  135.0183  156.7556 LP  0  0  0  0  0  0  0  0  0  0  0  0  # atno 17395 bound_to 11000

$$$$
