AV-unprocessed.smi:72|AV-procd|sdf|722|dock1
  -GOLD-   2262017 43D 1   1.00000     0.00000
 Structure written by MMmdl.
 28 29  0  0  0  0  0  0  0  0  2 V2000
  152.9682  136.7680  155.9169 N   0  0  0  0  0  0  0  0  0  0  0  0
  152.3082  137.8149  155.6768 C   0  0  0  0  0  0  0  0  0  0  0  0
  151.7254  138.0231  154.3703 N   0  0  0  0  0  0  0  0  0  0  0  0
  150.9983  139.0834  154.1960 C   0  0  0  0  0  0  0  0  0  0  0  0
  150.7233  140.0229  155.2800 N   0  0  0  0  0  0  0  0  0  0  0  0
  149.8876  141.2791  155.0576 C   0  0  1  0  0  0  0  0  0  0  0  0
  149.3822  141.2863  153.7486 O   0  0  0  0  0  0  0  0  0  0  0  0
  147.9888  140.9797  153.7148 C   0  0  1  0  0  0  0  0  0  0  0  0
  147.7597  139.4543  153.6062 C   0  0  0  0  0  0  0  0  0  0  0  0
  148.0139  139.0233  152.2860 O   0  0  0  0  0  0  0  0  0  0  0  0
  147.5104  141.6177  155.0226 C   0  0  1  0  0  0  0  0  0  0  0  0
  146.2897  141.0811  155.4942 O   0  0  0  0  0  0  0  0  0  0  0  0
  148.6549  141.3536  155.9916 C   0  0  2  0  0  0  0  0  0  0  0  0
  148.7472  142.4302  156.9033 O   0  0  0  0  0  0  0  0  0  0  0  0
  151.4118  139.8494  156.5136 C   0  0  0  0  0  0  0  0  0  0  0  0
  151.3005  140.7223  157.3739 O   0  0  0  0  0  0  0  0  0  0  0  0
  152.1767  138.7360  156.6908 N   0  5  0  0  0  0  0  0  0  0  0  0
  150.5947  142.1008  155.1827 H   0  0  0  0  0  0  0  0  0  0  0  0
  147.5178  141.4765  152.8655 H   0  0  0  0  0  0  0  0  0  0  0  0
  147.3909  142.6907  154.8614 H   0  0  0  0  0  0  0  0  0  0  0  0
  148.5129  140.4039  156.5102 H   0  0  0  0  0  0  0  0  0  0  0  0
  153.3253  136.7478  156.8610 H   0  0  0  0  0  0  0  0  0  0  0  0
  150.5529  139.3278  153.2319 H   0  0  0  0  0  0  0  0  0  0  0  0
  148.3577  138.8885  154.3187 H   0  0  0  0  0  0  0  0  0  0  0  0
  146.7182  139.2080  153.8115 H   0  0  0  0  0  0  0  0  0  0  0  0
  148.5028  138.2153  152.3237 H   0  0  0  0  0  0  0  0  0  0  0  0
  145.5940  141.3967  154.9375 H   0  0  0  0  0  0  0  0  0  0  0  0
  148.8915  143.2227  156.4076 H   0  0  0  0  0  0  0  0  0  0  0  0
  1  2  2  0  0  0  0
  1 22  1  0  0  0  0
  2 17  1  0  0  0  0
  2  3  1  0  0  0  0
  3  4  2  0  0  0  0
  4  5  1  0  0  0  0
  4 23  1  0  0  0  0
  5  6  1  0  0  0  0
  5 15  1  0  0  0  0
  6 18  1  0  0  0  0
  6 13  1  0  0  0  0
  6  7  1  0  0  0  0
  7  8  1  0  0  0  0
  8 19  1  0  0  0  0
  8  9  1  0  0  0  0
  8 11  1  0  0  0  0
  9 10  1  0  0  0  0
  9 24  1  0  0  0  0
  9 25  1  0  0  0  0
 10 26  1  0  0  0  0
 11 20  1  0  0  0  0
 11 12  1  0  0  0  0
 11 13  1  0  0  0  0
 12 27  1  0  0  0  0
 13 21  1  0  0  0  0
 13 14  1  0  0  0  0
 14 28  1  0  0  0  0
 15 16  2  0  0  0  0
 15 17  1  0  0  0  0
M  CHG  1  17  -1
M  END
> <s_m_source_file>
AV-unprocessed.smi

> <i_m_source_file_index>
72

> <i_lp_mmshare_version>
43012

> <i_f3d_flags>
0

> <s_epik_input>
W05IMl1jMW5bY0hdbihjKD1PKW4xKVtDQEBIXTJPW0NASF0oW0NIMl1bT0hdKVtDQEBIXShbT0hdKVtDQEhdMltPSF0=

> <s_epik_cmdline>
J2VwaWtfcHl0aG9uJywgJy1waCcsICc3LjAnLCAnLXRuJywgJzgnLCAnLW1hJywgJzIwMCcsICctbWV0YWxfYmluZGluZycsICctaW1hZScsICc8aW5maWxlLm1hZT4nLCAnLW9tYWUnLCAnPG91dGZpbGUubWFlPic=

> <r_lp_tautomer_probability>
7.17554e-07

> <r_epik_Ionization_Penalty>
12.8705

> <r_epik_Ionization_Penalty_Charging>
5.64144

> <r_epik_Ionization_Penalty_Neutral>
7.22905

> <r_epik_State_Penalty>
3.30104

> <r_epik_Charging_Adjusted_Penalty>
8.94249

> <i_epik_Tot_Q>
-1

> <i_epik_Tot_abs_Q>
1

> <r_epik_Metal_State_Penalty>
0.529074

> <b_epik_Metal_Only>
1

> <s_epik_Chemistry_Notes>
This compound contains an acetal/aminal-like group ( X-CH(R)-Y where X, Y are N, S, or O) that may be acid/base labile, releasing an aldehyde.

> <s_lp_Force_Field>
OPLS_2005

> <r_lp_Energy>
34.2272

> <b_lp_Chiralities_Consistent>
1

> <s_lp_Variant>
AV-unprocessed.smi:72-60

> <Gold.Version>
5.8.1

> <Gold.Id.Protein>
6NUR|6NUR_protein|mol2

> <Gold.PLP.Fitness>
39.3851

> <Gold.PLP.PLP>
-24.8011

> <Gold.PLP.part.hbond>
-5.7725

> <Gold.PLP.part.metal>
0.0000

> <Gold.PLP.part.buried>
-4.2440

> <Gold.PLP.part.nonpolar>
-17.5251

> <Gold.PLP.part.repulsive>
2.0540

> <Gold.PLP.ligand.clash>
0.0000

> <Gold.PLP.ligand.torsion>
0.1359

> <Gold.PLP.Chemscore.Hbond>
3.9200

> <Gold.PLP.Chemscore.CHOScore>
1.0000

> <Gold.PLP.Chemscore.Metal>
0.0000

> <Gold.Chemscore.Hbonds>
donor molecule, donor type, donor heavy atom, donor atom, acceptor molecule, acceptor atom, score
      L1  H    10    26       P1  7948  0.94
      L1  H    14    28       P1  8028  1.00
      P1  H  8011  8017       L1     7  0.86
      P1  H 10752 10764       L1     1  0.70
      L1  C     4    23       P1  7957  1.00

> <Gold.PLP.Chemscore.Internal.Correction>
0.0958

> <Gold.Rescore>
     Score         DG    S(hbond)    S(metal)    S(lipo)     H(rot)  DE(clash)    DE(int)     intcor
      8.47     -10.05       3.64        0.00      23.50       4.04       1.34       0.24       ----

> <Gold.Chemscore.Fitness>
8.4745

> <Gold.Chemscore.DG>
-10.0532

> <Gold.Chemscore.ZeroCoef>
-5.4800

> <Gold.Chemscore.Hbond>
3.6428

> <Gold.Chemscore.Metal>
0.0000

> <Gold.Chemscore.Lipo>
23.4982

> <Gold.Chemscore.Internal_Hbond>
0.0000

> <Gold.Chemscore.DEClash>
1.3424

> <Gold.Chemscore.DEInternal>
0.2363

> <Gold.Chemscore.Rot>
4.0403

> <Gold.Chemscore.Internal.Correction>
   9.000000E+99

> <Gold.Chemscore.Hbonds>
donor molecule, donor type, donor heavy atom, donor atom, acceptor molecule, acceptor atom, score
      L1  H    10    26       P1  7948  0.89
      L1  H    14    28       P1  8028  0.98
      P1  H  8011  8017       L1     7  0.59
      P1  H 10752 10764       L1     1  0.49

> <Gold.Chemscore.Hbond.Weighted>
-12.1670

> <Gold.Chemscore.Metal.Weighted>
-0.0000

> <Gold.Chemscore.Lipo.Weighted>
-2.7493

> <Gold.Chemscore.Internal_Hbond.Weighted>
0.0000

> <Gold.Chemscore.DEClash.Weighted>
1.3424

> <Gold.Chemscore.DEInternal.Weighted>
0.2363

> <Gold.Chemscore.Rot.Weighted>
10.3431

> <Gold.Chemscore.Internal.Correction.Weighted>
   9.000000E+99

> <Gold.Protein.RotatedTorsions>
[ 6907 6896 6895 6894 ] final   26.07 input  -60.11 | X-H torsion
[ 7974 7965 7964 7962 ] final  142.13 input  175.53 | X-H torsion
[ 8008 7997 7996 7995 ] final   18.58 input   59.86 | X-H torsion
[ 10167 10162 10161 10158 ] final  -79.91 input  -65.29 | X-H torsion
[ 10718 10713 10712 10709 ] final   -9.42 input   66.30 | X-H torsion
[ 10763 10752 10751 10750 ] final  -17.23 input  -60.55 | X-H torsion
[ 11005 11000 10999 10996 ] final   -9.30 input  -57.11 | X-H torsion

> <Gold.Protein.ActiveResidues>
 VAL166  LYS551  ARG553  GLY616  TRP617  ASP618  TYR619  PRO620  LYS621  CYS622 
 ASP623  PHE694  ASN695  SER759  ASP760  ASP761  ALA762  ILE779  LEU786  VAL792 
 PHE793  MET794  SER795  GLU796  ALA797  LYS798  CYS799  TRP800  GLU811  SER814 

> <Gold.Protein.RotatedAtoms>
  151.9820  135.0023  160.0557 H   0  0  0  0  0  0  0  0  0  0  0  0  # atno 6907 bound_to 6896
  152.1687  133.4624  159.4906 H   0  0  0  0  0  0  0  0  0  0  0  0  # atno 6908 bound_to 6896
  150.6898  134.1898  159.4323 H   0  0  0  0  0  0  0  0  0  0  0  0  # atno 6909 bound_to 6896
  144.9034  139.5391  143.5743 H   0  0  0  0  0  0  0  0  0  0  0  0  # atno 7974 bound_to 7965
  154.9081  140.3010  155.5281 H   0  0  0  0  0  0  0  0  0  0  0  0  # atno 8008 bound_to 7997
  156.3016  140.2394  156.4052 H   0  0  0  0  0  0  0  0  0  0  0  0  # atno 8009 bound_to 7997
  154.8453  140.0412  157.1557 H   0  0  0  0  0  0  0  0  0  0  0  0  # atno 8010 bound_to 7997
  140.4551  143.2471  151.8431 H   0  0  0  0  0  0  0  0  0  0  0  0  # atno 10167 bound_to 10162
  156.6883  130.5057  149.5951 H   0  0  0  0  0  0  0  0  0  0  0  0  # atno 10718 bound_to 10713
  153.5706  135.7007  153.5506 H   0  0  0  0  0  0  0  0  0  0  0  0  # atno 10763 bound_to 10752
  153.3348  135.4037  155.1524 H   0  0  0  0  0  0  0  0  0  0  0  0  # atno 10764 bound_to 10752
  154.8634  135.3727  154.5229 H   0  0  0  0  0  0  0  0  0  0  0  0  # atno 10765 bound_to 10752
  140.7327  133.8735  155.8905 H   0  0  0  0  0  0  0  0  0  0  0  0  # atno 11005 bound_to 11000
  146.3121  139.7783  142.9012 LP  0  0  0  0  0  0  0  0  0  0  0  0  # atno 17320 bound_to 7965
  145.3577  141.0320  143.3303 LP  0  0  0  0  0  0  0  0  0  0  0  0  # atno 17321 bound_to 7965
  139.4800  144.5074  151.8979 LP  0  0  0  0  0  0  0  0  0  0  0  0  # atno 17342 bound_to 10162
  140.4161  144.2305  150.5888 LP  0  0  0  0  0  0  0  0  0  0  0  0  # atno 17343 bound_to 10162
  156.1816  130.6502  151.0958 LP  0  0  0  0  0  0  0  0  0  0  0  0  # atno 17370 bound_to 10713
  157.7018  131.0773  150.6795 LP  0  0  0  0  0  0  0  0  0  0  0  0  # atno 17371 bound_to 10713
  140.9907  134.1283  157.4411 LP  0  0  0  0  0  0  0  0  0  0  0  0  # atno 17394 bound_to 11000
  139.8823  135.0039  156.6217 LP  0  0  0  0  0  0  0  0  0  0  0  0  # atno 17395 bound_to 11000

$$$$
