AV-unprocessed.smi:861|AV-procd|sdf|3972|dock3
  -GOLD-   22720 1443D 1   1.00000     0.00000
 Structure written by MMmdl.
 45 46  0  0  0  0  0  0  0  0  3 V2000
  150.4297  144.3468  158.8447 C   0  0  0  0  0  0  0  0  0  0  0  0
  151.6659  143.6327  158.2711 C   0  0  0  0  0  0  0  0  0  0  0  0
  152.8049  144.6399  158.0474 C   0  0  0  0  0  0  0  0  0  0  0  0
  151.3559  142.8621  156.9705 C   0  0  0  0  0  0  0  0  0  0  0  0
  150.2028  141.8469  157.1024 C   0  0  0  0  0  0  0  0  0  0  0  0
  150.0463  140.9974  155.8937 N   0  3  1  0  0  0  0  0  0  0  0  0
  151.0748  139.9339  155.7778 C   0  0  0  0  0  0  0  0  0  0  0  0
  150.8608  139.1153  154.4952 C   0  0  0  0  0  0  0  0  0  0  0  0
  149.5477  138.5706  154.4923 O   0  0  0  0  0  0  0  0  0  0  0  0
  148.5416  139.5764  154.4998 C   0  0  1  0  0  0  0  0  0  0  0  0
  147.1832  138.8566  154.4030 C   0  0  0  0  0  0  0  0  0  0  0  0
  147.1481  137.8390  153.3607 N   0  0  0  0  0  0  0  0  0  0  0  0
  145.9439  137.2817  152.9068 C   0  0  0  0  0  0  0  0  0  0  0  0
  144.6630  137.6350  153.3929 C   0  0  0  0  0  0  0  0  0  0  0  0
  143.5405  136.9924  152.8431 C   0  0  0  0  0  0  0  0  0  0  0  0
  143.7646  136.0345  151.8385 C   0  0  0  0  0  0  0  0  0  0  0  0
  144.9966  135.7112  151.3866 N   0  0  0  0  0  0  0  0  0  0  0  0
  146.0502  136.3437  151.9323 N   0  3  0  0  0  0  0  0  0  0  0  0
  148.6869  140.4117  155.7903 C   0  0  0  0  0  0  0  0  0  0  0  0
  150.0119  145.0543  158.1274 H   0  0  0  0  0  0  0  0  0  0  0  0
  150.6852  144.9046  159.7463 H   0  0  0  0  0  0  0  0  0  0  0  0
  149.6438  143.6438  159.1184 H   0  0  0  0  0  0  0  0  0  0  0  0
  152.0140  142.9151  159.0152 H   0  0  0  0  0  0  0  0  0  0  0  0
  152.5305  145.3905  157.3051 H   0  0  0  0  0  0  0  0  0  0  0  0
  153.7101  144.1419  157.6987 H   0  0  0  0  0  0  0  0  0  0  0  0
  153.0567  145.1620  158.9712 H   0  0  0  0  0  0  0  0  0  0  0  0
  151.1359  143.5696  156.1698 H   0  0  0  0  0  0  0  0  0  0  0  0
  152.2611  142.3366  156.6680 H   0  0  0  0  0  0  0  0  0  0  0  0
  150.3404  141.2167  157.9822 H   0  0  0  0  0  0  0  0  0  0  0  0
  149.2733  142.3946  157.2576 H   0  0  0  0  0  0  0  0  0  0  0  0
  152.0751  140.3641  155.7592 H   0  0  0  0  0  0  0  0  0  0  0  0
  151.0241  139.2788  156.6488 H   0  0  0  0  0  0  0  0  0  0  0  0
  151.0167  139.7298  153.6070 H   0  0  0  0  0  0  0  0  0  0  0  0
  151.5817  138.2988  154.4478 H   0  0  0  0  0  0  0  0  0  0  0  0
  148.6786  140.2159  153.6260 H   0  0  0  0  0  0  0  0  0  0  0  0
  146.9239  138.4045  155.3607 H   0  0  0  0  0  0  0  0  0  0  0  0
  146.3973  139.5833  154.1956 H   0  0  0  0  0  0  0  0  0  0  0  0
  148.0170  137.5737  152.9185 H   0  0  0  0  0  0  0  0  0  0  0  0
  144.5259  138.3755  154.1663 H   0  0  0  0  0  0  0  0  0  0  0  0
  142.5402  137.2250  153.1780 H   0  0  0  0  0  0  0  0  0  0  0  0
  142.9349  135.5130  151.3842 H   0  0  0  0  0  0  0  0  0  0  0  0
  148.4934  139.7903  156.6665 H   0  0  0  0  0  0  0  0  0  0  0  0
  147.9464  141.2126  155.7961 H   0  0  0  0  0  0  0  0  0  0  0  0
  150.1568  141.6066  155.0954 H   0  0  0  0  0  0  0  0  0  0  0  0
  146.9825  136.1063  151.5922 H   0  0  0  0  0  0  0  0  0  0  0  0
  1  2  1  0  0  0  0
  1 20  1  0  0  0  0
  1 21  1  0  0  0  0
  1 22  1  0  0  0  0
  2  3  1  0  0  0  0
  2  4  1  0  0  0  0
  2 23  1  0  0  0  0
  3 24  1  0  0  0  0
  3 25  1  0  0  0  0
  3 26  1  0  0  0  0
  4  5  1  0  0  0  0
  4 27  1  0  0  0  0
  4 28  1  0  0  0  0
  5  6  1  0  0  0  0
  5 29  1  0  0  0  0
  5 30  1  0  0  0  0
  6 19  1  0  0  0  0
  6  7  1  0  0  0  0
  6 44  1  0  0  0  0
  7  8  1  0  0  0  0
  7 31  1  0  0  0  0
  7 32  1  0  0  0  0
  8  9  1  0  0  0  0
  8 33  1  0  0  0  0
  8 34  1  0  0  0  0
  9 10  1  0  0  0  0
 10 11  1  0  0  0  0
 10 19  1  0  0  0  0
 10 35  1  0  0  0  0
 11 12  1  0  0  0  0
 11 36  1  0  0  0  0
 11 37  1  0  0  0  0
 12 13  1  0  0  0  0
 12 38  1  0  0  0  0
 13 18  1  0  0  0  0
 13 14  2  0  0  0  0
 14 15  1  0  0  0  0
 14 39  1  0  0  0  0
 15 16  2  0  0  0  0
 15 40  1  0  0  0  0
 16 17  1  0  0  0  0
 16 41  1  0  0  0  0
 17 18  2  0  0  0  0
 18 45  1  0  0  0  0
 19 42  1  0  0  0  0
 19 43  1  0  0  0  0
M  CHG  1   6   1
M  CHG  1  18   1
M  END
> <s_m_source_file>
AV-unprocessed.smi

> <i_m_source_file_index>
861

> <i_lp_mmshare_version>
43012

> <i_f3d_flags>
0

> <s_epik_input>
W0NIM11bQ0hdKFtDSDNdKVtDSDJdW0NIMl1OMVtDSDJdW0NIMl1PW0NASF0oW0NIMl0xKVtDSDJdW05IXWMyW2NIXVtjSF1bY0hdbm4y

> <s_epik_cmdline>
J2VwaWtfcHl0aG9uJywgJy1waCcsICc3LjAnLCAnLXRuJywgJzgnLCAnLW1hJywgJzIwMCcsICctbWV0YWxfYmluZGluZycsICctaW1hZScsICc8aW5maWxlLm1hZT4nLCAnLW9tYWUnLCAnPG91dGZpbGUubWFlPic=

> <r_lp_tautomer_probability>
0.966961

> <r_epik_Ionization_Penalty>
2.478

> <r_epik_Ionization_Penalty_Charging>
2.47799

> <r_epik_Ionization_Penalty_Neutral>
3.15286e-06

> <r_epik_State_Penalty>
2.10794

> <r_epik_Charging_Adjusted_Penalty>
4.58594

> <i_epik_Tot_Q>
2

> <i_epik_Tot_abs_Q>
2

> <r_epik_Metal_State_Penalty>
2.11378

> <b_epik_Metal_Only>
0

> <s_lp_Force_Field>
OPLS_2005

> <r_lp_Energy>
34.6119

> <b_lp_Chiralities_Consistent>
1

> <s_lp_Variant>
AV-unprocessed.smi:861-7

> <Gold.Version>
5.8.1

> <Gold.Id.Protein>
6NUR|6NUR_protein|mol2

> <Gold.PLP.Fitness>
41.7461

> <Gold.PLP.PLP>
-30.7881

> <Gold.PLP.part.hbond>
-2.0000

> <Gold.PLP.part.metal>
0.0000

> <Gold.PLP.part.buried>
-5.3561

> <Gold.PLP.part.nonpolar>
-24.8742

> <Gold.PLP.part.repulsive>
0.5280

> <Gold.PLP.ligand.clash>
0.0000

> <Gold.PLP.ligand.torsion>
0.3599

> <Gold.PLP.Chemscore.Hbond>
3.8720

> <Gold.PLP.Chemscore.CHOScore>
0.0064

> <Gold.PLP.Chemscore.Metal>
0.0000

> <Gold.Chemscore.Hbonds>
donor molecule, donor type, donor heavy atom, donor atom, acceptor molecule, acceptor atom, score
      L1  H    12    38       P1  7948  1.89
      L1  H    18    45       P1  7948  1.95

> <Gold.PLP.Chemscore.Internal.Correction>
0.0424

> <Gold.Rescore>
     Score         DG    S(hbond)    S(metal)    S(lipo)     H(rot)  DE(clash)    DE(int)     intcor
     17.03     -17.37       1.85        0.00      87.53       1.78       0.06       0.28       ----

> <Gold.Chemscore.Fitness>
17.0320

> <Gold.Chemscore.DG>
-17.3683

> <Gold.Chemscore.ZeroCoef>
-5.4800

> <Gold.Chemscore.Hbond>
1.8544

> <Gold.Chemscore.Metal>
0.0000

> <Gold.Chemscore.Lipo>
87.5285

> <Gold.Chemscore.Internal_Hbond>
0.0000

> <Gold.Chemscore.DEClash>
0.0571

> <Gold.Chemscore.DEInternal>
0.2791

> <Gold.Chemscore.Rot>
1.7759

> <Gold.Chemscore.Internal.Correction>
   9.000000E+99

> <Gold.Chemscore.Hbonds>
donor molecule, donor type, donor heavy atom, donor atom, acceptor molecule, acceptor atom, score
      L1  H    12    38       P1  7948  0.90
      L1  H    18    45       P1  7948  0.92

> <Gold.Chemscore.Hbond.Weighted>
-6.1937

> <Gold.Chemscore.Metal.Weighted>
-0.0000

> <Gold.Chemscore.Lipo.Weighted>
-10.2408

> <Gold.Chemscore.Internal_Hbond.Weighted>
0.0000

> <Gold.Chemscore.DEClash.Weighted>
0.0571

> <Gold.Chemscore.DEInternal.Weighted>
0.2791

> <Gold.Chemscore.Rot.Weighted>
4.5462

> <Gold.Chemscore.Internal.Correction.Weighted>
   9.000000E+99

> <Gold.Protein.RotatedTorsions>
[ 6907 6896 6895 6894 ] final  158.92 input  -60.11 | X-H torsion
[ 7974 7965 7964 7962 ] final   59.38 input  175.53 | X-H torsion
[ 8008 7997 7996 7995 ] final  -85.29 input   59.86 | X-H torsion
[ 10167 10162 10161 10158 ] final  -45.43 input  -65.29 | X-H torsion
[ 10718 10713 10712 10709 ] final -131.14 input   66.30 | X-H torsion
[ 10763 10752 10751 10750 ] final  124.20 input  -60.55 | X-H torsion
[ 11005 11000 10999 10996 ] final  -52.75 input  -57.11 | X-H torsion

> <Gold.Protein.ActiveResidues>
 VAL166  LYS551  ARG553  GLY616  TRP617  ASP618  TYR619  PRO620  LYS621  CYS622 
 ASP623  PHE694  ASN695  SER759  ASP760  ASP761  ALA762  ILE779  LEU786  VAL792 
 PHE793  MET794  SER795  GLU796  ALA797  LYS798  CYS799  TRP800  GLU811  SER814 

> <Gold.Protein.RotatedAtoms>
  151.9932  133.3798  159.4152 H   0  0  0  0  0  0  0  0  0  0  0  0  # atno 6907 bound_to 6896
  150.6919  134.3914  159.5087 H   0  0  0  0  0  0  0  0  0  0  0  0  # atno 6908 bound_to 6896
  152.1650  134.8880  160.0589 H   0  0  0  0  0  0  0  0  0  0  0  0  # atno 6909 bound_to 6896
  145.9078  139.3630  143.0554 H   0  0  0  0  0  0  0  0  0  0  0  0  # atno 7974 bound_to 7965
  154.6391  140.0593  156.9824 H   0  0  0  0  0  0  0  0  0  0  0  0  # atno 8008 bound_to 7997
  155.1545  140.3277  155.4406 H   0  0  0  0  0  0  0  0  0  0  0  0  # atno 8009 bound_to 7997
  156.2522  140.1941  156.6655 H   0  0  0  0  0  0  0  0  0  0  0  0  # atno 8010 bound_to 7997
  140.6858  143.2880  151.3637 H   0  0  0  0  0  0  0  0  0  0  0  0  # atno 10167 bound_to 10162
  156.2215  130.6981  151.0760 H   0  0  0  0  0  0  0  0  0  0  0  0  # atno 10718 bound_to 10713
  153.6576  135.3352  155.3118 H   0  0  0  0  0  0  0  0  0  0  0  0  # atno 10763 bound_to 10752
  154.8522  135.4356  154.1838 H   0  0  0  0  0  0  0  0  0  0  0  0  # atno 10764 bound_to 10752
  153.2796  135.7008  153.7473 H   0  0  0  0  0  0  0  0  0  0  0  0  # atno 10765 bound_to 10752
  141.0940  133.6627  156.4070 H   0  0  0  0  0  0  0  0  0  0  0  0  # atno 11005 bound_to 11000
  145.8710  140.9420  143.0651 LP  0  0  0  0  0  0  0  0  0  0  0  0  # atno 17320 bound_to 7965
  144.6741  140.0654  143.7475 LP  0  0  0  0  0  0  0  0  0  0  0  0  # atno 17321 bound_to 7965
  139.6216  144.0896  152.2396 LP  0  0  0  0  0  0  0  0  0  0  0  0  # atno 17342 bound_to 10162
  140.0342  144.6057  150.7463 LP  0  0  0  0  0  0  0  0  0  0  0  0  # atno 17343 bound_to 10162
  157.7089  131.0743  150.6569 LP  0  0  0  0  0  0  0  0  0  0  0  0  # atno 17370 bound_to 10713
  156.6632  130.4518  149.5681 LP  0  0  0  0  0  0  0  0  0  0  0  0  # atno 17371 bound_to 10713
  140.5184  134.6328  157.5309 LP  0  0  0  0  0  0  0  0  0  0  0  0  # atno 17394 bound_to 11000
  139.9772  134.7195  155.9926 LP  0  0  0  0  0  0  0  0  0  0  0  0  # atno 17395 bound_to 11000

$$$$
