AV-unprocessed.smi:2313|AV-procd|sdf|9265|dock4
  -GOLD-   2272012493D 1   1.00000     0.00000
 Structure written by MMmdl.
 37 38  0  0  0  0  0  0  0  0  1 V2000
  152.5215  143.4157  161.1129 C   0  0  0  0  0  0  0  0  0  0  0  0
  152.0955  142.8929  159.7537 C   0  0  0  0  0  0  0  0  0  0  0  0
  151.1692  143.6541  158.9413 C   0  0  0  0  0  0  0  0  0  0  0  0
  150.8005  143.1767  157.7432 C   0  0  0  0  0  0  0  0  0  0  0  0
  151.2887  141.9550  157.2475 N   0  0  0  0  0  0  0  0  0  0  0  0
  150.8087  141.5240  155.9237 C   0  0  0  0  0  0  0  0  0  0  0  0
  149.3247  141.1354  155.9355 C   0  0  0  0  0  0  0  0  0  0  0  0
  148.9678  140.0719  156.4418 O   0  0  0  0  0  0  0  0  0  0  0  0
  148.4828  142.0157  155.3679 N   0  0  0  0  0  0  0  0  0  0  0  0
  147.0317  141.8979  155.1771 C   0  0  2  0  0  0  0  0  0  0  0  0
  146.8059  140.5647  154.4453 C   0  0  0  0  0  0  0  0  0  0  0  0
  146.5011  142.9755  154.3188 C   0  0  0  0  0  0  0  0  0  0  0  0
  146.0829  143.8186  153.6451 N   0  0  0  0  0  0  0  0  0  0  0  0
  146.2096  141.8877  156.4686 C   0  0  0  0  0  0  0  0  0  0  0  0
  144.7630  142.3242  156.5602 C   0  0  0  0  0  0  0  0  0  0  0  0
  145.8470  143.1576  157.2061 C   0  0  0  0  0  0  0  0  0  0  0  0
  152.1665  141.1843  157.9585 C   0  0  0  0  0  0  0  0  0  0  0  0
  152.5917  140.1144  157.5177 O   0  0  0  0  0  0  0  0  0  0  0  0
  152.5614  141.7156  159.2725 C   0  0  0  0  0  0  0  0  0  0  0  0
  153.4720  140.9066  160.0167 C   0  0  0  0  0  0  0  0  0  0  0  0
  154.2131  140.2658  160.6332 N   0  0  0  0  0  0  0  0  0  0  0  0
  152.0515  144.3748  161.3319 H   0  0  0  0  0  0  0  0  0  0  0  0
  153.6025  143.5540  161.1469 H   0  0  0  0  0  0  0  0  0  0  0  0
  152.2383  142.7134  161.8973 H   0  0  0  0  0  0  0  0  0  0  0  0
  150.7723  144.5946  159.2943 H   0  0  0  0  0  0  0  0  0  0  0  0
  150.1074  143.6943  157.0960 H   0  0  0  0  0  0  0  0  0  0  0  0
  150.9457  142.3119  155.1821 H   0  0  0  0  0  0  0  0  0  0  0  0
  151.4123  140.6864  155.5682 H   0  0  0  0  0  0  0  0  0  0  0  0
  148.8988  142.8565  154.9946 H   0  0  0  0  0  0  0  0  0  0  0  0
  145.7486  140.4038  154.2315 H   0  0  0  0  0  0  0  0  0  0  0  0
  147.1528  139.7195  155.0412 H   0  0  0  0  0  0  0  0  0  0  0  0
  147.3372  140.5389  153.4929 H   0  0  0  0  0  0  0  0  0  0  0  0
  146.4567  141.0401  157.1058 H   0  0  0  0  0  0  0  0  0  0  0  0
  144.2747  142.7425  155.6850 H   0  0  0  0  0  0  0  0  0  0  0  0
  144.1116  141.7543  157.2193 H   0  0  0  0  0  0  0  0  0  0  0  0
  145.9134  143.1421  158.2920 H   0  0  0  0  0  0  0  0  0  0  0  0
  146.0845  144.1125  156.7414 H   0  0  0  0  0  0  0  0  0  0  0  0
  1  2  1  0  0  0  0
  1 22  1  0  0  0  0
  1 23  1  0  0  0  0
  1 24  1  0  0  0  0
  2 19  2  0  0  0  0
  2  3  1  0  0  0  0
  3  4  2  0  0  0  0
  3 25  1  0  0  0  0
  4  5  1  0  0  0  0
  4 26  1  0  0  0  0
  5  6  1  0  0  0  0
  5 17  1  0  0  0  0
  6  7  1  0  0  0  0
  6 27  1  0  0  0  0
  6 28  1  0  0  0  0
  7  8  2  0  0  0  0
  7  9  1  0  0  0  0
  9 10  1  0  0  0  0
  9 29  1  0  0  0  0
 10 11  1  0  0  0  0
 10 12  1  0  0  0  0
 10 14  1  0  0  0  0
 11 30  1  0  0  0  0
 11 31  1  0  0  0  0
 11 32  1  0  0  0  0
 12 13  3  0  0  0  0
 14 16  1  0  0  0  0
 14 15  1  0  0  0  0
 14 33  1  0  0  0  0
 15 16  1  0  0  0  0
 15 34  1  0  0  0  0
 15 35  1  0  0  0  0
 16 36  1  0  0  0  0
 16 37  1  0  0  0  0
 17 18  2  0  0  0  0
 17 19  1  0  0  0  0
 19 20  1  0  0  0  0
 20 21  3  0  0  0  0
M  END
> <s_m_source_file>
AV-unprocessed.smi

> <i_m_source_file_index>
2313

> <i_lp_mmshare_version>
43012

> <i_f3d_flags>
0

> <s_epik_input>
W0NIM11jMVtjSF1bY0hdbihjKD1PKWMxQyNOKVtDSDJdQyg9TylbTkhdW0NAQF0oW0NIM10pKEMjTilbQ0hdMltDSDJdW0NIMl0y

> <s_epik_cmdline>
J2VwaWtfcHl0aG9uJywgJy1waCcsICc3LjAnLCAnLXRuJywgJzgnLCAnLW1hJywgJzIwMCcsICctbWV0YWxfYmluZGluZycsICctaW1hZScsICc8aW5maWxlLm1hZT4nLCAnLW9tYWUnLCAnPG91dGZpbGUubWFlPic=

> <r_lp_tautomer_probability>
1

> <r_epik_Ionization_Penalty>
4.65501e-07

> <r_epik_Ionization_Penalty_Charging>
2.39086e-10

> <r_epik_Ionization_Penalty_Neutral>
4.65262e-07

> <r_epik_State_Penalty>
-0

> <r_epik_Charging_Adjusted_Penalty>
2.39086e-10

> <i_epik_Tot_Q>
0

> <i_epik_Tot_abs_Q>
0

> <r_epik_Metal_State_Penalty>
-0

> <b_epik_Metal_Only>
0

> <s_lp_Force_Field>
OPLS_2005

> <r_lp_Energy>
23.1169

> <b_lp_Chiralities_Consistent>
1

> <s_lp_Variant>
AV-unprocessed.smi:2313-2

> <Gold.Version>
5.8.1

> <Gold.Id.Protein>
6NUR|6NUR_protein|mol2

> <Gold.PLP.Fitness>
44.2719

> <Gold.PLP.PLP>
-37.1246

> <Gold.PLP.part.hbond>
-3.0000

> <Gold.PLP.part.metal>
0.0000

> <Gold.PLP.part.buried>
-3.6019

> <Gold.PLP.part.nonpolar>
-29.9037

> <Gold.PLP.part.repulsive>
0.3661

> <Gold.PLP.ligand.clash>
0.0000

> <Gold.PLP.ligand.torsion>
1.0859

> <Gold.PLP.Chemscore.Hbond>
1.6080

> <Gold.PLP.Chemscore.CHOScore>
1.0000

> <Gold.PLP.Chemscore.Metal>
0.0000

> <Gold.Chemscore.Hbonds>
donor molecule, donor type, donor heavy atom, donor atom, acceptor molecule, acceptor atom, score
      L1  H     9    29       P1  8028  0.64
      P1  H  7997  8010       L1    18  1.00
      L1  C     4    26       P1  8028  1.00

> <Gold.PLP.Chemscore.Internal.Correction>
1.4951

> <Gold.Rescore>
     Score         DG    S(hbond)    S(metal)    S(lipo)     H(rot)  DE(clash)    DE(int)     intcor
     13.35     -14.53       1.58        0.00      71.60       1.80       0.20       0.98       ----

> <Gold.Chemscore.Fitness>
13.3482

> <Gold.Chemscore.DG>
-14.5348

> <Gold.Chemscore.ZeroCoef>
-5.4800

> <Gold.Chemscore.Hbond>
1.5790

> <Gold.Chemscore.Metal>
0.0000

> <Gold.Chemscore.Lipo>
71.6018

> <Gold.Chemscore.Internal_Hbond>
0.0000

> <Gold.Chemscore.DEClash>
0.2025

> <Gold.Chemscore.DEInternal>
0.9841

> <Gold.Chemscore.Rot>
1.7955

> <Gold.Chemscore.Internal.Correction>
   9.000000E+99

> <Gold.Chemscore.Hbonds>
donor molecule, donor type, donor heavy atom, donor atom, acceptor molecule, acceptor atom, score
      L1  H     9    29       P1  8028  0.63
      P1  H  7997  8010       L1    18  0.89

> <Gold.Chemscore.Hbond.Weighted>
-5.2739

> <Gold.Chemscore.Metal.Weighted>
-0.0000

> <Gold.Chemscore.Lipo.Weighted>
-8.3774

> <Gold.Chemscore.Internal_Hbond.Weighted>
0.0000

> <Gold.Chemscore.DEClash.Weighted>
0.2025

> <Gold.Chemscore.DEInternal.Weighted>
0.9841

> <Gold.Chemscore.Rot.Weighted>
4.5965

> <Gold.Chemscore.Internal.Correction.Weighted>
   9.000000E+99

> <Gold.Protein.RotatedTorsions>
[ 6907 6896 6895 6894 ] final  -47.44 input  -60.11 | X-H torsion
[ 7974 7965 7964 7962 ] final -177.47 input  175.53 | X-H torsion
[ 8008 7997 7996 7995 ] final   60.95 input   59.86 | X-H torsion
[ 10167 10162 10161 10158 ] final   88.54 input  -65.29 | X-H torsion
[ 10718 10713 10712 10709 ] final -161.37 input   66.30 | X-H torsion
[ 10763 10752 10751 10750 ] final  -56.18 input  -60.55 | X-H torsion
[ 11005 11000 10999 10996 ] final  140.77 input  -57.11 | X-H torsion

> <Gold.Protein.ActiveResidues>
 VAL166  LYS551  ARG553  GLY616  TRP617  ASP618  TYR619  PRO620  LYS621  CYS622 
 ASP623  PHE694  ASN695  SER759  ASP760  ASP761  ALA762  ILE779  LEU786  VAL792 
 PHE793  MET794  SER795  GLU796  ALA797  LYS798  CYS799  TRP800  GLU811  SER814 

> <Gold.Protein.RotatedAtoms>
  150.9008  134.8420  159.7358 H   0  0  0  0  0  0  0  0  0  0  0  0  # atno 6907 bound_to 6896
  152.4891  134.4505  159.9583 H   0  0  0  0  0  0  0  0  0  0  0  0  # atno 6908 bound_to 6896
  151.4557  133.3566  159.2837 H   0  0  0  0  0  0  0  0  0  0  0  0  # atno 6909 bound_to 6896
  144.7128  140.1014  143.6416 H   0  0  0  0  0  0  0  0  0  0  0  0  # atno 7974 bound_to 7965
  155.5905  140.3492  155.4565 H   0  0  0  0  0  0  0  0  0  0  0  0  # atno 8008 bound_to 7997
  156.0304  140.1273  157.0288 H   0  0  0  0  0  0  0  0  0  0  0  0  # atno 8009 bound_to 7997
  154.4350  140.1044  156.6078 H   0  0  0  0  0  0  0  0  0  0  0  0  # atno 8010 bound_to 7997
  139.8663  144.6517  150.9000 H   0  0  0  0  0  0  0  0  0  0  0  0  # atno 10167 bound_to 10162
  156.5953  130.8787  151.2900 H   0  0  0  0  0  0  0  0  0  0  0  0  # atno 10718 bound_to 10713
  154.2025  135.6408  153.5091 H   0  0  0  0  0  0  0  0  0  0  0  0  # atno 10763 bound_to 10752
  153.0008  135.5455  154.6300 H   0  0  0  0  0  0  0  0  0  0  0  0  # atno 10764 bound_to 10752
  154.5717  135.2917  155.0794 H   0  0  0  0  0  0  0  0  0  0  0  0  # atno 10765 bound_to 10752
  140.0352  134.9332  157.0738 H   0  0  0  0  0  0  0  0  0  0  0  0  # atno 11005 bound_to 11000
  145.9534  139.2750  143.1198 LP  0  0  0  0  0  0  0  0  0  0  0  0  # atno 17320 bound_to 7965
  145.9298  140.9056  143.0362 LP  0  0  0  0  0  0  0  0  0  0  0  0  # atno 17321 bound_to 7965
  140.7767  143.3701  151.1665 LP  0  0  0  0  0  0  0  0  0  0  0  0  # atno 17342 bound_to 10162
  139.7326  143.9049  152.3024 LP  0  0  0  0  0  0  0  0  0  0  0  0  # atno 17343 bound_to 10162
  157.7293  130.9670  150.1783 LP  0  0  0  0  0  0  0  0  0  0  0  0  # atno 17370 bound_to 10713
  156.2515  130.3701  149.8227 LP  0  0  0  0  0  0  0  0  0  0  0  0  # atno 17371 bound_to 10713
  140.4160  134.1931  155.7163 LP  0  0  0  0  0  0  0  0  0  0  0  0  # atno 17394 bound_to 11000
  141.1853  133.8326  157.1109 LP  0  0  0  0  0  0  0  0  0  0  0  0  # atno 17395 bound_to 11000

$$$$
