AV-unprocessed.smi:1793|AV-procd|sdf|7227|dock6
  -GOLD-   22720 8473D 1   1.00000     0.00000
 Structure written by MMmdl.
 46 48  0  0  0  0  0  0  0  0  1 V2000
  144.2232  135.0781  152.6176 C   0  0  0  0  0  0  0  0  0  0  0  0
  145.3633  134.6673  151.6725 C   0  0  1  0  0  0  0  0  0  0  0  0
  146.6512  134.7942  152.3511 N   0  0  0  0  0  0  0  0  0  0  0  0
  147.2054  133.8779  153.1557 C   0  0  0  0  0  0  0  0  0  0  0  0
  146.6860  132.7931  153.4189 O   0  0  0  0  0  0  0  0  0  0  0  0
  148.3965  134.2968  153.6121 N   0  0  0  0  0  0  0  0  0  0  0  0
  149.3179  133.5814  154.4260 C   0  0  0  0  0  0  0  0  0  0  0  0
  149.4640  132.1778  154.3105 C   0  0  0  0  0  0  0  0  0  0  0  0
  150.3331  131.5014  155.1833 C   0  0  0  0  0  0  0  0  0  0  0  0
  151.0156  132.2525  156.1546 C   0  0  0  0  0  0  0  0  0  0  0  0
  150.8769  133.5869  156.2862 N   0  0  0  0  0  0  0  0  0  0  0  0
  150.0535  134.2565  155.4420 C   0  0  0  0  0  0  0  0  0  0  0  0
  149.9621  135.6571  155.6154 N   0  0  0  0  0  0  0  0  0  0  0  0
  150.7019  136.5627  154.7422 C   0  0  0  0  0  0  0  0  0  0  0  0
  150.0602  137.9310  154.9549 C   0  0  0  0  0  0  0  0  0  0  0  0
  148.5928  137.5721  155.1655 C   0  0  0  0  0  0  0  0  0  0  0  0
  148.6525  136.2334  155.9076 C   0  0  0  0  0  0  0  0  0  0  0  0
  145.1857  133.2340  151.1334 C   0  0  1  0  0  0  0  0  0  0  0  0
  143.8620  132.9889  150.3862 C   0  0  0  0  0  0  0  0  0  0  0  0
  144.2926  132.5248  149.0064 C   0  0  0  0  0  0  0  0  0  0  0  0
  145.7005  132.0029  149.2535 C   0  0  0  0  0  0  0  0  0  0  0  0
  146.2157  132.9275  150.1960 O   0  0  0  0  0  0  0  0  0  0  0  0
  143.2559  134.9996  152.1211 H   0  0  0  0  0  0  0  0  0  0  0  0
  144.3389  136.1109  152.9482 H   0  0  0  0  0  0  0  0  0  0  0  0
  144.1938  134.4461  153.5056 H   0  0  0  0  0  0  0  0  0  0  0  0
  145.3415  135.3406  150.8138 H   0  0  0  0  0  0  0  0  0  0  0  0
  147.1569  135.6534  152.1928 H   0  0  0  0  0  0  0  0  0  0  0  0
  148.7371  135.1691  153.2351 H   0  0  0  0  0  0  0  0  0  0  0  0
  148.9059  131.6090  153.5822 H   0  0  0  0  0  0  0  0  0  0  0  0
  150.4630  130.4313  155.1175 H   0  0  0  0  0  0  0  0  0  0  0  0
  151.6872  131.7689  156.8485 H   0  0  0  0  0  0  0  0  0  0  0  0
  151.7645  136.5705  154.9860 H   0  0  0  0  0  0  0  0  0  0  0  0
  150.5908  136.2702  153.6973 H   0  0  0  0  0  0  0  0  0  0  0  0
  150.4628  138.3977  155.8548 H   0  0  0  0  0  0  0  0  0  0  0  0
  150.2198  138.6106  154.1174 H   0  0  0  0  0  0  0  0  0  0  0  0
  148.0401  138.3359  155.7130 H   0  0  0  0  0  0  0  0  0  0  0  0
  148.1077  137.4338  154.1984 H   0  0  0  0  0  0  0  0  0  0  0  0
  147.8351  135.5752  155.6096 H   0  0  0  0  0  0  0  0  0  0  0  0
  148.5762  136.4026  156.9818 H   0  0  0  0  0  0  0  0  0  0  0  0
  145.2575  132.5214  151.9567 H   0  0  0  0  0  0  0  0  0  0  0  0
  143.2921  132.2071  150.8896 H   0  0  0  0  0  0  0  0  0  0  0  0
  143.2248  133.8723  150.3310 H   0  0  0  0  0  0  0  0  0  0  0  0
  143.6276  131.7735  148.5796 H   0  0  0  0  0  0  0  0  0  0  0  0
  144.3293  133.3753  148.3244 H   0  0  0  0  0  0  0  0  0  0  0  0
  145.6773  131.0042  149.6924 H   0  0  0  0  0  0  0  0  0  0  0  0
  146.3049  131.9713  148.3469 H   0  0  0  0  0  0  0  0  0  0  0  0
  1  2  1  0  0  0  0
  1 23  1  0  0  0  0
  1 24  1  0  0  0  0
  1 25  1  0  0  0  0
  2  3  1  0  0  0  0
  2 18  1  0  0  0  0
  2 26  1  0  0  0  0
  3  4  1  0  0  0  0
  3 27  1  0  0  0  0
  4  5  2  0  0  0  0
  4  6  1  0  0  0  0
  6  7  1  0  0  0  0
  6 28  1  0  0  0  0
  7 12  1  0  0  0  0
  7  8  2  0  0  0  0
  8  9  1  0  0  0  0
  8 29  1  0  0  0  0
  9 10  2  0  0  0  0
  9 30  1  0  0  0  0
 10 11  1  0  0  0  0
 10 31  1  0  0  0  0
 11 12  2  0  0  0  0
 12 13  1  0  0  0  0
 13 17  1  0  0  0  0
 13 14  1  0  0  0  0
 14 15  1  0  0  0  0
 14 32  1  0  0  0  0
 14 33  1  0  0  0  0
 15 16  1  0  0  0  0
 15 34  1  0  0  0  0
 15 35  1  0  0  0  0
 16 17  1  0  0  0  0
 16 36  1  0  0  0  0
 16 37  1  0  0  0  0
 17 38  1  0  0  0  0
 17 39  1  0  0  0  0
 18 22  1  0  0  0  0
 18 19  1  0  0  0  0
 18 40  1  0  0  0  0
 19 20  1  0  0  0  0
 19 41  1  0  0  0  0
 19 42  1  0  0  0  0
 20 21  1  0  0  0  0
 20 43  1  0  0  0  0
 20 44  1  0  0  0  0
 21 22  1  0  0  0  0
 21 45  1  0  0  0  0
 21 46  1  0  0  0  0
M  END
> <s_m_source_file>
AV-unprocessed.smi

> <i_m_source_file_index>
1793

> <i_lp_mmshare_version>
43012

> <i_f3d_flags>
0

> <s_epik_input>
TzFbQ0gyXVtDSDJdW0NIMl1bQ0BIXTFbQ0BIXShbQ0gzXSlbTkhdQyg9TylbTkhdYzJbY0hdW2NIXVtjSF1uYzJOM1tDSDJdW0NIMl1bQ0gyXVtDSDJdMw==

> <s_epik_cmdline>
J2VwaWtfcHl0aG9uJywgJy1waCcsICc3LjAnLCAnLXRuJywgJzgnLCAnLW1hJywgJzIwMCcsICctbWV0YWxfYmluZGluZycsICctaW1hZScsICc8aW5maWxlLm1hZT4nLCAnLW9tYWUnLCAnPG91dGZpbGUubWFlPic=

> <r_lp_tautomer_probability>
1

> <r_epik_Ionization_Penalty>
0.0992086

> <r_epik_Ionization_Penalty_Charging>
0

> <r_epik_Ionization_Penalty_Neutral>
0.0992086

> <r_epik_State_Penalty>
0.0887141

> <r_epik_Charging_Adjusted_Penalty>
0.0887141

> <i_epik_Tot_Q>
0

> <i_epik_Tot_abs_Q>
0

> <r_epik_Metal_State_Penalty>
0.075945

> <b_epik_Metal_Only>
0

> <s_lp_Force_Field>
OPLS_2005

> <r_lp_Energy>
46.9131

> <b_lp_Chiralities_Consistent>
1

> <s_lp_Variant>
AV-unprocessed.smi:1793-4

> <Gold.Version>
5.8.1

> <Gold.Id.Protein>
6NUR|6NUR_protein|mol2

> <Gold.PLP.Fitness>
39.2662

> <Gold.PLP.PLP>
-35.3023

> <Gold.PLP.part.hbond>
-2.0000

> <Gold.PLP.part.metal>
0.0000

> <Gold.PLP.part.buried>
-4.3551

> <Gold.PLP.part.nonpolar>
-28.7354

> <Gold.PLP.part.repulsive>
0.4039

> <Gold.PLP.ligand.clash>
0.0000

> <Gold.PLP.ligand.torsion>
0.8363

> <Gold.PLP.Chemscore.Hbond>
1.7600

> <Gold.PLP.Chemscore.CHOScore>
0.0000

> <Gold.PLP.Chemscore.Metal>
0.0000

> <Gold.Chemscore.Hbonds>
donor molecule, donor type, donor heavy atom, donor atom, acceptor molecule, acceptor atom, score
      L1  H     3    27       P1  7948  0.77
      L1  H     6    28       P1  7948  0.98

> <Gold.PLP.Chemscore.Internal.Correction>
0.3565

> <Gold.Rescore>
     Score         DG    S(hbond)    S(metal)    S(lipo)     H(rot)  DE(clash)    DE(int)     intcor
     13.72     -17.02       1.46        0.00      86.78       1.36       0.02       3.27       ----

> <Gold.Chemscore.Fitness>
13.7229

> <Gold.Chemscore.DG>
-17.0211

> <Gold.Chemscore.ZeroCoef>
-5.4800

> <Gold.Chemscore.Hbond>
1.4566

> <Gold.Chemscore.Metal>
0.0000

> <Gold.Chemscore.Lipo>
86.7793

> <Gold.Chemscore.Internal_Hbond>
0.0000

> <Gold.Chemscore.DEClash>
0.0247

> <Gold.Chemscore.DEInternal>
3.2734

> <Gold.Chemscore.Rot>
1.3582

> <Gold.Chemscore.Internal.Correction>
   9.000000E+99

> <Gold.Chemscore.Hbonds>
donor molecule, donor type, donor heavy atom, donor atom, acceptor molecule, acceptor atom, score
      L1  H     3    27       P1  7948  0.76
      L1  H     6    28       P1  7948  0.61

> <Gold.Chemscore.Hbond.Weighted>
-4.8649

> <Gold.Chemscore.Metal.Weighted>
-0.0000

> <Gold.Chemscore.Lipo.Weighted>
-10.1532

> <Gold.Chemscore.Internal_Hbond.Weighted>
0.0000

> <Gold.Chemscore.DEClash.Weighted>
0.0247

> <Gold.Chemscore.DEInternal.Weighted>
3.2734

> <Gold.Chemscore.Rot.Weighted>
3.4771

> <Gold.Chemscore.Internal.Correction.Weighted>
   9.000000E+99

> <Gold.Protein.RotatedTorsions>
[ 6907 6896 6895 6894 ] final  -78.74 input  -60.11 | X-H torsion
[ 7974 7965 7964 7962 ] final   -1.36 input  175.53 | X-H torsion
[ 8008 7997 7996 7995 ] final  -93.99 input   59.86 | X-H torsion
[ 10167 10162 10161 10158 ] final  -33.70 input  -65.29 | X-H torsion
[ 10718 10713 10712 10709 ] final  157.54 input   66.30 | X-H torsion
[ 10763 10752 10751 10750 ] final  164.39 input  -60.55 | X-H torsion
[ 11005 11000 10999 10996 ] final   49.16 input  -57.11 | X-H torsion

> <Gold.Protein.ActiveResidues>
 VAL166  LYS551  ARG553  GLY616  TRP617  ASP618  TYR619  PRO620  LYS621  CYS622 
 ASP623  PHE694  ASN695  SER759  ASP760  ASP761  ALA762  ILE779  LEU786  VAL792 
 PHE793  MET794  SER795  GLU796  ALA797  LYS798  CYS799  TRP800  GLU811  SER814 

> <Gold.Protein.RotatedAtoms>
  150.6965  134.4226  159.5211 H   0  0  0  0  0  0  0  0  0  0  0  0  # atno 6907 bound_to 6896
  152.1966  134.8622  160.0521 H   0  0  0  0  0  0  0  0  0  0  0  0  # atno 6908 bound_to 6896
  151.9558  133.3645  159.4054 H   0  0  0  0  0  0  0  0  0  0  0  0  # atno 6909 bound_to 6896
  146.2418  140.1409  142.8335 H   0  0  0  0  0  0  0  0  0  0  0  0  # atno 7974 bound_to 7965
  154.7427  140.0493  157.0825 H   0  0  0  0  0  0  0  0  0  0  0  0  # atno 8008 bound_to 7997
  155.0158  140.3141  155.4793 H   0  0  0  0  0  0  0  0  0  0  0  0  # atno 8009 bound_to 7997
  156.2868  140.2176  156.5274 H   0  0  0  0  0  0  0  0  0  0  0  0  # atno 8010 bound_to 7997
  140.7199  143.3601  151.1980 H   0  0  0  0  0  0  0  0  0  0  0  0  # atno 10167 bound_to 10162
  157.1901  131.0652  151.2084 H   0  0  0  0  0  0  0  0  0  0  0  0  # atno 10718 bound_to 10713
  154.3082  135.2758  155.2578 H   0  0  0  0  0  0  0  0  0  0  0  0  # atno 10763 bound_to 10752
  154.4985  135.5814  153.6516 H   0  0  0  0  0  0  0  0  0  0  0  0  # atno 10764 bound_to 10752
  152.9891  135.6152  154.3258 H   0  0  0  0  0  0  0  0  0  0  0  0  # atno 10765 bound_to 10752
  140.1128  134.4933  155.8663 H   0  0  0  0  0  0  0  0  0  0  0  0  # atno 11005 bound_to 11000
  145.0247  140.8822  143.5145 LP  0  0  0  0  0  0  0  0  0  0  0  0  # atno 17320 bound_to 7965
  145.1463  139.2541  143.5464 LP  0  0  0  0  0  0  0  0  0  0  0  0  # atno 17321 bound_to 7965
  139.7151  143.9313  152.2963 LP  0  0  0  0  0  0  0  0  0  0  0  0  # atno 17342 bound_to 10162
  139.9052  144.6889  150.8622 LP  0  0  0  0  0  0  0  0  0  0  0  0  # atno 17343 bound_to 10162
  157.3869  130.7261  149.6670 LP  0  0  0  0  0  0  0  0  0  0  0  0  # atno 17370 bound_to 10713
  155.9713  130.4157  150.4194 LP  0  0  0  0  0  0  0  0  0  0  0  0  # atno 17371 bound_to 10713
  141.2134  133.6733  156.6737 LP  0  0  0  0  0  0  0  0  0  0  0  0  # atno 17394 bound_to 11000
  140.3069  134.8118  157.4144 LP  0  0  0  0  0  0  0  0  0  0  0  0  # atno 17395 bound_to 11000

$$$$
