AV-unprocessed.smi:830|AV-procd|sdf|3871|dock2
  -GOLD-   22720 1323D 1   1.00000     0.00000
 Structure written by MMmdl.
 52 54  0  0  0  0  0  0  0  0  1 V2000
  145.3490  143.1386  154.1799 C   0  0  0  0  0  0  0  0  0  0  0  0
  145.6713  142.4471  155.5153 C   0  0  1  0  0  0  0  0  0  0  0  0
  147.1249  142.3769  155.6524 N   0  0  0  0  0  0  0  0  0  0  0  0
  147.8555  141.2574  155.5420 C   0  0  0  0  0  0  0  0  0  0  0  0
  147.3739  140.1603  155.2597 O   0  0  0  0  0  0  0  0  0  0  0  0
  149.1567  141.5051  155.7679 N   0  0  0  0  0  0  0  0  0  0  0  0
  150.2627  140.6063  155.7310 C   0  0  0  0  0  0  0  0  0  0  0  0
  150.3170  139.5074  154.8376 C   0  0  0  0  0  0  0  0  0  0  0  0
  151.4485  138.6738  154.8356 C   0  0  0  0  0  0  0  0  0  0  0  0
  152.4902  138.9647  155.7313 C   0  0  0  0  0  0  0  0  0  0  0  0
  152.4464  139.9921  156.6022 N   0  0  0  0  0  0  0  0  0  0  0  0
  151.3545  140.7955  156.6266 C   0  0  0  0  0  0  0  0  0  0  0  0
  151.3465  141.8358  157.5834 N   0  0  0  0  0  0  0  0  0  0  0  0
  152.0390  141.5923  158.8456 C   0  0  0  0  0  0  0  0  0  0  0  0
  152.7068  142.9149  159.2367 C   0  0  0  0  0  0  0  0  0  0  0  0
  151.9122  143.9615  158.4624 C   0  0  0  0  0  0  0  0  0  0  0  0
  151.5682  143.2190  157.1743 C   0  0  0  0  0  0  0  0  0  0  0  0
  145.0765  143.2939  156.6512 C   0  0  0  0  0  0  0  0  0  0  0  0
  144.3098  144.2257  156.4018 O   0  0  0  0  0  0  0  0  0  0  0  0
  145.4315  142.9466  157.8973 N   0  0  0  0  0  0  0  0  0  0  0  0
  144.9882  143.6190  159.1153 C   0  0  0  0  0  0  0  0  0  0  0  0
  146.1915  144.1579  159.9128 C   0  0  0  0  0  0  0  0  0  0  0  0
  145.9738  143.7126  161.3599 C   0  0  0  0  0  0  0  0  0  0  0  0
  145.1897  142.4096  161.2388 C   0  0  0  0  0  0  0  0  0  0  0  0
  144.2480  142.6493  160.0584 C   0  0  0  0  0  0  0  0  0  0  0  0
  144.2722  143.2296  154.0314 H   0  0  0  0  0  0  0  0  0  0  0  0
  145.7437  142.5650  153.3407 H   0  0  0  0  0  0  0  0  0  0  0  0
  145.7785  144.1404  154.1241 H   0  0  0  0  0  0  0  0  0  0  0  0
  145.2421  141.4430  155.5201 H   0  0  0  0  0  0  0  0  0  0  0  0
  147.6007  143.2362  155.8848 H   0  0  0  0  0  0  0  0  0  0  0  0
  149.4008  142.4743  155.9098 H   0  0  0  0  0  0  0  0  0  0  0  0
  149.5109  139.2796  154.1582 H   0  0  0  0  0  0  0  0  0  0  0  0
  151.5161  137.8332  154.1613 H   0  0  0  0  0  0  0  0  0  0  0  0
  153.3789  138.3515  155.7563 H   0  0  0  0  0  0  0  0  0  0  0  0
  151.3039  141.3104  159.5998 H   0  0  0  0  0  0  0  0  0  0  0  0
  152.7694  140.7856  158.7666 H   0  0  0  0  0  0  0  0  0  0  0  0
  152.7068  143.0881  160.3130 H   0  0  0  0  0  0  0  0  0  0  0  0
  153.7432  142.9172  158.8959 H   0  0  0  0  0  0  0  0  0  0  0  0
  150.9999  144.2141  159.0047 H   0  0  0  0  0  0  0  0  0  0  0  0
  152.4711  144.8814  158.2879 H   0  0  0  0  0  0  0  0  0  0  0  0
  152.4069  143.2930  156.4811 H   0  0  0  0  0  0  0  0  0  0  0  0
  150.6848  143.6353  156.6894 H   0  0  0  0  0  0  0  0  0  0  0  0
  146.0648  142.1684  158.0099 H   0  0  0  0  0  0  0  0  0  0  0  0
  144.3276  144.4489  158.8562 H   0  0  0  0  0  0  0  0  0  0  0  0
  147.1233  143.7246  159.5452 H   0  0  0  0  0  0  0  0  0  0  0  0
  146.2874  145.2413  159.8304 H   0  0  0  0  0  0  0  0  0  0  0  0
  146.9089  143.5928  161.9080 H   0  0  0  0  0  0  0  0  0  0  0  0
  145.3716  144.4547  161.8859 H   0  0  0  0  0  0  0  0  0  0  0  0
  145.8714  141.5907  161.0053 H   0  0  0  0  0  0  0  0  0  0  0  0
  144.6578  142.1512  162.1550 H   0  0  0  0  0  0  0  0  0  0  0  0
  143.3359  143.1274  160.4180 H   0  0  0  0  0  0  0  0  0  0  0  0
  143.9495  141.7162  159.5781 H   0  0  0  0  0  0  0  0  0  0  0  0
  1  2  1  0  0  0  0
  1 26  1  0  0  0  0
  1 27  1  0  0  0  0
  1 28  1  0  0  0  0
  2  3  1  0  0  0  0
  2 18  1  0  0  0  0
  2 29  1  0  0  0  0
  3  4  1  0  0  0  0
  3 30  1  0  0  0  0
  4  5  2  0  0  0  0
  4  6  1  0  0  0  0
  6  7  1  0  0  0  0
  6 31  1  0  0  0  0
  7 12  1  0  0  0  0
  7  8  2  0  0  0  0
  8  9  1  0  0  0  0
  8 32  1  0  0  0  0
  9 10  2  0  0  0  0
  9 33  1  0  0  0  0
 10 11  1  0  0  0  0
 10 34  1  0  0  0  0
 11 12  2  0  0  0  0
 12 13  1  0  0  0  0
 13 17  1  0  0  0  0
 13 14  1  0  0  0  0
 14 15  1  0  0  0  0
 14 35  1  0  0  0  0
 14 36  1  0  0  0  0
 15 16  1  0  0  0  0
 15 37  1  0  0  0  0
 15 38  1  0  0  0  0
 16 17  1  0  0  0  0
 16 39  1  0  0  0  0
 16 40  1  0  0  0  0
 17 41  1  0  0  0  0
 17 42  1  0  0  0  0
 18 19  2  0  0  0  0
 18 20  1  0  0  0  0
 20 21  1  0  0  0  0
 20 43  1  0  0  0  0
 21 25  1  0  0  0  0
 21 22  1  0  0  0  0
 21 44  1  0  0  0  0
 22 23  1  0  0  0  0
 22 45  1  0  0  0  0
 22 46  1  0  0  0  0
 23 24  1  0  0  0  0
 23 47  1  0  0  0  0
 23 48  1  0  0  0  0
 24 25  1  0  0  0  0
 24 49  1  0  0  0  0
 24 50  1  0  0  0  0
 25 51  1  0  0  0  0
 25 52  1  0  0  0  0
M  END
> <s_m_source_file>
AV-unprocessed.smi

> <i_m_source_file_index>
830

> <i_lp_mmshare_version>
43012

> <i_f3d_flags>
0

> <s_epik_input>
W0NIMl0xW0NIMl1bQ0gyXVtDSDJdW0NIXTFbTkhdQyg9TylbQ0BIXShbQ0gzXSlbTkhdQyg9TylbTkhdYzJbY0hdW2NIXVtjSF1uYzJOM1tDSDJdW0NIMl1bQ0gyXVtDSDJdMw==

> <s_epik_cmdline>
J2VwaWtfcHl0aG9uJywgJy1waCcsICc3LjAnLCAnLXRuJywgJzgnLCAnLW1hJywgJzIwMCcsICctbWV0YWxfYmluZGluZycsICctaW1hZScsICc8aW5maWxlLm1hZT4nLCAnLW9tYWUnLCAnPG91dGZpbGUubWFlPic=

> <r_lp_tautomer_probability>
1

> <r_epik_Ionization_Penalty>
0.0827694

> <r_epik_Ionization_Penalty_Charging>
0

> <r_epik_Ionization_Penalty_Neutral>
0.0827694

> <r_epik_State_Penalty>
0.0729202

> <r_epik_Charging_Adjusted_Penalty>
0.0729202

> <i_epik_Tot_Q>
0

> <i_epik_Tot_abs_Q>
0

> <r_epik_Metal_State_Penalty>
0.0639723

> <b_epik_Metal_Only>
0

> <s_lp_Force_Field>
OPLS_2005

> <r_lp_Energy>
46.8553

> <b_lp_Chiralities_Consistent>
1

> <s_lp_Variant>
AV-unprocessed.smi:830-2

> <Gold.Version>
5.8.1

> <Gold.Id.Protein>
6NUR|6NUR_protein|mol2

> <Gold.PLP.Fitness>
48.7809

> <Gold.PLP.PLP>
-43.7214

> <Gold.PLP.part.hbond>
-3.0000

> <Gold.PLP.part.metal>
0.0000

> <Gold.PLP.part.buried>
-4.1146

> <Gold.PLP.part.nonpolar>
-36.2241

> <Gold.PLP.part.repulsive>
0.3973

> <Gold.PLP.ligand.clash>
0.0000

> <Gold.PLP.ligand.torsion>
1.0818

> <Gold.PLP.Chemscore.Hbond>
2.2747

> <Gold.PLP.Chemscore.CHOScore>
0.0000

> <Gold.PLP.Chemscore.Metal>
0.0000

> <Gold.Chemscore.Hbonds>
donor molecule, donor type, donor heavy atom, donor atom, acceptor molecule, acceptor atom, score
      L1  H     3    30       P1  8028  0.80
      L1  H     6    31       P1  8028  0.27
      P1  H  7997  8010       L1    11  0.50

> <Gold.PLP.Chemscore.Internal.Correction>
0.3989

> <Gold.Rescore>
     Score         DG    S(hbond)    S(metal)    S(lipo)     H(rot)  DE(clash)    DE(int)     intcor
     15.20     -16.96       1.01        0.00     105.30       1.64       0.52       1.24       ----

> <Gold.Chemscore.Fitness>
15.2015

> <Gold.Chemscore.DG>
-16.9634

> <Gold.Chemscore.ZeroCoef>
-5.4800

> <Gold.Chemscore.Hbond>
1.0051

> <Gold.Chemscore.Metal>
0.0000

> <Gold.Chemscore.Lipo>
105.3010

> <Gold.Chemscore.Internal_Hbond>
0.0000

> <Gold.Chemscore.DEClash>
0.5194

> <Gold.Chemscore.DEInternal>
1.2425

> <Gold.Chemscore.Rot>
1.6382

> <Gold.Chemscore.Internal.Correction>
   9.000000E+99

> <Gold.Chemscore.Hbonds>
donor molecule, donor type, donor heavy atom, donor atom, acceptor molecule, acceptor atom, score
      L1  H     3    30       P1  8028  0.12
      L1  H     6    31       P1  8028  0.27
      P1  H  7997  8010       L1    11  0.02

> <Gold.Chemscore.Hbond.Weighted>
-3.3569

> <Gold.Chemscore.Metal.Weighted>
-0.0000

> <Gold.Chemscore.Lipo.Weighted>
-12.3202

> <Gold.Chemscore.Internal_Hbond.Weighted>
0.0000

> <Gold.Chemscore.DEClash.Weighted>
0.5194

> <Gold.Chemscore.DEInternal.Weighted>
1.2425

> <Gold.Chemscore.Rot.Weighted>
4.1937

> <Gold.Chemscore.Internal.Correction.Weighted>
   9.000000E+99

> <Gold.Protein.RotatedTorsions>
[ 6907 6896 6895 6894 ] final  179.70 input  -60.11 | X-H torsion
[ 7974 7965 7964 7962 ] final   40.17 input  175.53 | X-H torsion
[ 8008 7997 7996 7995 ] final   63.33 input   59.86 | X-H torsion
[ 10167 10162 10161 10158 ] final -112.72 input  -65.29 | X-H torsion
[ 10718 10713 10712 10709 ] final    5.48 input   66.30 | X-H torsion
[ 10763 10752 10751 10750 ] final  156.58 input  -60.55 | X-H torsion
[ 11005 11000 10999 10996 ] final  157.42 input  -57.11 | X-H torsion

> <Gold.Protein.ActiveResidues>
 VAL166  LYS551  ARG553  GLY616  TRP617  ASP618  TYR619  PRO620  LYS621  CYS622 
 ASP623  PHE694  ASN695  SER759  ASP760  ASP761  ALA762  ILE779  LEU786  VAL792 
 PHE793  MET794  SER795  GLU796  ALA797  LYS798  CYS799  TRP800  GLU811  SER814 

> <Gold.Protein.RotatedAtoms>
  151.6674  133.3315  159.3188 H   0  0  0  0  0  0  0  0  0  0  0  0  # atno 6907 bound_to 6896
  150.7884  134.6891  159.6496 H   0  0  0  0  0  0  0  0  0  0  0  0  # atno 6908 bound_to 6896
  152.3959  134.6370  160.0141 H   0  0  0  0  0  0  0  0  0  0  0  0  # atno 6909 bound_to 6896
  146.0926  139.5565  142.9466 H   0  0  0  0  0  0  0  0  0  0  0  0  # atno 7974 bound_to 7965
  155.6285  140.3496  155.4675 H   0  0  0  0  0  0  0  0  0  0  0  0  # atno 8008 bound_to 7997
  156.0022  140.1215  157.0560 H   0  0  0  0  0  0  0  0  0  0  0  0  # atno 8009 bound_to 7997
  154.4252  140.1098  156.5699 H   0  0  0  0  0  0  0  0  0  0  0  0  # atno 8010 bound_to 7997
  140.1197  143.4454  152.1699 H   0  0  0  0  0  0  0  0  0  0  0  0  # atno 10167 bound_to 10162
  156.9080  130.5746  149.5647 H   0  0  0  0  0  0  0  0  0  0  0  0  # atno 10718 bound_to 10713
  154.1866  135.2797  155.3035 H   0  0  0  0  0  0  0  0  0  0  0  0  # atno 10763 bound_to 10752
  154.5961  135.5544  153.7330 H   0  0  0  0  0  0  0  0  0  0  0  0  # atno 10764 bound_to 10752
  153.0123  135.6380  154.2005 H   0  0  0  0  0  0  0  0  0  0  0  0  # atno 10765 bound_to 10752
  140.1768  134.8504  157.2755 H   0  0  0  0  0  0  0  0  0  0  0  0  # atno 11005 bound_to 11000
  145.6009  141.0355  143.2018 LP  0  0  0  0  0  0  0  0  0  0  0  0  # atno 17320 bound_to 7965
  144.7371  139.7553  143.7325 LP  0  0  0  0  0  0  0  0  0  0  0  0  # atno 17321 bound_to 7965
  139.5575  144.7383  151.4251 LP  0  0  0  0  0  0  0  0  0  0  0  0  # atno 17342 bound_to 10162
  140.6879  143.7931  150.7212 LP  0  0  0  0  0  0  0  0  0  0  0  0  # atno 17343 bound_to 10162
  156.0549  130.5612  150.9071 LP  0  0  0  0  0  0  0  0  0  0  0  0  # atno 17370 bound_to 10713
  157.5985  131.0942  150.9000 LP  0  0  0  0  0  0  0  0  0  0  0  0  # atno 17371 bound_to 10713
  140.2314  134.3905  155.7520 LP  0  0  0  0  0  0  0  0  0  0  0  0  # atno 17394 bound_to 11000
  141.2221  133.7217  156.8646 LP  0  0  0  0  0  0  0  0  0  0  0  0  # atno 17395 bound_to 11000

$$$$
