AV-unprocessed.smi:2435|AV-procd|sdf|9592|dock8
  -GOLD-   2272013223D 1   1.00000     0.00000
 Structure written by MMmdl.
 44 45  0  0  0  0  0  0  0  0  1 V2000
  151.1985  137.7600  154.1857 C   0  0  0  0  0  0  0  0  0  0  0  0
  150.7984  137.3218  155.4728 O   0  0  0  0  0  0  0  0  0  0  0  0
  150.9658  135.9961  155.6659 C   0  0  0  0  0  0  0  0  0  0  0  0
  150.3598  134.9052  155.1066 C   0  0  0  0  0  0  0  0  0  0  0  0
  149.3388  134.8311  154.1249 N   0  0  0  0  0  0  0  0  0  0  0  0
  148.2761  134.0110  154.1156 C   0  0  0  0  0  0  0  0  0  0  0  0
  148.0209  133.1748  154.9817 O   0  0  0  0  0  0  0  0  0  0  0  0
  147.5029  134.2296  153.0420 N   0  0  0  0  0  0  0  0  0  0  0  0
  146.2671  133.5166  152.7258 C   0  0  0  0  0  0  0  0  0  0  0  0
  146.6424  132.1338  152.1604 C   0  0  0  0  0  0  0  0  0  0  0  0
  145.4541  131.2483  151.7462 C   0  0  0  0  0  0  0  0  0  0  0  0
  144.8002  131.7069  150.4329 C   0  0  0  0  0  0  0  0  0  0  0  0
  143.7150  132.7877  150.5785 C   0  0  0  0  0  0  0  0  0  0  0  0
  143.9524  133.8612  151.6551 C   0  0  0  0  0  0  0  0  0  0  0  0
  145.3973  134.3729  151.7778 C   0  0  0  0  0  0  0  0  0  0  0  0
  150.9305  133.7855  155.7727 C   0  0  0  0  0  0  0  0  0  0  0  0
  150.6276  132.3244  155.6028 C   0  0  0  0  0  0  0  0  0  0  0  0
  151.8578  134.1667  156.6443 N   0  0  0  0  0  0  0  0  0  0  0  0
  151.8881  135.5201  156.5736 N   0  0  0  0  0  0  0  0  0  0  0  0
  152.7987  136.2645  157.4190 C   0  0  0  0  0  0  0  0  0  0  0  0
  151.0194  138.8308  154.0922 H   0  0  0  0  0  0  0  0  0  0  0  0
  150.6288  137.2534  153.4051 H   0  0  0  0  0  0  0  0  0  0  0  0
  152.2605  137.5814  154.0126 H   0  0  0  0  0  0  0  0  0  0  0  0
  149.3739  135.5339  153.4011 H   0  0  0  0  0  0  0  0  0  0  0  0
  147.7909  134.9438  152.3895 H   0  0  0  0  0  0  0  0  0  0  0  0
  145.7173  133.3556  153.6552 H   0  0  0  0  0  0  0  0  0  0  0  0
  147.3209  132.2488  151.3138 H   0  0  0  0  0  0  0  0  0  0  0  0
  147.2127  131.5988  152.9211 H   0  0  0  0  0  0  0  0  0  0  0  0
  145.8351  130.2377  151.5946 H   0  0  0  0  0  0  0  0  0  0  0  0
  144.7188  131.1711  152.5480 H   0  0  0  0  0  0  0  0  0  0  0  0
  145.5728  132.0558  149.7467 H   0  0  0  0  0  0  0  0  0  0  0  0
  144.3497  130.8443  149.9402 H   0  0  0  0  0  0  0  0  0  0  0  0
  143.5880  133.2733  149.6104 H   0  0  0  0  0  0  0  0  0  0  0  0
  142.7598  132.3058  150.7897 H   0  0  0  0  0  0  0  0  0  0  0  0
  143.2981  134.7047  151.4319 H   0  0  0  0  0  0  0  0  0  0  0  0
  143.6155  133.4903  152.6239 H   0  0  0  0  0  0  0  0  0  0  0  0
  145.3465  135.3858  152.1796 H   0  0  0  0  0  0  0  0  0  0  0  0
  145.8612  134.4678  150.7951 H   0  0  0  0  0  0  0  0  0  0  0  0
  150.1108  132.1323  154.6624 H   0  0  0  0  0  0  0  0  0  0  0  0
  149.9920  131.9620  156.4110 H   0  0  0  0  0  0  0  0  0  0  0  0
  151.5405  131.7284  155.6031 H   0  0  0  0  0  0  0  0  0  0  0  0
  153.1502  137.1522  156.8927 H   0  0  0  0  0  0  0  0  0  0  0  0
  153.6600  135.6497  157.6840 H   0  0  0  0  0  0  0  0  0  0  0  0
  152.2831  136.5707  158.3294 H   0  0  0  0  0  0  0  0  0  0  0  0
  1  2  1  0  0  0  0
  1 21  1  0  0  0  0
  1 22  1  0  0  0  0
  1 23  1  0  0  0  0
  2  3  1  0  0  0  0
  3 19  1  0  0  0  0
  3  4  2  0  0  0  0
  4  5  1  0  0  0  0
  4 16  1  0  0  0  0
  5  6  1  0  0  0  0
  5 24  1  0  0  0  0
  6  7  2  0  0  0  0
  6  8  1  0  0  0  0
  8  9  1  0  0  0  0
  8 25  1  0  0  0  0
  9 15  1  0  0  0  0
  9 10  1  0  0  0  0
  9 26  1  0  0  0  0
 10 11  1  0  0  0  0
 10 27  1  0  0  0  0
 10 28  1  0  0  0  0
 11 12  1  0  0  0  0
 11 29  1  0  0  0  0
 11 30  1  0  0  0  0
 12 13  1  0  0  0  0
 12 31  1  0  0  0  0
 12 32  1  0  0  0  0
 13 14  1  0  0  0  0
 13 33  1  0  0  0  0
 13 34  1  0  0  0  0
 14 15  1  0  0  0  0
 14 35  1  0  0  0  0
 14 36  1  0  0  0  0
 15 37  1  0  0  0  0
 15 38  1  0  0  0  0
 16 17  1  0  0  0  0
 16 18  2  0  0  0  0
 17 39  1  0  0  0  0
 17 40  1  0  0  0  0
 17 41  1  0  0  0  0
 18 19  1  0  0  0  0
 19 20  1  0  0  0  0
 20 42  1  0  0  0  0
 20 43  1  0  0  0  0
 20 44  1  0  0  0  0
M  END
> <s_m_source_file>
AV-unprocessed.smi

> <i_m_source_file_index>
2435

> <i_lp_mmshare_version>
43012

> <i_f3d_flags>
0

> <s_epik_input>
W0NIM11uMW5jKFtDSDNdKWMoYzFPW0NIM10pW05IXUMoPU8pW05IXVtDSF0yW0NIMl1bQ0gyXVtDSDJdW0NIMl1bQ0gyXVtDSDJdMg==

> <s_epik_cmdline>
J2VwaWtfcHl0aG9uJywgJy1waCcsICc3LjAnLCAnLXRuJywgJzgnLCAnLW1hJywgJzIwMCcsICctbWV0YWxfYmluZGluZycsICctaW1hZScsICc8aW5maWxlLm1hZT4nLCAnLW9tYWUnLCAnPG91dGZpbGUubWFlPic=

> <r_lp_tautomer_probability>
1

> <r_epik_Ionization_Penalty>
0.000417553

> <r_epik_Ionization_Penalty_Charging>
0

> <r_epik_Ionization_Penalty_Neutral>
0.000417553

> <r_epik_State_Penalty>
-0

> <r_epik_Charging_Adjusted_Penalty>
0

> <i_epik_Tot_Q>
0

> <i_epik_Tot_abs_Q>
0

> <r_epik_Metal_State_Penalty>
-0

> <b_epik_Metal_Only>
0

> <s_lp_Force_Field>
OPLS_2005

> <r_lp_Energy>
21.6667

> <b_lp_Chiralities_Consistent>
1

> <s_lp_Variant>
AV-unprocessed.smi:2435-1

> <Gold.Version>
5.8.1

> <Gold.Id.Protein>
6NUR|6NUR_protein|mol2

> <Gold.PLP.Fitness>
36.9073

> <Gold.PLP.PLP>
-32.1613

> <Gold.PLP.part.hbond>
-3.0000

> <Gold.PLP.part.metal>
0.0000

> <Gold.PLP.part.buried>
-4.8248

> <Gold.PLP.part.nonpolar>
-25.0558

> <Gold.PLP.part.repulsive>
0.1203

> <Gold.PLP.ligand.clash>
0.0000

> <Gold.PLP.ligand.torsion>
0.6361

> <Gold.PLP.Chemscore.Hbond>
2.0000

> <Gold.PLP.Chemscore.CHOScore>
0.0000

> <Gold.PLP.Chemscore.Metal>
0.0000

> <Gold.Chemscore.Hbonds>
donor molecule, donor type, donor heavy atom, donor atom, acceptor molecule, acceptor atom, score
      L1  H     5    24       P1  7948  0.95
      L1  H     8    25       P1  7948  1.00

> <Gold.PLP.Chemscore.Internal.Correction>
0.0181

> <Gold.Rescore>
     Score         DG    S(hbond)    S(metal)    S(lipo)     H(rot)  DE(clash)    DE(int)     intcor
     16.45     -17.36       1.82        0.00      76.08       1.21       0.04       0.87       ----

> <Gold.Chemscore.Fitness>
16.4493

> <Gold.Chemscore.DG>
-17.3553

> <Gold.Chemscore.ZeroCoef>
-5.4800

> <Gold.Chemscore.Hbond>
1.8194

> <Gold.Chemscore.Metal>
0.0000

> <Gold.Chemscore.Lipo>
76.0772

> <Gold.Chemscore.Internal_Hbond>
0.0000

> <Gold.Chemscore.DEClash>
0.0381

> <Gold.Chemscore.DEInternal>
0.8679

> <Gold.Chemscore.Rot>
1.2119

> <Gold.Chemscore.Internal.Correction>
   9.000000E+99

> <Gold.Chemscore.Hbonds>
donor molecule, donor type, donor heavy atom, donor atom, acceptor molecule, acceptor atom, score
      L1  H     5    24       P1  7948  0.21
      L1  H     8    25       P1  7948  0.86

> <Gold.Chemscore.Hbond.Weighted>
-6.0766

> <Gold.Chemscore.Metal.Weighted>
-0.0000

> <Gold.Chemscore.Lipo.Weighted>
-8.9010

> <Gold.Chemscore.Internal_Hbond.Weighted>
0.0000

> <Gold.Chemscore.DEClash.Weighted>
0.0381

> <Gold.Chemscore.DEInternal.Weighted>
0.8679

> <Gold.Chemscore.Rot.Weighted>
3.1024

> <Gold.Chemscore.Internal.Correction.Weighted>
   9.000000E+99

> <Gold.Protein.RotatedTorsions>
[ 6907 6896 6895 6894 ] final   10.90 input  -60.11 | X-H torsion
[ 7974 7965 7964 7962 ] final  -48.89 input  175.53 | X-H torsion
[ 8008 7997 7996 7995 ] final -127.45 input   59.86 | X-H torsion
[ 10167 10162 10161 10158 ] final   86.24 input  -65.29 | X-H torsion
[ 10718 10713 10712 10709 ] final -135.10 input   66.30 | X-H torsion
[ 10763 10752 10751 10750 ] final  -93.04 input  -60.55 | X-H torsion
[ 11005 11000 10999 10996 ] final  141.57 input  -57.11 | X-H torsion

> <Gold.Protein.ActiveResidues>
 VAL166  LYS551  ARG553  GLY616  TRP617  ASP618  TYR619  PRO620  LYS621  CYS622 
 ASP623  PHE694  ASN695  SER759  ASP760  ASP761  ALA762  ILE779  LEU786  VAL792 
 PHE793  MET794  SER795  GLU796  ALA797  LYS798  CYS799  TRP800  GLU811  SER814 

> <Gold.Protein.RotatedAtoms>
  151.7457  135.0844  160.0322 H   0  0  0  0  0  0  0  0  0  0  0  0  # atno 6907 bound_to 6896
  152.3450  133.6107  159.5912 H   0  0  0  0  0  0  0  0  0  0  0  0  # atno 6908 bound_to 6896
  150.7503  133.9579  159.3548 H   0  0  0  0  0  0  0  0  0  0  0  0  # atno 6909 bound_to 6896
  145.9464  140.7614  142.9526 H   0  0  0  0  0  0  0  0  0  0  0  0  # atno 7974 bound_to 7965
  155.2463  140.0430  157.2981 H   0  0  0  0  0  0  0  0  0  0  0  0  # atno 8008 bound_to 7997
  154.5797  140.2397  155.8042 H   0  0  0  0  0  0  0  0  0  0  0  0  # atno 8009 bound_to 7997
  156.2184  140.2977  155.9901 H   0  0  0  0  0  0  0  0  0  0  0  0  # atno 8010 bound_to 7997
  139.8895  144.6393  150.8754 H   0  0  0  0  0  0  0  0  0  0  0  0  # atno 10167 bound_to 10162
  156.2625  130.7218  151.1157 H   0  0  0  0  0  0  0  0  0  0  0  0  # atno 10718 bound_to 10713
  154.6920  135.5209  153.8406 H   0  0  0  0  0  0  0  0  0  0  0  0  # atno 10763 bound_to 10752
  153.0639  135.6578  154.0408 H   0  0  0  0  0  0  0  0  0  0  0  0  # atno 10764 bound_to 10752
  154.0280  135.2988  155.3352 H   0  0  0  0  0  0  0  0  0  0  0  0  # atno 10765 bound_to 10752
  140.0411  134.9304  157.0845 H   0  0  0  0  0  0  0  0  0  0  0  0  # atno 11005 bound_to 11000
  144.6788  140.2363  143.7349 LP  0  0  0  0  0  0  0  0  0  0  0  0  # atno 17320 bound_to 7965
  145.8231  139.2052  143.1926 LP  0  0  0  0  0  0  0  0  0  0  0  0  # atno 17321 bound_to 7965
  140.7729  143.3521  151.1993 LP  0  0  0  0  0  0  0  0  0  0  0  0  # atno 17342 bound_to 10162
  139.7122  143.9358  152.2952 LP  0  0  0  0  0  0  0  0  0  0  0  0  # atno 17343 bound_to 10162
  157.7255  131.0652  150.5948 LP  0  0  0  0  0  0  0  0  0  0  0  0  # atno 17370 bound_to 10713
  156.6037  130.4361  149.5887 LP  0  0  0  0  0  0  0  0  0  0  0  0  # atno 17371 bound_to 10713
  140.4067  134.2024  155.7163 LP  0  0  0  0  0  0  0  0  0  0  0  0  # atno 17394 bound_to 11000
  141.1883  133.8262  157.0998 LP  0  0  0  0  0  0  0  0  0  0  0  0  # atno 17395 bound_to 11000

$$$$
