AV-unprocessed.smi:467|AV-procd|sdf|2650|dock5
  -GOLD-   2262023 63D 1   1.00000     0.00000
 Structure written by MMmdl.
 46 48  0  0  0  0  0  0  0  0  3 V2000
  152.2087  143.8058  160.1138 C   0  0  0  0  0  0  0  0  0  0  0  0
  151.9040  142.8310  158.9891 C   0  0  0  0  0  0  0  0  0  0  0  0
  150.9461  143.1999  158.0180 C   0  0  0  0  0  0  0  0  0  0  0  0
  150.6914  142.2889  156.9998 C   0  0  0  0  0  0  0  0  0  0  0  0
  149.8207  142.3574  155.9104 N   0  3  0  0  0  0  0  0  0  0  0  0
  149.9200  141.2147  155.1770 C   0  0  0  0  0  0  0  0  0  0  0  0
  150.8418  140.4161  155.7814 N   0  0  0  0  0  0  0  0  0  0  0  0
  151.3199  139.0805  155.3938 C   0  0  0  0  0  0  0  0  0  0  0  0
  150.1901  138.1704  154.8730 C   0  0  1  0  0  0  0  0  0  0  0  0
  149.9157  138.4798  153.5197 O   0  0  0  0  0  0  0  0  0  0  0  0
  150.5627  136.6778  154.9743 C   0  0  0  0  0  0  0  0  0  0  0  0
  149.4672  135.7840  154.5177 N   0  3  0  0  0  0  0  0  0  0  0  0
  149.7964  134.3487  154.6882 C   0  0  0  0  0  0  0  0  0  0  0  0
  148.6564  133.4655  154.1523 C   0  0  0  0  0  0  0  0  0  0  0  0
  147.4419  133.8001  154.8120 O   0  0  0  0  0  0  0  0  0  0  0  0
  147.0670  135.1523  154.5816 C   0  0  0  0  0  0  0  0  0  0  0  0
  148.1529  136.0900  155.1361 C   0  0  0  0  0  0  0  0  0  0  0  0
  151.3493  141.0454  156.9255 C   0  0  0  0  0  0  0  0  0  0  0  0
  152.2943  140.6658  157.8765 C   0  0  0  0  0  0  0  0  0  0  0  0
  152.5685  141.5792  158.9197 C   0  0  0  0  0  0  0  0  0  0  0  0
  153.5963  141.1923  159.9696 C   0  0  0  0  0  0  0  0  0  0  0  0
  151.6548  144.7376  159.9952 H   0  0  0  0  0  0  0  0  0  0  0  0
  153.2708  144.0512  160.1333 H   0  0  0  0  0  0  0  0  0  0  0  0
  151.9340  143.3754  161.0771 H   0  0  0  0  0  0  0  0  0  0  0  0
  150.4355  144.1508  158.0649 H   0  0  0  0  0  0  0  0  0  0  0  0
  149.3675  140.9848  154.2773 H   0  0  0  0  0  0  0  0  0  0  0  0
  152.1232  139.1786  154.6632 H   0  0  0  0  0  0  0  0  0  0  0  0
  151.7710  138.6360  156.2822 H   0  0  0  0  0  0  0  0  0  0  0  0
  149.2913  138.3763  155.4535 H   0  0  0  0  0  0  0  0  0  0  0  0
  149.4628  137.7488  153.1272 H   0  0  0  0  0  0  0  0  0  0  0  0
  151.4576  136.5022  154.3744 H   0  0  0  0  0  0  0  0  0  0  0  0
  150.8316  136.4177  155.9994 H   0  0  0  0  0  0  0  0  0  0  0  0
  150.7194  134.1144  154.1564 H   0  0  0  0  0  0  0  0  0  0  0  0
  149.9705  134.1356  155.7443 H   0  0  0  0  0  0  0  0  0  0  0  0
  148.5437  133.5855  153.0734 H   0  0  0  0  0  0  0  0  0  0  0  0
  148.8783  132.4136  154.3339 H   0  0  0  0  0  0  0  0  0  0  0  0
  146.9107  135.3238  153.5153 H   0  0  0  0  0  0  0  0  0  0  0  0
  146.1155  135.3440  155.0779 H   0  0  0  0  0  0  0  0  0  0  0  0
  148.2216  135.9768  156.2192 H   0  0  0  0  0  0  0  0  0  0  0  0
  147.8681  137.1233  154.9415 H   0  0  0  0  0  0  0  0  0  0  0  0
  152.8047  139.7159  157.8263 H   0  0  0  0  0  0  0  0  0  0  0  0
  153.9666  140.1788  159.8116 H   0  0  0  0  0  0  0  0  0  0  0  0
  153.1607  141.2341  160.9683 H   0  0  0  0  0  0  0  0  0  0  0  0
  154.4505  141.8692  159.9350 H   0  0  0  0  0  0  0  0  0  0  0  0
  149.3706  135.9352  153.5232 H   0  0  0  0  0  0  0  0  0  0  0  0
  149.2036  143.1265  155.6821 H   0  0  0  0  0  0  0  0  0  0  0  0
  1  2  1  0  0  0  0
  1 22  1  0  0  0  0
  1 23  1  0  0  0  0
  1 24  1  0  0  0  0
  2 20  1  0  0  0  0
  2  3  2  0  0  0  0
  3  4  1  0  0  0  0
  3 25  1  0  0  0  0
  4 18  2  0  0  0  0
  4  5  1  0  0  0  0
  5  6  2  0  0  0  0
  5 46  1  0  0  0  0
  6  7  1  0  0  0  0
  6 26  1  0  0  0  0
  7  8  1  0  0  0  0
  7 18  1  0  0  0  0
  8  9  1  0  0  0  0
  8 27  1  0  0  0  0
  8 28  1  0  0  0  0
  9 10  1  0  0  0  0
  9 11  1  0  0  0  0
  9 29  1  0  0  0  0
 10 30  1  0  0  0  0
 11 12  1  0  0  0  0
 11 31  1  0  0  0  0
 11 32  1  0  0  0  0
 12 17  1  0  0  0  0
 12 13  1  0  0  0  0
 12 45  1  0  0  0  0
 13 14  1  0  0  0  0
 13 33  1  0  0  0  0
 13 34  1  0  0  0  0
 14 15  1  0  0  0  0
 14 35  1  0  0  0  0
 14 36  1  0  0  0  0
 15 16  1  0  0  0  0
 16 17  1  0  0  0  0
 16 37  1  0  0  0  0
 16 38  1  0  0  0  0
 17 39  1  0  0  0  0
 17 40  1  0  0  0  0
 18 19  1  0  0  0  0
 19 20  2  0  0  0  0
 19 41  1  0  0  0  0
 20 21  1  0  0  0  0
 21 42  1  0  0  0  0
 21 43  1  0  0  0  0
 21 44  1  0  0  0  0
M  CHG  1   5   1
M  CHG  1  12   1
M  END
> <s_m_source_file>
AV-unprocessed.smi

> <i_m_source_file_index>
467

> <i_lp_mmshare_version>
43012

> <i_f3d_flags>
0

> <s_epik_input>
W0NIM11jKFtjSF0xKWMoW0NIM10pW2NIXWMoYzEyKW4oW2NIXW4yKVtDSDJdW0NASF0oW09IXSlbQ0gyXU4zW0NIMl1bQ0gyXU9bQ0gyXVtDSDJdMw==

> <s_epik_cmdline>
J2VwaWtfcHl0aG9uJywgJy1waCcsICc3LjAnLCAnLXRuJywgJzgnLCAnLW1hJywgJzIwMCcsICctbWV0YWxfYmluZGluZycsICctaW1hZScsICc8aW5maWxlLm1hZT4nLCAnLW9tYWUnLCAnPG91dGZpbGUubWFlPic=

> <r_epik_Ionization_Penalty>
1.88533

> <r_epik_Ionization_Penalty_Charging>
1.88531

> <r_epik_Ionization_Penalty_Neutral>
1.42224e-05

> <r_epik_State_Penalty>
1.94609

> <r_epik_Charging_Adjusted_Penalty>
3.8314

> <i_epik_Tot_Q>
2

> <i_epik_Tot_abs_Q>
2

> <r_epik_Metal_State_Penalty>
5.95915

> <b_epik_Metal_Only>
0

> <s_lp_Force_Field>
OPLS_2005

> <r_lp_Energy>
30.7546

> <b_lp_Chiralities_Consistent>
1

> <s_lp_Variant>
AV-unprocessed.smi:467-8

> <Gold.Version>
5.8.1

> <Gold.Id.Protein>
6NUR|6NUR_protein|mol2

> <Gold.PLP.Fitness>
55.9526

> <Gold.PLP.PLP>
-41.9871

> <Gold.PLP.part.hbond>
-4.0751

> <Gold.PLP.part.metal>
0.0000

> <Gold.PLP.part.buried>
-3.6863

> <Gold.PLP.part.nonpolar>
-34.3503

> <Gold.PLP.part.repulsive>
0.2152

> <Gold.PLP.ligand.clash>
0.0000

> <Gold.PLP.ligand.torsion>
0.5199

> <Gold.PLP.Chemscore.Hbond>
4.9913

> <Gold.PLP.Chemscore.CHOScore>
0.0000

> <Gold.PLP.Chemscore.Metal>
0.0000

> <Gold.Chemscore.Hbonds>
donor molecule, donor type, donor heavy atom, donor atom, acceptor molecule, acceptor atom, score
      L1  H     5    46       P1  8028  2.00
      L1  H    10    30       P1  7948  1.00
      L1  H    12    45       P1  7948  2.00

> <Gold.PLP.Chemscore.Internal.Correction>
0.0316

> <Gold.Rescore>
     Score         DG    S(hbond)    S(metal)    S(lipo)     H(rot)  DE(clash)    DE(int)     intcor
     21.06     -21.64       2.82        0.00     105.02       2.16       0.02       0.56       ----

> <Gold.Chemscore.Fitness>
21.0640

> <Gold.Chemscore.DG>
-21.6436

> <Gold.Chemscore.ZeroCoef>
-5.4800

> <Gold.Chemscore.Hbond>
2.8157

> <Gold.Chemscore.Metal>
0.0000

> <Gold.Chemscore.Lipo>
105.0156

> <Gold.Chemscore.Internal_Hbond>
0.0000

> <Gold.Chemscore.DEClash>
0.0189

> <Gold.Chemscore.DEInternal>
0.5607

> <Gold.Chemscore.Rot>
2.1592

> <Gold.Chemscore.Internal.Correction>
   9.000000E+99

> <Gold.Chemscore.Hbonds>
donor molecule, donor type, donor heavy atom, donor atom, acceptor molecule, acceptor atom, score
      L1  H     5    46       P1  8028  0.95
      L1  H    10    30       P1  7948  0.87
      L1  H    12    45       P1  7948  0.55

> <Gold.Chemscore.Hbond.Weighted>
-9.4043

> <Gold.Chemscore.Metal.Weighted>
-0.0000

> <Gold.Chemscore.Lipo.Weighted>
-12.2868

> <Gold.Chemscore.Internal_Hbond.Weighted>
0.0000

> <Gold.Chemscore.DEClash.Weighted>
0.0189

> <Gold.Chemscore.DEInternal.Weighted>
0.5607

> <Gold.Chemscore.Rot.Weighted>
5.5275

> <Gold.Chemscore.Internal.Correction.Weighted>
   9.000000E+99

> <Gold.Protein.RotatedTorsions>
[ 6907 6896 6895 6894 ] final  165.37 input  -60.11 | X-H torsion
[ 7974 7965 7964 7962 ] final  111.77 input  175.53 | X-H torsion
[ 8008 7997 7996 7995 ] final  130.10 input   59.86 | X-H torsion
[ 10167 10162 10161 10158 ] final  -77.22 input  -65.29 | X-H torsion
[ 10718 10713 10712 10709 ] final    8.42 input   66.30 | X-H torsion
[ 10763 10752 10751 10750 ] final -147.65 input  -60.55 | X-H torsion
[ 11005 11000 10999 10996 ] final  118.59 input  -57.11 | X-H torsion

> <Gold.Protein.ActiveResidues>
 VAL166  LYS551  ARG553  GLY616  TRP617  ASP618  TYR619  PRO620  LYS621  CYS622 
 ASP623  PHE694  ASN695  SER759  ASP760  ASP761  ALA762  ILE779  LEU786  VAL792 
 PHE793  MET794  SER795  GLU796  ALA797  LYS798  CYS799  TRP800  GLU811  SER814 

> <Gold.Protein.RotatedAtoms>
  151.8955  133.3526  159.3812 H   0  0  0  0  0  0  0  0  0  0  0  0  # atno 6907 bound_to 6896
  150.7093  134.4881  159.5511 H   0  0  0  0  0  0  0  0  0  0  0  0  # atno 6908 bound_to 6896
  152.2459  134.8182  160.0504 H   0  0  0  0  0  0  0  0  0  0  0  0  # atno 6909 bound_to 6896
  145.2380  139.2791  143.4132 H   0  0  0  0  0  0  0  0  0  0  0  0  # atno 7974 bound_to 7965
  156.2948  140.2604  156.2707 H   0  0  0  0  0  0  0  0  0  0  0  0  # atno 8008 bound_to 7997
  154.9698  140.0391  157.2248 H   0  0  0  0  0  0  0  0  0  0  0  0  # atno 8009 bound_to 7997
  154.7869  140.2805  155.6025 H   0  0  0  0  0  0  0  0  0  0  0  0  # atno 8010 bound_to 7997
  140.4789  143.2407  151.8089 H   0  0  0  0  0  0  0  0  0  0  0  0  # atno 10167 bound_to 10162
  156.9514  130.5898  149.5657 H   0  0  0  0  0  0  0  0  0  0  0  0  # atno 10718 bound_to 10713
  154.8274  135.3354  154.6852 H   0  0  0  0  0  0  0  0  0  0  0  0  # atno 10763 bound_to 10752
  153.7476  135.6941  153.4957 H   0  0  0  0  0  0  0  0  0  0  0  0  # atno 10764 bound_to 10752
  153.2199  135.4452  155.0428 H   0  0  0  0  0  0  0  0  0  0  0  0  # atno 10765 bound_to 10752
  139.9115  134.9621  156.7527 H   0  0  0  0  0  0  0  0  0  0  0  0  # atno 11005 bound_to 11000
  146.3336  140.2735  142.8607 LP  0  0  0  0  0  0  0  0  0  0  0  0  # atno 17320 bound_to 7965
  144.9615  140.8279  143.5511 LP  0  0  0  0  0  0  0  0  0  0  0  0  # atno 17321 bound_to 7965
  139.4830  144.4798  151.9321 LP  0  0  0  0  0  0  0  0  0  0  0  0  # atno 17342 bound_to 10162
  140.3883  144.2648  150.5902 LP  0  0  0  0  0  0  0  0  0  0  0  0  # atno 17343 bound_to 10162
  156.0361  130.5448  150.8657 LP  0  0  0  0  0  0  0  0  0  0  0  0  # atno 17370 bound_to 10713
  157.5719  131.0946  150.9404 LP  0  0  0  0  0  0  0  0  0  0  0  0  # atno 17371 bound_to 10713
  140.6761  133.9516  155.7883 LP  0  0  0  0  0  0  0  0  0  0  0  0  # atno 17394 bound_to 11000
  141.0543  134.0439  157.3742 LP  0  0  0  0  0  0  0  0  0  0  0  0  # atno 17395 bound_to 11000

$$$$
