AV-unprocessed.smi:2980|AV-procd|sdf|11373|dock1
  -GOLD-   2272016293D 1   1.00000     0.00000
 Structure written by MMmdl.
 39 40  0  0  0  0  0  0  0  0  2 V2000
  150.8758  135.7105  154.4730 C   0  0  0  0  0  0  0  0  0  0  0  0
  150.8721  137.2394  154.4094 C   0  0  0  0  0  0  0  0  0  0  0  0
  152.2105  137.6989  154.4757 O   0  0  0  0  0  0  0  0  0  0  0  0
  152.3066  139.0804  154.7811 C   0  0  0  0  0  0  0  0  0  0  0  0
  151.7279  139.3437  156.1786 C   0  0  0  0  0  0  0  0  0  0  0  0
  151.3149  140.7453  156.3606 N   0  0  0  0  0  0  0  0  0  0  0  0
  150.4699  141.5230  155.6217 C   0  0  0  0  0  0  0  0  0  0  0  0
  149.7311  141.1353  154.3812 C   0  0  0  0  0  0  0  0  0  0  0  0
  148.2605  141.5797  154.4382 C   0  0  0  0  0  0  0  0  0  0  0  0
  147.4663  141.1995  153.1805 C   0  0  0  0  0  0  0  0  0  0  0  0
  147.8625  139.9272  152.7135 O   0  0  0  0  0  0  0  0  0  0  0  0
  150.4339  142.7515  156.2110 N   0  3  0  0  0  0  0  0  0  0  0  0
  151.2620  142.7633  157.3333 C   0  0  0  0  0  0  0  0  0  0  0  0
  151.5489  143.7775  158.2417 C   0  0  0  0  0  0  0  0  0  0  0  0
  152.4499  143.4614  159.2795 C   0  0  0  0  0  0  0  0  0  0  0  0
  153.0282  142.1798  159.3840 C   0  0  0  0  0  0  0  0  0  0  0  0
  152.7286  141.1599  158.4572 C   0  0  0  0  0  0  0  0  0  0  0  0
  151.8343  141.4790  157.4351 C   0  0  0  0  0  0  0  0  0  0  0  0
  149.8608  135.3160  154.4236 H   0  0  0  0  0  0  0  0  0  0  0  0
  151.3270  135.3590  155.4010 H   0  0  0  0  0  0  0  0  0  0  0  0
  151.4413  135.2859  153.6430 H   0  0  0  0  0  0  0  0  0  0  0  0
  150.4040  137.5719  153.4819 H   0  0  0  0  0  0  0  0  0  0  0  0
  150.2925  137.6466  155.2391 H   0  0  0  0  0  0  0  0  0  0  0  0
  153.3492  139.3988  154.7445 H   0  0  0  0  0  0  0  0  0  0  0  0
  151.7620  139.6665  154.0396 H   0  0  0  0  0  0  0  0  0  0  0  0
  150.8587  138.7093  156.3498 H   0  0  0  0  0  0  0  0  0  0  0  0
  152.4479  139.0788  156.9526 H   0  0  0  0  0  0  0  0  0  0  0  0
  150.2259  141.5675  153.5121 H   0  0  0  0  0  0  0  0  0  0  0  0
  149.7900  140.0530  154.2620 H   0  0  0  0  0  0  0  0  0  0  0  0
  147.7846  141.1186  155.3046 H   0  0  0  0  0  0  0  0  0  0  0  0
  148.1990  142.6572  154.5967 H   0  0  0  0  0  0  0  0  0  0  0  0
  146.3946  141.1969  153.3822 H   0  0  0  0  0  0  0  0  0  0  0  0
  147.6444  141.9287  152.3895 H   0  0  0  0  0  0  0  0  0  0  0  0
  148.5564  140.0406  152.0816 H   0  0  0  0  0  0  0  0  0  0  0  0
  151.1093  144.7608  158.1613 H   0  0  0  0  0  0  0  0  0  0  0  0
  152.7042  144.2173  160.0082 H   0  0  0  0  0  0  0  0  0  0  0  0
  153.7170  141.9745  160.1904 H   0  0  0  0  0  0  0  0  0  0  0  0
  153.1835  140.1843  158.5441 H   0  0  0  0  0  0  0  0  0  0  0  0
  149.8844  143.5271  155.8644 H   0  0  0  0  0  0  0  0  0  0  0  0
  1  2  1  0  0  0  0
  1 19  1  0  0  0  0
  1 20  1  0  0  0  0
  1 21  1  0  0  0  0
  2  3  1  0  0  0  0
  2 22  1  0  0  0  0
  2 23  1  0  0  0  0
  3  4  1  0  0  0  0
  4  5  1  0  0  0  0
  4 24  1  0  0  0  0
  4 25  1  0  0  0  0
  5  6  1  0  0  0  0
  5 26  1  0  0  0  0
  5 27  1  0  0  0  0
  6 18  1  0  0  0  0
  6  7  1  0  0  0  0
  7  8  1  0  0  0  0
  7 12  2  0  0  0  0
  8  9  1  0  0  0  0
  8 28  1  0  0  0  0
  8 29  1  0  0  0  0
  9 10  1  0  0  0  0
  9 30  1  0  0  0  0
  9 31  1  0  0  0  0
 10 11  1  0  0  0  0
 10 32  1  0  0  0  0
 10 33  1  0  0  0  0
 11 34  1  0  0  0  0
 12 13  1  0  0  0  0
 12 39  1  0  0  0  0
 13 18  2  0  0  0  0
 13 14  1  0  0  0  0
 14 15  2  0  0  0  0
 14 35  1  0  0  0  0
 15 16  1  0  0  0  0
 15 36  1  0  0  0  0
 16 17  2  0  0  0  0
 16 37  1  0  0  0  0
 17 18  1  0  0  0  0
 17 38  1  0  0  0  0
M  CHG  1  12   1
M  END
> <s_m_source_file>
AV-unprocessed.smi

> <i_m_source_file_index>
2980

> <i_lp_mmshare_version>
43012

> <i_f3d_flags>
0

> <s_epik_input>
W0NIM11bQ0gyXU9bQ0gyXVtDSDJdbihjKG4xKVtDSDJdW0NIMl1bQ0gyXVtPSF0pYyhjMTIpW2NIXVtjSF1bY0hdW2NIXTI=

> <s_epik_cmdline>
J2VwaWtfcHl0aG9uJywgJy1waCcsICc3LjAnLCAnLXRuJywgJzgnLCAnLW1hJywgJzIwMCcsICctbWV0YWxfYmluZGluZycsICctaW1hZScsICc8aW5maWxlLm1hZT4nLCAnLW9tYWUnLCAnPG91dGZpbGUubWFlPic=

> <r_epik_Ionization_Penalty>
0.813193

> <r_epik_Ionization_Penalty_Charging>
0.813193

> <r_epik_Ionization_Penalty_Neutral>
1.64912e-07

> <r_epik_State_Penalty>
0.845533

> <r_epik_Charging_Adjusted_Penalty>
1.65873

> <i_epik_Tot_Q>
1

> <i_epik_Tot_abs_Q>
1

> <r_epik_Metal_State_Penalty>
4.77586

> <b_epik_Metal_Only>
0

> <s_lp_Force_Field>
OPLS_2005

> <r_lp_Energy>
11.2721

> <b_lp_Chiralities_Consistent>
1

> <s_lp_Variant>
AV-unprocessed.smi:2980-2

> <Gold.Version>
5.8.1

> <Gold.Id.Protein>
6NUR|6NUR_protein|mol2

> <Gold.PLP.Fitness>
53.4046

> <Gold.PLP.PLP>
-42.6633

> <Gold.PLP.part.hbond>
-3.0000

> <Gold.PLP.part.metal>
0.0000

> <Gold.PLP.part.buried>
-4.9250

> <Gold.PLP.part.nonpolar>
-35.3795

> <Gold.PLP.part.repulsive>
0.1948

> <Gold.PLP.ligand.clash>
0.0000

> <Gold.PLP.ligand.torsion>
0.4684

> <Gold.PLP.Chemscore.Hbond>
3.8003

> <Gold.PLP.Chemscore.CHOScore>
0.0000

> <Gold.PLP.Chemscore.Metal>
0.0000

> <Gold.Chemscore.Hbonds>
donor molecule, donor type, donor heavy atom, donor atom, acceptor molecule, acceptor atom, score
      L1  H    11    34       P1  7957  0.63
      L1  H    12    39       P1  8028  2.00
      P1  H 10752 10765       L1     3  0.25

> <Gold.PLP.Chemscore.Internal.Correction>
0.2772

> <Gold.Rescore>
     Score         DG    S(hbond)    S(metal)    S(lipo)     H(rot)  DE(clash)    DE(int)     intcor
     20.13     -21.13       2.87        0.00     108.33       2.58       0.30       0.70       ----

> <Gold.Chemscore.Fitness>
20.1309

> <Gold.Chemscore.DG>
-21.1325

> <Gold.Chemscore.ZeroCoef>
-5.4800

> <Gold.Chemscore.Hbond>
2.8678

> <Gold.Chemscore.Metal>
0.0000

> <Gold.Chemscore.Lipo>
108.3326

> <Gold.Chemscore.Internal_Hbond>
0.0000

> <Gold.Chemscore.DEClash>
0.2982

> <Gold.Chemscore.DEInternal>
0.7035

> <Gold.Chemscore.Rot>
2.5784

> <Gold.Chemscore.Internal.Correction>
   9.000000E+99

> <Gold.Chemscore.Hbonds>
donor molecule, donor type, donor heavy atom, donor atom, acceptor molecule, acceptor atom, score
      L1  H    11    34       P1  7957  0.65
      L1  H    12    39       P1  8028  0.97
      P1  H 10752 10765       L1     3  0.01

> <Gold.Chemscore.Hbond.Weighted>
-9.5784

> <Gold.Chemscore.Metal.Weighted>
-0.0000

> <Gold.Chemscore.Lipo.Weighted>
-12.6749

> <Gold.Chemscore.Internal_Hbond.Weighted>
0.0000

> <Gold.Chemscore.DEClash.Weighted>
0.2982

> <Gold.Chemscore.DEInternal.Weighted>
0.7035

> <Gold.Chemscore.Rot.Weighted>
6.6007

> <Gold.Chemscore.Internal.Correction.Weighted>
   9.000000E+99

> <Gold.Protein.RotatedTorsions>
[ 6907 6896 6895 6894 ] final  171.63 input  -60.11 | X-H torsion
[ 7974 7965 7964 7962 ] final  111.69 input  175.53 | X-H torsion
[ 8008 7997 7996 7995 ] final    2.09 input   59.86 | X-H torsion
[ 10167 10162 10161 10158 ] final -104.18 input  -65.29 | X-H torsion
[ 10718 10713 10712 10709 ] final   70.80 input   66.30 | X-H torsion
[ 10763 10752 10751 10750 ] final  171.81 input  -60.55 | X-H torsion
[ 11005 11000 10999 10996 ] final   87.91 input  -57.11 | X-H torsion

> <Gold.Protein.ActiveResidues>
 VAL166  LYS551  ARG553  GLY616  TRP617  ASP618  TYR619  PRO620  LYS621  CYS622 
 ASP623  PHE694  ASN695  SER759  ASP760  ASP761  ALA762  ILE779  LEU786  VAL792 
 PHE793  MET794  SER795  GLU796  ALA797  LYS798  CYS799  TRP800  GLU811  SER814 

> <Gold.Protein.RotatedAtoms>
  151.7971  133.3366  159.3515 H   0  0  0  0  0  0  0  0  0  0  0  0  # atno 6907 bound_to 6896
  150.7371  134.5788  159.5937 H   0  0  0  0  0  0  0  0  0  0  0  0  # atno 6908 bound_to 6896
  152.3169  134.7430  160.0374 H   0  0  0  0  0  0  0  0  0  0  0  0  # atno 6909 bound_to 6896
  145.2390  139.2787  143.4128 H   0  0  0  0  0  0  0  0  0  0  0  0  # atno 7974 bound_to 7965
  154.6875  140.2646  155.6846 H   0  0  0  0  0  0  0  0  0  0  0  0  # atno 8008 bound_to 7997
  156.2720  140.2798  156.1364 H   0  0  0  0  0  0  0  0  0  0  0  0  # atno 8009 bound_to 7997
  155.0944  140.0374  157.2668 H   0  0  0  0  0  0  0  0  0  0  0  0  # atno 8010 bound_to 7997
  140.2121  143.3739  152.1042 H   0  0  0  0  0  0  0  0  0  0  0  0  # atno 10167 bound_to 10162
  157.6419  130.9496  150.0701 H   0  0  0  0  0  0  0  0  0  0  0  0  # atno 10718 bound_to 10713
  154.4172  135.2757  155.1998 H   0  0  0  0  0  0  0  0  0  0  0  0  # atno 10763 bound_to 10752
  154.3959  135.6055  153.5873 H   0  0  0  0  0  0  0  0  0  0  0  0  # atno 10764 bound_to 10752
  152.9832  135.5914  154.4463 H   0  0  0  0  0  0  0  0  0  0  0  0  # atno 10765 bound_to 10752
  139.8908  134.8453  156.2926 H   0  0  0  0  0  0  0  0  0  0  0  0  # atno 11005 bound_to 11000
  146.3333  140.2747  142.8607 LP  0  0  0  0  0  0  0  0  0  0  0  0  # atno 17320 bound_to 7965
  144.9606  140.8271  143.5515 LP  0  0  0  0  0  0  0  0  0  0  0  0  # atno 17321 bound_to 7965
  139.5176  144.6994  151.5537 LP  0  0  0  0  0  0  0  0  0  0  0  0  # atno 17342 bound_to 10162
  140.6316  143.9065  150.6611 LP  0  0  0  0  0  0  0  0  0  0  0  0  # atno 17343 bound_to 10162
  156.1708  130.3646  149.9168 LP  0  0  0  0  0  0  0  0  0  0  0  0  # atno 17370 bound_to 10713
  156.7144  130.8983  151.3612 LP  0  0  0  0  0  0  0  0  0  0  0  0  # atno 17371 bound_to 10713
  140.9966  133.7176  156.0896 LP  0  0  0  0  0  0  0  0  0  0  0  0  # atno 17394 bound_to 11000
  140.7554  134.3999  157.5534 LP  0  0  0  0  0  0  0  0  0  0  0  0  # atno 17395 bound_to 11000

$$$$
