AV-unprocessed.smi:1467|AV-procd|sdf|5956|dock4
  -GOLD-   22720 6 43D 1   1.00000     0.00000
 Structure written by MMmdl.
 41 42  0  0  0  0  0  0  0  0  2 V2000
  151.0270  141.6271  157.9886 C   0  0  0  0  0  0  0  0  0  0  0  0
  151.5701  140.6310  156.9617 C   0  0  0  0  0  0  0  0  0  0  0  0
  152.4766  139.8756  157.3119 O   0  0  0  0  0  0  0  0  0  0  0  0
  151.0434  140.6103  155.7137 N   0  0  0  0  0  0  0  0  0  0  0  0
  149.9075  141.4146  155.2540 C   0  0  0  0  0  0  0  0  0  0  0  0
  148.7163  140.4824  154.9678 C   0  0  0  0  0  0  0  0  0  0  0  0
  149.0776  139.4124  153.9984 N   0  3  0  0  0  0  0  0  0  0  0  0
  147.9311  138.5147  153.7085 C   0  0  0  0  0  0  0  0  0  0  0  0
  147.0253  139.0530  152.5842 C   0  0  0  0  0  0  0  0  0  0  0  0
  145.6229  138.7391  152.8329 N   0  0  0  0  0  0  0  0  0  0  0  0
  145.1454  137.5095  153.0724 C   0  0  0  0  0  0  0  0  0  0  0  0
  145.8527  136.5022  153.0984 O   0  0  0  0  0  0  0  0  0  0  0  0
  143.8166  137.5275  153.2667 N   0  0  0  0  0  0  0  0  0  0  0  0
  142.9764  136.4253  153.5679 C   0  0  0  0  0  0  0  0  0  0  0  0
  141.6109  136.5282  153.9496 C   0  0  0  0  0  0  0  0  0  0  0  0
  141.0805  135.3347  154.1749 N   0  0  0  0  0  0  0  0  0  0  0  0
  142.0950  134.4710  153.9432 N   0  0  0  0  0  0  0  0  0  0  0  0
  143.2682  135.0901  153.5721 C   0  0  0  0  0  0  0  0  0  0  0  0
  150.3196  138.6854  154.3827 C   0  0  0  0  0  0  0  0  0  0  0  0
  151.4733  139.6589  154.6854 C   0  0  0  0  0  0  0  0  0  0  0  0
  141.9732  133.4731  154.0432 H   0  0  0  0  0  0  0  0  0  0  0  0
  149.9678  141.4513  158.1772 H   0  0  0  0  0  0  0  0  0  0  0  0
  151.1619  142.6521  157.6427 H   0  0  0  0  0  0  0  0  0  0  0  0
  151.5547  141.5255  158.9375 H   0  0  0  0  0  0  0  0  0  0  0  0
  149.6044  142.1890  155.9570 H   0  0  0  0  0  0  0  0  0  0  0  0
  150.1931  141.9432  154.3433 H   0  0  0  0  0  0  0  0  0  0  0  0
  148.3726  140.0260  155.8978 H   0  0  0  0  0  0  0  0  0  0  0  0
  147.8838  141.0676  154.5748 H   0  0  0  0  0  0  0  0  0  0  0  0
  148.2962  137.5156  153.4655 H   0  0  0  0  0  0  0  0  0  0  0  0
  147.3320  138.4114  154.6145 H   0  0  0  0  0  0  0  0  0  0  0  0
  147.1533  140.1312  152.4716 H   0  0  0  0  0  0  0  0  0  0  0  0
  147.2884  138.6065  151.6260 H   0  0  0  0  0  0  0  0  0  0  0  0
  144.9727  139.5117  152.8312 H   0  0  0  0  0  0  0  0  0  0  0  0
  143.3563  138.4231  153.1951 H   0  0  0  0  0  0  0  0  0  0  0  0
  140.9995  137.4107  154.0678 H   0  0  0  0  0  0  0  0  0  0  0  0
  144.1701  134.5368  153.3560 H   0  0  0  0  0  0  0  0  0  0  0  0
  150.1209  138.0674  155.2599 H   0  0  0  0  0  0  0  0  0  0  0  0
  150.6275  138.0122  153.5838 H   0  0  0  0  0  0  0  0  0  0  0  0
  151.7479  140.2076  153.7833 H   0  0  0  0  0  0  0  0  0  0  0  0
  152.3635  139.0971  154.9721 H   0  0  0  0  0  0  0  0  0  0  0  0
  149.2863  139.8923  153.1344 H   0  0  0  0  0  0  0  0  0  0  0  0
  1  2  1  0  0  0  0
  1 22  1  0  0  0  0
  1 23  1  0  0  0  0
  1 24  1  0  0  0  0
  2  3  2  0  0  0  0
  2  4  1  0  0  0  0
  4 20  1  0  0  0  0
  4  5  1  0  0  0  0
  5  6  1  0  0  0  0
  5 25  1  0  0  0  0
  5 26  1  0  0  0  0
  6  7  1  0  0  0  0
  6 27  1  0  0  0  0
  6 28  1  0  0  0  0
  7  8  1  0  0  0  0
  7 19  1  0  0  0  0
  7 41  1  0  0  0  0
  8  9  1  0  0  0  0
  8 29  1  0  0  0  0
  8 30  1  0  0  0  0
  9 10  1  0  0  0  0
  9 31  1  0  0  0  0
  9 32  1  0  0  0  0
 10 11  1  0  0  0  0
 10 33  1  0  0  0  0
 11 12  2  0  0  0  0
 11 13  1  0  0  0  0
 13 14  1  0  0  0  0
 13 34  1  0  0  0  0
 14 18  2  0  0  0  0
 14 15  1  0  0  0  0
 15 16  2  0  0  0  0
 15 35  1  0  0  0  0
 16 17  1  0  0  0  0
 17 21  1  0  0  0  0
 17 18  1  0  0  0  0
 18 36  1  0  0  0  0
 19 20  1  0  0  0  0
 19 37  1  0  0  0  0
 19 38  1  0  0  0  0
 20 39  1  0  0  0  0
 20 40  1  0  0  0  0
M  CHG  1   7   1
M  END
> <s_m_source_file>
AV-unprocessed.smi

> <i_m_source_file_index>
1467

> <i_lp_mmshare_version>
43012

> <i_f3d_flags>
0

> <s_epik_input>
W0NIM11DKD1PKU4xW0NIMl1bQ0gyXU4oW0NIMl1bQ0gyXTEpW0NIMl1bQ0gyXVtOSF1DKD1PKVtOSF1jMltjSF1uW25IXVtjSF0y

> <s_epik_cmdline>
J2VwaWtfcHl0aG9uJywgJy1waCcsICc3LjAnLCAnLXRuJywgJzgnLCAnLW1hJywgJzIwMCcsICctbWV0YWxfYmluZGluZycsICctaW1hZScsICc8aW5maWxlLm1hZT4nLCAnLW9tYWUnLCAnPG91dGZpbGUubWFlPic=

> <r_lp_tautomer_probability>
0.5

> <r_epik_Ionization_Penalty>
0.630073

> <r_epik_Ionization_Penalty_Charging>
0.630034

> <r_epik_Ionization_Penalty_Neutral>
3.91951e-05

> <r_epik_State_Penalty>
0.646805

> <r_epik_Charging_Adjusted_Penalty>
1.27684

> <i_epik_Tot_Q>
1

> <i_epik_Tot_abs_Q>
1

> <r_epik_Metal_State_Penalty>
0.646807

> <b_epik_Metal_Only>
0

> <s_lp_Force_Field>
OPLS_2005

> <r_lp_Energy>
42.6294

> <b_lp_Chiralities_Consistent>
1

> <s_lp_Variant>
AV-unprocessed.smi:1467-2

> <Gold.Version>
5.8.1

> <Gold.Id.Protein>
6NUR|6NUR_protein|mol2

> <Gold.PLP.Fitness>
47.1922

> <Gold.PLP.PLP>
-32.0279

> <Gold.PLP.part.hbond>
-6.3100

> <Gold.PLP.part.metal>
0.0000

> <Gold.PLP.part.buried>
0.0791

> <Gold.PLP.part.nonpolar>
-25.3400

> <Gold.PLP.part.repulsive>
0.4116

> <Gold.PLP.ligand.clash>
0.0000

> <Gold.PLP.ligand.torsion>
0.6622

> <Gold.PLP.Chemscore.Hbond>
5.4807

> <Gold.PLP.Chemscore.CHOScore>
0.0000

> <Gold.PLP.Chemscore.Metal>
0.0000

> <Gold.Chemscore.Hbonds>
donor molecule, donor type, donor heavy atom, donor atom, acceptor molecule, acceptor atom, score
      L1  H     7    41       P1  7957  1.00
      L1  H    10    33       P1 10175  1.00
      L1  H    13    34       P1 10175  0.59
      L1  H    17    21       P1 10957  0.98
      P1  H  7997  8008       L1     3  1.00
      P1  H 11000 11005       L1    16  0.91

> <Gold.PLP.Chemscore.Internal.Correction>
0.0469

> <Gold.Rescore>
     Score         DG    S(hbond)    S(metal)    S(lipo)     H(rot)  DE(clash)    DE(int)     intcor
     19.27     -23.71       4.66        0.00      60.96       1.75       1.54       2.90       ----

> <Gold.Chemscore.Fitness>
19.2697

> <Gold.Chemscore.DG>
-23.7068

> <Gold.Chemscore.ZeroCoef>
-5.4800

> <Gold.Chemscore.Hbond>
4.6642

> <Gold.Chemscore.Metal>
0.0000

> <Gold.Chemscore.Lipo>
60.9551

> <Gold.Chemscore.Internal_Hbond>
0.0000

> <Gold.Chemscore.DEClash>
1.5351

> <Gold.Chemscore.DEInternal>
2.9021

> <Gold.Chemscore.Rot>
1.7513

> <Gold.Chemscore.Internal.Correction>
   9.000000E+99

> <Gold.Chemscore.Hbonds>
donor molecule, donor type, donor heavy atom, donor atom, acceptor molecule, acceptor atom, score
      L1  H     7    41       P1  7957  0.93
      L1  H    10    33       P1 10175  0.99
      L1  H    13    34       P1 10175  0.58
      L1  H    17    21       P1 10957  0.92
      P1  H  7997  8008       L1     3  0.93
      P1  H 11000 11005       L1    16  0.22

> <Gold.Chemscore.Hbond.Weighted>
-15.5784

> <Gold.Chemscore.Metal.Weighted>
-0.0000

> <Gold.Chemscore.Lipo.Weighted>
-7.1317

> <Gold.Chemscore.Internal_Hbond.Weighted>
0.0000

> <Gold.Chemscore.DEClash.Weighted>
1.5351

> <Gold.Chemscore.DEInternal.Weighted>
2.9021

> <Gold.Chemscore.Rot.Weighted>
4.4833

> <Gold.Chemscore.Internal.Correction.Weighted>
   9.000000E+99

> <Gold.Protein.RotatedTorsions>
[ 6907 6896 6895 6894 ] final -157.08 input  -60.11 | X-H torsion
[ 7974 7965 7964 7962 ] final  132.07 input  175.53 | X-H torsion
[ 8008 7997 7996 7995 ] final  -66.18 input   59.86 | X-H torsion
[ 10167 10162 10161 10158 ] final -163.29 input  -65.29 | X-H torsion
[ 10718 10713 10712 10709 ] final   71.54 input   66.30 | X-H torsion
[ 10763 10752 10751 10750 ] final    4.48 input  -60.55 | X-H torsion
[ 11005 11000 10999 10996 ] final   40.39 input  -57.11 | X-H torsion

> <Gold.Protein.ActiveResidues>
 VAL166  LYS551  ARG553  GLY616  TRP617  ASP618  TYR619  PRO620  LYS621  CYS622 
 ASP623  PHE694  ASN695  SER759  ASP760  ASP761  ALA762  ILE779  LEU786  VAL792 
 PHE793  MET794  SER795  GLU796  ALA797  LYS798  CYS799  TRP800  GLU811  SER814 

> <Gold.Protein.RotatedAtoms>
  151.2973  133.4138  159.2636 H   0  0  0  0  0  0  0  0  0  0  0  0  # atno 6907 bound_to 6896
  151.0225  134.9480  159.8078 H   0  0  0  0  0  0  0  0  0  0  0  0  # atno 6908 bound_to 6896
  152.5327  134.2936  159.9105 H   0  0  0  0  0  0  0  0  0  0  0  0  # atno 6909 bound_to 6896
  145.0007  139.4314  143.5293 H   0  0  0  0  0  0  0  0  0  0  0  0  # atno 7974 bound_to 7965
  154.4718  140.0918  156.7164 H   0  0  0  0  0  0  0  0  0  0  0  0  # atno 8008 bound_to 7997
  155.4703  140.3464  155.4306 H   0  0  0  0  0  0  0  0  0  0  0  0  # atno 8009 bound_to 7997
  156.1052  140.1433  156.9402 H   0  0  0  0  0  0  0  0  0  0  0  0  # atno 8010 bound_to 7997
  139.6331  144.0402  152.2032 H   0  0  0  0  0  0  0  0  0  0  0  0  # atno 10167 bound_to 10162
  157.6456  130.9533  150.0803 H   0  0  0  0  0  0  0  0  0  0  0  0  # atno 10718 bound_to 10713
  153.2708  135.6932  153.7482 H   0  0  0  0  0  0  0  0  0  0  0  0  # atno 10763 bound_to 10752
  153.6506  135.3377  155.3099 H   0  0  0  0  0  0  0  0  0  0  0  0  # atno 10764 bound_to 10752
  154.8463  135.4453  154.1730 H   0  0  0  0  0  0  0  0  0  0  0  0  # atno 10765 bound_to 10752
  140.1935  134.3957  155.8134 H   0  0  0  0  0  0  0  0  0  0  0  0  # atno 11005 bound_to 11000
  146.3451  139.9394  142.8743 LP  0  0  0  0  0  0  0  0  0  0  0  0  # atno 17320 bound_to 7965
  145.2157  140.9914  143.4075 LP  0  0  0  0  0  0  0  0  0  0  0  0  # atno 17321 bound_to 7965
  140.0072  144.6250  150.7678 LP  0  0  0  0  0  0  0  0  0  0  0  0  # atno 17342 bound_to 10162
  140.7450  143.2869  151.3438 LP  0  0  0  0  0  0  0  0  0  0  0  0  # atno 17343 bound_to 10162
  156.1781  130.3649  149.9072 LP  0  0  0  0  0  0  0  0  0  0  0  0  # atno 17370 bound_to 10713
  156.7032  130.8941  151.3601 LP  0  0  0  0  0  0  0  0  0  0  0  0  # atno 17371 bound_to 10713
  141.2226  133.7058  156.8136 LP  0  0  0  0  0  0  0  0  0  0  0  0  # atno 17394 bound_to 11000
  140.2133  134.8811  157.3298 LP  0  0  0  0  0  0  0  0  0  0  0  0  # atno 17395 bound_to 11000

$$$$
