AV-unprocessed.smi:1976|AV-procd|sdf|7984|dock9
  -GOLD-   2272010163D 1   1.00000     0.00000
 Structure written by MMmdl.
 45 47  0  0  0  0  0  0  0  0  2 V2000
  147.8053  140.4113  155.6822 O   0  0  0  0  0  0  0  0  0  0  0  0
  148.5274  140.4238  154.6848 C   0  0  0  0  0  0  0  0  0  0  0  0
  149.9127  141.0832  154.7282 C   0  0  0  0  0  0  0  0  0  0  0  0
  150.5830  140.9201  156.0289 N   0  0  0  0  0  0  0  0  0  0  0  0
  150.9223  142.0943  156.7297 C   0  0  0  0  0  0  0  0  0  0  0  0
  151.5395  142.0807  157.9269 C   0  0  0  0  0  0  0  0  0  0  0  0
  151.8327  143.3624  158.6915 C   0  0  0  0  0  0  0  0  0  0  0  0
  152.4795  143.1049  159.8286 F   0  0  0  0  0  0  0  0  0  0  0  0
  152.5966  144.1657  157.9526 F   0  0  0  0  0  0  0  0  0  0  0  0
  150.7085  144.0159  158.9877 F   0  0  0  0  0  0  0  0  0  0  0  0
  151.8220  140.7757  158.4920 C   0  0  0  0  0  0  0  0  0  0  0  0
  151.4914  139.6430  157.8413 C   0  0  0  0  0  0  0  0  0  0  0  0
  150.8329  139.6747  156.5335 C   0  0  0  0  0  0  0  0  0  0  0  0
  150.5224  138.6472  155.9297 O   0  0  0  0  0  0  0  0  0  0  0  0
  148.1578  139.8970  153.5078 N   0  0  0  0  0  0  0  0  0  0  0  0
  146.8840  139.2261  153.2596 C   0  0  1  0  0  0  0  0  0  0  0  0
  146.6414  138.8710  151.7774 C   0  0  0  0  0  0  0  0  0  0  0  0
  146.0453  137.4598  151.8064 C   0  0  0  0  0  0  0  0  0  0  0  0
  146.6918  136.8528  152.9760 N   0  3  2  0  0  0  0  0  0  0  0  0
  146.1752  135.5633  153.4781 C   0  0  0  0  0  0  0  0  0  0  0  0
  147.1187  135.0583  154.5915 C   0  0  0  0  0  0  0  0  0  0  0  0
  147.3551  136.1221  155.6882 C   0  0  0  0  0  0  0  0  0  0  0  0
  147.7732  137.4816  155.0870 C   0  0  0  0  0  0  0  0  0  0  0  0
  146.7422  137.8902  154.0206 C   0  0  1  0  0  0  0  0  0  0  0  0
  150.5389  140.6809  153.9292 H   0  0  0  0  0  0  0  0  0  0  0  0
  149.7925  142.1408  154.4899 H   0  0  0  0  0  0  0  0  0  0  0  0
  150.6346  143.0109  156.2353 H   0  0  0  0  0  0  0  0  0  0  0  0
  152.3099  140.7043  159.4529 H   0  0  0  0  0  0  0  0  0  0  0  0
  151.7186  138.6882  158.2924 H   0  0  0  0  0  0  0  0  0  0  0  0
  148.8089  139.9504  152.7378 H   0  0  0  0  0  0  0  0  0  0  0  0
  146.0851  139.8876  153.6011 H   0  0  0  0  0  0  0  0  0  0  0  0
  145.9906  139.5881  151.2760 H   0  0  0  0  0  0  0  0  0  0  0  0
  147.5870  138.8502  151.2332 H   0  0  0  0  0  0  0  0  0  0  0  0
  144.9659  137.5019  151.9614 H   0  0  0  0  0  0  0  0  0  0  0  0
  146.2439  136.8992  150.8926 H   0  0  0  0  0  0  0  0  0  0  0  0
  145.1588  135.6866  153.8552 H   0  0  0  0  0  0  0  0  0  0  0  0
  146.1333  134.8400  152.6629 H   0  0  0  0  0  0  0  0  0  0  0  0
  146.7182  134.1464  155.0353 H   0  0  0  0  0  0  0  0  0  0  0  0
  148.0781  134.7867  154.1493 H   0  0  0  0  0  0  0  0  0  0  0  0
  146.4384  136.2507  156.2654 H   0  0  0  0  0  0  0  0  0  0  0  0
  148.1128  135.7739  156.3909 H   0  0  0  0  0  0  0  0  0  0  0  0
  147.8300  138.2359  155.8726 H   0  0  0  0  0  0  0  0  0  0  0  0
  148.7682  137.4031  154.6466 H   0  0  0  0  0  0  0  0  0  0  0  0
  145.7607  137.9161  154.4995 H   0  0  0  0  0  0  0  0  0  0  0  0
  147.6489  136.6893  152.6978 H   0  0  0  0  0  0  0  0  0  0  0  0
  1  2  2  0  0  0  0
  2  3  1  0  0  0  0
  2 15  1  0  0  0  0
  3  4  1  0  0  0  0
  3 25  1  0  0  0  0
  3 26  1  0  0  0  0
  4 13  1  0  0  0  0
  4  5  1  0  0  0  0
  5  6  2  0  0  0  0
  5 27  1  0  0  0  0
  6  7  1  0  0  0  0
  6 11  1  0  0  0  0
  7  8  1  0  0  0  0
  7  9  1  0  0  0  0
  7 10  1  0  0  0  0
 11 12  2  0  0  0  0
 11 28  1  0  0  0  0
 12 13  1  0  0  0  0
 12 29  1  0  0  0  0
 13 14  2  0  0  0  0
 15 16  1  0  0  0  0
 15 30  1  0  0  0  0
 16 24  1  0  0  0  0
 16 17  1  0  0  0  0
 16 31  1  0  0  0  0
 17 18  1  0  0  0  0
 17 32  1  0  0  0  0
 17 33  1  0  0  0  0
 18 19  1  0  0  0  0
 18 34  1  0  0  0  0
 18 35  1  0  0  0  0
 19 24  1  0  0  0  0
 19 20  1  0  0  0  0
 19 45  1  0  0  0  0
 20 21  1  0  0  0  0
 20 36  1  0  0  0  0
 20 37  1  0  0  0  0
 21 22  1  0  0  0  0
 21 38  1  0  0  0  0
 21 39  1  0  0  0  0
 22 23  1  0  0  0  0
 22 40  1  0  0  0  0
 22 41  1  0  0  0  0
 23 24  1  0  0  0  0
 23 42  1  0  0  0  0
 23 43  1  0  0  0  0
 24 44  1  0  0  0  0
M  CHG  1  19   1
M  END
> <s_m_source_file>
AV-unprocessed.smi

> <i_m_source_file_index>
1976

> <i_lp_mmshare_version>
43012

> <i_f3d_flags>
0

> <s_epik_input>
W0NIMl0xW0NIMl1bQ0gyXVtDSDJdW0NASF0oTjEyKVtDQEBIXShbQ0gyXVtDSDJdMilbTkhdQyg9TylbQ0gyXW4zW2NIXWMoQyhGKShGKUYpW2NIXVtjSF1jMz1P

> <s_epik_cmdline>
J2VwaWtfcHl0aG9uJywgJy1waCcsICc3LjAnLCAnLXRuJywgJzgnLCAnLW1hJywgJzIwMCcsICctbWV0YWxfYmluZGluZycsICctaW1hZScsICc8aW5maWxlLm1hZT4nLCAnLW9tYWUnLCAnPG91dGZpbGUubWFlPic=

> <r_lp_tautomer_probability>
1

> <r_epik_Ionization_Penalty>
0.00171506

> <r_epik_Ionization_Penalty_Charging>
0.00171498

> <r_epik_Ionization_Penalty_Neutral>
7.81737e-08

> <r_epik_State_Penalty>
0.00115937

> <r_epik_Charging_Adjusted_Penalty>
0.00287436

> <i_epik_Tot_Q>
1

> <i_epik_Tot_abs_Q>
1

> <r_epik_Metal_State_Penalty>
-0

> <b_epik_Metal_Only>
0

> <s_lp_Force_Field>
OPLS_2005

> <r_lp_Energy>
52.9518

> <b_lp_Chiralities_Consistent>
1

> <s_lp_Variant>
AV-unprocessed.smi:1976-2

> <Gold.Version>
5.8.1

> <Gold.Id.Protein>
6NUR|6NUR_protein|mol2

> <Gold.PLP.Fitness>
52.2678

> <Gold.PLP.PLP>
-41.1448

> <Gold.PLP.part.hbond>
-2.0000

> <Gold.PLP.part.metal>
0.0000

> <Gold.PLP.part.buried>
-0.5030

> <Gold.PLP.part.nonpolar>
-40.3992

> <Gold.PLP.part.repulsive>
0.1427

> <Gold.PLP.ligand.clash>
0.0000

> <Gold.PLP.ligand.torsion>
0.4611

> <Gold.PLP.Chemscore.Hbond>
3.0000

> <Gold.PLP.Chemscore.CHOScore>
1.0000

> <Gold.PLP.Chemscore.Metal>
0.0000

> <Gold.Chemscore.Hbonds>
donor molecule, donor type, donor heavy atom, donor atom, acceptor molecule, acceptor atom, score
      L1  H    15    30       P1  7957  1.00
      L1  H    19    45       P1  7948  2.00
      L1  C     5    27       P1  8028  1.00

> <Gold.PLP.Chemscore.Internal.Correction>
0.0453

> <Gold.Rescore>
     Score         DG    S(hbond)    S(metal)    S(lipo)     H(rot)  DE(clash)    DE(int)     intcor
     16.21     -16.90       1.98        0.00      75.63       1.58       0.12       0.58       ----

> <Gold.Chemscore.Fitness>
16.2073

> <Gold.Chemscore.DG>
-16.9024

> <Gold.Chemscore.ZeroCoef>
-5.4800

> <Gold.Chemscore.Hbond>
1.9837

> <Gold.Chemscore.Metal>
0.0000

> <Gold.Chemscore.Lipo>
75.6329

> <Gold.Chemscore.Internal_Hbond>
0.0000

> <Gold.Chemscore.DEClash>
0.1189

> <Gold.Chemscore.DEInternal>
0.5762

> <Gold.Chemscore.Rot>
1.5830

> <Gold.Chemscore.Internal.Correction>
   9.000000E+99

> <Gold.Chemscore.Hbonds>
donor molecule, donor type, donor heavy atom, donor atom, acceptor molecule, acceptor atom, score
      L1  H    15    30       P1  7957  1.00
      L1  H    19    45       P1  7948  0.99

> <Gold.Chemscore.Hbond.Weighted>
-6.6257

> <Gold.Chemscore.Metal.Weighted>
-0.0000

> <Gold.Chemscore.Lipo.Weighted>
-8.8491

> <Gold.Chemscore.Internal_Hbond.Weighted>
0.0000

> <Gold.Chemscore.DEClash.Weighted>
0.1189

> <Gold.Chemscore.DEInternal.Weighted>
0.5762

> <Gold.Chemscore.Rot.Weighted>
4.0524

> <Gold.Chemscore.Internal.Correction.Weighted>
   9.000000E+99

> <Gold.Protein.RotatedTorsions>
[ 6907 6896 6895 6894 ] final  -58.64 input  -60.11 | X-H torsion
[ 7974 7965 7964 7962 ] final   -0.18 input  175.53 | X-H torsion
[ 8008 7997 7996 7995 ] final -100.91 input   59.86 | X-H torsion
[ 10167 10162 10161 10158 ] final   62.83 input  -65.29 | X-H torsion
[ 10718 10713 10712 10709 ] final  113.32 input   66.30 | X-H torsion
[ 10763 10752 10751 10750 ] final   28.24 input  -60.55 | X-H torsion
[ 11005 11000 10999 10996 ] final  -83.70 input  -57.11 | X-H torsion

> <Gold.Protein.ActiveResidues>
 VAL166  LYS551  ARG553  GLY616  TRP617  ASP618  TYR619  PRO620  LYS621  CYS622 
 ASP623  PHE694  ASN695  SER759  ASP760  ASP761  ALA762  ILE779  LEU786  VAL792 
 PHE793  MET794  SER795  GLU796  ALA797  LYS798  CYS799  TRP800  GLU811  SER814 

> <Gold.Protein.RotatedAtoms>
  150.7991  134.7072  159.6582 H   0  0  0  0  0  0  0  0  0  0  0  0  # atno 6907 bound_to 6896
  152.4106  134.6127  160.0040 H   0  0  0  0  0  0  0  0  0  0  0  0  # atno 6908 bound_to 6896
  151.6372  133.3291  159.3158 H   0  0  0  0  0  0  0  0  0  0  0  0  # atno 6909 bound_to 6896
  146.2429  140.1232  142.8340 H   0  0  0  0  0  0  0  0  0  0  0  0  # atno 7974 bound_to 7965
  154.8352  140.0438  157.1504 H   0  0  0  0  0  0  0  0  0  0  0  0  # atno 8008 bound_to 7997
  154.9108  140.3013  155.5247 H   0  0  0  0  0  0  0  0  0  0  0  0  # atno 8009 bound_to 7997
  156.2989  140.2358  156.4147 H   0  0  0  0  0  0  0  0  0  0  0  0  # atno 8010 bound_to 7997
  140.1397  144.4565  150.6818 H   0  0  0  0  0  0  0  0  0  0  0  0  # atno 10167 bound_to 10162
  157.6344  131.0982  150.7024 H   0  0  0  0  0  0  0  0  0  0  0  0  # atno 10718 bound_to 10713
  153.0504  135.6518  154.0708 H   0  0  0  0  0  0  0  0  0  0  0  0  # atno 10763 bound_to 10752
  154.0398  135.2904  155.3358 H   0  0  0  0  0  0  0  0  0  0  0  0  # atno 10764 bound_to 10752
  154.6789  135.5327  153.8302 H   0  0  0  0  0  0  0  0  0  0  0  0  # atno 10765 bound_to 10752
  141.1656  133.7308  156.8759 H   0  0  0  0  0  0  0  0  0  0  0  0  # atno 11005 bound_to 11000
  145.0389  140.8930  143.5064 LP  0  0  0  0  0  0  0  0  0  0  0  0  # atno 17320 bound_to 7965
  145.1309  139.2633  143.5540 LP  0  0  0  0  0  0  0  0  0  0  0  0  # atno 17321 bound_to 7965
  140.6768  143.2308  151.5487 LP  0  0  0  0  0  0  0  0  0  0  0  0  # atno 17342 bound_to 10162
  139.5478  144.2474  152.1475 LP  0  0  0  0  0  0  0  0  0  0  0  0  # atno 17343 bound_to 10162
  156.7358  130.4723  149.5489 LP  0  0  0  0  0  0  0  0  0  0  0  0  # atno 17370 bound_to 10713
  156.1572  130.6350  151.0673 LP  0  0  0  0  0  0  0  0  0  0  0  0  # atno 17371 bound_to 10713
  140.1749  134.9074  157.2878 LP  0  0  0  0  0  0  0  0  0  0  0  0  # atno 17394 bound_to 11000
  140.2460  134.3739  155.7461 LP  0  0  0  0  0  0  0  0  0  0  0  0  # atno 17395 bound_to 11000

$$$$
