AV-unprocessed.smi:1464|AV-procd|sdf|5950|dock5
  -GOLD-   22720 6 33D 1   1.00000     0.00000
 Structure written by MMmdl.
 41 42  0  0  0  0  0  0  0  0  1 V2000
  152.7892  143.4924  162.6873 C   0  0  0  0  0  0  0  0  0  0  0  0
  152.3018  143.5029  161.2274 C   0  0  1  0  0  0  0  0  0  0  0  0
  152.0994  144.9580  160.7564 C   0  0  0  0  0  0  0  0  0  0  0  0
  151.6002  145.0339  159.3075 C   0  0  0  0  0  0  0  0  0  0  0  0
  152.5556  144.2959  158.3594 C   0  0  0  0  0  0  0  0  0  0  0  0
  152.7752  142.8329  158.7928 C   0  0  2  0  0  0  0  0  0  0  0  0
  151.5637  142.0393  158.5819 N   0  0  0  0  0  0  0  0  0  0  0  0
  151.4934  140.8831  157.9056 C   0  0  0  0  0  0  0  0  0  0  0  0
  152.4627  140.3640  157.3503 O   0  0  0  0  0  0  0  0  0  0  0  0
  150.1051  140.2315  157.8310 C   0  0  0  0  0  0  0  0  0  0  0  0
  149.5886  140.1288  156.4587 N   0  0  0  0  0  0  0  0  0  0  0  0
  149.2718  141.3477  155.8782 N   0  0  0  0  0  0  0  0  0  0  0  0
  148.8211  141.3881  154.6697 C   0  0  0  0  0  0  0  0  0  0  0  0
  148.5239  142.6163  154.1322 O   0  0  0  0  0  0  0  0  0  0  0  0
  148.6323  140.1780  153.9000 C   0  0  0  0  0  0  0  0  0  0  0  0
  148.9389  138.9952  154.4763 C   0  0  0  0  0  0  0  0  0  0  0  0
  149.4528  138.9132  155.8447 C   0  0  0  0  0  0  0  0  0  0  0  0
  149.7379  137.8498  156.3954 O   0  0  0  0  0  0  0  0  0  0  0  0
  153.2554  142.7407  160.2646 C   0  0  2  0  0  0  0  0  0  0  0  0
  153.4931  141.2751  160.6826 C   0  0  0  0  0  0  0  0  0  0  0  0
  148.7117  143.2412  154.8157 H   0  0  0  0  0  0  0  0  0  0  0  0
  153.7938  143.9076  162.7733 H   0  0  0  0  0  0  0  0  0  0  0  0
  152.8044  142.4850  163.1021 H   0  0  0  0  0  0  0  0  0  0  0  0
  152.1308  144.0853  163.3231 H   0  0  0  0  0  0  0  0  0  0  0  0
  151.3287  143.0101  161.2075 H   0  0  0  0  0  0  0  0  0  0  0  0
  151.3880  145.4653  161.4090 H   0  0  0  0  0  0  0  0  0  0  0  0
  153.0388  145.5061  160.8430 H   0  0  0  0  0  0  0  0  0  0  0  0
  150.6005  144.6034  159.2384 H   0  0  0  0  0  0  0  0  0  0  0  0
  151.5077  146.0763  159.0016 H   0  0  0  0  0  0  0  0  0  0  0  0
  152.1769  144.3400  157.3374 H   0  0  0  0  0  0  0  0  0  0  0  0
  153.5159  144.8131  158.3472 H   0  0  0  0  0  0  0  0  0  0  0  0
  153.5652  142.4154  158.1656 H   0  0  0  0  0  0  0  0  0  0  0  0
  150.7147  142.3942  158.9978 H   0  0  0  0  0  0  0  0  0  0  0  0
  150.1367  139.2412  158.2899 H   0  0  0  0  0  0  0  0  0  0  0  0
  149.4241  140.8187  158.4497 H   0  0  0  0  0  0  0  0  0  0  0  0
  148.2548  140.2292  152.8894 H   0  0  0  0  0  0  0  0  0  0  0  0
  148.8029  138.0838  153.9126 H   0  0  0  0  0  0  0  0  0  0  0  0
  154.2254  143.2385  160.3090 H   0  0  0  0  0  0  0  0  0  0  0  0
  152.5556  140.7294  160.7929 H   0  0  0  0  0  0  0  0  0  0  0  0
  154.0294  141.2089  161.6288 H   0  0  0  0  0  0  0  0  0  0  0  0
  154.0963  140.7507  159.9410 H   0  0  0  0  0  0  0  0  0  0  0  0
  1  2  1  0  0  0  0
  1 22  1  0  0  0  0
  1 23  1  0  0  0  0
  1 24  1  0  0  0  0
  2 19  1  0  0  0  0
  2  3  1  0  0  0  0
  2 25  1  0  0  0  0
  3  4  1  0  0  0  0
  3 26  1  0  0  0  0
  3 27  1  0  0  0  0
  4  5  1  0  0  0  0
  4 28  1  0  0  0  0
  4 29  1  0  0  0  0
  5  6  1  0  0  0  0
  5 30  1  0  0  0  0
  5 31  1  0  0  0  0
  6  7  1  0  0  0  0
  6 19  1  0  0  0  0
  6 32  1  0  0  0  0
  7  8  1  0  0  0  0
  7 33  1  0  0  0  0
  8  9  2  0  0  0  0
  8 10  1  0  0  0  0
 10 34  1  0  0  0  0
 10 35  1  0  0  0  0
 10 11  1  0  0  0  0
 11 12  1  0  0  0  0
 11 17  1  0  0  0  0
 12 13  2  0  0  0  0
 13 14  1  0  0  0  0
 13 15  1  0  0  0  0
 14 21  1  0  0  0  0
 15 36  1  0  0  0  0
 15 16  2  0  0  0  0
 16 37  1  0  0  0  0
 16 17  1  0  0  0  0
 17 18  2  0  0  0  0
 19 20  1  0  0  0  0
 19 38  1  0  0  0  0
 20 39  1  0  0  0  0
 20 40  1  0  0  0  0
 20 41  1  0  0  0  0
M  END
> <s_m_source_file>
AV-unprocessed.smi

> <i_m_source_file_index>
1464

> <i_lp_mmshare_version>
43012

> <i_f3d_flags>
0

> <s_epik_input>
W0NIM11bQ0BASF0xW0NIMl1bQ0gyXVtDSDJdW0NASF0oW0NASF0xW0NIM10pW05IXUMoPU8pW0NIMl1uMltuSF1jKD1PKVtjSF1bY0hdYzI9Tw==

> <s_epik_cmdline>
J2VwaWtfcHl0aG9uJywgJy1waCcsICc3LjAnLCAnLXRuJywgJzgnLCAnLW1hJywgJzIwMCcsICctbWV0YWxfYmluZGluZycsICctaW1hZScsICc8aW5maWxlLm1hZT4nLCAnLW9tYWUnLCAnPG91dGZpbGUubWFlPic=

> <r_lp_tautomer_probability>
0.9996

> <r_epik_Ionization_Penalty>
2.10335

> <r_epik_Ionization_Penalty_Charging>
3.98079e-08

> <r_epik_Ionization_Penalty_Neutral>
2.10335

> <r_epik_State_Penalty>
1.67957

> <r_epik_Charging_Adjusted_Penalty>
1.67957

> <i_epik_Tot_Q>
0

> <i_epik_Tot_abs_Q>
0

> <r_epik_Metal_State_Penalty>
1.67957

> <b_epik_Metal_Only>
0

> <s_lp_Force_Field>
OPLS_2005

> <r_lp_Energy>
23.2489

> <b_lp_Chiralities_Consistent>
1

> <s_lp_Variant>
AV-unprocessed.smi:1464-16

> <Gold.Version>
5.8.1

> <Gold.Id.Protein>
6NUR|6NUR_protein|mol2

> <Gold.PLP.Fitness>
50.2080

> <Gold.PLP.PLP>
-44.3955

> <Gold.PLP.part.hbond>
-3.5112

> <Gold.PLP.part.metal>
0.0000

> <Gold.PLP.part.buried>
-0.9340

> <Gold.PLP.part.nonpolar>
-39.1609

> <Gold.PLP.part.repulsive>
0.1693

> <Gold.PLP.ligand.clash>
0.0000

> <Gold.PLP.ligand.torsion>
0.1709

> <Gold.PLP.Chemscore.Hbond>
2.0474

> <Gold.PLP.Chemscore.CHOScore>
0.0000

> <Gold.PLP.Chemscore.Metal>
0.0000

> <Gold.Chemscore.Hbonds>
donor molecule, donor type, donor heavy atom, donor atom, acceptor molecule, acceptor atom, score
      L1  H    14    21       P1  8028  1.00
      P1  H  7997  8008       L1     9  0.90
      P1  H  8011  8017       L1    14  0.04

> <Gold.PLP.Chemscore.Internal.Correction>
0.0122

> <Gold.Rescore>
     Score         DG    S(hbond)    S(metal)    S(lipo)     H(rot)  DE(clash)    DE(int)     intcor
     19.18     -19.64       1.95        0.00     114.00       2.22       0.33       0.13       ----

> <Gold.Chemscore.Fitness>
19.1823

> <Gold.Chemscore.DG>
-19.6420

> <Gold.Chemscore.ZeroCoef>
-5.4800

> <Gold.Chemscore.Hbond>
1.9500

> <Gold.Chemscore.Metal>
0.0000

> <Gold.Chemscore.Lipo>
114.0045

> <Gold.Chemscore.Internal_Hbond>
0.0000

> <Gold.Chemscore.DEClash>
0.3261

> <Gold.Chemscore.DEInternal>
0.1336

> <Gold.Chemscore.Rot>
2.2224

> <Gold.Chemscore.Internal.Correction>
   9.000000E+99

> <Gold.Chemscore.Hbonds>
donor molecule, donor type, donor heavy atom, donor atom, acceptor molecule, acceptor atom, score
      L1  H    14    21       P1  8028  1.00
      P1  H  7997  8008       L1     9  0.83
      P1  H  8011  8017       L1    14  0.01

> <Gold.Chemscore.Hbond.Weighted>
-6.5128

> <Gold.Chemscore.Metal.Weighted>
-0.0000

> <Gold.Chemscore.Lipo.Weighted>
-13.3385

> <Gold.Chemscore.Internal_Hbond.Weighted>
0.0000

> <Gold.Chemscore.DEClash.Weighted>
0.3261

> <Gold.Chemscore.DEInternal.Weighted>
0.1336

> <Gold.Chemscore.Rot.Weighted>
5.6893

> <Gold.Chemscore.Internal.Correction.Weighted>
   9.000000E+99

> <Gold.Protein.RotatedTorsions>
[ 6907 6896 6895 6894 ] final  123.32 input  -60.11 | X-H torsion
[ 7974 7965 7964 7962 ] final  165.55 input  175.53 | X-H torsion
[ 8008 7997 7996 7995 ] final  -63.01 input   59.86 | X-H torsion
[ 10167 10162 10161 10158 ] final  -49.40 input  -65.29 | X-H torsion
[ 10718 10713 10712 10709 ] final  -23.37 input   66.30 | X-H torsion
[ 10763 10752 10751 10750 ] final  -70.38 input  -60.55 | X-H torsion
[ 11005 11000 10999 10996 ] final   14.55 input  -57.11 | X-H torsion

> <Gold.Protein.ActiveResidues>
 VAL166  LYS551  ARG553  GLY616  TRP617  ASP618  TYR619  PRO620  LYS621  CYS622 
 ASP623  PHE694  ASN695  SER759  ASP760  ASP761  ALA762  ILE779  LEU786  VAL792 
 PHE793  MET794  SER795  GLU796  ALA797  LYS798  CYS799  TRP800  GLU811  SER814 

> <Gold.Protein.RotatedAtoms>
  152.4171  133.7056  159.6448 H   0  0  0  0  0  0  0  0  0  0  0  0  # atno 6907 bound_to 6896
  150.8048  133.8520  159.3217 H   0  0  0  0  0  0  0  0  0  0  0  0  # atno 6908 bound_to 6896
  151.6247  135.1030  160.0160 H   0  0  0  0  0  0  0  0  0  0  0  0  # atno 6909 bound_to 6896
  144.7498  139.8486  143.6370 H   0  0  0  0  0  0  0  0  0  0  0  0  # atno 7974 bound_to 7965
  154.4531  140.0984  156.6676 H   0  0  0  0  0  0  0  0  0  0  0  0  # atno 8008 bound_to 7997
  155.5223  140.3479  155.4391 H   0  0  0  0  0  0  0  0  0  0  0  0  # atno 8009 bound_to 7997
  156.0722  140.1352  156.9804 H   0  0  0  0  0  0  0  0  0  0  0  0  # atno 8010 bound_to 7997
  140.6687  143.2699  151.4210 H   0  0  0  0  0  0  0  0  0  0  0  0  # atno 10167 bound_to 10162
  156.4919  130.4568  149.6750 H   0  0  0  0  0  0  0  0  0  0  0  0  # atno 10718 bound_to 10713
  154.4168  135.5996  153.5985 H   0  0  0  0  0  0  0  0  0  0  0  0  # atno 10763 bound_to 10752
  152.9792  135.5942  154.4004 H   0  0  0  0  0  0  0  0  0  0  0  0  # atno 10764 bound_to 10752
  154.3824  135.2841  155.2182 H   0  0  0  0  0  0  0  0  0  0  0  0  # atno 10765 bound_to 10752
  140.4682  134.1058  155.7728 H   0  0  0  0  0  0  0  0  0  0  0  0  # atno 11005 bound_to 11000
  146.1432  139.4494  143.0096 LP  0  0  0  0  0  0  0  0  0  0  0  0  # atno 17320 bound_to 7965
  145.6986  141.0143  143.1516 LP  0  0  0  0  0  0  0  0  0  0  0  0  # atno 17321 bound_to 7965
  139.5945  144.1426  152.2128 LP  0  0  0  0  0  0  0  0  0  0  0  0  # atno 17342 bound_to 10162
  140.0791  144.5715  150.7135 LP  0  0  0  0  0  0  0  0  0  0  0  0  # atno 17343 bound_to 10162
  156.3417  130.7386  151.2332 LP  0  0  0  0  0  0  0  0  0  0  0  0  # atno 17370 bound_to 10713
  157.7473  131.0401  150.4585 LP  0  0  0  0  0  0  0  0  0  0  0  0  # atno 17371 bound_to 10713
  141.1589  133.8830  157.1901 LP  0  0  0  0  0  0  0  0  0  0  0  0  # atno 17394 bound_to 11000
  139.9902  135.0067  156.9957 LP  0  0  0  0  0  0  0  0  0  0  0  0  # atno 17395 bound_to 11000

$$$$
