AV-unprocessed.smi:720|AV-procd|sdf|3501|dock7
  -GOLD-   22720 0493D 1   1.00000     0.00000
 Structure written by MMmdl.
 46 48  0  0  0  0  0  0  0  0  1 V2000
  151.7996  144.4771  157.6153 C   0  0  0  0  0  0  0  0  0  0  0  0
  151.4529  143.3451  158.4665 N   0  0  0  0  0  0  0  0  0  0  0  0
  152.6895  142.7127  158.9066 C   0  0  0  0  0  0  0  0  0  0  0  0
  150.6385  142.3552  157.7596 C   0  0  0  0  0  0  0  0  0  0  0  0
  151.3616  141.6989  156.5637 C   0  0  0  0  0  0  0  0  0  0  0  0
  150.4894  140.8804  155.7385 N   0  0  0  0  0  0  0  0  0  0  0  0
  149.4132  141.2790  154.9698 C   0  0  0  0  0  0  0  0  0  0  0  0
  148.9168  140.1689  154.3476 C   0  0  0  0  0  0  0  0  0  0  0  0
  149.7772  139.1304  154.7980 C   0  0  0  0  0  0  0  0  0  0  0  0
  149.5865  137.7946  154.3625 N   0  0  0  0  0  0  0  0  0  0  0  0
  149.3231  136.7103  155.1179 C   0  0  0  0  0  0  0  0  0  0  0  0
  149.1782  136.7278  156.3389 O   0  0  0  0  0  0  0  0  0  0  0  0
  149.2088  135.5665  154.4193 N   0  0  0  0  0  0  0  0  0  0  0  0
  148.9289  134.2227  154.9300 C   0  0  2  0  0  0  0  0  0  0  0  0
  150.1493  133.2755  154.8492 C   0  0  0  0  0  0  0  0  0  0  0  0
  149.6228  132.1105  153.9910 C   0  0  1  0  0  0  0  0  0  0  0  0
  148.5678  131.3177  154.7874 C   0  0  0  0  0  0  0  0  0  0  0  0
  147.3583  132.2736  154.8002 C   0  0  0  0  0  0  0  0  0  0  0  0
  147.8938  133.5011  154.0398 C   0  0  2  0  0  0  0  0  0  0  0  0
  148.7626  132.8438  152.9713 C   0  0  0  0  0  0  0  0  0  0  0  0
  150.7267  139.5558  155.6191 N   0  0  0  0  0  0  0  0  0  0  0  0
  150.9165  145.0546  157.3489 H   0  0  0  0  0  0  0  0  0  0  0  0
  152.2906  144.1510  156.6973 H   0  0  0  0  0  0  0  0  0  0  0  0
  152.4734  145.1562  158.1389 H   0  0  0  0  0  0  0  0  0  0  0  0
  152.4797  141.8802  159.5792 H   0  0  0  0  0  0  0  0  0  0  0  0
  153.3119  143.4235  159.4514 H   0  0  0  0  0  0  0  0  0  0  0  0
  153.2652  142.3326  158.0612 H   0  0  0  0  0  0  0  0  0  0  0  0
  150.2455  141.6073  158.4500 H   0  0  0  0  0  0  0  0  0  0  0  0
  149.7703  142.8770  157.3546 H   0  0  0  0  0  0  0  0  0  0  0  0
  151.7622  142.4818  155.9189 H   0  0  0  0  0  0  0  0  0  0  0  0
  152.2188  141.1122  156.8991 H   0  0  0  0  0  0  0  0  0  0  0  0
  149.0928  142.3096  154.9314 H   0  0  0  0  0  0  0  0  0  0  0  0
  148.0735  140.1113  153.6754 H   0  0  0  0  0  0  0  0  0  0  0  0
  149.6563  137.6435  153.3670 H   0  0  0  0  0  0  0  0  0  0  0  0
  149.3014  135.6429  153.4166 H   0  0  0  0  0  0  0  0  0  0  0  0
  148.5525  134.2995  155.9517 H   0  0  0  0  0  0  0  0  0  0  0  0
  150.9979  133.7539  154.3573 H   0  0  0  0  0  0  0  0  0  0  0  0
  150.4823  132.9457  155.8339 H   0  0  0  0  0  0  0  0  0  0  0  0
  150.4114  131.4884  153.5667 H   0  0  0  0  0  0  0  0  0  0  0  0
  148.3147  130.3865  154.2792 H   0  0  0  0  0  0  0  0  0  0  0  0
  148.9119  131.0685  155.7918 H   0  0  0  0  0  0  0  0  0  0  0  0
  146.5137  131.8293  154.2720 H   0  0  0  0  0  0  0  0  0  0  0  0
  147.0281  132.5174  155.8107 H   0  0  0  0  0  0  0  0  0  0  0  0
  147.1041  134.1498  153.6589 H   0  0  0  0  0  0  0  0  0  0  0  0
  149.3234  133.5584  152.3663 H   0  0  0  0  0  0  0  0  0  0  0  0
  148.2070  132.1750  152.3113 H   0  0  0  0  0  0  0  0  0  0  0  0
  1  2  1  0  0  0  0
  1 22  1  0  0  0  0
  1 23  1  0  0  0  0
  1 24  1  0  0  0  0
  2  3  1  0  0  0  0
  2  4  1  0  0  0  0
  3 25  1  0  0  0  0
  3 26  1  0  0  0  0
  3 27  1  0  0  0  0
  4  5  1  0  0  0  0
  4 28  1  0  0  0  0
  4 29  1  0  0  0  0
  5  6  1  0  0  0  0
  5 30  1  0  0  0  0
  5 31  1  0  0  0  0
  6 21  1  0  0  0  0
  6  7  1  0  0  0  0
  7  8  2  0  0  0  0
  7 32  1  0  0  0  0
  8  9  1  0  0  0  0
  8 33  1  0  0  0  0
  9 10  1  0  0  0  0
  9 21  2  0  0  0  0
 10 11  1  0  0  0  0
 10 34  1  0  0  0  0
 11 12  2  0  0  0  0
 11 13  1  0  0  0  0
 13 14  1  0  0  0  0
 13 35  1  0  0  0  0
 14 19  1  0  0  0  0
 14 15  1  0  0  0  0
 14 36  1  0  0  0  0
 15 16  1  0  0  0  0
 15 37  1  0  0  0  0
 15 38  1  0  0  0  0
 16 20  1  0  0  0  0
 16 17  1  0  0  0  0
 16 39  1  0  0  0  0
 17 18  1  0  0  0  0
 17 40  1  0  0  0  0
 17 41  1  0  0  0  0
 18 19  1  0  0  0  0
 18 42  1  0  0  0  0
 18 43  1  0  0  0  0
 19 20  1  0  0  0  0
 19 44  1  0  0  0  0
 20 45  1  0  0  0  0
 20 46  1  0  0  0  0
M  END
> <s_m_source_file>
AV-unprocessed.smi

> <i_m_source_file_index>
720

> <i_lp_mmshare_version>
43012

> <i_f3d_flags>
0

> <s_epik_input>
W0NIM11OKFtDSDNdKVtDSDJdW0NIMl1uMVtjSF1bY0hdYyhuMSlbTkhdQyg9TylbTkhdW0NASF0oW0NIMl1bQ0BIXTIzKVtDQEhdKFtDSDJdMylbQ0gyXVtDSDJdMg==

> <s_epik_cmdline>
J2VwaWtfcHl0aG9uJywgJy1waCcsICc3LjAnLCAnLXRuJywgJzgnLCAnLW1hJywgJzIwMCcsICctbWV0YWxfYmluZGluZycsICctaW1hZScsICc8aW5maWxlLm1hZT4nLCAnLW9tYWUnLCAnPG91dGZpbGUubWFlPic=

> <r_lp_tautomer_probability>
1

> <r_epik_Ionization_Penalty>
1.83819

> <r_epik_Ionization_Penalty_Charging>
0

> <r_epik_Ionization_Penalty_Neutral>
1.83819

> <r_epik_State_Penalty>
1.95467

> <r_epik_Charging_Adjusted_Penalty>
1.95467

> <i_epik_Tot_Q>
0

> <i_epik_Tot_abs_Q>
0

> <r_epik_Metal_State_Penalty>
1.95467

> <b_epik_Metal_Only>
0

> <s_lp_Force_Field>
OPLS_2005

> <r_lp_Energy>
62.6494

> <b_lp_Chiralities_Consistent>
1

> <s_lp_Variant>
AV-unprocessed.smi:720-7

> <Gold.Version>
5.8.1

> <Gold.Id.Protein>
6NUR|6NUR_protein|mol2

> <Gold.PLP.Fitness>
43.9215

> <Gold.PLP.PLP>
-37.7189

> <Gold.PLP.part.hbond>
-2.0000

> <Gold.PLP.part.metal>
0.0000

> <Gold.PLP.part.buried>
-5.2832

> <Gold.PLP.part.nonpolar>
-31.4731

> <Gold.PLP.part.repulsive>
0.1236

> <Gold.PLP.ligand.clash>
0.0000

> <Gold.PLP.ligand.torsion>
0.7759

> <Gold.PLP.Chemscore.Hbond>
1.5720

> <Gold.PLP.Chemscore.CHOScore>
1.0000

> <Gold.PLP.Chemscore.Metal>
0.0000

> <Gold.Chemscore.Hbonds>
donor molecule, donor type, donor heavy atom, donor atom, acceptor molecule, acceptor atom, score
      L1  H    10    34       P1  7948  0.57
      L1  H    13    35       P1  7948  1.00
      L1  C     7    32       P1  8028  1.00

> <Gold.PLP.Chemscore.Internal.Correction>
0.0384

> <Gold.Rescore>
     Score         DG    S(hbond)    S(metal)    S(lipo)     H(rot)  DE(clash)    DE(int)     intcor
     16.66     -17.49       1.85        0.00      83.26       1.53       0.05       0.79       ----

> <Gold.Chemscore.Fitness>
16.6557

> <Gold.Chemscore.DG>
-17.4943

> <Gold.Chemscore.ZeroCoef>
-5.4800

> <Gold.Chemscore.Hbond>
1.8540

> <Gold.Chemscore.Metal>
0.0000

> <Gold.Chemscore.Lipo>
83.2637

> <Gold.Chemscore.Internal_Hbond>
0.0000

> <Gold.Chemscore.DEClash>
0.0500

> <Gold.Chemscore.DEInternal>
0.7886

> <Gold.Chemscore.Rot>
1.5312

> <Gold.Chemscore.Internal.Correction>
   9.000000E+99

> <Gold.Chemscore.Hbonds>
donor molecule, donor type, donor heavy atom, donor atom, acceptor molecule, acceptor atom, score
      L1  H    10    34       P1  7948  0.46
      L1  H    13    35       P1  7948  0.39

> <Gold.Chemscore.Hbond.Weighted>
-6.1923

> <Gold.Chemscore.Metal.Weighted>
-0.0000

> <Gold.Chemscore.Lipo.Weighted>
-9.7419

> <Gold.Chemscore.Internal_Hbond.Weighted>
0.0000

> <Gold.Chemscore.DEClash.Weighted>
0.0500

> <Gold.Chemscore.DEInternal.Weighted>
0.7886

> <Gold.Chemscore.Rot.Weighted>
3.9199

> <Gold.Chemscore.Internal.Correction.Weighted>
   9.000000E+99

> <Gold.Protein.RotatedTorsions>
[ 6907 6896 6895 6894 ] final -107.19 input  -60.11 | X-H torsion
[ 7974 7965 7964 7962 ] final  156.09 input  175.53 | X-H torsion
[ 8008 7997 7996 7995 ] final  158.29 input   59.86 | X-H torsion
[ 10167 10162 10161 10158 ] final -125.64 input  -65.29 | X-H torsion
[ 10718 10713 10712 10709 ] final   21.22 input   66.30 | X-H torsion
[ 10763 10752 10751 10750 ] final   80.01 input  -60.55 | X-H torsion
[ 11005 11000 10999 10996 ] final  -53.83 input  -57.11 | X-H torsion

> <Gold.Protein.ActiveResidues>
 VAL166  LYS551  ARG553  GLY616  TRP617  ASP618  TYR619  PRO620  LYS621  CYS622 
 ASP623  PHE694  ASN695  SER759  ASP760  ASP761  ALA762  ILE779  LEU786  VAL792 
 PHE793  MET794  SER795  GLU796  ALA797  LYS798  CYS799  TRP800  GLU811  SER814 

> <Gold.Protein.RotatedAtoms>
  150.7430  133.9864  159.3592 H   0  0  0  0  0  0  0  0  0  0  0  0  # atno 6907 bound_to 6896
  151.7808  135.0760  160.0383 H   0  0  0  0  0  0  0  0  0  0  0  0  # atno 6908 bound_to 6896
  152.3275  133.5884  159.5823 H   0  0  0  0  0  0  0  0  0  0  0  0  # atno 6909 bound_to 6896
  144.7984  139.7157  143.6192 H   0  0  0  0  0  0  0  0  0  0  0  0  # atno 7974 bound_to 7965
  156.2312  140.1862  156.7238 H   0  0  0  0  0  0  0  0  0  0  0  0  # atno 8008 bound_to 7997
  154.6026  140.0634  156.9416 H   0  0  0  0  0  0  0  0  0  0  0  0  # atno 8009 bound_to 7997
  155.2149  140.3303  155.4326 H   0  0  0  0  0  0  0  0  0  0  0  0  # atno 8010 bound_to 7997
  139.9799  143.5754  152.2382 H   0  0  0  0  0  0  0  0  0  0  0  0  # atno 10167 bound_to 10162
  157.1354  130.6609  149.5964 H   0  0  0  0  0  0  0  0  0  0  0  0  # atno 10718 bound_to 10713
  153.0998  135.4818  154.8846 H   0  0  0  0  0  0  0  0  0  0  0  0  # atno 10763 bound_to 10752
  154.7366  135.3072  154.8803 H   0  0  0  0  0  0  0  0  0  0  0  0  # atno 10764 bound_to 10752
  153.9423  135.6832  153.4797 H   0  0  0  0  0  0  0  0  0  0  0  0  # atno 10765 bound_to 10752
  141.0995  133.6620  156.4230 H   0  0  0  0  0  0  0  0  0  0  0  0  # atno 11005 bound_to 11000
  146.2259  139.5722  142.9587 LP  0  0  0  0  0  0  0  0  0  0  0  0  # atno 17320 bound_to 7965
  145.5614  141.0404  143.2224 LP  0  0  0  0  0  0  0  0  0  0  0  0  # atno 17321 bound_to 7965
  139.6418  144.7655  151.2324 LP  0  0  0  0  0  0  0  0  0  0  0  0  # atno 17342 bound_to 10162
  140.7493  143.6305  150.8427 LP  0  0  0  0  0  0  0  0  0  0  0  0  # atno 17343 bound_to 10162
  155.9799  130.4796  150.6743 LP  0  0  0  0  0  0  0  0  0  0  0  0  # atno 17370 bound_to 10713
  157.4355  131.0854  151.0996 LP  0  0  0  0  0  0  0  0  0  0  0  0  # atno 17371 bound_to 10713
  140.5056  134.6444  157.5265 LP  0  0  0  0  0  0  0  0  0  0  0  0  # atno 17394 bound_to 11000
  139.9842  134.7088  155.9803 LP  0  0  0  0  0  0  0  0  0  0  0  0  # atno 17395 bound_to 11000

$$$$
