AV-unprocessed.smi:1436|AV-procd|sdf|5859|dock7
  -GOLD-   22720 5533D 1   1.00000     0.00000
 Structure written by MMmdl.
 43 44  0  0  0  0  0  0  0  0  1 V2000
  148.4993  135.9974  155.1244 C   0  0  0  0  0  0  0  0  0  0  0  0
  149.8946  136.5495  155.0722 C   0  0  0  0  0  0  0  0  0  0  0  0
  150.9066  135.7895  155.4548 N   0  0  0  0  0  0  0  0  0  0  0  0
  152.0516  136.5787  155.3157 O   0  0  0  0  0  0  0  0  0  0  0  0
  151.6801  137.7986  154.8520 C   0  0  0  0  0  0  0  0  0  0  0  0
  152.7745  138.7932  154.6615 C   0  0  0  0  0  0  0  0  0  0  0  0
  150.3241  137.8485  154.6730 C   0  0  0  0  0  0  0  0  0  0  0  0
  149.4730  139.0005  154.1966 C   0  0  0  0  0  0  0  0  0  0  0  0
  149.6659  140.1985  155.1268 C   0  0  0  0  0  0  0  0  0  0  0  0
  149.9602  141.2995  154.6624 O   0  0  0  0  0  0  0  0  0  0  0  0
  149.4722  139.9720  156.4357 N   0  0  0  0  0  0  0  0  0  0  0  0
  149.4710  140.9841  157.4877 C   0  0  2  0  0  0  0  0  0  0  0  0
  148.3503  142.0060  157.2440 C   0  0  0  0  0  0  0  0  0  0  0  0
  150.8629  141.6383  157.6814 C   0  0  0  0  0  0  0  0  0  0  0  0
  151.0022  142.6100  158.7726 N   0  0  0  0  0  0  0  0  0  0  0  0
  152.3726  142.6195  159.2762 C   0  0  0  0  0  0  0  0  0  0  0  0
  152.5646  143.6287  160.4208 C   0  0  0  0  0  0  0  0  0  0  0  0
  152.1939  144.9279  159.9736 O   0  0  0  0  0  0  0  0  0  0  0  0
  150.8463  144.9837  159.5196 C   0  0  0  0  0  0  0  0  0  0  0  0
  150.6378  143.9708  158.3811 C   0  0  0  0  0  0  0  0  0  0  0  0
  148.0761  136.1087  156.1228 H   0  0  0  0  0  0  0  0  0  0  0  0
  148.4794  134.9376  154.8686 H   0  0  0  0  0  0  0  0  0  0  0  0
  147.8416  136.5158  154.4269 H   0  0  0  0  0  0  0  0  0  0  0  0
  153.3012  138.9668  155.5999 H   0  0  0  0  0  0  0  0  0  0  0  0
  152.3849  139.7499  154.3145 H   0  0  0  0  0  0  0  0  0  0  0  0
  153.4976  138.4365  153.9280 H   0  0  0  0  0  0  0  0  0  0  0  0
  149.7280  139.3002  153.1800 H   0  0  0  0  0  0  0  0  0  0  0  0
  148.4170  138.7290  154.1739 H   0  0  0  0  0  0  0  0  0  0  0  0
  149.2404  139.0307  156.7176 H   0  0  0  0  0  0  0  0  0  0  0  0
  149.2281  140.4685  158.4186 H   0  0  0  0  0  0  0  0  0  0  0  0
  148.3205  142.7499  158.0405 H   0  0  0  0  0  0  0  0  0  0  0  0
  147.3755  141.5182  157.2118 H   0  0  0  0  0  0  0  0  0  0  0  0
  148.4868  142.5342  156.2997 H   0  0  0  0  0  0  0  0  0  0  0  0
  151.5591  140.8203  157.8717 H   0  0  0  0  0  0  0  0  0  0  0  0
  151.2007  142.0849  156.7450 H   0  0  0  0  0  0  0  0  0  0  0  0
  152.6443  141.6240  159.6288 H   0  0  0  0  0  0  0  0  0  0  0  0
  153.0626  142.8615  158.4661 H   0  0  0  0  0  0  0  0  0  0  0  0
  151.9660  143.3487  161.2889 H   0  0  0  0  0  0  0  0  0  0  0  0
  153.6064  143.6456  160.7409 H   0  0  0  0  0  0  0  0  0  0  0  0
  150.1676  144.7763  160.3482 H   0  0  0  0  0  0  0  0  0  0  0  0
  150.6272  145.9932  159.1712 H   0  0  0  0  0  0  0  0  0  0  0  0
  151.2240  144.2763  157.5134 H   0  0  0  0  0  0  0  0  0  0  0  0
  149.5907  144.0127  158.0887 H   0  0  0  0  0  0  0  0  0  0  0  0
  1  2  1  0  0  0  0
  1 21  1  0  0  0  0
  1 22  1  0  0  0  0
  1 23  1  0  0  0  0
  2  7  1  0  0  0  0
  2  3  2  0  0  0  0
  3  4  1  0  0  0  0
  4  5  1  0  0  0  0
  5  6  1  0  0  0  0
  5  7  2  0  0  0  0
  6 24  1  0  0  0  0
  6 25  1  0  0  0  0
  6 26  1  0  0  0  0
  7  8  1  0  0  0  0
  8  9  1  0  0  0  0
  8 27  1  0  0  0  0
  8 28  1  0  0  0  0
  9 10  2  0  0  0  0
  9 11  1  0  0  0  0
 11 12  1  0  0  0  0
 11 29  1  0  0  0  0
 12 13  1  0  0  0  0
 12 14  1  0  0  0  0
 12 30  1  0  0  0  0
 13 31  1  0  0  0  0
 13 32  1  0  0  0  0
 13 33  1  0  0  0  0
 14 15  1  0  0  0  0
 14 34  1  0  0  0  0
 14 35  1  0  0  0  0
 15 20  1  0  0  0  0
 15 16  1  0  0  0  0
 16 17  1  0  0  0  0
 16 36  1  0  0  0  0
 16 37  1  0  0  0  0
 17 18  1  0  0  0  0
 17 38  1  0  0  0  0
 17 39  1  0  0  0  0
 18 19  1  0  0  0  0
 19 20  1  0  0  0  0
 19 40  1  0  0  0  0
 19 41  1  0  0  0  0
 20 42  1  0  0  0  0
 20 43  1  0  0  0  0
M  END
> <s_m_source_file>
AV-unprocessed.smi

> <i_m_source_file_index>
1436

> <i_lp_mmshare_version>
43012

> <i_f3d_flags>
0

> <s_epik_input>
W0NIM11jMW5vYyhbQ0gzXSljMVtDSDJdQyg9TylbTkhdW0NASF0oW0NIM10pW0NIMl1OMltDSDJdW0NIMl1PW0NIMl1bQ0gyXTI=

> <s_epik_cmdline>
J2VwaWtfcHl0aG9uJywgJy1waCcsICc3LjAnLCAnLXRuJywgJzgnLCAnLW1hJywgJzIwMCcsICctbWV0YWxfYmluZGluZycsICctaW1hZScsICc8aW5maWxlLm1hZT4nLCAnLW9tYWUnLCAnPG91dGZpbGUubWFlPic=

> <r_epik_Ionization_Penalty>
0.234179

> <r_epik_Ionization_Penalty_Charging>
0

> <r_epik_Ionization_Penalty_Neutral>
0.234179

> <r_epik_State_Penalty>
0.224936

> <r_epik_Charging_Adjusted_Penalty>
0.224936

> <i_epik_Tot_Q>
0

> <i_epik_Tot_abs_Q>
0

> <r_epik_Metal_State_Penalty>
0.224936

> <b_epik_Metal_Only>
0

> <s_lp_Force_Field>
OPLS_2005

> <r_lp_Energy>
20.5604

> <b_lp_Chiralities_Consistent>
1

> <s_lp_Variant>
AV-unprocessed.smi:1436-1

> <Gold.Version>
5.8.1

> <Gold.Id.Protein>
6NUR|6NUR_protein|mol2

> <Gold.PLP.Fitness>
36.9428

> <Gold.PLP.PLP>
-33.2693

> <Gold.PLP.part.hbond>
-2.2308

> <Gold.PLP.part.metal>
0.0000

> <Gold.PLP.part.buried>
-4.2249

> <Gold.PLP.part.nonpolar>
-27.4850

> <Gold.PLP.part.repulsive>
0.4252

> <Gold.PLP.ligand.clash>
0.0000

> <Gold.PLP.ligand.torsion>
0.4120

> <Gold.PLP.Chemscore.Hbond>
1.4812

> <Gold.PLP.Chemscore.CHOScore>
0.0000

> <Gold.PLP.Chemscore.Metal>
0.0000

> <Gold.Chemscore.Hbonds>
donor molecule, donor type, donor heavy atom, donor atom, acceptor molecule, acceptor atom, score
      P1  H  7989  7998       L1    10  0.46
      P1  H 10752 10765       L1     4  0.91

> <Gold.PLP.Chemscore.Internal.Correction>
0.0538

> <Gold.Rescore>
     Score         DG    S(hbond)    S(metal)    S(lipo)     H(rot)  DE(clash)    DE(int)     intcor
     15.41     -15.97       1.22        0.00      92.29       1.71       0.14       0.42       ----

> <Gold.Chemscore.Fitness>
15.4106

> <Gold.Chemscore.DG>
-15.9736

> <Gold.Chemscore.ZeroCoef>
-5.4800

> <Gold.Chemscore.Hbond>
1.2228

> <Gold.Chemscore.Metal>
0.0000

> <Gold.Chemscore.Lipo>
92.2940

> <Gold.Chemscore.Internal_Hbond>
0.0000

> <Gold.Chemscore.DEClash>
0.1403

> <Gold.Chemscore.DEInternal>
0.4226

> <Gold.Chemscore.Rot>
1.7145

> <Gold.Chemscore.Internal.Correction>
   9.000000E+99

> <Gold.Chemscore.Hbonds>
donor molecule, donor type, donor heavy atom, donor atom, acceptor molecule, acceptor atom, score
      P1  H  7989  7998       L1    10  0.19
      P1  H 10752 10765       L1     4  0.22

> <Gold.Chemscore.Hbond.Weighted>
-4.0842

> <Gold.Chemscore.Metal.Weighted>
-0.0000

> <Gold.Chemscore.Lipo.Weighted>
-10.7984

> <Gold.Chemscore.Internal_Hbond.Weighted>
0.0000

> <Gold.Chemscore.DEClash.Weighted>
0.1403

> <Gold.Chemscore.DEInternal.Weighted>
0.4226

> <Gold.Chemscore.Rot.Weighted>
4.3891

> <Gold.Chemscore.Internal.Correction.Weighted>
   9.000000E+99

> <Gold.Protein.RotatedTorsions>
[ 6907 6896 6895 6894 ] final   59.44 input  -60.11 | X-H torsion
[ 7974 7965 7964 7962 ] final  -34.22 input  175.53 | X-H torsion
[ 8008 7997 7996 7995 ] final  -11.86 input   59.86 | X-H torsion
[ 10167 10162 10161 10158 ] final   -3.25 input  -65.29 | X-H torsion
[ 10718 10713 10712 10709 ] final  -98.48 input   66.30 | X-H torsion
[ 10763 10752 10751 10750 ] final -177.97 input  -60.55 | X-H torsion
[ 11005 11000 10999 10996 ] final   10.10 input  -57.11 | X-H torsion

> <Gold.Protein.ActiveResidues>
 VAL166  LYS551  ARG553  GLY616  TRP617  ASP618  TYR619  PRO620  LYS621  CYS622 
 ASP623  PHE694  ASN695  SER759  ASP760  ASP761  ALA762  ILE779  LEU786  VAL792 
 PHE793  MET794  SER795  GLU796  ALA797  LYS798  CYS799  TRP800  GLU811  SER814 

> <Gold.Protein.RotatedAtoms>
  152.3915  134.6434  160.0105 H   0  0  0  0  0  0  0  0  0  0  0  0  # atno 6907 bound_to 6896
  151.6666  133.3309  159.3194 H   0  0  0  0  0  0  0  0  0  0  0  0  # atno 6908 bound_to 6896
  150.7830  134.6835  159.6501 H   0  0  0  0  0  0  0  0  0  0  0  0  # atno 6909 bound_to 6896
  146.0847  140.6011  142.8892 H   0  0  0  0  0  0  0  0  0  0  0  0  # atno 7974 bound_to 7965
  154.5427  140.2291  155.8614 H   0  0  0  0  0  0  0  0  0  0  0  0  # atno 8008 bound_to 7997
  156.1874  140.3085  155.9227 H   0  0  0  0  0  0  0  0  0  0  0  0  # atno 8009 bound_to 7997
  155.3225  140.0441  157.3030 H   0  0  0  0  0  0  0  0  0  0  0  0  # atno 8010 bound_to 7997
  140.6883  143.6562  150.8307 H   0  0  0  0  0  0  0  0  0  0  0  0  # atno 10167 bound_to 10162
  156.0109  130.5240  150.6529 H   0  0  0  0  0  0  0  0  0  0  0  0  # atno 10718 bound_to 10713
  154.5536  135.2814  155.0986 H   0  0  0  0  0  0  0  0  0  0  0  0  # atno 10763 bound_to 10752
  154.2422  135.6355  153.5215 H   0  0  0  0  0  0  0  0  0  0  0  0  # atno 10764 bound_to 10752
  153.0009  135.5562  154.6109 H   0  0  0  0  0  0  0  0  0  0  0  0  # atno 10765 bound_to 10752
  140.5182  134.0585  155.7837 H   0  0  0  0  0  0  0  0  0  0  0  0  # atno 11005 bound_to 11000
  144.7318  140.4693  143.6932 LP  0  0  0  0  0  0  0  0  0  0  0  0  # atno 17320 bound_to 7965
  145.6151  139.1517  143.3054 LP  0  0  0  0  0  0  0  0  0  0  0  0  # atno 17321 bound_to 7965
  140.0271  143.5481  152.2776 LP  0  0  0  0  0  0  0  0  0  0  0  0  # atno 17342 bound_to 10162
  139.6261  144.7637  151.2636 LP  0  0  0  0  0  0  0  0  0  0  0  0  # atno 17343 bound_to 10162
  157.4287  131.0846  151.1060 LP  0  0  0  0  0  0  0  0  0  0  0  0  # atno 17370 bound_to 10713
  157.1639  130.6238  149.5619 LP  0  0  0  0  0  0  0  0  0  0  0  0  # atno 17371 bound_to 10713
  141.1348  133.9240  157.2457 LP  0  0  0  0  0  0  0  0  0  0  0  0  # atno 17394 bound_to 11000
  139.9620  135.0151  156.9287 LP  0  0  0  0  0  0  0  0  0  0  0  0  # atno 17395 bound_to 11000

$$$$
