AV-unprocessed.smi:1042|AV-procd|sdf|4537|dock4
  -GOLD-   22720 2563D 1   1.00000     0.00000
 Structure written by MMmdl.
 40 42  0  0  0  0  0  0  0  0  2 V2000
  151.2459  141.0837  156.8208 O   0  0  0  0  0  0  0  0  0  0  0  0
  150.5020  142.0294  156.5598 C   0  0  0  0  0  0  0  0  0  0  0  0
  149.7433  142.0866  155.4553 N   0  0  0  0  0  0  0  0  0  0  0  0
  149.6823  141.0546  154.4245 C   0  0  0  0  0  0  0  0  0  0  0  0
  149.1475  139.7131  154.9645 C   0  0  1  0  0  0  0  0  0  0  0  0
  147.8014  139.2977  154.3797 C   0  0  0  0  0  0  0  0  0  0  0  0
  147.7506  137.8060  154.7003 C   0  0  0  0  0  0  0  0  0  0  0  0
  149.1431  137.3237  154.5687 N   0  3  2  0  0  0  0  0  0  0  0  0
  149.4823  136.2179  155.4899 C   0  0  0  0  0  0  0  0  0  0  0  0
  150.5588  135.3005  154.9609 C   0  0  0  0  0  0  0  0  0  0  0  0
  149.1131  134.8534  154.9590 C   0  0  0  0  0  0  0  0  0  0  0  0
  150.0411  138.4976  154.6780 C   0  0  0  0  0  0  0  0  0  0  0  0
  150.3393  143.1257  157.3213 N   0  0  0  0  0  0  0  0  0  0  0  0
  150.9970  143.4547  158.5369 C   0  0  0  0  0  0  0  0  0  0  0  0
  150.9807  144.8269  158.8746 C   0  0  0  0  0  0  0  0  0  0  0  0
  151.6103  145.2564  160.0591 C   0  0  0  0  0  0  0  0  0  0  0  0
  152.2416  144.3014  160.8760 C   0  0  0  0  0  0  0  0  0  0  0  0
  152.2124  142.9557  160.4665 C   0  0  0  0  0  0  0  0  0  0  0  0
  151.6102  142.5420  159.3313 N   0  0  0  0  0  0  0  0  0  0  0  0
  149.1555  142.8969  155.3242 H   0  0  0  0  0  0  0  0  0  0  0  0
  149.0629  141.4013  153.5956 H   0  0  0  0  0  0  0  0  0  0  0  0
  150.6873  140.9223  154.0228 H   0  0  0  0  0  0  0  0  0  0  0  0
  149.0207  139.7881  156.0458 H   0  0  0  0  0  0  0  0  0  0  0  0
  146.9643  139.8506  154.8072 H   0  0  0  0  0  0  0  0  0  0  0  0
  147.7910  139.4486  153.2990 H   0  0  0  0  0  0  0  0  0  0  0  0
  147.4058  137.6689  155.7267 H   0  0  0  0  0  0  0  0  0  0  0  0
  147.0734  137.2581  154.0442 H   0  0  0  0  0  0  0  0  0  0  0  0
  149.4167  136.4352  156.5548 H   0  0  0  0  0  0  0  0  0  0  0  0
  151.0129  135.5379  154.0004 H   0  0  0  0  0  0  0  0  0  0  0  0
  151.2230  134.8349  155.6865 H   0  0  0  0  0  0  0  0  0  0  0  0
  148.8260  134.0933  155.6827 H   0  0  0  0  0  0  0  0  0  0  0  0
  148.6063  134.7946  153.9974 H   0  0  0  0  0  0  0  0  0  0  0  0
  150.5571  138.6120  153.7240 H   0  0  0  0  0  0  0  0  0  0  0  0
  150.8029  138.3735  155.4495 H   0  0  0  0  0  0  0  0  0  0  0  0
  149.6756  143.8098  156.9895 H   0  0  0  0  0  0  0  0  0  0  0  0
  150.4909  145.5480  158.2360 H   0  0  0  0  0  0  0  0  0  0  0  0
  151.6085  146.3005  160.3352 H   0  0  0  0  0  0  0  0  0  0  0  0
  152.7348  144.5919  161.7919 H   0  0  0  0  0  0  0  0  0  0  0  0
  152.6850  142.1911  161.0651 H   0  0  0  0  0  0  0  0  0  0  0  0
  149.2460  136.9744  153.6267 H   0  0  0  0  0  0  0  0  0  0  0  0
  1  2  2  0  0  0  0
  2  3  1  0  0  0  0
  2 13  1  0  0  0  0
  3  4  1  0  0  0  0
  3 20  1  0  0  0  0
  4  5  1  0  0  0  0
  4 21  1  0  0  0  0
  4 22  1  0  0  0  0
  5 12  1  0  0  0  0
  5  6  1  0  0  0  0
  5 23  1  0  0  0  0
  6  7  1  0  0  0  0
  6 24  1  0  0  0  0
  6 25  1  0  0  0  0
  7  8  1  0  0  0  0
  7 26  1  0  0  0  0
  7 27  1  0  0  0  0
  8  9  1  0  0  0  0
  8 12  1  0  0  0  0
  8 40  1  0  0  0  0
  9 11  1  0  0  0  0
  9 10  1  0  0  0  0
  9 28  1  0  0  0  0
 10 11  1  0  0  0  0
 10 29  1  0  0  0  0
 10 30  1  0  0  0  0
 11 31  1  0  0  0  0
 11 32  1  0  0  0  0
 12 33  1  0  0  0  0
 12 34  1  0  0  0  0
 13 14  1  0  0  0  0
 13 35  1  0  0  0  0
 14 19  1  0  0  0  0
 14 15  2  0  0  0  0
 15 16  1  0  0  0  0
 15 36  1  0  0  0  0
 16 17  2  0  0  0  0
 16 37  1  0  0  0  0
 17 18  1  0  0  0  0
 17 38  1  0  0  0  0
 18 19  2  0  0  0  0
 18 39  1  0  0  0  0
M  CHG  1   8   1
M  END
> <s_m_source_file>
AV-unprocessed.smi

> <i_m_source_file_index>
1042

> <i_lp_mmshare_version>
43012

> <i_f3d_flags>
0

> <s_epik_input>
bjFbY0hdW2NIXVtjSF1bY0hdYzFbTkhdQyg9TylbTkhdW0NIMl1bQ0BASF0yW0NIMl1bQ0gyXU4oW0NIMl0yKVtDSF0zW0NIMl1bQ0gyXTM=

> <s_epik_cmdline>
J2VwaWtfcHl0aG9uJywgJy1waCcsICc3LjAnLCAnLXRuJywgJzgnLCAnLW1hJywgJzIwMCcsICctbWV0YWxfYmluZGluZycsICctaW1hZScsICc8aW5maWxlLm1hZT4nLCAnLW9tYWUnLCAnPG91dGZpbGUubWFlPic=

> <r_lp_tautomer_probability>
1

> <r_epik_Ionization_Penalty>
0.000244736

> <r_epik_Ionization_Penalty_Charging>
0.000203384

> <r_epik_Ionization_Penalty_Neutral>
4.13519e-05

> <r_epik_State_Penalty>
-0

> <r_epik_Charging_Adjusted_Penalty>
0.000203384

> <i_epik_Tot_Q>
1

> <i_epik_Tot_abs_Q>
1

> <r_epik_Metal_State_Penalty>
-0

> <b_epik_Metal_Only>
0

> <s_lp_Force_Field>
OPLS_2005

> <r_lp_Energy>
38.5501

> <b_lp_Chiralities_Consistent>
1

> <s_lp_Variant>
AV-unprocessed.smi:1042-2

> <Gold.Version>
5.8.1

> <Gold.Id.Protein>
6NUR|6NUR_protein|mol2

> <Gold.PLP.Fitness>
45.6962

> <Gold.PLP.PLP>
-35.4089

> <Gold.PLP.part.hbond>
-3.0000

> <Gold.PLP.part.metal>
0.0000

> <Gold.PLP.part.buried>
-3.4749

> <Gold.PLP.part.nonpolar>
-28.5140

> <Gold.PLP.part.repulsive>
0.2070

> <Gold.PLP.ligand.clash>
0.0000

> <Gold.PLP.ligand.torsion>
1.4511

> <Gold.PLP.Chemscore.Hbond>
3.9760

> <Gold.PLP.Chemscore.CHOScore>
0.0000

> <Gold.PLP.Chemscore.Metal>
0.0000

> <Gold.Chemscore.Hbonds>
donor molecule, donor type, donor heavy atom, donor atom, acceptor molecule, acceptor atom, score
      L1  H     3    20       P1  8028  0.96
      L1  H     8    40       P1  7948  2.00
      L1  H    13    35       P1  8028  1.00

> <Gold.PLP.Chemscore.Internal.Correction>
1.2614

> <Gold.Rescore>
     Score         DG    S(hbond)    S(metal)    S(lipo)     H(rot)  DE(clash)    DE(int)     intcor
     18.08     -21.19       2.83        0.00      85.70       1.47       0.47       2.65       ----

> <Gold.Chemscore.Fitness>
18.0760

> <Gold.Chemscore.DG>
-21.1940

> <Gold.Chemscore.ZeroCoef>
-5.4800

> <Gold.Chemscore.Hbond>
2.8301

> <Gold.Chemscore.Metal>
0.0000

> <Gold.Chemscore.Lipo>
85.6971

> <Gold.Chemscore.Internal_Hbond>
0.0000

> <Gold.Chemscore.DEClash>
0.4670

> <Gold.Chemscore.DEInternal>
2.6511

> <Gold.Chemscore.Rot>
1.4707

> <Gold.Chemscore.Internal.Correction>
   9.000000E+99

> <Gold.Chemscore.Hbonds>
donor molecule, donor type, donor heavy atom, donor atom, acceptor molecule, acceptor atom, score
      L1  H     3    20       P1  8028  0.92
      L1  H     8    40       P1  7948  0.98
      L1  H    13    35       P1  8028  0.87

> <Gold.Chemscore.Hbond.Weighted>
-9.4525

> <Gold.Chemscore.Metal.Weighted>
-0.0000

> <Gold.Chemscore.Lipo.Weighted>
-10.0266

> <Gold.Chemscore.Internal_Hbond.Weighted>
0.0000

> <Gold.Chemscore.DEClash.Weighted>
0.4670

> <Gold.Chemscore.DEInternal.Weighted>
2.6511

> <Gold.Chemscore.Rot.Weighted>
3.7650

> <Gold.Chemscore.Internal.Correction.Weighted>
   9.000000E+99

> <Gold.Protein.RotatedTorsions>
[ 6907 6896 6895 6894 ] final  -42.91 input  -60.11 | X-H torsion
[ 7974 7965 7964 7962 ] final  -12.86 input  175.53 | X-H torsion
[ 8008 7997 7996 7995 ] final   80.49 input   59.86 | X-H torsion
[ 10167 10162 10161 10158 ] final -166.97 input  -65.29 | X-H torsion
[ 10718 10713 10712 10709 ] final  -84.81 input   66.30 | X-H torsion
[ 10763 10752 10751 10750 ] final   62.49 input  -60.55 | X-H torsion
[ 11005 11000 10999 10996 ] final -123.98 input  -57.11 | X-H torsion

> <Gold.Protein.ActiveResidues>
 VAL166  LYS551  ARG553  GLY616  TRP617  ASP618  TYR619  PRO620  LYS621  CYS622 
 ASP623  PHE694  ASN695  SER759  ASP760  ASP761  ALA762  ILE779  LEU786  VAL792 
 PHE793  MET794  SER795  GLU796  ALA797  LYS798  CYS799  TRP800  GLU811  SER814 

> <Gold.Protein.RotatedAtoms>
  150.9499  134.8900  159.7665 H   0  0  0  0  0  0  0  0  0  0  0  0  # atno 6907 bound_to 6896
  152.5115  134.3821  159.9365 H   0  0  0  0  0  0  0  0  0  0  0  0  # atno 6908 bound_to 6896
  151.3838  133.3772  159.2748 H   0  0  0  0  0  0  0  0  0  0  0  0  # atno 6909 bound_to 6896
  146.2136  140.3119  142.8383 H   0  0  0  0  0  0  0  0  0  0  0  0  # atno 7974 bound_to 7965
  155.8842  140.3442  155.5909 H   0  0  0  0  0  0  0  0  0  0  0  0  # atno 8008 bound_to 7997
  155.7685  140.0842  157.2139 H   0  0  0  0  0  0  0  0  0  0  0  0  # atno 8009 bound_to 7997
  154.4027  140.1522  156.2902 H   0  0  0  0  0  0  0  0  0  0  0  0  # atno 8010 bound_to 7997
  139.6080  144.0873  152.1813 H   0  0  0  0  0  0  0  0  0  0  0  0  # atno 10167 bound_to 10162
  156.0002  130.4710  150.4466 H   0  0  0  0  0  0  0  0  0  0  0  0  # atno 10718 bound_to 10713
  152.9984  135.5463  154.6201 H   0  0  0  0  0  0  0  0  0  0  0  0  # atno 10763 bound_to 10752
  154.5502  135.2826  155.1017 H   0  0  0  0  0  0  0  0  0  0  0  0  # atno 10764 bound_to 10752
  154.2260  135.6442  153.5212 H   0  0  0  0  0  0  0  0  0  0  0  0  # atno 10765 bound_to 10752
  140.9876  134.0584  157.3692 H   0  0  0  0  0  0  0  0  0  0  0  0  # atno 11005 bound_to 11000
  144.8982  140.7610  143.5883 LP  0  0  0  0  0  0  0  0  0  0  0  0  # atno 17320 bound_to 7965
  145.3044  139.1839  143.4672 LP  0  0  0  0  0  0  0  0  0  0  0  0  # atno 17321 bound_to 7965
  140.0485  144.5951  150.7355 LP  0  0  0  0  0  0  0  0  0  0  0  0  # atno 17342 bound_to 10162
  140.7299  143.2677  151.3990 LP  0  0  0  0  0  0  0  0  0  0  0  0  # atno 17343 bound_to 10162
  157.2502  131.0545  151.2383 LP  0  0  0  0  0  0  0  0  0  0  0  0  # atno 17370 bound_to 10713
  157.3535  130.7094  149.6456 LP  0  0  0  0  0  0  0  0  0  0  0  0  # atno 17371 bound_to 10713
  139.8978  135.0152  156.7116 LP  0  0  0  0  0  0  0  0  0  0  0  0  # atno 17394 bound_to 11000
  140.7089  133.9240  155.8072 LP  0  0  0  0  0  0  0  0  0  0  0  0  # atno 17395 bound_to 11000

$$$$
