AV-unprocessed.smi:1859|AV-procd|sdf|7546|dock7
  -GOLD-   22720 9263D 1   1.00000     0.00000
 Structure written by MMmdl.
 46 48  0  0  0  0  0  0  0  0  2 V2000
  147.6842  139.0434  154.2828 O   0  0  0  0  0  0  0  0  0  0  0  0
  147.3865  139.9710  153.5295 C   0  0  0  0  0  0  0  0  0  0  0  0
  146.8423  139.7765  152.3185 N   0  0  0  0  0  0  0  0  0  0  0  0
  146.5862  138.4713  151.7226 C   0  0  0  0  0  0  0  0  0  0  0  0
  145.9078  137.5207  152.7241 C   0  0  0  0  0  0  0  0  0  0  0  0
  145.5149  136.2040  152.0849 C   0  0  0  0  0  0  0  0  0  0  0  0
  144.1671  135.8094  151.9400 C   0  0  0  0  0  0  0  0  0  0  0  0
  143.8746  134.5638  151.3459 C   0  0  0  0  0  0  0  0  0  0  0  0
  144.9340  133.7408  150.9106 C   0  0  0  0  0  0  0  0  0  0  0  0
  146.2616  134.1848  151.0802 C   0  0  0  0  0  0  0  0  0  0  0  0
  146.5009  135.3842  151.6543 N   0  3  0  0  0  0  0  0  0  0  0  0
  147.6378  141.4355  153.9353 C   0  0  1  0  0  0  0  0  0  0  0  0
  146.8090  141.8735  155.1713 C   0  0  0  0  0  0  0  0  0  0  0  0
  147.4116  141.4155  156.5183 C   0  0  0  0  0  0  0  0  0  0  0  0
  148.9185  141.7194  156.5902 C   0  0  0  0  0  0  0  0  0  0  0  0
  149.5829  141.0983  155.4353 N   0  0  0  0  0  0  0  0  0  0  0  0
  150.3790  139.9999  155.4695 C   0  0  0  0  0  0  0  0  0  0  0  0
  150.8263  139.4795  154.4459 O   0  0  0  0  0  0  0  0  0  0  0  0
  150.7041  139.4367  156.8167 C   0  0  0  0  0  0  0  0  0  0  0  0
  151.3429  140.3576  157.8403 C   0  0  0  0  0  0  0  0  0  0  0  0
  152.1718  139.2977  157.1642 C   0  0  0  0  0  0  0  0  0  0  0  0
  149.1416  141.7164  154.1763 C   0  0  0  0  0  0  0  0  0  0  0  0
  146.6198  140.5883  151.7604 H   0  0  0  0  0  0  0  0  0  0  0  0
  145.9759  138.5868  150.8253 H   0  0  0  0  0  0  0  0  0  0  0  0
  147.5390  138.0517  151.3986 H   0  0  0  0  0  0  0  0  0  0  0  0
  146.5744  137.3267  153.5654 H   0  0  0  0  0  0  0  0  0  0  0  0
  145.0130  137.9835  153.1434 H   0  0  0  0  0  0  0  0  0  0  0  0
  143.3667  136.4499  152.2814 H   0  0  0  0  0  0  0  0  0  0  0  0
  142.8498  134.2431  151.2275 H   0  0  0  0  0  0  0  0  0  0  0  0
  144.7315  132.7830  150.4542 H   0  0  0  0  0  0  0  0  0  0  0  0
  147.1324  133.6214  150.7779 H   0  0  0  0  0  0  0  0  0  0  0  0
  147.3134  142.0524  153.0957 H   0  0  0  0  0  0  0  0  0  0  0  0
  146.7506  142.9625  155.1740 H   0  0  0  0  0  0  0  0  0  0  0  0
  145.7791  141.5237  155.0875 H   0  0  0  0  0  0  0  0  0  0  0  0
  146.8930  141.9097  157.3402 H   0  0  0  0  0  0  0  0  0  0  0  0
  147.2496  140.3470  156.6606 H   0  0  0  0  0  0  0  0  0  0  0  0
  149.0811  142.7978  156.5593 H   0  0  0  0  0  0  0  0  0  0  0  0
  149.3116  141.3977  157.5531 H   0  0  0  0  0  0  0  0  0  0  0  0
  150.0091  138.6986  157.2132 H   0  0  0  0  0  0  0  0  0  0  0  0
  151.5462  141.3918  157.5686 H   0  0  0  0  0  0  0  0  0  0  0  0
  151.0689  140.2029  158.8817 H   0  0  0  0  0  0  0  0  0  0  0  0
  152.4596  138.4222  157.7423 H   0  0  0  0  0  0  0  0  0  0  0  0
  152.9054  139.6272  156.4300 H   0  0  0  0  0  0  0  0  0  0  0  0
  149.7303  141.3864  153.3186 H   0  0  0  0  0  0  0  0  0  0  0  0
  149.3079  142.7931  154.2335 H   0  0  0  0  0  0  0  0  0  0  0  0
  147.4690  135.6859  151.7686 H   0  0  0  0  0  0  0  0  0  0  0  0
  1  2  2  0  0  0  0
  2  3  1  0  0  0  0
  2 12  1  0  0  0  0
  3  4  1  0  0  0  0
  3 23  1  0  0  0  0
  4  5  1  0  0  0  0
  4 24  1  0  0  0  0
  4 25  1  0  0  0  0
  5  6  1  0  0  0  0
  5 26  1  0  0  0  0
  5 27  1  0  0  0  0
  6 11  1  0  0  0  0
  6  7  2  0  0  0  0
  7  8  1  0  0  0  0
  7 28  1  0  0  0  0
  8  9  2  0  0  0  0
  8 29  1  0  0  0  0
  9 10  1  0  0  0  0
  9 30  1  0  0  0  0
 10 11  2  0  0  0  0
 10 31  1  0  0  0  0
 11 46  1  0  0  0  0
 12 22  1  0  0  0  0
 12 13  1  0  0  0  0
 12 32  1  0  0  0  0
 13 14  1  0  0  0  0
 13 33  1  0  0  0  0
 13 34  1  0  0  0  0
 14 15  1  0  0  0  0
 14 35  1  0  0  0  0
 14 36  1  0  0  0  0
 15 16  1  0  0  0  0
 15 37  1  0  0  0  0
 15 38  1  0  0  0  0
 16 17  1  0  0  0  0
 16 22  1  0  0  0  0
 17 18  2  0  0  0  0
 17 19  1  0  0  0  0
 19 21  1  0  0  0  0
 19 20  1  0  0  0  0
 19 39  1  0  0  0  0
 20 21  1  0  0  0  0
 20 40  1  0  0  0  0
 20 41  1  0  0  0  0
 21 42  1  0  0  0  0
 21 43  1  0  0  0  0
 22 44  1  0  0  0  0
 22 45  1  0  0  0  0
M  CHG  1  11   1
M  END
> <s_m_source_file>
AV-unprocessed.smi

> <i_m_source_file_index>
1859

> <i_lp_mmshare_version>
43012

> <i_f3d_flags>
0

> <s_epik_input>
W0NIMl0xW0NIMl1bQ0hdMUMoPU8pTihbQ0gyXTIpW0NIMl1bQ0gyXVtDSDJdW0NASF0yQyg9TylbTkhdW0NIMl1bQ0gyXWMzW2NIXVtjSF1bY0hdW2NIXW4z

> <s_epik_cmdline>
J2VwaWtfcHl0aG9uJywgJy1waCcsICc3LjAnLCAnLXRuJywgJzgnLCAnLW1hJywgJzIwMCcsICctbWV0YWxfYmluZGluZycsICctaW1hZScsICc8aW5maWxlLm1hZT4nLCAnLW9tYWUnLCAnPG91dGZpbGUubWFlPic=

> <r_epik_Ionization_Penalty>
1.84754

> <r_epik_Ionization_Penalty_Charging>
1.84754

> <r_epik_Ionization_Penalty_Neutral>
7.35743e-08

> <r_epik_State_Penalty>
1.96477

> <r_epik_Charging_Adjusted_Penalty>
3.81231

> <i_epik_Tot_Q>
1

> <i_epik_Tot_abs_Q>
1

> <r_epik_Metal_State_Penalty>
1.99062

> <b_epik_Metal_Only>
0

> <s_lp_Force_Field>
OPLS_2005

> <r_lp_Energy>
29.7098

> <b_lp_Chiralities_Consistent>
1

> <s_lp_Variant>
AV-unprocessed.smi:1859-4

> <Gold.Version>
5.8.1

> <Gold.Id.Protein>
6NUR|6NUR_protein|mol2

> <Gold.PLP.Fitness>
46.6288

> <Gold.PLP.PLP>
-37.8478

> <Gold.PLP.part.hbond>
-3.5155

> <Gold.PLP.part.metal>
0.0000

> <Gold.PLP.part.buried>
-2.6536

> <Gold.PLP.part.nonpolar>
-33.0246

> <Gold.PLP.part.repulsive>
0.3967

> <Gold.PLP.ligand.clash>
0.0000

> <Gold.PLP.ligand.torsion>
0.1752

> <Gold.PLP.Chemscore.Hbond>
3.0000

> <Gold.PLP.Chemscore.CHOScore>
0.0000

> <Gold.PLP.Chemscore.Metal>
0.0000

> <Gold.Chemscore.Hbonds>
donor molecule, donor type, donor heavy atom, donor atom, acceptor molecule, acceptor atom, score
      L1  H    11    46       P1  7948  2.00
      P1  H  7989  7998       L1    18  1.00

> <Gold.PLP.Chemscore.Internal.Correction>
0.1313

> <Gold.Rescore>
     Score         DG    S(hbond)    S(metal)    S(lipo)     H(rot)  DE(clash)    DE(int)     intcor
     14.38     -16.91       1.96        0.00      79.02       1.70       0.16       2.37       ----

> <Gold.Chemscore.Fitness>
14.3782

> <Gold.Chemscore.DG>
-16.9140

> <Gold.Chemscore.ZeroCoef>
-5.4800

> <Gold.Chemscore.Hbond>
1.9568

> <Gold.Chemscore.Metal>
0.0000

> <Gold.Chemscore.Lipo>
79.0185

> <Gold.Chemscore.Internal_Hbond>
0.0000

> <Gold.Chemscore.DEClash>
0.1628

> <Gold.Chemscore.DEInternal>
2.3729

> <Gold.Chemscore.Rot>
1.6980

> <Gold.Chemscore.Internal.Correction>
   9.000000E+99

> <Gold.Chemscore.Hbonds>
donor molecule, donor type, donor heavy atom, donor atom, acceptor molecule, acceptor atom, score
      L1  H    11    46       P1  7948  0.95
      P1  H  7989  7998       L1    18  0.55

> <Gold.Chemscore.Hbond.Weighted>
-6.5357

> <Gold.Chemscore.Metal.Weighted>
-0.0000

> <Gold.Chemscore.Lipo.Weighted>
-9.2452

> <Gold.Chemscore.Internal_Hbond.Weighted>
0.0000

> <Gold.Chemscore.DEClash.Weighted>
0.1628

> <Gold.Chemscore.DEInternal.Weighted>
2.3729

> <Gold.Chemscore.Rot.Weighted>
4.3469

> <Gold.Chemscore.Internal.Correction.Weighted>
   9.000000E+99

> <Gold.Protein.RotatedTorsions>
[ 6907 6896 6895 6894 ] final   66.55 input  -60.11 | X-H torsion
[ 7974 7965 7964 7962 ] final  174.77 input  175.53 | X-H torsion
[ 8008 7997 7996 7995 ] final  151.23 input   59.86 | X-H torsion
[ 10167 10162 10161 10158 ] final  -48.13 input  -65.29 | X-H torsion
[ 10718 10713 10712 10709 ] final  -52.37 input   66.30 | X-H torsion
[ 10763 10752 10751 10750 ] final  -56.99 input  -60.55 | X-H torsion
[ 11005 11000 10999 10996 ] final  -36.70 input  -57.11 | X-H torsion

> <Gold.Protein.ActiveResidues>
 VAL166  LYS551  ARG553  GLY616  TRP617  ASP618  TYR619  PRO620  LYS621  CYS622 
 ASP623  PHE694  ASN695  SER759  ASP760  ASP761  ALA762  ILE779  LEU786  VAL792 
 PHE793  MET794  SER795  GLU796  ALA797  LYS798  CYS799  TRP800  GLU811  SER814 

> <Gold.Protein.RotatedAtoms>
  152.4489  134.5436  159.9845 H   0  0  0  0  0  0  0  0  0  0  0  0  # atno 6907 bound_to 6896
  151.5514  133.3411  159.2961 H   0  0  0  0  0  0  0  0  0  0  0  0  # atno 6908 bound_to 6896
  150.8412  134.7737  159.6997 H   0  0  0  0  0  0  0  0  0  0  0  0  # atno 6909 bound_to 6896
  144.7215  139.9847  143.6439 H   0  0  0  0  0  0  0  0  0  0  0  0  # atno 7974 bound_to 7965
  156.2682  140.2053  156.6143 H   0  0  0  0  0  0  0  0  0  0  0  0  # atno 8008 bound_to 7997
  154.6807  140.0540  157.0287 H   0  0  0  0  0  0  0  0  0  0  0  0  # atno 8009 bound_to 7997
  155.1005  140.3205  155.4551 H   0  0  0  0  0  0  0  0  0  0  0  0  # atno 8010 bound_to 7997
  140.6744  143.2753  151.4026 H   0  0  0  0  0  0  0  0  0  0  0  0  # atno 10167 bound_to 10162
  156.1627  130.4149  149.9768 H   0  0  0  0  0  0  0  0  0  0  0  0  # atno 10718 bound_to 10713
  154.2154  135.6387  153.5128 H   0  0  0  0  0  0  0  0  0  0  0  0  # atno 10763 bound_to 10752
  152.9980  135.5484  154.6171 H   0  0  0  0  0  0  0  0  0  0  0  0  # atno 10764 bound_to 10752
  154.5618  135.2909  155.0886 H   0  0  0  0  0  0  0  0  0  0  0  0  # atno 10765 bound_to 10752
  140.9895  133.7012  156.1824 H   0  0  0  0  0  0  0  0  0  0  0  0  # atno 11005 bound_to 11000
  146.0459  139.3465  143.0669 LP  0  0  0  0  0  0  0  0  0  0  0  0  # atno 17320 bound_to 7965
  145.8276  140.9647  143.0866 LP  0  0  0  0  0  0  0  0  0  0  0  0  # atno 17321 bound_to 7965
  139.6029  144.1257  152.2218 LP  0  0  0  0  0  0  0  0  0  0  0  0  # atno 17342 bound_to 10162
  140.0647  144.5828  150.7236 LP  0  0  0  0  0  0  0  0  0  0  0  0  # atno 17343 bound_to 10162
  156.7592  130.9144  151.3641 LP  0  0  0  0  0  0  0  0  0  0  0  0  # atno 17370 bound_to 10713
  157.6745  130.9081  150.0117 LP  0  0  0  0  0  0  0  0  0  0  0  0  # atno 17371 bound_to 10713
  140.7062  134.4510  157.5584 LP  0  0  0  0  0  0  0  0  0  0  0  0  # atno 17394 bound_to 11000
  139.8986  134.8611  156.1996 LP  0  0  0  0  0  0  0  0  0  0  0  0  # atno 17395 bound_to 11000

$$$$
