AV-unprocessed.smi:2165|AV-procd|sdf|8813|dock7
  -GOLD-   2272012 03D 1   1.00000     0.00000
 Structure written by MMmdl.
 36 37  0  0  0  0  0  0  0  0  1 V2000
  153.7725  140.8933  161.6292 C   0  0  0  0  0  0  0  0  0  0  0  0
  153.1364  142.1619  161.3415 N   0  0  0  0  0  0  0  0  0  0  0  0
  152.9144  143.0785  162.3977 C   0  0  0  0  0  0  0  0  0  0  0  0
  153.2446  142.8457  163.5608 O   0  0  0  0  0  0  0  0  0  0  0  0
  152.2584  144.3164  161.9933 C   0  0  0  0  0  0  0  0  0  0  0  0
  151.9036  144.5263  160.7067 C   0  0  0  0  0  0  0  0  0  0  0  0
  152.1266  143.6102  159.6950 N   0  0  0  0  0  0  0  0  0  0  0  0
  151.6926  143.9160  158.3259 C   0  0  0  0  0  0  0  0  0  0  0  0
  150.7457  142.8564  157.7466 C   0  0  0  0  0  0  0  0  0  0  0  0
  149.8394  142.3797  158.4317 O   0  0  0  0  0  0  0  0  0  0  0  0
  150.9615  142.5093  156.4692 N   0  0  0  0  0  0  0  0  0  0  0  0
  150.1975  141.5097  155.7321 C   0  0  0  0  0  0  0  0  0  0  0  0
  151.1193  140.4796  155.0583 C   0  0  1  0  0  0  0  0  0  0  0  0
  151.8098  139.5370  156.0420 C   0  0  0  0  0  0  0  0  0  0  0  0
  152.0996  138.3418  155.1640 C   0  0  0  0  0  0  0  0  0  0  0  0
  150.8455  138.2826  154.2968 C   0  0  0  0  0  0  0  0  0  0  0  0
  150.3720  139.6236  154.1968 O   0  0  0  0  0  0  0  0  0  0  0  0
  152.7572  142.3850  159.9996 C   0  0  0  0  0  0  0  0  0  0  0  0
  152.9615  141.5452  159.1190 O   0  0  0  0  0  0  0  0  0  0  0  0
  154.1367  140.8560  162.6554 H   0  0  0  0  0  0  0  0  0  0  0  0
  154.6167  140.7860  160.9457 H   0  0  0  0  0  0  0  0  0  0  0  0
  153.0241  140.1168  161.4629 H   0  0  0  0  0  0  0  0  0  0  0  0
  152.0513  145.0739  162.7349 H   0  0  0  0  0  0  0  0  0  0  0  0
  151.4157  145.4580  160.4594 H   0  0  0  0  0  0  0  0  0  0  0  0
  151.1796  144.8783  158.3033 H   0  0  0  0  0  0  0  0  0  0  0  0
  152.5628  144.0298  157.6765 H   0  0  0  0  0  0  0  0  0  0  0  0
  151.7267  142.9499  155.9796 H   0  0  0  0  0  0  0  0  0  0  0  0
  149.4971  141.0099  156.4032 H   0  0  0  0  0  0  0  0  0  0  0  0
  149.5951  142.0211  154.9807 H   0  0  0  0  0  0  0  0  0  0  0  0
  151.8811  140.9794  154.4576 H   0  0  0  0  0  0  0  0  0  0  0  0
  152.7064  139.9692  156.4870 H   0  0  0  0  0  0  0  0  0  0  0  0
  151.1303  139.2517  156.8466 H   0  0  0  0  0  0  0  0  0  0  0  0
  152.9768  138.5361  154.5452 H   0  0  0  0  0  0  0  0  0  0  0  0
  152.2735  137.4247  155.7275 H   0  0  0  0  0  0  0  0  0  0  0  0
  151.0412  137.8546  153.3135 H   0  0  0  0  0  0  0  0  0  0  0  0
  150.0755  137.6808  154.7808 H   0  0  0  0  0  0  0  0  0  0  0  0
  1  2  1  0  0  0  0
  1 20  1  0  0  0  0
  1 21  1  0  0  0  0
  1 22  1  0  0  0  0
  2 18  1  0  0  0  0
  2  3  1  0  0  0  0
  3  4  2  0  0  0  0
  3  5  1  0  0  0  0
  5  6  2  0  0  0  0
  5 23  1  0  0  0  0
  6  7  1  0  0  0  0
  6 24  1  0  0  0  0
  7  8  1  0  0  0  0
  7 18  1  0  0  0  0
  8  9  1  0  0  0  0
  8 25  1  0  0  0  0
  8 26  1  0  0  0  0
  9 10  2  0  0  0  0
  9 11  1  0  0  0  0
 11 12  1  0  0  0  0
 11 27  1  0  0  0  0
 12 13  1  0  0  0  0
 12 28  1  0  0  0  0
 12 29  1  0  0  0  0
 13 17  1  0  0  0  0
 13 14  1  0  0  0  0
 13 30  1  0  0  0  0
 14 15  1  0  0  0  0
 14 31  1  0  0  0  0
 14 32  1  0  0  0  0
 15 16  1  0  0  0  0
 15 33  1  0  0  0  0
 15 34  1  0  0  0  0
 16 17  1  0  0  0  0
 16 35  1  0  0  0  0
 16 36  1  0  0  0  0
 18 19  2  0  0  0  0
M  END
> <s_m_source_file>
AV-unprocessed.smi

> <i_m_source_file_index>
2165

> <i_lp_mmshare_version>
43012

> <i_f3d_flags>
0

> <s_epik_input>
W0NIM11uMWMoPU8pW2NIXVtjSF1uKGMxPU8pW0NIMl1DKD1PKVtOSF1bQ0gyXVtDQEBIXTJbQ0gyXVtDSDJdW0NIMl1PMg==

> <s_epik_cmdline>
J2VwaWtfcHl0aG9uJywgJy1waCcsICc3LjAnLCAnLXRuJywgJzgnLCAnLW1hJywgJzIwMCcsICctbWV0YWxfYmluZGluZycsICctaW1hZScsICc8aW5maWxlLm1hZT4nLCAnLW9tYWUnLCAnPG91dGZpbGUubWFlPic=

> <r_lp_tautomer_probability>
1

> <r_epik_Ionization_Penalty>
3.89869e-08

> <r_epik_Ionization_Penalty_Charging>
1.21279e-08

> <r_epik_Ionization_Penalty_Neutral>
2.6859e-08

> <r_epik_State_Penalty>
-0

> <r_epik_Charging_Adjusted_Penalty>
1.21279e-08

> <i_epik_Tot_Q>
0

> <i_epik_Tot_abs_Q>
0

> <r_epik_Metal_State_Penalty>
-0

> <b_epik_Metal_Only>
0

> <s_lp_Force_Field>
OPLS_2005

> <r_lp_Energy>
24.234

> <b_lp_Chiralities_Consistent>
1

> <s_lp_Variant>
AV-unprocessed.smi:2165-2

> <Gold.Version>
5.8.1

> <Gold.Id.Protein>
6NUR|6NUR_protein|mol2

> <Gold.PLP.Fitness>
45.4041

> <Gold.PLP.PLP>
-46.0570

> <Gold.PLP.part.hbond>
-1.7199

> <Gold.PLP.part.metal>
0.0000

> <Gold.PLP.part.buried>
-1.9609

> <Gold.PLP.part.nonpolar>
-41.6616

> <Gold.PLP.part.repulsive>
0.4349

> <Gold.PLP.ligand.clash>
0.0000

> <Gold.PLP.ligand.torsion>
0.3307

> <Gold.PLP.Chemscore.Hbond>
0.0000

> <Gold.PLP.Chemscore.CHOScore>
0.0000

> <Gold.PLP.Chemscore.Metal>
0.0000

> <Gold.PLP.Chemscore.Internal.Correction>
0.0085

> <Gold.Rescore>
     Score         DG    S(hbond)    S(metal)    S(lipo)     H(rot)  DE(clash)    DE(int)     intcor
      8.26      -9.94       0.00        0.00      78.97       1.87       0.05       1.62       ----

> <Gold.Chemscore.Fitness>
8.2648

> <Gold.Chemscore.DG>
-9.9378

> <Gold.Chemscore.ZeroCoef>
-5.4800

> <Gold.Chemscore.Hbond>
0.0000

> <Gold.Chemscore.Metal>
0.0000

> <Gold.Chemscore.Lipo>
78.9743

> <Gold.Chemscore.Internal_Hbond>
0.0000

> <Gold.Chemscore.DEClash>
0.0520

> <Gold.Chemscore.DEInternal>
1.6210

> <Gold.Chemscore.Rot>
1.8681

> <Gold.Chemscore.Internal.Correction>
   9.000000E+99

> <Gold.Chemscore.Hbond.Weighted>
-0.0000

> <Gold.Chemscore.Metal.Weighted>
-0.0000

> <Gold.Chemscore.Lipo.Weighted>
-9.2400

> <Gold.Chemscore.Internal_Hbond.Weighted>
0.0000

> <Gold.Chemscore.DEClash.Weighted>
0.0520

> <Gold.Chemscore.DEInternal.Weighted>
1.6210

> <Gold.Chemscore.Rot.Weighted>
4.7822

> <Gold.Chemscore.Internal.Correction.Weighted>
   9.000000E+99

> <Gold.Protein.RotatedTorsions>
[ 6907 6896 6895 6894 ] final -113.32 input  -60.11 | X-H torsion
[ 7974 7965 7964 7962 ] final -141.68 input  175.53 | X-H torsion
[ 8008 7997 7996 7995 ] final -153.60 input   59.86 | X-H torsion
[ 10167 10162 10161 10158 ] final  -70.41 input  -65.29 | X-H torsion
[ 10718 10713 10712 10709 ] final -118.46 input   66.30 | X-H torsion
[ 10763 10752 10751 10750 ] final   95.72 input  -60.55 | X-H torsion
[ 11005 11000 10999 10996 ] final   78.24 input  -57.11 | X-H torsion

> <Gold.Protein.ActiveResidues>
 VAL166  LYS551  ARG553  GLY616  TRP617  ASP618  TYR619  PRO620  LYS621  CYS622 
 ASP623  PHE694  ASN695  SER759  ASP760  ASP761  ALA762  ILE779  LEU786  VAL792 
 PHE793  MET794  SER795  GLU796  ALA797  LYS798  CYS799  TRP800  GLU811  SER814 

> <Gold.Protein.RotatedAtoms>
  150.7820  133.8962  159.3327 H   0  0  0  0  0  0  0  0  0  0  0  0  # atno 6907 bound_to 6896
  151.6823  135.0958  160.0227 H   0  0  0  0  0  0  0  0  0  0  0  0  # atno 6908 bound_to 6896
  152.3874  133.6592  159.6245 H   0  0  0  0  0  0  0  0  0  0  0  0  # atno 6909 bound_to 6896
  144.8501  140.6050  143.5396 H   0  0  0  0  0  0  0  0  0  0  0  0  # atno 7974 bound_to 7965
  155.6733  140.0736  157.2512 H   0  0  0  0  0  0  0  0  0  0  0  0  # atno 8008 bound_to 7997
  154.4119  140.1695  156.1954 H   0  0  0  0  0  0  0  0  0  0  0  0  # atno 8009 bound_to 7997
  155.9598  140.3371  155.6483 H   0  0  0  0  0  0  0  0  0  0  0  0  # atno 8010 bound_to 7997
  140.5354  143.2318  151.7186 H   0  0  0  0  0  0  0  0  0  0  0  0  # atno 10167 bound_to 10162
  156.1108  130.6247  150.9294 H   0  0  0  0  0  0  0  0  0  0  0  0  # atno 10718 bound_to 10713
  153.2565  135.4244  155.0850 H   0  0  0  0  0  0  0  0  0  0  0  0  # atno 10763 bound_to 10752
  154.8403  135.3438  154.6439 H   0  0  0  0  0  0  0  0  0  0  0  0  # atno 10764 bound_to 10752
  153.6859  135.7036  153.5161 H   0  0  0  0  0  0  0  0  0  0  0  0  # atno 10765 bound_to 10752
  139.9221  134.7748  156.1625 H   0  0  0  0  0  0  0  0  0  0  0  0  # atno 11005 bound_to 11000
  145.4517  139.1523  143.3914 LP  0  0  0  0  0  0  0  0  0  0  0  0  # atno 17320 bound_to 7965
  146.2777  140.4644  142.8788 LP  0  0  0  0  0  0  0  0  0  0  0  0  # atno 17321 bound_to 7965
  139.4969  144.4050  152.0141 LP  0  0  0  0  0  0  0  0  0  0  0  0  # atno 17342 bound_to 10162
  140.3155  144.3488  150.6022 LP  0  0  0  0  0  0  0  0  0  0  0  0  # atno 17343 bound_to 10162
  157.6289  131.0923  150.8480 LP  0  0  0  0  0  0  0  0  0  0  0  0  # atno 17370 bound_to 10713
  156.8591  130.5107  149.5305 LP  0  0  0  0  0  0  0  0  0  0  0  0  # atno 17371 bound_to 10713
  141.0749  133.6780  156.2216 LP  0  0  0  0  0  0  0  0  0  0  0  0  # atno 17394 bound_to 11000
  140.6445  134.5132  157.5572 LP  0  0  0  0  0  0  0  0  0  0  0  0  # atno 17395 bound_to 11000

$$$$
