AV-unprocessed.smi:2448|AV-procd|sdf|9653|dock8
  -GOLD-   2272013283D 1   1.00000     0.00000
 Structure written by MMmdl.
 37 38  0  0  0  0  0  0  0  0  1 V2000
  146.2488  135.3773  151.3044 O   0  0  0  0  0  0  0  0  0  0  0  0
  145.9246  134.1889  152.0037 C   0  0  1  0  0  0  0  0  0  0  0  0
  146.5141  134.2997  153.4245 C   0  0  0  0  0  0  0  0  0  0  0  0
  147.9403  133.9710  153.4543 N   0  0  0  0  0  0  0  0  0  0  0  0
  148.5066  133.6315  154.7686 C   0  0  1  0  0  0  0  0  0  0  0  0
  149.4902  132.4324  154.7163 C   0  0  0  0  0  0  0  0  0  0  0  0
  148.8880  131.1208  154.2367 C   0  0  0  0  0  0  0  0  0  0  0  0
  147.5153  131.0304  153.9225 C   0  0  0  0  0  0  0  0  0  0  0  0
  147.0057  129.7941  153.4776 C   0  0  0  0  0  0  0  0  0  0  0  0
  147.7665  128.6886  153.3289 N   0  0  0  0  0  0  0  0  0  0  0  0
  149.0815  128.7840  153.6199 C   0  0  0  0  0  0  0  0  0  0  0  0
  149.6901  129.9715  154.0727 C   0  0  0  0  0  0  0  0  0  0  0  0
  149.1831  134.8802  155.3729 C   0  0  0  0  0  0  0  0  0  0  0  0
  150.3226  135.1358  154.7284 F   0  0  0  0  0  0  0  0  0  0  0  0
  148.3901  135.9443  155.2456 F   0  0  0  0  0  0  0  0  0  0  0  0
  149.4522  134.6919  156.6654 F   0  0  0  0  0  0  0  0  0  0  0  0
  144.4026  133.9606  151.9679 C   0  0  0  0  0  0  0  0  0  0  0  0
  144.0264  133.5260  150.5478 C   0  0  0  0  0  0  0  0  0  0  0  0
  145.4046  132.5574  149.8855 S   0  0  0  0  0  0  0  0  0  0  0  0
  146.5360  133.0091  151.2283 C   0  0  0  0  0  0  0  0  0  0  0  0
  147.1346  135.6204  151.5264 H   0  0  0  0  0  0  0  0  0  0  0  0
  146.3734  135.3179  153.7895 H   0  0  0  0  0  0  0  0  0  0  0  0
  145.9522  133.6485  154.0908 H   0  0  0  0  0  0  0  0  0  0  0  0
  148.4706  134.7379  153.0525 H   0  0  0  0  0  0  0  0  0  0  0  0
  147.6895  133.3829  155.4465 H   0  0  0  0  0  0  0  0  0  0  0  0
  150.3591  132.6900  154.1094 H   0  0  0  0  0  0  0  0  0  0  0  0
  149.8801  132.2334  155.7147 H   0  0  0  0  0  0  0  0  0  0  0  0
  146.8624  131.8848  154.0249 H   0  0  0  0  0  0  0  0  0  0  0  0
  145.9584  129.6912  153.2343 H   0  0  0  0  0  0  0  0  0  0  0  0
  149.6678  127.8869  153.4866 H   0  0  0  0  0  0  0  0  0  0  0  0
  150.7486  129.9948  154.2859 H   0  0  0  0  0  0  0  0  0  0  0  0
  144.1428  133.1603  152.6625 H   0  0  0  0  0  0  0  0  0  0  0  0
  143.8397  134.8429  152.2753 H   0  0  0  0  0  0  0  0  0  0  0  0
  143.0989  132.9541  150.5253 H   0  0  0  0  0  0  0  0  0  0  0  0
  143.8911  134.4017  149.9124 H   0  0  0  0  0  0  0  0  0  0  0  0
  147.5345  133.2251  150.8464 H   0  0  0  0  0  0  0  0  0  0  0  0
  146.6216  132.1376  151.8783 H   0  0  0  0  0  0  0  0  0  0  0  0
  1  2  1  0  0  0  0
  1 21  1  0  0  0  0
  2 20  1  0  0  0  0
  2  3  1  0  0  0  0
  2 17  1  0  0  0  0
  3  4  1  0  0  0  0
  3 22  1  0  0  0  0
  3 23  1  0  0  0  0
  4  5  1  0  0  0  0
  4 24  1  0  0  0  0
  5  6  1  0  0  0  0
  5 13  1  0  0  0  0
  5 25  1  0  0  0  0
  6  7  1  0  0  0  0
  6 26  1  0  0  0  0
  6 27  1  0  0  0  0
  7 12  1  0  0  0  0
  7  8  2  0  0  0  0
  8  9  1  0  0  0  0
  8 28  1  0  0  0  0
  9 10  2  0  0  0  0
  9 29  1  0  0  0  0
 10 11  1  0  0  0  0
 11 12  2  0  0  0  0
 11 30  1  0  0  0  0
 12 31  1  0  0  0  0
 13 14  1  0  0  0  0
 13 15  1  0  0  0  0
 13 16  1  0  0  0  0
 17 18  1  0  0  0  0
 17 32  1  0  0  0  0
 17 33  1  0  0  0  0
 18 19  1  0  0  0  0
 18 34  1  0  0  0  0
 18 35  1  0  0  0  0
 19 20  1  0  0  0  0
 20 36  1  0  0  0  0
 20 37  1  0  0  0  0
M  END
> <s_m_source_file>
AV-unprocessed.smi

> <i_m_source_file_index>
2448

> <i_lp_mmshare_version>
43012

> <i_f3d_flags>
0

> <s_epik_input>
W0NIMl0xU1tDSDJdW0NIMl1bQ0BAXTEoW09IXSlbQ0gyXVtOSF1bQ0BASF0oQyhGKShGKUYpW0NIMl1jMltjSF1bY0hdbltjSF1bY0hdMg==

> <s_epik_cmdline>
J2VwaWtfcHl0aG9uJywgJy1waCcsICc3LjAnLCAnLXRuJywgJzgnLCAnLW1hJywgJzIwMCcsICctbWV0YWxfYmluZGluZycsICctaW1hZScsICc8aW5maWxlLm1hZT4nLCAnLW9tYWUnLCAnPG91dGZpbGUubWFlPic=

> <r_epik_Ionization_Penalty>
0.187708

> <r_epik_Ionization_Penalty_Charging>
0

> <r_epik_Ionization_Penalty_Neutral>
0.187708

> <r_epik_State_Penalty>
0.22769

> <r_epik_Charging_Adjusted_Penalty>
0.22769

> <i_epik_Tot_Q>
0

> <i_epik_Tot_abs_Q>
0

> <r_epik_Metal_State_Penalty>
0.176206

> <b_epik_Metal_Only>
0

> <s_lp_Force_Field>
OPLS_2005

> <r_lp_Energy>
32.0446

> <b_lp_Chiralities_Consistent>
1

> <s_lp_Variant>
AV-unprocessed.smi:2448-3

> <Gold.Version>
5.8.1

> <Gold.Id.Protein>
6NUR|6NUR_protein|mol2

> <Gold.PLP.Fitness>
39.4194

> <Gold.PLP.PLP>
-32.4458

> <Gold.PLP.part.hbond>
-2.0000

> <Gold.PLP.part.metal>
0.0000

> <Gold.PLP.part.buried>
-4.3354

> <Gold.PLP.part.nonpolar>
-25.6866

> <Gold.PLP.part.repulsive>
0.1047

> <Gold.PLP.ligand.clash>
0.0000

> <Gold.PLP.ligand.torsion>
1.1714

> <Gold.PLP.Chemscore.Hbond>
2.0000

> <Gold.PLP.Chemscore.CHOScore>
0.9476

> <Gold.PLP.Chemscore.Metal>
0.0000

> <Gold.Chemscore.Hbonds>
donor molecule, donor type, donor heavy atom, donor atom, acceptor molecule, acceptor atom, score
      L1  H     1    21       P1  7948  1.00
      L1  H     4    24       P1  7948  1.00

> <Gold.PLP.Chemscore.Internal.Correction>
0.4736

> <Gold.Rescore>
     Score         DG    S(hbond)    S(metal)    S(lipo)     H(rot)  DE(clash)    DE(int)     intcor
     12.37     -14.39       1.73        0.00      77.23       2.31       0.21       1.80       ----

> <Gold.Chemscore.Fitness>
12.3736

> <Gold.Chemscore.DG>
-14.3858

> <Gold.Chemscore.ZeroCoef>
-5.4800

> <Gold.Chemscore.Hbond>
1.7325

> <Gold.Chemscore.Metal>
0.0000

> <Gold.Chemscore.Lipo>
77.2289

> <Gold.Chemscore.Internal_Hbond>
0.0000

> <Gold.Chemscore.DEClash>
0.2142

> <Gold.Chemscore.DEInternal>
1.7980

> <Gold.Chemscore.Rot>
2.3111

> <Gold.Chemscore.Internal.Correction>
   9.000000E+99

> <Gold.Chemscore.Hbonds>
donor molecule, donor type, donor heavy atom, donor atom, acceptor molecule, acceptor atom, score
      L1  H     1    21       P1  7948  0.99
      L1  H     4    24       P1  7948  0.49

> <Gold.Chemscore.Hbond.Weighted>
-5.7864

> <Gold.Chemscore.Metal.Weighted>
-0.0000

> <Gold.Chemscore.Lipo.Weighted>
-9.0358

> <Gold.Chemscore.Internal_Hbond.Weighted>
0.0000

> <Gold.Chemscore.DEClash.Weighted>
0.2142

> <Gold.Chemscore.DEInternal.Weighted>
1.7980

> <Gold.Chemscore.Rot.Weighted>
5.9164

> <Gold.Chemscore.Internal.Correction.Weighted>
   9.000000E+99

> <Gold.Protein.RotatedTorsions>
[ 6907 6896 6895 6894 ] final -163.87 input  -60.11 | X-H torsion
[ 7974 7965 7964 7962 ] final  -24.55 input  175.53 | X-H torsion
[ 8008 7997 7996 7995 ] final -103.58 input   59.86 | X-H torsion
[ 10167 10162 10161 10158 ] final  173.11 input  -65.29 | X-H torsion
[ 10718 10713 10712 10709 ] final -104.50 input   66.30 | X-H torsion
[ 10763 10752 10751 10750 ] final -155.14 input  -60.55 | X-H torsion
[ 11005 11000 10999 10996 ] final -130.87 input  -57.11 | X-H torsion

> <Gold.Protein.ActiveResidues>
 VAL166  LYS551  ARG553  GLY616  TRP617  ASP618  TYR619  PRO620  LYS621  CYS622 
 ASP623  PHE694  ASN695  SER759  ASP760  ASP761  ALA762  ILE779  LEU786  VAL792 
 PHE793  MET794  SER795  GLU796  ALA797  LYS798  CYS799  TRP800  GLU811  SER814 

> <Gold.Protein.RotatedAtoms>
  151.4029  133.3751  159.2734 H   0  0  0  0  0  0  0  0  0  0  0  0  # atno 6907 bound_to 6896
  150.9420  134.8829  159.7629 H   0  0  0  0  0  0  0  0  0  0  0  0  # atno 6908 bound_to 6896
  152.5075  134.3980  159.9459 H   0  0  0  0  0  0  0  0  0  0  0  0  # atno 6909 bound_to 6896
  146.1548  140.4766  142.8596 H   0  0  0  0  0  0  0  0  0  0  0  0  # atno 7974 bound_to 7965
  154.8730  140.0422  157.1736 H   0  0  0  0  0  0  0  0  0  0  0  0  # atno 8008 bound_to 7997
  154.8719  140.2959  155.5455 H   0  0  0  0  0  0  0  0  0  0  0  0  # atno 8009 bound_to 7997
  156.2999  140.2427  156.3709 H   0  0  0  0  0  0  0  0  0  0  0  0  # atno 8010 bound_to 7997
  139.5098  144.3298  152.0123 H   0  0  0  0  0  0  0  0  0  0  0  0  # atno 10167 bound_to 10162
  156.0307  130.5518  150.7406 H   0  0  0  0  0  0  0  0  0  0  0  0  # atno 10718 bound_to 10713
  154.7808  135.3174  154.7992 H   0  0  0  0  0  0  0  0  0  0  0  0  # atno 10763 bound_to 10752
  153.8704  135.6845  153.4779 H   0  0  0  0  0  0  0  0  0  0  0  0  # atno 10764 bound_to 10752
  153.1445  135.4725  154.9482 H   0  0  0  0  0  0  0  0  0  0  0  0  # atno 10765 bound_to 10752
  140.9308  134.1322  157.4236 H   0  0  0  0  0  0  0  0  0  0  0  0  # atno 11005 bound_to 11000
  144.7949  140.6103  143.6517 LP  0  0  0  0  0  0  0  0  0  0  0  0  # atno 17320 bound_to 7965
  145.4736  139.1501  143.3800 LP  0  0  0  0  0  0  0  0  0  0  0  0  # atno 17321 bound_to 7965
  140.2738  144.3935  150.6142 LP  0  0  0  0  0  0  0  0  0  0  0  0  # atno 17342 bound_to 10162
  140.6069  143.2168  151.6963 LP  0  0  0  0  0  0  0  0  0  0  0  0  # atno 17343 bound_to 10162
  157.4975  131.0916  151.0354 LP  0  0  0  0  0  0  0  0  0  0  0  0  # atno 17370 bound_to 10713
  157.0743  130.5877  149.5408 LP  0  0  0  0  0  0  0  0  0  0  0  0  # atno 17371 bound_to 10713
  139.8796  135.0004  156.6010 LP  0  0  0  0  0  0  0  0  0  0  0  0  # atno 17394 bound_to 11000
  140.7865  133.8617  155.8610 LP  0  0  0  0  0  0  0  0  0  0  0  0  # atno 17395 bound_to 11000

$$$$
