AV-unprocessed.smi:2099|AV-procd|sdf|8569|dock6
  -GOLD-   2272011303D 1   1.00000     0.00000
 Structure written by MMmdl.
 32 33  0  0  0  0  0  0  0  0  1 V2000
  153.6722  142.3011  161.8156 C   0  0  0  0  0  0  0  0  0  0  0  0
  152.5918  142.4360  160.7328 C   0  0  2  0  0  0  0  0  0  0  0  0
  152.5445  141.1925  159.8239 C   0  0  0  0  0  0  0  0  0  0  0  0
  151.4670  141.3266  158.7352 C   0  0  0  0  0  0  0  0  0  0  0  0
  151.6724  142.5990  157.8934 C   0  0  1  0  0  0  0  0  0  0  0  0
  150.6000  142.7171  156.9090 N   0  0  0  0  0  0  0  0  0  0  0  0
  150.1058  141.7063  156.1787 C   0  0  0  0  0  0  0  0  0  0  0  0
  150.5137  140.5472  156.2601 O   0  0  0  0  0  0  0  0  0  0  0  0
  149.1249  142.1296  155.3619 N   0  0  0  0  0  0  0  0  0  0  0  0
  148.3637  141.3710  154.4333 C   0  0  0  0  0  0  0  0  0  0  0  0
  148.6630  140.1117  154.0777 N   0  0  0  0  0  0  0  0  0  0  0  0
  147.7588  139.6035  153.1539 N   0  0  0  0  0  0  0  0  0  0  0  0
  146.8144  140.4980  152.8492 C   0  0  0  0  0  0  0  0  0  0  0  0
  146.9363  142.0485  153.6626 S   0  0  0  0  0  0  0  0  0  0  0  0
  151.7207  143.8461  158.7991 C   0  0  0  0  0  0  0  0  0  0  0  0
  152.7965  143.7086  159.8888 C   0  0  0  0  0  0  0  0  0  0  0  0
  154.6658  142.2086  161.3757 H   0  0  0  0  0  0  0  0  0  0  0  0
  153.4990  141.4212  162.4358 H   0  0  0  0  0  0  0  0  0  0  0  0
  153.6793  143.1706  162.4735 H   0  0  0  0  0  0  0  0  0  0  0  0
  151.6290  142.5197  161.2391 H   0  0  0  0  0  0  0  0  0  0  0  0
  153.5175  141.0424  159.3537 H   0  0  0  0  0  0  0  0  0  0  0  0
  152.3504  140.3008  160.4208 H   0  0  0  0  0  0  0  0  0  0  0  0
  151.4858  140.4459  158.0922 H   0  0  0  0  0  0  0  0  0  0  0  0
  150.4817  141.3465  159.2033 H   0  0  0  0  0  0  0  0  0  0  0  0
  152.6257  142.5061  157.3695 H   0  0  0  0  0  0  0  0  0  0  0  0
  150.2077  143.6376  156.7745 H   0  0  0  0  0  0  0  0  0  0  0  0
  148.8972  143.1117  155.4071 H   0  0  0  0  0  0  0  0  0  0  0  0
  146.0405  140.2424  152.1409 H   0  0  0  0  0  0  0  0  0  0  0  0
  151.9194  144.7379  158.2035 H   0  0  0  0  0  0  0  0  0  0  0  0
  150.7480  143.9997  159.2688 H   0  0  0  0  0  0  0  0  0  0  0  0
  152.7778  144.5894  160.5315 H   0  0  0  0  0  0  0  0  0  0  0  0
  153.7831  143.6883  159.4235 H   0  0  0  0  0  0  0  0  0  0  0  0
  1  2  1  0  0  0  0
  1 17  1  0  0  0  0
  1 18  1  0  0  0  0
  1 19  1  0  0  0  0
  2 16  1  0  0  0  0
  2  3  1  0  0  0  0
  2 20  1  0  0  0  0
  3  4  1  0  0  0  0
  3 21  1  0  0  0  0
  3 22  1  0  0  0  0
  4  5  1  0  0  0  0
  4 23  1  0  0  0  0
  4 24  1  0  0  0  0
  5  6  1  0  0  0  0
  5 15  1  0  0  0  0
  5 25  1  0  0  0  0
  6  7  1  0  0  0  0
  6 26  1  0  0  0  0
  7  8  2  0  0  0  0
  7  9  1  0  0  0  0
  9 10  1  0  0  0  0
  9 27  1  0  0  0  0
 10 14  1  0  0  0  0
 10 11  2  0  0  0  0
 11 12  1  0  0  0  0
 12 13  2  0  0  0  0
 13 14  1  0  0  0  0
 13 28  1  0  0  0  0
 15 16  1  0  0  0  0
 15 29  1  0  0  0  0
 15 30  1  0  0  0  0
 16 31  1  0  0  0  0
 16 32  1  0  0  0  0
M  END
> <s_m_source_file>
AV-unprocessed.smi

> <i_m_source_file_index>
2099

> <i_lp_mmshare_version>
43012

> <i_f3d_flags>
0

> <s_epik_input>
W0NIM11bQ0BASF0xW0NIMl1bQ0gyXVtDQEhdKFtDSDJdW0NIMl0xKVtOSF1DKD1PKVtOSF1jMm5uW2NIXXMy

> <s_epik_cmdline>
J2VwaWtfcHl0aG9uJywgJy1waCcsICc3LjAnLCAnLXRuJywgJzgnLCAnLW1hJywgJzIwMCcsICctbWV0YWxfYmluZGluZycsICctaW1hZScsICc8aW5maWxlLm1hZT4nLCAnLW9tYWUnLCAnPG91dGZpbGUubWFlPic=

> <r_lp_tautomer_probability>
1

> <r_epik_Ionization_Penalty>
0.000322846

> <r_epik_Ionization_Penalty_Charging>
0

> <r_epik_Ionization_Penalty_Neutral>
0.000322846

> <r_epik_State_Penalty>
-0

> <r_epik_Charging_Adjusted_Penalty>
0

> <i_epik_Tot_Q>
0

> <i_epik_Tot_abs_Q>
0

> <r_epik_Metal_State_Penalty>
0.17121

> <b_epik_Metal_Only>
0

> <s_lp_Force_Field>
OPLS_2005

> <r_lp_Energy>
7.94157

> <b_lp_Chiralities_Consistent>
1

> <s_lp_Variant>
AV-unprocessed.smi:2099-1

> <Gold.Version>
5.8.1

> <Gold.Id.Protein>
6NUR|6NUR_protein|mol2

> <Gold.PLP.Fitness>
41.0585

> <Gold.PLP.PLP>
-32.8866

> <Gold.PLP.part.hbond>
-2.0000

> <Gold.PLP.part.metal>
0.0000

> <Gold.PLP.part.buried>
-4.6289

> <Gold.PLP.part.nonpolar>
-26.9566

> <Gold.PLP.part.repulsive>
2.1918

> <Gold.PLP.ligand.clash>
0.0000

> <Gold.PLP.ligand.torsion>
0.2435

> <Gold.PLP.Chemscore.Hbond>
1.8960

> <Gold.PLP.Chemscore.CHOScore>
0.9893

> <Gold.PLP.Chemscore.Metal>
0.0000

> <Gold.Chemscore.Hbonds>
donor molecule, donor type, donor heavy atom, donor atom, acceptor molecule, acceptor atom, score
      L1  H     6    26       P1  8028  0.90
      L1  H     9    27       P1  8028  1.00
      L1  C    13    28       P1 10175  0.94

> <Gold.PLP.Chemscore.Internal.Correction>
0.0029

> <Gold.Rescore>
     Score         DG    S(hbond)    S(metal)    S(lipo)     H(rot)  DE(clash)    DE(int)     intcor
     14.70     -19.26       1.97        0.00      83.56       1.00       1.41       3.16       ----

> <Gold.Chemscore.Fitness>
14.6960

> <Gold.Chemscore.DG>
-19.2637

> <Gold.Chemscore.ZeroCoef>
-5.4800

> <Gold.Chemscore.Hbond>
1.9664

> <Gold.Chemscore.Metal>
0.0000

> <Gold.Chemscore.Lipo>
83.5551

> <Gold.Chemscore.Internal_Hbond>
0.0000

> <Gold.Chemscore.DEClash>
1.4119

> <Gold.Chemscore.DEInternal>
3.1558

> <Gold.Chemscore.Rot>
1.0000

> <Gold.Chemscore.Internal.Correction>
   9.000000E+99

> <Gold.Chemscore.Hbonds>
donor molecule, donor type, donor heavy atom, donor atom, acceptor molecule, acceptor atom, score
      L1  H     6    26       P1  8028  0.82
      L1  H     9    27       P1  8028  0.99

> <Gold.Chemscore.Hbond.Weighted>
-6.5677

> <Gold.Chemscore.Metal.Weighted>
-0.0000

> <Gold.Chemscore.Lipo.Weighted>
-9.7759

> <Gold.Chemscore.Internal_Hbond.Weighted>
0.0000

> <Gold.Chemscore.DEClash.Weighted>
1.4119

> <Gold.Chemscore.DEInternal.Weighted>
3.1558

> <Gold.Chemscore.Rot.Weighted>
2.5600

> <Gold.Chemscore.Internal.Correction.Weighted>
   9.000000E+99

> <Gold.Protein.RotatedTorsions>
[ 6907 6896 6895 6894 ] final  -25.85 input  -60.11 | X-H torsion
[ 7974 7965 7964 7962 ] final  106.90 input  175.53 | X-H torsion
[ 8008 7997 7996 7995 ] final  172.26 input   59.86 | X-H torsion
[ 10167 10162 10161 10158 ] final  163.64 input  -65.29 | X-H torsion
[ 10718 10713 10712 10709 ] final -135.26 input   66.30 | X-H torsion
[ 10763 10752 10751 10750 ] final  134.74 input  -60.55 | X-H torsion
[ 11005 11000 10999 10996 ] final -144.44 input  -57.11 | X-H torsion

> <Gold.Protein.ActiveResidues>
 VAL166  LYS551  ARG553  GLY616  TRP617  ASP618  TYR619  PRO620  LYS621  CYS622 
 ASP623  PHE694  ASN695  SER759  ASP760  ASP761  ALA762  ILE779  LEU786  VAL792 
 PHE793  MET794  SER795  GLU796  ALA797  LYS798  CYS799  TRP800  GLU811  SER814 

> <Gold.Protein.RotatedAtoms>
  151.1694  135.0310  159.8744 H   0  0  0  0  0  0  0  0  0  0  0  0  # atno 6907 bound_to 6896
  152.5449  134.1188  159.8400 H   0  0  0  0  0  0  0  0  0  0  0  0  # atno 6908 bound_to 6896
  151.1292  133.5002  159.2632 H   0  0  0  0  0  0  0  0  0  0  0  0  # atno 6909 bound_to 6896
  145.3006  139.2570  143.3816 H   0  0  0  0  0  0  0  0  0  0  0  0  # atno 7974 bound_to 7965
  156.1191  140.1490  156.9230 H   0  0  0  0  0  0  0  0  0  0  0  0  # atno 8008 bound_to 7997
  154.4822  140.0876  156.7447 H   0  0  0  0  0  0  0  0  0  0  0  0  # atno 8009 bound_to 7997
  155.4460  140.3433  155.4297 H   0  0  0  0  0  0  0  0  0  0  0  0  # atno 8010 bound_to 7997
  139.4877  144.4317  151.9063 H   0  0  0  0  0  0  0  0  0  0  0  0  # atno 10167 bound_to 10162
  156.2642  130.7228  151.1172 H   0  0  0  0  0  0  0  0  0  0  0  0  # atno 10718 bound_to 10713
  153.8286  135.3107  155.3416 H   0  0  0  0  0  0  0  0  0  0  0  0  # atno 10763 bound_to 10752
  154.7983  135.4742  154.0216 H   0  0  0  0  0  0  0  0  0  0  0  0  # atno 10764 bound_to 10752
  153.1648  135.6867  153.8781 H   0  0  0  0  0  0  0  0  0  0  0  0  # atno 10765 bound_to 10752
  140.8024  134.2841  157.4973 H   0  0  0  0  0  0  0  0  0  0  0  0  # atno 11005 bound_to 11000
  146.3153  140.3520  142.8657 LP  0  0  0  0  0  0  0  0  0  0  0  0  # atno 17320 bound_to 7965
  144.9096  140.7742  143.5815 LP  0  0  0  0  0  0  0  0  0  0  0  0  # atno 17321 bound_to 7965
  140.3765  144.2790  150.5913 LP  0  0  0  0  0  0  0  0  0  0  0  0  # atno 17342 bound_to 10162
  140.5272  143.2251  151.8296 LP  0  0  0  0  0  0  0  0  0  0  0  0  # atno 17343 bound_to 10162
  157.7261  131.0648  150.5922 LP  0  0  0  0  0  0  0  0  0  0  0  0  # atno 17370 bound_to 10713
  156.6013  130.4355  149.5896 LP  0  0  0  0  0  0  0  0  0  0  0  0  # atno 17371 bound_to 10713
  139.8720  134.9437  156.3860 LP  0  0  0  0  0  0  0  0  0  0  0  0  # atno 17394 bound_to 11000
  140.9281  133.7598  155.9990 LP  0  0  0  0  0  0  0  0  0  0  0  0  # atno 17395 bound_to 11000

$$$$
