AV-unprocessed.smi:1813|AV-procd|sdf|7343|dock5
  -GOLD-   22720 9 03D 1   1.00000     0.00000
 Structure written by MMmdl.
 38 39  0  0  0  0  0  0  0  0  2 V2000
  146.6348  138.9787  152.0907 C   0  0  0  0  0  0  0  0  0  0  0  0
  147.9577  138.6323  152.5859 N   0  0  0  0  0  0  0  0  0  0  0  0
  148.5058  139.1418  153.6986 C   0  0  0  0  0  0  0  0  0  0  0  0
  147.9406  139.9677  154.4148 O   0  0  0  0  0  0  0  0  0  0  0  0
  149.9131  138.6498  154.0565 C   0  0  0  0  0  0  0  0  0  0  0  0
  150.4611  139.2029  155.3167 N   0  0  0  0  0  0  0  0  0  0  0  0
  151.9299  139.1442  155.3655 C   0  0  0  0  0  0  0  0  0  0  0  0
  152.4548  139.7933  156.6584 C   0  0  0  0  0  0  0  0  0  0  0  0
  151.8674  139.1123  157.9020 C   0  0  0  0  0  0  0  0  0  0  0  0
  152.2949  139.8210  159.1051 N   0  0  0  0  0  0  0  0  0  0  0  0
  153.5501  139.9008  159.5699 C   0  0  0  0  0  0  0  0  0  0  0  0
  154.4678  139.3399  158.9660 O   0  0  0  0  0  0  0  0  0  0  0  0
  153.6638  140.6258  160.7060 N   0  5  0  0  0  0  0  0  0  0  0  0
  153.1742  141.8753  160.7579 C   0  0  0  0  0  0  0  0  0  0  0  0
  152.8306  142.5699  159.6672 N   0  0  0  0  0  0  0  0  0  0  0  0
  152.3513  143.8498  159.9520 C   0  0  0  0  0  0  0  0  0  0  0  0
  152.3392  144.1405  161.2904 C   0  0  0  0  0  0  0  0  0  0  0  0
  152.9317  142.8066  162.2387 S   0  0  0  0  0  0  0  0  0  0  0  0
  150.3347  139.1004  157.7845 C   0  0  0  0  0  0  0  0  0  0  0  0
  149.8874  138.4736  156.4528 C   0  0  0  0  0  0  0  0  0  0  0  0
  146.4263  138.4298  151.1725 H   0  0  0  0  0  0  0  0  0  0  0  0
  146.5681  140.0455  151.8735 H   0  0  0  0  0  0  0  0  0  0  0  0
  145.8673  138.7229  152.8226 H   0  0  0  0  0  0  0  0  0  0  0  0
  148.4888  137.9540  152.0588 H   0  0  0  0  0  0  0  0  0  0  0  0
  149.8652  137.5622  154.1270 H   0  0  0  0  0  0  0  0  0  0  0  0
  150.5897  138.8770  153.2305 H   0  0  0  0  0  0  0  0  0  0  0  0
  152.2677  138.1084  155.2978 H   0  0  0  0  0  0  0  0  0  0  0  0
  152.3700  139.6744  154.5212 H   0  0  0  0  0  0  0  0  0  0  0  0
  153.5437  139.7370  156.6827 H   0  0  0  0  0  0  0  0  0  0  0  0
  152.2005  140.8546  156.6587 H   0  0  0  0  0  0  0  0  0  0  0  0
  152.2344  138.0848  157.9370 H   0  0  0  0  0  0  0  0  0  0  0  0
  151.5770  140.2939  159.6341 H   0  0  0  0  0  0  0  0  0  0  0  0
  152.0418  144.4885  159.1382 H   0  0  0  0  0  0  0  0  0  0  0  0
  152.0210  145.0515  161.7740 H   0  0  0  0  0  0  0  0  0  0  0  0
  149.8978  138.5449  158.6151 H   0  0  0  0  0  0  0  0  0  0  0  0
  149.9468  140.1178  157.8560 H   0  0  0  0  0  0  0  0  0  0  0  0
  148.7982  138.5041  156.3998 H   0  0  0  0  0  0  0  0  0  0  0  0
  150.1771  137.4218  156.4153 H   0  0  0  0  0  0  0  0  0  0  0  0
  1  2  1  0  0  0  0
  1 21  1  0  0  0  0
  1 22  1  0  0  0  0
  1 23  1  0  0  0  0
  2  3  1  0  0  0  0
  2 24  1  0  0  0  0
  3  4  2  0  0  0  0
  3  5  1  0  0  0  0
  5  6  1  0  0  0  0
  5 25  1  0  0  0  0
  5 26  1  0  0  0  0
  6 20  1  0  0  0  0
  6  7  1  0  0  0  0
  7  8  1  0  0  0  0
  7 27  1  0  0  0  0
  7 28  1  0  0  0  0
  8  9  1  0  0  0  0
  8 29  1  0  0  0  0
  8 30  1  0  0  0  0
  9 10  1  0  0  0  0
  9 19  1  0  0  0  0
  9 31  1  0  0  0  0
 10 11  1  0  0  0  0
 10 32  1  0  0  0  0
 11 12  2  0  0  0  0
 11 13  1  0  0  0  0
 13 14  1  0  0  0  0
 14 18  1  0  0  0  0
 14 15  2  0  0  0  0
 15 16  1  0  0  0  0
 16 17  2  0  0  0  0
 16 33  1  0  0  0  0
 17 18  1  0  0  0  0
 17 34  1  0  0  0  0
 19 20  1  0  0  0  0
 19 35  1  0  0  0  0
 19 36  1  0  0  0  0
 20 37  1  0  0  0  0
 20 38  1  0  0  0  0
M  CHG  1  13  -1
M  END
> <s_m_source_file>
AV-unprocessed.smi

> <i_m_source_file_index>
1813

> <i_lp_mmshare_version>
43012

> <i_f3d_flags>
0

> <s_epik_input>
W0NIM11bTkhdQyg9TylbQ0gyXU4xW0NIMl1bQ0gyXVtDSF0oW0NIMl1bQ0gyXTEpW05IXUMoPU8pW05IXWMybltjSF1bY0hdczI=

> <s_epik_cmdline>
J2VwaWtfcHl0aG9uJywgJy1waCcsICc3LjAnLCAnLXRuJywgJzgnLCAnLW1hJywgJzIwMCcsICctbWV0YWxfYmluZGluZycsICctaW1hZScsICc8aW5maWxlLm1hZT4nLCAnLW9tYWUnLCAnPG91dGZpbGUubWFlPic=

> <r_lp_tautomer_probability>
0.999

> <r_epik_Ionization_Penalty>
7.12803

> <r_epik_Ionization_Penalty_Charging>
5.8513

> <r_epik_Ionization_Penalty_Neutral>
1.27674

> <r_epik_State_Penalty>
5.99796

> <r_epik_Charging_Adjusted_Penalty>
11.8493

> <i_epik_Tot_Q>
-1

> <i_epik_Tot_abs_Q>
1

> <r_epik_Metal_State_Penalty>
1.97283

> <b_epik_Metal_Only>
1

> <s_lp_Force_Field>
OPLS_2005

> <r_lp_Energy>
7.89498

> <b_lp_Chiralities_Consistent>
1

> <s_lp_Variant>
AV-unprocessed.smi:1813-4

> <Gold.Version>
5.8.1

> <Gold.Id.Protein>
6NUR|6NUR_protein|mol2

> <Gold.PLP.Fitness>
41.3704

> <Gold.PLP.PLP>
-36.9002

> <Gold.PLP.part.hbond>
-3.0000

> <Gold.PLP.part.metal>
0.0000

> <Gold.PLP.part.buried>
-3.1660

> <Gold.PLP.part.nonpolar>
-30.8563

> <Gold.PLP.part.repulsive>
0.3251

> <Gold.PLP.ligand.clash>
0.0000

> <Gold.PLP.ligand.torsion>
0.7828

> <Gold.PLP.Chemscore.Hbond>
2.0000

> <Gold.PLP.Chemscore.CHOScore>
0.0000

> <Gold.PLP.Chemscore.Metal>
0.0000

> <Gold.Chemscore.Hbonds>
donor molecule, donor type, donor heavy atom, donor atom, acceptor molecule, acceptor atom, score
      L1  H     2    24       P1  7948  0.98
      P1  H  7997  8008       L1    12  1.00

> <Gold.PLP.Chemscore.Internal.Correction>
0.0357

> <Gold.Rescore>
     Score         DG    S(hbond)    S(metal)    S(lipo)     H(rot)  DE(clash)    DE(int)     intcor
     14.30     -16.54       2.00        0.00      75.37       1.73       0.05       2.19       ----

> <Gold.Chemscore.Fitness>
14.2958

> <Gold.Chemscore.DG>
-16.5364

> <Gold.Chemscore.ZeroCoef>
-5.4800

> <Gold.Chemscore.Hbond>
1.9991

> <Gold.Chemscore.Metal>
0.0000

> <Gold.Chemscore.Lipo>
75.3726

> <Gold.Chemscore.Internal_Hbond>
0.0000

> <Gold.Chemscore.DEClash>
0.0509

> <Gold.Chemscore.DEInternal>
2.1898

> <Gold.Chemscore.Rot>
1.7341

> <Gold.Chemscore.Internal.Correction>
   9.000000E+99

> <Gold.Chemscore.Hbonds>
donor molecule, donor type, donor heavy atom, donor atom, acceptor molecule, acceptor atom, score
      L1  H     2    24       P1  7948  0.93
      P1  H  7997  8008       L1    12  0.92

> <Gold.Chemscore.Hbond.Weighted>
-6.6771

> <Gold.Chemscore.Metal.Weighted>
-0.0000

> <Gold.Chemscore.Lipo.Weighted>
-8.8186

> <Gold.Chemscore.Internal_Hbond.Weighted>
0.0000

> <Gold.Chemscore.DEClash.Weighted>
0.0509

> <Gold.Chemscore.DEInternal.Weighted>
2.1898

> <Gold.Chemscore.Rot.Weighted>
4.4392

> <Gold.Chemscore.Internal.Correction.Weighted>
   9.000000E+99

> <Gold.Protein.RotatedTorsions>
[ 6907 6896 6895 6894 ] final   49.68 input  -60.11 | X-H torsion
[ 7974 7965 7964 7962 ] final   31.26 input  175.53 | X-H torsion
[ 8008 7997 7996 7995 ] final -105.20 input   59.86 | X-H torsion
[ 10167 10162 10161 10158 ] final  157.36 input  -65.29 | X-H torsion
[ 10718 10713 10712 10709 ] final  -22.42 input   66.30 | X-H torsion
[ 10763 10752 10751 10750 ] final   -1.94 input  -60.55 | X-H torsion
[ 11005 11000 10999 10996 ] final  155.77 input  -57.11 | X-H torsion

> <Gold.Protein.ActiveResidues>
 VAL166  LYS551  ARG553  GLY616  TRP617  ASP618  TYR619  PRO620  LYS621  CYS622 
 ASP623  PHE694  ASN695  SER759  ASP760  ASP761  ALA762  ILE779  LEU786  VAL792 
 PHE793  MET794  SER795  GLU796  ALA797  LYS798  CYS799  TRP800  GLU811  SER814 

> <Gold.Protein.RotatedAtoms>
  152.2934  134.7695  160.0372 H   0  0  0  0  0  0  0  0  0  0  0  0  # atno 6907 bound_to 6896
  151.8233  133.3392  159.3599 H   0  0  0  0  0  0  0  0  0  0  0  0  # atno 6908 bound_to 6896
  150.7240  134.5482  159.5825 H   0  0  0  0  0  0  0  0  0  0  0  0  # atno 6909 bound_to 6896
  146.1561  139.6680  142.9065 H   0  0  0  0  0  0  0  0  0  0  0  0  # atno 7974 bound_to 7965
  154.8963  140.0414  157.1868 H   0  0  0  0  0  0  0  0  0  0  0  0  # atno 8008 bound_to 7997
  154.8489  140.2926  155.5590 H   0  0  0  0  0  0  0  0  0  0  0  0  # atno 8009 bound_to 7997
  156.2995  140.2468  156.3444 H   0  0  0  0  0  0  0  0  0  0  0  0  # atno 8010 bound_to 7997
  139.4823  144.4925  151.8288 H   0  0  0  0  0  0  0  0  0  0  0  0  # atno 10167 bound_to 10162
  156.5048  130.4596  149.6681 H   0  0  0  0  0  0  0  0  0  0  0  0  # atno 10718 bound_to 10713
  153.3514  135.6986  153.6785 H   0  0  0  0  0  0  0  0  0  0  0  0  # atno 10763 bound_to 10752
  153.5511  135.3553  155.2760 H   0  0  0  0  0  0  0  0  0  0  0  0  # atno 10764 bound_to 10752
  154.8654  135.4226  154.2750 H   0  0  0  0  0  0  0  0  0  0  0  0  # atno 10765 bound_to 10752
  140.1613  134.8608  157.2577 H   0  0  0  0  0  0  0  0  0  0  0  0  # atno 11005 bound_to 11000
  145.4704  141.0436  143.2702 LP  0  0  0  0  0  0  0  0  0  0  0  0  # atno 17320 bound_to 7965
  144.7965  139.6223  143.7090 LP  0  0  0  0  0  0  0  0  0  0  0  0  # atno 17321 bound_to 7965
  140.4410  144.1986  150.5891 LP  0  0  0  0  0  0  0  0  0  0  0  0  # atno 17342 bound_to 10162
  140.4683  143.2422  151.9125 LP  0  0  0  0  0  0  0  0  0  0  0  0  # atno 17343 bound_to 10162
  156.3298  130.7325  151.2252 LP  0  0  0  0  0  0  0  0  0  0  0  0  # atno 17370 bound_to 10713
  157.7458  131.0433  150.4737 LP  0  0  0  0  0  0  0  0  0  0  0  0  # atno 17371 bound_to 10713
  140.2487  134.3709  155.7451 LP  0  0  0  0  0  0  0  0  0  0  0  0  # atno 17394 bound_to 11000
  141.2209  133.7305  156.8902 LP  0  0  0  0  0  0  0  0  0  0  0  0  # atno 17395 bound_to 11000

$$$$
