AV-unprocessed.smi:896|AV-procd|sdf|4077|dock1
  -GOLD-   22720 1563D 1   1.00000     0.00000
 Structure written by MMmdl.
 49 50  0  0  0  0  0  0  0  0  2 V2000
  153.2538  141.3003  160.2516 C   0  0  0  0  0  0  0  0  0  0  0  0
  153.1985  140.1736  159.3836 O   0  0  0  0  0  0  0  0  0  0  0  0
  152.4116  140.2560  158.2533 C   0  0  0  0  0  0  0  0  0  0  0  0
  151.2668  141.0746  158.2864 C   0  0  0  0  0  0  0  0  0  0  0  0
  150.4635  141.1674  157.1344 C   0  0  0  0  0  0  0  0  0  0  0  0
  150.8328  140.4423  155.9761 C   0  0  0  0  0  0  0  0  0  0  0  0
  150.0725  140.4590  154.7731 N   0  0  0  0  0  0  0  0  0  0  0  0
  148.7418  140.5832  154.6321 C   0  0  0  0  0  0  0  0  0  0  0  0
  147.9375  140.7148  155.5550 O   0  0  0  0  0  0  0  0  0  0  0  0
  148.3862  140.5691  153.3394 N   0  0  0  0  0  0  0  0  0  0  0  0
  147.0185  140.6945  152.8488 C   0  0  0  0  0  0  0  0  0  0  0  0
  146.7642  139.7674  151.6457 C   0  0  0  0  0  0  0  0  0  0  0  0
  146.1110  138.4214  152.0184 C   0  0  2  0  0  0  0  0  0  0  0  0
  146.7803  137.8122  153.2647 C   0  0  0  0  0  0  0  0  0  0  0  0
  146.1567  136.4569  153.6364 C   0  0  0  0  0  0  0  0  0  0  0  0
  146.2327  135.5082  152.4988 N   0  3  1  0  0  0  0  0  0  0  0  0
  145.7522  134.1571  152.8591 C   0  0  0  0  0  0  0  0  0  0  0  0
  145.5632  136.0428  151.2878 C   0  0  0  0  0  0  0  0  0  0  0  0
  146.1688  137.3935  150.8697 C   0  0  0  0  0  0  0  0  0  0  0  0
  151.9909  139.6310  156.0505 C   0  0  0  0  0  0  0  0  0  0  0  0
  152.4510  138.7961  154.8684 C   0  0  0  0  0  0  0  0  0  0  0  0
  152.7637  139.5434  157.1554 N   0  0  0  0  0  0  0  0  0  0  0  0
  153.9125  141.0767  161.0904 H   0  0  0  0  0  0  0  0  0  0  0  0
  152.2697  141.5381  160.6585 H   0  0  0  0  0  0  0  0  0  0  0  0
  153.6533  142.1783  159.7421 H   0  0  0  0  0  0  0  0  0  0  0  0
  151.0068  141.6203  159.1815 H   0  0  0  0  0  0  0  0  0  0  0  0
  149.5749  141.7788  157.1661 H   0  0  0  0  0  0  0  0  0  0  0  0
  150.6118  140.4526  153.9198 H   0  0  0  0  0  0  0  0  0  0  0  0
  149.1122  140.4620  152.6460 H   0  0  0  0  0  0  0  0  0  0  0  0
  146.3419  140.4391  153.6647 H   0  0  0  0  0  0  0  0  0  0  0  0
  146.8184  141.7360  152.5949 H   0  0  0  0  0  0  0  0  0  0  0  0
  146.1471  140.2773  150.9044 H   0  0  0  0  0  0  0  0  0  0  0  0
  147.7201  139.5732  151.1568 H   0  0  0  0  0  0  0  0  0  0  0  0
  145.0637  138.6085  152.2605 H   0  0  0  0  0  0  0  0  0  0  0  0
  147.8490  137.6838  153.0854 H   0  0  0  0  0  0  0  0  0  0  0  0
  146.6902  138.4961  154.1094 H   0  0  0  0  0  0  0  0  0  0  0  0
  146.6819  136.0394  154.4964 H   0  0  0  0  0  0  0  0  0  0  0  0
  145.1154  136.5904  153.9341 H   0  0  0  0  0  0  0  0  0  0  0  0
  144.6950  134.1762  153.1267 H   0  0  0  0  0  0  0  0  0  0  0  0
  146.3127  133.7622  153.7070 H   0  0  0  0  0  0  0  0  0  0  0  0
  145.8819  133.4670  152.0247 H   0  0  0  0  0  0  0  0  0  0  0  0
  145.6672  135.3299  150.4689 H   0  0  0  0  0  0  0  0  0  0  0  0
  144.4943  136.1530  151.4786 H   0  0  0  0  0  0  0  0  0  0  0  0
  145.6324  137.7642  149.9965 H   0  0  0  0  0  0  0  0  0  0  0  0
  147.2035  137.2472  150.5560 H   0  0  0  0  0  0  0  0  0  0  0  0
  152.6246  139.4307  153.9988 H   0  0  0  0  0  0  0  0  0  0  0  0
  151.6942  138.0547  154.6108 H   0  0  0  0  0  0  0  0  0  0  0  0
  153.3793  138.2669  155.0883 H   0  0  0  0  0  0  0  0  0  0  0  0
  147.2115  135.4125  152.2681 H   0  0  0  0  0  0  0  0  0  0  0  0
  1  2  1  0  0  0  0
  1 23  1  0  0  0  0
  1 24  1  0  0  0  0
  1 25  1  0  0  0  0
  2  3  1  0  0  0  0
  3 22  1  0  0  0  0
  3  4  2  0  0  0  0
  4  5  1  0  0  0  0
  4 26  1  0  0  0  0
  5  6  2  0  0  0  0
  5 27  1  0  0  0  0
  6  7  1  0  0  0  0
  6 20  1  0  0  0  0
  7  8  1  0  0  0  0
  7 28  1  0  0  0  0
  8  9  2  0  0  0  0
  8 10  1  0  0  0  0
 10 11  1  0  0  0  0
 10 29  1  0  0  0  0
 11 12  1  0  0  0  0
 11 30  1  0  0  0  0
 11 31  1  0  0  0  0
 12 13  1  0  0  0  0
 12 32  1  0  0  0  0
 12 33  1  0  0  0  0
 13 19  1  0  0  0  0
 13 14  1  0  0  0  0
 13 34  1  0  0  0  0
 14 15  1  0  0  0  0
 14 35  1  0  0  0  0
 14 36  1  0  0  0  0
 15 16  1  0  0  0  0
 15 37  1  0  0  0  0
 15 38  1  0  0  0  0
 16 17  1  0  0  0  0
 16 18  1  0  0  0  0
 16 49  1  0  0  0  0
 17 39  1  0  0  0  0
 17 40  1  0  0  0  0
 17 41  1  0  0  0  0
 18 19  1  0  0  0  0
 18 42  1  0  0  0  0
 18 43  1  0  0  0  0
 19 44  1  0  0  0  0
 19 45  1  0  0  0  0
 20 21  1  0  0  0  0
 20 22  2  0  0  0  0
 21 46  1  0  0  0  0
 21 47  1  0  0  0  0
 21 48  1  0  0  0  0
M  CHG  1  16   1
M  END
> <s_m_source_file>
AV-unprocessed.smi

> <i_m_source_file_index>
896

> <i_lp_mmshare_version>
43012

> <i_f3d_flags>
0

> <s_epik_input>
W0NIM11PYzFbY0hdW2NIXWMoYyhuMSlbQ0gzXSlbTkhdQyg9TylbTkhdW0NIMl1bQ0gyXVtDSF0yW0NIMl1bQ0gyXU4oW0NIM10pW0NIMl1bQ0gyXTI=

> <s_epik_cmdline>
J2VwaWtfcHl0aG9uJywgJy1waCcsICc3LjAnLCAnLXRuJywgJzgnLCAnLW1hJywgJzIwMCcsICctbWV0YWxfYmluZGluZycsICctaW1hZScsICc8aW5maWxlLm1hZT4nLCAnLW9tYWUnLCAnPG91dGZpbGUubWFlPic=

> <r_lp_tautomer_probability>
1

> <r_epik_Ionization_Penalty>
0.000968128

> <r_epik_Ionization_Penalty_Charging>
0.000718523

> <r_epik_Ionization_Penalty_Neutral>
0.000249604

> <r_epik_State_Penalty>
0.00045807

> <r_epik_Charging_Adjusted_Penalty>
0.00117659

> <i_epik_Tot_Q>
1

> <i_epik_Tot_abs_Q>
1

> <r_epik_Metal_State_Penalty>
-0

> <b_epik_Metal_Only>
0

> <s_lp_Force_Field>
OPLS_2005

> <r_lp_Energy>
19.0488

> <b_lp_Chiralities_Consistent>
1

> <s_lp_Variant>
AV-unprocessed.smi:896-1

> <Gold.Version>
5.8.1

> <Gold.Id.Protein>
6NUR|6NUR_protein|mol2

> <Gold.PLP.Fitness>
45.7734

> <Gold.PLP.PLP>
-35.8703

> <Gold.PLP.part.hbond>
-3.0000

> <Gold.PLP.part.metal>
0.0000

> <Gold.PLP.part.buried>
4.2360

> <Gold.PLP.part.nonpolar>
-38.8707

> <Gold.PLP.part.repulsive>
1.6953

> <Gold.PLP.ligand.clash>
0.0000

> <Gold.PLP.ligand.torsion>
1.0998

> <Gold.PLP.Chemscore.Hbond>
4.0000

> <Gold.PLP.Chemscore.CHOScore>
0.0000

> <Gold.PLP.Chemscore.Metal>
0.0000

> <Gold.Chemscore.Hbonds>
donor molecule, donor type, donor heavy atom, donor atom, acceptor molecule, acceptor atom, score
      L1  H    10    29       P1  7957  1.00
      L1  H    16    49       P1  7948  2.00
      P1  H  7997  8010       L1    22  1.00

> <Gold.PLP.Chemscore.Internal.Correction>
0.1026

> <Gold.Rescore>
     Score         DG    S(hbond)    S(metal)    S(lipo)     H(rot)  DE(clash)    DE(int)     intcor
     16.18     -20.77       2.67        0.00      90.58       1.65       2.67       1.92       ----

> <Gold.Chemscore.Fitness>
16.1818

> <Gold.Chemscore.DG>
-20.7674

> <Gold.Chemscore.ZeroCoef>
-5.4800

> <Gold.Chemscore.Hbond>
2.6705

> <Gold.Chemscore.Metal>
0.0000

> <Gold.Chemscore.Lipo>
90.5758

> <Gold.Chemscore.Internal_Hbond>
0.0000

> <Gold.Chemscore.DEClash>
2.6659

> <Gold.Chemscore.DEInternal>
1.9196

> <Gold.Chemscore.Rot>
1.6521

> <Gold.Chemscore.Internal.Correction>
   9.000000E+99

> <Gold.Chemscore.Hbonds>
donor molecule, donor type, donor heavy atom, donor atom, acceptor molecule, acceptor atom, score
      L1  H    10    29       P1  7957  0.95
      L1  H    16    49       P1  7948  0.95
      P1  H  7997  8010       L1    22  0.27

> <Gold.Chemscore.Hbond.Weighted>
-8.9194

> <Gold.Chemscore.Metal.Weighted>
-0.0000

> <Gold.Chemscore.Lipo.Weighted>
-10.5974

> <Gold.Chemscore.Internal_Hbond.Weighted>
0.0000

> <Gold.Chemscore.DEClash.Weighted>
2.6659

> <Gold.Chemscore.DEInternal.Weighted>
1.9196

> <Gold.Chemscore.Rot.Weighted>
4.2294

> <Gold.Chemscore.Internal.Correction.Weighted>
   9.000000E+99

> <Gold.Protein.RotatedTorsions>
[ 6907 6896 6895 6894 ] final -140.17 input  -60.11 | X-H torsion
[ 7974 7965 7964 7962 ] final  100.85 input  175.53 | X-H torsion
[ 8008 7997 7996 7995 ] final   38.12 input   59.86 | X-H torsion
[ 10167 10162 10161 10158 ] final  -93.14 input  -65.29 | X-H torsion
[ 10718 10713 10712 10709 ] final  -55.43 input   66.30 | X-H torsion
[ 10763 10752 10751 10750 ] final  176.71 input  -60.55 | X-H torsion
[ 11005 11000 10999 10996 ] final  165.23 input  -57.11 | X-H torsion

> <Gold.Protein.ActiveResidues>
 VAL166  LYS551  ARG553  GLY616  TRP617  ASP618  TYR619  PRO620  LYS621  CYS622 
 ASP623  PHE694  ASN695  SER759  ASP760  ASP761  ALA762  ILE779  LEU786  VAL792 
 PHE793  MET794  SER795  GLU796  ALA797  LYS798  CYS799  TRP800  GLU811  SER814 

> <Gold.Protein.RotatedAtoms>
  151.0573  133.5574  159.2637 H   0  0  0  0  0  0  0  0  0  0  0  0  # atno 6907 bound_to 6896
  151.2562  135.0638  159.9091 H   0  0  0  0  0  0  0  0  0  0  0  0  # atno 6908 bound_to 6896
  152.5392  134.0325  159.8085 H   0  0  0  0  0  0  0  0  0  0  0  0  # atno 6909 bound_to 6896
  145.3801  139.2381  143.3408 H   0  0  0  0  0  0  0  0  0  0  0  0  # atno 7974 bound_to 7965
  155.2149  140.3326  155.4323 H   0  0  0  0  0  0  0  0  0  0  0  0  # atno 8008 bound_to 7997
  156.2356  140.1870  156.7177 H   0  0  0  0  0  0  0  0  0  0  0  0  # atno 8009 bound_to 7997
  154.6053  140.0617  156.9408 H   0  0  0  0  0  0  0  0  0  0  0  0  # atno 8010 bound_to 7997
  140.3276  143.3013  151.9977 H   0  0  0  0  0  0  0  0  0  0  0  0  # atno 10167 bound_to 10162
  156.1369  130.4156  150.0170 H   0  0  0  0  0  0  0  0  0  0  0  0  # atno 10718 bound_to 10713
  154.4847  135.2776  155.1543 H   0  0  0  0  0  0  0  0  0  0  0  0  # atno 10763 bound_to 10752
  154.3239  135.6204  153.5524 H   0  0  0  0  0  0  0  0  0  0  0  0  # atno 10764 bound_to 10752
  152.9880  135.5749  154.5256 H   0  0  0  0  0  0  0  0  0  0  0  0  # atno 10765 bound_to 10752
  140.2540  134.7954  157.3529 H   0  0  0  0  0  0  0  0  0  0  0  0  # atno 11005 bound_to 11000
  146.2846  140.4467  142.8763 LP  0  0  0  0  0  0  0  0  0  0  0  0  # atno 17320 bound_to 7965
  144.8514  140.7006  143.6166 LP  0  0  0  0  0  0  0  0  0  0  0  0  # atno 17321 bound_to 7965
  139.4862  144.6261  151.7162 LP  0  0  0  0  0  0  0  0  0  0  0  0  # atno 17342 bound_to 10162
  140.5426  144.0554  150.6094 LP  0  0  0  0  0  0  0  0  0  0  0  0  # atno 17343 bound_to 10162
  156.8066  130.9310  151.3645 LP  0  0  0  0  0  0  0  0  0  0  0  0  # atno 17370 bound_to 10713
  157.6540  130.8909  149.9692 LP  0  0  0  0  0  0  0  0  0  0  0  0  # atno 17371 bound_to 10713
  140.1529  134.4826  155.7948 LP  0  0  0  0  0  0  0  0  0  0  0  0  # atno 17394 bound_to 11000
  141.2198  133.6870  156.7411 LP  0  0  0  0  0  0  0  0  0  0  0  0  # atno 17395 bound_to 11000

$$$$
