AV-unprocessed.smi:1639|AV-procd|sdf|6548|dock6
  -GOLD-   22720 7233D 1   1.00000     0.00000
 Structure written by MMmdl.
 37 38  0  0  0  0  0  0  0  0  1 V2000
  151.8972  145.2926  159.2588 C   0  0  0  0  0  0  0  0  0  0  0  0
  151.4394  144.5888  160.5379 C   0  0  0  0  0  0  0  0  0  0  0  0
  152.5014  143.7768  161.0167 O   0  0  0  0  0  0  0  0  0  0  0  0
  152.4319  142.4145  160.6145 C   0  0  2  0  0  0  0  0  0  0  0  0
  153.7271  141.7304  161.0799 C   0  0  0  0  0  0  0  0  0  0  0  0
  153.7551  140.2706  160.6066 C   0  0  0  0  0  0  0  0  0  0  0  0
  153.5793  140.1830  159.0819 C   0  0  0  0  0  0  0  0  0  0  0  0
  152.3752  140.8936  158.6478 N   0  0  0  0  0  0  0  0  0  0  0  0
  151.9244  140.5830  157.3463 C   0  0  0  0  0  0  0  0  0  0  0  0
  150.7389  141.1604  156.8306 C   0  0  0  0  0  0  0  0  0  0  0  0
  150.3652  140.7897  155.5216 C   0  0  0  0  0  0  0  0  0  0  0  0
  149.1169  141.3459  154.8706 C   0  0  0  0  0  0  0  0  0  0  0  0
  151.0976  139.9231  154.7895 N   0  0  0  0  0  0  0  0  0  0  0  0
  152.1987  139.4404  155.3655 C   0  0  0  0  0  0  0  0  0  0  0  0
  152.9468  138.5614  154.6214 N   0  0  0  0  0  0  0  0  0  0  0  0
  152.6493  139.7207  156.5896 N   0  0  0  0  0  0  0  0  0  0  0  0
  152.2787  142.2898  159.0832 C   0  0  0  0  0  0  0  0  0  0  0  0
  151.1079  145.9313  158.8623 H   0  0  0  0  0  0  0  0  0  0  0  0
  152.1615  144.5691  158.4873 H   0  0  0  0  0  0  0  0  0  0  0  0
  152.7706  145.9173  159.4472 H   0  0  0  0  0  0  0  0  0  0  0  0
  151.1640  145.3321  161.2875 H   0  0  0  0  0  0  0  0  0  0  0  0
  150.5553  143.9872  160.3271 H   0  0  0  0  0  0  0  0  0  0  0  0
  151.5903  141.9262  161.1094 H   0  0  0  0  0  0  0  0  0  0  0  0
  154.5919  142.2617  160.6800 H   0  0  0  0  0  0  0  0  0  0  0  0
  153.8075  141.7740  162.1664 H   0  0  0  0  0  0  0  0  0  0  0  0
  154.6933  139.8000  160.9012 H   0  0  0  0  0  0  0  0  0  0  0  0
  152.9590  139.7110  161.0994 H   0  0  0  0  0  0  0  0  0  0  0  0
  154.4420  140.6271  158.5836 H   0  0  0  0  0  0  0  0  0  0  0  0
  153.5579  139.1337  158.7913 H   0  0  0  0  0  0  0  0  0  0  0  0
  150.1475  141.8640  157.3971 H   0  0  0  0  0  0  0  0  0  0  0  0
  148.8123  142.2788  155.3461 H   0  0  0  0  0  0  0  0  0  0  0  0
  148.2978  140.6319  154.9580 H   0  0  0  0  0  0  0  0  0  0  0  0
  149.2884  141.5464  153.8124 H   0  0  0  0  0  0  0  0  0  0  0  0
  152.6576  138.3085  153.6877 H   0  0  0  0  0  0  0  0  0  0  0  0
  153.8148  138.1958  154.9843 H   0  0  0  0  0  0  0  0  0  0  0  0
  151.3156  142.6996  158.7794 H   0  0  0  0  0  0  0  0  0  0  0  0
  153.0520  142.8727  158.5811 H   0  0  0  0  0  0  0  0  0  0  0  0
  1  2  1  0  0  0  0
  1 18  1  0  0  0  0
  1 19  1  0  0  0  0
  1 20  1  0  0  0  0
  2  3  1  0  0  0  0
  2 21  1  0  0  0  0
  2 22  1  0  0  0  0
  3  4  1  0  0  0  0
  4 17  1  0  0  0  0
  4  5  1  0  0  0  0
  4 23  1  0  0  0  0
  5  6  1  0  0  0  0
  5 24  1  0  0  0  0
  5 25  1  0  0  0  0
  6  7  1  0  0  0  0
  6 26  1  0  0  0  0
  6 27  1  0  0  0  0
  7  8  1  0  0  0  0
  7 28  1  0  0  0  0
  7 29  1  0  0  0  0
  8  9  1  0  0  0  0
  8 17  1  0  0  0  0
  9 16  1  0  0  0  0
  9 10  2  0  0  0  0
 10 11  1  0  0  0  0
 10 30  1  0  0  0  0
 11 12  1  0  0  0  0
 11 13  2  0  0  0  0
 12 31  1  0  0  0  0
 12 32  1  0  0  0  0
 12 33  1  0  0  0  0
 13 14  1  0  0  0  0
 14 15  1  0  0  0  0
 14 16  2  0  0  0  0
 15 34  1  0  0  0  0
 15 35  1  0  0  0  0
 17 36  1  0  0  0  0
 17 37  1  0  0  0  0
M  END
> <s_m_source_file>
AV-unprocessed.smi

> <i_m_source_file_index>
1639

> <i_lp_mmshare_version>
43012

> <i_f3d_flags>
0

> <s_epik_input>
W0NIM11bQ0gyXU9bQ0BASF0xW0NIMl1bQ0gyXVtDSDJdTihbQ0gyXTEpYzJbY0hdYyhbQ0gzXSluYyhuMilbTkgyXQ==

> <s_epik_cmdline>
J2VwaWtfcHl0aG9uJywgJy1waCcsICc3LjAnLCAnLXRuJywgJzgnLCAnLW1hJywgJzIwMCcsICctbWV0YWxfYmluZGluZycsICctaW1hZScsICc8aW5maWxlLm1hZT4nLCAnLW9tYWUnLCAnPG91dGZpbGUubWFlPic=

> <r_lp_tautomer_probability>
1

> <r_epik_Ionization_Penalty>
0.383805

> <r_epik_Ionization_Penalty_Charging>
0

> <r_epik_Ionization_Penalty_Neutral>
0.383805

> <r_epik_State_Penalty>
0.0922942

> <r_epik_Charging_Adjusted_Penalty>
0.0922942

> <i_epik_Tot_Q>
0

> <i_epik_Tot_abs_Q>
0

> <r_epik_Metal_State_Penalty>
0.050432

> <b_epik_Metal_Only>
0

> <s_lp_Force_Field>
OPLS_2005

> <r_lp_Energy>
9.62656

> <b_lp_Chiralities_Consistent>
1

> <s_lp_Variant>
AV-unprocessed.smi:1639-1

> <Gold.Version>
5.8.1

> <Gold.Id.Protein>
6NUR|6NUR_protein|mol2

> <Gold.PLP.Fitness>
44.4445

> <Gold.PLP.PLP>
-39.0776

> <Gold.PLP.part.hbond>
-2.0000

> <Gold.PLP.part.metal>
0.0000

> <Gold.PLP.part.buried>
-4.1509

> <Gold.PLP.part.nonpolar>
-33.3348

> <Gold.PLP.part.repulsive>
0.3803

> <Gold.PLP.ligand.clash>
0.0000

> <Gold.PLP.ligand.torsion>
0.5308

> <Gold.PLP.Chemscore.Hbond>
2.0000

> <Gold.PLP.Chemscore.CHOScore>
0.0000

> <Gold.PLP.Chemscore.Metal>
0.0000

> <Gold.Chemscore.Hbonds>
donor molecule, donor type, donor heavy atom, donor atom, acceptor molecule, acceptor atom, score
      P1  H  7989  7998       L1    13  1.00
      P1  H  7997  8008       L1    16  1.00

> <Gold.PLP.Chemscore.Internal.Correction>
0.4284

> <Gold.Rescore>
     Score         DG    S(hbond)    S(metal)    S(lipo)     H(rot)  DE(clash)    DE(int)     intcor
     14.04     -14.90       0.71        0.00      91.62       1.43       0.24       0.62       ----

> <Gold.Chemscore.Fitness>
14.0414

> <Gold.Chemscore.DG>
-14.8970

> <Gold.Chemscore.ZeroCoef>
-5.4800

> <Gold.Chemscore.Hbond>
0.7055

> <Gold.Chemscore.Metal>
0.0000

> <Gold.Chemscore.Lipo>
91.6216

> <Gold.Chemscore.Internal_Hbond>
0.0000

> <Gold.Chemscore.DEClash>
0.2357

> <Gold.Chemscore.DEInternal>
0.6198

> <Gold.Chemscore.Rot>
1.4293

> <Gold.Chemscore.Internal.Correction>
   9.000000E+99

> <Gold.Chemscore.Hbonds>
donor molecule, donor type, donor heavy atom, donor atom, acceptor molecule, acceptor atom, score
      P1  H  7989  7998       L1    13  0.20
      P1  H  7997  8008       L1    16  0.33

> <Gold.Chemscore.Hbond.Weighted>
-2.3562

> <Gold.Chemscore.Metal.Weighted>
-0.0000

> <Gold.Chemscore.Lipo.Weighted>
-10.7197

> <Gold.Chemscore.Internal_Hbond.Weighted>
0.0000

> <Gold.Chemscore.DEClash.Weighted>
0.2357

> <Gold.Chemscore.DEInternal.Weighted>
0.6198

> <Gold.Chemscore.Rot.Weighted>
3.6589

> <Gold.Chemscore.Internal.Correction.Weighted>
   9.000000E+99

> <Gold.Protein.RotatedTorsions>
[ 6907 6896 6895 6894 ] final  142.59 input  -60.11 | X-H torsion
[ 7974 7965 7964 7962 ] final  -31.77 input  175.53 | X-H torsion
[ 8008 7997 7996 7995 ] final  -38.31 input   59.86 | X-H torsion
[ 10167 10162 10161 10158 ] final  -32.53 input  -65.29 | X-H torsion
[ 10718 10713 10712 10709 ] final -118.10 input   66.30 | X-H torsion
[ 10763 10752 10751 10750 ] final   -2.68 input  -60.55 | X-H torsion
[ 11005 11000 10999 10996 ] final  -37.47 input  -57.11 | X-H torsion

> <Gold.Protein.ActiveResidues>
 VAL166  LYS551  ARG553  GLY616  TRP617  ASP618  TYR619  PRO620  LYS621  CYS622 
 ASP623  PHE694  ASN695  SER759  ASP760  ASP761  ALA762  ILE779  LEU786  VAL792 
 PHE793  MET794  SER795  GLU796  ALA797  LYS798  CYS799  TRP800  GLU811  SER814 

> <Gold.Protein.RotatedAtoms>
  152.2168  133.4953  159.5140 H   0  0  0  0  0  0  0  0  0  0  0  0  # atno 6907 bound_to 6896
  150.7003  134.1395  159.4108 H   0  0  0  0  0  0  0  0  0  0  0  0  # atno 6908 bound_to 6896
  151.9315  135.0254  160.0580 H   0  0  0  0  0  0  0  0  0  0  0  0  # atno 6909 bound_to 6896
  146.1042  140.5708  142.8807 H   0  0  0  0  0  0  0  0  0  0  0  0  # atno 7974 bound_to 7965
  154.4039  140.1581  156.2679 H   0  0  0  0  0  0  0  0  0  0  0  0  # atno 8008 bound_to 7997
  155.8979  140.3435  155.5982 H   0  0  0  0  0  0  0  0  0  0  0  0  # atno 8009 bound_to 7997
  155.7483  140.0801  157.2204 H   0  0  0  0  0  0  0  0  0  0  0  0  # atno 8010 bound_to 7997
  140.7219  143.3687  151.1819 H   0  0  0  0  0  0  0  0  0  0  0  0  # atno 10167 bound_to 10162
  156.1082  130.6227  150.9248 H   0  0  0  0  0  0  0  0  0  0  0  0  # atno 10718 bound_to 10713
  153.3613  135.6990  153.6710 H   0  0  0  0  0  0  0  0  0  0  0  0  # atno 10763 bound_to 10752
  153.5397  135.3575  155.2713 H   0  0  0  0  0  0  0  0  0  0  0  0  # atno 10764 bound_to 10752
  154.8668  135.4200  154.2871 H   0  0  0  0  0  0  0  0  0  0  0  0  # atno 10765 bound_to 10752
  140.9954  133.6983  156.1925 H   0  0  0  0  0  0  0  0  0  0  0  0  # atno 11005 bound_to 11000
  144.7457  140.5062  143.6837 LP  0  0  0  0  0  0  0  0  0  0  0  0  # atno 17320 bound_to 7965
  145.5794  139.1488  143.3244 LP  0  0  0  0  0  0  0  0  0  0  0  0  # atno 17321 bound_to 7965
  139.7254  143.9156  152.3001 LP  0  0  0  0  0  0  0  0  0  0  0  0  # atno 17342 bound_to 10162
  139.8927  144.6956  150.8752 LP  0  0  0  0  0  0  0  0  0  0  0  0  # atno 17343 bound_to 10162
  157.6260  131.0925  150.8532 LP  0  0  0  0  0  0  0  0  0  0  0  0  # atno 17370 bound_to 10713
  156.8647  130.5125  149.5301 LP  0  0  0  0  0  0  0  0  0  0  0  0  # atno 17371 bound_to 10713
  140.6974  134.4601  157.5587 LP  0  0  0  0  0  0  0  0  0  0  0  0  # atno 17394 bound_to 11000
  139.9012  134.8552  156.1888 LP  0  0  0  0  0  0  0  0  0  0  0  0  # atno 17395 bound_to 11000

$$$$
