AV-unprocessed.smi:2424|AV-procd|sdf|9570|dock1
  -GOLD-   2272013203D 1   1.00000     0.00000
 Structure written by MMmdl.
 49 50  0  0  0  0  0  0  0  0  2 V2000
  146.9791  140.8319  156.4430 C   0  0  0  0  0  0  0  0  0  0  0  0
  147.6791  139.4641  156.5350 C   0  0  0  0  0  0  0  0  0  0  0  0
  147.9652  138.7457  155.1839 C   0  0  0  0  0  0  0  0  0  0  0  0
  148.7867  137.4697  155.4843 C   0  0  0  0  0  0  0  0  0  0  0  0
  148.0855  136.4152  156.3530 C   0  0  0  0  0  0  0  0  0  0  0  0
  146.7624  138.6350  154.1953 C   0  0  2  0  0  0  0  0  0  0  0  0
  146.8933  137.5241  153.2464 N   0  0  0  0  0  0  0  0  0  0  0  0
  145.8884  136.7527  152.8113 C   0  0  0  0  0  0  0  0  0  0  0  0
  144.7158  136.9157  153.1467 O   0  0  0  0  0  0  0  0  0  0  0  0
  146.3501  135.7867  151.9971 N   0  0  0  0  0  0  0  0  0  0  0  0
  145.6330  134.7905  151.3213 C   0  0  0  0  0  0  0  0  0  0  0  0
  144.6358  134.9652  150.3716 C   0  0  0  0  0  0  0  0  0  0  0  0
  143.9457  134.0183  149.6980 N   0  5  0  0  0  0  0  0  0  0  0  0
  144.2287  132.7080  149.9480 C   0  0  0  0  0  0  0  0  0  0  0  0
  143.6361  131.7954  149.3736 O   0  0  0  0  0  0  0  0  0  0  0  0
  145.2764  132.3833  150.9360 C   0  0  0  0  0  0  0  0  0  0  0  0
  145.5924  130.9241  151.2155 C   0  0  0  0  0  0  0  0  0  0  0  0
  145.9279  133.3880  151.5717 C   0  0  0  0  0  0  0  0  0  0  0  0
  147.1923  139.9763  153.5715 C   0  0  2  0  0  0  0  0  0  0  0  0
  146.9590  140.2470  152.0874 C   0  0  0  0  0  0  0  0  0  0  0  0
  148.6009  139.6469  154.0899 C   0  0  1  0  0  0  0  0  0  0  0  0
  149.3416  140.7401  154.6134 O   0  0  0  0  0  0  0  0  0  0  0  0
  150.5107  140.3447  155.3085 C   0  0  0  0  0  0  0  0  0  0  0  0
  146.6469  141.1555  157.4295 H   0  0  0  0  0  0  0  0  0  0  0  0
  146.1076  140.8173  155.7915 H   0  0  0  0  0  0  0  0  0  0  0  0
  147.6570  141.6005  156.0726 H   0  0  0  0  0  0  0  0  0  0  0  0
  148.6026  139.6313  157.0887 H   0  0  0  0  0  0  0  0  0  0  0  0
  147.0878  138.8198  157.1866 H   0  0  0  0  0  0  0  0  0  0  0  0
  149.0728  136.9856  154.5502 H   0  0  0  0  0  0  0  0  0  0  0  0
  149.7364  137.7350  155.9500 H   0  0  0  0  0  0  0  0  0  0  0  0
  148.6604  135.4892  156.3668 H   0  0  0  0  0  0  0  0  0  0  0  0
  147.0904  136.1790  155.9765 H   0  0  0  0  0  0  0  0  0  0  0  0
  147.9920  136.7459  157.3865 H   0  0  0  0  0  0  0  0  0  0  0  0
  145.7796  138.6972  154.6601 H   0  0  0  0  0  0  0  0  0  0  0  0
  147.8249  137.3124  152.9211 H   0  0  0  0  0  0  0  0  0  0  0  0
  147.3494  135.7554  151.8592 H   0  0  0  0  0  0  0  0  0  0  0  0
  144.3593  135.9974  150.0785 H   0  0  0  0  0  0  0  0  0  0  0  0
  146.3874  130.8244  151.9547 H   0  0  0  0  0  0  0  0  0  0  0  0
  145.9153  130.4225  150.3028 H   0  0  0  0  0  0  0  0  0  0  0  0
  144.7098  130.4105  151.5983 H   0  0  0  0  0  0  0  0  0  0  0  0
  146.6920  133.1421  152.2943 H   0  0  0  0  0  0  0  0  0  0  0  0
  146.7646  140.7830  154.1699 H   0  0  0  0  0  0  0  0  0  0  0  0
  147.5463  139.5791  151.4569 H   0  0  0  0  0  0  0  0  0  0  0  0
  147.2290  141.2689  151.8227 H   0  0  0  0  0  0  0  0  0  0  0  0
  145.9098  140.1098  151.8251 H   0  0  0  0  0  0  0  0  0  0  0  0
  149.1822  139.0680  153.3682 H   0  0  0  0  0  0  0  0  0  0  0  0
  151.0014  141.2251  155.7236 H   0  0  0  0  0  0  0  0  0  0  0  0
  151.2199  139.8505  154.6452 H   0  0  0  0  0  0  0  0  0  0  0  0
  150.2726  139.6723  156.1337 H   0  0  0  0  0  0  0  0  0  0  0  0
  1  2  1  0  0  0  0
  1 24  1  0  0  0  0
  1 25  1  0  0  0  0
  1 26  1  0  0  0  0
  2  3  1  0  0  0  0
  2 27  1  0  0  0  0
  2 28  1  0  0  0  0
  3 21  1  0  0  0  0
  3  4  1  0  0  0  0
  3  6  1  0  0  0  0
  4  5  1  0  0  0  0
  4 29  1  0  0  0  0
  4 30  1  0  0  0  0
  5 31  1  0  0  0  0
  5 32  1  0  0  0  0
  5 33  1  0  0  0  0
  6  7  1  0  0  0  0
  6 19  1  0  0  0  0
  6 34  1  0  0  0  0
  7  8  1  0  0  0  0
  7 35  1  0  0  0  0
  8  9  2  0  0  0  0
  8 10  1  0  0  0  0
 10 11  1  0  0  0  0
 10 36  1  0  0  0  0
 11 18  1  0  0  0  0
 11 12  2  0  0  0  0
 12 13  1  0  0  0  0
 12 37  1  0  0  0  0
 13 14  1  0  0  0  0
 14 15  2  0  0  0  0
 14 16  1  0  0  0  0
 16 17  1  0  0  0  0
 16 18  2  0  0  0  0
 17 38  1  0  0  0  0
 17 39  1  0  0  0  0
 17 40  1  0  0  0  0
 18 41  1  0  0  0  0
 19 20  1  0  0  0  0
 19 21  1  0  0  0  0
 19 42  1  0  0  0  0
 20 43  1  0  0  0  0
 20 44  1  0  0  0  0
 20 45  1  0  0  0  0
 21 22  1  0  0  0  0
 21 46  1  0  0  0  0
 22 23  1  0  0  0  0
 23 47  1  0  0  0  0
 23 48  1  0  0  0  0
 23 49  1  0  0  0  0
M  CHG  1  13  -1
M  END
> <s_m_source_file>
AV-unprocessed.smi

> <i_m_source_file_index>
2424

> <i_lp_mmshare_version>
43012

> <i_f3d_flags>
0

> <s_epik_input>
W0NIM11PW0NAQEhdMVtDQEhdKFtDSDNdKVtDQEBIXShDMShbQ0gyXVtDSDNdKVtDSDJdW0NIM10pW05IXUMoPU8pW05IXWMyW2NIXVtuSF1jKD1PKWMoW0NIM10pW2NIXTI=

> <s_epik_cmdline>
J2VwaWtfcHl0aG9uJywgJy1waCcsICc3LjAnLCAnLXRuJywgJzgnLCAnLW1hJywgJzIwMCcsICctbWV0YWxfYmluZGluZycsICctaW1hZScsICc8aW5maWxlLm1hZT4nLCAnLW9tYWUnLCAnPG91dGZpbGUubWFlPic=

> <r_lp_tautomer_probability>
1

> <r_epik_Ionization_Penalty>
7.6122

> <r_epik_Ionization_Penalty_Charging>
1.53843

> <r_epik_Ionization_Penalty_Neutral>
6.07377

> <r_epik_State_Penalty>
6.07371

> <r_epik_Charging_Adjusted_Penalty>
7.61214

> <i_epik_Tot_Q>
-1

> <i_epik_Tot_abs_Q>
1

> <r_epik_Metal_State_Penalty>
2.02136

> <b_epik_Metal_Only>
1

> <s_lp_Force_Field>
OPLS_2005

> <r_lp_Energy>
41.3797

> <b_lp_Chiralities_Consistent>
1

> <s_lp_Variant>
AV-unprocessed.smi:2424-12

> <Gold.Version>
5.8.1

> <Gold.Id.Protein>
6NUR|6NUR_protein|mol2

> <Gold.PLP.Fitness>
35.5612

> <Gold.PLP.PLP>
-28.2196

> <Gold.PLP.part.hbond>
-3.0064

> <Gold.PLP.part.metal>
0.0000

> <Gold.PLP.part.buried>
-1.6562

> <Gold.PLP.part.nonpolar>
-25.1380

> <Gold.PLP.part.repulsive>
2.1459

> <Gold.PLP.ligand.clash>
0.0000

> <Gold.PLP.ligand.torsion>
0.9127

> <Gold.PLP.Chemscore.Hbond>
2.8560

> <Gold.PLP.Chemscore.CHOScore>
0.0000

> <Gold.PLP.Chemscore.Metal>
0.0000

> <Gold.Chemscore.Hbonds>
donor molecule, donor type, donor heavy atom, donor atom, acceptor molecule, acceptor atom, score
      L1  H     7    35       P1  7948  0.98
      L1  H    10    36       P1  7948  1.00
      P1  H 10785 10796       L1    15  0.91

> <Gold.PLP.Chemscore.Internal.Correction>
0.5991

> <Gold.Rescore>
     Score         DG    S(hbond)    S(metal)    S(lipo)     H(rot)  DE(clash)    DE(int)     intcor
     15.96     -19.44       2.82        0.00      72.03       1.52       1.54       1.94       ----

> <Gold.Chemscore.Fitness>
15.9601

> <Gold.Chemscore.DG>
-19.4389

> <Gold.Chemscore.ZeroCoef>
-5.4800

> <Gold.Chemscore.Hbond>
2.8213

> <Gold.Chemscore.Metal>
0.0000

> <Gold.Chemscore.Lipo>
72.0348

> <Gold.Chemscore.Internal_Hbond>
0.0000

> <Gold.Chemscore.DEClash>
1.5419

> <Gold.Chemscore.DEInternal>
1.9368

> <Gold.Chemscore.Rot>
1.5204

> <Gold.Chemscore.Internal.Correction>
   9.000000E+99

> <Gold.Chemscore.Hbonds>
donor molecule, donor type, donor heavy atom, donor atom, acceptor molecule, acceptor atom, score
      L1  H     7    35       P1  7948  0.93
      L1  H    10    36       P1  7948  0.99
      P1  H 10785 10796       L1    15  0.88

> <Gold.Chemscore.Hbond.Weighted>
-9.4231

> <Gold.Chemscore.Metal.Weighted>
-0.0000

> <Gold.Chemscore.Lipo.Weighted>
-8.4281

> <Gold.Chemscore.Internal_Hbond.Weighted>
0.0000

> <Gold.Chemscore.DEClash.Weighted>
1.5419

> <Gold.Chemscore.DEInternal.Weighted>
1.9368

> <Gold.Chemscore.Rot.Weighted>
3.8922

> <Gold.Chemscore.Internal.Correction.Weighted>
   9.000000E+99

> <Gold.Protein.RotatedTorsions>
[ 6907 6896 6895 6894 ] final  -75.56 input  -60.11 | X-H torsion
[ 7974 7965 7964 7962 ] final -109.92 input  175.53 | X-H torsion
[ 8008 7997 7996 7995 ] final    4.79 input   59.86 | X-H torsion
[ 10167 10162 10161 10158 ] final  -96.32 input  -65.29 | X-H torsion
[ 10718 10713 10712 10709 ] final -108.74 input   66.30 | X-H torsion
[ 10763 10752 10751 10750 ] final    4.17 input  -60.55 | X-H torsion
[ 11005 11000 10999 10996 ] final  -61.86 input  -57.11 | X-H torsion

> <Gold.Protein.ActiveResidues>
 VAL166  LYS551  ARG553  GLY616  TRP617  ASP618  TYR619  PRO620  LYS621  CYS622 
 ASP623  PHE694  ASN695  SER759  ASP760  ASP761  ALA762  ILE779  LEU786  VAL792 
 PHE793  MET794  SER795  GLU796  ALA797  LYS798  CYS799  TRP800  GLU811  SER814 

> <Gold.Protein.RotatedAtoms>
  150.7055  134.4702  159.5421 H   0  0  0  0  0  0  0  0  0  0  0  0  # atno 6907 bound_to 6896
  152.2360  134.8273  160.0476 H   0  0  0  0  0  0  0  0  0  0  0  0  # atno 6908 bound_to 6896
  151.9072  133.3517  159.3888 H   0  0  0  0  0  0  0  0  0  0  0  0  # atno 6909 bound_to 6896
  145.1746  140.8942  143.3515 H   0  0  0  0  0  0  0  0  0  0  0  0  # atno 7974 bound_to 7965
  154.7203  140.2710  155.6547 H   0  0  0  0  0  0  0  0  0  0  0  0  # atno 8008 bound_to 7997
  156.2822  140.2735  156.1798 H   0  0  0  0  0  0  0  0  0  0  0  0  # atno 8009 bound_to 7997
  155.0516  140.0371  157.2535 H   0  0  0  0  0  0  0  0  0  0  0  0  # atno 8010 bound_to 7997
  140.2951  143.3197  152.0306 H   0  0  0  0  0  0  0  0  0  0  0  0  # atno 10167 bound_to 10162
  156.0501  130.5728  150.8002 H   0  0  0  0  0  0  0  0  0  0  0  0  # atno 10718 bound_to 10713
  153.2744  135.6935  153.7448 H   0  0  0  0  0  0  0  0  0  0  0  0  # atno 10763 bound_to 10752
  153.6459  135.3385  155.3086 H   0  0  0  0  0  0  0  0  0  0  0  0  # atno 10764 bound_to 10752
  154.8475  135.4443  154.1777 H   0  0  0  0  0  0  0  0  0  0  0  0  # atno 10765 bound_to 10752
  141.1339  133.6634  156.5440 H   0  0  0  0  0  0  0  0  0  0  0  0  # atno 11005 bound_to 11000
  145.0198  139.3434  143.6078 LP  0  0  0  0  0  0  0  0  0  0  0  0  # atno 17320 bound_to 7965
  146.3463  139.9494  142.8731 LP  0  0  0  0  0  0  0  0  0  0  0  0  # atno 17321 bound_to 7965
  139.4928  144.6497  151.6702 LP  0  0  0  0  0  0  0  0  0  0  0  0  # atno 17342 bound_to 10162
  140.5699  144.0126  150.6211 LP  0  0  0  0  0  0  0  0  0  0  0  0  # atno 17343 bound_to 10162
  157.5418  131.0941  150.9817 LP  0  0  0  0  0  0  0  0  0  0  0  0  # atno 17370 bound_to 10713
  157.0098  130.5632  149.5319 LP  0  0  0  0  0  0  0  0  0  0  0  0  # atno 17371 bound_to 10713
  140.4117  134.7266  157.4839 LP  0  0  0  0  0  0  0  0  0  0  0  0  # atno 17394 bound_to 11000
  140.0423  134.6250  155.8966 LP  0  0  0  0  0  0  0  0  0  0  0  0  # atno 17395 bound_to 11000

$$$$
