AV-unprocessed.smi:2074|AV-procd|sdf|8453|dock10
  -GOLD-   2272011153D 1   1.00000     0.00000
 Structure written by MMmdl.
 43 44  0  0  0  0  0  0  0  0  1 V2000
  149.5450  135.7146  154.6524 C   0  0  0  0  0  0  0  0  0  0  0  0
  149.2728  137.1780  154.4552 C   0  0  0  0  0  0  0  0  0  0  0  0
  148.0249  137.6081  154.3709 N   0  0  0  0  0  0  0  0  0  0  0  0
  148.1088  138.9916  154.1857 O   0  0  0  0  0  0  0  0  0  0  0  0
  149.4194  139.3437  154.1654 C   0  0  0  0  0  0  0  0  0  0  0  0
  149.7193  140.7908  153.9683 C   0  0  0  0  0  0  0  0  0  0  0  0
  150.2120  138.2420  154.3357 C   0  0  0  0  0  0  0  0  0  0  0  0
  151.7183  138.1591  154.3828 C   0  0  0  0  0  0  0  0  0  0  0  0
  152.3192  139.1904  155.3463 C   0  0  0  0  0  0  0  0  0  0  0  0
  153.2615  139.9096  155.0105 O   0  0  0  0  0  0  0  0  0  0  0  0
  151.7486  139.2522  156.5587 N   0  0  0  0  0  0  0  0  0  0  0  0
  152.1391  140.1689  157.6267 C   0  0  0  0  0  0  0  0  0  0  0  0
  151.5588  141.6039  157.4579 C   0  0  1  0  0  0  0  0  0  0  0  0
  150.0129  141.5149  157.3861 C   0  0  0  0  0  0  0  0  0  0  0  0
  152.0305  142.5507  158.4956 N   0  0  0  0  0  0  0  0  0  0  0  0
  151.7463  142.0813  159.8569 C   0  0  0  0  0  0  0  0  0  0  0  0
  152.2078  143.0714  160.9403 C   0  0  0  0  0  0  0  0  0  0  0  0
  151.5956  144.3350  160.7247 O   0  0  0  0  0  0  0  0  0  0  0  0
  151.9085  144.8665  159.4449 C   0  0  0  0  0  0  0  0  0  0  0  0
  151.4475  143.8898  158.3491 C   0  0  0  0  0  0  0  0  0  0  0  0
  150.1605  135.3222  153.8424 H   0  0  0  0  0  0  0  0  0  0  0  0
  148.6244  135.1307  154.6817 H   0  0  0  0  0  0  0  0  0  0  0  0
  150.0773  135.5407  155.5875 H   0  0  0  0  0  0  0  0  0  0  0  0
  150.7294  140.9306  153.5829 H   0  0  0  0  0  0  0  0  0  0  0  0
  149.6373  141.3333  154.9101 H   0  0  0  0  0  0  0  0  0  0  0  0
  149.0244  141.2378  153.2573 H   0  0  0  0  0  0  0  0  0  0  0  0
  152.0423  137.1659  154.6957 H   0  0  0  0  0  0  0  0  0  0  0  0
  152.1492  138.3198  153.3942 H   0  0  0  0  0  0  0  0  0  0  0  0
  150.9815  138.6256  156.7545 H   0  0  0  0  0  0  0  0  0  0  0  0
  151.8063  139.7447  158.5744 H   0  0  0  0  0  0  0  0  0  0  0  0
  153.2278  140.1685  157.6560 H   0  0  0  0  0  0  0  0  0  0  0  0
  151.8989  141.9760  156.4903 H   0  0  0  0  0  0  0  0  0  0  0  0
  149.6704  140.7813  156.6570 H   0  0  0  0  0  0  0  0  0  0  0  0
  149.5595  142.4545  157.0732 H   0  0  0  0  0  0  0  0  0  0  0  0
  149.5885  141.2395  158.3521 H   0  0  0  0  0  0  0  0  0  0  0  0
  150.6769  141.8956  159.9684 H   0  0  0  0  0  0  0  0  0  0  0  0
  152.2535  141.1382  160.0521 H   0  0  0  0  0  0  0  0  0  0  0  0
  151.9305  142.7062  161.9291 H   0  0  0  0  0  0  0  0  0  0  0  0
  153.2937  143.1769  160.9312 H   0  0  0  0  0  0  0  0  0  0  0  0
  151.4093  145.8284  159.3281 H   0  0  0  0  0  0  0  0  0  0  0  0
  152.9812  145.0520  159.3710 H   0  0  0  0  0  0  0  0  0  0  0  0
  151.7301  144.3322  157.3962 H   0  0  0  0  0  0  0  0  0  0  0  0
  150.3586  143.8226  158.3583 H   0  0  0  0  0  0  0  0  0  0  0  0
  1  2  1  0  0  0  0
  1 21  1  0  0  0  0
  1 22  1  0  0  0  0
  1 23  1  0  0  0  0
  2  7  1  0  0  0  0
  2  3  2  0  0  0  0
  3  4  1  0  0  0  0
  4  5  1  0  0  0  0
  5  6  1  0  0  0  0
  5  7  2  0  0  0  0
  6 24  1  0  0  0  0
  6 25  1  0  0  0  0
  6 26  1  0  0  0  0
  7  8  1  0  0  0  0
  8  9  1  0  0  0  0
  8 27  1  0  0  0  0
  8 28  1  0  0  0  0
  9 10  2  0  0  0  0
  9 11  1  0  0  0  0
 11 12  1  0  0  0  0
 11 29  1  0  0  0  0
 12 13  1  0  0  0  0
 12 30  1  0  0  0  0
 12 31  1  0  0  0  0
 13 14  1  0  0  0  0
 13 15  1  0  0  0  0
 13 32  1  0  0  0  0
 14 33  1  0  0  0  0
 14 34  1  0  0  0  0
 14 35  1  0  0  0  0
 15 20  1  0  0  0  0
 15 16  1  0  0  0  0
 16 17  1  0  0  0  0
 16 36  1  0  0  0  0
 16 37  1  0  0  0  0
 17 18  1  0  0  0  0
 17 38  1  0  0  0  0
 17 39  1  0  0  0  0
 18 19  1  0  0  0  0
 19 20  1  0  0  0  0
 19 40  1  0  0  0  0
 19 41  1  0  0  0  0
 20 42  1  0  0  0  0
 20 43  1  0  0  0  0
M  END
> <s_m_source_file>
AV-unprocessed.smi

> <i_m_source_file_index>
2074

> <i_lp_mmshare_version>
43012

> <i_f3d_flags>
0

> <s_epik_input>
W0NIM11jMW5vYyhbQ0gzXSljMVtDSDJdQyg9TylbTkhdW0NIMl1bQ0BIXShbQ0gzXSlOMltDSDJdW0NIMl1PW0NIMl1bQ0gyXTI=

> <s_epik_cmdline>
J2VwaWtfcHl0aG9uJywgJy1waCcsICc3LjAnLCAnLXRuJywgJzgnLCAnLW1hJywgJzIwMCcsICctbWV0YWxfYmluZGluZycsICctaW1hZScsICc8aW5maWxlLm1hZT4nLCAnLW9tYWUnLCAnPG91dGZpbGUubWFlPic=

> <r_epik_Ionization_Penalty>
0.234179

> <r_epik_Ionization_Penalty_Charging>
0

> <r_epik_Ionization_Penalty_Neutral>
0.234179

> <r_epik_State_Penalty>
0.224936

> <r_epik_Charging_Adjusted_Penalty>
0.224936

> <i_epik_Tot_Q>
0

> <i_epik_Tot_abs_Q>
0

> <r_epik_Metal_State_Penalty>
0.224936

> <b_epik_Metal_Only>
0

> <s_lp_Force_Field>
OPLS_2005

> <r_lp_Energy>
23.5804

> <b_lp_Chiralities_Consistent>
1

> <s_lp_Variant>
AV-unprocessed.smi:2074-2

> <Gold.Version>
5.8.1

> <Gold.Id.Protein>
6NUR|6NUR_protein|mol2

> <Gold.PLP.Fitness>
40.4370

> <Gold.PLP.PLP>
-36.9853

> <Gold.PLP.part.hbond>
-2.0000

> <Gold.PLP.part.metal>
0.0000

> <Gold.PLP.part.buried>
-2.8967

> <Gold.PLP.part.nonpolar>
-30.7744

> <Gold.PLP.part.repulsive>
0.3775

> <Gold.PLP.ligand.clash>
0.0000

> <Gold.PLP.ligand.torsion>
0.4109

> <Gold.PLP.Chemscore.Hbond>
1.4160

> <Gold.PLP.Chemscore.CHOScore>
0.0000

> <Gold.PLP.Chemscore.Metal>
0.0000

> <Gold.Chemscore.Hbonds>
donor molecule, donor type, donor heavy atom, donor atom, acceptor molecule, acceptor atom, score
      P1  H  7989  7998       L1    10  0.01
      P1  H  7997  8008       L1    10  0.94

> <Gold.PLP.Chemscore.Internal.Correction>
0.0256

> <Gold.Rescore>
     Score         DG    S(hbond)    S(metal)    S(lipo)     H(rot)  DE(clash)    DE(int)     intcor
     15.44     -15.91       1.10        0.00      95.37       1.72       0.10       0.37       ----

> <Gold.Chemscore.Fitness>
15.4429

> <Gold.Chemscore.DG>
-15.9144

> <Gold.Chemscore.ZeroCoef>
-5.4800

> <Gold.Chemscore.Hbond>
1.1013

> <Gold.Chemscore.Metal>
0.0000

> <Gold.Chemscore.Lipo>
95.3653

> <Gold.Chemscore.Internal_Hbond>
0.0000

> <Gold.Chemscore.DEClash>
0.1007

> <Gold.Chemscore.DEInternal>
0.3708

> <Gold.Chemscore.Rot>
1.7195

> <Gold.Chemscore.Internal.Correction>
   9.000000E+99

> <Gold.Chemscore.Hbonds>
donor molecule, donor type, donor heavy atom, donor atom, acceptor molecule, acceptor atom, score
      P1  H  7997  8008       L1    10  0.90

> <Gold.Chemscore.Hbond.Weighted>
-3.6785

> <Gold.Chemscore.Metal.Weighted>
-0.0000

> <Gold.Chemscore.Lipo.Weighted>
-11.1577

> <Gold.Chemscore.Internal_Hbond.Weighted>
0.0000

> <Gold.Chemscore.DEClash.Weighted>
0.1007

> <Gold.Chemscore.DEInternal.Weighted>
0.3708

> <Gold.Chemscore.Rot.Weighted>
4.4018

> <Gold.Chemscore.Internal.Correction.Weighted>
   9.000000E+99

> <Gold.Protein.RotatedTorsions>
[ 6907 6896 6895 6894 ] final   76.03 input  -60.11 | X-H torsion
[ 7974 7965 7964 7962 ] final  -77.56 input  175.53 | X-H torsion
[ 8008 7997 7996 7995 ] final  -15.90 input   59.86 | X-H torsion
[ 10167 10162 10161 10158 ] final  116.97 input  -65.29 | X-H torsion
[ 10718 10713 10712 10709 ] final -178.90 input   66.30 | X-H torsion
[ 10763 10752 10751 10750 ] final   45.77 input  -60.55 | X-H torsion
[ 11005 11000 10999 10996 ] final   35.67 input  -57.11 | X-H torsion

> <Gold.Protein.ActiveResidues>
 VAL166  LYS551  ARG553  GLY616  TRP617  ASP618  TYR619  PRO620  LYS621  CYS622 
 ASP623  PHE694  ASN695  SER759  ASP760  ASP761  ALA762  ILE779  LEU786  VAL792 
 PHE793  MET794  SER795  GLU796  ALA797  LYS798  CYS799  TRP800  GLU811  SER814 

> <Gold.Protein.RotatedAtoms>
  152.5054  134.4031  159.9422 H   0  0  0  0  0  0  0  0  0  0  0  0  # atno 6907 bound_to 6896
  151.3995  133.3756  159.2738 H   0  0  0  0  0  0  0  0  0  0  0  0  # atno 6908 bound_to 6896
  150.9372  134.8805  159.7648 H   0  0  0  0  0  0  0  0  0  0  0  0  # atno 6909 bound_to 6896
  145.5980  140.9415  143.1256 H   0  0  0  0  0  0  0  0  0  0  0  0  # atno 7974 bound_to 7965
  154.5094  140.2184  155.9186 H   0  0  0  0  0  0  0  0  0  0  0  0  # atno 8008 bound_to 7997
  156.1534  140.3157  155.8651 H   0  0  0  0  0  0  0  0  0  0  0  0  # atno 8009 bound_to 7997
  155.3895  140.0477  157.3032 H   0  0  0  0  0  0  0  0  0  0  0  0  # atno 8010 bound_to 7997
  139.6210  144.7101  151.2634 H   0  0  0  0  0  0  0  0  0  0  0  0  # atno 10167 bound_to 10162
  156.8511  130.9719  151.3092 H   0  0  0  0  0  0  0  0  0  0  0  0  # atno 10718 bound_to 10713
  152.9820  135.6029  154.3491 H   0  0  0  0  0  0  0  0  0  0  0  0  # atno 10763 bound_to 10752
  154.3182  135.2770  155.2534 H   0  0  0  0  0  0  0  0  0  0  0  0  # atno 10764 bound_to 10752
  154.4713  135.5941  153.6379 H   0  0  0  0  0  0  0  0  0  0  0  0  # atno 10765 bound_to 10752
  140.2403  134.3422  155.7928 H   0  0  0  0  0  0  0  0  0  0  0  0  # atno 11005 bound_to 11000
  144.7322  139.7691  143.7343 LP  0  0  0  0  0  0  0  0  0  0  0  0  # atno 17320 bound_to 7965
  146.1597  139.4707  142.9996 LP  0  0  0  0  0  0  0  0  0  0  0  0  # atno 17321 bound_to 7965
  140.7382  143.6655  150.8127 LP  0  0  0  0  0  0  0  0  0  0  0  0  # atno 17342 bound_to 10162
  140.0266  143.5487  152.2778 LP  0  0  0  0  0  0  0  0  0  0  0  0  # atno 17343 bound_to 10162
  157.6303  130.8724  149.9262 LP  0  0  0  0  0  0  0  0  0  0  0  0  # atno 17370 bound_to 10713
  156.0828  130.3671  150.0547 LP  0  0  0  0  0  0  0  0  0  0  0  0  # atno 17371 bound_to 10713
  141.2211  133.7295  156.8875 LP  0  0  0  0  0  0  0  0  0  0  0  0  # atno 17394 bound_to 11000
  140.1660  134.9133  157.2774 LP  0  0  0  0  0  0  0  0  0  0  0  0  # atno 17395 bound_to 11000

$$$$
