AV-unprocessed.smi:2063|AV-procd|sdf|8413|dock9
  -GOLD-   2272011103D 1   1.00000     0.00000
 Structure written by MMmdl.
 38 39  0  0  0  0  0  0  0  0  2 V2000
  154.6668  135.5171  163.2378 C   0  0  0  0  0  0  0  0  0  0  0  0
  155.2630  135.7203  161.8374 C   0  0  0  0  0  0  0  0  0  0  0  0
  156.6244  136.4303  161.8587 C   0  0  0  0  0  0  0  0  0  0  0  0
  154.2959  136.3798  160.9045 C   0  0  0  0  0  0  0  0  0  0  0  0
  153.8716  135.8129  159.7707 N   0  0  0  0  0  0  0  0  0  0  0  0
  152.9869  136.6255  159.0771 N   0  0  0  0  0  0  0  0  0  0  0  0
  152.7614  137.7979  159.6866 C   0  0  0  0  0  0  0  0  0  0  0  0
  151.9391  138.7298  159.1765 N   0  5  0  0  0  0  0  0  0  0  0  0
  152.4381  139.9196  158.7694 C   0  0  0  0  0  0  0  0  0  0  0  0
  153.6305  140.2001  158.6266 O   0  0  0  0  0  0  0  0  0  0  0  0
  151.4981  140.8408  158.5120 N   0  0  0  0  0  0  0  0  0  0  0  0
  151.7329  142.2137  158.0686 C   0  0  1  0  0  0  0  0  0  0  0  0
  150.9897  142.4635  156.7440 C   0  0  0  0  0  0  0  0  0  0  0  0
  151.2904  143.1875  159.1784 C   0  0  2  0  0  0  0  0  0  0  0  0
  151.7573  144.6307  158.9847 C   0  0  0  0  0  0  0  0  0  0  0  0
  151.6890  145.1665  160.3963 C   0  0  0  0  0  0  0  0  0  0  0  0
  152.1466  143.9642  161.2175 C   0  0  0  0  0  0  0  0  0  0  0  0
  151.8559  142.8105  160.4320 O   0  0  0  0  0  0  0  0  0  0  0  0
  153.6269  137.9744  161.2125 S   0  0  0  0  0  0  0  0  0  0  0  0
  153.7436  134.9387  163.1900 H   0  0  0  0  0  0  0  0  0  0  0  0
  154.4377  136.4712  163.7136 H   0  0  0  0  0  0  0  0  0  0  0  0
  155.3599  134.9805  163.8859 H   0  0  0  0  0  0  0  0  0  0  0  0
  155.4450  134.7231  161.4351 H   0  0  0  0  0  0  0  0  0  0  0  0
  157.0549  136.4820  160.8582 H   0  0  0  0  0  0  0  0  0  0  0  0
  157.3333  135.9012  162.4964 H   0  0  0  0  0  0  0  0  0  0  0  0
  156.5343  137.4493  162.2363 H   0  0  0  0  0  0  0  0  0  0  0  0
  150.5360  140.5673  158.6490 H   0  0  0  0  0  0  0  0  0  0  0  0
  152.8022  142.3552  157.9016 H   0  0  0  0  0  0  0  0  0  0  0  0
  151.1754  143.4684  156.3655 H   0  0  0  0  0  0  0  0  0  0  0  0
  149.9125  142.3466  156.8666 H   0  0  0  0  0  0  0  0  0  0  0  0
  151.3130  141.7647  155.9719 H   0  0  0  0  0  0  0  0  0  0  0  0
  150.2041  143.1738  159.2837 H   0  0  0  0  0  0  0  0  0  0  0  0
  152.7867  144.6570  158.6245 H   0  0  0  0  0  0  0  0  0  0  0  0
  151.1346  145.1918  158.2877 H   0  0  0  0  0  0  0  0  0  0  0  0
  152.3083  146.0503  160.5519 H   0  0  0  0  0  0  0  0  0  0  0  0
  150.6588  145.4223  160.6473 H   0  0  0  0  0  0  0  0  0  0  0  0
  153.2225  144.0024  161.3905 H   0  0  0  0  0  0  0  0  0  0  0  0
  151.6498  143.9177  162.1868 H   0  0  0  0  0  0  0  0  0  0  0  0
  1  2  1  0  0  0  0
  1 20  1  0  0  0  0
  1 21  1  0  0  0  0
  1 22  1  0  0  0  0
  2  3  1  0  0  0  0
  2  4  1  0  0  0  0
  2 23  1  0  0  0  0
  3 24  1  0  0  0  0
  3 25  1  0  0  0  0
  3 26  1  0  0  0  0
  4 19  1  0  0  0  0
  4  5  2  0  0  0  0
  5  6  1  0  0  0  0
  6  7  2  0  0  0  0
  7  8  1  0  0  0  0
  7 19  1  0  0  0  0
  8  9  1  0  0  0  0
  9 10  2  0  0  0  0
  9 11  1  0  0  0  0
 11 12  1  0  0  0  0
 11 27  1  0  0  0  0
 12 13  1  0  0  0  0
 12 14  1  0  0  0  0
 12 28  1  0  0  0  0
 13 29  1  0  0  0  0
 13 30  1  0  0  0  0
 13 31  1  0  0  0  0
 14 18  1  0  0  0  0
 14 15  1  0  0  0  0
 14 32  1  0  0  0  0
 15 16  1  0  0  0  0
 15 33  1  0  0  0  0
 15 34  1  0  0  0  0
 16 17  1  0  0  0  0
 16 35  1  0  0  0  0
 16 36  1  0  0  0  0
 17 18  1  0  0  0  0
 17 37  1  0  0  0  0
 17 38  1  0  0  0  0
M  CHG  1   8  -1
M  END
> <s_m_source_file>
AV-unprocessed.smi

> <i_m_source_file_index>
2063

> <i_lp_mmshare_version>
43012

> <i_f3d_flags>
0

> <s_epik_input>
W0NIM11bQ0hdKFtDSDNdKWMxbm5jKHMxKVtOSF1DKD1PKVtOSF1bQ0BIXShbQ0gzXSlbQ0BASF0yW0NIMl1bQ0gyXVtDSDJdTzI=

> <s_epik_cmdline>
J2VwaWtfcHl0aG9uJywgJy1waCcsICc3LjAnLCAnLXRuJywgJzgnLCAnLW1hJywgJzIwMCcsICctbWV0YWxfYmluZGluZycsICctaW1hZScsICc8aW5maWxlLm1hZT4nLCAnLW9tYWUnLCAnPG91dGZpbGUubWFlPic=

> <r_lp_tautomer_probability>
1

> <r_epik_Ionization_Penalty>
4.37022

> <r_epik_Ionization_Penalty_Charging>
4.21437

> <r_epik_Ionization_Penalty_Neutral>
0.15585

> <r_epik_State_Penalty>
4.21389

> <r_epik_Charging_Adjusted_Penalty>
8.42826

> <i_epik_Tot_Q>
-1

> <i_epik_Tot_abs_Q>
1

> <r_epik_Metal_State_Penalty>
0.693772

> <b_epik_Metal_Only>
1

> <s_lp_Force_Field>
OPLS_2005

> <r_lp_Energy>
10.2416

> <b_lp_Chiralities_Consistent>
1

> <s_lp_Variant>
AV-unprocessed.smi:2063-6

> <Gold.Version>
5.8.1

> <Gold.Id.Protein>
6NUR|6NUR_protein|mol2

> <Gold.PLP.Fitness>
36.8675

> <Gold.PLP.PLP>
-33.9676

> <Gold.PLP.part.hbond>
-3.1789

> <Gold.PLP.part.metal>
0.0000

> <Gold.PLP.part.buried>
-4.5649

> <Gold.PLP.part.nonpolar>
-25.3754

> <Gold.PLP.part.repulsive>
0.1586

> <Gold.PLP.ligand.clash>
0.0000

> <Gold.PLP.ligand.torsion>
0.8661

> <Gold.PLP.Chemscore.Hbond>
1.5088

> <Gold.PLP.Chemscore.CHOScore>
0.0000

> <Gold.PLP.Chemscore.Metal>
0.0000

> <Gold.Chemscore.Hbonds>
donor molecule, donor type, donor heavy atom, donor atom, acceptor molecule, acceptor atom, score
      P1  H  6896  6907       L1     5  0.55
      P1  H  7997  8008       L1    10  0.91

> <Gold.PLP.Chemscore.Internal.Correction>
0.1058

> <Gold.Rescore>
     Score         DG    S(hbond)    S(metal)    S(lipo)     H(rot)  DE(clash)    DE(int)     intcor
     15.24     -16.11       1.03        0.00      91.76       1.39       0.09       0.79       ----

> <Gold.Chemscore.Fitness>
15.2355

> <Gold.Chemscore.DG>
-16.1066

> <Gold.Chemscore.ZeroCoef>
-5.4800

> <Gold.Chemscore.Hbond>
1.0322

> <Gold.Chemscore.Metal>
0.0000

> <Gold.Chemscore.Lipo>
91.7575

> <Gold.Chemscore.Internal_Hbond>
0.0000

> <Gold.Chemscore.DEClash>
0.0853

> <Gold.Chemscore.DEInternal>
0.7858

> <Gold.Chemscore.Rot>
1.3893

> <Gold.Chemscore.Internal.Correction>
   9.000000E+99

> <Gold.Chemscore.Hbonds>
donor molecule, donor type, donor heavy atom, donor atom, acceptor molecule, acceptor atom, score
      P1  H  6896  6907       L1     5  0.05
      P1  H  7997  8008       L1    10  0.88

> <Gold.Chemscore.Hbond.Weighted>
-3.4477

> <Gold.Chemscore.Metal.Weighted>
-0.0000

> <Gold.Chemscore.Lipo.Weighted>
-10.7356

> <Gold.Chemscore.Internal_Hbond.Weighted>
0.0000

> <Gold.Chemscore.DEClash.Weighted>
0.0853

> <Gold.Chemscore.DEInternal.Weighted>
0.7858

> <Gold.Chemscore.Rot.Weighted>
3.5567

> <Gold.Chemscore.Internal.Correction.Weighted>
   9.000000E+99

> <Gold.Protein.RotatedTorsions>
[ 6907 6896 6895 6894 ] final   86.31 input  -60.11 | X-H torsion
[ 7974 7965 7964 7962 ] final  163.43 input  175.53 | X-H torsion
[ 8008 7997 7996 7995 ] final  -89.05 input   59.86 | X-H torsion
[ 10167 10162 10161 10158 ] final  142.38 input  -65.29 | X-H torsion
[ 10718 10713 10712 10709 ] final   31.23 input   66.30 | X-H torsion
[ 10763 10752 10751 10750 ] final   34.06 input  -60.55 | X-H torsion
[ 11005 11000 10999 10996 ] final  -63.78 input  -57.11 | X-H torsion

> <Gold.Protein.ActiveResidues>
 VAL166  LYS551  ARG553  GLY616  TRP617  ASP618  TYR619  PRO620  LYS621  CYS622 
 ASP623  PHE694  ASN695  SER759  ASP760  ASP761  ALA762  ILE779  LEU786  VAL792 
 PHE793  MET794  SER795  GLU796  ALA797  LYS798  CYS799  TRP800  GLU811  SER814 

> <Gold.Protein.RotatedAtoms>
  152.5392  134.2451  159.8876 H   0  0  0  0  0  0  0  0  0  0  0  0  # atno 6907 bound_to 6896
  151.2417  133.4389  159.2615 H   0  0  0  0  0  0  0  0  0  0  0  0  # atno 6908 bound_to 6896
  151.0620  134.9757  159.8321 H   0  0  0  0  0  0  0  0  0  0  0  0  # atno 6909 bound_to 6896
  144.7590  139.8181  143.6339 H   0  0  0  0  0  0  0  0  0  0  0  0  # atno 7974 bound_to 7965
  154.6820  140.0546  157.0275 H   0  0  0  0  0  0  0  0  0  0  0  0  # atno 8008 bound_to 7997
  155.0938  140.3222  155.4547 H   0  0  0  0  0  0  0  0  0  0  0  0  # atno 8009 bound_to 7997
  156.2697  140.2043  156.6065 H   0  0  0  0  0  0  0  0  0  0  0  0  # atno 8010 bound_to 7997
  139.4996  144.6110  151.6270 H   0  0  0  0  0  0  0  0  0  0  0  0  # atno 10167 bound_to 10162
  157.2699  130.7202  149.6498 H   0  0  0  0  0  0  0  0  0  0  0  0  # atno 10718 bound_to 10713
  153.0182  135.6370  154.1609 H   0  0  0  0  0  0  0  0  0  0  0  0  # atno 10763 bound_to 10752
  154.1346  135.2838  155.3178 H   0  0  0  0  0  0  0  0  0  0  0  0  # atno 10764 bound_to 10752
  154.6169  135.5538  153.7595 H   0  0  0  0  0  0  0  0  0  0  0  0  # atno 10765 bound_to 10752
  141.1404  133.6656  156.5733 H   0  0  0  0  0  0  0  0  0  0  0  0  # atno 11005 bound_to 11000
  146.1633  139.4755  142.9974 LP  0  0  0  0  0  0  0  0  0  0  0  0  # atno 17320 bound_to 7965
  145.6681  141.0223  143.1672 LP  0  0  0  0  0  0  0  0  0  0  0  0  # atno 17321 bound_to 7965
  140.5785  143.9986  150.6255 LP  0  0  0  0  0  0  0  0  0  0  0  0  # atno 17342 bound_to 10162
  140.3128  143.3187  152.0862 LP  0  0  0  0  0  0  0  0  0  0  0  0  # atno 17343 bound_to 10162
  155.9663  130.4371  150.5161 LP  0  0  0  0  0  0  0  0  0  0  0  0  # atno 17370 bound_to 10713
  157.3083  131.0659  151.2019 LP  0  0  0  0  0  0  0  0  0  0  0  0  # atno 17371 bound_to 10713
  140.3895  134.7452  157.4713 LP  0  0  0  0  0  0  0  0  0  0  0  0  # atno 17394 bound_to 11000
  140.0576  134.6041  155.8786 LP  0  0  0  0  0  0  0  0  0  0  0  0  # atno 17395 bound_to 11000

$$$$
