AV-unprocessed.smi:2473|AV-procd|sdf|9746|dock9
  -GOLD-   2272013383D 1   1.00000     0.00000
 Structure written by MMmdl.
 48 49  0  0  0  0  0  0  0  0  2 V2000
  150.9816  140.3965  157.9632 C   0  0  0  0  0  0  0  0  0  0  0  0
  150.3326  139.5085  156.8917 C   0  0  1  0  0  0  0  0  0  0  0  0
  150.7772  139.9311  155.4770 C   0  0  0  0  0  0  0  0  0  0  0  0
  150.1843  139.0480  154.3549 C   0  0  2  0  0  0  0  0  0  0  0  0
  148.7326  139.3982  153.9764 C   0  0  0  0  0  0  0  0  0  0  0  0
  148.1528  140.3587  154.4837 O   0  0  0  0  0  0  0  0  0  0  0  0
  148.1628  138.6215  153.0431 N   0  0  0  0  0  0  0  0  0  0  0  0
  146.8053  138.7952  152.5467 C   0  0  0  0  0  0  0  0  0  0  0  0
  145.8679  137.7477  153.1602 C   0  0  0  0  0  0  0  0  0  0  0  0
  145.3921  136.7420  152.1586 C   0  0  0  0  0  0  0  0  0  0  0  0
  146.1790  135.9582  151.4120 N   0  3  0  0  0  0  0  0  0  0  0  0
  145.4223  135.1453  150.6125 C   0  0  0  0  0  0  0  0  0  0  0  0
  144.1130  135.4411  150.8887 C   0  0  0  0  0  0  0  0  0  0  0  0
  144.1250  136.4237  151.8454 N   0  0  0  0  0  0  0  0  0  0  0  0
  142.9562  137.0595  152.4575 C   0  0  0  0  0  0  0  0  0  0  0  0
  150.4005  137.5428  154.6561 C   0  0  0  0  0  0  0  0  0  0  0  0
  150.0259  137.0676  156.0870 C   0  0  0  0  0  0  0  0  0  0  0  0
  148.4978  136.9562  156.2838 C   0  0  0  0  0  0  0  0  0  0  0  0
  150.6123  135.6565  156.2961 C   0  0  0  0  0  0  0  0  0  0  0  0
  150.6536  138.0203  157.1334 C   0  0  0  0  0  0  0  0  0  0  0  0
  152.0690  140.3188  157.9396 H   0  0  0  0  0  0  0  0  0  0  0  0
  150.6493  140.1125  158.9622 H   0  0  0  0  0  0  0  0  0  0  0  0
  150.7189  141.4442  157.8152 H   0  0  0  0  0  0  0  0  0  0  0  0
  149.2567  139.6504  156.9817 H   0  0  0  0  0  0  0  0  0  0  0  0
  150.5225  140.9782  155.3058 H   0  0  0  0  0  0  0  0  0  0  0  0
  151.8654  139.8820  155.4185 H   0  0  0  0  0  0  0  0  0  0  0  0
  150.7595  139.2741  153.4556 H   0  0  0  0  0  0  0  0  0  0  0  0
  148.7036  137.8591  152.6607 H   0  0  0  0  0  0  0  0  0  0  0  0
  146.4597  139.8005  152.7933 H   0  0  0  0  0  0  0  0  0  0  0  0
  146.8016  138.7108  151.4591 H   0  0  0  0  0  0  0  0  0  0  0  0
  146.3583  137.2029  153.9677 H   0  0  0  0  0  0  0  0  0  0  0  0
  144.9801  138.2207  153.5821 H   0  0  0  0  0  0  0  0  0  0  0  0
  145.8607  134.4347  149.9267 H   0  0  0  0  0  0  0  0  0  0  0  0
  143.1969  135.0337  150.4858 H   0  0  0  0  0  0  0  0  0  0  0  0
  142.0473  136.5738  152.1014 H   0  0  0  0  0  0  0  0  0  0  0  0
  142.9333  138.1135  152.1808 H   0  0  0  0  0  0  0  0  0  0  0  0
  143.0134  136.9621  153.5420 H   0  0  0  0  0  0  0  0  0  0  0  0
  149.8821  136.9294  153.9176 H   0  0  0  0  0  0  0  0  0  0  0  0
  151.4600  137.3387  154.4935 H   0  0  0  0  0  0  0  0  0  0  0  0
  148.2584  136.5269  157.2572 H   0  0  0  0  0  0  0  0  0  0  0  0
  148.0474  136.3143  155.5261 H   0  0  0  0  0  0  0  0  0  0  0  0
  147.9910  137.9167  156.2373 H   0  0  0  0  0  0  0  0  0  0  0  0
  150.3905  135.2768  157.2942 H   0  0  0  0  0  0  0  0  0  0  0  0
  151.6967  135.6499  156.1812 H   0  0  0  0  0  0  0  0  0  0  0  0
  150.2043  134.9455  155.5767 H   0  0  0  0  0  0  0  0  0  0  0  0
  151.7380  137.8973  157.1258 H   0  0  0  0  0  0  0  0  0  0  0  0
  150.3294  137.7319  158.1343 H   0  0  0  0  0  0  0  0  0  0  0  0
  147.1909  135.9676  151.4376 H   0  0  0  0  0  0  0  0  0  0  0  0
  1  2  1  0  0  0  0
  1 21  1  0  0  0  0
  1 22  1  0  0  0  0
  1 23  1  0  0  0  0
  2 20  1  0  0  0  0
  2  3  1  0  0  0  0
  2 24  1  0  0  0  0
  3  4  1  0  0  0  0
  3 25  1  0  0  0  0
  3 26  1  0  0  0  0
  4  5  1  0  0  0  0
  4 16  1  0  0  0  0
  4 27  1  0  0  0  0
  5  6  2  0  0  0  0
  5  7  1  0  0  0  0
  7  8  1  0  0  0  0
  7 28  1  0  0  0  0
  8  9  1  0  0  0  0
  8 29  1  0  0  0  0
  8 30  1  0  0  0  0
  9 10  1  0  0  0  0
  9 31  1  0  0  0  0
  9 32  1  0  0  0  0
 10 14  1  0  0  0  0
 10 11  2  0  0  0  0
 11 12  1  0  0  0  0
 11 48  1  0  0  0  0
 12 13  2  0  0  0  0
 12 33  1  0  0  0  0
 13 14  1  0  0  0  0
 13 34  1  0  0  0  0
 14 15  1  0  0  0  0
 15 35  1  0  0  0  0
 15 36  1  0  0  0  0
 15 37  1  0  0  0  0
 16 17  1  0  0  0  0
 16 38  1  0  0  0  0
 16 39  1  0  0  0  0
 17 18  1  0  0  0  0
 17 19  1  0  0  0  0
 17 20  1  0  0  0  0
 18 40  1  0  0  0  0
 18 41  1  0  0  0  0
 18 42  1  0  0  0  0
 19 43  1  0  0  0  0
 19 44  1  0  0  0  0
 19 45  1  0  0  0  0
 20 46  1  0  0  0  0
 20 47  1  0  0  0  0
M  CHG  1  11   1
M  END
> <s_m_source_file>
AV-unprocessed.smi

> <i_m_source_file_index>
2473

> <i_lp_mmshare_version>
43012

> <i_f3d_flags>
0

> <s_epik_input>
W0NIM11bQ0BASF0oW0NIMl0xKVtDSDJdW0NASF0oW0NIMl1DMShbQ0gzXSlbQ0gzXSlDKD1PKVtOSF1bQ0gyXVtDSDJdYzJuW2NIXVtjSF1uMltDSDNd

> <s_epik_cmdline>
J2VwaWtfcHl0aG9uJywgJy1waCcsICc3LjAnLCAnLXRuJywgJzgnLCAnLW1hJywgJzIwMCcsICctbWV0YWxfYmluZGluZycsICctaW1hZScsICc8aW5maWxlLm1hZT4nLCAnLW9tYWUnLCAnPG91dGZpbGUubWFlPic=

> <r_lp_tautomer_probability>
1

> <r_epik_Ionization_Penalty>
0.0796112

> <r_epik_Ionization_Penalty_Charging>
0

> <r_epik_Ionization_Penalty_Neutral>
0.0796112

> <r_epik_State_Penalty>
0.0704541

> <r_epik_Charging_Adjusted_Penalty>
0.0704541

> <i_epik_Tot_Q>
1

> <i_epik_Tot_abs_Q>
1

> <r_epik_Metal_State_Penalty>
0.409899

> <b_epik_Metal_Only>
0

> <s_lp_Force_Field>
OPLS_2005

> <r_lp_Energy>
17.0115

> <b_lp_Chiralities_Consistent>
1

> <s_lp_Variant>
AV-unprocessed.smi:2473-4

> <Gold.Version>
5.8.1

> <Gold.Id.Protein>
6NUR|6NUR_protein|mol2

> <Gold.PLP.Fitness>
42.5498

> <Gold.PLP.PLP>
-31.8990

> <Gold.PLP.part.hbond>
-3.0000

> <Gold.PLP.part.metal>
0.0000

> <Gold.PLP.part.buried>
-3.6627

> <Gold.PLP.part.nonpolar>
-26.1469

> <Gold.PLP.part.repulsive>
0.2212

> <Gold.PLP.ligand.clash>
0.0000

> <Gold.PLP.ligand.torsion>
0.6216

> <Gold.PLP.Chemscore.Hbond>
3.0000

> <Gold.PLP.Chemscore.CHOScore>
0.9335

> <Gold.PLP.Chemscore.Metal>
0.0000

> <Gold.Chemscore.Hbonds>
donor molecule, donor type, donor heavy atom, donor atom, acceptor molecule, acceptor atom, score
      L1  H     7    28       P1  7948  1.00
      L1  H    11    48       P1  7948  2.00
      L1  C    13    34       P1 10186  0.90

> <Gold.PLP.Chemscore.Internal.Correction>
0.0936

> <Gold.Rescore>
     Score         DG    S(hbond)    S(metal)    S(lipo)     H(rot)  DE(clash)    DE(int)     intcor
     15.08     -15.69       1.98        0.00      65.47       1.58       0.00       0.61       ----

> <Gold.Chemscore.Fitness>
15.0760

> <Gold.Chemscore.DG>
-15.6908

> <Gold.Chemscore.ZeroCoef>
-5.4800

> <Gold.Chemscore.Hbond>
1.9760

> <Gold.Chemscore.Metal>
0.0000

> <Gold.Chemscore.Lipo>
65.4749

> <Gold.Chemscore.Internal_Hbond>
0.0000

> <Gold.Chemscore.DEClash>
0.0000

> <Gold.Chemscore.DEInternal>
0.6148

> <Gold.Chemscore.Rot>
1.5818

> <Gold.Chemscore.Internal.Correction>
   9.000000E+99

> <Gold.Chemscore.Hbonds>
donor molecule, donor type, donor heavy atom, donor atom, acceptor molecule, acceptor atom, score
      L1  H     7    28       P1  7948  0.99
      L1  H    11    48       P1  7948  1.00

> <Gold.Chemscore.Hbond.Weighted>
-6.5997

> <Gold.Chemscore.Metal.Weighted>
-0.0000

> <Gold.Chemscore.Lipo.Weighted>
-7.6606

> <Gold.Chemscore.Internal_Hbond.Weighted>
0.0000

> <Gold.Chemscore.DEClash.Weighted>
0.0000

> <Gold.Chemscore.DEInternal.Weighted>
0.6148

> <Gold.Chemscore.Rot.Weighted>
4.0495

> <Gold.Chemscore.Internal.Correction.Weighted>
   9.000000E+99

> <Gold.Protein.RotatedTorsions>
[ 6907 6896 6895 6894 ] final  149.62 input  -60.11 | X-H torsion
[ 7974 7965 7964 7962 ] final -148.95 input  175.53 | X-H torsion
[ 8008 7997 7996 7995 ] final  -29.50 input   59.86 | X-H torsion
[ 10167 10162 10161 10158 ] final -152.80 input  -65.29 | X-H torsion
[ 10718 10713 10712 10709 ] final   94.04 input   66.30 | X-H torsion
[ 10763 10752 10751 10750 ] final   18.00 input  -60.55 | X-H torsion
[ 11005 11000 10999 10996 ] final -118.64 input  -57.11 | X-H torsion

> <Gold.Protein.ActiveResidues>
 VAL166  LYS551  ARG553  GLY616  TRP617  ASP618  TYR619  PRO620  LYS621  CYS622 
 ASP623  PHE694  ASN695  SER759  ASP760  ASP761  ALA762  ILE779  LEU786  VAL792 
 PHE793  MET794  SER795  GLU796  ALA797  LYS798  CYS799  TRP800  GLU811  SER814 

> <Gold.Protein.RotatedAtoms>
  152.1256  133.4378  159.4695 H   0  0  0  0  0  0  0  0  0  0  0  0  # atno 6907 bound_to 6896
  150.6874  134.2483  159.4509 H   0  0  0  0  0  0  0  0  0  0  0  0  # atno 6908 bound_to 6896
  152.0363  134.9738  160.0624 H   0  0  0  0  0  0  0  0  0  0  0  0  # atno 6909 bound_to 6896
  144.7997  140.5128  143.5715 H   0  0  0  0  0  0  0  0  0  0  0  0  # atno 7974 bound_to 7965
  154.4287  140.1816  156.1258 H   0  0  0  0  0  0  0  0  0  0  0  0  # atno 8008 bound_to 7997
  156.0107  140.3351  155.6913 H   0  0  0  0  0  0  0  0  0  0  0  0  # atno 8009 bound_to 7997
  155.6115  140.0650  157.2695 H   0  0  0  0  0  0  0  0  0  0  0  0  # atno 8010 bound_to 7997
  139.7151  143.9046  152.2483 H   0  0  0  0  0  0  0  0  0  0  0  0  # atno 10167 bound_to 10162
  157.6951  131.0499  150.4125 H   0  0  0  0  0  0  0  0  0  0  0  0  # atno 10718 bound_to 10713
  153.1288  135.6735  153.9213 H   0  0  0  0  0  0  0  0  0  0  0  0  # atno 10763 bound_to 10752
  153.8705  135.3070  155.3443 H   0  0  0  0  0  0  0  0  0  0  0  0  # atno 10764 bound_to 10752
  154.7689  135.4950  153.9690 H   0  0  0  0  0  0  0  0  0  0  0  0  # atno 10765 bound_to 10752
  141.0272  134.0036  157.3197 H   0  0  0  0  0  0  0  0  0  0  0  0  # atno 11005 bound_to 11000
  145.5584  139.1478  143.3355 LP  0  0  0  0  0  0  0  0  0  0  0  0  # atno 17320 bound_to 7965
  146.2275  140.5720  142.8990 LP  0  0  0  0  0  0  0  0  0  0  0  0  # atno 17321 bound_to 7965
  139.8926  144.6957  150.8753 LP  0  0  0  0  0  0  0  0  0  0  0  0  # atno 17342 bound_to 10162
  140.7742  143.3574  151.1894 LP  0  0  0  0  0  0  0  0  0  0  0  0  # atno 17343 bound_to 10162
  156.4508  130.4011  149.6637 LP  0  0  0  0  0  0  0  0  0  0  0  0  # atno 17370 bound_to 10713
  156.3787  130.7568  151.2559 LP  0  0  0  0  0  0  0  0  0  0  0  0  # atno 17371 bound_to 10713
  139.9183  135.0199  156.7968 LP  0  0  0  0  0  0  0  0  0  0  0  0  # atno 17394 bound_to 11000
  140.6471  133.9765  155.7736 LP  0  0  0  0  0  0  0  0  0  0  0  0  # atno 17395 bound_to 11000

$$$$
