AV-unprocessed.smi:1889|AV-procd|sdf|7659|dock2
  -GOLD-   22720 9393D 1   1.00000     0.00000
 Structure written by MMmdl.
 36 37  0  0  0  0  0  0  0  0  1 V2000
  150.6135  140.5883  158.2976 C   0  0  0  0  0  0  0  0  0  0  0  0
  151.4046  141.6217  157.4883 C   0  0  0  0  0  0  0  0  0  0  0  0
  150.6780  142.0468  156.2046 C   0  0  0  0  0  0  0  0  0  0  0  0
  150.2274  140.8813  155.3886 C   0  0  0  0  0  0  0  0  0  0  0  0
  151.0804  139.9944  154.8600 N   0  0  0  0  0  0  0  0  0  0  0  0
  150.4331  139.0149  154.1187 N   0  0  0  0  0  0  0  0  0  0  0  0
  149.1103  139.2009  154.0933 C   0  0  0  0  0  0  0  0  0  0  0  0
  148.3200  138.2748  153.3679 N   0  0  0  0  0  0  0  0  0  0  0  0
  146.9806  138.2101  153.2974 C   0  0  0  0  0  0  0  0  0  0  0  0
  146.1994  138.9784  153.8580 O   0  0  0  0  0  0  0  0  0  0  0  0
  146.5849  137.1873  152.5264 N   0  0  0  0  0  0  0  0  0  0  0  0
  145.1966  136.8365  152.2455 C   0  0  0  0  0  0  0  0  0  0  0  0
  145.0821  135.6305  151.2930 C   0  0  2  0  0  0  0  0  0  0  0  0
  143.7941  134.8403  151.4172 C   0  0  0  0  0  0  0  0  0  0  0  0
  144.1743  133.5151  150.7639 C   0  0  0  0  0  0  0  0  0  0  0  0
  145.5659  133.3410  151.0155 O   0  0  0  0  0  0  0  0  0  0  0  0
  146.1225  134.5405  151.5461 C   0  0  0  0  0  0  0  0  0  0  0  0
  148.5359  140.6062  154.9907 S   0  0  0  0  0  0  0  0  0  0  0  0
  151.1523  140.3085  159.2031 H   0  0  0  0  0  0  0  0  0  0  0  0
  150.4437  139.6810  157.7177 H   0  0  0  0  0  0  0  0  0  0  0  0
  149.6421  140.9826  158.5970 H   0  0  0  0  0  0  0  0  0  0  0  0
  151.5907  142.4983  158.1099 H   0  0  0  0  0  0  0  0  0  0  0  0
  152.3820  141.2084  157.2362 H   0  0  0  0  0  0  0  0  0  0  0  0
  149.8096  142.6595  156.4505 H   0  0  0  0  0  0  0  0  0  0  0  0
  151.3328  142.6666  155.5910 H   0  0  0  0  0  0  0  0  0  0  0  0
  148.8349  137.5821  152.8445 H   0  0  0  0  0  0  0  0  0  0  0  0
  147.2943  136.6070  152.1029 H   0  0  0  0  0  0  0  0  0  0  0  0
  144.6697  136.6318  153.1789 H   0  0  0  0  0  0  0  0  0  0  0  0
  144.7134  137.7091  151.8052 H   0  0  0  0  0  0  0  0  0  0  0  0
  145.1844  135.9674  150.2599 H   0  0  0  0  0  0  0  0  0  0  0  0
  143.5435  134.6818  152.4671 H   0  0  0  0  0  0  0  0  0  0  0  0
  142.9452  135.3226  150.9313 H   0  0  0  0  0  0  0  0  0  0  0  0
  143.5914  132.6786  151.1501 H   0  0  0  0  0  0  0  0  0  0  0  0
  144.0207  133.5648  149.6851 H   0  0  0  0  0  0  0  0  0  0  0  0
  147.0853  134.7689  151.0887 H   0  0  0  0  0  0  0  0  0  0  0  0
  146.2824  134.3983  152.6157 H   0  0  0  0  0  0  0  0  0  0  0  0
  1  2  1  0  0  0  0
  1 19  1  0  0  0  0
  1 20  1  0  0  0  0
  1 21  1  0  0  0  0
  2  3  1  0  0  0  0
  2 22  1  0  0  0  0
  2 23  1  0  0  0  0
  3  4  1  0  0  0  0
  3 24  1  0  0  0  0
  3 25  1  0  0  0  0
  4 18  1  0  0  0  0
  4  5  2  0  0  0  0
  5  6  1  0  0  0  0
  6  7  2  0  0  0  0
  7  8  1  0  0  0  0
  7 18  1  0  0  0  0
  8  9  1  0  0  0  0
  8 26  1  0  0  0  0
  9 10  2  0  0  0  0
  9 11  1  0  0  0  0
 11 12  1  0  0  0  0
 11 27  1  0  0  0  0
 12 13  1  0  0  0  0
 12 28  1  0  0  0  0
 12 29  1  0  0  0  0
 13 17  1  0  0  0  0
 13 14  1  0  0  0  0
 13 30  1  0  0  0  0
 14 15  1  0  0  0  0
 14 31  1  0  0  0  0
 14 32  1  0  0  0  0
 15 16  1  0  0  0  0
 15 33  1  0  0  0  0
 15 34  1  0  0  0  0
 16 17  1  0  0  0  0
 17 35  1  0  0  0  0
 17 36  1  0  0  0  0
M  END
> <s_m_source_file>
AV-unprocessed.smi

> <i_m_source_file_index>
1889

> <i_lp_mmshare_version>
43012

> <i_f3d_flags>
0

> <s_epik_input>
W0NIM11bQ0gyXVtDSDJdYzFubmMoczEpW05IXUMoPU8pW05IXVtDSDJdW0NAQEhdMltDSDJdW0NIMl1PW0NIMl0y

> <s_epik_cmdline>
J2VwaWtfcHl0aG9uJywgJy1waCcsICc3LjAnLCAnLXRuJywgJzgnLCAnLW1hJywgJzIwMCcsICctbWV0YWxfYmluZGluZycsICctaW1hZScsICc8aW5maWxlLm1hZT4nLCAnLW9tYWUnLCAnPG91dGZpbGUubWFlPic=

> <r_lp_tautomer_probability>
1

> <r_epik_Ionization_Penalty>
0.000450509

> <r_epik_Ionization_Penalty_Charging>
0

> <r_epik_Ionization_Penalty_Neutral>
0.000450509

> <r_epik_State_Penalty>
-0

> <r_epik_Charging_Adjusted_Penalty>
0

> <i_epik_Tot_Q>
0

> <i_epik_Tot_abs_Q>
0

> <r_epik_Metal_State_Penalty>
0.207747

> <b_epik_Metal_Only>
0

> <s_lp_Force_Field>
OPLS_2005

> <r_lp_Energy>
11.6585

> <b_lp_Chiralities_Consistent>
1

> <s_lp_Variant>
AV-unprocessed.smi:1889-1

> <Gold.Version>
5.8.1

> <Gold.Id.Protein>
6NUR|6NUR_protein|mol2

> <Gold.PLP.Fitness>
36.7429

> <Gold.PLP.PLP>
-28.8843

> <Gold.PLP.part.hbond>
-4.0624

> <Gold.PLP.part.metal>
0.0000

> <Gold.PLP.part.buried>
-3.5583

> <Gold.PLP.part.nonpolar>
-22.1415

> <Gold.PLP.part.repulsive>
0.6306

> <Gold.PLP.ligand.clash>
0.0000

> <Gold.PLP.ligand.torsion>
0.2829

> <Gold.PLP.Chemscore.Hbond>
2.8000

> <Gold.PLP.Chemscore.CHOScore>
0.0000

> <Gold.PLP.Chemscore.Metal>
0.0000

> <Gold.Chemscore.Hbonds>
donor molecule, donor type, donor heavy atom, donor atom, acceptor molecule, acceptor atom, score
      L1  H     8    26       P1  7948  1.00
      L1  H    11    27       P1  7948  1.00
      P1  H  7989  7998       L1     5  0.75

> <Gold.PLP.Chemscore.Internal.Correction>
0.0245

> <Gold.Rescore>
     Score         DG    S(hbond)    S(metal)    S(lipo)     H(rot)  DE(clash)    DE(int)     intcor
     14.58     -14.91       1.96        0.00      60.40       1.63       0.05       0.28       ----

> <Gold.Chemscore.Fitness>
14.5819

> <Gold.Chemscore.DG>
-14.9055

> <Gold.Chemscore.ZeroCoef>
-5.4800

> <Gold.Chemscore.Hbond>
1.9566

> <Gold.Chemscore.Metal>
0.0000

> <Gold.Chemscore.Lipo>
60.3951

> <Gold.Chemscore.Internal_Hbond>
0.0000

> <Gold.Chemscore.DEClash>
0.0485

> <Gold.Chemscore.DEInternal>
0.2751

> <Gold.Chemscore.Rot>
1.6311

> <Gold.Chemscore.Internal.Correction>
   9.000000E+99

> <Gold.Chemscore.Hbonds>
donor molecule, donor type, donor heavy atom, donor atom, acceptor molecule, acceptor atom, score
      L1  H     8    26       P1  7948  0.98
      L1  H    11    27       P1  7948  0.95
      P1  H  7989  7998       L1     5  0.03

> <Gold.Chemscore.Hbond.Weighted>
-6.5350

> <Gold.Chemscore.Metal.Weighted>
-0.0000

> <Gold.Chemscore.Lipo.Weighted>
-7.0662

> <Gold.Chemscore.Internal_Hbond.Weighted>
0.0000

> <Gold.Chemscore.DEClash.Weighted>
0.0485

> <Gold.Chemscore.DEInternal.Weighted>
0.2751

> <Gold.Chemscore.Rot.Weighted>
4.1757

> <Gold.Chemscore.Internal.Correction.Weighted>
   9.000000E+99

> <Gold.Protein.RotatedTorsions>
[ 6907 6896 6895 6894 ] final  -30.36 input  -60.11 | X-H torsion
[ 7974 7965 7964 7962 ] final   36.37 input  175.53 | X-H torsion
[ 8008 7997 7996 7995 ] final  -47.19 input   59.86 | X-H torsion
[ 10167 10162 10161 10158 ] final  -30.28 input  -65.29 | X-H torsion
[ 10718 10713 10712 10709 ] final -165.98 input   66.30 | X-H torsion
[ 10763 10752 10751 10750 ] final  175.24 input  -60.55 | X-H torsion
[ 11005 11000 10999 10996 ] final   46.75 input  -57.11 | X-H torsion

> <Gold.Protein.ActiveResidues>
 VAL166  LYS551  ARG553  GLY616  TRP617  ASP618  TYR619  PRO620  LYS621  CYS622 
 ASP623  PHE694  ASN695  SER759  ASP760  ASP761  ALA762  ILE779  LEU786  VAL792 
 PHE793  MET794  SER795  GLU796  ALA797  LYS798  CYS799  TRP800  GLU811  SER814 

> <Gold.Protein.RotatedAtoms>
  151.1066  135.0003  159.8473 H   0  0  0  0  0  0  0  0  0  0  0  0  # atno 6907 bound_to 6896
  152.5440  134.1886  159.8674 H   0  0  0  0  0  0  0  0  0  0  0  0  # atno 6908 bound_to 6896
  151.1933  133.4610  159.2628 H   0  0  0  0  0  0  0  0  0  0  0  0  # atno 6909 bound_to 6896
  146.1216  139.6026  142.9286 H   0  0  0  0  0  0  0  0  0  0  0  0  # atno 7974 bound_to 7965
  154.4014  140.1352  156.4135 H   0  0  0  0  0  0  0  0  0  0  0  0  # atno 8008 bound_to 7997
  155.7711  140.3484  155.5227 H   0  0  0  0  0  0  0  0  0  0  0  0  # atno 8009 bound_to 7997
  155.8766  140.0980  157.1504 H   0  0  0  0  0  0  0  0  0  0  0  0  # atno 8010 bound_to 7997
  140.7251  143.3862  151.1512 H   0  0  0  0  0  0  0  0  0  0  0  0  # atno 10167 bound_to 10162
  156.6612  130.9046  151.3029 H   0  0  0  0  0  0  0  0  0  0  0  0  # atno 10718 bound_to 10713
  154.4649  135.2769  155.1685 H   0  0  0  0  0  0  0  0  0  0  0  0  # atno 10763 bound_to 10752
  154.3458  135.6160  153.5622 H   0  0  0  0  0  0  0  0  0  0  0  0  # atno 10764 bound_to 10752
  152.9858  135.5799  154.5019 H   0  0  0  0  0  0  0  0  0  0  0  0  # atno 10765 bound_to 10752
  140.1341  134.4667  155.8499 H   0  0  0  0  0  0  0  0  0  0  0  0  # atno 11005 bound_to 11000
  145.5454  141.0417  143.2308 LP  0  0  0  0  0  0  0  0  0  0  0  0  # atno 17320 bound_to 7965
  144.7603  139.6974  143.7237 LP  0  0  0  0  0  0  0  0  0  0  0  0  # atno 17321 bound_to 7965
  139.7459  143.8853  152.3063 LP  0  0  0  0  0  0  0  0  0  0  0  0  # atno 17342 bound_to 10162
  139.8690  144.7078  150.9010 LP  0  0  0  0  0  0  0  0  0  0  0  0  # atno 17343 bound_to 10162
  157.7109  130.9439  150.1086 LP  0  0  0  0  0  0  0  0  0  0  0  0  # atno 17370 bound_to 10713
  156.2009  130.3660  149.8789 LP  0  0  0  0  0  0  0  0  0  0  0  0  # atno 17371 bound_to 10713
  141.2175  133.6807  156.7124 LP  0  0  0  0  0  0  0  0  0  0  0  0  # atno 17394 bound_to 11000
  140.2805  134.8321  157.3928 LP  0  0  0  0  0  0  0  0  0  0  0  0  # atno 17395 bound_to 11000

$$$$
