AV-unprocessed.smi:1701|AV-procd|sdf|6842|dock7
  -GOLD-   22720 8 23D 1   1.00000     0.00000
 Structure written by MMmdl.
 54 56  0  0  0  0  0  0  0  0  4 V2000
  152.0265  145.2009  159.4282 C   0  0  0  0  0  0  0  0  0  0  0  0
  151.7329  144.0354  158.4743 C   0  0  0  0  0  0  0  0  0  0  0  0
  152.3798  142.7955  158.9006 N   0  0  0  0  0  0  0  0  0  0  0  0
  153.4754  142.8634  159.8640 C   0  0  0  0  0  0  0  0  0  0  0  0
  152.9690  142.9314  161.3105 C   0  0  0  0  0  0  0  0  0  0  0  0
  151.9810  141.5544  158.3519 C   0  0  0  0  0  0  0  0  0  0  0  0
  151.1710  141.4378  157.1949 C   0  0  0  0  0  0  0  0  0  0  0  0
  150.8114  140.1624  156.7134 C   0  0  0  0  0  0  0  0  0  0  0  0
  151.2696  139.0073  157.3784 C   0  0  0  0  0  0  0  0  0  0  0  0
  150.8588  137.7436  156.8757 N   0  0  0  0  0  0  0  0  0  0  0  0
  150.9170  136.5244  157.4667 C   0  0  0  0  0  0  0  0  0  0  0  0
  151.4735  136.4177  158.5580 O   0  0  0  0  0  0  0  0  0  0  0  0
  150.3883  135.4345  156.8321 N   0  5  0  0  0  0  0  0  0  0  0  0
  150.2207  135.1898  155.3926 C   0  0  1  0  0  0  0  0  0  0  0  0
  151.1146  134.0350  154.9036 C   0  0  0  0  0  0  0  0  0  0  0  0
  150.2852  133.2951  153.8358 C   0  0  0  0  0  0  0  0  0  0  0  0
  148.9946  134.0084  153.7727 N   0  3  1  0  0  0  0  0  0  0  0  0
  147.8086  133.2304  153.3520 C   0  0  0  0  0  0  0  0  0  0  0  0
  146.5952  134.1757  153.2400 C   0  0  0  0  0  0  0  0  0  0  0  0
  146.3751  134.9843  154.5356 C   0  0  0  0  0  0  0  0  0  0  0  0
  147.6673  135.7033  154.9714 C   0  0  0  0  0  0  0  0  0  0  0  0
  148.8127  134.6745  155.0724 C   0  0  2  0  0  0  0  0  0  0  0  0
  152.0665  139.1726  158.5347 C   0  0  0  0  0  0  0  0  0  0  0  0
  152.3856  140.4131  158.9617 N   0  3  0  0  0  0  0  0  0  0  0  0
  151.5182  146.1064  159.0970 H   0  0  0  0  0  0  0  0  0  0  0  0
  153.0938  145.4188  159.4739 H   0  0  0  0  0  0  0  0  0  0  0  0
  151.6858  144.9814  160.4404 H   0  0  0  0  0  0  0  0  0  0  0  0
  150.6560  143.8684  158.4363 H   0  0  0  0  0  0  0  0  0  0  0  0
  152.0243  144.2940  157.4560 H   0  0  0  0  0  0  0  0  0  0  0  0
  154.1615  142.0270  159.7329 H   0  0  0  0  0  0  0  0  0  0  0  0
  154.0656  143.7562  159.6540 H   0  0  0  0  0  0  0  0  0  0  0  0
  153.8032  142.9955  162.0095 H   0  0  0  0  0  0  0  0  0  0  0  0
  152.3859  142.0480  161.5714 H   0  0  0  0  0  0  0  0  0  0  0  0
  152.3381  143.8067  161.4677 H   0  0  0  0  0  0  0  0  0  0  0  0
  150.8200  142.3065  156.6593 H   0  0  0  0  0  0  0  0  0  0  0  0
  150.1913  140.0751  155.8332 H   0  0  0  0  0  0  0  0  0  0  0  0
  150.4976  137.7491  155.9331 H   0  0  0  0  0  0  0  0  0  0  0  0
  150.4145  136.0716  154.7794 H   0  0  0  0  0  0  0  0  0  0  0  0
  152.0587  134.4064  154.5041 H   0  0  0  0  0  0  0  0  0  0  0  0
  151.3540  133.3446  155.7143 H   0  0  0  0  0  0  0  0  0  0  0  0
  150.7685  133.2991  152.8580 H   0  0  0  0  0  0  0  0  0  0  0  0
  150.1330  132.2552  154.1312 H   0  0  0  0  0  0  0  0  0  0  0  0
  148.0048  132.7537  152.3912 H   0  0  0  0  0  0  0  0  0  0  0  0
  147.6105  132.4361  154.0732 H   0  0  0  0  0  0  0  0  0  0  0  0
  146.7534  134.8658  152.4103 H   0  0  0  0  0  0  0  0  0  0  0  0
  145.6980  133.6052  152.9982 H   0  0  0  0  0  0  0  0  0  0  0  0
  145.5720  135.7082  154.3954 H   0  0  0  0  0  0  0  0  0  0  0  0
  146.0500  134.3121  155.3306 H   0  0  0  0  0  0  0  0  0  0  0  0
  147.9067  136.4869  154.2493 H   0  0  0  0  0  0  0  0  0  0  0  0
  147.5051  136.1990  155.9303 H   0  0  0  0  0  0  0  0  0  0  0  0
  148.5408  133.9121  155.8069 H   0  0  0  0  0  0  0  0  0  0  0  0
  152.4494  138.3677  159.1445 H   0  0  0  0  0  0  0  0  0  0  0  0
  149.1193  134.7519  153.1010 H   0  0  0  0  0  0  0  0  0  0  0  0
  152.9619  140.4942  159.7993 H   0  0  0  0  0  0  0  0  0  0  0  0
  1  2  1  0  0  0  0
  1 25  1  0  0  0  0
  1 26  1  0  0  0  0
  1 27  1  0  0  0  0
  2  3  1  0  0  0  0
  2 28  1  0  0  0  0
  2 29  1  0  0  0  0
  3  4  1  0  0  0  0
  3  6  1  0  0  0  0
  4  5  1  0  0  0  0
  4 30  1  0  0  0  0
  4 31  1  0  0  0  0
  5 32  1  0  0  0  0
  5 33  1  0  0  0  0
  5 34  1  0  0  0  0
  6 24  1  0  0  0  0
  6  7  2  0  0  0  0
  7  8  1  0  0  0  0
  7 35  1  0  0  0  0
  8  9  2  0  0  0  0
  8 36  1  0  0  0  0
  9 10  1  0  0  0  0
  9 23  1  0  0  0  0
 10 11  1  0  0  0  0
 10 37  1  0  0  0  0
 11 12  2  0  0  0  0
 11 13  1  0  0  0  0
 13 14  1  0  0  0  0
 14 22  1  0  0  0  0
 14 15  1  0  0  0  0
 14 38  1  0  0  0  0
 15 16  1  0  0  0  0
 15 39  1  0  0  0  0
 15 40  1  0  0  0  0
 16 17  1  0  0  0  0
 16 41  1  0  0  0  0
 16 42  1  0  0  0  0
 17 22  1  0  0  0  0
 17 18  1  0  0  0  0
 17 53  1  0  0  0  0
 18 19  1  0  0  0  0
 18 43  1  0  0  0  0
 18 44  1  0  0  0  0
 19 20  1  0  0  0  0
 19 45  1  0  0  0  0
 19 46  1  0  0  0  0
 20 21  1  0  0  0  0
 20 47  1  0  0  0  0
 20 48  1  0  0  0  0
 21 22  1  0  0  0  0
 21 49  1  0  0  0  0
 21 50  1  0  0  0  0
 22 51  1  0  0  0  0
 23 24  2  0  0  0  0
 23 52  1  0  0  0  0
 24 54  1  0  0  0  0
M  CHG  1  13  -1
M  CHG  1  17   1
M  CHG  1  24   1
M  END
> <s_m_source_file>
AV-unprocessed.smi

> <i_m_source_file_index>
1701

> <i_lp_mmshare_version>
43012

> <i_f3d_flags>
0

> <s_epik_input>
W0NIM11bQ0gyXU4oW0NIMl1bQ0gzXSljMVtjSF1bY0hdYyhbY0hdbjEpW05IXUMoPU8pW05IXVtDQEhdKFtDSDJdW0NIMl0yKVtDQEBIXShOMjMpW0NIMl1bQ0gyXVtDSDJdW0NIMl0z

> <s_epik_cmdline>
J2VwaWtfcHl0aG9uJywgJy1waCcsICc3LjAnLCAnLXRuJywgJzgnLCAnLW1hJywgJzIwMCcsICctbWV0YWxfYmluZGluZycsICctaW1hZScsICc8aW5maWxlLm1hZT4nLCAnLW9tYWUnLCAnPG91dGZpbGUubWFlPic=

> <r_lp_tautomer_probability>
0.999994

> <r_epik_Ionization_Penalty>
7.37095

> <r_epik_Ionization_Penalty_Charging>
7.37095

> <r_epik_Ionization_Penalty_Neutral>
3.78969e-06

> <r_epik_State_Penalty>
6.83842

> <r_epik_Charging_Adjusted_Penalty>
14.2094

> <i_epik_Tot_Q>
1

> <i_epik_Tot_abs_Q>
3

> <r_epik_Metal_State_Penalty>
2.78552

> <b_epik_Metal_Only>
1

> <s_lp_Force_Field>
OPLS_2005

> <r_lp_Energy>
47.735

> <b_lp_Chiralities_Consistent>
1

> <s_lp_Variant>
AV-unprocessed.smi:1701-22

> <Gold.Version>
5.8.1

> <Gold.Id.Protein>
6NUR|6NUR_protein|mol2

> <Gold.PLP.Fitness>
49.2881

> <Gold.PLP.PLP>
-42.0356

> <Gold.PLP.part.hbond>
-2.0000

> <Gold.PLP.part.metal>
0.0000

> <Gold.PLP.part.buried>
-6.2057

> <Gold.PLP.part.nonpolar>
-34.2594

> <Gold.PLP.part.repulsive>
0.1542

> <Gold.PLP.ligand.clash>
0.0000

> <Gold.PLP.ligand.torsion>
0.9380

> <Gold.PLP.Chemscore.Hbond>
3.0000

> <Gold.PLP.Chemscore.CHOScore>
0.0000

> <Gold.PLP.Chemscore.Metal>
0.0000

> <Gold.Chemscore.Hbonds>
donor molecule, donor type, donor heavy atom, donor atom, acceptor molecule, acceptor atom, score
      L1  H    17    53       P1  7948  1.10
      P1  H  6896  6907       L1    12  0.45

> <Gold.PLP.Chemscore.Internal.Correction>
0.1285

> <Gold.Rescore>
     Score         DG    S(hbond)    S(metal)    S(lipo)     H(rot)  DE(clash)    DE(int)     intcor
     17.15     -19.57       1.93        0.00      93.49       1.28       0.11       2.32       ----

> <Gold.Chemscore.Fitness>
17.1450

> <Gold.Chemscore.DG>
-19.5750

> <Gold.Chemscore.ZeroCoef>
-5.4800

> <Gold.Chemscore.Hbond>
1.9292

> <Gold.Chemscore.Metal>
0.0000

> <Gold.Chemscore.Lipo>
93.4880

> <Gold.Chemscore.Internal_Hbond>
0.0000

> <Gold.Chemscore.DEClash>
0.1104

> <Gold.Chemscore.DEInternal>
2.3195

> <Gold.Chemscore.Rot>
1.2838

> <Gold.Chemscore.Internal.Correction>
   9.000000E+99

> <Gold.Chemscore.Hbonds>
donor molecule, donor type, donor heavy atom, donor atom, acceptor molecule, acceptor atom, score
      L1  H    17    53       P1  7948  0.03
      P1  H  6896  6907       L1    12  0.41

> <Gold.Chemscore.Hbond.Weighted>
-6.4434

> <Gold.Chemscore.Metal.Weighted>
-0.0000

> <Gold.Chemscore.Lipo.Weighted>
-10.9381

> <Gold.Chemscore.Internal_Hbond.Weighted>
0.0000

> <Gold.Chemscore.DEClash.Weighted>
0.1104

> <Gold.Chemscore.DEInternal.Weighted>
2.3195

> <Gold.Chemscore.Rot.Weighted>
3.2865

> <Gold.Chemscore.Internal.Correction.Weighted>
   9.000000E+99

> <Gold.Protein.RotatedTorsions>
[ 6907 6896 6895 6894 ] final  -46.04 input  -60.11 | X-H torsion
[ 7974 7965 7964 7962 ] final  144.67 input  175.53 | X-H torsion
[ 8008 7997 7996 7995 ] final -177.66 input   59.86 | X-H torsion
[ 10167 10162 10161 10158 ] final    9.56 input  -65.29 | X-H torsion
[ 10718 10713 10712 10709 ] final  139.39 input   66.30 | X-H torsion
[ 10763 10752 10751 10750 ] final -107.13 input  -60.55 | X-H torsion
[ 11005 11000 10999 10996 ] final  -21.16 input  -57.11 | X-H torsion

> <Gold.Protein.ActiveResidues>
 VAL166  LYS551  ARG553  GLY616  TRP617  ASP618  TYR619  PRO620  LYS621  CYS622 
 ASP623  PHE694  ASN695  SER759  ASP760  ASP761  ALA762  ILE779  LEU786  VAL792 
 PHE793  MET794  SER795  GLU796  ALA797  LYS798  CYS799  TRP800  GLU811  SER814 

> <Gold.Protein.RotatedAtoms>
  150.9155  134.8572  159.7453 H   0  0  0  0  0  0  0  0  0  0  0  0  # atno 6907 bound_to 6896
  152.4966  134.4296  159.9517 H   0  0  0  0  0  0  0  0  0  0  0  0  # atno 6908 bound_to 6896
  151.4334  133.3624  159.2807 H   0  0  0  0  0  0  0  0  0  0  0  0  # atno 6909 bound_to 6896
  144.8816  139.5690  143.5840 H   0  0  0  0  0  0  0  0  0  0  0  0  # atno 7974 bound_to 7965
  156.0096  140.1238  157.0467 H   0  0  0  0  0  0  0  0  0  0  0  0  # atno 8008 bound_to 7997
  154.4271  140.1090  156.5880 H   0  0  0  0  0  0  0  0  0  0  0  0  # atno 8009 bound_to 7997
  155.6098  140.3471  155.4621 H   0  0  0  0  0  0  0  0  0  0  0  0  # atno 8010 bound_to 7997
  140.6248  143.8126  150.7219 H   0  0  0  0  0  0  0  0  0  0  0  0  # atno 10167 bound_to 10162
  157.4149  131.1032  151.0415 H   0  0  0  0  0  0  0  0  0  0  0  0  # atno 10718 bound_to 10713
  154.8056  135.4686  154.0383 H   0  0  0  0  0  0  0  0  0  0  0  0  # atno 10763 bound_to 10752
  153.1855  135.6847  153.8428 H   0  0  0  0  0  0  0  0  0  0  0  0  # atno 10764 bound_to 10752
  153.7964  135.3236  155.3362 H   0  0  0  0  0  0  0  0  0  0  0  0  # atno 10765 bound_to 10752
  140.8534  133.7840  155.9992 H   0  0  0  0  0  0  0  0  0  0  0  0  # atno 11005 bound_to 11000
  146.2998  139.7391  142.9100 LP  0  0  0  0  0  0  0  0  0  0  0  0  # atno 17320 bound_to 7965
  145.3944  141.0377  143.3106 LP  0  0  0  0  0  0  0  0  0  0  0  0  # atno 17321 bound_to 7965
  140.1724  143.4183  152.1991 LP  0  0  0  0  0  0  0  0  0  0  0  0  # atno 17342 bound_to 10162
  139.5470  144.7306  151.4553 LP  0  0  0  0  0  0  0  0  0  0  0  0  # atno 17343 bound_to 10162
  157.1366  130.6125  149.5544 LP  0  0  0  0  0  0  0  0  0  0  0  0  # atno 17370 bound_to 10713
  155.9862  130.4896  150.7068 LP  0  0  0  0  0  0  0  0  0  0  0  0  # atno 17371 bound_to 10713
  140.8764  134.2664  157.5165 LP  0  0  0  0  0  0  0  0  0  0  0  0  # atno 17394 bound_to 11000
  139.8704  134.9593  156.4329 LP  0  0  0  0  0  0  0  0  0  0  0  0  # atno 17395 bound_to 11000

$$$$
