AV-unprocessed.smi:1483|AV-procd|sdf|5992|dock4
  -GOLD-   22720 6 83D 1   1.00000     0.00000
 Structure written by MMmdl.
 50 51  0  0  0  0  0  0  0  0  3 V2000
  152.2024  144.9065  158.6869 C   0  0  0  0  0  0  0  0  0  0  0  0
  151.7818  143.5137  158.2680 C   0  0  0  0  0  0  0  0  0  0  0  0
  152.2913  142.3539  158.8904 C   0  0  0  0  0  0  0  0  0  0  0  0
  151.8529  141.0874  158.4511 C   0  0  0  0  0  0  0  0  0  0  0  0
  150.9140  141.0048  157.3989 C   0  0  0  0  0  0  0  0  0  0  0  0
  150.4229  139.6566  156.9022 C   0  0  0  0  0  0  0  0  0  0  0  0
  149.8016  139.7994  155.5128 C   0  0  0  0  0  0  0  0  0  0  0  0
  150.5037  140.1405  154.5618 O   0  0  0  0  0  0  0  0  0  0  0  0
  148.4915  139.5238  155.4133 N   0  0  0  0  0  0  0  0  0  0  0  0
  147.6963  139.5631  154.1857 C   0  0  2  0  0  0  0  0  0  0  0  0
  147.6890  140.9780  153.5819 C   0  0  0  0  0  0  0  0  0  0  0  0
  146.8595  141.9640  154.4242 C   0  0  0  0  0  0  0  0  0  0  0  0
  145.4721  141.4672  154.6239 N   0  3  2  0  0  0  0  0  0  0  0  0
  144.5932  142.4432  155.3194 C   0  0  0  0  0  0  0  0  0  0  0  0
  145.0428  143.9076  155.1255 C   0  0  0  0  0  0  0  0  0  0  0  0
  144.1403  144.8592  155.9254 C   0  0  0  0  0  0  0  0  0  0  0  0
  145.0634  144.3096  153.6410 C   0  0  0  0  0  0  0  0  0  0  0  0
  145.4591  140.1331  155.2776 C   0  0  0  0  0  0  0  0  0  0  0  0
  146.2548  139.1005  154.4585 C   0  0  0  0  0  0  0  0  0  0  0  0
  150.4379  142.1998  156.8159 C   0  0  0  0  0  0  0  0  0  0  0  0
  150.8833  143.3936  157.2648 N   0  3  0  0  0  0  0  0  0  0  0  0
  153.1123  144.8763  159.2871 H   0  0  0  0  0  0  0  0  0  0  0  0
  151.4167  145.3757  159.2795 H   0  0  0  0  0  0  0  0  0  0  0  0
  152.3945  145.5303  157.8132 H   0  0  0  0  0  0  0  0  0  0  0  0
  153.0080  142.4320  159.6952 H   0  0  0  0  0  0  0  0  0  0  0  0
  152.2355  140.1913  158.9176 H   0  0  0  0  0  0  0  0  0  0  0  0
  151.2451  138.9399  156.8755 H   0  0  0  0  0  0  0  0  0  0  0  0
  149.6813  139.2586  157.5963 H   0  0  0  0  0  0  0  0  0  0  0  0
  148.0070  139.2558  156.2575 H   0  0  0  0  0  0  0  0  0  0  0  0
  148.1292  138.8859  153.4476 H   0  0  0  0  0  0  0  0  0  0  0  0
  148.7094  141.3463  153.4684 H   0  0  0  0  0  0  0  0  0  0  0  0
  147.2705  140.9336  152.5755 H   0  0  0  0  0  0  0  0  0  0  0  0
  147.3337  142.1245  155.3936 H   0  0  0  0  0  0  0  0  0  0  0  0
  146.8480  142.9294  153.9201 H   0  0  0  0  0  0  0  0  0  0  0  0
  143.5730  142.3500  154.9436 H   0  0  0  0  0  0  0  0  0  0  0  0
  144.5472  142.1912  156.3801 H   0  0  0  0  0  0  0  0  0  0  0  0
  146.0515  144.0291  155.5190 H   0  0  0  0  0  0  0  0  0  0  0  0
  143.1066  144.8100  155.5817 H   0  0  0  0  0  0  0  0  0  0  0  0
  144.4739  145.8928  155.8274 H   0  0  0  0  0  0  0  0  0  0  0  0
  144.1488  144.6129  156.9876 H   0  0  0  0  0  0  0  0  0  0  0  0
  144.0783  144.1992  153.1860 H   0  0  0  0  0  0  0  0  0  0  0  0
  145.7641  143.6997  153.0706 H   0  0  0  0  0  0  0  0  0  0  0  0
  145.3693  145.3494  153.5210 H   0  0  0  0  0  0  0  0  0  0  0  0
  145.8663  140.2159  156.2866 H   0  0  0  0  0  0  0  0  0  0  0  0
  144.4308  139.7842  155.3802 H   0  0  0  0  0  0  0  0  0  0  0  0
  145.7476  138.9366  153.5066 H   0  0  0  0  0  0  0  0  0  0  0  0
  146.2565  138.1366  154.9694 H   0  0  0  0  0  0  0  0  0  0  0  0
  149.7227  142.2362  156.0069 H   0  0  0  0  0  0  0  0  0  0  0  0
  145.0720  141.3322  153.7061 H   0  0  0  0  0  0  0  0  0  0  0  0
  150.5256  144.2429  156.8267 H   0  0  0  0  0  0  0  0  0  0  0  0
  1  2  1  0  0  0  0
  1 22  1  0  0  0  0
  1 23  1  0  0  0  0
  1 24  1  0  0  0  0
  2 21  1  0  0  0  0
  2  3  2  0  0  0  0
  3  4  1  0  0  0  0
  3 25  1  0  0  0  0
  4  5  2  0  0  0  0
  4 26  1  0  0  0  0
  5  6  1  0  0  0  0
  5 20  1  0  0  0  0
  6  7  1  0  0  0  0
  6 27  1  0  0  0  0
  6 28  1  0  0  0  0
  7  8  2  0  0  0  0
  7  9  1  0  0  0  0
  9 10  1  0  0  0  0
  9 29  1  0  0  0  0
 10 19  1  0  0  0  0
 10 11  1  0  0  0  0
 10 30  1  0  0  0  0
 11 12  1  0  0  0  0
 11 31  1  0  0  0  0
 11 32  1  0  0  0  0
 12 13  1  0  0  0  0
 12 33  1  0  0  0  0
 12 34  1  0  0  0  0
 13 14  1  0  0  0  0
 13 18  1  0  0  0  0
 13 49  1  0  0  0  0
 14 15  1  0  0  0  0
 14 35  1  0  0  0  0
 14 36  1  0  0  0  0
 15 16  1  0  0  0  0
 15 17  1  0  0  0  0
 15 37  1  0  0  0  0
 16 38  1  0  0  0  0
 16 39  1  0  0  0  0
 16 40  1  0  0  0  0
 17 41  1  0  0  0  0
 17 42  1  0  0  0  0
 17 43  1  0  0  0  0
 18 19  1  0  0  0  0
 18 44  1  0  0  0  0
 18 45  1  0  0  0  0
 19 46  1  0  0  0  0
 19 47  1  0  0  0  0
 20 21  2  0  0  0  0
 20 48  1  0  0  0  0
 21 50  1  0  0  0  0
M  CHG  1  13   1
M  CHG  1  21   1
M  END
> <s_m_source_file>
AV-unprocessed.smi

> <i_m_source_file_index>
1483

> <i_lp_mmshare_version>
43012

> <i_f3d_flags>
0

> <s_epik_input>
W0NIM11jMVtjSF1bY0hdYyhbY0hdbjEpW0NIMl1DKD1PKVtOSF1bQ0hdMltDSDJdW0NIMl1OKFtDSDJdW0NIMl0yKVtDSDJdW0NIXShbQ0gzXSlbQ0gzXQ==

> <s_epik_cmdline>
J2VwaWtfcHl0aG9uJywgJy1waCcsICc3LjAnLCAnLXRuJywgJzgnLCAnLW1hJywgJzIwMCcsICctbWV0YWxfYmluZGluZycsICctaW1hZScsICc8aW5maWxlLm1hZT4nLCAnLW9tYWUnLCAnPG91dGZpbGUubWFlPic=

> <r_epik_Ionization_Penalty>
2.20554

> <r_epik_Ionization_Penalty_Charging>
2.20554

> <r_epik_Ionization_Penalty_Neutral>
2.83835e-07

> <r_epik_State_Penalty>
2.34446

> <r_epik_Charging_Adjusted_Penalty>
4.55

> <i_epik_Tot_Q>
2

> <i_epik_Tot_abs_Q>
2

> <r_epik_Metal_State_Penalty>
2.35906

> <b_epik_Metal_Only>
0

> <s_lp_Force_Field>
OPLS_2005

> <r_lp_Energy>
28.5447

> <b_lp_Chiralities_Consistent>
1

> <s_lp_Variant>
AV-unprocessed.smi:1483-4

> <Gold.Version>
5.8.1

> <Gold.Id.Protein>
6NUR|6NUR_protein|mol2

> <Gold.PLP.Fitness>
49.8297

> <Gold.PLP.PLP>
-37.5863

> <Gold.PLP.part.hbond>
-3.0000

> <Gold.PLP.part.metal>
0.0000

> <Gold.PLP.part.buried>
-6.6750

> <Gold.PLP.part.nonpolar>
-30.5228

> <Gold.PLP.part.repulsive>
0.0961

> <Gold.PLP.ligand.clash>
0.0000

> <Gold.PLP.ligand.torsion>
0.6668

> <Gold.PLP.Chemscore.Hbond>
4.5040

> <Gold.PLP.Chemscore.CHOScore>
0.0000

> <Gold.PLP.Chemscore.Metal>
0.0000

> <Gold.Chemscore.Hbonds>
donor molecule, donor type, donor heavy atom, donor atom, acceptor molecule, acceptor atom, score
      L1  H    13    49       P1 10175  2.00
      L1  H    21    50       P1  8028  1.44
      P1  H  7989  7998       L1     8  1.00

> <Gold.PLP.Chemscore.Internal.Correction>
0.0651

> <Gold.Rescore>
     Score         DG    S(hbond)    S(metal)    S(lipo)     H(rot)  DE(clash)    DE(int)     intcor
     20.46     -21.42       2.42        0.00     101.00       1.55       0.26       0.71       ----

> <Gold.Chemscore.Fitness>
20.4555

> <Gold.Chemscore.DG>
-21.4192

> <Gold.Chemscore.ZeroCoef>
-5.4800

> <Gold.Chemscore.Hbond>
2.4238

> <Gold.Chemscore.Metal>
0.0000

> <Gold.Chemscore.Lipo>
100.9984

> <Gold.Chemscore.Internal_Hbond>
0.0000

> <Gold.Chemscore.DEClash>
0.2556

> <Gold.Chemscore.DEInternal>
0.7081

> <Gold.Chemscore.Rot>
1.5520

> <Gold.Chemscore.Internal.Correction>
   9.000000E+99

> <Gold.Chemscore.Hbonds>
donor molecule, donor type, donor heavy atom, donor atom, acceptor molecule, acceptor atom, score
      L1  H    13    49       P1 10175  0.31
      L1  H    21    50       P1  8028  0.66
      P1  H  7989  7998       L1     8  1.00

> <Gold.Chemscore.Hbond.Weighted>
-8.0954

> <Gold.Chemscore.Metal.Weighted>
-0.0000

> <Gold.Chemscore.Lipo.Weighted>
-11.8168

> <Gold.Chemscore.Internal_Hbond.Weighted>
0.0000

> <Gold.Chemscore.DEClash.Weighted>
0.2556

> <Gold.Chemscore.DEInternal.Weighted>
0.7081

> <Gold.Chemscore.Rot.Weighted>
3.9730

> <Gold.Chemscore.Internal.Correction.Weighted>
   9.000000E+99

> <Gold.Protein.RotatedTorsions>
[ 6907 6896 6895 6894 ] final   12.18 input  -60.11 | X-H torsion
[ 7974 7965 7964 7962 ] final  -22.79 input  175.53 | X-H torsion
[ 8008 7997 7996 7995 ] final -105.46 input   59.86 | X-H torsion
[ 10167 10162 10161 10158 ] final   48.65 input  -65.29 | X-H torsion
[ 10718 10713 10712 10709 ] final  -35.30 input   66.30 | X-H torsion
[ 10763 10752 10751 10750 ] final    7.91 input  -60.55 | X-H torsion
[ 11005 11000 10999 10996 ] final -127.83 input  -57.11 | X-H torsion

> <Gold.Protein.ActiveResidues>
 VAL166  LYS551  ARG553  GLY616  TRP617  ASP618  TYR619  PRO620  LYS621  CYS622 
 ASP623  PHE694  ASN695  SER759  ASP760  ASP761  ALA762  ILE779  LEU786  VAL792 
 PHE793  MET794  SER795  GLU796  ALA797  LYS798  CYS799  TRP800  GLU811  SER814 

> <Gold.Protein.RotatedAtoms>
  151.7662  135.0798  160.0352 H   0  0  0  0  0  0  0  0  0  0  0  0  # atno 6907 bound_to 6896
  152.3320  133.5964  159.5824 H   0  0  0  0  0  0  0  0  0  0  0  0  # atno 6908 bound_to 6896
  150.7428  133.9770  159.3606 H   0  0  0  0  0  0  0  0  0  0  0  0  # atno 6909 bound_to 6896
  146.1655  140.4527  142.8554 H   0  0  0  0  0  0  0  0  0  0  0  0  # atno 7974 bound_to 7965
  154.9002  140.0413  157.1889 H   0  0  0  0  0  0  0  0  0  0  0  0  # atno 8008 bound_to 7997
  154.8451  140.2920  155.5613 H   0  0  0  0  0  0  0  0  0  0  0  0  # atno 8009 bound_to 7997
  156.2994  140.2475  156.3400 H   0  0  0  0  0  0  0  0  0  0  0  0  # atno 8010 bound_to 7997
  140.2911  144.3045  150.6240 H   0  0  0  0  0  0  0  0  0  0  0  0  # atno 10167 bound_to 10162
  156.3402  130.4292  149.7794 H   0  0  0  0  0  0  0  0  0  0  0  0  # atno 10718 bound_to 10713
  153.2310  135.6892  153.7890 H   0  0  0  0  0  0  0  0  0  0  0  0  # atno 10763 bound_to 10752
  153.7055  135.3290  155.3235 H   0  0  0  0  0  0  0  0  0  0  0  0  # atno 10764 bound_to 10752
  154.8314  135.4578  154.1195 H   0  0  0  0  0  0  0  0  0  0  0  0  # atno 10765 bound_to 10752
  140.9566  134.0993  157.4010 H   0  0  0  0  0  0  0  0  0  0  0  0  # atno 11005 bound_to 11000
  144.8086  140.6345  143.6430 LP  0  0  0  0  0  0  0  0  0  0  0  0  # atno 17320 bound_to 7965
  145.4479  139.1527  143.3935 LP  0  0  0  0  0  0  0  0  0  0  0  0  # atno 17321 bound_to 7965
  140.5731  143.2179  151.7563 LP  0  0  0  0  0  0  0  0  0  0  0  0  # atno 17342 bound_to 10162
  139.4938  144.4188  152.0001 LP  0  0  0  0  0  0  0  0  0  0  0  0  # atno 17343 bound_to 10162
  156.5033  130.8139  151.3141 LP  0  0  0  0  0  0  0  0  0  0  0  0  # atno 17370 bound_to 10713
  157.7445  130.9937  150.2683 LP  0  0  0  0  0  0  0  0  0  0  0  0  # atno 17371 bound_to 10713
  139.8864  135.0081  156.6498 LP  0  0  0  0  0  0  0  0  0  0  0  0  # atno 17394 bound_to 11000
  140.7527  133.8884  155.8359 LP  0  0  0  0  0  0  0  0  0  0  0  0  # atno 17395 bound_to 11000

$$$$
