AV-unprocessed.smi:169|AV-procd|sdf|1403|dock6
  -GOLD-   2262019153D 1   1.00000     0.00000
 Structure written by MMmdl.
 56 60  0  0  0  0  0  0  0  0  2 V2000
  145.7973  128.7184  151.9525 C   0  0  0  0  0  0  0  0  0  0  0  0
  145.6598  130.2350  151.7508 C   0  0  0  0  0  0  0  0  0  0  0  0
  146.9157  130.9845  152.0358 N   0  3  1  0  0  0  0  0  0  0  0  0
  146.7523  132.4857  152.0539 C   0  0  0  0  0  0  0  0  0  0  0  0
  145.8894  133.1038  153.2222 C   0  0  0  0  0  0  0  0  0  0  0  0
  146.5545  133.1498  154.6465 C   0  0  1  0  0  0  0  0  0  0  0  0
  145.8254  132.3121  155.7555 C   0  0  0  0  0  0  0  0  0  0  0  0
  146.5219  130.9079  155.7449 C   0  0  0  0  0  0  0  0  0  0  0  0
  147.4427  131.0956  154.5368 C   0  0  3  0  0  0  0  0  0  0  0  0
  147.6975  130.3864  153.1867 C   0  0  0  0  0  0  0  0  0  0  0  0
  147.8455  132.4900  154.5597 N   0  0  0  0  0  0  0  0  0  0  0  0
  148.8666  132.8286  155.3959 C   0  0  0  0  0  0  0  0  0  0  0  0
  149.3330  131.9120  156.2850 N   0  0  0  0  0  0  0  0  0  0  0  0
  150.3369  132.2140  157.1126 C   0  0  0  0  0  0  0  0  0  0  0  0
  151.0089  133.3601  157.2233 N   0  0  0  0  0  0  0  0  0  0  0  0
  150.5419  134.2926  156.3454 C   0  0  0  0  0  0  0  0  0  0  0  0
  149.4823  134.1157  155.4098 C   0  0  0  0  0  0  0  0  0  0  0  0
  149.2842  135.2967  154.7029 N   0  0  0  0  0  0  0  0  0  0  0  0
  150.1758  136.1173  155.1859 C   0  0  0  0  0  0  0  0  0  0  0  0
  150.9863  135.5917  156.1660 N   0  0  0  0  0  0  0  0  0  0  0  0
  152.0593  136.2736  156.8764 C   0  0  0  0  0  0  0  0  0  0  0  0
  151.6139  137.5078  157.6979 C   0  0  0  0  0  0  0  0  0  0  0  0
  151.4934  138.6995  156.7387 C   0  0  0  0  0  0  0  0  0  0  0  0
  152.7508  139.0497  156.1969 O   0  0  0  0  0  0  0  0  0  0  0  0
  150.4294  137.3164  158.6626 C   0  0  0  0  0  0  0  0  0  0  0  0
  151.3087  137.2031  159.8014 O   0  0  0  0  0  0  0  0  0  0  0  0
  152.3716  137.7732  159.0089 C   0  0  0  0  0  0  0  0  0  0  0  0
  144.8220  128.2359  151.8854 H   0  0  0  0  0  0  0  0  0  0  0  0
  146.2127  128.4843  152.9334 H   0  0  0  0  0  0  0  0  0  0  0  0
  146.4311  128.2589  151.1944 H   0  0  0  0  0  0  0  0  0  0  0  0
  145.2971  130.4531  150.7463 H   0  0  0  0  0  0  0  0  0  0  0  0
  144.8833  130.5802  152.4345 H   0  0  0  0  0  0  0  0  0  0  0  0
  147.7424  132.9429  152.0347 H   0  0  0  0  0  0  0  0  0  0  0  0
  146.3117  132.7941  151.1072 H   0  0  0  0  0  0  0  0  0  0  0  0
  145.6632  134.1341  152.9456 H   0  0  0  0  0  0  0  0  0  0  0  0
  144.9153  132.6173  153.2677 H   0  0  0  0  0  0  0  0  0  0  0  0
  146.6301  134.1933  154.9527 H   0  0  0  0  0  0  0  0  0  0  0  0
  145.9593  132.7780  156.7326 H   0  0  0  0  0  0  0  0  0  0  0  0
  144.7522  132.2435  155.5750 H   0  0  0  0  0  0  0  0  0  0  0  0
  147.1141  130.7719  156.6508 H   0  0  0  0  0  0  0  0  0  0  0  0
  145.8223  130.0690  155.6796 H   0  0  0  0  0  0  0  0  0  0  0  0
  146.4476  131.0051  154.1203 H   0  0  0  0  0  0  0  0  0  0  0  0
  147.5284  129.3121  153.2751 H   0  0  0  0  0  0  0  0  0  0  0  0
  148.7528  130.4941  152.9366 H   0  0  0  0  0  0  0  0  0  0  0  0
  150.6468  131.4236  157.7801 H   0  0  0  0  0  0  0  0  0  0  0  0
  150.2657  137.1350  154.8359 H   0  0  0  0  0  0  0  0  0  0  0  0
  152.5391  135.5386  157.5240 H   0  0  0  0  0  0  0  0  0  0  0  0
  152.8143  136.5562  156.1418 H   0  0  0  0  0  0  0  0  0  0  0  0
  150.8042  138.4803  155.9227 H   0  0  0  0  0  0  0  0  0  0  0  0
  151.0949  139.5749  157.2527 H   0  0  0  0  0  0  0  0  0  0  0  0
  152.8518  138.6128  155.3648 H   0  0  0  0  0  0  0  0  0  0  0  0
  149.7811  138.1905  158.7448 H   0  0  0  0  0  0  0  0  0  0  0  0
  149.8333  136.4209  158.4943 H   0  0  0  0  0  0  0  0  0  0  0  0
  153.3133  137.2343  159.1049 H   0  0  0  0  0  0  0  0  0  0  0  0
  152.5133  138.8329  159.2291 H   0  0  0  0  0  0  0  0  0  0  0  0
  147.4933  130.7967  151.2287 H   0  0  0  0  0  0  0  0  0  0  0  0
  1  2  1  0  0  0  0
  1 28  1  0  0  0  0
  1 29  1  0  0  0  0
  1 30  1  0  0  0  0
  2  3  1  0  0  0  0
  2 31  1  0  0  0  0
  2 32  1  0  0  0  0
  3 10  1  0  0  0  0
  3  4  1  0  0  0  0
  3 56  1  0  0  0  0
  4  5  1  0  0  0  0
  4 33  1  0  0  0  0
  4 34  1  0  0  0  0
  5  6  1  0  0  0  0
  5 35  1  0  0  0  0
  5 36  1  0  0  0  0
  6 11  1  0  0  0  0
  6  7  1  0  0  0  0
  6 37  1  0  0  0  0
  7  8  1  0  0  0  0
  7 38  1  0  0  0  0
  7 39  1  0  0  0  0
  8  9  1  0  0  0  0
  8 40  1  0  0  0  0
  8 41  1  0  0  0  0
  9 10  1  0  0  0  0
  9 11  1  0  0  0  0
  9 42  1  0  0  0  0
 10 43  1  0  0  0  0
 10 44  1  0  0  0  0
 11 12  1  0  0  0  0
 12 17  1  0  0  0  0
 12 13  2  0  0  0  0
 13 14  1  0  0  0  0
 14 15  2  0  0  0  0
 14 45  1  0  0  0  0
 15 16  1  0  0  0  0
 16 20  1  0  0  0  0
 16 17  2  0  0  0  0
 17 18  1  0  0  0  0
 18 19  2  0  0  0  0
 19 20  1  0  0  0  0
 19 46  1  0  0  0  0
 20 21  1  0  0  0  0
 21 22  1  0  0  0  0
 21 47  1  0  0  0  0
 21 48  1  0  0  0  0
 22 27  1  0  0  0  0
 22 23  1  0  0  0  0
 22 25  1  0  0  0  0
 23 24  1  0  0  0  0
 23 49  1  0  0  0  0
 23 50  1  0  0  0  0
 24 51  1  0  0  0  0
 25 26  1  0  0  0  0
 25 52  1  0  0  0  0
 25 53  1  0  0  0  0
 26 27  1  0  0  0  0
 27 54  1  0  0  0  0
 27 55  1  0  0  0  0
M  CHG  1   3   1
M  END
> <s_m_source_file>
AV-unprocessed.smi

> <i_m_source_file_index>
169

> <i_lp_mmshare_version>
43012

> <i_f3d_flags>
0

> <s_epik_input>
W0NASF0xMltDSDJdW0NIMl1OKFtDSDJdW0NIM10pW0NIMl1bQ0BIXShbQ0gyXVtDSDJdMSlOMmMobltjSF1uMyljKGMzNCluW2NIXW40W0NIMl1DNShbQ0gyXVtPSF0pW0NIMl1PW0NIMl01

> <s_epik_cmdline>
J2VwaWtfcHl0aG9uJywgJy1waCcsICc3LjAnLCAnLXRuJywgJzgnLCAnLW1hJywgJzIwMCcsICctbWV0YWxfYmluZGluZycsICctaW1hZScsICc8aW5maWxlLm1hZT4nLCAnLW9tYWUnLCAnPG91dGZpbGUubWFlPic=

> <r_lp_tautomer_probability>
1

> <r_epik_Ionization_Penalty>
0.00274162

> <r_epik_Ionization_Penalty_Charging>
0.00243722

> <r_epik_Ionization_Penalty_Neutral>
0.000304399

> <r_epik_State_Penalty>
-0

> <r_epik_Charging_Adjusted_Penalty>
0.00243722

> <i_epik_Tot_Q>
1

> <i_epik_Tot_abs_Q>
1

> <r_epik_Metal_State_Penalty>
-0

> <b_epik_Metal_Only>
0

> <s_lp_Force_Field>
OPLS_2005

> <r_lp_Energy>
131.702

> <b_lp_Chiralities_Consistent>
1

> <s_lp_Variant>
AV-unprocessed.smi:169-6

> <Gold.Version>
5.8.1

> <Gold.Id.Protein>
6NUR|6NUR_protein|mol2

> <Gold.PLP.Fitness>
41.4454

> <Gold.PLP.PLP>
-31.5521

> <Gold.PLP.part.hbond>
-3.9578

> <Gold.PLP.part.metal>
0.0000

> <Gold.PLP.part.buried>
-5.6988

> <Gold.PLP.part.nonpolar>
-22.9784

> <Gold.PLP.part.repulsive>
1.0623

> <Gold.PLP.ligand.clash>
0.0000

> <Gold.PLP.ligand.torsion>
0.6969

> <Gold.PLP.Chemscore.Hbond>
3.6153

> <Gold.PLP.Chemscore.CHOScore>
0.0000

> <Gold.PLP.Chemscore.Metal>
0.0000

> <Gold.Chemscore.Hbonds>
donor molecule, donor type, donor heavy atom, donor atom, acceptor molecule, acceptor atom, score
      L1  H     3    56       P1 10747  1.00
      P1  H  6896  6907       L1    26  0.98
      P1  H  6896  6909       L1    15  0.65
      P1  H  7997  8010       L1    24  1.00

> <Gold.PLP.Chemscore.Internal.Correction>
0.4415

> <Gold.Rescore>
     Score         DG    S(hbond)    S(metal)    S(lipo)     H(rot)  DE(clash)    DE(int)     intcor
     14.18     -15.64       2.56        0.00      71.02       2.62       0.14       1.32       ----

> <Gold.Chemscore.Fitness>
14.1823

> <Gold.Chemscore.DG>
-15.6446

> <Gold.Chemscore.ZeroCoef>
-5.4800

> <Gold.Chemscore.Hbond>
2.5644

> <Gold.Chemscore.Metal>
0.0000

> <Gold.Chemscore.Lipo>
71.0230

> <Gold.Chemscore.Internal_Hbond>
0.0000

> <Gold.Chemscore.DEClash>
0.1441

> <Gold.Chemscore.DEInternal>
1.3182

> <Gold.Chemscore.Rot>
2.6212

> <Gold.Chemscore.Internal.Correction>
   9.000000E+99

> <Gold.Chemscore.Hbonds>
donor molecule, donor type, donor heavy atom, donor atom, acceptor molecule, acceptor atom, score
      L1  H     3    56       P1 10747  0.98
      P1  H  6896  6907       L1    26  0.22
      P1  H  6896  6909       L1    15  0.21
      P1  H  7997  8010       L1    24  0.40

> <Gold.Chemscore.Hbond.Weighted>
-8.5651

> <Gold.Chemscore.Metal.Weighted>
-0.0000

> <Gold.Chemscore.Lipo.Weighted>
-8.3097

> <Gold.Chemscore.Internal_Hbond.Weighted>
0.0000

> <Gold.Chemscore.DEClash.Weighted>
0.1441

> <Gold.Chemscore.DEInternal.Weighted>
1.3182

> <Gold.Chemscore.Rot.Weighted>
6.7102

> <Gold.Chemscore.Internal.Correction.Weighted>
   9.000000E+99

> <Gold.Protein.RotatedTorsions>
[ 6907 6896 6895 6894 ] final   -6.40 input  -60.11 | X-H torsion
[ 7974 7965 7964 7962 ] final  100.71 input  175.53 | X-H torsion
[ 8008 7997 7996 7995 ] final   78.17 input   59.86 | X-H torsion
[ 10167 10162 10161 10158 ] final  -45.61 input  -65.29 | X-H torsion
[ 10718 10713 10712 10709 ] final    5.67 input   66.30 | X-H torsion
[ 10763 10752 10751 10750 ] final -105.68 input  -60.55 | X-H torsion
[ 11005 11000 10999 10996 ] final  -49.02 input  -57.11 | X-H torsion

> <Gold.Protein.ActiveResidues>
 VAL166  LYS551  ARG553  GLY616  TRP617  ASP618  TYR619  PRO620  LYS621  CYS622 
 ASP623  PHE694  ASN695  SER759  ASP760  ASP761  ALA762  ILE779  LEU786  VAL792 
 PHE793  MET794  SER795  GLU796  ALA797  LYS798  CYS799  TRP800  GLU811  SER814 

> <Gold.Protein.RotatedAtoms>
  151.4662  135.1042  159.9738 H   0  0  0  0  0  0  0  0  0  0  0  0  # atno 6907 bound_to 6896
  152.4834  133.8307  159.7112 H   0  0  0  0  0  0  0  0  0  0  0  0  # atno 6908 bound_to 6896
  150.8924  133.7165  159.2928 H   0  0  0  0  0  0  0  0  0  0  0  0  # atno 6909 bound_to 6896
  145.3819  139.2378  143.3399 H   0  0  0  0  0  0  0  0  0  0  0  0  # atno 7974 bound_to 7965
  155.8519  140.3457  155.5699 H   0  0  0  0  0  0  0  0  0  0  0  0  # atno 8008 bound_to 7997
  155.8028  140.0887  157.1967 H   0  0  0  0  0  0  0  0  0  0  0  0  # atno 8009 bound_to 7997
  154.4008  140.1462  156.3282 H   0  0  0  0  0  0  0  0  0  0  0  0  # atno 8010 bound_to 7997
  140.6851  143.2871  151.3664 H   0  0  0  0  0  0  0  0  0  0  0  0  # atno 10167 bound_to 10162
  156.9108  130.5755  149.5647 H   0  0  0  0  0  0  0  0  0  0  0  0  # atno 10718 bound_to 10713
  154.7962  135.4740  154.0168 H   0  0  0  0  0  0  0  0  0  0  0  0  # atno 10763 bound_to 10752
  153.1708  135.6824  153.8618 H   0  0  0  0  0  0  0  0  0  0  0  0  # atno 10764 bound_to 10752
  153.8201  135.3205  155.3387 H   0  0  0  0  0  0  0  0  0  0  0  0  # atno 10765 bound_to 10752
  141.0735  133.6672  156.3525 H   0  0  0  0  0  0  0  0  0  0  0  0  # atno 11005 bound_to 11000
  146.2838  140.4488  142.8766 LP  0  0  0  0  0  0  0  0  0  0  0  0  # atno 17320 bound_to 7965
  144.8501  140.6989  143.6173 LP  0  0  0  0  0  0  0  0  0  0  0  0  # atno 17321 bound_to 7965
  139.6203  144.0921  152.2385 LP  0  0  0  0  0  0  0  0  0  0  0  0  # atno 17342 bound_to 10162
  140.0363  144.6042  150.7447 LP  0  0  0  0  0  0  0  0  0  0  0  0  # atno 17343 bound_to 10162
  156.0537  130.5602  150.9045 LP  0  0  0  0  0  0  0  0  0  0  0  0  # atno 17370 bound_to 10713
  157.5969  131.0942  150.9026 LP  0  0  0  0  0  0  0  0  0  0  0  0  # atno 17371 bound_to 10713
  140.5624  134.5921  157.5437 LP  0  0  0  0  0  0  0  0  0  0  0  0  # atno 17394 bound_to 11000
  139.9547  134.7555  156.0368 LP  0  0  0  0  0  0  0  0  0  0  0  0  # atno 17395 bound_to 11000

$$$$
