AV-unprocessed.smi:109|AV-procd|sdf|1051|dock9
  -GOLD-   2262018103D 1   1.00000     0.00000
 Structure written by MMmdl.
 58 61  0  0  0  0  0  0  0  0  1 V2000
  150.9892  136.8882  158.8976 O   0  0  0  0  0  0  0  0  0  0  0  0
  149.8577  137.7236  158.7829 C   0  0  0  0  0  0  0  0  0  0  0  0
  148.6339  136.8919  158.3613 C   0  0  0  0  0  0  0  0  0  0  0  0
  148.5336  135.5120  159.0574 C   0  0  2  0  0  0  0  0  0  0  0  0
  147.7690  134.5944  158.2091 N   0  0  0  0  0  0  0  0  0  0  0  0
  148.1724  134.2527  156.9647 C   0  0  0  0  0  0  0  0  0  0  0  0
  149.4804  134.3019  156.6026 N   0  0  0  0  0  0  0  0  0  0  0  0
  149.8446  133.9606  155.3635 C   0  0  0  0  0  0  0  0  0  0  0  0
  149.0766  133.5495  154.3527 N   0  0  0  0  0  0  0  0  0  0  0  0
  147.7603  133.4984  154.7082 C   0  0  0  0  0  0  0  0  0  0  0  0
  147.2335  133.8329  155.9872 C   0  0  0  0  0  0  0  0  0  0  0  0
  145.8549  133.6688  155.9869 N   0  0  0  0  0  0  0  0  0  0  0  0
  145.5867  133.2606  154.7760 C   0  0  0  0  0  0  0  0  0  0  0  0
  146.6726  133.1315  153.9388 N   0  0  0  0  0  0  0  0  0  0  0  0
  146.6612  132.6824  152.5079 C   0  0  2  0  0  0  0  0  0  0  0  0
  145.6749  133.3831  151.8093 O   0  0  0  0  0  0  0  0  0  0  0  0
  144.7274  132.4805  151.2449 C   0  0  1  0  0  0  0  0  0  0  0  0
  144.1183  133.0632  149.9578 C   0  0  0  0  0  0  0  0  0  0  0  0
  143.0609  132.2475  149.4999 O   0  0  0  0  0  0  0  0  0  0  0  0
  145.4798  131.1474  151.1218 C   0  0  1  0  0  0  0  0  0  0  0  0
  146.2447  131.0902  149.9319 O   0  0  0  0  0  0  0  0  0  0  0  0
  146.3914  131.1723  152.3385 C   0  0  2  0  0  0  0  0  0  0  0  0
  145.7550  130.5711  153.4526 O   0  0  0  0  0  0  0  0  0  0  0  0
  147.8833  135.5723  160.4697 C   0  0  0  0  0  0  0  0  0  0  0  0
  147.5332  134.1759  161.0429 C   0  0  0  0  0  0  0  0  0  0  0  0
  146.8547  134.2585  162.4203 C   0  0  0  0  0  0  0  0  0  0  0  0
  145.5977  135.1355  162.3769 C   0  0  0  0  0  0  0  0  0  0  0  0
  145.9322  136.5310  161.8371 C   0  0  0  0  0  0  0  0  0  0  0  0
  146.6020  136.4458  160.4566 C   0  0  0  0  0  0  0  0  0  0  0  0
  147.6368  132.9781  152.1196 H   0  0  0  0  0  0  0  0  0  0  0  0
  143.9318  132.3525  151.9795 H   0  0  0  0  0  0  0  0  0  0  0  0
  144.7997  130.2943  151.1256 H   0  0  0  0  0  0  0  0  0  0  0  0
  147.3327  130.6484  152.1675 H   0  0  0  0  0  0  0  0  0  0  0  0
  151.6742  137.2322  158.3449 H   0  0  0  0  0  0  0  0  0  0  0  0
  149.6928  138.2136  159.7425 H   0  0  0  0  0  0  0  0  0  0  0  0
  150.0653  138.5021  158.0483 H   0  0  0  0  0  0  0  0  0  0  0  0
  147.7547  137.4892  158.5965 H   0  0  0  0  0  0  0  0  0  0  0  0
  148.6348  136.7578  157.2786 H   0  0  0  0  0  0  0  0  0  0  0  0
  149.5495  135.1460  159.2031 H   0  0  0  0  0  0  0  0  0  0  0  0
  146.8966  134.2709  158.6020 H   0  0  0  0  0  0  0  0  0  0  0  0
  150.9014  134.0263  155.1512 H   0  0  0  0  0  0  0  0  0  0  0  0
  144.5783  133.0410  154.4565 H   0  0  0  0  0  0  0  0  0  0  0  0
  143.7206  134.0587  150.1563 H   0  0  0  0  0  0  0  0  0  0  0  0
  144.8663  133.1732  149.1725 H   0  0  0  0  0  0  0  0  0  0  0  0
  142.3040  132.7935  149.3512 H   0  0  0  0  0  0  0  0  0  0  0  0
  147.0641  130.6609  150.1266 H   0  0  0  0  0  0  0  0  0  0  0  0
  144.9356  130.1996  153.1642 H   0  0  0  0  0  0  0  0  0  0  0  0
  148.5989  136.0372  161.1499 H   0  0  0  0  0  0  0  0  0  0  0  0
  146.8832  133.6443  160.3467 H   0  0  0  0  0  0  0  0  0  0  0  0
  148.4287  133.5679  161.1591 H   0  0  0  0  0  0  0  0  0  0  0  0
  146.5950  133.2575  162.7664 H   0  0  0  0  0  0  0  0  0  0  0  0
  147.5577  134.6641  163.1492 H   0  0  0  0  0  0  0  0  0  0  0  0
  144.8434  134.6668  161.7436 H   0  0  0  0  0  0  0  0  0  0  0  0
  145.1623  135.2144  163.3734 H   0  0  0  0  0  0  0  0  0  0  0  0
  145.0234  137.1300  161.7721 H   0  0  0  0  0  0  0  0  0  0  0  0
  146.5938  137.0467  162.5342 H   0  0  0  0  0  0  0  0  0  0  0  0
  146.8273  137.4593  160.1241 H   0  0  0  0  0  0  0  0  0  0  0  0
  145.8917  136.0404  159.7348 H   0  0  0  0  0  0  0  0  0  0  0  0
  1  2  1  0  0  0  0
  1 34  1  0  0  0  0
  2  3  1  0  0  0  0
  2 35  1  0  0  0  0
  2 36  1  0  0  0  0
  3  4  1  0  0  0  0
  3 37  1  0  0  0  0
  3 38  1  0  0  0  0
  4  5  1  0  0  0  0
  4 24  1  0  0  0  0
  4 39  1  0  0  0  0
  5  6  1  0  0  0  0
  5 40  1  0  0  0  0
  6 11  1  0  0  0  0
  6  7  2  0  0  0  0
  7  8  1  0  0  0  0
  8  9  2  0  0  0  0
  8 41  1  0  0  0  0
  9 10  1  0  0  0  0
 10 14  1  0  0  0  0
 10 11  2  0  0  0  0
 11 12  1  0  0  0  0
 12 13  2  0  0  0  0
 13 14  1  0  0  0  0
 13 42  1  0  0  0  0
 14 15  1  0  0  0  0
 15 30  1  0  0  0  0
 15 22  1  0  0  0  0
 15 16  1  0  0  0  0
 16 17  1  0  0  0  0
 17 31  1  0  0  0  0
 17 18  1  0  0  0  0
 17 20  1  0  0  0  0
 18 19  1  0  0  0  0
 18 43  1  0  0  0  0
 18 44  1  0  0  0  0
 19 45  1  0  0  0  0
 20 32  1  0  0  0  0
 20 21  1  0  0  0  0
 20 22  1  0  0  0  0
 21 46  1  0  0  0  0
 22 33  1  0  0  0  0
 22 23  1  0  0  0  0
 23 47  1  0  0  0  0
 24 29  1  0  0  0  0
 24 25  1  0  0  0  0
 24 48  1  0  0  0  0
 25 26  1  0  0  0  0
 25 49  1  0  0  0  0
 25 50  1  0  0  0  0
 26 27  1  0  0  0  0
 26 51  1  0  0  0  0
 26 52  1  0  0  0  0
 27 28  1  0  0  0  0
 27 53  1  0  0  0  0
 27 54  1  0  0  0  0
 28 29  1  0  0  0  0
 28 55  1  0  0  0  0
 28 56  1  0  0  0  0
 29 57  1  0  0  0  0
 29 58  1  0  0  0  0
M  END
> <s_m_source_file>
AV-unprocessed.smi

> <i_m_source_file_index>
109

> <i_lp_mmshare_version>
43012

> <i_f3d_flags>
0

> <s_epik_input>
W0NIMl0xW0NIMl1bQ0gyXVtDSDJdW0NIMl1bQ0hdMVtDQEhdKFtDSDJdW0NIMl1bT0hdKVtOSF1jKG5bY0hdbjIpYyhjMjMpbltjSF1uM1tDQEBIXTRPW0NASF0oW0NIMl1bT0hdKVtDQEBIXShbT0hdKVtDQEhdNFtPSF0=

> <s_epik_cmdline>
J2VwaWtfcHl0aG9uJywgJy1waCcsICc3LjAnLCAnLXRuJywgJzgnLCAnLW1hJywgJzIwMCcsICctbWV0YWxfYmluZGluZycsICctaW1hZScsICc8aW5maWxlLm1hZT4nLCAnLW9tYWUnLCAnPG91dGZpbGUubWFlPic=

> <r_lp_tautomer_probability>
1

> <r_epik_Ionization_Penalty>
0.000793976

> <r_epik_Ionization_Penalty_Charging>
0

> <r_epik_Ionization_Penalty_Neutral>
0.000793976

> <r_epik_State_Penalty>
-0

> <r_epik_Charging_Adjusted_Penalty>
0

> <i_epik_Tot_Q>
0

> <i_epik_Tot_abs_Q>
0

> <r_epik_Metal_State_Penalty>
-0

> <b_epik_Metal_Only>
0

> <s_epik_Chemistry_Notes>
This compound contains an acetal/aminal-like group ( X-CH(R)-Y where X, Y are N, S, or O) that may be acid/base labile, releasing an aldehyde.

> <s_lp_Force_Field>
OPLS_2005

> <r_lp_Energy>
55.8609

> <b_lp_Chiralities_Consistent>
1

> <s_lp_Variant>
AV-unprocessed.smi:109-21

> <Gold.Version>
5.8.1

> <Gold.Id.Protein>
6NUR|6NUR_protein|mol2

> <Gold.PLP.Fitness>
50.5834

> <Gold.PLP.PLP>
-39.6752

> <Gold.PLP.part.hbond>
-4.9023

> <Gold.PLP.part.metal>
0.0000

> <Gold.PLP.part.buried>
-7.5834

> <Gold.PLP.part.nonpolar>
-28.5380

> <Gold.PLP.part.repulsive>
0.3403

> <Gold.PLP.ligand.clash>
0.0000

> <Gold.PLP.ligand.torsion>
1.0018

> <Gold.PLP.Chemscore.Hbond>
3.2675

> <Gold.PLP.Chemscore.CHOScore>
1.0000

> <Gold.PLP.Chemscore.Metal>
0.0000

> <Gold.Chemscore.Hbonds>
donor molecule, donor type, donor heavy atom, donor atom, acceptor molecule, acceptor atom, score
      L1  H    19    45       P1 10186  0.88
      L1  H    21    46       P1 10747  0.93
      L1  H    23    47       P1 10956  0.02
      P1  H  6896  6907       L1     1  0.96
      P1  H 10785 10796       L1    19  0.47
      L1  C    13    42       P1 10957  1.00

> <Gold.PLP.Chemscore.Internal.Correction>
0.1093

> <Gold.Rescore>
     Score         DG    S(hbond)    S(metal)    S(lipo)     H(rot)  DE(clash)    DE(int)     intcor
     11.27     -13.16       3.48        0.00      85.95       5.47       0.14       1.75       ----

> <Gold.Chemscore.Fitness>
11.2686

> <Gold.Chemscore.DG>
-13.1586

> <Gold.Chemscore.ZeroCoef>
-5.4800

> <Gold.Chemscore.Hbond>
3.4777

> <Gold.Chemscore.Metal>
0.0000

> <Gold.Chemscore.Lipo>
85.9541

> <Gold.Chemscore.Internal_Hbond>
0.0000

> <Gold.Chemscore.DEClash>
0.1449

> <Gold.Chemscore.DEInternal>
1.7451

> <Gold.Chemscore.Rot>
5.4662

> <Gold.Chemscore.Internal.Correction>
   9.000000E+99

> <Gold.Chemscore.Hbonds>
donor molecule, donor type, donor heavy atom, donor atom, acceptor molecule, acceptor atom, score
      L1  H    19    45       P1 10186  0.85
      L1  H    21    46       P1 10747  0.91
      P1  H  6896  6907       L1     1  0.85
      P1  H 10785 10796       L1    19  0.47

> <Gold.Chemscore.Hbond.Weighted>
-11.6155

> <Gold.Chemscore.Metal.Weighted>
-0.0000

> <Gold.Chemscore.Lipo.Weighted>
-10.0566

> <Gold.Chemscore.Internal_Hbond.Weighted>
0.0000

> <Gold.Chemscore.DEClash.Weighted>
0.1449

> <Gold.Chemscore.DEInternal.Weighted>
1.7451

> <Gold.Chemscore.Rot.Weighted>
13.9935

> <Gold.Chemscore.Internal.Correction.Weighted>
   9.000000E+99

> <Gold.Protein.RotatedTorsions>
[ 6907 6896 6895 6894 ] final  -30.82 input  -60.11 | X-H torsion
[ 7974 7965 7964 7962 ] final  103.54 input  175.53 | X-H torsion
[ 8008 7997 7996 7995 ] final -133.46 input   59.86 | X-H torsion
[ 10167 10162 10161 10158 ] final  108.00 input  -65.29 | X-H torsion
[ 10718 10713 10712 10709 ] final  -26.14 input   66.30 | X-H torsion
[ 10763 10752 10751 10750 ] final  138.18 input  -60.55 | X-H torsion
[ 11005 11000 10999 10996 ] final -153.19 input  -57.11 | X-H torsion

> <Gold.Protein.ActiveResidues>
 VAL166  LYS551  ARG553  GLY616  TRP617  ASP618  TYR619  PRO620  LYS621  CYS622 
 ASP623  PHE694  ASN695  SER759  ASP760  ASP761  ALA762  ILE779  LEU786  VAL792 
 PHE793  MET794  SER795  GLU796  ALA797  LYS798  CYS799  TRP800  GLU811  SER814 

> <Gold.Protein.RotatedAtoms>
  151.1003  134.9968  159.8445 H   0  0  0  0  0  0  0  0  0  0  0  0  # atno 6907 bound_to 6896
  152.5436  134.1958  159.8702 H   0  0  0  0  0  0  0  0  0  0  0  0  # atno 6908 bound_to 6896
  151.2000  133.4572  159.2629 H   0  0  0  0  0  0  0  0  0  0  0  0  # atno 6909 bound_to 6896
  145.3446  139.2454  143.3591 H   0  0  0  0  0  0  0  0  0  0  0  0  # atno 7974 bound_to 7965
  155.3459  140.0474  157.3045 H   0  0  0  0  0  0  0  0  0  0  0  0  # atno 8008 bound_to 7997
  154.5253  140.2239  155.8866 H   0  0  0  0  0  0  0  0  0  0  0  0  # atno 8009 bound_to 7997
  156.1732  140.3091  155.9018 H   0  0  0  0  0  0  0  0  0  0  0  0  # atno 8010 bound_to 7997
  139.6881  144.7111  151.1396 H   0  0  0  0  0  0  0  0  0  0  0  0  # atno 10167 bound_to 10162
  156.4552  130.4492  149.6964 H   0  0  0  0  0  0  0  0  0  0  0  0  # atno 10718 bound_to 10713
  153.8854  135.3039  155.3446 H   0  0  0  0  0  0  0  0  0  0  0  0  # atno 10763 bound_to 10752
  154.7742  135.4870  153.9713 H   0  0  0  0  0  0  0  0  0  0  0  0  # atno 10764 bound_to 10752
  153.1328  135.6807  153.9249 H   0  0  0  0  0  0  0  0  0  0  0  0  # atno 10765 bound_to 10752
  140.7108  134.3835  157.5198 H   0  0  0  0  0  0  0  0  0  0  0  0  # atno 11005 bound_to 11000
  146.2993  140.4050  142.8710 LP  0  0  0  0  0  0  0  0  0  0  0  0  # atno 17320 bound_to 7965
  144.8764  140.7342  143.6014 LP  0  0  0  0  0  0  0  0  0  0  0  0  # atno 17321 bound_to 7965
  140.7674  143.5599  150.9111 LP  0  0  0  0  0  0  0  0  0  0  0  0  # atno 17342 bound_to 10162
  139.9275  143.6533  152.3083 LP  0  0  0  0  0  0  0  0  0  0  0  0  # atno 17343 bound_to 10162
  156.3774  130.7562  151.2551 LP  0  0  0  0  0  0  0  0  0  0  0  0  # atno 17370 bound_to 10713
  157.7501  131.0305  150.4141 LP  0  0  0  0  0  0  0  0  0  0  0  0  # atno 17371 bound_to 10713
  139.8872  134.8888  156.2541 LP  0  0  0  0  0  0  0  0  0  0  0  0  # atno 17394 bound_to 11000
  141.0086  133.7109  156.1075 LP  0  0  0  0  0  0  0  0  0  0  0  0  # atno 17395 bound_to 11000

$$$$
