AV-unprocessed.smi:3210|AV-procd|sdf|12273|dock3
  -GOLD-   2272018113D 1   1.00000     0.00000
 Structure written by MMmdl.
 34 35  0  0  0  0  0  0  0  0  1 V2000
  150.4747  134.1225  156.0703 O   0  0  0  0  0  0  0  0  0  0  0  0
  150.1125  134.5312  154.9665 C   0  0  0  0  0  0  0  0  0  0  0  0
  149.3496  133.6038  154.0217 C   0  0  0  0  0  0  0  0  0  0  0  0
  148.0417  134.1604  153.6665 N   0  0  0  0  0  0  0  0  0  0  0  0
  147.3761  133.3231  152.6790 C   0  0  0  0  0  0  0  0  0  0  0  0
  145.9812  133.8826  152.3531 C   0  0  0  0  0  0  0  0  0  0  0  0
  145.3971  133.2565  151.1798 N   0  0  0  0  0  0  0  0  0  0  0  0
  145.9858  132.3726  150.2999 C   0  0  0  0  0  0  0  0  0  0  0  0
  145.0551  132.0647  149.3494 C   0  0  0  0  0  0  0  0  0  0  0  0
  143.9126  132.8185  149.7387 C   0  0  0  0  0  0  0  0  0  0  0  0
  144.1204  133.5304  150.8345 N   0  0  0  0  0  0  0  0  0  0  0  0
  150.3506  135.7754  154.5249 N   0  0  0  0  0  0  0  0  0  0  0  0
  151.0553  136.8083  155.2732 C   0  0  0  0  0  0  0  0  0  0  0  0
  151.4077  138.0508  154.4768 C   0  0  0  0  0  0  0  0  0  0  0  0
  152.7918  138.6525  154.5417 C   0  0  0  0  0  0  0  0  0  0  0  0
  151.6257  139.3711  155.1772 C   0  0  0  0  0  0  0  0  0  0  0  0
  149.9483  133.4629  153.1206 H   0  0  0  0  0  0  0  0  0  0  0  0
  149.2203  132.6225  154.4821 H   0  0  0  0  0  0  0  0  0  0  0  0
  148.1310  135.0976  153.2986 H   0  0  0  0  0  0  0  0  0  0  0  0
  147.9740  133.2621  151.7681 H   0  0  0  0  0  0  0  0  0  0  0  0
  147.2825  132.3100  153.0726 H   0  0  0  0  0  0  0  0  0  0  0  0
  145.3101  133.7066  153.1946 H   0  0  0  0  0  0  0  0  0  0  0  0
  146.0192  134.9637  152.2079 H   0  0  0  0  0  0  0  0  0  0  0  0
  147.0073  132.0429  150.4207 H   0  0  0  0  0  0  0  0  0  0  0  0
  145.1725  131.4028  148.5043 H   0  0  0  0  0  0  0  0  0  0  0  0
  142.9456  132.8697  149.2605 H   0  0  0  0  0  0  0  0  0  0  0  0
  150.0201  136.0232  153.6035 H   0  0  0  0  0  0  0  0  0  0  0  0
  150.4561  137.1050  156.1353 H   0  0  0  0  0  0  0  0  0  0  0  0
  151.9693  136.3697  155.6748 H   0  0  0  0  0  0  0  0  0  0  0  0
  150.9018  138.1147  153.5152 H   0  0  0  0  0  0  0  0  0  0  0  0
  153.5172  138.1864  155.2057 H   0  0  0  0  0  0  0  0  0  0  0  0
  153.2005  139.0695  153.6235 H   0  0  0  0  0  0  0  0  0  0  0  0
  151.2578  140.2681  154.6832 H   0  0  0  0  0  0  0  0  0  0  0  0
  151.5768  139.3838  156.2643 H   0  0  0  0  0  0  0  0  0  0  0  0
  1  2  2  0  0  0  0
  2  3  1  0  0  0  0
  2 12  1  0  0  0  0
  3  4  1  0  0  0  0
  3 17  1  0  0  0  0
  3 18  1  0  0  0  0
  4  5  1  0  0  0  0
  4 19  1  0  0  0  0
  5  6  1  0  0  0  0
  5 20  1  0  0  0  0
  5 21  1  0  0  0  0
  6  7  1  0  0  0  0
  6 22  1  0  0  0  0
  6 23  1  0  0  0  0
  7 11  1  0  0  0  0
  7  8  1  0  0  0  0
  8  9  2  0  0  0  0
  8 24  1  0  0  0  0
  9 10  1  0  0  0  0
  9 25  1  0  0  0  0
 10 11  2  0  0  0  0
 10 26  1  0  0  0  0
 12 13  1  0  0  0  0
 12 27  1  0  0  0  0
 13 14  1  0  0  0  0
 13 28  1  0  0  0  0
 13 29  1  0  0  0  0
 14 16  1  0  0  0  0
 14 15  1  0  0  0  0
 14 30  1  0  0  0  0
 15 16  1  0  0  0  0
 15 31  1  0  0  0  0
 15 32  1  0  0  0  0
 16 33  1  0  0  0  0
 16 34  1  0  0  0  0
M  END
> <s_m_source_file>
AV-unprocessed.smi

> <i_m_source_file_index>
3210

> <i_lp_mmshare_version>
43012

> <i_f3d_flags>
0

> <s_epik_input>
W0NIMl0xW0NIMl1bQ0hdMVtDSDJdW05IXUMoPU8pW0NIMl1bTkhdW0NIMl1bQ0gyXW4yW2NIXVtjSF1bY0hdbjI=

> <s_epik_cmdline>
J2VwaWtfcHl0aG9uJywgJy1waCcsICc3LjAnLCAnLXRuJywgJzgnLCAnLW1hJywgJzIwMCcsICctbWV0YWxfYmluZGluZycsICctaW1hZScsICc8aW5maWxlLm1hZT4nLCAnLW9tYWUnLCAnPG91dGZpbGUubWFlPic=

> <r_lp_tautomer_probability>
1

> <r_epik_Ionization_Penalty>
0.724936

> <r_epik_Ionization_Penalty_Charging>
0

> <r_epik_Ionization_Penalty_Neutral>
0.724936

> <r_epik_State_Penalty>
0.747957

> <r_epik_Charging_Adjusted_Penalty>
0.747957

> <i_epik_Tot_Q>
0

> <i_epik_Tot_abs_Q>
0

> <r_epik_Metal_State_Penalty>
0.746186

> <b_epik_Metal_Only>
0

> <s_lp_Force_Field>
OPLS_2005

> <r_lp_Energy>
13.4578

> <b_lp_Chiralities_Consistent>
1

> <s_lp_Variant>
AV-unprocessed.smi:3210-2

> <Gold.Version>
5.8.1

> <Gold.Id.Protein>
6NUR|6NUR_protein|mol2

> <Gold.PLP.Fitness>
44.9364

> <Gold.PLP.PLP>
-34.7502

> <Gold.PLP.part.hbond>
-2.3462

> <Gold.PLP.part.metal>
0.0000

> <Gold.PLP.part.buried>
-5.7079

> <Gold.PLP.part.nonpolar>
-29.4553

> <Gold.PLP.part.repulsive>
0.2376

> <Gold.PLP.ligand.clash>
0.0000

> <Gold.PLP.ligand.torsion>
0.6095

> <Gold.PLP.Chemscore.Hbond>
1.5980

> <Gold.PLP.Chemscore.CHOScore>
1.9757

> <Gold.PLP.Chemscore.Metal>
0.0000

> <Gold.Chemscore.Hbonds>
donor molecule, donor type, donor heavy atom, donor atom, acceptor molecule, acceptor atom, score
      L1  H     4    19       P1  7948  0.88
      L1  H    12    27       P1  7948  0.60
      L1  C     8    24       P1 10747  1.00
      L1  C    10    26       P1 10186  1.00

> <Gold.PLP.Chemscore.Internal.Correction>
0.6841

> <Gold.Rescore>
     Score         DG    S(hbond)    S(metal)    S(lipo)     H(rot)  DE(clash)    DE(int)     intcor
     12.26     -12.86       1.36        0.00      74.08       2.27       0.04       0.56       ----

> <Gold.Chemscore.Fitness>
12.2582

> <Gold.Chemscore.DG>
-12.8593

> <Gold.Chemscore.ZeroCoef>
-5.4800

> <Gold.Chemscore.Hbond>
1.3567

> <Gold.Chemscore.Metal>
0.0000

> <Gold.Chemscore.Lipo>
74.0846

> <Gold.Chemscore.Internal_Hbond>
0.0000

> <Gold.Chemscore.DEClash>
0.0436

> <Gold.Chemscore.DEInternal>
0.5576

> <Gold.Chemscore.Rot>
2.2734

> <Gold.Chemscore.Internal.Correction>
   9.000000E+99

> <Gold.Chemscore.Hbonds>
donor molecule, donor type, donor heavy atom, donor atom, acceptor molecule, acceptor atom, score
      L1  H     4    19       P1  7948  0.82
      L1  H    12    27       P1  7948  0.04

> <Gold.Chemscore.Hbond.Weighted>
-4.5313

> <Gold.Chemscore.Metal.Weighted>
-0.0000

> <Gold.Chemscore.Lipo.Weighted>
-8.6679

> <Gold.Chemscore.Internal_Hbond.Weighted>
0.0000

> <Gold.Chemscore.DEClash.Weighted>
0.0436

> <Gold.Chemscore.DEInternal.Weighted>
0.5576

> <Gold.Chemscore.Rot.Weighted>
5.8199

> <Gold.Chemscore.Internal.Correction.Weighted>
   9.000000E+99

> <Gold.Protein.RotatedTorsions>
[ 6907 6896 6895 6894 ] final   85.13 input  -60.11 | X-H torsion
[ 7974 7965 7964 7962 ] final   56.70 input  175.53 | X-H torsion
[ 8008 7997 7996 7995 ] final   37.12 input   59.86 | X-H torsion
[ 10167 10162 10161 10158 ] final  170.53 input  -65.29 | X-H torsion
[ 10718 10713 10712 10709 ] final   44.88 input   66.30 | X-H torsion
[ 10763 10752 10751 10750 ] final   27.18 input  -60.55 | X-H torsion
[ 11005 11000 10999 10996 ] final -121.41 input  -57.11 | X-H torsion

> <Gold.Protein.ActiveResidues>
 VAL166  LYS551  ARG553  GLY616  TRP617  ASP618  TYR619  PRO620  LYS621  CYS622 
 ASP623  PHE694  ASN695  SER759  ASP760  ASP761  ALA762  ILE779  LEU786  VAL792 
 PHE793  MET794  SER795  GLU796  ALA797  LYS798  CYS799  TRP800  GLU811  SER814 

> <Gold.Protein.RotatedAtoms>
  152.5368  134.2633  159.8943 H   0  0  0  0  0  0  0  0  0  0  0  0  # atno 6907 bound_to 6896
  151.2592  133.4304  159.2623 H   0  0  0  0  0  0  0  0  0  0  0  0  # atno 6908 bound_to 6896
  151.0468  134.9660  159.8247 H   0  0  0  0  0  0  0  0  0  0  0  0  # atno 6909 bound_to 6896
  145.9370  139.3855  143.0387 H   0  0  0  0  0  0  0  0  0  0  0  0  # atno 7974 bound_to 7965
  155.1985  140.3314  155.4347 H   0  0  0  0  0  0  0  0  0  0  0  0  # atno 8008 bound_to 7997
  156.2416  140.1898  156.7023 H   0  0  0  0  0  0  0  0  0  0  0  0  # atno 8009 bound_to 7997
  154.6157  140.0602  156.9537 H   0  0  0  0  0  0  0  0  0  0  0  0  # atno 8010 bound_to 7997
  139.5021  144.3586  151.9848 H   0  0  0  0  0  0  0  0  0  0  0  0  # atno 10167 bound_to 10162
  157.4315  130.8028  149.7608 H   0  0  0  0  0  0  0  0  0  0  0  0  # atno 10718 bound_to 10713
  153.0572  135.6543  154.0548 H   0  0  0  0  0  0  0  0  0  0  0  0  # atno 10763 bound_to 10752
  154.0223  135.2919  155.3381 H   0  0  0  0  0  0  0  0  0  0  0  0  # atno 10764 bound_to 10752
  154.6894  135.5289  153.8438 H   0  0  0  0  0  0  0  0  0  0  0  0  # atno 10765 bound_to 10752
  141.0072  134.0317  157.3461 H   0  0  0  0  0  0  0  0  0  0  0  0  # atno 11005 bound_to 11000
  145.8351  140.9610  143.0828 LP  0  0  0  0  0  0  0  0  0  0  0  0  # atno 17320 bound_to 7965
  144.6773  140.0212  143.7483 LP  0  0  0  0  0  0  0  0  0  0  0  0  # atno 17321 bound_to 7965
  140.3022  144.3633  150.6057 LP  0  0  0  0  0  0  0  0  0  0  0  0  # atno 17342 bound_to 10162
  140.5864  143.2170  151.7334 LP  0  0  0  0  0  0  0  0  0  0  0  0  # atno 17343 bound_to 10162
  155.9915  130.3937  150.2982 LP  0  0  0  0  0  0  0  0  0  0  0  0  # atno 17370 bound_to 10713
  157.1139  131.0228  151.3037 LP  0  0  0  0  0  0  0  0  0  0  0  0  # atno 17371 bound_to 10713
  139.9070  135.0182  156.7529 LP  0  0  0  0  0  0  0  0  0  0  0  0  # atno 17394 bound_to 11000
  140.6792  133.9489  155.7901 LP  0  0  0  0  0  0  0  0  0  0  0  0  # atno 17395 bound_to 11000

$$$$
