AV-unprocessed.smi:3051|AV-procd|sdf|11633|dock3
  -GOLD-   2272017 23D 1   1.00000     0.00000
 Structure written by MMmdl.
 37 37  0  0  0  0  0  0  0  0  1 V2000
  157.7588  140.9598  158.8342 C   0  0  0  0  0  0  0  0  0  0  0  0
  156.7327  140.1646  159.6519 C   0  0  0  0  0  0  0  0  0  0  0  0
  155.6445  141.0156  160.1178 N   0  0  0  0  0  0  0  0  0  0  0  0
  154.3520  140.8683  159.7866 C   0  0  0  0  0  0  0  0  0  0  0  0
  153.9391  139.9803  159.0406 O   0  0  0  0  0  0  0  0  0  0  0  0
  153.3708  141.8709  160.3968 C   0  0  0  0  0  0  0  0  0  0  0  0
  152.6931  142.6415  159.3692 N   0  0  0  0  0  0  0  0  0  0  0  0
  152.8157  143.9880  159.0857 C   0  0  0  0  0  0  0  0  0  0  0  0
  151.9838  144.2647  158.0380 C   0  0  0  0  0  0  0  0  0  0  0  0
  151.3931  143.0043  157.7499 C   0  0  0  0  0  0  0  0  0  0  0  0
  150.4602  142.8418  156.7187 N   0  0  0  0  0  0  0  0  0  0  0  0
  149.8688  141.5374  156.4437 C   0  0  2  0  0  0  0  0  0  0  0  0
  149.0400  141.0487  157.6438 C   0  0  0  0  0  0  0  0  0  0  0  0
  150.9663  140.5233  156.0866 C   0  0  0  0  0  0  0  0  0  0  0  0
  150.8548  140.1758  154.7159 O   0  0  0  0  0  0  0  0  0  0  0  0
  149.5759  139.6619  154.3879 C   0  0  0  0  0  0  0  0  0  0  0  0
  151.8129  142.0318  158.5448 N   0  0  0  0  0  0  0  0  0  0  0  0
  158.5479  140.3058  158.4632 H   0  0  0  0  0  0  0  0  0  0  0  0
  158.2299  141.7378  159.4358 H   0  0  0  0  0  0  0  0  0  0  0  0
  157.2908  141.4379  157.9729 H   0  0  0  0  0  0  0  0  0  0  0  0
  156.3056  139.3735  159.0352 H   0  0  0  0  0  0  0  0  0  0  0  0
  157.2181  139.6722  160.4961 H   0  0  0  0  0  0  0  0  0  0  0  0
  155.8912  141.7772  160.7337 H   0  0  0  0  0  0  0  0  0  0  0  0
  152.6206  141.3468  160.9902 H   0  0  0  0  0  0  0  0  0  0  0  0
  153.9013  142.5442  161.0724 H   0  0  0  0  0  0  0  0  0  0  0  0
  153.4769  144.6295  159.6493 H   0  0  0  0  0  0  0  0  0  0  0  0
  151.8253  145.2177  157.5554 H   0  0  0  0  0  0  0  0  0  0  0  0
  150.1603  143.6397  156.1773 H   0  0  0  0  0  0  0  0  0  0  0  0
  149.2046  141.6272  155.5830 H   0  0  0  0  0  0  0  0  0  0  0  0
  148.5854  140.0796  157.4370 H   0  0  0  0  0  0  0  0  0  0  0  0
  148.2316  141.7403  157.8818 H   0  0  0  0  0  0  0  0  0  0  0  0
  149.6585  140.9415  158.5356 H   0  0  0  0  0  0  0  0  0  0  0  0
  151.9549  140.9325  156.3037 H   0  0  0  0  0  0  0  0  0  0  0  0
  150.8482  139.6215  156.6898 H   0  0  0  0  0  0  0  0  0  0  0  0
  149.5420  139.4135  153.3273 H   0  0  0  0  0  0  0  0  0  0  0  0
  148.7929  140.3946  154.5868 H   0  0  0  0  0  0  0  0  0  0  0  0
  149.3593  138.7546  154.9532 H   0  0  0  0  0  0  0  0  0  0  0  0
  1  2  1  0  0  0  0
  1 18  1  0  0  0  0
  1 19  1  0  0  0  0
  1 20  1  0  0  0  0
  2  3  1  0  0  0  0
  2 21  1  0  0  0  0
  2 22  1  0  0  0  0
  3  4  1  0  0  0  0
  3 23  1  0  0  0  0
  4  5  2  0  0  0  0
  4  6  1  0  0  0  0
  6  7  1  0  0  0  0
  6 24  1  0  0  0  0
  6 25  1  0  0  0  0
  7 17  1  0  0  0  0
  7  8  1  0  0  0  0
  8  9  2  0  0  0  0
  8 26  1  0  0  0  0
  9 10  1  0  0  0  0
  9 27  1  0  0  0  0
 10 11  1  0  0  0  0
 10 17  2  0  0  0  0
 11 12  1  0  0  0  0
 11 28  1  0  0  0  0
 12 13  1  0  0  0  0
 12 14  1  0  0  0  0
 12 29  1  0  0  0  0
 13 30  1  0  0  0  0
 13 31  1  0  0  0  0
 13 32  1  0  0  0  0
 14 15  1  0  0  0  0
 14 33  1  0  0  0  0
 14 34  1  0  0  0  0
 15 16  1  0  0  0  0
 16 35  1  0  0  0  0
 16 36  1  0  0  0  0
 16 37  1  0  0  0  0
M  END
> <s_m_source_file>
AV-unprocessed.smi

> <i_m_source_file_index>
3051

> <i_lp_mmshare_version>
43012

> <i_f3d_flags>
0

> <s_epik_input>
W0NIM11bQ0gyXVtOSF1DKD1PKVtDSDJdbjFbY0hdW2NIXWMobjEpW05IXVtDQEhdKFtDSDNdKVtDSDJdT1tDSDNd

> <s_epik_cmdline>
J2VwaWtfcHl0aG9uJywgJy1waCcsICc3LjAnLCAnLXRuJywgJzgnLCAnLW1hJywgJzIwMCcsICctbWV0YWxfYmluZGluZycsICctaW1hZScsICc8aW5maWxlLm1hZT4nLCAnLW9tYWUnLCAnPG91dGZpbGUubWFlPic=

> <r_lp_tautomer_probability>
1

> <r_epik_Ionization_Penalty>
0.00023157

> <r_epik_Ionization_Penalty_Charging>
0

> <r_epik_Ionization_Penalty_Neutral>
0.00023157

> <r_epik_State_Penalty>
-0

> <r_epik_Charging_Adjusted_Penalty>
0

> <i_epik_Tot_Q>
0

> <i_epik_Tot_abs_Q>
0

> <r_epik_Metal_State_Penalty>
-0

> <b_epik_Metal_Only>
0

> <s_lp_Force_Field>
OPLS_2005

> <r_lp_Energy>
4.00538

> <b_lp_Chiralities_Consistent>
1

> <s_lp_Variant>
AV-unprocessed.smi:3051-1

> <Gold.Version>
5.8.1

> <Gold.Id.Protein>
6NUR|6NUR_protein|mol2

> <Gold.PLP.Fitness>
47.3110

> <Gold.PLP.PLP>
-39.8783

> <Gold.PLP.part.hbond>
-4.0000

> <Gold.PLP.part.metal>
0.0000

> <Gold.PLP.part.buried>
-3.9851

> <Gold.PLP.part.nonpolar>
-31.9423

> <Gold.PLP.part.repulsive>
0.1888

> <Gold.PLP.ligand.clash>
0.0000

> <Gold.PLP.ligand.torsion>
0.7962

> <Gold.PLP.Chemscore.Hbond>
3.0000

> <Gold.PLP.Chemscore.CHOScore>
0.0000

> <Gold.PLP.Chemscore.Metal>
0.0000

> <Gold.Chemscore.Hbonds>
donor molecule, donor type, donor heavy atom, donor atom, acceptor molecule, acceptor atom, score
      L1  H    11    28       P1  8028  1.00
      P1  H  7989  7998       L1    15  1.00
      P1  H  7997  8010       L1     5  1.00

> <Gold.PLP.Chemscore.Internal.Correction>
0.0250

> <Gold.Rescore>
     Score         DG    S(hbond)    S(metal)    S(lipo)     H(rot)  DE(clash)    DE(int)     intcor
     14.86     -18.22       2.92        0.00      73.34       2.19       0.02       3.33       ----

> <Gold.Chemscore.Fitness>
14.8649

> <Gold.Chemscore.DG>
-18.2164

> <Gold.Chemscore.ZeroCoef>
-5.4800

> <Gold.Chemscore.Hbond>
2.9220

> <Gold.Chemscore.Metal>
0.0000

> <Gold.Chemscore.Lipo>
73.3398

> <Gold.Chemscore.Internal_Hbond>
0.0000

> <Gold.Chemscore.DEClash>
0.0202

> <Gold.Chemscore.DEInternal>
3.3313

> <Gold.Chemscore.Rot>
2.1890

> <Gold.Chemscore.Internal.Correction>
   9.000000E+99

> <Gold.Chemscore.Hbonds>
donor molecule, donor type, donor heavy atom, donor atom, acceptor molecule, acceptor atom, score
      L1  H    11    28       P1  8028  0.95
      P1  H  7989  7998       L1    15  0.89
      P1  H  7997  8010       L1     5  0.75

> <Gold.Chemscore.Hbond.Weighted>
-9.7596

> <Gold.Chemscore.Metal.Weighted>
-0.0000

> <Gold.Chemscore.Lipo.Weighted>
-8.5808

> <Gold.Chemscore.Internal_Hbond.Weighted>
0.0000

> <Gold.Chemscore.DEClash.Weighted>
0.0202

> <Gold.Chemscore.DEInternal.Weighted>
3.3313

> <Gold.Chemscore.Rot.Weighted>
5.6039

> <Gold.Chemscore.Internal.Correction.Weighted>
   9.000000E+99

> <Gold.Protein.RotatedTorsions>
[ 6907 6896 6895 6894 ] final  -86.74 input  -60.11 | X-H torsion
[ 7974 7965 7964 7962 ] final   57.98 input  175.53 | X-H torsion
[ 8008 7997 7996 7995 ] final   18.28 input   59.86 | X-H torsion
[ 10167 10162 10161 10158 ] final  -88.91 input  -65.29 | X-H torsion
[ 10718 10713 10712 10709 ] final  -21.37 input   66.30 | X-H torsion
[ 10763 10752 10751 10750 ] final -124.36 input  -60.55 | X-H torsion
[ 11005 11000 10999 10996 ] final -173.94 input  -57.11 | X-H torsion

> <Gold.Protein.ActiveResidues>
 VAL166  LYS551  ARG553  GLY616  TRP617  ASP618  TYR619  PRO620  LYS621  CYS622 
 ASP623  PHE694  ASN695  SER759  ASP760  ASP761  ALA762  ILE779  LEU786  VAL792 
 PHE793  MET794  SER795  GLU796  ALA797  LYS798  CYS799  TRP800  GLU811  SER814 

> <Gold.Protein.RotatedAtoms>
  150.6866  134.3004  159.4703 H   0  0  0  0  0  0  0  0  0  0  0  0  # atno 6907 bound_to 6896
  152.0901  134.9410  160.0581 H   0  0  0  0  0  0  0  0  0  0  0  0  # atno 6908 bound_to 6896
  152.0730  133.4081  159.4504 H   0  0  0  0  0  0  0  0  0  0  0  0  # atno 6909 bound_to 6896
  145.9232  139.3746  143.0466 H   0  0  0  0  0  0  0  0  0  0  0  0  # atno 7974 bound_to 7965
  154.9037  140.3004  155.5303 H   0  0  0  0  0  0  0  0  0  0  0  0  # atno 8008 bound_to 7997
  156.3017  140.2402  156.4003 H   0  0  0  0  0  0  0  0  0  0  0  0  # atno 8009 bound_to 7997
  154.8495  140.0410  157.1583 H   0  0  0  0  0  0  0  0  0  0  0  0  # atno 8010 bound_to 7997
  140.3700  143.2799  151.9512 H   0  0  0  0  0  0  0  0  0  0  0  0  # atno 10167 bound_to 10162
  156.5190  130.4628  149.6607 H   0  0  0  0  0  0  0  0  0  0  0  0  # atno 10718 bound_to 10713
  154.8722  135.4066  154.3093 H   0  0  0  0  0  0  0  0  0  0  0  0  # atno 10763 bound_to 10752
  153.3939  135.7016  153.6480 H   0  0  0  0  0  0  0  0  0  0  0  0  # atno 10764 bound_to 10752
  153.5251  135.3679  155.2621 H   0  0  0  0  0  0  0  0  0  0  0  0  # atno 10765 bound_to 10752
  140.4801  134.6083  157.4916 H   0  0  0  0  0  0  0  0  0  0  0  0  # atno 11005 bound_to 11000
  145.8523  140.9522  143.0743 LP  0  0  0  0  0  0  0  0  0  0  0  0  # atno 17320 bound_to 7965
  144.6755  140.0423  143.7480 LP  0  0  0  0  0  0  0  0  0  0  0  0  # atno 17321 bound_to 7965
  139.4805  144.5915  151.7763 LP  0  0  0  0  0  0  0  0  0  0  0  0  # atno 17342 bound_to 10162
  140.5042  144.1122  150.5978 LP  0  0  0  0  0  0  0  0  0  0  0  0  # atno 17343 bound_to 10162
  156.3167  130.7258  151.2162 LP  0  0  0  0  0  0  0  0  0  0  0  0  # atno 17370 bound_to 10713
  157.7439  131.0466  150.4904 LP  0  0  0  0  0  0  0  0  0  0  0  0  # atno 17371 bound_to 10713
  139.9832  134.7104  155.9822 LP  0  0  0  0  0  0  0  0  0  0  0  0  # atno 17394 bound_to 11000
  141.1535  133.6545  156.4088 LP  0  0  0  0  0  0  0  0  0  0  0  0  # atno 17395 bound_to 11000

$$$$
