AV-unprocessed.smi:910|AV-procd|sdf|4127|dock2
  -GOLD-   22720 2 33D 1   1.00000     0.00000
 Structure written by MMmdl.
 46 47  0  0  0  0  0  0  0  0  1 V2000
  148.0252  133.7291  152.0239 C   0  0  0  0  0  0  0  0  0  0  0  0
  148.9326  133.7118  153.2342 C   0  0  0  0  0  0  0  0  0  0  0  0
  149.5346  134.8450  153.7066 N   0  0  0  0  0  0  0  0  0  0  0  0
  150.2969  134.5024  154.8210 C   0  0  0  0  0  0  0  0  0  0  0  0
  151.0499  135.1913  155.6229 N   0  0  0  0  0  0  0  0  0  0  0  0
  151.1865  136.5600  155.4401 C   0  0  0  0  0  0  0  0  0  0  0  0
  150.5603  137.2981  154.6728 O   0  0  0  0  0  0  0  0  0  0  0  0
  152.1594  137.0344  156.2318 N   0  0  0  0  0  0  0  0  0  0  0  0
  152.6087  138.4217  156.2892 C   0  0  0  0  0  0  0  0  0  0  0  0
  151.9628  139.1802  157.4576 C   0  0  0  0  0  0  0  0  0  0  0  0
  152.8083  140.2599  157.8253 O   0  0  0  0  0  0  0  0  0  0  0  0
  152.1831  141.2517  158.6297 C   0  0  1  0  0  0  0  0  0  0  0  0
  153.1851  141.7637  159.6855 C   0  0  0  0  0  0  0  0  0  0  0  0
  152.6058  142.9363  160.4903 C   0  0  0  0  0  0  0  0  0  0  0  0
  152.1613  144.0744  159.5610 C   0  0  0  0  0  0  0  0  0  0  0  0
  151.1558  143.5714  158.5139 C   0  0  0  0  0  0  0  0  0  0  0  0
  151.7218  142.3931  157.6956 C   0  0  2  0  0  0  0  0  0  0  0  0
  150.6905  141.9014  156.6658 C   0  0  0  0  0  0  0  0  0  0  0  0
  150.1360  133.1505  154.9927 O   0  0  0  0  0  0  0  0  0  0  0  0
  149.3008  132.6997  154.0154 C   0  0  0  0  0  0  0  0  0  0  0  0
  148.9534  131.2287  153.9763 C   0  0  0  0  0  0  0  0  0  0  0  0
  148.4160  133.0678  151.2503 H   0  0  0  0  0  0  0  0  0  0  0  0
  147.9454  134.7344  151.6092 H   0  0  0  0  0  0  0  0  0  0  0  0
  147.0260  133.3889  152.2966 H   0  0  0  0  0  0  0  0  0  0  0  0
  149.4161  135.7564  153.2881 H   0  0  0  0  0  0  0  0  0  0  0  0
  152.6400  136.3779  156.8300 H   0  0  0  0  0  0  0  0  0  0  0  0
  153.6962  138.4575  156.3700 H   0  0  0  0  0  0  0  0  0  0  0  0
  152.3521  138.9056  155.3465 H   0  0  0  0  0  0  0  0  0  0  0  0
  150.9765  139.5478  157.1704 H   0  0  0  0  0  0  0  0  0  0  0  0
  151.8238  138.5036  158.3009 H   0  0  0  0  0  0  0  0  0  0  0  0
  151.3033  140.8399  159.1284 H   0  0  0  0  0  0  0  0  0  0  0  0
  153.4645  140.9621  160.3688 H   0  0  0  0  0  0  0  0  0  0  0  0
  154.1044  142.0821  159.1917 H   0  0  0  0  0  0  0  0  0  0  0  0
  151.7559  142.5913  161.0807 H   0  0  0  0  0  0  0  0  0  0  0  0
  153.3479  143.3033  161.1996 H   0  0  0  0  0  0  0  0  0  0  0  0
  151.7168  144.8800  160.1460 H   0  0  0  0  0  0  0  0  0  0  0  0
  153.0318  144.4994  159.0594 H   0  0  0  0  0  0  0  0  0  0  0  0
  150.2363  143.2644  159.0142 H   0  0  0  0  0  0  0  0  0  0  0  0
  150.8845  144.3913  157.8480 H   0  0  0  0  0  0  0  0  0  0  0  0
  152.5922  142.7552  157.1462 H   0  0  0  0  0  0  0  0  0  0  0  0
  149.7992  141.5064  157.1547 H   0  0  0  0  0  0  0  0  0  0  0  0
  151.1011  141.1105  156.0373 H   0  0  0  0  0  0  0  0  0  0  0  0
  150.3771  142.7115  156.0069 H   0  0  0  0  0  0  0  0  0  0  0  0
  147.9058  131.0910  153.7075 H   0  0  0  0  0  0  0  0  0  0  0  0
  149.1223  130.7709  154.9510 H   0  0  0  0  0  0  0  0  0  0  0  0
  149.5714  130.7153  153.2398 H   0  0  0  0  0  0  0  0  0  0  0  0
  1 22  1  0  0  0  0
  1 23  1  0  0  0  0
  1 24  1  0  0  0  0
  1  2  1  0  0  0  0
  2  3  1  0  0  0  0
  2 20  2  0  0  0  0
  3 25  1  0  0  0  0
  3  4  1  0  0  0  0
  4 19  1  0  0  0  0
  4  5  2  0  0  0  0
  5  6  1  0  0  0  0
  6  8  1  0  0  0  0
  6  7  2  0  0  0  0
  8  9  1  0  0  0  0
  8 26  1  0  0  0  0
  9 10  1  0  0  0  0
  9 27  1  0  0  0  0
  9 28  1  0  0  0  0
 10 11  1  0  0  0  0
 10 29  1  0  0  0  0
 10 30  1  0  0  0  0
 11 12  1  0  0  0  0
 12 17  1  0  0  0  0
 12 13  1  0  0  0  0
 12 31  1  0  0  0  0
 13 14  1  0  0  0  0
 13 32  1  0  0  0  0
 13 33  1  0  0  0  0
 14 15  1  0  0  0  0
 14 34  1  0  0  0  0
 14 35  1  0  0  0  0
 15 16  1  0  0  0  0
 15 36  1  0  0  0  0
 15 37  1  0  0  0  0
 16 17  1  0  0  0  0
 16 38  1  0  0  0  0
 16 39  1  0  0  0  0
 17 18  1  0  0  0  0
 17 40  1  0  0  0  0
 18 41  1  0  0  0  0
 18 42  1  0  0  0  0
 18 43  1  0  0  0  0
 19 20  1  0  0  0  0
 20 21  1  0  0  0  0
 21 44  1  0  0  0  0
 21 45  1  0  0  0  0
 21 46  1  0  0  0  0
M  END
> <s_m_source_file>
AV-unprocessed.smi

> <i_m_source_file_index>
910

> <i_lp_mmshare_version>
43012

> <i_f3d_flags>
0

> <s_epik_input>
W0NIM11jMW5jKG9jMVtDSDNdKVtOSF1DKD1PKVtOSF1bQ0gyXVtDSDJdT1tDQEBIXTJbQ0gyXVtDSDJdW0NIMl1bQ0gyXVtDQEhdMltDSDNd

> <s_epik_cmdline>
J2VwaWtfcHl0aG9uJywgJy1waCcsICc3LjAnLCAnLXRuJywgJzgnLCAnLW1hJywgJzIwMCcsICctbWV0YWxfYmluZGluZycsICctaW1hZScsICc8aW5maWxlLm1hZT4nLCAnLW9tYWUnLCAnPG91dGZpbGUubWFlPic=

> <r_lp_tautomer_probability>
0.107061

> <r_epik_Ionization_Penalty>
0.727192

> <r_epik_Ionization_Penalty_Charging>
0.726719

> <r_epik_Ionization_Penalty_Neutral>
0.000473387

> <r_epik_State_Penalty>
2.53712

> <r_epik_Charging_Adjusted_Penalty>
3.26383

> <i_epik_Tot_Q>
0

> <i_epik_Tot_abs_Q>
0

> <r_epik_Metal_State_Penalty>
3.71015

> <b_epik_Metal_Only>
0

> <s_lp_Force_Field>
OPLS_2005

> <r_lp_Energy>
31.2477

> <b_lp_Chiralities_Consistent>
1

> <s_lp_Variant>
AV-unprocessed.smi:910-12

> <Gold.Version>
5.8.1

> <Gold.Id.Protein>
6NUR|6NUR_protein|mol2

> <Gold.PLP.Fitness>
42.0405

> <Gold.PLP.PLP>
-38.5417

> <Gold.PLP.part.hbond>
-2.7527

> <Gold.PLP.part.metal>
0.0000

> <Gold.PLP.part.buried>
-2.2835

> <Gold.PLP.part.nonpolar>
-32.3798

> <Gold.PLP.part.repulsive>
0.3514

> <Gold.PLP.ligand.clash>
0.0000

> <Gold.PLP.ligand.torsion>
0.8955

> <Gold.PLP.Chemscore.Hbond>
1.7600

> <Gold.PLP.Chemscore.CHOScore>
0.0000

> <Gold.PLP.Chemscore.Metal>
0.0000

> <Gold.Chemscore.Hbonds>
donor molecule, donor type, donor heavy atom, donor atom, acceptor molecule, acceptor atom, score
      L1  H     3    25       P1  7948  0.64
      P1  H  7997  8010       L1    11  0.93

> <Gold.PLP.Chemscore.Internal.Correction>
0.0098

> <Gold.Rescore>
     Score         DG    S(hbond)    S(metal)    S(lipo)     H(rot)  DE(clash)    DE(int)     intcor
     15.69     -17.98       1.59        0.00      97.82       1.66       0.05       2.25       ----

> <Gold.Chemscore.Fitness>
15.6896

> <Gold.Chemscore.DG>
-17.9838

> <Gold.Chemscore.ZeroCoef>
-5.4800

> <Gold.Chemscore.Hbond>
1.5875

> <Gold.Chemscore.Metal>
0.0000

> <Gold.Chemscore.Lipo>
97.8223

> <Gold.Chemscore.Internal_Hbond>
0.0000

> <Gold.Chemscore.DEClash>
0.0456

> <Gold.Chemscore.DEInternal>
2.2485

> <Gold.Chemscore.Rot>
1.6576

> <Gold.Chemscore.Internal.Correction>
   9.000000E+99

> <Gold.Chemscore.Hbonds>
donor molecule, donor type, donor heavy atom, donor atom, acceptor molecule, acceptor atom, score
      L1  H     3    25       P1  7948  0.15
      P1  H  7997  8010       L1    11  0.67

> <Gold.Chemscore.Hbond.Weighted>
-5.3021

> <Gold.Chemscore.Metal.Weighted>
-0.0000

> <Gold.Chemscore.Lipo.Weighted>
-11.4452

> <Gold.Chemscore.Internal_Hbond.Weighted>
0.0000

> <Gold.Chemscore.DEClash.Weighted>
0.0456

> <Gold.Chemscore.DEInternal.Weighted>
2.2485

> <Gold.Chemscore.Rot.Weighted>
4.2436

> <Gold.Chemscore.Internal.Correction.Weighted>
   9.000000E+99

> <Gold.Protein.RotatedTorsions>
[ 6907 6896 6895 6894 ] final  -91.66 input  -60.11 | X-H torsion
[ 7974 7965 7964 7962 ] final  -65.18 input  175.53 | X-H torsion
[ 8008 7997 7996 7995 ] final   40.25 input   59.86 | X-H torsion
[ 10167 10162 10161 10158 ] final -118.62 input  -65.29 | X-H torsion
[ 10718 10713 10712 10709 ] final  163.31 input   66.30 | X-H torsion
[ 10763 10752 10751 10750 ] final   97.46 input  -60.55 | X-H torsion
[ 11005 11000 10999 10996 ] final  174.87 input  -57.11 | X-H torsion

> <Gold.Protein.ActiveResidues>
 VAL166  LYS551  ARG553  GLY616  TRP617  ASP618  TYR619  PRO620  LYS621  CYS622 
 ASP623  PHE694  ASN695  SER759  ASP760  ASP761  ALA762  ILE779  LEU786  VAL792 
 PHE793  MET794  SER795  GLU796  ALA797  LYS798  CYS799  TRP800  GLU811  SER814 

> <Gold.Protein.RotatedAtoms>
  150.6895  134.2243  159.4408 H   0  0  0  0  0  0  0  0  0  0  0  0  # atno 6907 bound_to 6896
  152.0198  134.9827  160.0579 H   0  0  0  0  0  0  0  0  0  0  0  0  # atno 6908 bound_to 6896
  152.1408  133.4428  159.4803 H   0  0  0  0  0  0  0  0  0  0  0  0  # atno 6909 bound_to 6896
  145.7575  140.8878  143.0447 H   0  0  0  0  0  0  0  0  0  0  0  0  # atno 7974 bound_to 7965
  155.2501  140.3352  155.4283 H   0  0  0  0  0  0  0  0  0  0  0  0  # atno 8008 bound_to 7997
  156.2219  140.1813  156.7499 H   0  0  0  0  0  0  0  0  0  0  0  0  # atno 8009 bound_to 7997
  154.5839  140.0649  156.9128 H   0  0  0  0  0  0  0  0  0  0  0  0  # atno 8010 bound_to 7997
  140.0555  143.5019  152.2059 H   0  0  0  0  0  0  0  0  0  0  0  0  # atno 10167 bound_to 10162
  157.1102  131.0466  151.2460 H   0  0  0  0  0  0  0  0  0  0  0  0  # atno 10718 bound_to 10713
  153.2772  135.4182  155.1044 H   0  0  0  0  0  0  0  0  0  0  0  0  # atno 10763 bound_to 10752
  154.8477  135.3486  154.6163 H   0  0  0  0  0  0  0  0  0  0  0  0  # atno 10764 bound_to 10752
  153.6583  135.7049  153.5243 H   0  0  0  0  0  0  0  0  0  0  0  0  # atno 10765 bound_to 10752
  140.3560  134.7154  157.4299 H   0  0  0  0  0  0  0  0  0  0  0  0  # atno 11005 bound_to 11000
  144.6837  139.9677  143.7481 LP  0  0  0  0  0  0  0  0  0  0  0  0  # atno 17320 bound_to 7965
  146.0297  139.3323  143.0763 LP  0  0  0  0  0  0  0  0  0  0  0  0  # atno 17321 bound_to 7965
  139.5926  144.7556  151.3363 LP  0  0  0  0  0  0  0  0  0  0  0  0  # atno 17342 bound_to 10162
  140.7197  143.7170  150.7725 LP  0  0  0  0  0  0  0  0  0  0  0  0  # atno 17343 bound_to 10162
  157.4565  130.7628  149.7198 LP  0  0  0  0  0  0  0  0  0  0  0  0  # atno 17370 bound_to 10713
  155.9852  130.3985  150.3273 LP  0  0  0  0  0  0  0  0  0  0  0  0  # atno 17371 bound_to 10713
  140.0665  134.5923  155.8690 LP  0  0  0  0  0  0  0  0  0  0  0  0  # atno 17394 bound_to 11000
  141.1998  133.6609  156.5864 LP  0  0  0  0  0  0  0  0  0  0  0  0  # atno 17395 bound_to 11000

$$$$
