AV-unprocessed.smi:1867|AV-procd|sdf|7575|dock4
  -GOLD-   22720 9283D 1   1.00000     0.00000
 Structure written by MMmdl.
 53 56  0  0  0  0  0  0  0  0  3 V2000
  146.8529  140.1464  153.6357 O   0  0  0  0  0  0  0  0  0  0  0  0
  147.7000  139.2769  153.4504 C   0  0  0  0  0  0  0  0  0  0  0  0
  148.9056  139.2304  154.0527 N   0  0  0  0  0  0  0  0  0  0  0  0
  149.4910  140.1433  154.9735 C   0  0  0  0  0  0  0  0  0  0  0  0
  150.5208  139.6536  155.8063 C   0  0  0  0  0  0  0  0  0  0  0  0
  151.1401  140.5116  156.7379 C   0  0  0  0  0  0  0  0  0  0  0  0
  150.7174  141.8579  156.8276 C   0  0  0  0  0  0  0  0  0  0  0  0
  151.2686  142.7933  157.7146 N   0  0  0  0  0  0  0  0  0  0  0  0
  151.7893  143.9994  157.0926 C   0  0  0  0  0  0  0  0  0  0  0  0
  152.6865  144.6507  158.1480 C   0  0  0  0  0  0  0  0  0  0  0  0
  153.0538  143.5136  159.1090 C   0  0  0  0  0  0  0  0  0  0  0  0
  152.3405  142.2793  158.5505 C   0  0  0  0  0  0  0  0  0  0  0  0
  149.7228  142.2874  156.0217 N   0  3  0  0  0  0  0  0  0  0  0  0
  149.1032  141.4990  155.1166 C   0  0  0  0  0  0  0  0  0  0  0  0
  147.4708  138.2626  152.5978 N   0  0  0  0  0  0  0  0  0  0  0  0
  146.2780  138.0123  151.7882 C   0  0  1  0  0  0  0  0  0  0  0  0
  146.4623  136.9150  150.7216 C   0  0  0  0  0  0  0  0  0  0  0  0
  145.1347  136.1299  150.7085 C   0  0  0  0  0  0  0  0  0  0  0  0
  144.2481  136.8466  151.6449 N   0  3  1  0  0  0  0  0  0  0  0  0
  143.1458  136.0745  152.2591 C   0  0  0  0  0  0  0  0  0  0  0  0
  142.2948  137.0148  153.1370 C   0  0  0  0  0  0  0  0  0  0  0  0
  143.1573  137.7813  154.1613 C   0  0  0  0  0  0  0  0  0  0  0  0
  144.3429  138.4865  153.4745 C   0  0  0  0  0  0  0  0  0  0  0  0
  145.1346  137.4653  152.6416 C   0  0  2  0  0  0  0  0  0  0  0  0
  149.4953  138.4563  153.7852 H   0  0  0  0  0  0  0  0  0  0  0  0
  150.8410  138.6244  155.7324 H   0  0  0  0  0  0  0  0  0  0  0  0
  151.9290  140.1356  157.3732 H   0  0  0  0  0  0  0  0  0  0  0  0
  152.3736  143.7556  156.2045 H   0  0  0  0  0  0  0  0  0  0  0  0
  150.9802  144.6647  156.7896 H   0  0  0  0  0  0  0  0  0  0  0  0
  153.5648  145.1141  157.6974 H   0  0  0  0  0  0  0  0  0  0  0  0
  152.1396  145.4271  158.6841 H   0  0  0  0  0  0  0  0  0  0  0  0
  154.1310  143.3579  159.1760 H   0  0  0  0  0  0  0  0  0  0  0  0
  152.6885  143.7427  160.1109 H   0  0  0  0  0  0  0  0  0  0  0  0
  151.9475  141.6489  159.3487 H   0  0  0  0  0  0  0  0  0  0  0  0
  153.0339  141.6801  157.9589 H   0  0  0  0  0  0  0  0  0  0  0  0
  148.3261  141.9940  154.5556 H   0  0  0  0  0  0  0  0  0  0  0  0
  148.2045  137.5722  152.5216 H   0  0  0  0  0  0  0  0  0  0  0  0
  145.9405  138.9332  151.3080 H   0  0  0  0  0  0  0  0  0  0  0  0
  146.6866  137.3487  149.7464 H   0  0  0  0  0  0  0  0  0  0  0  0
  147.2841  136.2443  150.9779 H   0  0  0  0  0  0  0  0  0  0  0  0
  144.6887  136.0808  149.7147 H   0  0  0  0  0  0  0  0  0  0  0  0
  145.3007  135.1092  151.0567 H   0  0  0  0  0  0  0  0  0  0  0  0
  142.5299  135.6293  151.4770 H   0  0  0  0  0  0  0  0  0  0  0  0
  143.5515  135.2566  152.8566 H   0  0  0  0  0  0  0  0  0  0  0  0
  141.7759  137.7312  152.4986 H   0  0  0  0  0  0  0  0  0  0  0  0
  141.5205  136.4457  153.6524 H   0  0  0  0  0  0  0  0  0  0  0  0
  142.5468  138.5088  154.6969 H   0  0  0  0  0  0  0  0  0  0  0  0
  143.5347  137.0839  154.9103 H   0  0  0  0  0  0  0  0  0  0  0  0
  143.9761  139.2911  152.8356 H   0  0  0  0  0  0  0  0  0  0  0  0
  144.9891  138.9485  154.2217 H   0  0  0  0  0  0  0  0  0  0  0  0
  145.5190  136.6804  153.2975 H   0  0  0  0  0  0  0  0  0  0  0  0
  143.8308  137.6040  151.1233 H   0  0  0  0  0  0  0  0  0  0  0  0
  149.4232  143.2595  156.0995 H   0  0  0  0  0  0  0  0  0  0  0  0
  1  2  2  0  0  0  0
  2  3  1  0  0  0  0
  2 15  1  0  0  0  0
  3  4  1  0  0  0  0
  3 25  1  0  0  0  0
  4 14  1  0  0  0  0
  4  5  2  0  0  0  0
  5  6  1  0  0  0  0
  5 26  1  0  0  0  0
  6  7  2  0  0  0  0
  6 27  1  0  0  0  0
  7  8  1  0  0  0  0
  7 13  1  0  0  0  0
  8 12  1  0  0  0  0
  8  9  1  0  0  0  0
  9 10  1  0  0  0  0
  9 28  1  0  0  0  0
  9 29  1  0  0  0  0
 10 11  1  0  0  0  0
 10 30  1  0  0  0  0
 10 31  1  0  0  0  0
 11 12  1  0  0  0  0
 11 32  1  0  0  0  0
 11 33  1  0  0  0  0
 12 34  1  0  0  0  0
 12 35  1  0  0  0  0
 13 14  2  0  0  0  0
 13 53  1  0  0  0  0
 14 36  1  0  0  0  0
 15 16  1  0  0  0  0
 15 37  1  0  0  0  0
 16 24  1  0  0  0  0
 16 17  1  0  0  0  0
 16 38  1  0  0  0  0
 17 18  1  0  0  0  0
 17 39  1  0  0  0  0
 17 40  1  0  0  0  0
 18 19  1  0  0  0  0
 18 41  1  0  0  0  0
 18 42  1  0  0  0  0
 19 24  1  0  0  0  0
 19 20  1  0  0  0  0
 19 52  1  0  0  0  0
 20 21  1  0  0  0  0
 20 43  1  0  0  0  0
 20 44  1  0  0  0  0
 21 22  1  0  0  0  0
 21 45  1  0  0  0  0
 21 46  1  0  0  0  0
 22 23  1  0  0  0  0
 22 47  1  0  0  0  0
 22 48  1  0  0  0  0
 23 24  1  0  0  0  0
 23 49  1  0  0  0  0
 23 50  1  0  0  0  0
 24 51  1  0  0  0  0
M  CHG  1  13   1
M  CHG  1  19   1
M  END
> <s_m_source_file>
AV-unprocessed.smi

> <i_m_source_file_index>
1867

> <i_lp_mmshare_version>
43012

> <i_f3d_flags>
0

> <s_epik_input>
W0NIMl0xW0NIMl1bQ0gyXVtDSDJdW0NASF0oTjEyKVtDQEBIXShbQ0gyXVtDSDJdMilbTkhdQyg9TylbTkhdYzNbY0hdW2NIXWMobltjSF0zKU40W0NIMl1bQ0gyXVtDSDJdW0NIMl00

> <s_epik_cmdline>
J2VwaWtfcHl0aG9uJywgJy1waCcsICc3LjAnLCAnLXRuJywgJzgnLCAnLW1hJywgJzIwMCcsICctbWV0YWxfYmluZGluZycsICctaW1hZScsICc8aW5maWxlLm1hZT4nLCAnLW9tYWUnLCAnPG91dGZpbGUubWFlPic=

> <r_lp_tautomer_probability>
0.999994

> <r_epik_Ionization_Penalty>
1.27347

> <r_epik_Ionization_Penalty_Charging>
1.27345

> <r_epik_Ionization_Penalty_Neutral>
1.96458e-05

> <r_epik_State_Penalty>
1.34393

> <r_epik_Charging_Adjusted_Penalty>
2.61738

> <i_epik_Tot_Q>
2

> <i_epik_Tot_abs_Q>
2

> <r_epik_Metal_State_Penalty>
1.41094

> <b_epik_Metal_Only>
0

> <s_lp_Force_Field>
OPLS_2005

> <r_lp_Energy>
83.8069

> <b_lp_Chiralities_Consistent>
1

> <s_lp_Variant>
AV-unprocessed.smi:1867-16

> <Gold.Version>
5.8.1

> <Gold.Id.Protein>
6NUR|6NUR_protein|mol2

> <Gold.PLP.Fitness>
49.0901

> <Gold.PLP.PLP>
-38.1314

> <Gold.PLP.part.hbond>
-4.1001

> <Gold.PLP.part.metal>
0.0000

> <Gold.PLP.part.buried>
4.0500

> <Gold.PLP.part.nonpolar>
-39.1231

> <Gold.PLP.part.repulsive>
0.4811

> <Gold.PLP.ligand.clash>
0.0000

> <Gold.PLP.ligand.torsion>
0.2799

> <Gold.PLP.Chemscore.Hbond>
3.8320

> <Gold.PLP.Chemscore.CHOScore>
0.0000

> <Gold.PLP.Chemscore.Metal>
0.0000

> <Gold.Chemscore.Hbonds>
donor molecule, donor type, donor heavy atom, donor atom, acceptor molecule, acceptor atom, score
      L1  H    13    53       P1  8028  2.00
      L1  H    15    37       P1  7948  1.00
      L1  H    19    52       P1 10171  0.99

> <Gold.PLP.Chemscore.Internal.Correction>
0.0224

> <Gold.Rescore>
     Score         DG    S(hbond)    S(metal)    S(lipo)     H(rot)  DE(clash)    DE(int)     intcor
     21.42     -25.23       2.77        0.00     115.94       1.20       2.65       1.16       ----

> <Gold.Chemscore.Fitness>
21.4242

> <Gold.Chemscore.DG>
-25.2289

> <Gold.Chemscore.ZeroCoef>
-5.4800

> <Gold.Chemscore.Hbond>
2.7673

> <Gold.Chemscore.Metal>
0.0000

> <Gold.Chemscore.Lipo>
115.9431

> <Gold.Chemscore.Internal_Hbond>
0.0000

> <Gold.Chemscore.DEClash>
2.6466

> <Gold.Chemscore.DEInternal>
1.1582

> <Gold.Chemscore.Rot>
1.1950

> <Gold.Chemscore.Internal.Correction>
   9.000000E+99

> <Gold.Chemscore.Hbonds>
donor molecule, donor type, donor heavy atom, donor atom, acceptor molecule, acceptor atom, score
      L1  H    13    53       P1  8028  0.99
      L1  H    15    37       P1  7948  0.97
      L1  H    19    52       P1 10171  0.93

> <Gold.Chemscore.Hbond.Weighted>
-9.2429

> <Gold.Chemscore.Metal.Weighted>
-0.0000

> <Gold.Chemscore.Lipo.Weighted>
-13.5653

> <Gold.Chemscore.Internal_Hbond.Weighted>
0.0000

> <Gold.Chemscore.DEClash.Weighted>
2.6466

> <Gold.Chemscore.DEInternal.Weighted>
1.1582

> <Gold.Chemscore.Rot.Weighted>
3.0593

> <Gold.Chemscore.Internal.Correction.Weighted>
   9.000000E+99

> <Gold.Protein.RotatedTorsions>
[ 6907 6896 6895 6894 ] final   66.49 input  -60.11 | X-H torsion
[ 7974 7965 7964 7962 ] final -168.77 input  175.53 | X-H torsion
[ 8008 7997 7996 7995 ] final    7.35 input   59.86 | X-H torsion
[ 10167 10162 10161 10158 ] final   55.64 input  -65.29 | X-H torsion
[ 10718 10713 10712 10709 ] final  -96.16 input   66.30 | X-H torsion
[ 10763 10752 10751 10750 ] final -116.04 input  -60.55 | X-H torsion
[ 11005 11000 10999 10996 ] final -130.44 input  -57.11 | X-H torsion

> <Gold.Protein.ActiveResidues>
 VAL166  LYS551  ARG553  GLY616  TRP617  ASP618  TYR619  PRO620  LYS621  CYS622 
 ASP623  PHE694  ASN695  SER759  ASP760  ASP761  ALA762  ILE779  LEU786  VAL792 
 PHE793  MET794  SER795  GLU796  ALA797  LYS798  CYS799  TRP800  GLU811  SER814 

> <Gold.Protein.RotatedAtoms>
  152.4485  134.5444  159.9848 H   0  0  0  0  0  0  0  0  0  0  0  0  # atno 6907 bound_to 6896
  151.5523  133.3410  159.2963 H   0  0  0  0  0  0  0  0  0  0  0  0  # atno 6908 bound_to 6896
  150.8407  134.7730  159.6993 H   0  0  0  0  0  0  0  0  0  0  0  0  # atno 6909 bound_to 6896
  144.7197  140.2321  143.6302 H   0  0  0  0  0  0  0  0  0  0  0  0  # atno 7974 bound_to 7965
  154.7527  140.2770  155.6279 H   0  0  0  0  0  0  0  0  0  0  0  0  # atno 8008 bound_to 7997
  156.2899  140.2675  156.2211 H   0  0  0  0  0  0  0  0  0  0  0  0  # atno 8009 bound_to 7997
  155.0116  140.0372  157.2391 H   0  0  0  0  0  0  0  0  0  0  0  0  # atno 8010 bound_to 7997
  140.2173  144.3826  150.6464 H   0  0  0  0  0  0  0  0  0  0  0  0  # atno 10167 bound_to 10162
  156.0057  130.5139  150.6184 H   0  0  0  0  0  0  0  0  0  0  0  0  # atno 10718 bound_to 10713
  154.8504  135.4360  154.1757 H   0  0  0  0  0  0  0  0  0  0  0  0  # atno 10763 bound_to 10752
  153.2860  135.6957  153.7345 H   0  0  0  0  0  0  0  0  0  0  0  0  # atno 10764 bound_to 10752
  153.6530  135.3448  155.3080 H   0  0  0  0  0  0  0  0  0  0  0  0  # atno 10765 bound_to 10752
  140.9345  134.1275  157.4205 H   0  0  0  0  0  0  0  0  0  0  0  0  # atno 11005 bound_to 11000
  145.8400  139.2125  143.1833 LP  0  0  0  0  0  0  0  0  0  0  0  0  # atno 17320 bound_to 7965
  146.0354  140.8217  142.9855 LP  0  0  0  0  0  0  0  0  0  0  0  0  # atno 17321 bound_to 7965
  140.6280  143.2184  151.6555 LP  0  0  0  0  0  0  0  0  0  0  0  0  # atno 17342 bound_to 10162
  139.5157  144.3370  152.0775 LP  0  0  0  0  0  0  0  0  0  0  0  0  # atno 17343 bound_to 10162
  157.4004  131.0809  151.1314 LP  0  0  0  0  0  0  0  0  0  0  0  0  # atno 17370 bound_to 10713
  157.1977  130.6380  149.5727 LP  0  0  0  0  0  0  0  0  0  0  0  0  # atno 17371 bound_to 10713
  139.8804  135.0016  156.6079 LP  0  0  0  0  0  0  0  0  0  0  0  0  # atno 17394 bound_to 11000
  140.7817  133.8654  155.8573 LP  0  0  0  0  0  0  0  0  0  0  0  0  # atno 17395 bound_to 11000

$$$$
