AV-unprocessed.smi:2911|AV-procd|sdf|11179|dock2
  -GOLD-   2272016 73D 1   1.00000     0.00000
 Structure written by MMmdl.
 41 42  0  0  0  0  0  0  0  0  1 V2000
  148.6367  134.5814  162.7943 C   0  0  0  0  0  0  0  0  0  0  0  0
  148.9545  135.4637  161.6357 C   0  0  0  0  0  0  0  0  0  0  0  0
  148.5083  136.7126  161.5807 N   0  0  0  0  0  0  0  0  0  0  0  0
  149.0072  137.1804  160.3564 O   0  0  0  0  0  0  0  0  0  0  0  0
  149.7121  136.1513  159.8275 C   0  0  0  0  0  0  0  0  0  0  0  0
  150.3373  136.3196  158.4835 C   0  0  0  0  0  0  0  0  0  0  0  0
  151.8621  136.4943  158.5652 C   0  0  0  0  0  0  0  0  0  0  0  0
  152.2321  137.8881  158.7838 N   0  0  0  0  0  0  0  0  0  0  0  0
  152.9992  138.3417  159.7901 C   0  0  0  0  0  0  0  0  0  0  0  0
  153.4442  137.5858  160.6554 O   0  0  0  0  0  0  0  0  0  0  0  0
  153.1910  139.6883  159.8034 N   0  0  0  0  0  0  0  0  0  0  0  0
  152.5004  140.6503  158.9159 C   0  0  0  0  0  0  0  0  0  0  0  0
  151.8769  141.7956  159.7262 C   0  0  0  0  0  0  0  0  0  0  0  0
  152.9449  142.5210  160.5576 C   0  0  1  0  0  0  0  0  0  0  0  0
  152.3393  143.6591  161.3910 C   0  0  0  0  0  0  0  0  0  0  0  0
  153.6921  141.5066  161.4391 C   0  0  0  0  0  0  0  0  0  0  0  0
  154.2414  140.2986  160.6483 C   0  0  2  0  0  0  0  0  0  0  0  0
  155.5145  140.6053  159.8386 C   0  0  0  0  0  0  0  0  0  0  0  0
  149.6981  135.0493  160.5735 N   0  0  0  0  0  0  0  0  0  0  0  0
  148.6955  135.1406  163.7287 H   0  0  0  0  0  0  0  0  0  0  0  0
  149.3396  133.7497  162.8481 H   0  0  0  0  0  0  0  0  0  0  0  0
  147.6294  134.1773  162.6931 H   0  0  0  0  0  0  0  0  0  0  0  0
  150.0853  135.4505  157.8748 H   0  0  0  0  0  0  0  0  0  0  0  0
  149.8851  137.1842  157.9963 H   0  0  0  0  0  0  0  0  0  0  0  0
  152.2581  135.9081  159.3949 H   0  0  0  0  0  0  0  0  0  0  0  0
  152.3410  136.1148  157.6606 H   0  0  0  0  0  0  0  0  0  0  0  0
  151.8781  138.5624  158.1209 H   0  0  0  0  0  0  0  0  0  0  0  0
  153.2222  141.0529  158.2052 H   0  0  0  0  0  0  0  0  0  0  0  0
  151.7204  140.2070  158.2977 H   0  0  0  0  0  0  0  0  0  0  0  0
  151.3888  142.4995  159.0513 H   0  0  0  0  0  0  0  0  0  0  0  0
  151.0976  141.3996  160.3792 H   0  0  0  0  0  0  0  0  0  0  0  0
  153.6637  142.9669  159.8689 H   0  0  0  0  0  0  0  0  0  0  0  0
  151.6045  143.2825  162.1035 H   0  0  0  0  0  0  0  0  0  0  0  0
  151.8409  144.3900  160.7537 H   0  0  0  0  0  0  0  0  0  0  0  0
  153.1103  144.1852  161.9545 H   0  0  0  0  0  0  0  0  0  0  0  0
  154.5031  142.0002  161.9758 H   0  0  0  0  0  0  0  0  0  0  0  0
  153.0082  141.1368  162.2048 H   0  0  0  0  0  0  0  0  0  0  0  0
  154.5507  139.5896  161.4182 H   0  0  0  0  0  0  0  0  0  0  0  0
  156.3106  140.9668  160.4897 H   0  0  0  0  0  0  0  0  0  0  0  0
  155.3449  141.3670  159.0783 H   0  0  0  0  0  0  0  0  0  0  0  0
  155.8841  139.7106  159.3368 H   0  0  0  0  0  0  0  0  0  0  0  0
  1  2  1  0  0  0  0
  1 20  1  0  0  0  0
  1 21  1  0  0  0  0
  1 22  1  0  0  0  0
  2 19  1  0  0  0  0
  2  3  2  0  0  0  0
  3  4  1  0  0  0  0
  4  5  1  0  0  0  0
  5  6  1  0  0  0  0
  5 19  2  0  0  0  0
  6  7  1  0  0  0  0
  6 23  1  0  0  0  0
  6 24  1  0  0  0  0
  7  8  1  0  0  0  0
  7 25  1  0  0  0  0
  7 26  1  0  0  0  0
  8  9  1  0  0  0  0
  8 27  1  0  0  0  0
  9 10  2  0  0  0  0
  9 11  1  0  0  0  0
 11 17  1  0  0  0  0
 11 12  1  0  0  0  0
 12 13  1  0  0  0  0
 12 28  1  0  0  0  0
 12 29  1  0  0  0  0
 13 14  1  0  0  0  0
 13 30  1  0  0  0  0
 13 31  1  0  0  0  0
 14 15  1  0  0  0  0
 14 16  1  0  0  0  0
 14 32  1  0  0  0  0
 15 33  1  0  0  0  0
 15 34  1  0  0  0  0
 15 35  1  0  0  0  0
 16 17  1  0  0  0  0
 16 36  1  0  0  0  0
 16 37  1  0  0  0  0
 17 18  1  0  0  0  0
 17 38  1  0  0  0  0
 18 39  1  0  0  0  0
 18 40  1  0  0  0  0
 18 41  1  0  0  0  0
M  END
> <s_m_source_file>
AV-unprocessed.smi

> <i_m_source_file_index>
2911

> <i_lp_mmshare_version>
43012

> <i_f3d_flags>
0

> <s_epik_input>
W0NIM11jMW5vYyhuMSlbQ0gyXVtDSDJdW05IXUMoPU8pTjJbQ0gyXVtDSDJdW0NAQEhdKFtDSDNdKVtDSDJdW0NASF0yW0NIM10=

> <s_epik_cmdline>
J2VwaWtfcHl0aG9uJywgJy1waCcsICc3LjAnLCAnLXRuJywgJzgnLCAnLW1hJywgJzIwMCcsICctbWV0YWxfYmluZGluZycsICctaW1hZScsICc8aW5maWxlLm1hZT4nLCAnLW9tYWUnLCAnPG91dGZpbGUubWFlPic=

> <r_lp_tautomer_probability>
1

> <r_epik_Ionization_Penalty>
6.61671e-05

> <r_epik_Ionization_Penalty_Charging>
0

> <r_epik_Ionization_Penalty_Neutral>
6.61671e-05

> <r_epik_State_Penalty>
-0

> <r_epik_Charging_Adjusted_Penalty>
0

> <i_epik_Tot_Q>
0

> <i_epik_Tot_abs_Q>
0

> <r_epik_Metal_State_Penalty>
-0

> <b_epik_Metal_Only>
0

> <s_lp_Force_Field>
OPLS_2005

> <r_lp_Energy>
30.51

> <b_lp_Chiralities_Consistent>
1

> <s_lp_Variant>
AV-unprocessed.smi:2911-3

> <Gold.Version>
5.8.1

> <Gold.Id.Protein>
6NUR|6NUR_protein|mol2

> <Gold.PLP.Fitness>
42.2592

> <Gold.PLP.PLP>
-36.1914

> <Gold.PLP.part.hbond>
-4.8019

> <Gold.PLP.part.metal>
0.0000

> <Gold.PLP.part.buried>
-3.4775

> <Gold.PLP.part.nonpolar>
-28.0066

> <Gold.PLP.part.repulsive>
0.0798

> <Gold.PLP.ligand.clash>
0.0000

> <Gold.PLP.ligand.torsion>
0.4334

> <Gold.PLP.Chemscore.Hbond>
2.3029

> <Gold.PLP.Chemscore.CHOScore>
0.0000

> <Gold.PLP.Chemscore.Metal>
0.0000

> <Gold.Chemscore.Hbonds>
donor molecule, donor type, donor heavy atom, donor atom, acceptor molecule, acceptor atom, score
      P1  H  6896  6907       L1    19  0.07

> <Gold.PLP.Chemscore.Internal.Correction>
0.0258

> <Gold.Rescore>
     Score         DG    S(hbond)    S(metal)    S(lipo)     H(rot)  DE(clash)    DE(int)     intcor
     16.06     -16.37       1.49        0.00      85.77       1.61       0.00       0.31       ----

> <Gold.Chemscore.Fitness>
16.0575

> <Gold.Chemscore.DG>
-16.3744

> <Gold.Chemscore.ZeroCoef>
-5.4800

> <Gold.Chemscore.Hbond>
1.4903

> <Gold.Chemscore.Metal>
0.0000

> <Gold.Chemscore.Lipo>
85.7714

> <Gold.Chemscore.Internal_Hbond>
0.0000

> <Gold.Chemscore.DEClash>
0.0038

> <Gold.Chemscore.DEInternal>
0.3130

> <Gold.Chemscore.Rot>
1.6088

> <Gold.Chemscore.Internal.Correction>
   9.000000E+99

> <Gold.Chemscore.Hbond.Weighted>
-4.9777

> <Gold.Chemscore.Metal.Weighted>
-0.0000

> <Gold.Chemscore.Lipo.Weighted>
-10.0353

> <Gold.Chemscore.Internal_Hbond.Weighted>
0.0000

> <Gold.Chemscore.DEClash.Weighted>
0.0038

> <Gold.Chemscore.DEInternal.Weighted>
0.3130

> <Gold.Chemscore.Rot.Weighted>
4.1186

> <Gold.Chemscore.Internal.Correction.Weighted>
   9.000000E+99

> <Gold.Protein.RotatedTorsions>
[ 6907 6896 6895 6894 ] final  -77.10 input  -60.11 | X-H torsion
[ 7974 7965 7964 7962 ] final -179.23 input  175.53 | X-H torsion
[ 8008 7997 7996 7995 ] final   53.68 input   59.86 | X-H torsion
[ 10167 10162 10161 10158 ] final -117.23 input  -65.29 | X-H torsion
[ 10718 10713 10712 10709 ] final -164.35 input   66.30 | X-H torsion
[ 10763 10752 10751 10750 ] final  -92.98 input  -60.55 | X-H torsion
[ 11005 11000 10999 10996 ] final    0.85 input  -57.11 | X-H torsion

> <Gold.Protein.ActiveResidues>
 VAL166  LYS551  ARG553  GLY616  TRP617  ASP618  TYR619  PRO620  LYS621  CYS622 
 ASP623  PHE694  ASN695  SER759  ASP760  ASP761  ALA762  ILE779  LEU786  VAL792 
 PHE793  MET794  SER795  GLU796  ALA797  LYS798  CYS799  TRP800  GLU811  SER814 

> <Gold.Protein.RotatedAtoms>
  150.7008  134.4472  159.5319 H   0  0  0  0  0  0  0  0  0  0  0  0  # atno 6907 bound_to 6896
  152.2171  134.8444  160.0499 H   0  0  0  0  0  0  0  0  0  0  0  0  # atno 6908 bound_to 6896
  151.9308  133.3576  159.3967 H   0  0  0  0  0  0  0  0  0  0  0  0  # atno 6909 bound_to 6896
  144.7135  140.0749  143.6428 H   0  0  0  0  0  0  0  0  0  0  0  0  # atno 7974 bound_to 7965
  155.4723  140.3465  155.4327 H   0  0  0  0  0  0  0  0  0  0  0  0  # atno 8008 bound_to 7997
  156.1092  140.1456  156.9390 H   0  0  0  0  0  0  0  0  0  0  0  0  # atno 8009 bound_to 7997
  154.4745  140.0889  156.7206 H   0  0  0  0  0  0  0  0  0  0  0  0  # atno 8010 bound_to 7997
  140.0706  143.4881  152.1982 H   0  0  0  0  0  0  0  0  0  0  0  0  # atno 10167 bound_to 10162
  156.6377  130.8956  151.2990 H   0  0  0  0  0  0  0  0  0  0  0  0  # atno 10718 bound_to 10713
  154.6915  135.5211  153.8398 H   0  0  0  0  0  0  0  0  0  0  0  0  # atno 10763 bound_to 10752
  153.0635  135.6577  154.0416 H   0  0  0  0  0  0  0  0  0  0  0  0  # atno 10764 bound_to 10752
  154.0290  135.2987  155.3351 H   0  0  0  0  0  0  0  0  0  0  0  0  # atno 10765 bound_to 10752
  140.6220  133.9653  155.8230 H   0  0  0  0  0  0  0  0  0  0  0  0  # atno 11005 bound_to 11000
  145.9752  139.2899  143.1075 LP  0  0  0  0  0  0  0  0  0  0  0  0  # atno 17320 bound_to 7965
  145.9072  140.9204  143.0472 LP  0  0  0  0  0  0  0  0  0  0  0  0  # atno 17321 bound_to 7965
  139.5838  144.7522  151.3571 LP  0  0  0  0  0  0  0  0  0  0  0  0  # atno 17342 bound_to 10162
  140.7127  143.7347  150.7597 LP  0  0  0  0  0  0  0  0  0  0  0  0  # atno 17343 bound_to 10162
  157.7180  130.9522  150.1330 LP  0  0  0  0  0  0  0  0  0  0  0  0  # atno 17370 bound_to 10713
  156.2184  130.3672  149.8586 LP  0  0  0  0  0  0  0  0  0  0  0  0  # atno 17371 bound_to 10713
  141.0736  134.0169  157.3491 LP  0  0  0  0  0  0  0  0  0  0  0  0  # atno 17394 bound_to 11000
  139.9149  135.0195  156.7843 LP  0  0  0  0  0  0  0  0  0  0  0  0  # atno 17395 bound_to 11000

$$$$
