AV-unprocessed.smi:447|AV-procd|sdf|2599|dock8
  -GOLD-   2262022593D 1   1.00000     0.00000
 Structure written by MMmdl.
 45 47  0  0  0  0  0  0  0  0  1 V2000
  153.9319  137.0433  161.7766 C   0  0  0  0  0  0  0  0  0  0  0  0
  153.0245  137.2763  160.5730 C   0  0  0  0  0  0  0  0  0  0  0  0
  152.5749  136.3143  159.9515 O   0  0  0  0  0  0  0  0  0  0  0  0
  152.7604  138.5539  160.2566 N   0  0  0  0  0  0  0  0  0  0  0  0
  151.9009  138.9940  159.1578 C   0  0  2  0  0  0  0  0  0  0  0  0
  152.4690  138.5091  157.8178 C   0  0  0  0  0  0  0  0  0  0  0  0
  151.7712  140.4976  159.2030 C   0  0  0  0  0  0  0  0  0  0  0  0
  152.5206  141.2561  160.0086 N   0  0  0  0  0  0  0  0  0  0  0  0
  152.0843  142.5339  159.7238 C   0  0  0  0  0  0  0  0  0  0  0  0
  152.4827  143.7799  160.2584 C   0  0  0  0  0  0  0  0  0  0  0  0
  151.8867  144.9747  159.8046 C   0  0  0  0  0  0  0  0  0  0  0  0
  150.8860  144.9401  158.8119 C   0  0  0  0  0  0  0  0  0  0  0  0
  150.4758  143.7088  158.2655 C   0  0  0  0  0  0  0  0  0  0  0  0
  151.0740  142.5189  158.7222 C   0  0  0  0  0  0  0  0  0  0  0  0
  150.9072  141.1745  158.4027 N   0  0  0  0  0  0  0  0  0  0  0  0
  149.9888  140.6376  157.4069 C   0  0  0  0  0  0  0  0  0  0  0  0
  150.3749  141.0274  155.9659 C   0  0  1  0  0  0  0  0  0  0  0  0
  151.5844  140.3918  155.6004 O   0  0  0  0  0  0  0  0  0  0  0  0
  149.2474  140.7264  154.9916 C   0  0  0  0  0  0  0  0  0  0  0  0
  148.8824  139.3933  154.7007 C   0  0  0  0  0  0  0  0  0  0  0  0
  147.8312  139.1255  153.8021 C   0  0  0  0  0  0  0  0  0  0  0  0
  147.1378  140.1884  153.1920 C   0  0  0  0  0  0  0  0  0  0  0  0
  147.4946  141.5192  153.4820 C   0  0  0  0  0  0  0  0  0  0  0  0
  148.5456  141.7876  154.3803 C   0  0  0  0  0  0  0  0  0  0  0  0
  154.1820  137.9787  162.2784 H   0  0  0  0  0  0  0  0  0  0  0  0
  154.8593  136.5652  161.4608 H   0  0  0  0  0  0  0  0  0  0  0  0
  153.4393  136.3913  162.4983 H   0  0  0  0  0  0  0  0  0  0  0  0
  153.1667  139.2775  160.8316 H   0  0  0  0  0  0  0  0  0  0  0  0
  150.9240  138.5304  159.2924 H   0  0  0  0  0  0  0  0  0  0  0  0
  151.8219  138.8050  156.9916 H   0  0  0  0  0  0  0  0  0  0  0  0
  152.5540  137.4224  157.7974 H   0  0  0  0  0  0  0  0  0  0  0  0
  153.4590  138.9261  157.6305 H   0  0  0  0  0  0  0  0  0  0  0  0
  153.2478  143.8159  161.0197 H   0  0  0  0  0  0  0  0  0  0  0  0
  152.1981  145.9215  160.2210 H   0  0  0  0  0  0  0  0  0  0  0  0
  150.4323  145.8592  158.4709 H   0  0  0  0  0  0  0  0  0  0  0  0
  149.7067  143.6782  157.5081 H   0  0  0  0  0  0  0  0  0  0  0  0
  149.9599  139.5522  157.5092 H   0  0  0  0  0  0  0  0  0  0  0  0
  148.9812  140.9825  157.6404 H   0  0  0  0  0  0  0  0  0  0  0  0
  150.5719  142.0981  155.9274 H   0  0  0  0  0  0  0  0  0  0  0  0
  152.2130  140.5262  156.2931 H   0  0  0  0  0  0  0  0  0  0  0  0
  149.4064  138.5719  155.1673 H   0  0  0  0  0  0  0  0  0  0  0  0
  147.5562  138.1046  153.5817 H   0  0  0  0  0  0  0  0  0  0  0  0
  146.3316  139.9830  152.5031 H   0  0  0  0  0  0  0  0  0  0  0  0
  146.9616  142.3348  153.0159 H   0  0  0  0  0  0  0  0  0  0  0  0
  148.8109  142.8119  154.5990 H   0  0  0  0  0  0  0  0  0  0  0  0
  1  2  1  0  0  0  0
  1 25  1  0  0  0  0
  1 26  1  0  0  0  0
  1 27  1  0  0  0  0
  2  3  2  0  0  0  0
  2  4  1  0  0  0  0
  4  5  1  0  0  0  0
  4 28  1  0  0  0  0
  5  6  1  0  0  0  0
  5  7  1  0  0  0  0
  5 29  1  0  0  0  0
  6 30  1  0  0  0  0
  6 31  1  0  0  0  0
  6 32  1  0  0  0  0
  7 15  1  0  0  0  0
  7  8  2  0  0  0  0
  8  9  1  0  0  0  0
  9 14  2  0  0  0  0
  9 10  1  0  0  0  0
 10 11  2  0  0  0  0
 10 33  1  0  0  0  0
 11 12  1  0  0  0  0
 11 34  1  0  0  0  0
 12 13  2  0  0  0  0
 12 35  1  0  0  0  0
 13 14  1  0  0  0  0
 13 36  1  0  0  0  0
 14 15  1  0  0  0  0
 15 16  1  0  0  0  0
 16 17  1  0  0  0  0
 16 37  1  0  0  0  0
 16 38  1  0  0  0  0
 17 18  1  0  0  0  0
 17 19  1  0  0  0  0
 17 39  1  0  0  0  0
 18 40  1  0  0  0  0
 19 24  1  0  0  0  0
 19 20  2  0  0  0  0
 20 21  1  0  0  0  0
 20 41  1  0  0  0  0
 21 22  2  0  0  0  0
 21 42  1  0  0  0  0
 22 23  1  0  0  0  0
 22 43  1  0  0  0  0
 23 24  2  0  0  0  0
 23 44  1  0  0  0  0
 24 45  1  0  0  0  0
M  END
> <s_m_source_file>
AV-unprocessed.smi

> <i_m_source_file_index>
447

> <i_lp_mmshare_version>
43012

> <i_f3d_flags>
0

> <s_epik_input>
W0NIM11DKD1PKVtOSF1bQ0BIXShbQ0gzXSljKG4xKW4oYyhjMTIpW2NIXVtjSF1bY0hdW2NIXTIpW0NIMl1bQ0BIXShbT0hdKWMzW2NIXVtjSF1bY0hdW2NIXVtjSF0z

> <s_epik_cmdline>
J2VwaWtfcHl0aG9uJywgJy1waCcsICc3LjAnLCAnLXRuJywgJzgnLCAnLW1hJywgJzIwMCcsICctbWV0YWxfYmluZGluZycsICctaW1hZScsICc8aW5maWxlLm1hZT4nLCAnLW9tYWUnLCAnPG91dGZpbGUubWFlPic=

> <r_epik_Ionization_Penalty>
0.13301

> <r_epik_Ionization_Penalty_Charging>
0

> <r_epik_Ionization_Penalty_Neutral>
0.13301

> <r_epik_State_Penalty>
0.122384

> <r_epik_Charging_Adjusted_Penalty>
0.122384

> <i_epik_Tot_Q>
0

> <i_epik_Tot_abs_Q>
0

> <r_epik_Metal_State_Penalty>
0.0997374

> <b_epik_Metal_Only>
0

> <s_lp_Force_Field>
OPLS_2005

> <r_lp_Energy>
6.23771

> <b_lp_Chiralities_Consistent>
1

> <s_lp_Variant>
AV-unprocessed.smi:447-3

> <Gold.Version>
5.8.1

> <Gold.Id.Protein>
6NUR|6NUR_protein|mol2

> <Gold.PLP.Fitness>
53.1675

> <Gold.PLP.PLP>
-48.4871

> <Gold.PLP.part.hbond>
-2.0000

> <Gold.PLP.part.metal>
0.0000

> <Gold.PLP.part.buried>
-4.9468

> <Gold.PLP.part.nonpolar>
-40.9806

> <Gold.PLP.part.repulsive>
0.0731

> <Gold.PLP.ligand.clash>
0.0000

> <Gold.PLP.ligand.torsion>
0.3358

> <Gold.PLP.Chemscore.Hbond>
1.7680

> <Gold.PLP.Chemscore.CHOScore>
0.0000

> <Gold.PLP.Chemscore.Metal>
0.0000

> <Gold.Chemscore.Hbonds>
donor molecule, donor type, donor heavy atom, donor atom, acceptor molecule, acceptor atom, score
      P1  H  6896  6907       L1     3  0.62
      P1  H  7989  7998       L1    18  0.59

> <Gold.PLP.Chemscore.Internal.Correction>
0.0482

> <Gold.Rescore>
     Score         DG    S(hbond)    S(metal)    S(lipo)     H(rot)  DE(clash)    DE(int)     intcor
     19.29     -19.88       1.68        0.00     126.67       2.35       0.11       0.47       ----

> <Gold.Chemscore.Fitness>
19.2929

> <Gold.Chemscore.DG>
-19.8752

> <Gold.Chemscore.ZeroCoef>
-5.4800

> <Gold.Chemscore.Hbond>
1.6759

> <Gold.Chemscore.Metal>
0.0000

> <Gold.Chemscore.Lipo>
126.6727

> <Gold.Chemscore.Internal_Hbond>
0.0000

> <Gold.Chemscore.DEClash>
0.1145

> <Gold.Chemscore.DEInternal>
0.4677

> <Gold.Chemscore.Rot>
2.3528

> <Gold.Chemscore.Internal.Correction>
   9.000000E+99

> <Gold.Chemscore.Hbonds>
donor molecule, donor type, donor heavy atom, donor atom, acceptor molecule, acceptor atom, score
      P1  H  6896  6907       L1     3  0.63
      P1  H  7989  7998       L1    18  0.15

> <Gold.Chemscore.Hbond.Weighted>
-5.5976

> <Gold.Chemscore.Metal.Weighted>
-0.0000

> <Gold.Chemscore.Lipo.Weighted>
-14.8207

> <Gold.Chemscore.Internal_Hbond.Weighted>
0.0000

> <Gold.Chemscore.DEClash.Weighted>
0.1145

> <Gold.Chemscore.DEInternal.Weighted>
0.4677

> <Gold.Chemscore.Rot.Weighted>
6.0231

> <Gold.Chemscore.Internal.Correction.Weighted>
   9.000000E+99

> <Gold.Protein.RotatedTorsions>
[ 6907 6896 6895 6894 ] final   19.58 input  -60.11 | X-H torsion
[ 7974 7965 7964 7962 ] final -166.64 input  175.53 | X-H torsion
[ 8008 7997 7996 7995 ] final  163.77 input   59.86 | X-H torsion
[ 10167 10162 10161 10158 ] final  -71.75 input  -65.29 | X-H torsion
[ 10718 10713 10712 10709 ] final   28.94 input   66.30 | X-H torsion
[ 10763 10752 10751 10750 ] final -158.08 input  -60.55 | X-H torsion
[ 11005 11000 10999 10996 ] final   59.22 input  -57.11 | X-H torsion

> <Gold.Protein.ActiveResidues>
 VAL166  LYS551  ARG553  GLY616  TRP617  ASP618  TYR619  PRO620  LYS621  CYS622 
 ASP623  PHE694  ASN695  SER759  ASP760  ASP761  ALA762  ILE779  LEU786  VAL792 
 PHE793  MET794  SER795  GLU796  ALA797  LYS798  CYS799  TRP800  GLU811  SER814 

> <Gold.Protein.RotatedAtoms>
  151.8831  135.0446  160.0490 H   0  0  0  0  0  0  0  0  0  0  0  0  # atno 6907 bound_to 6896
  152.2497  133.5200  159.5326 H   0  0  0  0  0  0  0  0  0  0  0  0  # atno 6908 bound_to 6896
  150.7079  134.0894  159.3968 H   0  0  0  0  0  0  0  0  0  0  0  0  # atno 6909 bound_to 6896
  144.7241  140.2637  143.6261 H   0  0  0  0  0  0  0  0  0  0  0  0  # atno 7974 bound_to 7965
  156.1931  140.1714  156.8051 H   0  0  0  0  0  0  0  0  0  0  0  0  # atno 8008 bound_to 7997
  154.5496  140.0720  156.8678 H   0  0  0  0  0  0  0  0  0  0  0  0  # atno 8009 bound_to 7997
  155.3054  140.3364  155.4248 H   0  0  0  0  0  0  0  0  0  0  0  0  # atno 8010 bound_to 7997
  140.5248  143.2327  151.7367 H   0  0  0  0  0  0  0  0  0  0  0  0  # atno 10167 bound_to 10162
  157.2400  130.7065  149.6354 H   0  0  0  0  0  0  0  0  0  0  0  0  # atno 10718 bound_to 10713
  154.7585  135.3111  154.8424 H   0  0  0  0  0  0  0  0  0  0  0  0  # atno 10763 bound_to 10752
  153.9191  135.6797  153.4752 H   0  0  0  0  0  0  0  0  0  0  0  0  # atno 10764 bound_to 10752
  153.1184  135.4834  154.9085 H   0  0  0  0  0  0  0  0  0  0  0  0  # atno 10765 bound_to 10752
  140.0319  134.5999  155.9495 H   0  0  0  0  0  0  0  0  0  0  0  0  # atno 11005 bound_to 11000
  145.8111  139.2003  143.1992 LP  0  0  0  0  0  0  0  0  0  0  0  0  # atno 17320 bound_to 7965
  146.0595  140.7985  142.9742 LP  0  0  0  0  0  0  0  0  0  0  0  0  # atno 17321 bound_to 7965
  139.4935  144.4202  151.9986 LP  0  0  0  0  0  0  0  0  0  0  0  0  # atno 17342 bound_to 10162
  140.3300  144.3327  150.5989 LP  0  0  0  0  0  0  0  0  0  0  0  0  # atno 17343 bound_to 10162
  155.9670  130.4461  150.5527 LP  0  0  0  0  0  0  0  0  0  0  0  0  # atno 17370 bound_to 10713
  157.3388  131.0713  151.1804 LP  0  0  0  0  0  0  0  0  0  0  0  0  # atno 17371 bound_to 10713
  141.1836  133.6551  156.5123 LP  0  0  0  0  0  0  0  0  0  0  0  0  # atno 17394 bound_to 11000
  140.4211  134.7187  157.4890 LP  0  0  0  0  0  0  0  0  0  0  0  0  # atno 17395 bound_to 11000

$$$$
