AV-unprocessed.smi:1599|AV-procd|sdf|6423|dock3
  -GOLD-   22720 7 63D 1   1.00000     0.00000
 Structure written by MMmdl.
 39 40  0  0  0  0  0  0  0  0  1 V2000
  150.9697  145.0743  159.3750 C   0  0  0  0  0  0  0  0  0  0  0  0
  152.1654  144.1134  159.2868 C   0  0  2  0  0  0  0  0  0  0  0  0
  152.0600  143.3543  158.0428 N   0  0  0  0  0  0  0  0  0  0  0  0
  150.9551  142.7420  157.5927 C   0  0  0  0  0  0  0  0  0  0  0  0
  149.8827  142.7341  158.1971 O   0  0  0  0  0  0  0  0  0  0  0  0
  151.1763  142.1515  156.4070 N   0  0  0  0  0  0  0  0  0  0  0  0
  150.2494  141.4173  155.6251 C   0  0  0  0  0  0  0  0  0  0  0  0
  150.3947  140.0519  155.2677 C   0  0  0  0  0  0  0  0  0  0  0  0
  149.3716  139.6363  154.5366 N   0  0  0  0  0  0  0  0  0  0  0  0
  148.5618  140.7186  154.4167 N   0  0  0  0  0  0  0  0  0  0  0  0
  147.3226  140.6109  153.6676 C   0  0  0  0  0  0  0  0  0  0  0  0
  147.0477  139.1633  153.2564 C   0  0  0  0  0  0  0  0  0  0  0  0
  147.9598  138.5647  152.4854 N   0  0  0  0  0  0  0  0  0  0  0  0
  146.0238  138.5935  153.6274 O   0  0  0  0  0  0  0  0  0  0  0  0
  149.0694  141.8248  155.0698 C   0  0  0  0  0  0  0  0  0  0  0  0
  152.2281  143.1462  160.4873 C   0  0  2  0  0  0  0  0  0  0  0  0
  152.4057  143.8234  161.8474 C   0  0  0  0  0  0  0  0  0  0  0  0
  153.0622  142.7510  162.7030 C   0  0  0  0  0  0  0  0  0  0  0  0
  153.5463  141.7098  161.6909 C   0  0  0  0  0  0  0  0  0  0  0  0
  153.3852  142.3264  160.4219 O   0  0  0  0  0  0  0  0  0  0  0  0
  151.0335  145.7087  160.2592 H   0  0  0  0  0  0  0  0  0  0  0  0
  150.0255  144.5307  159.4228 H   0  0  0  0  0  0  0  0  0  0  0  0
  150.9318  145.7329  158.5067 H   0  0  0  0  0  0  0  0  0  0  0  0
  153.0742  144.7180  159.2722 H   0  0  0  0  0  0  0  0  0  0  0  0
  152.8919  143.3047  157.4734 H   0  0  0  0  0  0  0  0  0  0  0  0
  152.1041  142.2422  156.0198 H   0  0  0  0  0  0  0  0  0  0  0  0
  151.1904  139.3625  155.5089 H   0  0  0  0  0  0  0  0  0  0  0  0
  146.5065  140.9823  154.2888 H   0  0  0  0  0  0  0  0  0  0  0  0
  147.3700  141.2501  152.7844 H   0  0  0  0  0  0  0  0  0  0  0  0
  147.8157  137.6121  152.1823 H   0  0  0  0  0  0  0  0  0  0  0  0
  148.7861  139.0705  152.2012 H   0  0  0  0  0  0  0  0  0  0  0  0
  148.5512  142.7724  155.0781 H   0  0  0  0  0  0  0  0  0  0  0  0
  151.3443  142.5049  160.5063 H   0  0  0  0  0  0  0  0  0  0  0  0
  153.0777  144.6782  161.7575 H   0  0  0  0  0  0  0  0  0  0  0  0
  151.4640  144.1795  162.2666 H   0  0  0  0  0  0  0  0  0  0  0  0
  153.8882  143.1670  163.2809 H   0  0  0  0  0  0  0  0  0  0  0  0
  152.3533  142.3063  163.4023 H   0  0  0  0  0  0  0  0  0  0  0  0
  154.5829  141.4147  161.8548 H   0  0  0  0  0  0  0  0  0  0  0  0
  152.9258  140.8137  161.7355 H   0  0  0  0  0  0  0  0  0  0  0  0
  1  2  1  0  0  0  0
  1 21  1  0  0  0  0
  1 22  1  0  0  0  0
  1 23  1  0  0  0  0
  2  3  1  0  0  0  0
  2 16  1  0  0  0  0
  2 24  1  0  0  0  0
  3  4  1  0  0  0  0
  3 25  1  0  0  0  0
  4  5  2  0  0  0  0
  4  6  1  0  0  0  0
  6  7  1  0  0  0  0
  6 26  1  0  0  0  0
  7 15  2  0  0  0  0
  7  8  1  0  0  0  0
  8  9  2  0  0  0  0
  8 27  1  0  0  0  0
  9 10  1  0  0  0  0
 10 11  1  0  0  0  0
 10 15  1  0  0  0  0
 11 12  1  0  0  0  0
 11 28  1  0  0  0  0
 11 29  1  0  0  0  0
 12 13  1  0  0  0  0
 12 14  2  0  0  0  0
 13 30  1  0  0  0  0
 13 31  1  0  0  0  0
 15 32  1  0  0  0  0
 16 20  1  0  0  0  0
 16 17  1  0  0  0  0
 16 33  1  0  0  0  0
 17 18  1  0  0  0  0
 17 34  1  0  0  0  0
 17 35  1  0  0  0  0
 18 19  1  0  0  0  0
 18 36  1  0  0  0  0
 18 37  1  0  0  0  0
 19 20  1  0  0  0  0
 19 38  1  0  0  0  0
 19 39  1  0  0  0  0
M  END
> <s_m_source_file>
AV-unprocessed.smi

> <i_m_source_file_index>
1599

> <i_lp_mmshare_version>
43012

> <i_f3d_flags>
0

> <s_epik_input>
TzFbQ0gyXVtDSDJdW0NIMl1bQ0BIXTFbQ0BIXShbQ0gzXSlbTkhdQyg9TylbTkhdYzJbY0hdbm4oW2NIXTIpW0NIMl1DKD1PKVtOSDJd

> <s_epik_cmdline>
J2VwaWtfcHl0aG9uJywgJy1waCcsICc3LjAnLCAnLXRuJywgJzgnLCAnLW1hJywgJzIwMCcsICctbWV0YWxfYmluZGluZycsICctaW1hZScsICc8aW5maWxlLm1hZT4nLCAnLW9tYWUnLCAnPG91dGZpbGUubWFlPic=

> <r_lp_tautomer_probability>
1

> <r_epik_Ionization_Penalty>
4.15391e-05

> <r_epik_Ionization_Penalty_Charging>
0

> <r_epik_Ionization_Penalty_Neutral>
4.15391e-05

> <r_epik_State_Penalty>
-0

> <r_epik_Charging_Adjusted_Penalty>
0

> <i_epik_Tot_Q>
0

> <i_epik_Tot_abs_Q>
0

> <r_epik_Metal_State_Penalty>
-0

> <b_epik_Metal_Only>
0

> <s_lp_Force_Field>
OPLS_2005

> <r_lp_Energy>
20.6042

> <b_lp_Chiralities_Consistent>
1

> <s_lp_Variant>
AV-unprocessed.smi:1599-1

> <Gold.Version>
5.8.1

> <Gold.Id.Protein>
6NUR|6NUR_protein|mol2

> <Gold.PLP.Fitness>
50.3729

> <Gold.PLP.PLP>
-43.8088

> <Gold.PLP.part.hbond>
-1.8196

> <Gold.PLP.part.metal>
0.0000

> <Gold.PLP.part.buried>
-2.4742

> <Gold.PLP.part.nonpolar>
-39.1360

> <Gold.PLP.part.repulsive>
0.6810

> <Gold.PLP.ligand.clash>
0.0000

> <Gold.PLP.ligand.torsion>
0.8016

> <Gold.PLP.Chemscore.Hbond>
1.7040

> <Gold.PLP.Chemscore.CHOScore>
1.0000

> <Gold.PLP.Chemscore.Metal>
0.0000

> <Gold.Chemscore.Hbonds>
donor molecule, donor type, donor heavy atom, donor atom, acceptor molecule, acceptor atom, score
      L1  H    13    30       P1  7948  0.66
      L1  H    13    31       P1  7957  1.00
      L1  C    15    32       P1  8028  1.00

> <Gold.PLP.Chemscore.Internal.Correction>
0.0554

> <Gold.Rescore>
     Score         DG    S(hbond)    S(metal)    S(lipo)     H(rot)  DE(clash)    DE(int)     intcor
     13.34     -15.71       1.41        0.00      97.09       2.28       0.44       1.93       ----

> <Gold.Chemscore.Fitness>
13.3402

> <Gold.Chemscore.DG>
-15.7070

> <Gold.Chemscore.ZeroCoef>
-5.4800

> <Gold.Chemscore.Hbond>
1.4102

> <Gold.Chemscore.Metal>
0.0000

> <Gold.Chemscore.Lipo>
97.0913

> <Gold.Chemscore.Internal_Hbond>
0.0000

> <Gold.Chemscore.DEClash>
0.4359

> <Gold.Chemscore.DEInternal>
1.9309

> <Gold.Chemscore.Rot>
2.2823

> <Gold.Chemscore.Internal.Correction>
   9.000000E+99

> <Gold.Chemscore.Hbonds>
donor molecule, donor type, donor heavy atom, donor atom, acceptor molecule, acceptor atom, score
      L1  H    13    30       P1  7948  0.64
      L1  H    13    31       P1  7957  0.94

> <Gold.Chemscore.Hbond.Weighted>
-4.7099

> <Gold.Chemscore.Metal.Weighted>
-0.0000

> <Gold.Chemscore.Lipo.Weighted>
-11.3597

> <Gold.Chemscore.Internal_Hbond.Weighted>
0.0000

> <Gold.Chemscore.DEClash.Weighted>
0.4359

> <Gold.Chemscore.DEInternal.Weighted>
1.9309

> <Gold.Chemscore.Rot.Weighted>
5.8427

> <Gold.Chemscore.Internal.Correction.Weighted>
   9.000000E+99

> <Gold.Protein.RotatedTorsions>
[ 6907 6896 6895 6894 ] final  113.45 input  -60.11 | X-H torsion
[ 7974 7965 7964 7962 ] final -110.23 input  175.53 | X-H torsion
[ 8008 7997 7996 7995 ] final -138.94 input   59.86 | X-H torsion
[ 10167 10162 10161 10158 ] final  169.41 input  -65.29 | X-H torsion
[ 10718 10713 10712 10709 ] final  159.18 input   66.30 | X-H torsion
[ 10763 10752 10751 10750 ] final   22.86 input  -60.55 | X-H torsion
[ 11005 11000 10999 10996 ] final  137.40 input  -57.11 | X-H torsion

> <Gold.Protein.ActiveResidues>
 VAL166  LYS551  ARG553  GLY616  TRP617  ASP618  TYR619  PRO620  LYS621  CYS622 
 ASP623  PHE694  ASN695  SER759  ASP760  ASP761  ALA762  ILE779  LEU786  VAL792 
 PHE793  MET794  SER795  GLU796  ALA797  LYS798  CYS799  TRP800  GLU811  SER814 

> <Gold.Protein.RotatedAtoms>
  152.4860  133.8374  159.7134 H   0  0  0  0  0  0  0  0  0  0  0  0  # atno 6907 bound_to 6896
  150.8947  133.7187  159.2901 H   0  0  0  0  0  0  0  0  0  0  0  0  # atno 6908 bound_to 6896
  151.4648  135.1045  159.9787 H   0  0  0  0  0  0  0  0  0  0  0  0  # atno 6909 bound_to 6896
  145.1707  140.8924  143.3537 H   0  0  0  0  0  0  0  0  0  0  0  0  # atno 7974 bound_to 7965
  155.4366  140.0529  157.3014 H   0  0  0  0  0  0  0  0  0  0  0  0  # atno 8008 bound_to 7997
  154.4836  140.2091  155.9663 H   0  0  0  0  0  0  0  0  0  0  0  0  # atno 8009 bound_to 7997
  156.1242  140.3183  155.8258 H   0  0  0  0  0  0  0  0  0  0  0  0  # atno 8010 bound_to 7997
  139.4992  144.3709  151.9726 H   0  0  0  0  0  0  0  0  0  0  0  0  # atno 10167 bound_to 10162
  157.1677  131.0602  151.2199 H   0  0  0  0  0  0  0  0  0  0  0  0  # atno 10718 bound_to 10713
  153.0883  135.6639  153.9905 H   0  0  0  0  0  0  0  0  0  0  0  0  # atno 10763 bound_to 10752
  153.9508  135.2984  155.3440 H   0  0  0  0  0  0  0  0  0  0  0  0  # atno 10764 bound_to 10752
  154.7294  135.5129  153.9012 H   0  0  0  0  0  0  0  0  0  0  0  0  # atno 10765 bound_to 10752
  140.0111  134.9438  157.0280 H   0  0  0  0  0  0  0  0  0  0  0  0  # atno 11005 bound_to 11000
  145.0235  139.3403  143.6060 LP  0  0  0  0  0  0  0  0  0  0  0  0  # atno 17320 bound_to 7965
  146.3469  139.9545  142.8725 LP  0  0  0  0  0  0  0  0  0  0  0  0  # atno 17321 bound_to 7965
  140.3145  144.3500  150.6025 LP  0  0  0  0  0  0  0  0  0  0  0  0  # atno 17342 bound_to 10162
  140.5772  143.2175  151.7493 LP  0  0  0  0  0  0  0  0  0  0  0  0  # atno 17343 bound_to 10162
  157.4073  130.7366  149.6812 LP  0  0  0  0  0  0  0  0  0  0  0  0  # atno 17370 bound_to 10713
  155.9743  130.4105  150.3931 LP  0  0  0  0  0  0  0  0  0  0  0  0  # atno 17371 bound_to 10713
  140.4552  134.1540  155.7185 LP  0  0  0  0  0  0  0  0  0  0  0  0  # atno 17394 bound_to 11000
  141.1711  133.8606  157.1566 LP  0  0  0  0  0  0  0  0  0  0  0  0  # atno 17395 bound_to 11000

$$$$
