AV-unprocessed.smi:672|AV-procd|sdf|3290|dock5
  -GOLD-   22720 0253D 1   1.00000     0.00000
 Structure written by MMmdl.
 36 37  0  0  0  0  0  0  0  0  1 V2000
  151.4092  141.6830  157.6194 C   0  0  0  0  0  0  0  0  0  0  0  0
  150.6945  142.0181  156.3060 C   0  0  0  0  0  0  0  0  0  0  0  0
  150.3487  140.8011  155.5146 C   0  0  0  0  0  0  0  0  0  0  0  0
  151.2768  139.9868  154.9969 N   0  0  0  0  0  0  0  0  0  0  0  0
  150.7164  138.9080  154.3276 N   0  0  0  0  0  0  0  0  0  0  0  0
  149.3773  138.9322  154.3735 C   0  0  0  0  0  0  0  0  0  0  0  0
  148.5491  137.9477  153.7728 N   0  0  0  0  0  0  0  0  0  0  0  0
  147.2467  137.7022  154.0004 C   0  0  0  0  0  0  0  0  0  0  0  0
  146.5331  138.3171  154.7935 O   0  0  0  0  0  0  0  0  0  0  0  0
  146.8051  136.6882  153.2427 N   0  0  0  0  0  0  0  0  0  0  0  0
  145.4395  136.1698  153.2472 C   0  0  1  0  0  0  0  0  0  0  0  0
  144.6819  136.5599  151.9624 C   0  0  0  0  0  0  0  0  0  0  0  0
  144.5299  135.2709  151.1550 C   0  0  0  0  0  0  0  0  0  0  0  0
  144.4488  134.1746  152.2157 C   0  0  1  0  0  0  0  0  0  0  0  0
  144.8348  132.5218  151.5691 S   0  0  0  0  0  0  0  0  0  0  0  0
  143.5545  132.3655  150.2959 C   0  0  0  0  0  0  0  0  0  0  0  0
  145.4384  134.6299  153.2922 C   0  0  0  0  0  0  0  0  0  0  0  0
  148.6864  140.2889  155.2468 S   0  0  0  0  0  0  0  0  0  0  0  0
  151.6461  142.5904  158.1751 H   0  0  0  0  0  0  0  0  0  0  0  0
  152.3436  141.1522  157.4343 H   0  0  0  0  0  0  0  0  0  0  0  0
  150.7867  141.0544  158.2567 H   0  0  0  0  0  0  0  0  0  0  0  0
  149.7786  142.5723  156.5129 H   0  0  0  0  0  0  0  0  0  0  0  0
  151.3217  142.6699  155.6967 H   0  0  0  0  0  0  0  0  0  0  0  0
  149.0021  137.3611  153.0877 H   0  0  0  0  0  0  0  0  0  0  0  0
  147.4584  136.2406  152.6167 H   0  0  0  0  0  0  0  0  0  0  0  0
  144.9038  136.5570  154.1162 H   0  0  0  0  0  0  0  0  0  0  0  0
  143.6930  136.9342  152.2305 H   0  0  0  0  0  0  0  0  0  0  0  0
  145.1738  137.3452  151.3866 H   0  0  0  0  0  0  0  0  0  0  0  0
  143.6580  135.2924  150.5009 H   0  0  0  0  0  0  0  0  0  0  0  0
  145.4128  135.1243  150.5312 H   0  0  0  0  0  0  0  0  0  0  0  0
  143.4453  134.1615  152.6437 H   0  0  0  0  0  0  0  0  0  0  0  0
  143.6184  131.3875  149.8191 H   0  0  0  0  0  0  0  0  0  0  0  0
  143.6793  133.1298  149.5291 H   0  0  0  0  0  0  0  0  0  0  0  0
  142.5632  132.4709  150.7367 H   0  0  0  0  0  0  0  0  0  0  0  0
  146.4321  134.2428  153.0599 H   0  0  0  0  0  0  0  0  0  0  0  0
  145.1697  134.2487  154.2779 H   0  0  0  0  0  0  0  0  0  0  0  0
  1  2  1  0  0  0  0
  1 19  1  0  0  0  0
  1 20  1  0  0  0  0
  1 21  1  0  0  0  0
  2  3  1  0  0  0  0
  2 22  1  0  0  0  0
  2 23  1  0  0  0  0
  3 18  1  0  0  0  0
  3  4  2  0  0  0  0
  4  5  1  0  0  0  0
  5  6  2  0  0  0  0
  6  7  1  0  0  0  0
  6 18  1  0  0  0  0
  7  8  1  0  0  0  0
  7 24  1  0  0  0  0
  8  9  2  0  0  0  0
  8 10  1  0  0  0  0
 10 11  1  0  0  0  0
 10 25  1  0  0  0  0
 11 17  1  0  0  0  0
 11 12  1  0  0  0  0
 11 26  1  0  0  0  0
 12 13  1  0  0  0  0
 12 27  1  0  0  0  0
 12 28  1  0  0  0  0
 13 14  1  0  0  0  0
 13 29  1  0  0  0  0
 13 30  1  0  0  0  0
 14 15  1  0  0  0  0
 14 17  1  0  0  0  0
 14 31  1  0  0  0  0
 15 16  1  0  0  0  0
 16 32  1  0  0  0  0
 16 33  1  0  0  0  0
 16 34  1  0  0  0  0
 17 35  1  0  0  0  0
 17 36  1  0  0  0  0
M  END
> <s_m_source_file>
AV-unprocessed.smi

> <i_m_source_file_index>
672

> <i_lp_mmshare_version>
43012

> <i_f3d_flags>
0

> <s_epik_input>
W0NIM11bQ0gyXWMxbm5jKHMxKVtOSF1DKD1PKVtOSF1bQ0BASF0yW0NIMl1bQ0gyXVtDQEhdKFtDSDJdMilTW0NIM10=

> <s_epik_cmdline>
J2VwaWtfcHl0aG9uJywgJy1waCcsICc3LjAnLCAnLXRuJywgJzgnLCAnLW1hJywgJzIwMCcsICctbWV0YWxfYmluZGluZycsICctaW1hZScsICc8aW5maWxlLm1hZT4nLCAnLW9tYWUnLCAnPG91dGZpbGUubWFlPic=

> <r_lp_tautomer_probability>
1

> <r_epik_Ionization_Penalty>
0.000422169

> <r_epik_Ionization_Penalty_Charging>
0

> <r_epik_Ionization_Penalty_Neutral>
0.000422169

> <r_epik_State_Penalty>
-0

> <r_epik_Charging_Adjusted_Penalty>
0

> <i_epik_Tot_Q>
0

> <i_epik_Tot_abs_Q>
0

> <r_epik_Metal_State_Penalty>
0.200061

> <b_epik_Metal_Only>
0

> <s_lp_Force_Field>
OPLS_2005

> <r_lp_Energy>
11.4796

> <b_lp_Chiralities_Consistent>
1

> <s_lp_Variant>
AV-unprocessed.smi:672-2

> <Gold.Version>
5.8.1

> <Gold.Id.Protein>
6NUR|6NUR_protein|mol2

> <Gold.PLP.Fitness>
34.6183

> <Gold.PLP.PLP>
-27.0159

> <Gold.PLP.part.hbond>
-3.1196

> <Gold.PLP.part.metal>
0.0000

> <Gold.PLP.part.buried>
-3.6270

> <Gold.PLP.part.nonpolar>
-20.9481

> <Gold.PLP.part.repulsive>
0.3116

> <Gold.PLP.ligand.clash>
0.0000

> <Gold.PLP.ligand.torsion>
0.2555

> <Gold.PLP.Chemscore.Hbond>
2.7000

> <Gold.PLP.Chemscore.CHOScore>
0.0000

> <Gold.PLP.Chemscore.Metal>
0.0000

> <Gold.Chemscore.Hbonds>
donor molecule, donor type, donor heavy atom, donor atom, acceptor molecule, acceptor atom, score
      L1  H     7    24       P1  7948  1.00
      L1  H    10    25       P1  7948  1.00
      P1  H  7989  7998       L1     4  0.70

> <Gold.PLP.Chemscore.Internal.Correction>
0.0133

> <Gold.Rescore>
     Score         DG    S(hbond)    S(metal)    S(lipo)     H(rot)  DE(clash)    DE(int)     intcor
     14.36     -15.69       1.91        0.00      62.62       1.37       0.02       1.30       ----

> <Gold.Chemscore.Fitness>
14.3649

> <Gold.Chemscore.DG>
-15.6852

> <Gold.Chemscore.ZeroCoef>
-5.4800

> <Gold.Chemscore.Hbond>
1.9095

> <Gold.Chemscore.Metal>
0.0000

> <Gold.Chemscore.Lipo>
62.6216

> <Gold.Chemscore.Internal_Hbond>
0.0000

> <Gold.Chemscore.DEClash>
0.0243

> <Gold.Chemscore.DEInternal>
1.2960

> <Gold.Chemscore.Rot>
1.3669

> <Gold.Chemscore.Internal.Correction>
   9.000000E+99

> <Gold.Chemscore.Hbonds>
donor molecule, donor type, donor heavy atom, donor atom, acceptor molecule, acceptor atom, score
      L1  H     7    24       P1  7948  0.97
      L1  H    10    25       P1  7948  0.94
      P1  H  7989  7998       L1     4  0.02

> <Gold.Chemscore.Hbond.Weighted>
-6.3777

> <Gold.Chemscore.Metal.Weighted>
-0.0000

> <Gold.Chemscore.Lipo.Weighted>
-7.3267

> <Gold.Chemscore.Internal_Hbond.Weighted>
0.0000

> <Gold.Chemscore.DEClash.Weighted>
0.0243

> <Gold.Chemscore.DEInternal.Weighted>
1.2960

> <Gold.Chemscore.Rot.Weighted>
3.4992

> <Gold.Chemscore.Internal.Correction.Weighted>
   9.000000E+99

> <Gold.Protein.RotatedTorsions>
[ 6907 6896 6895 6894 ] final -157.23 input  -60.11 | X-H torsion
[ 7974 7965 7964 7962 ] final  -60.43 input  175.53 | X-H torsion
[ 8008 7997 7996 7995 ] final   79.59 input   59.86 | X-H torsion
[ 10167 10162 10161 10158 ] final  113.73 input  -65.29 | X-H torsion
[ 10718 10713 10712 10709 ] final  111.46 input   66.30 | X-H torsion
[ 10763 10752 10751 10750 ] final -168.04 input  -60.55 | X-H torsion
[ 11005 11000 10999 10996 ] final -174.98 input  -57.11 | X-H torsion

> <Gold.Protein.ActiveResidues>
 VAL166  LYS551  ARG553  GLY616  TRP617  ASP618  TYR619  PRO620  LYS621  CYS622 
 ASP623  PHE694  ASN695  SER759  ASP760  ASP761  ALA762  ILE779  LEU786  VAL792 
 PHE793  MET794  SER795  GLU796  ALA797  LYS798  CYS799  TRP800  GLU811  SER814 

> <Gold.Protein.RotatedAtoms>
  151.2997  133.4128  159.2638 H   0  0  0  0  0  0  0  0  0  0  0  0  # atno 6907 bound_to 6896
  151.0206  134.9467  159.8068 H   0  0  0  0  0  0  0  0  0  0  0  0  # atno 6908 bound_to 6896
  152.5323  134.2960  159.9113 H   0  0  0  0  0  0  0  0  0  0  0  0  # atno 6909 bound_to 6896
  145.8156  140.8572  143.0159 H   0  0  0  0  0  0  0  0  0  0  0  0  # atno 7974 bound_to 7965
  155.8718  140.3448  155.5826 H   0  0  0  0  0  0  0  0  0  0  0  0  # atno 8008 bound_to 7997
  155.7819  140.0859  157.2074 H   0  0  0  0  0  0  0  0  0  0  0  0  # atno 8009 bound_to 7997
  154.4018  140.1499  156.3049 H   0  0  0  0  0  0  0  0  0  0  0  0  # atno 8010 bound_to 7997
  139.6440  144.7125  151.2180 H   0  0  0  0  0  0  0  0  0  0  0  0  # atno 10167 bound_to 10162
  157.6443  131.0951  150.6752 H   0  0  0  0  0  0  0  0  0  0  0  0  # atno 10718 bound_to 10713
  154.6670  135.2933  154.9792 H   0  0  0  0  0  0  0  0  0  0  0  0  # atno 10763 bound_to 10752
  154.0833  135.6601  153.4845 H   0  0  0  0  0  0  0  0  0  0  0  0  # atno 10764 bound_to 10752
  153.0463  135.5202  154.7647 H   0  0  0  0  0  0  0  0  0  0  0  0  # atno 10765 bound_to 10752
  140.4685  134.6188  157.4872 H   0  0  0  0  0  0  0  0  0  0  0  0  # atno 11005 bound_to 11000
  144.6753  140.0459  143.7480 LP  0  0  0  0  0  0  0  0  0  0  0  0  # atno 17320 bound_to 7965
  145.9730  139.2884  143.1087 LP  0  0  0  0  0  0  0  0  0  0  0  0  # atno 17321 bound_to 7965
  140.7505  143.6263  150.8465 LP  0  0  0  0  0  0  0  0  0  0  0  0  # atno 17342 bound_to 10162
  139.9904  143.5853  152.2912 LP  0  0  0  0  0  0  0  0  0  0  0  0  # atno 17343 bound_to 10162
  156.7071  130.4641  149.5557 LP  0  0  0  0  0  0  0  0  0  0  0  0  # atno 17370 bound_to 10713
  156.1755  130.6465  151.0889 LP  0  0  0  0  0  0  0  0  0  0  0  0  # atno 17371 bound_to 10713
  139.9900  134.7000  155.9706 LP  0  0  0  0  0  0  0  0  0  0  0  0  # atno 17394 bound_to 11000
  141.1588  133.6540  156.4250 LP  0  0  0  0  0  0  0  0  0  0  0  0  # atno 17395 bound_to 11000

$$$$
