AV-unprocessed.smi:53|AV-procd|sdf|513|dock10
  -GOLD-   2262016383D 1   1.00000     0.00000
 Structure written by MMmdl.
 30 31  0  0  0  0  0  0  0  0  1 V2000
  152.8274  140.8519  158.8985 N   0  0  0  0  0  0  0  0  0  0  0  0
  152.0128  140.9103  157.8354 C   0  0  0  0  0  0  0  0  0  0  0  0
  150.8776  141.8058  157.8328 C   0  0  0  0  0  0  0  0  0  0  0  0
  150.1060  141.8086  156.7234 C   0  0  0  0  0  0  0  0  0  0  0  0
  150.3833  141.0024  155.6287 N   0  0  0  0  0  0  0  0  0  0  0  0
  149.4941  141.0285  154.4035 C   0  0  2  0  0  0  0  0  0  0  0  0
  148.6340  142.1183  154.5061 O   0  0  0  0  0  0  0  0  0  0  0  0
  147.4260  141.8048  153.8308 C   0  0  2  0  0  0  0  0  0  0  0  0
  146.2993  142.7313  154.3134 C   0  0  0  0  0  0  0  0  0  0  0  0
  146.2447  142.7356  155.7239 O   0  0  0  0  0  0  0  0  0  0  0  0
  147.2085  140.3329  154.1995 C   0  0  1  0  0  0  0  0  0  0  0  0
  146.4377  139.6879  153.2046 O   0  0  0  0  0  0  0  0  0  0  0  0
  148.6232  139.7606  154.2468 C   0  0  2  0  0  0  0  0  0  0  0  0
  148.7486  138.8284  155.3063 O   0  0  0  0  0  0  0  0  0  0  0  0
  151.4903  140.1215  155.6677 C   0  0  0  0  0  0  0  0  0  0  0  0
  151.7498  139.3610  154.7360 O   0  0  0  0  0  0  0  0  0  0  0  0
  152.2630  140.1348  156.7980 N   0  0  0  0  0  0  0  0  0  0  0  0
  150.1363  141.2068  153.5390 H   0  0  0  0  0  0  0  0  0  0  0  0
  147.5849  141.9000  152.7542 H   0  0  0  0  0  0  0  0  0  0  0  0
  146.7229  140.2560  155.1740 H   0  0  0  0  0  0  0  0  0  0  0  0
  148.8997  139.2812  153.3065 H   0  0  0  0  0  0  0  0  0  0  0  0
  153.6174  140.2231  158.8990 H   0  0  0  0  0  0  0  0  0  0  0  0
  152.6474  141.4389  159.7005 H   0  0  0  0  0  0  0  0  0  0  0  0
  150.6283  142.4536  158.6609 H   0  0  0  0  0  0  0  0  0  0  0  0
  149.2450  142.4612  156.7048 H   0  0  0  0  0  0  0  0  0  0  0  0
  146.4927  143.7553  153.9924 H   0  0  0  0  0  0  0  0  0  0  0  0
  145.3364  142.4371  153.8947 H   0  0  0  0  0  0  0  0  0  0  0  0
  145.3444  142.8453  155.9896 H   0  0  0  0  0  0  0  0  0  0  0  0
  145.5993  140.1197  153.1461 H   0  0  0  0  0  0  0  0  0  0  0  0
  147.9237  138.7880  155.7660 H   0  0  0  0  0  0  0  0  0  0  0  0
  1  2  1  0  0  0  0
  1 22  1  0  0  0  0
  1 23  1  0  0  0  0
  2 17  2  0  0  0  0
  2  3  1  0  0  0  0
  3  4  2  0  0  0  0
  3 24  1  0  0  0  0
  4  5  1  0  0  0  0
  4 25  1  0  0  0  0
  5  6  1  0  0  0  0
  5 15  1  0  0  0  0
  6 18  1  0  0  0  0
  6 13  1  0  0  0  0
  6  7  1  0  0  0  0
  7  8  1  0  0  0  0
  8 19  1  0  0  0  0
  8  9  1  0  0  0  0
  8 11  1  0  0  0  0
  9 10  1  0  0  0  0
  9 26  1  0  0  0  0
  9 27  1  0  0  0  0
 10 28  1  0  0  0  0
 11 20  1  0  0  0  0
 11 12  1  0  0  0  0
 11 13  1  0  0  0  0
 12 29  1  0  0  0  0
 13 21  1  0  0  0  0
 13 14  1  0  0  0  0
 14 30  1  0  0  0  0
 15 16  2  0  0  0  0
 15 17  1  0  0  0  0
M  END
> <s_m_source_file>
AV-unprocessed.smi

> <i_m_source_file_index>
53

> <i_lp_mmshare_version>
43012

> <i_f3d_flags>
0

> <s_epik_input>
W05IMl1jMVtjSF1bY0hdbihjKD1PKW4xKVtDQEBIXTJPW0NASF0oW0NIMl1bT0hdKVtDQEBIXShbT0hdKVtDQEBIXTJbT0hd

> <s_epik_cmdline>
J2VwaWtfcHl0aG9uJywgJy1waCcsICc3LjAnLCAnLXRuJywgJzgnLCAnLW1hJywgJzIwMCcsICctbWV0YWxfYmluZGluZycsICctaW1hZScsICc8aW5maWxlLm1hZT4nLCAnLW9tYWUnLCAnPG91dGZpbGUubWFlPic=

> <r_lp_tautomer_probability>
0.99996

> <r_epik_Ionization_Penalty>
0.00069087

> <r_epik_Ionization_Penalty_Charging>
2.61959e-08

> <r_epik_Ionization_Penalty_Neutral>
0.000690844

> <r_epik_State_Penalty>
1.15523e-05

> <r_epik_Charging_Adjusted_Penalty>
1.15785e-05

> <i_epik_Tot_Q>
0

> <i_epik_Tot_abs_Q>
0

> <r_epik_Metal_State_Penalty>
-0

> <b_epik_Metal_Only>
0

> <s_epik_Chemistry_Notes>
This compound contains an acetal/aminal-like group ( X-CH(R)-Y where X, Y are N, S, or O) that may be acid/base labile, releasing an aldehyde.

> <s_lp_Force_Field>
OPLS_2005

> <r_lp_Energy>
35.6127

> <b_lp_Chiralities_Consistent>
1

> <s_lp_Variant>
AV-unprocessed.smi:53-1

> <Gold.Version>
5.8.1

> <Gold.Id.Protein>
6NUR|6NUR_protein|mol2

> <Gold.PLP.Fitness>
37.8737

> <Gold.PLP.PLP>
-28.0613

> <Gold.PLP.part.hbond>
-4.1247

> <Gold.PLP.part.metal>
0.0000

> <Gold.PLP.part.buried>
-1.9545

> <Gold.PLP.part.nonpolar>
-23.0648

> <Gold.PLP.part.repulsive>
2.2426

> <Gold.PLP.ligand.clash>
0.0000

> <Gold.PLP.ligand.torsion>
0.2574

> <Gold.PLP.Chemscore.Hbond>
2.3538

> <Gold.PLP.Chemscore.CHOScore>
1.0000

> <Gold.PLP.Chemscore.Metal>
0.0000

> <Gold.Chemscore.Hbonds>
donor molecule, donor type, donor heavy atom, donor atom, acceptor molecule, acceptor atom, score
      L1  H    12    29       P1 10175  0.93
      P1  H  7989  7998       L1    16  0.50
      P1  H  7997  8009       L1    17  0.83
      L1  C     4    25       P1  8028  1.00

> <Gold.PLP.Chemscore.Internal.Correction>
0.2659

> <Gold.Rescore>
     Score         DG    S(hbond)    S(metal)    S(lipo)     H(rot)  DE(clash)    DE(int)     intcor
      4.34      -5.94       1.70        0.00      36.66       3.71       1.10       0.50       ----

> <Gold.Chemscore.Fitness>
4.3428

> <Gold.Chemscore.DG>
-5.9417

> <Gold.Chemscore.ZeroCoef>
-5.4800

> <Gold.Chemscore.Hbond>
1.6971

> <Gold.Chemscore.Metal>
0.0000

> <Gold.Chemscore.Lipo>
36.6649

> <Gold.Chemscore.Internal_Hbond>
0.0000

> <Gold.Chemscore.DEClash>
1.1026

> <Gold.Chemscore.DEInternal>
0.4963

> <Gold.Chemscore.Rot>
3.7095

> <Gold.Chemscore.Internal.Correction>
   9.000000E+99

> <Gold.Chemscore.Hbonds>
donor molecule, donor type, donor heavy atom, donor atom, acceptor molecule, acceptor atom, score
      L1  H    12    29       P1 10175  0.87
      P1  H  7989  7998       L1    16  0.02
      P1  H  7997  8009       L1    17  0.49

> <Gold.Chemscore.Hbond.Weighted>
-5.6683

> <Gold.Chemscore.Metal.Weighted>
-0.0000

> <Gold.Chemscore.Lipo.Weighted>
-4.2898

> <Gold.Chemscore.Internal_Hbond.Weighted>
0.0000

> <Gold.Chemscore.DEClash.Weighted>
1.1026

> <Gold.Chemscore.DEInternal.Weighted>
0.4963

> <Gold.Chemscore.Rot.Weighted>
9.4964

> <Gold.Chemscore.Internal.Correction.Weighted>
   9.000000E+99

> <Gold.Protein.RotatedTorsions>
[ 6907 6896 6895 6894 ] final  -80.86 input  -60.11 | X-H torsion
[ 7974 7965 7964 7962 ] final  148.24 input  175.53 | X-H torsion
[ 8008 7997 7996 7995 ] final -167.06 input   59.86 | X-H torsion
[ 10167 10162 10161 10158 ] final   66.24 input  -65.29 | X-H torsion
[ 10718 10713 10712 10709 ] final  -66.40 input   66.30 | X-H torsion
[ 10763 10752 10751 10750 ] final   46.92 input  -60.55 | X-H torsion
[ 11005 11000 10999 10996 ] final  -40.14 input  -57.11 | X-H torsion

> <Gold.Protein.ActiveResidues>
 VAL166  LYS551  ARG553  GLY616  TRP617  ASP618  TYR619  PRO620  LYS621  CYS622 
 ASP623  PHE694  ASN695  SER759  ASP760  ASP761  ALA762  ILE779  LEU786  VAL792 
 PHE793  MET794  SER795  GLU796  ALA797  LYS798  CYS799  TRP800  GLU811  SER814 

> <Gold.Protein.RotatedAtoms>
  150.6922  134.3905  159.5073 H   0  0  0  0  0  0  0  0  0  0  0  0  # atno 6907 bound_to 6896
  152.1694  134.8844  160.0545 H   0  0  0  0  0  0  0  0  0  0  0  0  # atno 6908 bound_to 6896
  151.9876  133.3744  159.4168 H   0  0  0  0  0  0  0  0  0  0  0  0  # atno 6909 bound_to 6896
  144.8529  139.6129  143.5965 H   0  0  0  0  0  0  0  0  0  0  0  0  # atno 7974 bound_to 7965
  155.8725  140.0996  157.1540 H   0  0  0  0  0  0  0  0  0  0  0  0  # atno 8008 bound_to 7997
  154.3998  140.1344  156.4159 H   0  0  0  0  0  0  0  0  0  0  0  0  # atno 8009 bound_to 7997
  155.7734  140.3460  155.5261 H   0  0  0  0  0  0  0  0  0  0  0  0  # atno 8010 bound_to 7997
  140.1026  144.4890  150.7028 H   0  0  0  0  0  0  0  0  0  0  0  0  # atno 10167 bound_to 10162
  156.0615  130.4261  150.1703 H   0  0  0  0  0  0  0  0  0  0  0  0  # atno 10718 bound_to 10713
  152.9805  135.5992  154.3679 H   0  0  0  0  0  0  0  0  0  0  0  0  # atno 10763 bound_to 10752
  154.3355  135.2768  155.2452 H   0  0  0  0  0  0  0  0  0  0  0  0  # atno 10764 bound_to 10752
  154.4557  135.5978  153.6277 H   0  0  0  0  0  0  0  0  0  0  0  0  # atno 10765 bound_to 10752
  141.0153  133.6888  156.2282 H   0  0  0  0  0  0  0  0  0  0  0  0  # atno 11005 bound_to 11000
  146.2799  139.6851  142.9236 LP  0  0  0  0  0  0  0  0  0  0  0  0  # atno 17320 bound_to 7965
  145.4464  141.0425  143.2829 LP  0  0  0  0  0  0  0  0  0  0  0  0  # atno 17321 bound_to 7965
  140.6969  143.2410  151.4974 LP  0  0  0  0  0  0  0  0  0  0  0  0  # atno 17342 bound_to 10162
  139.5663  144.2035  152.1769 LP  0  0  0  0  0  0  0  0  0  0  0  0  # atno 17343 bound_to 10162
  156.9770  130.9852  151.3446 LP  0  0  0  0  0  0  0  0  0  0  0  0  # atno 17370 bound_to 10713
  157.5626  130.8256  149.8286 LP  0  0  0  0  0  0  0  0  0  0  0  0  # atno 17371 bound_to 10713
  140.6665  134.4913  157.5585 LP  0  0  0  0  0  0  0  0  0  0  0  0  # atno 17394 bound_to 11000
  139.9113  134.8338  156.1517 LP  0  0  0  0  0  0  0  0  0  0  0  0  # atno 17395 bound_to 11000

$$$$
