AV-unprocessed.smi:109|AV-procd|sdf|1058|dock3
  -GOLD-   2262018123D 1   1.00000     0.00000
 Structure written by MMmdl.
 58 61  0  0  0  0  0  0  0  0  1 V2000
  149.4951  140.9430  153.4799 O   0  0  0  0  0  0  0  0  0  0  0  0
  149.1785  140.8283  154.8504 C   0  0  0  0  0  0  0  0  0  0  0  0
  150.4294  141.1030  155.7002 C   0  0  0  0  0  0  0  0  0  0  0  0
  150.1803  140.9266  157.2148 C   0  0  1  0  0  0  0  0  0  0  0  0
  150.4552  139.5435  157.6032 N   0  0  0  0  0  0  0  0  0  0  0  0
  150.7356  138.5900  156.6871 C   0  0  0  0  0  0  0  0  0  0  0  0
  151.7450  138.7430  155.7901 N   0  0  0  0  0  0  0  0  0  0  0  0
  152.0023  137.7796  154.9001 C   0  0  0  0  0  0  0  0  0  0  0  0
  151.3863  136.6060  154.7388 N   0  0  0  0  0  0  0  0  0  0  0  0
  150.3726  136.4491  155.6385 C   0  0  0  0  0  0  0  0  0  0  0  0
  149.9865  137.3865  156.6355 C   0  0  0  0  0  0  0  0  0  0  0  0
  148.9189  136.8811  157.3661 N   0  0  0  0  0  0  0  0  0  0  0  0
  148.6943  135.7109  156.8304 C   0  0  0  0  0  0  0  0  0  0  0  0
  149.5195  135.3766  155.7761 N   0  0  0  0  0  0  0  0  0  0  0  0
  149.5521  134.1314  154.9455 C   0  0  1  0  0  0  0  0  0  0  0  0
  150.1053  133.1084  155.7221 O   0  0  0  0  0  0  0  0  0  0  0  0
  149.0537  132.3012  156.2320 C   0  0  2  0  0  0  0  0  0  0  0  0
  149.5493  130.9916  156.8816 C   0  0  0  0  0  0  0  0  0  0  0  0
  150.2617  130.1521  155.9973 O   0  0  0  0  0  0  0  0  0  0  0  0
  148.0246  132.2692  155.0944 C   0  0  2  0  0  0  0  0  0  0  0  0
  148.3665  131.3245  154.0950 O   0  0  0  0  0  0  0  0  0  0  0  0
  148.1104  133.7093  154.5818 C   0  0  2  0  0  0  0  0  0  0  0  0
  147.8266  133.8232  153.1999 O   0  0  0  0  0  0  0  0  0  0  0  0
  150.9731  141.9217  158.1074 C   0  0  0  0  0  0  0  0  0  0  0  0
  151.1703  143.2987  157.4364 C   0  0  0  0  0  0  0  0  0  0  0  0
  151.8688  144.2901  158.3817 C   0  0  0  0  0  0  0  0  0  0  0  0
  153.2117  143.7329  158.8790 C   0  0  0  0  0  0  0  0  0  0  0  0
  153.0285  142.3619  159.5482 C   0  0  0  0  0  0  0  0  0  0  0  0
  152.3289  141.3698  158.6045 C   0  0  0  0  0  0  0  0  0  0  0  0
  150.1913  134.3737  154.0954 H   0  0  0  0  0  0  0  0  0  0  0  0
  148.6039  132.8785  157.0422 H   0  0  0  0  0  0  0  0  0  0  0  0
  147.0266  132.0294  155.4627 H   0  0  0  0  0  0  0  0  0  0  0  0
  147.4023  134.3272  155.1366 H   0  0  0  0  0  0  0  0  0  0  0  0
  149.2633  140.1343  153.0496 H   0  0  0  0  0  0  0  0  0  0  0  0
  148.3862  141.5371  155.0922 H   0  0  0  0  0  0  0  0  0  0  0  0
  148.7890  139.8271  155.0370 H   0  0  0  0  0  0  0  0  0  0  0  0
  151.2396  140.4494  155.3744 H   0  0  0  0  0  0  0  0  0  0  0  0
  150.7581  142.1206  155.4938 H   0  0  0  0  0  0  0  0  0  0  0  0
  149.1187  141.1196  157.3747 H   0  0  0  0  0  0  0  0  0  0  0  0
  150.4368  139.3576  158.5957 H   0  0  0  0  0  0  0  0  0  0  0  0
  152.8187  137.9772  154.2213 H   0  0  0  0  0  0  0  0  0  0  0  0
  147.9143  135.0604  157.1976 H   0  0  0  0  0  0  0  0  0  0  0  0
  150.1852  131.2192  157.7374 H   0  0  0  0  0  0  0  0  0  0  0  0
  148.6977  130.4280  157.2635 H   0  0  0  0  0  0  0  0  0  0  0  0
  149.7059  129.9499  155.2601 H   0  0  0  0  0  0  0  0  0  0  0  0
  147.5692  130.9592  153.7426 H   0  0  0  0  0  0  0  0  0  0  0  0
  147.8872  134.7346  152.9571 H   0  0  0  0  0  0  0  0  0  0  0  0
  150.3647  142.1080  158.9936 H   0  0  0  0  0  0  0  0  0  0  0  0
  151.7649  143.2013  156.5284 H   0  0  0  0  0  0  0  0  0  0  0  0
  150.2058  143.7063  157.1320 H   0  0  0  0  0  0  0  0  0  0  0  0
  152.0270  145.2409  157.8718 H   0  0  0  0  0  0  0  0  0  0  0  0
  151.2220  144.5004  159.2343 H   0  0  0  0  0  0  0  0  0  0  0  0
  153.9030  143.6412  158.0402 H   0  0  0  0  0  0  0  0  0  0  0  0
  153.6679  144.4318  159.5807 H   0  0  0  0  0  0  0  0  0  0  0  0
  153.9973  141.9643  159.8520 H   0  0  0  0  0  0  0  0  0  0  0  0
  152.4416  142.4755  160.4604 H   0  0  0  0  0  0  0  0  0  0  0  0
  152.1849  140.4206  159.1213 H   0  0  0  0  0  0  0  0  0  0  0  0
  152.9859  141.1659  157.7588 H   0  0  0  0  0  0  0  0  0  0  0  0
  1  2  1  0  0  0  0
  1 34  1  0  0  0  0
  2  3  1  0  0  0  0
  2 35  1  0  0  0  0
  2 36  1  0  0  0  0
  3  4  1  0  0  0  0
  3 37  1  0  0  0  0
  3 38  1  0  0  0  0
  4  5  1  0  0  0  0
  4 24  1  0  0  0  0
  4 39  1  0  0  0  0
  5  6  1  0  0  0  0
  5 40  1  0  0  0  0
  6 11  1  0  0  0  0
  6  7  2  0  0  0  0
  7  8  1  0  0  0  0
  8  9  2  0  0  0  0
  8 41  1  0  0  0  0
  9 10  1  0  0  0  0
 10 14  1  0  0  0  0
 10 11  2  0  0  0  0
 11 12  1  0  0  0  0
 12 13  2  0  0  0  0
 13 14  1  0  0  0  0
 13 42  1  0  0  0  0
 14 15  1  0  0  0  0
 15 30  1  0  0  0  0
 15 22  1  0  0  0  0
 15 16  1  0  0  0  0
 16 17  1  0  0  0  0
 17 31  1  0  0  0  0
 17 18  1  0  0  0  0
 17 20  1  0  0  0  0
 18 19  1  0  0  0  0
 18 43  1  0  0  0  0
 18 44  1  0  0  0  0
 19 45  1  0  0  0  0
 20 32  1  0  0  0  0
 20 21  1  0  0  0  0
 20 22  1  0  0  0  0
 21 46  1  0  0  0  0
 22 33  1  0  0  0  0
 22 23  1  0  0  0  0
 23 47  1  0  0  0  0
 24 29  1  0  0  0  0
 24 25  1  0  0  0  0
 24 48  1  0  0  0  0
 25 26  1  0  0  0  0
 25 49  1  0  0  0  0
 25 50  1  0  0  0  0
 26 27  1  0  0  0  0
 26 51  1  0  0  0  0
 26 52  1  0  0  0  0
 27 28  1  0  0  0  0
 27 53  1  0  0  0  0
 27 54  1  0  0  0  0
 28 29  1  0  0  0  0
 28 55  1  0  0  0  0
 28 56  1  0  0  0  0
 29 57  1  0  0  0  0
 29 58  1  0  0  0  0
M  END
> <s_m_source_file>
AV-unprocessed.smi

> <i_m_source_file_index>
109

> <i_lp_mmshare_version>
43012

> <i_f3d_flags>
0

> <s_epik_input>
W0NIMl0xW0NIMl1bQ0gyXVtDSDJdW0NIMl1bQ0hdMVtDQEhdKFtDSDJdW0NIMl1bT0hdKVtOSF1jKG5bY0hdbjIpYyhjMjMpbltjSF1uM1tDQEBIXTRPW0NASF0oW0NIMl1bT0hdKVtDQEBIXShbT0hdKVtDQEhdNFtPSF0=

> <s_epik_cmdline>
J2VwaWtfcHl0aG9uJywgJy1waCcsICc3LjAnLCAnLXRuJywgJzgnLCAnLW1hJywgJzIwMCcsICctbWV0YWxfYmluZGluZycsICctaW1hZScsICc8aW5maWxlLm1hZT4nLCAnLW9tYWUnLCAnPG91dGZpbGUubWFlPic=

> <r_lp_tautomer_probability>
1

> <r_epik_Ionization_Penalty>
0.000793976

> <r_epik_Ionization_Penalty_Charging>
0

> <r_epik_Ionization_Penalty_Neutral>
0.000793976

> <r_epik_State_Penalty>
-0

> <r_epik_Charging_Adjusted_Penalty>
0

> <i_epik_Tot_Q>
0

> <i_epik_Tot_abs_Q>
0

> <r_epik_Metal_State_Penalty>
-0

> <b_epik_Metal_Only>
0

> <s_epik_Chemistry_Notes>
This compound contains an acetal/aminal-like group ( X-CH(R)-Y where X, Y are N, S, or O) that may be acid/base labile, releasing an aldehyde.

> <s_lp_Force_Field>
OPLS_2005

> <r_lp_Energy>
57.9674

> <b_lp_Chiralities_Consistent>
1

> <s_lp_Variant>
AV-unprocessed.smi:109-28

> <Gold.Version>
5.8.1

> <Gold.Id.Protein>
6NUR|6NUR_protein|mol2

> <Gold.PLP.Fitness>
50.1615

> <Gold.PLP.PLP>
-46.3180

> <Gold.PLP.part.hbond>
-5.0000

> <Gold.PLP.part.metal>
0.0000

> <Gold.PLP.part.buried>
-3.9436

> <Gold.PLP.part.nonpolar>
-36.7223

> <Gold.PLP.part.repulsive>
0.2775

> <Gold.PLP.ligand.clash>
2.8714

> <Gold.PLP.ligand.torsion>
2.1147

> <Gold.PLP.Chemscore.Hbond>
3.5769

> <Gold.PLP.Chemscore.CHOScore>
0.0000

> <Gold.PLP.Chemscore.Metal>
0.0000

> <Gold.Chemscore.Hbonds>
donor molecule, donor type, donor heavy atom, donor atom, acceptor molecule, acceptor atom, score
      L1  H     1    34       P1  7957  0.32
      L1  H    23    47       P1  7948  0.74
      P1  H  7989  7998       L1     1  0.23
      P1  H  8011  8017       L1     1  1.00
      P1  H 10752 10763       L1     9  0.75

> <Gold.PLP.Chemscore.Internal.Correction>
0.2136

> <Gold.Rescore>
     Score         DG    S(hbond)    S(metal)    S(lipo)     H(rot)  DE(clash)    DE(int)     intcor
      9.49     -13.09       2.68        0.00     107.97       5.47       0.11       3.49       ----

> <Gold.Chemscore.Fitness>
9.4866

> <Gold.Chemscore.DG>
-13.0856

> <Gold.Chemscore.ZeroCoef>
-5.4800

> <Gold.Chemscore.Hbond>
2.6847

> <Gold.Chemscore.Metal>
0.0000

> <Gold.Chemscore.Lipo>
107.9671

> <Gold.Chemscore.Internal_Hbond>
0.0000

> <Gold.Chemscore.DEClash>
0.1081

> <Gold.Chemscore.DEInternal>
3.4909

> <Gold.Chemscore.Rot>
5.4662

> <Gold.Chemscore.Internal.Correction>
   9.000000E+99

> <Gold.Chemscore.Hbonds>
donor molecule, donor type, donor heavy atom, donor atom, acceptor molecule, acceptor atom, score
      L1  H     1    34       P1  7957  0.32
      L1  H    23    47       P1  7948  0.63
      P1  H  7989  7998       L1     1  0.04
      P1  H  8011  8017       L1     1  0.89
      P1  H 10752 10763       L1     9  0.09

> <Gold.Chemscore.Hbond.Weighted>
-8.9669

> <Gold.Chemscore.Metal.Weighted>
-0.0000

> <Gold.Chemscore.Lipo.Weighted>
-12.6322

> <Gold.Chemscore.Internal_Hbond.Weighted>
0.0000

> <Gold.Chemscore.DEClash.Weighted>
0.1081

> <Gold.Chemscore.DEInternal.Weighted>
3.4909

> <Gold.Chemscore.Rot.Weighted>
13.9935

> <Gold.Chemscore.Internal.Correction.Weighted>
   9.000000E+99

> <Gold.Protein.RotatedTorsions>
[ 6907 6896 6895 6894 ] final   62.83 input  -60.11 | X-H torsion
[ 7974 7965 7964 7962 ] final   70.18 input  175.53 | X-H torsion
[ 8008 7997 7996 7995 ] final  -66.82 input   59.86 | X-H torsion
[ 10167 10162 10161 10158 ] final -171.57 input  -65.29 | X-H torsion
[ 10718 10713 10712 10709 ] final  -80.75 input   66.30 | X-H torsion
[ 10763 10752 10751 10750 ] final   35.80 input  -60.55 | X-H torsion
[ 11005 11000 10999 10996 ] final -112.78 input  -57.11 | X-H torsion

> <Gold.Protein.ActiveResidues>
 VAL166  LYS551  ARG553  GLY616  TRP617  ASP618  TYR619  PRO620  LYS621  CYS622 
 ASP623  PHE694  ASN695  SER759  ASP760  ASP761  ALA762  ILE779  LEU786  VAL792 
 PHE793  MET794  SER795  GLU796  ALA797  LYS798  CYS799  TRP800  GLU811  SER814 

> <Gold.Protein.RotatedAtoms>
  152.4204  134.5965  159.9988 H   0  0  0  0  0  0  0  0  0  0  0  0  # atno 6907 bound_to 6896
  151.6116  133.3341  159.3076 H   0  0  0  0  0  0  0  0  0  0  0  0  # atno 6908 bound_to 6896
  150.8093  134.7275  159.6738 H   0  0  0  0  0  0  0  0  0  0  0  0  # atno 6909 bound_to 6896
  145.7813  139.2889  143.1264 H   0  0  0  0  0  0  0  0  0  0  0  0  # atno 7974 bound_to 7965
  154.4759  140.0905  156.7261 H   0  0  0  0  0  0  0  0  0  0  0  0  # atno 8008 bound_to 7997
  155.4597  140.3460  155.4293 H   0  0  0  0  0  0  0  0  0  0  0  0  # atno 8009 bound_to 7997
  156.1116  140.1449  156.9319 H   0  0  0  0  0  0  0  0  0  0  0  0  # atno 8010 bound_to 7997
  139.5794  144.1457  152.1495 H   0  0  0  0  0  0  0  0  0  0  0  0  # atno 10167 bound_to 10162
  156.0064  130.4583  150.3848 H   0  0  0  0  0  0  0  0  0  0  0  0  # atno 10718 bound_to 10713
  153.0103  135.6323  154.1884 H   0  0  0  0  0  0  0  0  0  0  0  0  # atno 10763 bound_to 10752
  154.1627  135.2822  155.3106 H   0  0  0  0  0  0  0  0  0  0  0  0  # atno 10764 bound_to 10752
  154.5969  135.5600  153.7395 H   0  0  0  0  0  0  0  0  0  0  0  0  # atno 10765 bound_to 10752
  141.0655  133.9466  157.2587 H   0  0  0  0  0  0  0  0  0  0  0  0  # atno 11005 bound_to 11000
  146.0071  140.8468  142.9989 LP  0  0  0  0  0  0  0  0  0  0  0  0  # atno 17320 bound_to 7965
  144.6796  140.2436  143.7340 LP  0  0  0  0  0  0  0  0  0  0  0  0  # atno 17321 bound_to 7965
  140.1007  144.5542  150.6991 LP  0  0  0  0  0  0  0  0  0  0  0  0  # atno 17342 bound_to 10162
  140.7074  143.2478  151.4685 LP  0  0  0  0  0  0  0  0  0  0  0  0  # atno 17343 bound_to 10162
  157.1926  131.0419  151.2692 LP  0  0  0  0  0  0  0  0  0  0  0  0  # atno 17370 bound_to 10713
  157.4047  130.7352  149.6793 LP  0  0  0  0  0  0  0  0  0  0  0  0  # atno 17371 bound_to 10713
  139.9472  135.0182  156.8887 LP  0  0  0  0  0  0  0  0  0  0  0  0  # atno 17394 bound_to 11000
  140.5783  134.0377  155.7455 LP  0  0  0  0  0  0  0  0  0  0  0  0  # atno 17395 bound_to 11000

$$$$
