AV-unprocessed.smi:1280|AV-procd|sdf|5358|dock4
  -GOLD-   22720 4493D 1   1.00000     0.00000
 Structure written by MMmdl.
 44 45  0  0  0  0  0  0  0  0  2 V2000
  153.9786  138.2762  154.3718 C   0  0  0  0  0  0  0  0  0  0  0  0
  152.4690  138.4872  155.3967 S   0  0  0  0  0  0  0  0  0  0  0  0
  152.9337  139.0048  156.6939 O   0  0  0  0  0  0  0  0  0  0  0  0
  151.5701  139.3488  154.6118 O   0  0  0  0  0  0  0  0  0  0  0  0
  151.9504  136.9543  155.4832 N   0  5  0  0  0  0  0  0  0  0  0  0
  150.6884  136.5962  154.8575 C   0  0  0  0  0  0  0  0  0  0  0  0
  150.3178  135.1363  155.1891 C   0  0  0  0  0  0  0  0  0  0  0  0
  148.8175  134.8844  155.4623 C   0  0  0  0  0  0  0  0  0  0  0  0
  148.1132  134.5295  154.2349 N   0  0  0  0  0  0  0  0  0  0  0  0
  147.0827  133.6719  154.1520 C   0  0  0  0  0  0  0  0  0  0  0  0
  146.6277  133.0559  155.1156 O   0  0  0  0  0  0  0  0  0  0  0  0
  146.5387  133.4360  152.7681 C   0  0  0  0  0  0  0  0  0  0  0  0
  146.2735  134.5555  151.9484 C   0  0  0  0  0  0  0  0  0  0  0  0
  145.7513  134.3634  150.6571 C   0  0  0  0  0  0  0  0  0  0  0  0
  145.5182  133.0472  150.2239 C   0  0  0  0  0  0  0  0  0  0  0  0
  145.7857  131.9644  150.9812 N   0  0  0  0  0  0  0  0  0  0  0  0
  146.2956  132.1376  152.2267 C   0  0  0  0  0  0  0  0  0  0  0  0
  146.6297  130.9670  152.9374 N   0  0  0  0  0  0  0  0  0  0  0  0
  146.1770  129.6977  152.3767 C   0  0  0  0  0  0  0  0  0  0  0  0
  146.4508  128.5597  153.3739 C   0  0  0  0  0  0  0  0  0  0  0  0
  147.8379  128.5381  153.6982 O   0  0  0  0  0  0  0  0  0  0  0  0
  148.2629  129.7501  154.3149 C   0  0  0  0  0  0  0  0  0  0  0  0
  148.0244  130.9343  153.3618 C   0  0  0  0  0  0  0  0  0  0  0  0
  154.4510  139.2465  154.2229 H   0  0  0  0  0  0  0  0  0  0  0  0
  153.7055  137.8531  153.4054 H   0  0  0  0  0  0  0  0  0  0  0  0
  154.6733  137.6081  154.8800 H   0  0  0  0  0  0  0  0  0  0  0  0
  149.8814  137.2432  155.2021 H   0  0  0  0  0  0  0  0  0  0  0  0
  150.7204  136.7161  153.7740 H   0  0  0  0  0  0  0  0  0  0  0  0
  150.6667  134.4803  154.3901 H   0  0  0  0  0  0  0  0  0  0  0  0
  150.8770  134.8457  156.0783 H   0  0  0  0  0  0  0  0  0  0  0  0
  148.6848  134.0564  156.1609 H   0  0  0  0  0  0  0  0  0  0  0  0
  148.3398  135.7538  155.9198 H   0  0  0  0  0  0  0  0  0  0  0  0
  148.4297  134.9715  153.3841 H   0  0  0  0  0  0  0  0  0  0  0  0
  146.4548  135.5583  152.3075 H   0  0  0  0  0  0  0  0  0  0  0  0
  145.5320  135.2049  150.0168 H   0  0  0  0  0  0  0  0  0  0  0  0
  145.1152  132.8576  149.2401 H   0  0  0  0  0  0  0  0  0  0  0  0
  145.1112  129.7520  152.1511 H   0  0  0  0  0  0  0  0  0  0  0  0
  146.6996  129.4969  151.4403 H   0  0  0  0  0  0  0  0  0  0  0  0
  145.8550  128.6829  154.2800 H   0  0  0  0  0  0  0  0  0  0  0  0
  146.1730  127.6012  152.9360 H   0  0  0  0  0  0  0  0  0  0  0  0
  147.7305  129.8946  155.2553 H   0  0  0  0  0  0  0  0  0  0  0  0
  149.3223  129.6725  154.5596 H   0  0  0  0  0  0  0  0  0  0  0  0
  148.6629  130.8405  152.4823 H   0  0  0  0  0  0  0  0  0  0  0  0
  148.2969  131.8671  153.8566 H   0  0  0  0  0  0  0  0  0  0  0  0
  1  2  1  0  0  0  0
  1 24  1  0  0  0  0
  1 25  1  0  0  0  0
  1 26  1  0  0  0  0
  2  3  2  0  0  0  0
  2  4  2  0  0  0  0
  2  5  1  0  0  0  0
  5  6  1  0  0  0  0
  6  7  1  0  0  0  0
  6 27  1  0  0  0  0
  6 28  1  0  0  0  0
  7  8  1  0  0  0  0
  7 29  1  0  0  0  0
  7 30  1  0  0  0  0
  8  9  1  0  0  0  0
  8 31  1  0  0  0  0
  8 32  1  0  0  0  0
  9 10  1  0  0  0  0
  9 33  1  0  0  0  0
 10 11  2  0  0  0  0
 10 12  1  0  0  0  0
 12 17  1  0  0  0  0
 12 13  2  0  0  0  0
 13 14  1  0  0  0  0
 13 34  1  0  0  0  0
 14 15  2  0  0  0  0
 14 35  1  0  0  0  0
 15 16  1  0  0  0  0
 15 36  1  0  0  0  0
 16 17  2  0  0  0  0
 17 18  1  0  0  0  0
 18 23  1  0  0  0  0
 18 19  1  0  0  0  0
 19 20  1  0  0  0  0
 19 37  1  0  0  0  0
 19 38  1  0  0  0  0
 20 21  1  0  0  0  0
 20 39  1  0  0  0  0
 20 40  1  0  0  0  0
 21 22  1  0  0  0  0
 22 23  1  0  0  0  0
 22 41  1  0  0  0  0
 22 42  1  0  0  0  0
 23 43  1  0  0  0  0
 23 44  1  0  0  0  0
M  CHG  1   5  -1
M  END
> <s_m_source_file>
AV-unprocessed.smi

> <i_m_source_file_index>
1280

> <i_lp_mmshare_version>
43012

> <i_f3d_flags>
0

> <s_epik_input>
W0NIM11TKD1PKSg9TylbTkhdW0NIMl1bQ0gyXVtDSDJdW05IXUMoPU8pYzFbY0hdW2NIXVtjSF1uYzFOMltDSDJdW0NIMl1PW0NIMl1bQ0gyXTI=

> <s_epik_cmdline>
J2VwaWtfcHl0aG9uJywgJy1waCcsICc3LjAnLCAnLXRuJywgJzgnLCAnLW1hJywgJzIwMCcsICctbWV0YWxfYmluZGluZycsICctaW1hZScsICc8aW5maWxlLm1hZT4nLCAnLW9tYWUnLCAnPG91dGZpbGUubWFlPic=

> <r_lp_tautomer_probability>
1

> <r_epik_Ionization_Penalty>
6.65739

> <r_epik_Ionization_Penalty_Charging>
6.65737

> <r_epik_Ionization_Penalty_Neutral>
1.70916e-05

> <r_epik_State_Penalty>
6.65736

> <r_epik_Charging_Adjusted_Penalty>
13.3147

> <i_epik_Tot_Q>
-1

> <i_epik_Tot_abs_Q>
1

> <r_epik_Metal_State_Penalty>
2.58004

> <b_epik_Metal_Only>
1

> <s_lp_Force_Field>
OPLS_2005

> <r_lp_Energy>
24.7135

> <b_lp_Chiralities_Consistent>
1

> <s_lp_Variant>
AV-unprocessed.smi:1280-2

> <Gold.Version>
5.8.1

> <Gold.Id.Protein>
6NUR|6NUR_protein|mol2

> <Gold.PLP.Fitness>
43.4437

> <Gold.PLP.PLP>
-30.3716

> <Gold.PLP.part.hbond>
-4.0000

> <Gold.PLP.part.metal>
0.0000

> <Gold.PLP.part.buried>
-1.2966

> <Gold.PLP.part.nonpolar>
-25.1802

> <Gold.PLP.part.repulsive>
0.5177

> <Gold.PLP.ligand.clash>
0.0000

> <Gold.PLP.ligand.torsion>
2.0742

> <Gold.PLP.Chemscore.Hbond>
5.0000

> <Gold.PLP.Chemscore.CHOScore>
0.3286

> <Gold.PLP.Chemscore.Metal>
0.0000

> <Gold.Chemscore.Hbonds>
donor molecule, donor type, donor heavy atom, donor atom, acceptor molecule, acceptor atom, score
      L1  H     9    33       P1  7948  1.00
      P1  H  7989  7998       L1     4  1.00
      P1  H  7997  8009       L1     3  1.00
      P1  H 10752 10765       L1     5  2.00
      L1  C    15    36       P1  7921  0.28

> <Gold.PLP.Chemscore.Internal.Correction>
1.2347

> <Gold.Rescore>
     Score         DG    S(hbond)    S(metal)    S(lipo)     H(rot)  DE(clash)    DE(int)     intcor
     14.67     -19.21       3.17        0.00      74.11       2.16       1.39       3.14       ----

> <Gold.Chemscore.Fitness>
14.6725

> <Gold.Chemscore.DG>
-19.2085

> <Gold.Chemscore.ZeroCoef>
-5.4800

> <Gold.Chemscore.Hbond>
3.1664

> <Gold.Chemscore.Metal>
0.0000

> <Gold.Chemscore.Lipo>
74.1076

> <Gold.Chemscore.Internal_Hbond>
0.0000

> <Gold.Chemscore.DEClash>
1.3921

> <Gold.Chemscore.DEInternal>
3.1440

> <Gold.Chemscore.Rot>
2.1554

> <Gold.Chemscore.Internal.Correction>
   9.000000E+99

> <Gold.Chemscore.Hbonds>
donor molecule, donor type, donor heavy atom, donor atom, acceptor molecule, acceptor atom, score
      L1  H     9    33       P1  7948  0.81
      P1  H  7989  7998       L1     4  0.99
      P1  H  7997  8009       L1     3  0.95
      P1  H 10752 10765       L1     5  0.28

> <Gold.Chemscore.Hbond.Weighted>
-10.5757

> <Gold.Chemscore.Metal.Weighted>
-0.0000

> <Gold.Chemscore.Lipo.Weighted>
-8.6706

> <Gold.Chemscore.Internal_Hbond.Weighted>
0.0000

> <Gold.Chemscore.DEClash.Weighted>
1.3921

> <Gold.Chemscore.DEInternal.Weighted>
3.1440

> <Gold.Chemscore.Rot.Weighted>
5.5178

> <Gold.Chemscore.Internal.Correction.Weighted>
   9.000000E+99

> <Gold.Protein.RotatedTorsions>
[ 6907 6896 6895 6894 ] final  -78.77 input  -60.11 | X-H torsion
[ 7974 7965 7964 7962 ] final   54.11 input  175.53 | X-H torsion
[ 8008 7997 7996 7995 ] final  167.02 input   59.86 | X-H torsion
[ 10167 10162 10161 10158 ] final   88.83 input  -65.29 | X-H torsion
[ 10718 10713 10712 10709 ] final  -91.85 input   66.30 | X-H torsion
[ 10763 10752 10751 10750 ] final -162.10 input  -60.55 | X-H torsion
[ 11005 11000 10999 10996 ] final    6.71 input  -57.11 | X-H torsion

> <Gold.Protein.ActiveResidues>
 VAL166  LYS551  ARG553  GLY616  TRP617  ASP618  TYR619  PRO620  LYS621  CYS622 
 ASP623  PHE694  ASN695  SER759  ASP760  ASP761  ALA762  ILE779  LEU786  VAL792 
 PHE793  MET794  SER795  GLU796  ALA797  LYS798  CYS799  TRP800  GLU811  SER814 

> <Gold.Protein.RotatedAtoms>
  150.6965  134.4222  159.5209 H   0  0  0  0  0  0  0  0  0  0  0  0  # atno 6907 bound_to 6896
  152.1963  134.8625  160.0521 H   0  0  0  0  0  0  0  0  0  0  0  0  # atno 6908 bound_to 6896
  151.9562  133.3646  159.4055 H   0  0  0  0  0  0  0  0  0  0  0  0  # atno 6909 bound_to 6896
  145.9643  139.4088  143.0229 H   0  0  0  0  0  0  0  0  0  0  0  0  # atno 7974 bound_to 7965
  156.1669  140.1628  156.8515 H   0  0  0  0  0  0  0  0  0  0  0  0  # atno 8008 bound_to 7997
  154.5217  140.0777  156.8219 H   0  0  0  0  0  0  0  0  0  0  0  0  # atno 8009 bound_to 7997
  155.3592  140.3394  155.4243 H   0  0  0  0  0  0  0  0  0  0  0  0  # atno 8010 bound_to 7997
  139.8634  144.6532  150.9032 H   0  0  0  0  0  0  0  0  0  0  0  0  # atno 10167 bound_to 10162
  155.9997  130.4964  150.5537 H   0  0  0  0  0  0  0  0  0  0  0  0  # atno 10718 bound_to 10713
  154.7244  135.3033  154.8994 H   0  0  0  0  0  0  0  0  0  0  0  0  # atno 10763 bound_to 10752
  153.9856  135.6725  153.4756 H   0  0  0  0  0  0  0  0  0  0  0  0  # atno 10764 bound_to 10752
  153.0862  135.4983  154.8520 H   0  0  0  0  0  0  0  0  0  0  0  0  # atno 10765 bound_to 10752
  140.5564  134.0234  155.7955 H   0  0  0  0  0  0  0  0  0  0  0  0  # atno 11005 bound_to 11000
  145.7996  140.9777  143.1006 LP  0  0  0  0  0  0  0  0  0  0  0  0  # atno 17320 bound_to 7965
  144.6822  139.9785  143.7483 LP  0  0  0  0  0  0  0  0  0  0  0  0  # atno 17321 bound_to 7965
  140.7772  143.3725  151.1623 LP  0  0  0  0  0  0  0  0  0  0  0  0  # atno 17342 bound_to 10162
  139.7352  143.9010  152.3032 LP  0  0  0  0  0  0  0  0  0  0  0  0  # atno 17343 bound_to 10162
  157.3456  131.0724  151.1754 LP  0  0  0  0  0  0  0  0  0  0  0  0  # atno 17370 bound_to 10713
  157.2587  130.6648  149.5964 LP  0  0  0  0  0  0  0  0  0  0  0  0  # atno 17371 bound_to 10713
  141.1141  133.9569  157.2856 LP  0  0  0  0  0  0  0  0  0  0  0  0  # atno 17394 bound_to 11000
  139.9429  135.0188  156.8764 LP  0  0  0  0  0  0  0  0  0  0  0  0  # atno 17395 bound_to 11000

$$$$
