AV-unprocessed.smi:2124|AV-procd|sdf|8670|dock4
  -GOLD-   2272011423D 1   1.00000     0.00000
 Structure written by MMmdl.
 46 48  0  0  0  0  0  0  0  0  2 V2000
  146.6862  136.6667  162.4654 C   0  0  0  0  0  0  0  0  0  0  0  0
  147.0525  136.5003  161.0062 C   0  0  0  0  0  0  0  0  0  0  0  0
  146.1310  136.2477  160.1566 N   0  0  0  0  0  0  0  0  0  0  0  0
  146.4647  136.0862  158.8011 C   0  0  0  0  0  0  0  0  0  0  0  0
  145.3074  135.7811  157.8662 C   0  0  0  0  0  0  0  0  0  0  0  0
  147.7559  136.1943  158.3754 C   0  0  0  0  0  0  0  0  0  0  0  0
  148.1820  136.0255  156.9178 C   0  0  0  0  0  0  0  0  0  0  0  0
  148.0427  134.6148  156.3403 C   0  0  0  0  0  0  0  0  0  0  0  0
  148.1725  133.6265  157.0630 O   0  0  0  0  0  0  0  0  0  0  0  0
  147.7772  134.5389  155.0272 N   0  0  0  0  0  0  0  0  0  0  0  0
  147.5750  133.3067  154.2674 C   0  0  2  0  0  0  0  0  0  0  0  0
  148.8045  133.0601  153.3729 C   0  0  0  0  0  0  0  0  0  0  0  0
  146.2570  133.4132  153.4606 C   0  0  2  0  0  0  0  0  0  0  0  0
  145.8208  132.0790  152.8028 C   0  0  0  0  0  0  0  0  0  0  0  0
  145.6165  132.4598  151.3264 C   0  0  1  0  0  0  0  0  0  0  0  0
  144.3814  133.3692  151.1935 C   0  0  0  0  0  0  0  0  0  0  0  0
  144.8746  134.6975  151.7968 C   0  0  0  0  0  0  0  0  0  0  0  0
  146.3131  134.3598  152.2342 C   0  0  2  0  0  0  0  0  0  0  0  0
  146.7614  133.4383  151.1045 C   0  0  0  0  0  0  0  0  0  0  0  0
  148.7863  136.4967  159.3842 C   0  0  0  0  0  0  0  0  0  0  0  0
  149.9630  136.6250  159.0475 O   0  0  0  0  0  0  0  0  0  0  0  0
  148.3839  136.6302  160.6802 N   0  5  0  0  0  0  0  0  0  0  0  0
  145.6105  136.8005  162.5865 H   0  0  0  0  0  0  0  0  0  0  0  0
  147.1864  137.5382  162.8890 H   0  0  0  0  0  0  0  0  0  0  0  0
  146.9884  135.7849  163.0307 H   0  0  0  0  0  0  0  0  0  0  0  0
  145.4095  134.7797  157.4479 H   0  0  0  0  0  0  0  0  0  0  0  0
  145.2739  136.4986  157.0465 H   0  0  0  0  0  0  0  0  0  0  0  0
  144.3528  135.8301  158.3909 H   0  0  0  0  0  0  0  0  0  0  0  0
  147.6351  136.7343  156.2942 H   0  0  0  0  0  0  0  0  0  0  0  0
  149.2264  136.3169  156.8111 H   0  0  0  0  0  0  0  0  0  0  0  0
  147.6849  135.4054  154.5171 H   0  0  0  0  0  0  0  0  0  0  0  0
  147.4851  132.4747  154.9677 H   0  0  0  0  0  0  0  0  0  0  0  0
  148.7390  132.1096  152.8455 H   0  0  0  0  0  0  0  0  0  0  0  0
  149.7209  133.0297  153.9632 H   0  0  0  0  0  0  0  0  0  0  0  0
  148.9177  133.8482  152.6279 H   0  0  0  0  0  0  0  0  0  0  0  0
  145.4753  133.7512  154.1431 H   0  0  0  0  0  0  0  0  0  0  0  0
  146.6002  131.3193  152.8799 H   0  0  0  0  0  0  0  0  0  0  0  0
  144.9175  131.6688  153.2558 H   0  0  0  0  0  0  0  0  0  0  0  0
  145.6048  131.6030  150.6522 H   0  0  0  0  0  0  0  0  0  0  0  0
  144.1046  133.5028  150.1469 H   0  0  0  0  0  0  0  0  0  0  0  0
  143.5158  132.9673  151.7214 H   0  0  0  0  0  0  0  0  0  0  0  0
  144.8759  135.4826  151.0395 H   0  0  0  0  0  0  0  0  0  0  0  0
  144.2527  135.0376  152.6256 H   0  0  0  0  0  0  0  0  0  0  0  0
  146.9295  135.2478  152.3672 H   0  0  0  0  0  0  0  0  0  0  0  0
  147.7465  132.9969  151.2641 H   0  0  0  0  0  0  0  0  0  0  0  0
  146.7388  133.9142  150.1226 H   0  0  0  0  0  0  0  0  0  0  0  0
  1  2  1  0  0  0  0
  1 23  1  0  0  0  0
  1 24  1  0  0  0  0
  1 25  1  0  0  0  0
  2 22  1  0  0  0  0
  2  3  2  0  0  0  0
  3  4  1  0  0  0  0
  4  5  1  0  0  0  0
  4  6  2  0  0  0  0
  5 26  1  0  0  0  0
  5 27  1  0  0  0  0
  5 28  1  0  0  0  0
  6  7  1  0  0  0  0
  6 20  1  0  0  0  0
  7  8  1  0  0  0  0
  7 29  1  0  0  0  0
  7 30  1  0  0  0  0
  8  9  2  0  0  0  0
  8 10  1  0  0  0  0
 10 11  1  0  0  0  0
 10 31  1  0  0  0  0
 11 12  1  0  0  0  0
 11 13  1  0  0  0  0
 11 32  1  0  0  0  0
 12 33  1  0  0  0  0
 12 34  1  0  0  0  0
 12 35  1  0  0  0  0
 13 18  1  0  0  0  0
 13 14  1  0  0  0  0
 13 36  1  0  0  0  0
 14 15  1  0  0  0  0
 14 37  1  0  0  0  0
 14 38  1  0  0  0  0
 15 19  1  0  0  0  0
 15 16  1  0  0  0  0
 15 39  1  0  0  0  0
 16 17  1  0  0  0  0
 16 40  1  0  0  0  0
 16 41  1  0  0  0  0
 17 18  1  0  0  0  0
 17 42  1  0  0  0  0
 17 43  1  0  0  0  0
 18 19  1  0  0  0  0
 18 44  1  0  0  0  0
 19 45  1  0  0  0  0
 19 46  1  0  0  0  0
 20 21  2  0  0  0  0
 20 22  1  0  0  0  0
M  CHG  1  22  -1
M  END
> <s_m_source_file>
AV-unprocessed.smi

> <i_m_source_file_index>
2124

> <i_lp_mmshare_version>
43012

> <i_f3d_flags>
0

> <s_epik_input>
W0NIM11jMW5jKFtDSDNdKWMoYyg9TylbbkhdMSlbQ0gyXUMoPU8pW05IXVtDQEhdKFtDSDNdKVtDQEhdKFtDSDJdW0NASF0yMylbQ0BIXShbQ0gyXTMpW0NIMl1bQ0gyXTI=

> <s_epik_cmdline>
J2VwaWtfcHl0aG9uJywgJy1waCcsICc3LjAnLCAnLXRuJywgJzgnLCAnLW1hJywgJzIwMCcsICctbWV0YWxfYmluZGluZycsICctaW1hZScsICc8aW5maWxlLm1hZT4nLCAnLW9tYWUnLCAnPG91dGZpbGUubWFlPic=

> <r_lp_tautomer_probability>
0.839158

> <r_epik_Ionization_Penalty>
6.63797

> <r_epik_Ionization_Penalty_Charging>
7.48558e-08

> <r_epik_Ionization_Penalty_Neutral>
6.63797

> <r_epik_State_Penalty>
4.49496

> <r_epik_Charging_Adjusted_Penalty>
4.49496

> <i_epik_Tot_Q>
-1

> <i_epik_Tot_abs_Q>
1

> <r_epik_Metal_State_Penalty>
0.841241

> <b_epik_Metal_Only>
1

> <s_lp_Force_Field>
OPLS_2005

> <r_lp_Energy>
56.157

> <b_lp_Chiralities_Consistent>
1

> <s_lp_Variant>
AV-unprocessed.smi:2124-21

> <Gold.Version>
5.8.1

> <Gold.Id.Protein>
6NUR|6NUR_protein|mol2

> <Gold.PLP.Fitness>
35.1540

> <Gold.PLP.PLP>
-27.4270

> <Gold.PLP.part.hbond>
-2.0000

> <Gold.PLP.part.metal>
0.0000

> <Gold.PLP.part.buried>
-5.2893

> <Gold.PLP.part.nonpolar>
-20.8758

> <Gold.PLP.part.repulsive>
0.0000

> <Gold.PLP.ligand.clash>
0.0000

> <Gold.PLP.ligand.torsion>
0.6533

> <Gold.PLP.Chemscore.Hbond>
3.0000

> <Gold.PLP.Chemscore.CHOScore>
0.0000

> <Gold.PLP.Chemscore.Metal>
0.0000

> <Gold.Chemscore.Hbonds>
donor molecule, donor type, donor heavy atom, donor atom, acceptor molecule, acceptor atom, score
      P1  H  6896  6907       L1    21  0.91
      P1  H  6931  6943       L1    22  1.53

> <Gold.PLP.Chemscore.Internal.Correction>
0.0336

> <Gold.Rescore>
     Score         DG    S(hbond)    S(metal)    S(lipo)     H(rot)  DE(clash)    DE(int)     intcor
     12.17     -13.53       1.67        0.00      56.18       1.61       0.03       1.33       ----

> <Gold.Chemscore.Fitness>
12.1691

> <Gold.Chemscore.DG>
-13.5307

> <Gold.Chemscore.ZeroCoef>
-5.4800

> <Gold.Chemscore.Hbond>
1.6728

> <Gold.Chemscore.Metal>
0.0000

> <Gold.Chemscore.Lipo>
56.1751

> <Gold.Chemscore.Internal_Hbond>
0.0000

> <Gold.Chemscore.DEClash>
0.0329

> <Gold.Chemscore.DEInternal>
1.3288

> <Gold.Chemscore.Rot>
1.6051

> <Gold.Chemscore.Internal.Correction>
   9.000000E+99

> <Gold.Chemscore.Hbonds>
donor molecule, donor type, donor heavy atom, donor atom, acceptor molecule, acceptor atom, score
      P1  H  6896  6907       L1    21  0.61
      P1  H  6931  6943       L1    22  0.31

> <Gold.Chemscore.Hbond.Weighted>
-5.5872

> <Gold.Chemscore.Metal.Weighted>
-0.0000

> <Gold.Chemscore.Lipo.Weighted>
-6.5725

> <Gold.Chemscore.Internal_Hbond.Weighted>
0.0000

> <Gold.Chemscore.DEClash.Weighted>
0.0329

> <Gold.Chemscore.DEInternal.Weighted>
1.3288

> <Gold.Chemscore.Rot.Weighted>
4.1090

> <Gold.Chemscore.Internal.Correction.Weighted>
   9.000000E+99

> <Gold.Protein.RotatedTorsions>
[ 6907 6896 6895 6894 ] final  -32.09 input  -60.11 | X-H torsion
[ 7974 7965 7964 7962 ] final -114.95 input  175.53 | X-H torsion
[ 8008 7997 7996 7995 ] final  -37.00 input   59.86 | X-H torsion
[ 10167 10162 10161 10158 ] final   92.74 input  -65.29 | X-H torsion
[ 10718 10713 10712 10709 ] final  166.67 input   66.30 | X-H torsion
[ 10763 10752 10751 10750 ] final  157.74 input  -60.55 | X-H torsion
[ 11005 11000 10999 10996 ] final   18.85 input  -57.11 | X-H torsion

> <Gold.Protein.ActiveResidues>
 VAL166  LYS551  ARG553  GLY616  TRP617  ASP618  TYR619  PRO620  LYS621  CYS622 
 ASP623  PHE694  ASN695  SER759  ASP760  ASP761  ALA762  ILE779  LEU786  VAL792 
 PHE793  MET794  SER795  GLU796  ALA797  LYS798  CYS799  TRP800  GLU811  SER814 

> <Gold.Protein.RotatedAtoms>
  151.0834  134.9872  159.8366 H   0  0  0  0  0  0  0  0  0  0  0  0  # atno 6907 bound_to 6896
  152.5422  134.2154  159.8776 H   0  0  0  0  0  0  0  0  0  0  0  0  # atno 6908 bound_to 6896
  151.2186  133.4471  159.2633 H   0  0  0  0  0  0  0  0  0  0  0  0  # atno 6909 bound_to 6896
  145.1142  140.8630  143.3852 H   0  0  0  0  0  0  0  0  0  0  0  0  # atno 7974 bound_to 7965
  154.4062  140.1616  156.2466 H   0  0  0  0  0  0  0  0  0  0  0  0  # atno 8008 bound_to 7997
  155.9155  140.3424  155.6109 H   0  0  0  0  0  0  0  0  0  0  0  0  # atno 8009 bound_to 7997
  155.7284  140.0777  157.2290 H   0  0  0  0  0  0  0  0  0  0  0  0  # atno 8010 bound_to 7997
  139.8247  144.6715  150.9474 H   0  0  0  0  0  0  0  0  0  0  0  0  # atno 10167 bound_to 10162
  157.0625  131.0344  151.2641 H   0  0  0  0  0  0  0  0  0  0  0  0  # atno 10718 bound_to 10713
  154.2050  135.2788  155.2978 H   0  0  0  0  0  0  0  0  0  0  0  0  # atno 10763 bound_to 10752
  154.5824  135.5585  153.7202 H   0  0  0  0  0  0  0  0  0  0  0  0  # atno 10764 bound_to 10752
  153.0078  135.6348  154.2188 H   0  0  0  0  0  0  0  0  0  0  0  0  # atno 10765 bound_to 10752
  140.4203  134.1526  155.7672 H   0  0  0  0  0  0  0  0  0  0  0  0  # atno 11005 bound_to 11000
  145.0813  139.2958  143.5782 LP  0  0  0  0  0  0  0  0  0  0  0  0  # atno 17320 bound_to 7965
  146.3525  140.0320  142.8649 LP  0  0  0  0  0  0  0  0  0  0  0  0  # atno 17321 bound_to 7965
  140.7811  143.4057  151.1074 LP  0  0  0  0  0  0  0  0  0  0  0  0  # atno 17342 bound_to 10162
  139.7715  143.8487  152.3121 LP  0  0  0  0  0  0  0  0  0  0  0  0  # atno 17343 bound_to 10162
  157.4943  130.7841  149.7539 LP  0  0  0  0  0  0  0  0  0  0  0  0  # atno 17370 bound_to 10713
  155.9974  130.3900  150.2741 LP  0  0  0  0  0  0  0  0  0  0  0  0  # atno 17371 bound_to 10713
  141.1787  133.8460  157.1334 LP  0  0  0  0  0  0  0  0  0  0  0  0  # atno 17394 bound_to 11000
  140.0205  134.9948  157.0582 LP  0  0  0  0  0  0  0  0  0  0  0  0  # atno 17395 bound_to 11000

$$$$
