AV-unprocessed.smi:234|AV-procd|sdf|1800|dock3
  -GOLD-   2262020373D 1   1.00000     0.00000
 Structure written by MMmdl.
 59 62  0  0  0  0  0  0  0  0  1 V2000
  150.8972  142.2742  158.0621 C   0  0  0  0  0  0  0  0  0  0  0  0
  151.0003  140.7503  157.9716 C   0  0  0  0  0  0  0  0  0  0  0  0
  150.6103  140.3407  156.6714 O   0  0  0  0  0  0  0  0  0  0  0  0
  150.8668  138.9672  156.4227 C   0  0  1  0  0  0  0  0  0  0  0  0
  149.7384  138.0692  156.9268 C   0  0  0  0  0  0  0  0  0  0  0  0
  149.9043  137.2421  155.6370 C   0  0  2  0  0  0  0  0  0  0  0  0
  150.7560  136.0423  155.7302 N   0  0  0  0  0  0  0  0  0  0  0  0
  152.0103  136.0913  156.4681 C   0  0  0  0  0  0  0  0  0  0  0  0
  150.3476  134.8101  155.3545 C   0  0  0  0  0  0  0  0  0  0  0  0
  151.1800  133.7554  155.5451 N   0  0  0  0  0  0  0  0  0  0  0  0
  150.7991  132.5298  155.1722 C   0  0  0  0  0  0  0  0  0  0  0  0
  149.6587  132.1505  154.5907 N   0  0  0  0  0  0  0  0  0  0  0  0
  148.8304  133.2138  154.3812 C   0  0  0  0  0  0  0  0  0  0  0  0
  149.0958  134.5672  154.7285 C   0  0  0  0  0  0  0  0  0  0  0  0
  148.0264  135.3737  154.3606 N   0  0  0  0  0  0  0  0  0  0  0  0
  147.1720  134.5412  153.8307 C   0  0  0  0  0  0  0  0  0  0  0  0
  147.5782  133.2255  153.7918 N   0  0  0  0  0  0  0  0  0  0  0  0
  146.8329  132.0983  153.2514 C   0  0  0  0  0  0  0  0  0  0  0  0
  146.2177  132.3786  151.8549 C   0  0  2  0  0  0  0  0  0  0  0  0
  147.2315  132.9217  151.0262 O   0  0  0  0  0  0  0  0  0  0  0  0
  145.0599  133.3753  151.8913 C   0  0  0  0  0  0  0  0  0  0  0  0
  144.1722  132.9215  150.7426 C   0  0  0  0  0  0  0  0  0  0  0  0
  144.2532  131.5113  150.8411 O   0  0  0  0  0  0  0  0  0  0  0  0
  145.6060  131.1569  151.1114 C   0  0  2  0  0  0  0  0  0  0  0  0
  145.6100  129.8124  151.8555 C   0  0  0  0  0  0  0  0  0  0  0  0
  150.5745  138.4877  154.9779 C   0  0  0  0  0  0  0  0  0  0  0  0
  149.5929  139.3532  154.1745 C   0  0  0  0  0  0  0  0  0  0  0  0
  151.7965  138.2855  154.0733 C   0  0  0  0  0  0  0  0  0  0  0  0
  151.1854  142.6256  159.0529 H   0  0  0  0  0  0  0  0  0  0  0  0
  149.8777  142.6097  157.8714 H   0  0  0  0  0  0  0  0  0  0  0  0
  151.5508  142.7533  157.3329 H   0  0  0  0  0  0  0  0  0  0  0  0
  152.0230  140.4368  158.1810 H   0  0  0  0  0  0  0  0  0  0  0  0
  150.3543  140.2881  158.7192 H   0  0  0  0  0  0  0  0  0  0  0  0
  151.8350  138.6365  156.8034 H   0  0  0  0  0  0  0  0  0  0  0  0
  149.9357  137.5826  157.8793 H   0  0  0  0  0  0  0  0  0  0  0  0
  148.7792  138.5878  156.9604 H   0  0  0  0  0  0  0  0  0  0  0  0
  148.9367  137.0139  155.1886 H   0  0  0  0  0  0  0  0  0  0  0  0
  152.8132  135.6404  155.8841 H   0  0  0  0  0  0  0  0  0  0  0  0
  151.9300  135.5546  157.4137 H   0  0  0  0  0  0  0  0  0  0  0  0
  152.2897  137.1222  156.6862 H   0  0  0  0  0  0  0  0  0  0  0  0
  151.5102  131.7403  155.3665 H   0  0  0  0  0  0  0  0  0  0  0  0
  146.2172  134.8679  153.4450 H   0  0  0  0  0  0  0  0  0  0  0  0
  147.5004  131.2363  153.2102 H   0  0  0  0  0  0  0  0  0  0  0  0
  146.0505  131.8495  153.9686 H   0  0  0  0  0  0  0  0  0  0  0  0
  147.7398  132.2100  150.6679 H   0  0  0  0  0  0  0  0  0  0  0  0
  144.5012  133.2678  152.8218 H   0  0  0  0  0  0  0  0  0  0  0  0
  145.3694  134.4184  151.8089 H   0  0  0  0  0  0  0  0  0  0  0  0
  143.1450  133.2745  150.8361 H   0  0  0  0  0  0  0  0  0  0  0  0
  144.5691  133.2512  149.7811 H   0  0  0  0  0  0  0  0  0  0  0  0
  146.1002  131.0150  150.1482 H   0  0  0  0  0  0  0  0  0  0  0  0
  146.6251  129.4864  152.0825 H   0  0  0  0  0  0  0  0  0  0  0  0
  145.1481  129.0362  151.2451 H   0  0  0  0  0  0  0  0  0  0  0  0
  145.0498  129.8675  152.7889 H   0  0  0  0  0  0  0  0  0  0  0  0
  149.2852  138.8556  153.2544 H   0  0  0  0  0  0  0  0  0  0  0  0
  150.0319  140.3116  153.8961 H   0  0  0  0  0  0  0  0  0  0  0  0
  148.6856  139.5706  154.7383 H   0  0  0  0  0  0  0  0  0  0  0  0
  151.5474  137.7000  153.1881 H   0  0  0  0  0  0  0  0  0  0  0  0
  152.6071  137.7729  154.5895 H   0  0  0  0  0  0  0  0  0  0  0  0
  152.2025  139.2362  153.7270 H   0  0  0  0  0  0  0  0  0  0  0  0
  1  2  1  0  0  0  0
  1 29  1  0  0  0  0
  1 30  1  0  0  0  0
  1 31  1  0  0  0  0
  2  3  1  0  0  0  0
  2 32  1  0  0  0  0
  2 33  1  0  0  0  0
  3  4  1  0  0  0  0
  4 26  1  0  0  0  0
  4  5  1  0  0  0  0
  4 34  1  0  0  0  0
  5  6  1  0  0  0  0
  5 35  1  0  0  0  0
  5 36  1  0  0  0  0
  6  7  1  0  0  0  0
  6 26  1  0  0  0  0
  6 37  1  0  0  0  0
  7  8  1  0  0  0  0
  7  9  1  0  0  0  0
  8 38  1  0  0  0  0
  8 39  1  0  0  0  0
  8 40  1  0  0  0  0
  9 14  1  0  0  0  0
  9 10  2  0  0  0  0
 10 11  1  0  0  0  0
 11 12  2  0  0  0  0
 11 41  1  0  0  0  0
 12 13  1  0  0  0  0
 13 17  1  0  0  0  0
 13 14  2  0  0  0  0
 14 15  1  0  0  0  0
 15 16  2  0  0  0  0
 16 17  1  0  0  0  0
 16 42  1  0  0  0  0
 17 18  1  0  0  0  0
 18 19  1  0  0  0  0
 18 43  1  0  0  0  0
 18 44  1  0  0  0  0
 19 24  1  0  0  0  0
 19 20  1  0  0  0  0
 19 21  1  0  0  0  0
 20 45  1  0  0  0  0
 21 22  1  0  0  0  0
 21 46  1  0  0  0  0
 21 47  1  0  0  0  0
 22 23  1  0  0  0  0
 22 48  1  0  0  0  0
 22 49  1  0  0  0  0
 23 24  1  0  0  0  0
 24 25  1  0  0  0  0
 24 50  1  0  0  0  0
 25 51  1  0  0  0  0
 25 52  1  0  0  0  0
 25 53  1  0  0  0  0
 26 27  1  0  0  0  0
 26 28  1  0  0  0  0
 27 54  1  0  0  0  0
 27 55  1  0  0  0  0
 27 56  1  0  0  0  0
 28 57  1  0  0  0  0
 28 58  1  0  0  0  0
 28 59  1  0  0  0  0
M  END
> <s_m_source_file>
AV-unprocessed.smi

> <i_m_source_file_index>
234

> <i_lp_mmshare_version>
43012

> <i_f3d_flags>
0

> <s_epik_input>
W0NIM11bQ0gyXU9bQ0BASF0oQzEoW0NIM10pW0NIM10pW0NIMl1bQ0BIXTFOKFtDSDNdKWMobltjSF1uMiljKGMyMyluW2NIXW4zW0NIMl1bQ0BAXTQoW09IXSlbQ0gyXVtDSDJdT1tDQEhdNFtDSDNd

> <s_epik_cmdline>
J2VwaWtfcHl0aG9uJywgJy1waCcsICc3LjAnLCAnLXRuJywgJzgnLCAnLW1hJywgJzIwMCcsICctbWV0YWxfYmluZGluZycsICctaW1hZScsICc8aW5maWxlLm1hZT4nLCAnLW9tYWUnLCAnPG91dGZpbGUubWFlPic=

> <r_lp_tautomer_probability>
1

> <r_epik_Ionization_Penalty>
0.00349132

> <r_epik_Ionization_Penalty_Charging>
0

> <r_epik_Ionization_Penalty_Neutral>
0.00349132

> <r_epik_State_Penalty>
0.00242418

> <r_epik_Charging_Adjusted_Penalty>
0.00242418

> <i_epik_Tot_Q>
0

> <i_epik_Tot_abs_Q>
0

> <r_epik_Metal_State_Penalty>
-0

> <b_epik_Metal_Only>
0

> <s_lp_Force_Field>
OPLS_2005

> <r_lp_Energy>
53.0859

> <b_lp_Chiralities_Consistent>
1

> <s_lp_Variant>
AV-unprocessed.smi:234-16

> <Gold.Version>
5.8.1

> <Gold.Id.Protein>
6NUR|6NUR_protein|mol2

> <Gold.PLP.Fitness>
42.1374

> <Gold.PLP.PLP>
-39.5300

> <Gold.PLP.part.hbond>
-1.0000

> <Gold.PLP.part.metal>
0.0000

> <Gold.PLP.part.buried>
-5.7870

> <Gold.PLP.part.nonpolar>
-33.1016

> <Gold.PLP.part.repulsive>
2.1383

> <Gold.PLP.ligand.clash>
0.0000

> <Gold.PLP.ligand.torsion>
0.6204

> <Gold.PLP.Chemscore.Hbond>
1.0000

> <Gold.PLP.Chemscore.CHOScore>
0.0000

> <Gold.PLP.Chemscore.Metal>
0.0000

> <Gold.Chemscore.Hbonds>
donor molecule, donor type, donor heavy atom, donor atom, acceptor molecule, acceptor atom, score
      L1  H    20    45       P1 10747  1.00

> <Gold.PLP.Chemscore.Internal.Correction>
0.8483

> <Gold.Rescore>
     Score         DG    S(hbond)    S(metal)    S(lipo)     H(rot)  DE(clash)    DE(int)     intcor
     11.96     -13.96       0.99        0.00      96.04       2.37       0.06       1.94       ----

> <Gold.Chemscore.Fitness>
11.9613

> <Gold.Chemscore.DG>
-13.9603

> <Gold.Chemscore.ZeroCoef>
-5.4800

> <Gold.Chemscore.Hbond>
0.9894

> <Gold.Chemscore.Metal>
0.0000

> <Gold.Chemscore.Lipo>
96.0398

> <Gold.Chemscore.Internal_Hbond>
0.0000

> <Gold.Chemscore.DEClash>
0.0605

> <Gold.Chemscore.DEInternal>
1.9385

> <Gold.Chemscore.Rot>
2.3676

> <Gold.Chemscore.Internal.Correction>
   9.000000E+99

> <Gold.Chemscore.Hbonds>
donor molecule, donor type, donor heavy atom, donor atom, acceptor molecule, acceptor atom, score
      L1  H    20    45       P1 10747  1.00

> <Gold.Chemscore.Hbond.Weighted>
-3.3046

> <Gold.Chemscore.Metal.Weighted>
-0.0000

> <Gold.Chemscore.Lipo.Weighted>
-11.2367

> <Gold.Chemscore.Internal_Hbond.Weighted>
0.0000

> <Gold.Chemscore.DEClash.Weighted>
0.0605

> <Gold.Chemscore.DEInternal.Weighted>
1.9385

> <Gold.Chemscore.Rot.Weighted>
6.0610

> <Gold.Chemscore.Internal.Correction.Weighted>
   9.000000E+99

> <Gold.Protein.RotatedTorsions>
[ 6907 6896 6895 6894 ] final    9.34 input  -60.11 | X-H torsion
[ 7974 7965 7964 7962 ] final  111.53 input  175.53 | X-H torsion
[ 8008 7997 7996 7995 ] final -162.11 input   59.86 | X-H torsion
[ 10167 10162 10161 10158 ] final   35.60 input  -65.29 | X-H torsion
[ 10718 10713 10712 10709 ] final -169.17 input   66.30 | X-H torsion
[ 10763 10752 10751 10750 ] final  -82.21 input  -60.55 | X-H torsion
[ 11005 11000 10999 10996 ] final   10.58 input  -57.11 | X-H torsion

> <Gold.Protein.ActiveResidues>
 VAL166  LYS551  ARG553  GLY616  TRP617  ASP618  TYR619  PRO620  LYS621  CYS622 
 ASP623  PHE694  ASN695  SER759  ASP760  ASP761  ALA762  ILE779  LEU786  VAL792 
 PHE793  MET794  SER795  GLU796  ALA797  LYS798  CYS799  TRP800  GLU811  SER814 

> <Gold.Protein.RotatedAtoms>
  151.7205  135.0895  160.0283 H   0  0  0  0  0  0  0  0  0  0  0  0  # atno 6907 bound_to 6896
  152.3605  133.6286  159.6020 H   0  0  0  0  0  0  0  0  0  0  0  0  # atno 6908 bound_to 6896
  150.7601  133.9348  159.3479 H   0  0  0  0  0  0  0  0  0  0  0  0  # atno 6909 bound_to 6896
  145.2410  139.2778  143.4117 H   0  0  0  0  0  0  0  0  0  0  0  0  # atno 7974 bound_to 7965
  155.8020  140.0893  157.1952 H   0  0  0  0  0  0  0  0  0  0  0  0  # atno 8008 bound_to 7997
  154.3982  140.1470  156.3345 H   0  0  0  0  0  0  0  0  0  0  0  0  # atno 8009 bound_to 7997
  155.8453  140.3437  155.5660 H   0  0  0  0  0  0  0  0  0  0  0  0  # atno 8010 bound_to 7997
  140.4206  144.1465  150.6147 H   0  0  0  0  0  0  0  0  0  0  0  0  # atno 10167 bound_to 10162
  156.7077  130.9221  151.3086 H   0  0  0  0  0  0  0  0  0  0  0  0  # atno 10718 bound_to 10713
  154.5730  135.5599  153.7113 H   0  0  0  0  0  0  0  0  0  0  0  0  # atno 10763 bound_to 10752
  153.0055  135.6301  154.2088 H   0  0  0  0  0  0  0  0  0  0  0  0  # atno 10764 bound_to 10752
  154.2027  135.2877  155.2965 H   0  0  0  0  0  0  0  0  0  0  0  0  # atno 10765 bound_to 10752
  140.5128  134.0635  155.7823 H   0  0  0  0  0  0  0  0  0  0  0  0  # atno 11005 bound_to 11000
  146.3328  140.2774  142.8608 LP  0  0  0  0  0  0  0  0  0  0  0  0  # atno 17320 bound_to 7965
  144.9589  140.8254  143.5526 LP  0  0  0  0  0  0  0  0  0  0  0  0  # atno 17321 bound_to 7965
  140.4538  143.2476  151.9312 LP  0  0  0  0  0  0  0  0  0  0  0  0  # atno 17342 bound_to 10162
  139.4782  144.5536  151.8348 LP  0  0  0  0  0  0  0  0  0  0  0  0  # atno 17343 bound_to 10162
  157.6948  130.9271  150.0615 LP  0  0  0  0  0  0  0  0  0  0  0  0  # atno 17370 bound_to 10713
  156.1683  130.3645  149.9201 LP  0  0  0  0  0  0  0  0  0  0  0  0  # atno 17371 bound_to 10713
  141.1376  133.9194  157.2399 LP  0  0  0  0  0  0  0  0  0  0  0  0  # atno 17394 bound_to 11000
  139.9649  135.0144  156.9360 LP  0  0  0  0  0  0  0  0  0  0  0  0  # atno 17395 bound_to 11000

$$$$
