AV-unprocessed.smi:1356|AV-procd|sdf|5543|dock3
  -GOLD-   22720 5133D 1   1.00000     0.00000
 Structure written by MMmdl.
 41 42  0  0  0  0  0  0  0  0  1 V2000
  147.5649  132.6393  152.7123 C   0  0  0  0  0  0  0  0  0  0  0  0
  148.1621  133.0258  154.0479 C   0  0  1  0  0  0  0  0  0  0  0  0
  149.0538  132.0710  154.8037 C   0  0  0  0  0  0  0  0  0  0  0  0
  149.6469  133.3128  154.1695 C   0  0  2  0  0  0  0  0  0  0  0  0
  150.0665  134.4219  155.0781 C   0  0  0  0  0  0  0  0  0  0  0  0
  150.5118  134.2320  156.2111 O   0  0  0  0  0  0  0  0  0  0  0  0
  149.9083  135.6456  154.5514 N   0  0  0  0  0  0  0  0  0  0  0  0
  150.2212  136.8981  155.2298 C   0  0  0  0  0  0  0  0  0  0  0  0
  151.5227  137.5222  154.6900 C   0  0  0  0  0  0  0  0  0  0  0  0
  152.0160  138.6945  155.5421 C   0  0  0  0  0  0  0  0  0  0  0  0
  152.9701  139.3786  155.1708 O   0  0  0  0  0  0  0  0  0  0  0  0
  151.3472  138.9237  156.6826 N   0  0  0  0  0  0  0  0  0  0  0  0
  151.6443  139.9943  157.6270 C   0  0  0  0  0  0  0  0  0  0  0  0
  151.4509  141.3795  156.9884 C   0  0  0  0  0  0  0  0  0  0  0  0
  151.7559  142.5053  157.9577 C   0  0  0  0  0  0  0  0  0  0  0  0
  151.6440  143.8529  157.5539 C   0  0  0  0  0  0  0  0  0  0  0  0
  151.9455  144.8608  158.4900 C   0  0  0  0  0  0  0  0  0  0  0  0
  152.3464  144.4844  159.7863 C   0  0  0  0  0  0  0  0  0  0  0  0
  152.4285  143.1108  160.0900 C   0  0  0  0  0  0  0  0  0  0  0  0
  152.1421  142.1363  159.1999 N   0  0  0  0  0  0  0  0  0  0  0  0
  148.2642  132.0329  152.1359 H   0  0  0  0  0  0  0  0  0  0  0  0
  147.3246  133.5338  152.1377 H   0  0  0  0  0  0  0  0  0  0  0  0
  146.6498  132.0663  152.8634 H   0  0  0  0  0  0  0  0  0  0  0  0
  147.4904  133.6284  154.6575 H   0  0  0  0  0  0  0  0  0  0  0  0
  148.9460  132.0390  155.8866 H   0  0  0  0  0  0  0  0  0  0  0  0
  149.2990  131.1176  154.3401 H   0  0  0  0  0  0  0  0  0  0  0  0
  150.2529  133.1620  153.2770 H   0  0  0  0  0  0  0  0  0  0  0  0
  149.5405  135.7138  153.6134 H   0  0  0  0  0  0  0  0  0  0  0  0
  149.3872  137.5951  155.1282 H   0  0  0  0  0  0  0  0  0  0  0  0
  150.3172  136.6817  156.2944 H   0  0  0  0  0  0  0  0  0  0  0  0
  152.3108  136.7692  154.6564 H   0  0  0  0  0  0  0  0  0  0  0  0
  151.3728  137.8624  153.6641 H   0  0  0  0  0  0  0  0  0  0  0  0
  150.5752  138.3141  156.9113 H   0  0  0  0  0  0  0  0  0  0  0  0
  150.9800  139.8826  158.4844 H   0  0  0  0  0  0  0  0  0  0  0  0
  152.6617  139.8876  158.0071 H   0  0  0  0  0  0  0  0  0  0  0  0
  152.0913  141.4838  156.1114 H   0  0  0  0  0  0  0  0  0  0  0  0
  150.4252  141.4873  156.6327 H   0  0  0  0  0  0  0  0  0  0  0  0
  151.3364  144.1096  156.5506 H   0  0  0  0  0  0  0  0  0  0  0  0
  151.8711  145.9034  158.2182 H   0  0  0  0  0  0  0  0  0  0  0  0
  152.5856  145.2302  160.5298 H   0  0  0  0  0  0  0  0  0  0  0  0
  152.7327  142.7863  161.0740 H   0  0  0  0  0  0  0  0  0  0  0  0
  1  2  1  0  0  0  0
  1 21  1  0  0  0  0
  1 22  1  0  0  0  0
  1 23  1  0  0  0  0
  2  4  1  0  0  0  0
  2  3  1  0  0  0  0
  2 24  1  0  0  0  0
  3  4  1  0  0  0  0
  3 25  1  0  0  0  0
  3 26  1  0  0  0  0
  4  5  1  0  0  0  0
  4 27  1  0  0  0  0
  5  6  2  0  0  0  0
  5  7  1  0  0  0  0
  7  8  1  0  0  0  0
  7 28  1  0  0  0  0
  8  9  1  0  0  0  0
  8 29  1  0  0  0  0
  8 30  1  0  0  0  0
  9 10  1  0  0  0  0
  9 31  1  0  0  0  0
  9 32  1  0  0  0  0
 10 11  2  0  0  0  0
 10 12  1  0  0  0  0
 12 13  1  0  0  0  0
 12 33  1  0  0  0  0
 13 14  1  0  0  0  0
 13 34  1  0  0  0  0
 13 35  1  0  0  0  0
 14 15  1  0  0  0  0
 14 36  1  0  0  0  0
 14 37  1  0  0  0  0
 15 20  1  0  0  0  0
 15 16  2  0  0  0  0
 16 17  1  0  0  0  0
 16 38  1  0  0  0  0
 17 18  2  0  0  0  0
 17 39  1  0  0  0  0
 18 19  1  0  0  0  0
 18 40  1  0  0  0  0
 19 20  2  0  0  0  0
 19 41  1  0  0  0  0
M  END
> <s_m_source_file>
AV-unprocessed.smi

> <i_m_source_file_index>
1356

> <i_lp_mmshare_version>
43012

> <i_f3d_flags>
0

> <s_epik_input>
W0NIM11bQ0BASF0xW0NIMl1bQ0BIXTFDKD1PKVtOSF1bQ0gyXVtDSDJdQyg9TylbTkhdW0NIMl1bQ0gyXWMyW2NIXVtjSF1bY0hdW2NIXW4y

> <s_epik_cmdline>
J2VwaWtfcHl0aG9uJywgJy1waCcsICc3LjAnLCAnLXRuJywgJzgnLCAnLW1hJywgJzIwMCcsICctbWV0YWxfYmluZGluZycsICctaW1hZScsICc8aW5maWxlLm1hZT4nLCAnLW9tYWUnLCAnPG91dGZpbGUubWFlPic=

> <r_epik_Ionization_Penalty>
0.0258005

> <r_epik_Ionization_Penalty_Charging>
0

> <r_epik_Ionization_Penalty_Neutral>
0.0258005

> <r_epik_State_Penalty>
0.0210245

> <r_epik_Charging_Adjusted_Penalty>
0.0210245

> <i_epik_Tot_Q>
0

> <i_epik_Tot_abs_Q>
0

> <r_epik_Metal_State_Penalty>
0.0201445

> <b_epik_Metal_Only>
0

> <s_lp_Force_Field>
OPLS_2005

> <r_lp_Energy>
5.54345

> <b_lp_Chiralities_Consistent>
1

> <s_lp_Variant>
AV-unprocessed.smi:1356-4

> <Gold.Version>
5.8.1

> <Gold.Id.Protein>
6NUR|6NUR_protein|mol2

> <Gold.PLP.Fitness>
50.5585

> <Gold.PLP.PLP>
-45.3084

> <Gold.PLP.part.hbond>
-3.6067

> <Gold.PLP.part.metal>
0.0000

> <Gold.PLP.part.buried>
-5.3805

> <Gold.PLP.part.nonpolar>
-37.3451

> <Gold.PLP.part.repulsive>
0.1610

> <Gold.PLP.ligand.clash>
0.5367

> <Gold.PLP.ligand.torsion>
0.7896

> <Gold.PLP.Chemscore.Hbond>
2.3947

> <Gold.PLP.Chemscore.CHOScore>
0.0000

> <Gold.PLP.Chemscore.Metal>
0.0000

> <Gold.Chemscore.Hbonds>
donor molecule, donor type, donor heavy atom, donor atom, acceptor molecule, acceptor atom, score
      L1  H     7    28       P1  7948  1.00
      P1  H  7997  8010       L1    11  1.00

> <Gold.PLP.Chemscore.Internal.Correction>
0.1820

> <Gold.Rescore>
     Score         DG    S(hbond)    S(metal)    S(lipo)     H(rot)  DE(clash)    DE(int)     intcor
     17.86     -18.72       1.97        0.00     104.54       2.18       0.01       0.84       ----

> <Gold.Chemscore.Fitness>
17.8637

> <Gold.Chemscore.DG>
-18.7165

> <Gold.Chemscore.ZeroCoef>
-5.4800

> <Gold.Chemscore.Hbond>
1.9682

> <Gold.Chemscore.Metal>
0.0000

> <Gold.Chemscore.Lipo>
104.5417

> <Gold.Chemscore.Internal_Hbond>
0.0000

> <Gold.Chemscore.DEClash>
0.0120

> <Gold.Chemscore.DEInternal>
0.8408

> <Gold.Chemscore.Rot>
2.1753

> <Gold.Chemscore.Internal.Correction>
   9.000000E+99

> <Gold.Chemscore.Hbonds>
donor molecule, donor type, donor heavy atom, donor atom, acceptor molecule, acceptor atom, score
      L1  H     7    28       P1  7948  0.26
      P1  H  7997  8010       L1    11  1.00

> <Gold.Chemscore.Hbond.Weighted>
-6.5737

> <Gold.Chemscore.Metal.Weighted>
-0.0000

> <Gold.Chemscore.Lipo.Weighted>
-12.2314

> <Gold.Chemscore.Internal_Hbond.Weighted>
0.0000

> <Gold.Chemscore.DEClash.Weighted>
0.0120

> <Gold.Chemscore.DEInternal.Weighted>
0.8408

> <Gold.Chemscore.Rot.Weighted>
5.5687

> <Gold.Chemscore.Internal.Correction.Weighted>
   9.000000E+99

> <Gold.Protein.RotatedTorsions>
[ 6907 6896 6895 6894 ] final  164.10 input  -60.11 | X-H torsion
[ 7974 7965 7964 7962 ] final -149.10 input  175.53 | X-H torsion
[ 8008 7997 7996 7995 ] final  104.09 input   59.86 | X-H torsion
[ 10167 10162 10161 10158 ] final   65.88 input  -65.29 | X-H torsion
[ 10718 10713 10712 10709 ] final  -18.37 input   66.30 | X-H torsion
[ 10763 10752 10751 10750 ] final -127.51 input  -60.55 | X-H torsion
[ 11005 11000 10999 10996 ] final  -55.55 input  -57.11 | X-H torsion

> <Gold.Protein.ActiveResidues>
 VAL166  LYS551  ARG553  GLY616  TRP617  ASP618  TYR619  PRO620  LYS621  CYS622 
 ASP623  PHE694  ASN695  SER759  ASP760  ASP761  ALA762  ILE779  LEU786  VAL792 
 PHE793  MET794  SER795  GLU796  ALA797  LYS798  CYS799  TRP800  GLU811  SER814 

> <Gold.Protein.RotatedAtoms>
  151.9151  133.3571  159.3876 H   0  0  0  0  0  0  0  0  0  0  0  0  # atno 6907 bound_to 6896
  150.7049  134.4693  159.5427 H   0  0  0  0  0  0  0  0  0  0  0  0  # atno 6908 bound_to 6896
  152.2306  134.8326  160.0525 H   0  0  0  0  0  0  0  0  0  0  0  0  # atno 6909 bound_to 6896
  144.7988  140.5109  143.5722 H   0  0  0  0  0  0  0  0  0  0  0  0  # atno 7974 bound_to 7965
  156.1542  140.3153  155.8698 H   0  0  0  0  0  0  0  0  0  0  0  0  # atno 8008 bound_to 7997
  155.3911  140.0493  157.3057 H   0  0  0  0  0  0  0  0  0  0  0  0  # atno 8009 bound_to 7997
  154.5086  140.2156  155.9213 H   0  0  0  0  0  0  0  0  0  0  0  0  # atno 8010 bound_to 7997
  140.1064  144.4857  150.7005 H   0  0  0  0  0  0  0  0  0  0  0  0  # atno 10167 bound_to 10162
  156.5605  130.4724  149.6409 H   0  0  0  0  0  0  0  0  0  0  0  0  # atno 10718 bound_to 10713
  154.8752  135.3959  154.3605 H   0  0  0  0  0  0  0  0  0  0  0  0  # atno 10763 bound_to 10752
  153.4378  135.7026  153.6194 H   0  0  0  0  0  0  0  0  0  0  0  0  # atno 10764 bound_to 10752
  153.4787  135.3774  155.2400 H   0  0  0  0  0  0  0  0  0  0  0  0  # atno 10765 bound_to 10752
  141.1079  133.6612  156.4487 H   0  0  0  0  0  0  0  0  0  0  0  0  # atno 11005 bound_to 11000
  145.5606  139.1479  143.3343 LP  0  0  0  0  0  0  0  0  0  0  0  0  # atno 17320 bound_to 7965
  146.2264  140.5742  142.8995 LP  0  0  0  0  0  0  0  0  0  0  0  0  # atno 17321 bound_to 7965
  140.6949  143.2398  151.5027 LP  0  0  0  0  0  0  0  0  0  0  0  0  # atno 17342 bound_to 10162
  139.5643  144.2081  152.1740 LP  0  0  0  0  0  0  0  0  0  0  0  0  # atno 17343 bound_to 10162
  156.2803  130.7067  151.1889 LP  0  0  0  0  0  0  0  0  0  0  0  0  # atno 17370 bound_to 10713
  157.7369  131.0557  150.5385 LP  0  0  0  0  0  0  0  0  0  0  0  0  # atno 17371 bound_to 10713
  140.4853  134.6626  157.5188 LP  0  0  0  0  0  0  0  0  0  0  0  0  # atno 17394 bound_to 11000
  139.9958  134.6913  155.9612 LP  0  0  0  0  0  0  0  0  0  0  0  0  # atno 17395 bound_to 11000

$$$$
