AV-unprocessed.smi:187|AV-procd|sdf|1471|dock9
  -GOLD-   2262019293D 1   1.00000     0.00000
 Structure written by MMmdl.
 53 56  0  0  0  0  0  0  0  0  1 V2000
  152.2958  143.2397  160.0126 C   0  0  0  0  0  0  0  0  0  0  0  0
  153.1242  141.9493  159.8381 C   0  0  1  0  0  0  0  0  0  0  0  0
  153.9373  141.6884  161.1238 C   0  0  0  0  0  0  0  0  0  0  0  0
  154.7293  140.3771  161.0422 C   0  0  0  0  0  0  0  0  0  0  0  0
  153.7747  139.2078  160.7424 C   0  0  2  0  0  0  0  0  0  0  0  0
  154.5395  137.8825  160.6334 C   0  0  0  0  0  0  0  0  0  0  0  0
  154.2205  136.9228  161.5054 N   0  0  0  0  0  0  0  0  0  0  0  0
  155.4064  137.7239  159.7757 O   0  0  0  0  0  0  0  0  0  0  0  0
  152.9973  139.4997  159.4451 C   0  0  0  0  0  0  0  0  0  0  0  0
  152.2908  140.7796  159.5146 N   0  0  0  0  0  0  0  0  0  0  0  0
  151.4473  140.8929  158.4607 C   0  0  0  0  0  0  0  0  0  0  0  0
  151.4642  142.0100  157.6854 N   0  0  0  0  0  0  0  0  0  0  0  0
  150.6485  142.1036  156.6307 C   0  0  0  0  0  0  0  0  0  0  0  0
  149.7613  141.2140  156.1795 N   0  0  0  0  0  0  0  0  0  0  0  0
  149.7497  140.0893  156.9515 C   0  0  0  0  0  0  0  0  0  0  0  0
  150.5595  139.8465  158.0956 C   0  0  0  0  0  0  0  0  0  0  0  0
  150.2894  138.5862  158.6135 N   0  0  0  0  0  0  0  0  0  0  0  0
  149.3735  138.1077  157.8155 C   0  0  0  0  0  0  0  0  0  0  0  0
  148.9709  138.9546  156.8065 N   0  0  0  0  0  0  0  0  0  0  0  0
  148.0181  138.6751  155.7726 C   0  0  0  0  0  0  0  0  0  0  0  0
  148.3883  138.8348  154.2972 C   0  0  0  0  0  0  0  0  0  0  0  0
  146.9256  139.2232  153.9807 C   0  0  0  0  0  0  0  0  0  0  0  0
  146.7257  140.3885  152.9955 C   0  0  0  0  0  0  0  0  0  0  0  0
  146.7054  139.9506  151.6527 O   0  0  0  0  0  0  0  0  0  0  0  0
  145.9740  138.0680  153.6028 C   0  0  0  0  0  0  0  0  0  0  0  0
  146.2548  137.5393  152.3232 O   0  0  0  0  0  0  0  0  0  0  0  0
  146.8580  139.6281  155.4711 C   0  0  0  0  0  0  0  0  0  0  0  0
  152.9349  144.0756  160.2979 H   0  0  0  0  0  0  0  0  0  0  0  0
  151.5405  143.1214  160.7903 H   0  0  0  0  0  0  0  0  0  0  0  0
  151.7845  143.5323  159.0960 H   0  0  0  0  0  0  0  0  0  0  0  0
  153.8298  142.0979  159.0191 H   0  0  0  0  0  0  0  0  0  0  0  0
  154.6218  142.5172  161.3076 H   0  0  0  0  0  0  0  0  0  0  0  0
  153.2657  141.6479  161.9826 H   0  0  0  0  0  0  0  0  0  0  0  0
  155.4897  140.4599  160.2639 H   0  0  0  0  0  0  0  0  0  0  0  0
  155.2586  140.2065  161.9806 H   0  0  0  0  0  0  0  0  0  0  0  0
  153.0573  139.1287  161.5616 H   0  0  0  0  0  0  0  0  0  0  0  0
  154.6970  136.0334  161.4730 H   0  0  0  0  0  0  0  0  0  0  0  0
  153.5027  137.0917  162.1952 H   0  0  0  0  0  0  0  0  0  0  0  0
  153.6786  139.5196  158.5926 H   0  0  0  0  0  0  0  0  0  0  0  0
  152.2859  138.6926  159.2609 H   0  0  0  0  0  0  0  0  0  0  0  0
  150.7176  143.0223  156.0672 H   0  0  0  0  0  0  0  0  0  0  0  0
  148.9614  137.1179  157.9476 H   0  0  0  0  0  0  0  0  0  0  0  0
  147.6494  137.6670  155.9698 H   0  0  0  0  0  0  0  0  0  0  0  0
  149.0904  139.6541  154.1302 H   0  0  0  0  0  0  0  0  0  0  0  0
  148.7394  137.9199  153.8194 H   0  0  0  0  0  0  0  0  0  0  0  0
  145.8027  140.9299  153.2042 H   0  0  0  0  0  0  0  0  0  0  0  0
  147.5332  141.1154  153.0866 H   0  0  0  0  0  0  0  0  0  0  0  0
  147.5697  139.6470  151.4218 H   0  0  0  0  0  0  0  0  0  0  0  0
  146.0478  137.2476  154.3166 H   0  0  0  0  0  0  0  0  0  0  0  0
  144.9333  138.3925  153.6256 H   0  0  0  0  0  0  0  0  0  0  0  0
  147.1389  137.2060  152.3220 H   0  0  0  0  0  0  0  0  0  0  0  0
  145.9241  139.3760  155.9746 H   0  0  0  0  0  0  0  0  0  0  0  0
  147.1225  140.6731  155.6441 H   0  0  0  0  0  0  0  0  0  0  0  0
  1  2  1  0  0  0  0
  1 28  1  0  0  0  0
  1 29  1  0  0  0  0
  1 30  1  0  0  0  0
  2 10  1  0  0  0  0
  2  3  1  0  0  0  0
  2 31  1  0  0  0  0
  3  4  1  0  0  0  0
  3 32  1  0  0  0  0
  3 33  1  0  0  0  0
  4  5  1  0  0  0  0
  4 34  1  0  0  0  0
  4 35  1  0  0  0  0
  5  6  1  0  0  0  0
  5  9  1  0  0  0  0
  5 36  1  0  0  0  0
  6  7  1  0  0  0  0
  6  8  2  0  0  0  0
  7 37  1  0  0  0  0
  7 38  1  0  0  0  0
  9 10  1  0  0  0  0
  9 39  1  0  0  0  0
  9 40  1  0  0  0  0
 10 11  1  0  0  0  0
 11 16  1  0  0  0  0
 11 12  2  0  0  0  0
 12 13  1  0  0  0  0
 13 14  2  0  0  0  0
 13 41  1  0  0  0  0
 14 15  1  0  0  0  0
 15 19  1  0  0  0  0
 15 16  2  0  0  0  0
 16 17  1  0  0  0  0
 17 18  2  0  0  0  0
 18 19  1  0  0  0  0
 18 42  1  0  0  0  0
 19 20  1  0  0  0  0
 20 27  1  0  0  0  0
 20 21  1  0  0  0  0
 20 43  1  0  0  0  0
 21 22  1  0  0  0  0
 21 44  1  0  0  0  0
 21 45  1  0  0  0  0
 22 23  1  0  0  0  0
 22 25  1  0  0  0  0
 22 27  1  0  0  0  0
 23 24  1  0  0  0  0
 23 46  1  0  0  0  0
 23 47  1  0  0  0  0
 24 48  1  0  0  0  0
 25 26  1  0  0  0  0
 25 49  1  0  0  0  0
 25 50  1  0  0  0  0
 26 51  1  0  0  0  0
 27 52  1  0  0  0  0
 27 53  1  0  0  0  0
M  END
> <s_m_source_file>
AV-unprocessed.smi

> <i_m_source_file_index>
187

> <i_lp_mmshare_version>
43012

> <i_f3d_flags>
0

> <s_epik_input>
W0NIM11bQ0BASF0xW0NIMl1bQ0gyXVtDQEBIXShDKD1PKVtOSDJdKVtDSDJdTjFjKG5bY0hdbjIpYyhjMjMpbltjSF1uM1tDSF0oW0NIMl00KVtDSDJdQzQoW0NIMl1bT0hdKVtDSDJdW09IXQ==

> <s_epik_cmdline>
J2VwaWtfcHl0aG9uJywgJy1waCcsICc3LjAnLCAnLXRuJywgJzgnLCAnLW1hJywgJzIwMCcsICctbWV0YWxfYmluZGluZycsICctaW1hZScsICc8aW5maWxlLm1hZT4nLCAnLW9tYWUnLCAnPG91dGZpbGUubWFlPic=

> <r_lp_tautomer_probability>
1

> <r_epik_Ionization_Penalty>
0.0017711

> <r_epik_Ionization_Penalty_Charging>
0

> <r_epik_Ionization_Penalty_Neutral>
0.0017711

> <r_epik_State_Penalty>
0.00107211

> <r_epik_Charging_Adjusted_Penalty>
0.00107211

> <i_epik_Tot_Q>
0

> <i_epik_Tot_abs_Q>
0

> <r_epik_Metal_State_Penalty>
-0

> <b_epik_Metal_Only>
0

> <s_lp_Force_Field>
OPLS_2005

> <r_lp_Energy>
43.5948

> <b_lp_Chiralities_Consistent>
1

> <s_lp_Variant>
AV-unprocessed.smi:187-4

> <Gold.Version>
5.8.1

> <Gold.Id.Protein>
6NUR|6NUR_protein|mol2

> <Gold.PLP.Fitness>
44.6352

> <Gold.PLP.PLP>
-35.9815

> <Gold.PLP.part.hbond>
-2.0000

> <Gold.PLP.part.metal>
0.0000

> <Gold.PLP.part.buried>
-6.8696

> <Gold.PLP.part.nonpolar>
-28.3832

> <Gold.PLP.part.repulsive>
0.1487

> <Gold.PLP.ligand.clash>
0.0000

> <Gold.PLP.ligand.torsion>
0.5109

> <Gold.PLP.Chemscore.Hbond>
2.0000

> <Gold.PLP.Chemscore.CHOScore>
0.9862

> <Gold.PLP.Chemscore.Metal>
0.0000

> <Gold.Chemscore.Hbonds>
donor molecule, donor type, donor heavy atom, donor atom, acceptor molecule, acceptor atom, score
      L1  H    24    48       P1  7957  0.95
      L1  H    26    51       P1  7948  0.83
      L1  C    13    41       P1  8028  0.96

> <Gold.PLP.Chemscore.Internal.Correction>
0.7168

> <Gold.Rescore>
     Score         DG    S(hbond)    S(metal)    S(lipo)     H(rot)  DE(clash)    DE(int)     intcor
      9.63     -11.46       1.99        0.00      81.50       3.99       0.08       1.75       ----

> <Gold.Chemscore.Fitness>
9.6252

> <Gold.Chemscore.DG>
-11.4604

> <Gold.Chemscore.ZeroCoef>
-5.4800

> <Gold.Chemscore.Hbond>
1.9939

> <Gold.Chemscore.Metal>
0.0000

> <Gold.Chemscore.Lipo>
81.5006

> <Gold.Chemscore.Internal_Hbond>
0.0000

> <Gold.Chemscore.DEClash>
0.0811

> <Gold.Chemscore.DEInternal>
1.7541

> <Gold.Chemscore.Rot>
3.9902

> <Gold.Chemscore.Internal.Correction>
   9.000000E+99

> <Gold.Chemscore.Hbonds>
donor molecule, donor type, donor heavy atom, donor atom, acceptor molecule, acceptor atom, score
      L1  H    24    48       P1  7957  0.85
      L1  H    26    51       P1  7948  0.82

> <Gold.Chemscore.Hbond.Weighted>
-6.6596

> <Gold.Chemscore.Metal.Weighted>
-0.0000

> <Gold.Chemscore.Lipo.Weighted>
-9.5356

> <Gold.Chemscore.Internal_Hbond.Weighted>
0.0000

> <Gold.Chemscore.DEClash.Weighted>
0.0811

> <Gold.Chemscore.DEInternal.Weighted>
1.7541

> <Gold.Chemscore.Rot.Weighted>
10.2148

> <Gold.Chemscore.Internal.Correction.Weighted>
   9.000000E+99

> <Gold.Protein.RotatedTorsions>
[ 6907 6896 6895 6894 ] final -131.39 input  -60.11 | X-H torsion
[ 7974 7965 7964 7962 ] final  137.23 input  175.53 | X-H torsion
[ 8008 7997 7996 7995 ] final  -28.80 input   59.86 | X-H torsion
[ 10167 10162 10161 10158 ] final -139.45 input  -65.29 | X-H torsion
[ 10718 10713 10712 10709 ] final  -82.91 input   66.30 | X-H torsion
[ 10763 10752 10751 10750 ] final  -14.87 input  -60.55 | X-H torsion
[ 11005 11000 10999 10996 ] final  164.11 input  -57.11 | X-H torsion

> <Gold.Protein.ActiveResidues>
 VAL166  LYS551  ARG553  GLY616  TRP617  ASP618  TYR619  PRO620  LYS621  CYS622 
 ASP623  PHE694  ASN695  SER759  ASP760  ASP761  ALA762  ILE779  LEU786  VAL792 
 PHE793  MET794  SER795  GLU796  ALA797  LYS798  CYS799  TRP800  GLU811  SER814 

> <Gold.Protein.RotatedAtoms>
  150.9504  133.6556  159.2772 H   0  0  0  0  0  0  0  0  0  0  0  0  # atno 6907 bound_to 6896
  151.3914  135.0955  159.9537 H   0  0  0  0  0  0  0  0  0  0  0  0  # atno 6908 bound_to 6896
  152.5107  133.9017  159.7499 H   0  0  0  0  0  0  0  0  0  0  0  0  # atno 6909 bound_to 6896
  144.9488  139.4843  143.5536 H   0  0  0  0  0  0  0  0  0  0  0  0  # atno 7974 bound_to 7965
  154.4317  140.1835  156.1146 H   0  0  0  0  0  0  0  0  0  0  0  0  # atno 8008 bound_to 7997
  156.0191  140.3342  155.6994 H   0  0  0  0  0  0  0  0  0  0  0  0  # atno 8009 bound_to 7997
  155.6002  140.0639  157.2725 H   0  0  0  0  0  0  0  0  0  0  0  0  # atno 8010 bound_to 7997
  139.8378  143.7361  152.2664 H   0  0  0  0  0  0  0  0  0  0  0  0  # atno 10167 bound_to 10162
  156.0026  130.4649  150.4176 H   0  0  0  0  0  0  0  0  0  0  0  0  # atno 10718 bound_to 10713
  153.5347  135.7014  153.5666 H   0  0  0  0  0  0  0  0  0  0  0  0  # atno 10763 bound_to 10752
  153.3657  135.3958  155.1752 H   0  0  0  0  0  0  0  0  0  0  0  0  # atno 10764 bound_to 10752
  154.8680  135.3799  154.4847 H   0  0  0  0  0  0  0  0  0  0  0  0  # atno 10765 bound_to 10752
  140.2426  134.8039  157.3425 H   0  0  0  0  0  0  0  0  0  0  0  0  # atno 11005 bound_to 11000
  146.3313  139.8559  142.8865 LP  0  0  0  0  0  0  0  0  0  0  0  0  # atno 17320 bound_to 7965
  145.2876  141.0157  143.3681 LP  0  0  0  0  0  0  0  0  0  0  0  0  # atno 17321 bound_to 7965
  139.7589  144.7512  151.0394 LP  0  0  0  0  0  0  0  0  0  0  0  0  # atno 17342 bound_to 10162
  140.7801  143.4774  151.0064 LP  0  0  0  0  0  0  0  0  0  0  0  0  # atno 17343 bound_to 10162
  157.2235  131.0488  151.2533 LP  0  0  0  0  0  0  0  0  0  0  0  0  # atno 17370 bound_to 10713
  157.3778  130.7215  149.6609 LP  0  0  0  0  0  0  0  0  0  0  0  0  # atno 17371 bound_to 10713
  140.1638  134.4695  155.7877 LP  0  0  0  0  0  0  0  0  0  0  0  0  # atno 17394 bound_to 11000
  141.2209  133.6912  156.7590 LP  0  0  0  0  0  0  0  0  0  0  0  0  # atno 17395 bound_to 11000

$$$$
