AV-unprocessed.smi:2019|AV-procd|sdf|8172|dock2
  -GOLD-   2272010423D 1   1.00000     0.00000
 Structure written by MMmdl.
 36 37  0  0  0  0  0  0  0  0  1 V2000
  149.5132  142.0802  157.5035 O   0  0  0  0  0  0  0  0  0  0  0  0
  150.5495  141.7040  156.9543 C   0  0  0  0  0  0  0  0  0  0  0  0
  151.9217  142.0578  157.5432 C   0  0  0  0  0  0  0  0  0  0  0  0
  151.8430  143.0543  158.6241 N   0  0  0  0  0  0  0  0  0  0  0  0
  151.2209  144.2825  158.3230 C   0  0  0  0  0  0  0  0  0  0  0  0
  151.0924  145.2565  159.2379 C   0  0  0  0  0  0  0  0  0  0  0  0
  151.6128  145.0204  160.5638 C   0  0  0  0  0  0  0  0  0  0  0  0
  152.2079  143.8486  160.8629 C   0  0  0  0  0  0  0  0  0  0  0  0
  152.3502  142.7809  159.8661 C   0  0  0  0  0  0  0  0  0  0  0  0
  152.8922  141.7075  160.1310 O   0  0  0  0  0  0  0  0  0  0  0  0
  150.5620  140.9887  155.8182 N   0  0  0  0  0  0  0  0  0  0  0  0
  149.3771  140.5162  155.0984 C   0  0  1  0  0  0  0  0  0  0  0  0
  148.8385  141.6966  154.2576 C   0  0  0  0  0  0  0  0  0  0  0  0
  147.3529  141.5621  153.8794 C   0  0  0  0  0  0  0  0  0  0  0  0
  147.0244  140.3867  152.9461 C   0  0  0  0  0  0  0  0  0  0  0  0
  147.3316  139.0083  153.5559 C   0  0  0  0  0  0  0  0  0  0  0  0
  148.7543  138.6964  153.5159 N   0  0  0  0  0  0  0  0  0  0  0  0
  149.7398  139.3438  154.1561 C   0  0  0  0  0  0  0  0  0  0  0  0
  150.9128  139.0099  153.9890 O   0  0  0  0  0  0  0  0  0  0  0  0
  152.4108  141.1516  157.9066 H   0  0  0  0  0  0  0  0  0  0  0  0
  152.5552  142.4180  156.7316 H   0  0  0  0  0  0  0  0  0  0  0  0
  150.8527  144.3769  157.3117 H   0  0  0  0  0  0  0  0  0  0  0  0
  150.6094  146.1903  158.9899 H   0  0  0  0  0  0  0  0  0  0  0  0
  151.5233  145.7863  161.3201 H   0  0  0  0  0  0  0  0  0  0  0  0
  152.5903  143.6892  161.8606 H   0  0  0  0  0  0  0  0  0  0  0  0
  151.4585  140.7211  155.4388 H   0  0  0  0  0  0  0  0  0  0  0  0
  148.6252  140.1973  155.8227 H   0  0  0  0  0  0  0  0  0  0  0  0
  148.9373  142.6177  154.8343 H   0  0  0  0  0  0  0  0  0  0  0  0
  149.4443  141.8483  153.3621 H   0  0  0  0  0  0  0  0  0  0  0  0
  146.7549  141.4809  154.7881 H   0  0  0  0  0  0  0  0  0  0  0  0
  147.0329  142.4859  153.3965 H   0  0  0  0  0  0  0  0  0  0  0  0
  145.9604  140.4299  152.7105 H   0  0  0  0  0  0  0  0  0  0  0  0
  147.5454  140.5028  151.9944 H   0  0  0  0  0  0  0  0  0  0  0  0
  146.9500  138.9319  154.5751 H   0  0  0  0  0  0  0  0  0  0  0  0
  146.8185  138.2389  152.9786 H   0  0  0  0  0  0  0  0  0  0  0  0
  149.0254  137.9291  152.9176 H   0  0  0  0  0  0  0  0  0  0  0  0
  1  2  2  0  0  0  0
  2  3  1  0  0  0  0
  2 11  1  0  0  0  0
  3  4  1  0  0  0  0
  3 20  1  0  0  0  0
  3 21  1  0  0  0  0
  4  9  1  0  0  0  0
  4  5  1  0  0  0  0
  5  6  2  0  0  0  0
  5 22  1  0  0  0  0
  6  7  1  0  0  0  0
  6 23  1  0  0  0  0
  7  8  2  0  0  0  0
  7 24  1  0  0  0  0
  8  9  1  0  0  0  0
  8 25  1  0  0  0  0
  9 10  2  0  0  0  0
 11 12  1  0  0  0  0
 11 26  1  0  0  0  0
 12 18  1  0  0  0  0
 12 13  1  0  0  0  0
 12 27  1  0  0  0  0
 13 14  1  0  0  0  0
 13 28  1  0  0  0  0
 13 29  1  0  0  0  0
 14 15  1  0  0  0  0
 14 30  1  0  0  0  0
 14 31  1  0  0  0  0
 15 16  1  0  0  0  0
 15 32  1  0  0  0  0
 15 33  1  0  0  0  0
 16 17  1  0  0  0  0
 16 34  1  0  0  0  0
 16 35  1  0  0  0  0
 17 18  1  0  0  0  0
 17 36  1  0  0  0  0
 18 19  2  0  0  0  0
M  END
> <s_m_source_file>
AV-unprocessed.smi

> <i_m_source_file_index>
2019

> <i_lp_mmshare_version>
43012

> <i_f3d_flags>
0

> <s_epik_input>
Tz1jMVtjSF1bY0hdW2NIXVtjSF1uMVtDSDJdQyg9TylbTkhdW0NAQEhdMltDSDJdW0NIMl1bQ0gyXVtDSDJdW05IXUMyPU8=

> <s_epik_cmdline>
J2VwaWtfcHl0aG9uJywgJy1waCcsICc3LjAnLCAnLXRuJywgJzgnLCAnLW1hJywgJzIwMCcsICctbWV0YWxfYmluZGluZycsICctaW1hZScsICc8aW5maWxlLm1hZT4nLCAnLW9tYWUnLCAnPG91dGZpbGUubWFlPic=

> <r_lp_tautomer_probability>
1

> <r_epik_Ionization_Penalty>
3.70786e-07

> <r_epik_Ionization_Penalty_Charging>
3.17464e-07

> <r_epik_Ionization_Penalty_Neutral>
5.33217e-08

> <r_epik_State_Penalty>
-0

> <r_epik_Charging_Adjusted_Penalty>
3.17464e-07

> <i_epik_Tot_Q>
0

> <i_epik_Tot_abs_Q>
0

> <r_epik_Metal_State_Penalty>
-0

> <b_epik_Metal_Only>
0

> <s_lp_Force_Field>
OPLS_2005

> <r_lp_Energy>
20.0442

> <b_lp_Chiralities_Consistent>
1

> <s_lp_Variant>
AV-unprocessed.smi:2019-2

> <Gold.Version>
5.8.1

> <Gold.Id.Protein>
6NUR|6NUR_protein|mol2

> <Gold.PLP.Fitness>
47.9540

> <Gold.PLP.PLP>
-40.0697

> <Gold.PLP.part.hbond>
-3.0000

> <Gold.PLP.part.metal>
0.0000

> <Gold.PLP.part.buried>
-1.4919

> <Gold.PLP.part.nonpolar>
-36.1480

> <Gold.PLP.part.repulsive>
0.5377

> <Gold.PLP.ligand.clash>
0.0000

> <Gold.PLP.ligand.torsion>
0.4094

> <Gold.PLP.Chemscore.Hbond>
1.9000

> <Gold.PLP.Chemscore.CHOScore>
1.0000

> <Gold.PLP.Chemscore.Metal>
0.0000

> <Gold.Chemscore.Hbonds>
donor molecule, donor type, donor heavy atom, donor atom, acceptor molecule, acceptor atom, score
      L1  H    17    36       P1  7948  1.00
      P1  H  7989  7998       L1    19  0.88
      L1  C     5    22       P1  8028  0.93

> <Gold.PLP.Chemscore.Internal.Correction>
0.0030

> <Gold.Rescore>
     Score         DG    S(hbond)    S(metal)    S(lipo)     H(rot)  DE(clash)    DE(int)     intcor
     14.47     -15.04       1.01        0.00      87.82       1.59       0.04       0.52       ----

> <Gold.Chemscore.Fitness>
14.4736

> <Gold.Chemscore.DG>
-15.0407

> <Gold.Chemscore.ZeroCoef>
-5.4800

> <Gold.Chemscore.Hbond>
1.0077

> <Gold.Chemscore.Metal>
0.0000

> <Gold.Chemscore.Lipo>
87.8239

> <Gold.Chemscore.Internal_Hbond>
0.0000

> <Gold.Chemscore.DEClash>
0.0433

> <Gold.Chemscore.DEInternal>
0.5237

> <Gold.Chemscore.Rot>
1.5939

> <Gold.Chemscore.Internal.Correction>
   9.000000E+99

> <Gold.Chemscore.Hbonds>
donor molecule, donor type, donor heavy atom, donor atom, acceptor molecule, acceptor atom, score
      L1  H    17    36       P1  7948  0.98
      P1  H  7989  7998       L1    19  0.16

> <Gold.Chemscore.Hbond.Weighted>
-3.3657

> <Gold.Chemscore.Metal.Weighted>
-0.0000

> <Gold.Chemscore.Lipo.Weighted>
-10.2754

> <Gold.Chemscore.Internal_Hbond.Weighted>
0.0000

> <Gold.Chemscore.DEClash.Weighted>
0.0433

> <Gold.Chemscore.DEInternal.Weighted>
0.5237

> <Gold.Chemscore.Rot.Weighted>
4.0804

> <Gold.Chemscore.Internal.Correction.Weighted>
   9.000000E+99

> <Gold.Protein.RotatedTorsions>
[ 6907 6896 6895 6894 ] final  -97.27 input  -60.11 | X-H torsion
[ 7974 7965 7964 7962 ] final  172.93 input  175.53 | X-H torsion
[ 8008 7997 7996 7995 ] final  128.92 input   59.86 | X-H torsion
[ 10167 10162 10161 10158 ] final   41.67 input  -65.29 | X-H torsion
[ 10718 10713 10712 10709 ] final -136.20 input   66.30 | X-H torsion
[ 10763 10752 10751 10750 ] final  115.78 input  -60.55 | X-H torsion
[ 11005 11000 10999 10996 ] final  -71.90 input  -57.11 | X-H torsion

> <Gold.Protein.ActiveResidues>
 VAL166  LYS551  ARG553  GLY616  TRP617  ASP618  TYR619  PRO620  LYS621  CYS622 
 ASP623  PHE694  ASN695  SER759  ASP760  ASP761  ALA762  ILE779  LEU786  VAL792 
 PHE793  MET794  SER795  GLU796  ALA797  LYS798  CYS799  TRP800  GLU811  SER814 

> <Gold.Protein.RotatedAtoms>
  150.7011  134.1374  159.4091 H   0  0  0  0  0  0  0  0  0  0  0  0  # atno 6907 bound_to 6896
  151.9359  135.0233  160.0542 H   0  0  0  0  0  0  0  0  0  0  0  0  # atno 6908 bound_to 6896
  152.2135  133.4894  159.5160 H   0  0  0  0  0  0  0  0  0  0  0  0  # atno 6909 bound_to 6896
  144.7256  139.9572  143.6434 H   0  0  0  0  0  0  0  0  0  0  0  0  # atno 7974 bound_to 7965
  156.2925  140.2633  156.2515 H   0  0  0  0  0  0  0  0  0  0  0  0  # atno 8008 bound_to 7997
  154.9878  140.0389  157.2324 H   0  0  0  0  0  0  0  0  0  0  0  0  # atno 8009 bound_to 7997
  154.7714  140.2778  155.6140 H   0  0  0  0  0  0  0  0  0  0  0  0  # atno 8010 bound_to 7997
  140.3621  144.2215  150.6137 H   0  0  0  0  0  0  0  0  0  0  0  0  # atno 10167 bound_to 10162
  156.2745  130.7285  151.1262 H   0  0  0  0  0  0  0  0  0  0  0  0  # atno 10718 bound_to 10713
  153.5274  135.3585  155.2660 H   0  0  0  0  0  0  0  0  0  0  0  0  # atno 10763 bound_to 10752
  154.8730  135.4060  154.3190 H   0  0  0  0  0  0  0  0  0  0  0  0  # atno 10764 bound_to 10752
  153.3872  135.7070  153.6589 H   0  0  0  0  0  0  0  0  0  0  0  0  # atno 10765 bound_to 10752
  141.1600  133.6831  156.6977 H   0  0  0  0  0  0  0  0  0  0  0  0  # atno 11005 bound_to 11000
  146.0665  139.3656  143.0549 LP  0  0  0  0  0  0  0  0  0  0  0  0  # atno 17320 bound_to 7965
  145.8024  140.9765  143.0992 LP  0  0  0  0  0  0  0  0  0  0  0  0  # atno 17321 bound_to 7965
  140.5117  143.2289  151.8525 LP  0  0  0  0  0  0  0  0  0  0  0  0  # atno 17342 bound_to 10162
  139.4813  144.4942  151.9146 LP  0  0  0  0  0  0  0  0  0  0  0  0  # atno 17343 bound_to 10162
  157.7295  131.0624  150.5772 LP  0  0  0  0  0  0  0  0  0  0  0  0  # atno 17370 bound_to 10713
  156.5872  130.4320  149.5952 LP  0  0  0  0  0  0  0  0  0  0  0  0  # atno 17371 bound_to 10713
  140.2982  134.8185  157.4075 LP  0  0  0  0  0  0  0  0  0  0  0  0  # atno 17394 bound_to 11000
  140.1285  134.5126  155.8125 LP  0  0  0  0  0  0  0  0  0  0  0  0  # atno 17395 bound_to 11000

$$$$
