AV-unprocessed.smi:1814|AV-procd|sdf|7349|dock5
  -GOLD-   22720 9 13D 1   1.00000     0.00000
 Structure written by MMmdl.
 31 32  0  0  0  0  0  0  0  0  1 V2000
  150.8911  140.5884  156.4001 O   0  0  0  0  0  0  0  0  0  0  0  0
  150.3622  141.6958  156.2987 C   0  0  0  0  0  0  0  0  0  0  0  0
  150.6158  142.7534  157.0894 N   0  0  0  0  0  0  0  0  0  0  0  0
  151.5217  142.8373  158.1792 C   0  0  0  0  0  0  0  0  0  0  0  0
  152.1399  141.7862  158.7305 N   0  0  0  0  0  0  0  0  0  0  0  0
  152.9749  142.1624  159.7854 C   0  0  0  0  0  0  0  0  0  0  0  0
  152.9810  143.5140  160.0254 C   0  0  0  0  0  0  0  0  0  0  0  0
  151.9295  144.3726  158.9314 S   0  0  0  0  0  0  0  0  0  0  0  0
  149.4485  141.9964  155.3641 N   0  0  0  0  0  0  0  0  0  0  0  0
  148.9534  141.0773  154.3435 C   0  0  2  0  0  0  0  0  0  0  0  0
  147.7292  141.6750  153.6205 C   0  0  0  0  0  0  0  0  0  0  0  0
  147.1518  140.6963  152.5826 C   0  0  0  0  0  0  0  0  0  0  0  0
  146.8247  139.3202  153.1929 C   0  0  2  0  0  0  0  0  0  0  0  0
  145.7080  139.4232  154.0545 O   0  0  0  0  0  0  0  0  0  0  0  0
  148.0286  138.7386  153.9579 C   0  0  0  0  0  0  0  0  0  0  0  0
  148.5955  139.7276  154.9915 C   0  0  0  0  0  0  0  0  0  0  0  0
  150.1068  143.6001  156.8834 H   0  0  0  0  0  0  0  0  0  0  0  0
  153.5308  141.4006  160.3118 H   0  0  0  0  0  0  0  0  0  0  0  0
  153.5382  144.0537  160.7766 H   0  0  0  0  0  0  0  0  0  0  0  0
  149.0672  142.9310  155.3549 H   0  0  0  0  0  0  0  0  0  0  0  0
  149.7442  140.9011  153.6117 H   0  0  0  0  0  0  0  0  0  0  0  0
  146.9580  141.9298  154.3489 H   0  0  0  0  0  0  0  0  0  0  0  0
  148.0024  142.6075  153.1252 H   0  0  0  0  0  0  0  0  0  0  0  0
  146.2639  141.1250  152.1163 H   0  0  0  0  0  0  0  0  0  0  0  0
  147.8803  140.5641  151.7814 H   0  0  0  0  0  0  0  0  0  0  0  0
  146.5456  138.6333  152.3934 H   0  0  0  0  0  0  0  0  0  0  0  0
  144.9840  139.7850  153.5664 H   0  0  0  0  0  0  0  0  0  0  0  0
  147.7511  137.8036  154.4460 H   0  0  0  0  0  0  0  0  0  0  0  0
  148.8142  138.4866  153.2443 H   0  0  0  0  0  0  0  0  0  0  0  0
  149.4780  139.2948  155.4642 H   0  0  0  0  0  0  0  0  0  0  0  0
  147.8649  139.8803  155.7873 H   0  0  0  0  0  0  0  0  0  0  0  0
  1  2  2  0  0  0  0
  2  3  1  0  0  0  0
  2  9  1  0  0  0  0
  3  4  1  0  0  0  0
  3 17  1  0  0  0  0
  4  8  1  0  0  0  0
  4  5  2  0  0  0  0
  5  6  1  0  0  0  0
  6  7  2  0  0  0  0
  6 18  1  0  0  0  0
  7  8  1  0  0  0  0
  7 19  1  0  0  0  0
  9 10  1  0  0  0  0
  9 20  1  0  0  0  0
 10 16  1  0  0  0  0
 10 11  1  0  0  0  0
 10 21  1  0  0  0  0
 11 12  1  0  0  0  0
 11 22  1  0  0  0  0
 11 23  1  0  0  0  0
 12 13  1  0  0  0  0
 12 24  1  0  0  0  0
 12 25  1  0  0  0  0
 13 14  1  0  0  0  0
 13 15  1  0  0  0  0
 13 26  1  0  0  0  0
 14 27  1  0  0  0  0
 15 16  1  0  0  0  0
 15 28  1  0  0  0  0
 15 29  1  0  0  0  0
 16 30  1  0  0  0  0
 16 31  1  0  0  0  0
M  END
> <s_m_source_file>
AV-unprocessed.smi

> <i_m_source_file_index>
1814

> <i_lp_mmshare_version>
43012

> <i_f3d_flags>
0

> <s_epik_input>
czFbY0hdW2NIXW5jMVtOSF1DKD1PKVtOSF1bQ0BASF0yW0NIMl1bQ0gyXVtDQEBIXShbT0hdKVtDSDJdW0NIMl0y

> <s_epik_cmdline>
J2VwaWtfcHl0aG9uJywgJy1waCcsICc3LjAnLCAnLXRuJywgJzgnLCAnLW1hJywgJzIwMCcsICctbWV0YWxfYmluZGluZycsICctaW1hZScsICc8aW5maWxlLm1hZT4nLCAnLW9tYWUnLCAnPG91dGZpbGUubWFlPic=

> <r_lp_tautomer_probability>
0.999

> <r_epik_Ionization_Penalty>
0.000428518

> <r_epik_Ionization_Penalty_Charging>
0

> <r_epik_Ionization_Penalty_Neutral>
0.000428518

> <r_epik_State_Penalty>
0.000177984

> <r_epik_Charging_Adjusted_Penalty>
0.000177984

> <i_epik_Tot_Q>
0

> <i_epik_Tot_abs_Q>
0

> <r_epik_Metal_State_Penalty>
-0

> <b_epik_Metal_Only>
0

> <s_lp_Force_Field>
OPLS_2005

> <r_lp_Energy>
9.0844

> <b_lp_Chiralities_Consistent>
1

> <s_lp_Variant>
AV-unprocessed.smi:1814-2

> <Gold.Version>
5.8.1

> <Gold.Id.Protein>
6NUR|6NUR_protein|mol2

> <Gold.PLP.Fitness>
41.3292

> <Gold.PLP.PLP>
-32.6590

> <Gold.PLP.part.hbond>
-3.0000

> <Gold.PLP.part.metal>
0.0000

> <Gold.PLP.part.buried>
-4.3728

> <Gold.PLP.part.nonpolar>
-25.6490

> <Gold.PLP.part.repulsive>
0.2161

> <Gold.PLP.ligand.clash>
0.0000

> <Gold.PLP.ligand.torsion>
0.1532

> <Gold.PLP.Chemscore.Hbond>
2.9913

> <Gold.PLP.Chemscore.CHOScore>
0.0000

> <Gold.PLP.Chemscore.Metal>
0.0000

> <Gold.Chemscore.Hbonds>
donor molecule, donor type, donor heavy atom, donor atom, acceptor molecule, acceptor atom, score
      L1  H     3    17       P1  8028  0.96
      L1  H     9    20       P1  8028  1.00
      L1  H    14    27       P1 10175  1.00

> <Gold.PLP.Chemscore.Internal.Correction>
0.0028

> <Gold.Rescore>
     Score         DG    S(hbond)    S(metal)    S(lipo)     H(rot)  DE(clash)    DE(int)     intcor
     17.36     -20.35       2.93        0.00      76.39       1.50       0.27       2.72       ----

> <Gold.Chemscore.Fitness>
17.3577

> <Gold.Chemscore.DG>
-20.3476

> <Gold.Chemscore.ZeroCoef>
-5.4800

> <Gold.Chemscore.Hbond>
2.9255

> <Gold.Chemscore.Metal>
0.0000

> <Gold.Chemscore.Lipo>
76.3925

> <Gold.Chemscore.Internal_Hbond>
0.0000

> <Gold.Chemscore.DEClash>
0.2743

> <Gold.Chemscore.DEInternal>
2.7156

> <Gold.Chemscore.Rot>
1.5006

> <Gold.Chemscore.Internal.Correction>
   9.000000E+99

> <Gold.Chemscore.Hbonds>
donor molecule, donor type, donor heavy atom, donor atom, acceptor molecule, acceptor atom, score
      L1  H     3    17       P1  8028  0.86
      L1  H     9    20       P1  8028  1.00
      L1  H    14    27       P1 10175  1.00

> <Gold.Chemscore.Hbond.Weighted>
-9.7712

> <Gold.Chemscore.Metal.Weighted>
-0.0000

> <Gold.Chemscore.Lipo.Weighted>
-8.9379

> <Gold.Chemscore.Internal_Hbond.Weighted>
0.0000

> <Gold.Chemscore.DEClash.Weighted>
0.2743

> <Gold.Chemscore.DEInternal.Weighted>
2.7156

> <Gold.Chemscore.Rot.Weighted>
3.8415

> <Gold.Chemscore.Internal.Correction.Weighted>
   9.000000E+99

> <Gold.Protein.RotatedTorsions>
[ 6907 6896 6895 6894 ] final  106.91 input  -60.11 | X-H torsion
[ 7974 7965 7964 7962 ] final -112.67 input  175.53 | X-H torsion
[ 8008 7997 7996 7995 ] final   45.18 input   59.86 | X-H torsion
[ 10167 10162 10161 10158 ] final   11.20 input  -65.29 | X-H torsion
[ 10718 10713 10712 10709 ] final -168.95 input   66.30 | X-H torsion
[ 10763 10752 10751 10750 ] final -123.73 input  -60.55 | X-H torsion
[ 11005 11000 10999 10996 ] final -154.90 input  -57.11 | X-H torsion

> <Gold.Protein.ActiveResidues>
 VAL166  LYS551  ARG553  GLY616  TRP617  ASP618  TYR619  PRO620  LYS621  CYS622 
 ASP623  PHE694  ASN695  SER759  ASP760  ASP761  ALA762  ILE779  LEU786  VAL792 
 PHE793  MET794  SER795  GLU796  ALA797  LYS798  CYS799  TRP800  GLU811  SER814 

> <Gold.Protein.RotatedAtoms>
  152.5175  133.9312  159.7580 H   0  0  0  0  0  0  0  0  0  0  0  0  # atno 6907 bound_to 6896
  150.9662  133.6384  159.2752 H   0  0  0  0  0  0  0  0  0  0  0  0  # atno 6908 bound_to 6896
  151.3612  135.0910  159.9488 H   0  0  0  0  0  0  0  0  0  0  0  0  # atno 6909 bound_to 6896
  145.1412  140.8779  143.3701 H   0  0  0  0  0  0  0  0  0  0  0  0  # atno 7974 bound_to 7965
  155.3317  140.3403  155.4239 H   0  0  0  0  0  0  0  0  0  0  0  0  # atno 8008 bound_to 7997
  156.1858  140.1680  156.8224 H   0  0  0  0  0  0  0  0  0  0  0  0  # atno 8009 bound_to 7997
  154.5385  140.0730  156.8452 H   0  0  0  0  0  0  0  0  0  0  0  0  # atno 8010 bound_to 7997
  140.6147  143.8334  150.7104 H   0  0  0  0  0  0  0  0  0  0  0  0  # atno 10167 bound_to 10162
  156.7044  130.9209  151.3083 H   0  0  0  0  0  0  0  0  0  0  0  0  # atno 10718 bound_to 10713
  154.8712  135.4088  154.2991 H   0  0  0  0  0  0  0  0  0  0  0  0  # atno 10763 bound_to 10752
  153.3854  135.7013  153.6540 H   0  0  0  0  0  0  0  0  0  0  0  0  # atno 10764 bound_to 10752
  153.5345  135.3661  155.2662 H   0  0  0  0  0  0  0  0  0  0  0  0  # atno 10765 bound_to 10752
  140.6923  134.4028  157.5218 H   0  0  0  0  0  0  0  0  0  0  0  0  # atno 11005 bound_to 11000
  145.0530  139.3166  143.5919 LP  0  0  0  0  0  0  0  0  0  0  0  0  # atno 17320 bound_to 7965
  146.3505  139.9945  142.8682 LP  0  0  0  0  0  0  0  0  0  0  0  0  # atno 17321 bound_to 7965
  140.1910  143.4036  152.1863 LP  0  0  0  0  0  0  0  0  0  0  0  0  # atno 17342 bound_to 10162
  139.5389  144.7237  151.4801 LP  0  0  0  0  0  0  0  0  0  0  0  0  # atno 17343 bound_to 10162
  157.6960  130.9283  150.0647 LP  0  0  0  0  0  0  0  0  0  0  0  0  # atno 17370 bound_to 10713
  156.1705  130.3646  149.9171 LP  0  0  0  0  0  0  0  0  0  0  0  0  # atno 17371 bound_to 10713
  139.8920  134.8766  156.2293 LP  0  0  0  0  0  0  0  0  0  0  0  0  # atno 17394 bound_to 11000
  141.0231  133.7030  156.1302 LP  0  0  0  0  0  0  0  0  0  0  0  0  # atno 17395 bound_to 11000

$$$$
