AV-unprocessed.smi:1108|AV-procd|sdf|4787|dock8
  -GOLD-   22720 3333D 1   1.00000     0.00000
 Structure written by MMmdl.
 31 32  0  0  0  0  0  0  0  0  1 V2000
  148.9737  141.0124  157.1780 C   0  0  0  0  0  0  0  0  0  0  0  0
  150.1014  141.6698  156.3709 C   0  0  2  0  0  0  0  0  0  0  0  0
  151.3603  140.7768  156.3364 C   0  0  0  0  0  0  0  0  0  0  0  0
  151.1850  139.5874  155.5220 N   0  0  0  0  0  0  0  0  0  0  0  0
  151.4994  138.2811  155.8328 C   0  0  0  0  0  0  0  0  0  0  0  0
  151.1682  137.5156  154.7518 C   0  0  0  0  0  0  0  0  0  0  0  0
  150.6473  138.4558  153.8193 C   0  0  0  0  0  0  0  0  0  0  0  0
  150.6546  139.6943  154.2847 N   0  0  0  0  0  0  0  0  0  0  0  0
  150.4042  142.9748  156.9580 N   0  0  0  0  0  0  0  0  0  0  0  0
  151.2450  143.1981  157.9790 C   0  0  0  0  0  0  0  0  0  0  0  0
  151.8800  142.3165  158.5579 O   0  0  0  0  0  0  0  0  0  0  0  0
  151.2999  144.4979  158.2981 N   0  0  0  0  0  0  0  0  0  0  0  0
  152.0886  145.0583  159.3469 C   0  0  0  0  0  0  0  0  0  0  0  0
  151.8665  144.5351  160.7494 C   0  0  0  0  0  0  0  0  0  0  0  0
  151.3813  145.9096  160.3792 C   0  0  0  0  0  0  0  0  0  0  0  0
  148.6964  140.0486  156.7501 H   0  0  0  0  0  0  0  0  0  0  0  0
  148.0798  141.6370  157.1851 H   0  0  0  0  0  0  0  0  0  0  0  0
  149.2713  140.8430  158.2134 H   0  0  0  0  0  0  0  0  0  0  0  0
  149.7324  141.7987  155.3516 H   0  0  0  0  0  0  0  0  0  0  0  0
  152.2176  141.3365  155.9598 H   0  0  0  0  0  0  0  0  0  0  0  0
  151.6199  140.4558  157.3463 H   0  0  0  0  0  0  0  0  0  0  0  0
  151.9341  138.0099  156.7835 H   0  0  0  0  0  0  0  0  0  0  0  0
  151.2821  136.4475  154.6427 H   0  0  0  0  0  0  0  0  0  0  0  0
  150.2660  138.2761  152.8251 H   0  0  0  0  0  0  0  0  0  0  0  0
  149.9319  143.7705  156.5545 H   0  0  0  0  0  0  0  0  0  0  0  0
  150.7371  145.1418  157.7615 H   0  0  0  0  0  0  0  0  0  0  0  0
  153.1080  145.3543  159.1025 H   0  0  0  0  0  0  0  0  0  0  0  0
  151.1166  143.7594  160.8914 H   0  0  0  0  0  0  0  0  0  0  0  0
  152.7347  144.4673  161.4019 H   0  0  0  0  0  0  0  0  0  0  0  0
  151.9249  146.7602  160.7850 H   0  0  0  0  0  0  0  0  0  0  0  0
  150.3074  146.0514  160.2734 H   0  0  0  0  0  0  0  0  0  0  0  0
  1  2  1  0  0  0  0
  1 16  1  0  0  0  0
  1 17  1  0  0  0  0
  1 18  1  0  0  0  0
  2  3  1  0  0  0  0
  2  9  1  0  0  0  0
  2 19  1  0  0  0  0
  3  4  1  0  0  0  0
  3 20  1  0  0  0  0
  3 21  1  0  0  0  0
  4  8  1  0  0  0  0
  4  5  1  0  0  0  0
  5  6  2  0  0  0  0
  5 22  1  0  0  0  0
  6  7  1  0  0  0  0
  6 23  1  0  0  0  0
  7  8  2  0  0  0  0
  7 24  1  0  0  0  0
  9 10  1  0  0  0  0
  9 25  1  0  0  0  0
 10 11  2  0  0  0  0
 10 12  1  0  0  0  0
 12 13  1  0  0  0  0
 12 26  1  0  0  0  0
 13 15  1  0  0  0  0
 13 14  1  0  0  0  0
 13 27  1  0  0  0  0
 14 15  1  0  0  0  0
 14 28  1  0  0  0  0
 14 29  1  0  0  0  0
 15 30  1  0  0  0  0
 15 31  1  0  0  0  0
M  END
> <s_m_source_file>
AV-unprocessed.smi

> <i_m_source_file_index>
1108

> <i_lp_mmshare_version>
43012

> <i_f3d_flags>
0

> <s_epik_input>
W0NIMl0xW0NIMl1bQ0hdMVtOSF1DKD1PKVtOSF1bQ0BIXShbQ0gzXSlbQ0gyXW4yW2NIXVtjSF1bY0hdbjI=

> <s_epik_cmdline>
J2VwaWtfcHl0aG9uJywgJy1waCcsICc3LjAnLCAnLXRuJywgJzgnLCAnLW1hJywgJzIwMCcsICctbWV0YWxfYmluZGluZycsICctaW1hZScsICc8aW5maWxlLm1hZT4nLCAnLW9tYWUnLCAnPG91dGZpbGUubWFlPic=

> <r_lp_tautomer_probability>
1

> <r_epik_Ionization_Penalty>
7.55353e-05

> <r_epik_Ionization_Penalty_Charging>
0

> <r_epik_Ionization_Penalty_Neutral>
7.55353e-05

> <r_epik_State_Penalty>
-0

> <r_epik_Charging_Adjusted_Penalty>
0

> <i_epik_Tot_Q>
0

> <i_epik_Tot_abs_Q>
0

> <r_epik_Metal_State_Penalty>
-0

> <b_epik_Metal_Only>
0

> <s_lp_Force_Field>
OPLS_2005

> <r_lp_Energy>
13.7116

> <b_lp_Chiralities_Consistent>
1

> <s_lp_Variant>
AV-unprocessed.smi:1108-1

> <Gold.Version>
5.8.1

> <Gold.Id.Protein>
6NUR|6NUR_protein|mol2

> <Gold.PLP.Fitness>
43.1061

> <Gold.PLP.PLP>
-32.4760

> <Gold.PLP.part.hbond>
-2.0000

> <Gold.PLP.part.metal>
0.0000

> <Gold.PLP.part.buried>
-4.5523

> <Gold.PLP.part.nonpolar>
-26.7823

> <Gold.PLP.part.repulsive>
0.2320

> <Gold.PLP.ligand.clash>
0.0000

> <Gold.PLP.ligand.torsion>
0.5607

> <Gold.PLP.Chemscore.Hbond>
2.0000

> <Gold.PLP.Chemscore.CHOScore>
1.9015

> <Gold.PLP.Chemscore.Metal>
0.0000

> <Gold.Chemscore.Hbonds>
donor molecule, donor type, donor heavy atom, donor atom, acceptor molecule, acceptor atom, score
      L1  H     9    25       P1  8028  1.00
      P1  H  7989  7998       L1     8  1.00
      L1  C     7    24       P1  7948  0.77
      L1  C     7    24       P1  7949  0.08
      L1  C     7    24       P1  7957  0.82

> <Gold.PLP.Chemscore.Internal.Correction>
0.0469

> <Gold.Rescore>
     Score         DG    S(hbond)    S(metal)    S(lipo)     H(rot)  DE(clash)    DE(int)     intcor
     14.30     -16.28       1.98        0.00      73.28       1.71       0.05       1.92       ----

> <Gold.Chemscore.Fitness>
14.3040

> <Gold.Chemscore.DG>
-16.2794

> <Gold.Chemscore.ZeroCoef>
-5.4800

> <Gold.Chemscore.Hbond>
1.9751

> <Gold.Chemscore.Metal>
0.0000

> <Gold.Chemscore.Lipo>
73.2823

> <Gold.Chemscore.Internal_Hbond>
0.0000

> <Gold.Chemscore.DEClash>
0.0524

> <Gold.Chemscore.DEInternal>
1.9230

> <Gold.Chemscore.Rot>
1.7075

> <Gold.Chemscore.Internal.Correction>
   9.000000E+99

> <Gold.Chemscore.Hbonds>
donor molecule, donor type, donor heavy atom, donor atom, acceptor molecule, acceptor atom, score
      L1  H     9    25       P1  8028  1.00
      P1  H  7989  7998       L1     8  0.48

> <Gold.Chemscore.Hbond.Weighted>
-6.5967

> <Gold.Chemscore.Metal.Weighted>
-0.0000

> <Gold.Chemscore.Lipo.Weighted>
-8.5740

> <Gold.Chemscore.Internal_Hbond.Weighted>
0.0000

> <Gold.Chemscore.DEClash.Weighted>
0.0524

> <Gold.Chemscore.DEInternal.Weighted>
1.9230

> <Gold.Chemscore.Rot.Weighted>
4.3713

> <Gold.Chemscore.Internal.Correction.Weighted>
   9.000000E+99

> <Gold.Protein.RotatedTorsions>
[ 6907 6896 6895 6894 ] final -162.01 input  -60.11 | X-H torsion
[ 7974 7965 7964 7962 ] final   35.60 input  175.53 | X-H torsion
[ 8008 7997 7996 7995 ] final   59.33 input   59.86 | X-H torsion
[ 10167 10162 10161 10158 ] final    2.48 input  -65.29 | X-H torsion
[ 10718 10713 10712 10709 ] final  151.92 input   66.30 | X-H torsion
[ 10763 10752 10751 10750 ] final   17.07 input  -60.55 | X-H torsion
[ 11005 11000 10999 10996 ] final  103.10 input  -57.11 | X-H torsion

> <Gold.Protein.ActiveResidues>
 VAL166  LYS551  ARG553  GLY616  TRP617  ASP618  TYR619  PRO620  LYS621  CYS622 
 ASP623  PHE694  ASN695  SER759  ASP760  ASP761  ALA762  ILE779  LEU786  VAL792 
 PHE793  MET794  SER795  GLU796  ALA797  LYS798  CYS799  TRP800  GLU811  SER814 

> <Gold.Protein.RotatedAtoms>
  151.3736  133.3846  159.2702 H   0  0  0  0  0  0  0  0  0  0  0  0  # atno 6907 bound_to 6896
  150.9632  134.9017  159.7753 H   0  0  0  0  0  0  0  0  0  0  0  0  # atno 6908 bound_to 6896
  152.5157  134.3696  159.9365 H   0  0  0  0  0  0  0  0  0  0  0  0  # atno 6909 bound_to 6896
  146.1271  139.6122  142.9251 H   0  0  0  0  0  0  0  0  0  0  0  0  # atno 7974 bound_to 7965
  155.5645  140.3489  155.4499 H   0  0  0  0  0  0  0  0  0  0  0  0  # atno 8008 bound_to 7997
  156.0490  140.1313  157.0097 H   0  0  0  0  0  0  0  0  0  0  0  0  # atno 8009 bound_to 7997
  154.4425  140.1008  156.6333 H   0  0  0  0  0  0  0  0  0  0  0  0  # atno 8010 bound_to 7997
  140.6633  143.7247  150.7779 H   0  0  0  0  0  0  0  0  0  0  0  0  # atno 10167 bound_to 10162
  157.2644  131.0804  151.1643 H   0  0  0  0  0  0  0  0  0  0  0  0  # atno 10718 bound_to 10713
  153.1372  135.6752  153.9084 H   0  0  0  0  0  0  0  0  0  0  0  0  # atno 10763 bound_to 10752
  153.8552  135.3088  155.3436 H   0  0  0  0  0  0  0  0  0  0  0  0  # atno 10764 bound_to 10752
  154.7758  135.4915  153.9823 H   0  0  0  0  0  0  0  0  0  0  0  0  # atno 10765 bound_to 10752
  139.8781  134.9250  156.5158 H   0  0  0  0  0  0  0  0  0  0  0  0  # atno 11005 bound_to 11000
  145.5341  141.0425  143.2367 LP  0  0  0  0  0  0  0  0  0  0  0  0  # atno 17320 bound_to 7965
  144.7653  139.6859  143.7217 LP  0  0  0  0  0  0  0  0  0  0  0  0  # atno 17321 bound_to 7965
  140.0919  143.4869  152.2474 LP  0  0  0  0  0  0  0  0  0  0  0  0  # atno 17342 bound_to 10162
  139.5873  144.7536  151.3487 LP  0  0  0  0  0  0  0  0  0  0  0  0  # atno 17343 bound_to 10162
  157.3140  130.6904  149.6231 LP  0  0  0  0  0  0  0  0  0  0  0  0  # atno 17370 bound_to 10713
  155.9663  130.4355  150.5094 LP  0  0  0  0  0  0  0  0  0  0  0  0  # atno 17371 bound_to 10713
  140.8487  133.8149  155.9147 LP  0  0  0  0  0  0  0  0  0  0  0  0  # atno 17394 bound_to 11000
  140.9166  134.2194  157.4953 LP  0  0  0  0  0  0  0  0  0  0  0  0  # atno 17395 bound_to 11000

$$$$
