AV-unprocessed.smi:103|AV-procd|sdf|991|dock2
  -GOLD-   2262017563D 1   1.00000     0.00000
 Structure written by MMmdl.
 53 55  0  0  0  0  0  0  0  0  1 V2000
  154.3938  138.5216  158.9670 C   0  0  0  0  0  0  0  0  0  0  0  0
  153.1421  137.7221  159.3027 C   0  0  0  0  0  0  0  0  0  0  0  0
  153.2029  136.6723  159.9435 O   0  0  0  0  0  0  0  0  0  0  0  0
  152.0255  138.2972  158.8295 O   0  0  0  0  0  0  0  0  0  0  0  0
  150.7568  137.7586  159.1655 C   0  0  0  0  0  0  0  0  0  0  0  0
  149.6684  138.4732  158.3456 C   0  0  2  0  0  0  0  0  0  0  0  0
  148.4032  137.9304  158.7328 O   0  0  0  0  0  0  0  0  0  0  0  0
  147.7871  137.2907  157.6570 C   0  0  2  0  0  0  0  0  0  0  0  0
  147.0892  136.0519  158.1366 N   0  0  0  0  0  0  0  0  0  0  0  0
  146.7349  135.7006  159.4236 C   0  0  0  0  0  0  0  0  0  0  0  0
  147.1037  136.6188  160.9128 S   0  0  0  0  0  0  0  0  0  0  0  0
  146.5954  135.4287  162.2182 C   0  0  0  0  0  0  0  0  0  0  0  0
  148.5623  136.7996  160.9669 O   0  0  0  0  0  0  0  0  0  0  0  0
  146.2043  137.7830  160.9333 O   0  0  0  0  0  0  0  0  0  0  0  0
  146.1724  134.5335  159.5809 N   0  0  0  0  0  0  0  0  0  0  0  0
  146.0569  134.0640  158.2807 C   0  0  0  0  0  0  0  0  0  0  0  0
  145.5136  132.8883  157.7041 C   0  0  0  0  0  0  0  0  0  0  0  0
  144.9509  131.9115  158.4289 N   0  0  0  0  0  0  0  0  0  0  0  0
  145.5618  132.7449  156.3592 N   0  0  0  0  0  0  0  0  0  0  0  0
  146.1181  133.7051  155.6146 C   0  0  0  0  0  0  0  0  0  0  0  0
  146.6698  134.8540  156.0121 N   0  0  0  0  0  0  0  0  0  0  0  0
  146.6209  135.0017  157.3683 C   0  0  0  0  0  0  0  0  0  0  0  0
  148.8780  137.0073  156.6166 C   0  0  2  0  0  0  0  0  0  0  0  0
  149.5793  135.7978  156.9045 O   0  0  0  0  0  0  0  0  0  0  0  0
  150.4874  135.3048  156.0440 C   0  0  0  0  0  0  0  0  0  0  0  0
  150.9252  133.8949  156.4153 C   0  0  0  0  0  0  0  0  0  0  0  0
  150.9274  135.8748  155.0458 O   0  0  0  0  0  0  0  0  0  0  0  0
  149.7534  138.2274  156.8284 C   0  0  2  0  0  0  0  0  0  0  0  0
  151.0645  138.0340  156.3084 O   0  0  0  0  0  0  0  0  0  0  0  0
  151.4512  138.6758  155.1935 C   0  0  0  0  0  0  0  0  0  0  0  0
  152.8493  138.2707  154.7463 C   0  0  0  0  0  0  0  0  0  0  0  0
  150.7928  139.5101  154.5724 O   0  0  0  0  0  0  0  0  0  0  0  0
  154.2436  139.5770  159.1954 H   0  0  0  0  0  0  0  0  0  0  0  0
  154.6302  138.4258  157.9070 H   0  0  0  0  0  0  0  0  0  0  0  0
  155.2446  138.1614  159.5461 H   0  0  0  0  0  0  0  0  0  0  0  0
  150.7695  136.6925  158.9379 H   0  0  0  0  0  0  0  0  0  0  0  0
  150.5545  137.8584  160.2319 H   0  0  0  0  0  0  0  0  0  0  0  0
  149.6975  139.5439  158.5503 H   0  0  0  0  0  0  0  0  0  0  0  0
  147.0002  137.9441  157.2818 H   0  0  0  0  0  0  0  0  0  0  0  0
  146.7699  135.8696  163.1991 H   0  0  0  0  0  0  0  0  0  0  0  0
  147.1758  134.5113  162.1226 H   0  0  0  0  0  0  0  0  0  0  0  0
  145.5356  135.1995  162.1066 H   0  0  0  0  0  0  0  0  0  0  0  0
  144.9010  131.9962  159.4340 H   0  0  0  0  0  0  0  0  0  0  0  0
  144.5757  131.0948  157.9688 H   0  0  0  0  0  0  0  0  0  0  0  0
  146.1235  133.5286  154.5489 H   0  0  0  0  0  0  0  0  0  0  0  0
  148.4529  136.9997  155.6127 H   0  0  0  0  0  0  0  0  0  0  0  0
  150.0555  133.2453  156.5200 H   0  0  0  0  0  0  0  0  0  0  0  0
  151.4682  133.9040  157.3606 H   0  0  0  0  0  0  0  0  0  0  0  0
  151.5757  133.4799  155.6450 H   0  0  0  0  0  0  0  0  0  0  0  0
  149.2707  139.0612  156.3151 H   0  0  0  0  0  0  0  0  0  0  0  0
  152.9488  137.1850  154.7427 H   0  0  0  0  0  0  0  0  0  0  0  0
  153.5963  138.6859  155.4230 H   0  0  0  0  0  0  0  0  0  0  0  0
  153.0507  138.6384  153.7400 H   0  0  0  0  0  0  0  0  0  0  0  0
  1  2  1  0  0  0  0
  1 33  1  0  0  0  0
  1 34  1  0  0  0  0
  1 35  1  0  0  0  0
  2  3  2  0  0  0  0
  2  4  1  0  0  0  0
  4  5  1  0  0  0  0
  5  6  1  0  0  0  0
  5 36  1  0  0  0  0
  5 37  1  0  0  0  0
  6 28  1  0  0  0  0
  6  7  1  0  0  0  0
  6 38  1  0  0  0  0
  7  8  1  0  0  0  0
  8  9  1  0  0  0  0
  8 23  1  0  0  0  0
  8 39  1  0  0  0  0
  9 22  1  0  0  0  0
  9 10  1  0  0  0  0
 10 11  1  0  0  0  0
 10 15  2  0  0  0  0
 11 12  1  0  0  0  0
 11 13  2  0  0  0  0
 11 14  2  0  0  0  0
 12 40  1  0  0  0  0
 12 41  1  0  0  0  0
 12 42  1  0  0  0  0
 15 16  1  0  0  0  0
 16 22  2  0  0  0  0
 16 17  1  0  0  0  0
 17 18  1  0  0  0  0
 17 19  2  0  0  0  0
 18 43  1  0  0  0  0
 18 44  1  0  0  0  0
 19 20  1  0  0  0  0
 20 21  2  0  0  0  0
 20 45  1  0  0  0  0
 21 22  1  0  0  0  0
 23 24  1  0  0  0  0
 23 28  1  0  0  0  0
 23 46  1  0  0  0  0
 24 25  1  0  0  0  0
 25 26  1  0  0  0  0
 25 27  2  0  0  0  0
 26 47  1  0  0  0  0
 26 48  1  0  0  0  0
 26 49  1  0  0  0  0
 28 29  1  0  0  0  0
 28 50  1  0  0  0  0
 29 30  1  0  0  0  0
 30 31  1  0  0  0  0
 30 32  2  0  0  0  0
 31 51  1  0  0  0  0
 31 52  1  0  0  0  0
 31 53  1  0  0  0  0
M  END
> <s_m_source_file>
AV-unprocessed.smi

> <i_m_source_file_index>
103

> <i_lp_mmshare_version>
43012

> <i_f3d_flags>
0

> <s_epik_input>
W0NIM11DKD1PKU9bQ0gyXVtDQEBIXTFPW0NASF0oW0NAQEhdKE9DKD1PKVtDSDNdKVtDQEhdMU9DKD1PKVtDSDNdKW4oYyhuMilTKD1PKSg9TylbQ0gzXSljKGMyMyluW2NIXW5jM1tOSDJd

> <s_epik_cmdline>
J2VwaWtfcHl0aG9uJywgJy1waCcsICc3LjAnLCAnLXRuJywgJzgnLCAnLW1hJywgJzIwMCcsICctbWV0YWxfYmluZGluZycsICctaW1hZScsICc8aW5maWxlLm1hZT4nLCAnLW9tYWUnLCAnPG91dGZpbGUubWFlPic=

> <r_lp_tautomer_probability>
1

> <r_epik_Ionization_Penalty>
1.51338e-05

> <r_epik_Ionization_Penalty_Charging>
0

> <r_epik_Ionization_Penalty_Neutral>
1.51338e-05

> <r_epik_State_Penalty>
-0

> <r_epik_Charging_Adjusted_Penalty>
0

> <i_epik_Tot_Q>
0

> <i_epik_Tot_abs_Q>
0

> <r_epik_Metal_State_Penalty>
-0

> <b_epik_Metal_Only>
0

> <s_epik_Chemistry_Notes>
This compound has an ester and may undergo hydrolysis at high or low pH. This compound contains an acetal/aminal-like group ( X-CH(R)-Y where X, Y are N, S, or O) that may be acid/base labile, releasing an aldehyde.

> <s_lp_Force_Field>
OPLS_2005

> <r_lp_Energy>
16.3317

> <b_lp_Chiralities_Consistent>
1

> <s_lp_Variant>
AV-unprocessed.smi:103-15

> <Gold.Version>
5.8.1

> <Gold.Id.Protein>
6NUR|6NUR_protein|mol2

> <Gold.PLP.Fitness>
40.9985

> <Gold.PLP.PLP>
-28.6677

> <Gold.PLP.part.hbond>
-5.3513

> <Gold.PLP.part.metal>
0.0000

> <Gold.PLP.part.buried>
-5.8033

> <Gold.PLP.part.nonpolar>
-18.4571

> <Gold.PLP.part.repulsive>
0.3515

> <Gold.PLP.ligand.clash>
0.0000

> <Gold.PLP.ligand.torsion>
2.5533

> <Gold.PLP.Chemscore.Hbond>
5.0000

> <Gold.PLP.Chemscore.CHOScore>
0.0000

> <Gold.PLP.Chemscore.Metal>
0.0000

> <Gold.Chemscore.Hbonds>
donor molecule, donor type, donor heavy atom, donor atom, acceptor molecule, acceptor atom, score
      P1  H  6896  6909       L1     3  1.00
      P1  H  6931  6943       L1    13  1.00
      P1  H  6934  6947       L1    14  1.00
      P1  H  7989  7998       L1    32  1.00
      P1  H 10752 10764       L1    27  0.88

> <Gold.PLP.Chemscore.Internal.Correction>
2.4374

> <Gold.Rescore>
     Score         DG    S(hbond)    S(metal)    S(lipo)     H(rot)  DE(clash)    DE(int)     intcor
      3.61     -14.47       4.59        0.00      38.62       4.25       0.02      10.84       ----

> <Gold.Chemscore.Fitness>
3.6083

> <Gold.Chemscore.DG>
-14.4661

> <Gold.Chemscore.ZeroCoef>
-5.4800

> <Gold.Chemscore.Hbond>
4.5916

> <Gold.Chemscore.Metal>
0.0000

> <Gold.Chemscore.Lipo>
38.6225

> <Gold.Chemscore.Internal_Hbond>
0.0000

> <Gold.Chemscore.DEClash>
0.0163

> <Gold.Chemscore.DEInternal>
10.8415

> <Gold.Chemscore.Rot>
4.2456

> <Gold.Chemscore.Internal.Correction>
   9.000000E+99

> <Gold.Chemscore.Hbonds>
donor molecule, donor type, donor heavy atom, donor atom, acceptor molecule, acceptor atom, score
      P1  H  6896  6909       L1     3  0.97
      P1  H  6931  6943       L1    13  0.83
      P1  H  6934  6947       L1    14  0.53
      P1  H  7989  7998       L1    32  0.98
      P1  H 10752 10764       L1    27  0.83

> <Gold.Chemscore.Hbond.Weighted>
-15.3359

> <Gold.Chemscore.Metal.Weighted>
-0.0000

> <Gold.Chemscore.Lipo.Weighted>
-4.5188

> <Gold.Chemscore.Internal_Hbond.Weighted>
0.0000

> <Gold.Chemscore.DEClash.Weighted>
0.0163

> <Gold.Chemscore.DEInternal.Weighted>
10.8415

> <Gold.Chemscore.Rot.Weighted>
10.8687

> <Gold.Chemscore.Internal.Correction.Weighted>
   9.000000E+99

> <Gold.Protein.RotatedTorsions>
[ 6907 6896 6895 6894 ] final  150.31 input  -60.11 | X-H torsion
[ 7974 7965 7964 7962 ] final  131.72 input  175.53 | X-H torsion
[ 8008 7997 7996 7995 ] final   91.56 input   59.86 | X-H torsion
[ 10167 10162 10161 10158 ] final  -93.50 input  -65.29 | X-H torsion
[ 10718 10713 10712 10709 ] final   41.47 input   66.30 | X-H torsion
[ 10763 10752 10751 10750 ] final  -64.57 input  -60.55 | X-H torsion
[ 11005 11000 10999 10996 ] final  112.04 input  -57.11 | X-H torsion

> <Gold.Protein.ActiveResidues>
 VAL166  LYS551  ARG553  GLY616  TRP617  ASP618  TYR619  PRO620  LYS621  CYS622 
 ASP623  PHE694  ASN695  SER759  ASP760  ASP761  ALA762  ILE779  LEU786  VAL792 
 PHE793  MET794  SER795  GLU796  ALA797  LYS798  CYS799  TRP800  GLU811  SER814 

> <Gold.Protein.RotatedAtoms>
  152.1161  133.4327  159.4653 H   0  0  0  0  0  0  0  0  0  0  0  0  # atno 6907 bound_to 6896
  150.6869  134.2590  159.4551 H   0  0  0  0  0  0  0  0  0  0  0  0  # atno 6908 bound_to 6896
  152.0463  134.9680  160.0625 H   0  0  0  0  0  0  0  0  0  0  0  0  # atno 6909 bound_to 6896
  145.0043  139.4281  143.5276 H   0  0  0  0  0  0  0  0  0  0  0  0  # atno 7974 bound_to 7965
  156.0251  140.3336  155.7080 H   0  0  0  0  0  0  0  0  0  0  0  0  # atno 8008 bound_to 7997
  155.5966  140.0651  157.2762 H   0  0  0  0  0  0  0  0  0  0  0  0  # atno 8009 bound_to 7997
  154.4331  140.1818  156.1117 H   0  0  0  0  0  0  0  0  0  0  0  0  # atno 8010 bound_to 7997
  140.3241  143.3032  152.0015 H   0  0  0  0  0  0  0  0  0  0  0  0  # atno 10167 bound_to 10162
  157.3939  130.7822  149.7292 H   0  0  0  0  0  0  0  0  0  0  0  0  # atno 10718 bound_to 10713
  154.3320  135.6174  153.5556 H   0  0  0  0  0  0  0  0  0  0  0  0  # atno 10763 bound_to 10752
  152.9810  135.5749  154.4950 H   0  0  0  0  0  0  0  0  0  0  0  0  # atno 10764 bound_to 10752
  154.4639  135.2857  155.1670 H   0  0  0  0  0  0  0  0  0  0  0  0  # atno 10765 bound_to 10752
  139.8918  134.9521  156.6524 H   0  0  0  0  0  0  0  0  0  0  0  0  # atno 11005 bound_to 11000
  146.3458  139.9451  142.8736 LP  0  0  0  0  0  0  0  0  0  0  0  0  # atno 17320 bound_to 7965
  145.2109  140.9895  143.4101 LP  0  0  0  0  0  0  0  0  0  0  0  0  # atno 17321 bound_to 7965
  139.4868  144.6288  151.7111 LP  0  0  0  0  0  0  0  0  0  0  0  0  # atno 17342 bound_to 10162
  140.5457  144.0507  150.6106 LP  0  0  0  0  0  0  0  0  0  0  0  0  # atno 17343 bound_to 10162
  155.9805  130.4028  150.3523 LP  0  0  0  0  0  0  0  0  0  0  0  0  # atno 17370 bound_to 10713
  157.1643  131.0353  151.2826 LP  0  0  0  0  0  0  0  0  0  0  0  0  # atno 17371 bound_to 10713
  140.7510  133.8897  155.8347 LP  0  0  0  0  0  0  0  0  0  0  0  0  # atno 17394 bound_to 11000
  141.0000  134.1162  157.4326 LP  0  0  0  0  0  0  0  0  0  0  0  0  # atno 17395 bound_to 11000

$$$$
