AV-unprocessed.smi:74|AV-procd|sdf|763|dock7
  -GOLD-   2262017103D 1   1.00000     0.00000
 Structure written by MMmdl.
 58 62  0  0  0  0  0  0  0  0  1 V2000
  146.2440  130.9970  150.6876 O   0  0  0  0  0  0  0  0  0  0  0  0
  145.5376  131.7694  151.6369 C   0  0  0  0  0  0  0  0  0  0  0  0
  145.0427  133.0892  151.0227 C   0  0  0  0  0  0  0  0  0  0  0  0
  144.1126  132.7769  149.8328 C   0  0  0  0  0  0  0  0  0  0  0  0
  142.8922  132.2104  150.2653 O   0  0  0  0  0  0  0  0  0  0  0  0
  144.4994  134.1289  152.0289 C   0  0  0  0  0  0  0  0  0  0  0  0
  145.2173  135.2393  151.2591 C   0  0  0  0  0  0  0  0  0  0  0  0
  145.7393  136.3897  151.9363 N   0  0  0  0  0  0  0  0  0  0  0  0
  146.0682  137.6006  151.3704 C   0  0  0  0  0  0  0  0  0  0  0  0
  146.4821  138.5120  152.2077 N   0  0  0  0  0  0  0  0  0  0  0  0
  146.4030  137.8940  153.4504 C   0  0  0  0  0  0  0  0  0  0  0  0
  146.6803  138.3090  154.7841 C   0  0  0  0  0  0  0  0  0  0  0  0
  147.1629  139.5421  155.0841 N   0  0  0  0  0  0  0  0  0  0  0  0
  146.2894  140.4617  155.8095 C   0  0  0  0  0  0  0  0  0  0  0  0
  146.8931  141.8754  155.8104 C   0  0  0  0  0  0  0  0  0  0  0  0
  148.2085  141.8351  156.3541 O   0  0  0  0  0  0  0  0  0  0  0  0
  149.0808  140.9993  155.5974 C   0  0  1  0  0  0  0  0  0  0  0  0
  150.4956  141.0982  156.1847 C   0  0  0  0  0  0  0  0  0  0  0  0
  150.8288  142.4582  156.4124 O   0  0  0  0  0  0  0  0  0  0  0  0
  151.2324  142.7084  157.7468 C   0  0  0  0  0  0  0  0  0  0  0  0
  151.4299  144.1980  157.9282 C   0  0  0  0  0  0  0  0  0  0  0  0
  152.8144  144.8043  157.8905 C   0  0  0  0  0  0  0  0  0  0  0  0
  152.0598  144.7347  159.1935 C   0  0  0  0  0  0  0  0  0  0  0  0
  148.5384  139.5565  155.5718 C   0  0  0  0  0  0  0  0  0  0  0  0
  146.4392  137.4125  155.7787 N   0  0  0  0  0  0  0  0  0  0  0  0
  145.9710  136.1942  155.4931 C   0  0  0  0  0  0  0  0  0  0  0  0
  145.6796  135.6714  154.3009 N   0  0  0  0  0  0  0  0  0  0  0  0
  145.9143  136.5652  153.2979 C   0  0  0  0  0  0  0  0  0  0  0  0
  146.1427  134.1361  150.7399 C   0  0  0  0  0  0  0  0  0  0  0  0
  147.1668  131.1794  150.7796 H   0  0  0  0  0  0  0  0  0  0  0  0
  144.7139  131.1763  152.0348 H   0  0  0  0  0  0  0  0  0  0  0  0
  146.2081  131.9595  152.4756 H   0  0  0  0  0  0  0  0  0  0  0  0
  143.8771  133.6795  149.2687 H   0  0  0  0  0  0  0  0  0  0  0  0
  144.5846  132.0943  149.1257 H   0  0  0  0  0  0  0  0  0  0  0  0
  142.2062  132.8497  150.1488 H   0  0  0  0  0  0  0  0  0  0  0  0
  143.4138  134.2290  152.0523 H   0  0  0  0  0  0  0  0  0  0  0  0
  144.8983  133.9982  153.0367 H   0  0  0  0  0  0  0  0  0  0  0  0
  144.5847  135.6233  150.4571 H   0  0  0  0  0  0  0  0  0  0  0  0
  145.9968  137.7882  150.3087 H   0  0  0  0  0  0  0  0  0  0  0  0
  145.3017  140.4859  155.3472 H   0  0  0  0  0  0  0  0  0  0  0  0
  146.1623  140.1120  156.8351 H   0  0  0  0  0  0  0  0  0  0  0  0
  146.9174  142.2885  154.8007 H   0  0  0  0  0  0  0  0  0  0  0  0
  146.2798  142.5451  156.4133 H   0  0  0  0  0  0  0  0  0  0  0  0
  149.1176  141.3834  154.5764 H   0  0  0  0  0  0  0  0  0  0  0  0
  150.5395  140.5488  157.1266 H   0  0  0  0  0  0  0  0  0  0  0  0
  151.2158  140.6390  155.5058 H   0  0  0  0  0  0  0  0  0  0  0  0
  150.4682  142.3654  158.4455 H   0  0  0  0  0  0  0  0  0  0  0  0
  152.1596  142.1801  157.9749 H   0  0  0  0  0  0  0  0  0  0  0  0
  150.6270  144.8023  157.5100 H   0  0  0  0  0  0  0  0  0  0  0  0
  153.6601  144.1314  157.7632 H   0  0  0  0  0  0  0  0  0  0  0  0
  152.9211  145.7801  157.4209 H   0  0  0  0  0  0  0  0  0  0  0  0
  151.6641  145.6651  159.5958 H   0  0  0  0  0  0  0  0  0  0  0  0
  152.4040  144.0156  159.9343 H   0  0  0  0  0  0  0  0  0  0  0  0
  148.5543  139.1270  156.5746 H   0  0  0  0  0  0  0  0  0  0  0  0
  149.1878  138.9376  154.9540 H   0  0  0  0  0  0  0  0  0  0  0  0
  145.8089  135.5457  156.3414 H   0  0  0  0  0  0  0  0  0  0  0  0
  147.0262  134.0018  151.3673 H   0  0  0  0  0  0  0  0  0  0  0  0
  146.4211  134.2368  149.6905 H   0  0  0  0  0  0  0  0  0  0  0  0
  1  2  1  0  0  0  0
  1 30  1  0  0  0  0
  2  3  1  0  0  0  0
  2 31  1  0  0  0  0
  2 32  1  0  0  0  0
  3 29  1  0  0  0  0
  3  4  1  0  0  0  0
  3  6  1  0  0  0  0
  4  5  1  0  0  0  0
  4 33  1  0  0  0  0
  4 34  1  0  0  0  0
  5 35  1  0  0  0  0
  6  7  1  0  0  0  0
  6 36  1  0  0  0  0
  6 37  1  0  0  0  0
  7  8  1  0  0  0  0
  7 29  1  0  0  0  0
  7 38  1  0  0  0  0
  8 28  1  0  0  0  0
  8  9  1  0  0  0  0
  9 10  2  0  0  0  0
  9 39  1  0  0  0  0
 10 11  1  0  0  0  0
 11 28  2  0  0  0  0
 11 12  1  0  0  0  0
 12 13  1  0  0  0  0
 12 25  2  0  0  0  0
 13 24  1  0  0  0  0
 13 14  1  0  0  0  0
 14 15  1  0  0  0  0
 14 40  1  0  0  0  0
 14 41  1  0  0  0  0
 15 16  1  0  0  0  0
 15 42  1  0  0  0  0
 15 43  1  0  0  0  0
 16 17  1  0  0  0  0
 17 18  1  0  0  0  0
 17 24  1  0  0  0  0
 17 44  1  0  0  0  0
 18 19  1  0  0  0  0
 18 45  1  0  0  0  0
 18 46  1  0  0  0  0
 19 20  1  0  0  0  0
 20 21  1  0  0  0  0
 20 47  1  0  0  0  0
 20 48  1  0  0  0  0
 21 23  1  0  0  0  0
 21 22  1  0  0  0  0
 21 49  1  0  0  0  0
 22 23  1  0  0  0  0
 22 50  1  0  0  0  0
 22 51  1  0  0  0  0
 23 52  1  0  0  0  0
 23 53  1  0  0  0  0
 24 54  1  0  0  0  0
 24 55  1  0  0  0  0
 25 26  1  0  0  0  0
 26 27  2  0  0  0  0
 26 56  1  0  0  0  0
 27 28  1  0  0  0  0
 29 57  1  0  0  0  0
 29 58  1  0  0  0  0
M  END
> <s_m_source_file>
AV-unprocessed.smi

> <i_m_source_file_index>
74

> <i_lp_mmshare_version>
43012

> <i_f3d_flags>
0

> <s_epik_input>
W09IXVtDSDJdQzEoW0NIMl1bT0hdKVtDSDJdW0NIXShbQ0gyXTEpbihbY0hdbjIpYyhjMjMpbltjSF1uYzNONFtDSDJdW0NIMl1PW0NASF0oW0NIMl00KVtDSDJdT1tDSDJdW0NIXTVbQ0gyXVtDSDJdNQ==

> <s_epik_cmdline>
J2VwaWtfcHl0aG9uJywgJy1waCcsICc3LjAnLCAnLXRuJywgJzgnLCAnLW1hJywgJzIwMCcsICctbWV0YWxfYmluZGluZycsICctaW1hZScsICc8aW5maWxlLm1hZT4nLCAnLW9tYWUnLCAnPG91dGZpbGUubWFlPic=

> <r_lp_tautomer_probability>
1

> <r_epik_Ionization_Penalty>
5.89322e-05

> <r_epik_Ionization_Penalty_Charging>
0

> <r_epik_Ionization_Penalty_Neutral>
5.89322e-05

> <r_epik_State_Penalty>
-0

> <r_epik_Charging_Adjusted_Penalty>
0

> <i_epik_Tot_Q>
0

> <i_epik_Tot_abs_Q>
0

> <r_epik_Metal_State_Penalty>
-0

> <b_epik_Metal_Only>
0

> <s_lp_Force_Field>
OPLS_2005

> <r_lp_Energy>
49.0423

> <b_lp_Chiralities_Consistent>
1

> <s_lp_Variant>
AV-unprocessed.smi:74-1

> <Gold.Version>
5.8.1

> <Gold.Id.Protein>
6NUR|6NUR_protein|mol2

> <Gold.PLP.Fitness>
50.3823

> <Gold.PLP.PLP>
-44.4292

> <Gold.PLP.part.hbond>
-3.0000

> <Gold.PLP.part.metal>
0.0000

> <Gold.PLP.part.buried>
-6.0496

> <Gold.PLP.part.nonpolar>
-37.6149

> <Gold.PLP.part.repulsive>
1.2985

> <Gold.PLP.ligand.clash>
0.0000

> <Gold.PLP.ligand.torsion>
1.6605

> <Gold.PLP.Chemscore.Hbond>
1.9760

> <Gold.PLP.Chemscore.CHOScore>
0.5707

> <Gold.PLP.Chemscore.Metal>
0.0000

> <Gold.Chemscore.Hbonds>
donor molecule, donor type, donor heavy atom, donor atom, acceptor molecule, acceptor atom, score
      L1  H     1    30       P1 10747  0.99
      L1  H     5    35       P1 10186  0.93
      L1  C     9    39       P1 10171  0.61

> <Gold.PLP.Chemscore.Internal.Correction>
1.6341

> <Gold.Rescore>
     Score         DG    S(hbond)    S(metal)    S(lipo)     H(rot)  DE(clash)    DE(int)     intcor
     11.36     -14.60       1.95        0.00     109.04       3.97       0.61       2.63       ----

> <Gold.Chemscore.Fitness>
11.3648

> <Gold.Chemscore.DG>
-14.6021

> <Gold.Chemscore.ZeroCoef>
-5.4800

> <Gold.Chemscore.Hbond>
1.9511

> <Gold.Chemscore.Metal>
0.0000

> <Gold.Chemscore.Lipo>
109.0443

> <Gold.Chemscore.Internal_Hbond>
0.0000

> <Gold.Chemscore.DEClash>
0.6103

> <Gold.Chemscore.DEInternal>
2.6270

> <Gold.Chemscore.Rot>
3.9660

> <Gold.Chemscore.Internal.Correction>
   9.000000E+99

> <Gold.Chemscore.Hbonds>
donor molecule, donor type, donor heavy atom, donor atom, acceptor molecule, acceptor atom, score
      L1  H     1    30       P1 10747  0.94
      L1  H     5    35       P1 10186  0.89

> <Gold.Chemscore.Hbond.Weighted>
-6.5168

> <Gold.Chemscore.Metal.Weighted>
-0.0000

> <Gold.Chemscore.Lipo.Weighted>
-12.7582

> <Gold.Chemscore.Internal_Hbond.Weighted>
0.0000

> <Gold.Chemscore.DEClash.Weighted>
0.6103

> <Gold.Chemscore.DEInternal.Weighted>
2.6270

> <Gold.Chemscore.Rot.Weighted>
10.1529

> <Gold.Chemscore.Internal.Correction.Weighted>
   9.000000E+99

> <Gold.Protein.RotatedTorsions>
[ 6907 6896 6895 6894 ] final -110.76 input  -60.11 | X-H torsion
[ 7974 7965 7964 7962 ] final -162.27 input  175.53 | X-H torsion
[ 8008 7997 7996 7995 ] final -136.37 input   59.86 | X-H torsion
[ 10167 10162 10161 10158 ] final   70.76 input  -65.29 | X-H torsion
[ 10718 10713 10712 10709 ] final  -55.03 input   66.30 | X-H torsion
[ 10763 10752 10751 10750 ] final   17.09 input  -60.55 | X-H torsion
[ 11005 11000 10999 10996 ] final -100.45 input  -57.11 | X-H torsion

> <Gold.Protein.ActiveResidues>
 VAL166  LYS551  ARG553  GLY616  TRP617  ASP618  TYR619  PRO620  LYS621  CYS622 
 ASP623  PHE694  ASN695  SER759  ASP760  ASP761  ALA762  ILE779  LEU786  VAL792 
 PHE793  MET794  SER795  GLU796  ALA797  LYS798  CYS799  TRP800  GLU811  SER814 

> <Gold.Protein.RotatedAtoms>
  150.7646  133.9334  159.3433 H   0  0  0  0  0  0  0  0  0  0  0  0  # atno 6907 bound_to 6896
  151.7235  135.0887  160.0297 H   0  0  0  0  0  0  0  0  0  0  0  0  # atno 6908 bound_to 6896
  152.3635  133.6289  159.6068 H   0  0  0  0  0  0  0  0  0  0  0  0  # atno 6909 bound_to 6896
  144.7363  140.3276  143.6159 H   0  0  0  0  0  0  0  0  0  0  0  0  # atno 7974 bound_to 7965
  155.3941  140.0502  157.3039 H   0  0  0  0  0  0  0  0  0  0  0  0  # atno 8008 bound_to 7997
  154.5022  140.2161  155.9284 H   0  0  0  0  0  0  0  0  0  0  0  0  # atno 8009 bound_to 7997
  156.1481  140.3141  155.8609 H   0  0  0  0  0  0  0  0  0  0  0  0  # atno 8010 bound_to 7997
  140.0534  144.5292  150.7346 H   0  0  0  0  0  0  0  0  0  0  0  0  # atno 10167 bound_to 10162
  156.1401  130.4155  150.0117 H   0  0  0  0  0  0  0  0  0  0  0  0  # atno 10718 bound_to 10713
  153.1370  135.6752  153.9086 H   0  0  0  0  0  0  0  0  0  0  0  0  # atno 10763 bound_to 10752
  153.8555  135.3088  155.3436 H   0  0  0  0  0  0  0  0  0  0  0  0  # atno 10764 bound_to 10752
  154.7756  135.4916  153.9821 H   0  0  0  0  0  0  0  0  0  0  0  0  # atno 10765 bound_to 10752
  141.1270  133.8400  157.1103 H   0  0  0  0  0  0  0  0  0  0  0  0  # atno 11005 bound_to 11000
  145.7505  139.1792  143.2324 LP  0  0  0  0  0  0  0  0  0  0  0  0  # atno 17320 bound_to 7965
  146.1065  140.7481  142.9524 LP  0  0  0  0  0  0  0  0  0  0  0  0  # atno 17321 bound_to 7965
  140.7206  143.2585  151.4292 LP  0  0  0  0  0  0  0  0  0  0  0  0  # atno 17342 bound_to 10162
  139.5938  144.1441  152.2120 LP  0  0  0  0  0  0  0  0  0  0  0  0  # atno 17343 bound_to 10162
  156.8005  130.9289  151.3646 LP  0  0  0  0  0  0  0  0  0  0  0  0  # atno 17370 bound_to 10713
  157.6568  130.8931  149.9746 LP  0  0  0  0  0  0  0  0  0  0  0  0  # atno 17371 bound_to 10713
  140.0279  134.9915  157.0722 LP  0  0  0  0  0  0  0  0  0  0  0  0  # atno 17394 bound_to 11000
  140.4333  134.1757  155.7169 LP  0  0  0  0  0  0  0  0  0  0  0  0  # atno 17395 bound_to 11000

$$$$
