AV-unprocessed.smi:2229|AV-procd|sdf|9032|dock8
  -GOLD-   2272012243D 1   1.00000     0.00000
 Structure written by MMmdl.
 43 44  0  0  0  0  0  0  0  0  2 V2000
  151.3540  144.0655  157.9358 C   0  0  0  0  0  0  0  0  0  0  0  0
  151.3115  143.9332  159.4682 C   0  0  0  0  0  0  0  0  0  0  0  0
  151.0189  145.2947  160.1166 C   0  0  0  0  0  0  0  0  0  0  0  0
  152.6017  143.3184  160.0509 C   0  0  0  0  0  0  0  0  0  0  0  0
  152.8716  141.8842  159.5665 C   0  0  0  0  0  0  0  0  0  0  0  0
  154.1077  141.2159  160.2096 C   0  0  1  0  0  0  0  0  0  0  0  0
  154.1682  141.3595  161.7345 C   0  0  0  0  0  0  0  0  0  0  0  0
  155.1567  140.2846  162.1719 C   0  0  0  0  0  0  0  0  0  0  0  0
  154.8651  139.1001  161.2498 C   0  0  0  0  0  0  0  0  0  0  0  0
  154.2854  139.6937  159.9499 C   0  0  1  0  0  0  0  0  0  0  0  0
  153.0327  139.0207  159.6015 N   0  0  0  0  0  0  0  0  0  0  0  0
  152.6700  138.6406  158.3662 C   0  0  0  0  0  0  0  0  0  0  0  0
  153.4007  138.7425  157.3806 O   0  0  0  0  0  0  0  0  0  0  0  0
  151.2594  138.0658  158.2156 C   0  0  0  0  0  0  0  0  0  0  0  0
  151.2651  136.8878  157.3467 N   0  0  0  0  0  0  0  0  0  0  0  0
  151.5842  136.9374  156.0126 C   0  0  0  0  0  0  0  0  0  0  0  0
  151.4770  135.7750  155.4759 N   0  0  0  0  0  0  0  0  0  0  0  0
  151.0567  134.8851  156.5155 N   0  5  0  0  0  0  0  0  0  0  0  0
  150.9414  135.6272  157.6388 C   0  0  0  0  0  0  0  0  0  0  0  0
  150.6021  135.2620  158.7634 O   0  0  0  0  0  0  0  0  0  0  0  0
  152.2009  144.6708  157.6119 H   0  0  0  0  0  0  0  0  0  0  0  0
  150.4458  144.5363  157.5590 H   0  0  0  0  0  0  0  0  0  0  0  0
  151.4294  143.0938  157.4480 H   0  0  0  0  0  0  0  0  0  0  0  0
  150.4805  143.2722  159.7185 H   0  0  0  0  0  0  0  0  0  0  0  0
  151.8142  146.0113  159.9094 H   0  0  0  0  0  0  0  0  0  0  0  0
  150.9254  145.2036  161.1990 H   0  0  0  0  0  0  0  0  0  0  0  0
  150.0851  145.7156  159.7430 H   0  0  0  0  0  0  0  0  0  0  0  0
  153.4560  143.9538  159.8144 H   0  0  0  0  0  0  0  0  0  0  0  0
  152.5201  143.3123  161.1379 H   0  0  0  0  0  0  0  0  0  0  0  0
  151.9885  141.2743  159.7546 H   0  0  0  0  0  0  0  0  0  0  0  0
  153.0124  141.9057  158.4865 H   0  0  0  0  0  0  0  0  0  0  0  0
  154.9951  141.7062  159.8056 H   0  0  0  0  0  0  0  0  0  0  0  0
  154.4762  142.3559  162.0528 H   0  0  0  0  0  0  0  0  0  0  0  0
  153.1886  141.1571  162.1702 H   0  0  0  0  0  0  0  0  0  0  0  0
  156.1758  140.6368  162.0068 H   0  0  0  0  0  0  0  0  0  0  0  0
  155.0603  140.0293  163.2274 H   0  0  0  0  0  0  0  0  0  0  0  0
  155.7598  138.5048  161.0645 H   0  0  0  0  0  0  0  0  0  0  0  0
  154.1397  138.4439  161.7337 H   0  0  0  0  0  0  0  0  0  0  0  0
  155.0119  139.5565  159.1467 H   0  0  0  0  0  0  0  0  0  0  0  0
  152.3611  138.8982  160.3456 H   0  0  0  0  0  0  0  0  0  0  0  0
  150.8736  137.8086  159.2034 H   0  0  0  0  0  0  0  0  0  0  0  0
  150.5825  138.8198  157.8103 H   0  0  0  0  0  0  0  0  0  0  0  0
  151.8752  137.8826  155.5515 H   0  0  0  0  0  0  0  0  0  0  0  0
  1  2  1  0  0  0  0
  1 21  1  0  0  0  0
  1 22  1  0  0  0  0
  1 23  1  0  0  0  0
  2  3  1  0  0  0  0
  2  4  1  0  0  0  0
  2 24  1  0  0  0  0
  3 25  1  0  0  0  0
  3 26  1  0  0  0  0
  3 27  1  0  0  0  0
  4  5  1  0  0  0  0
  4 28  1  0  0  0  0
  4 29  1  0  0  0  0
  5  6  1  0  0  0  0
  5 30  1  0  0  0  0
  5 31  1  0  0  0  0
  6 10  1  0  0  0  0
  6  7  1  0  0  0  0
  6 32  1  0  0  0  0
  7  8  1  0  0  0  0
  7 33  1  0  0  0  0
  7 34  1  0  0  0  0
  8  9  1  0  0  0  0
  8 35  1  0  0  0  0
  8 36  1  0  0  0  0
  9 10  1  0  0  0  0
  9 37  1  0  0  0  0
  9 38  1  0  0  0  0
 10 11  1  0  0  0  0
 10 39  1  0  0  0  0
 11 12  1  0  0  0  0
 11 40  1  0  0  0  0
 12 13  2  0  0  0  0
 12 14  1  0  0  0  0
 14 15  1  0  0  0  0
 14 41  1  0  0  0  0
 14 42  1  0  0  0  0
 15 19  1  0  0  0  0
 15 16  1  0  0  0  0
 16 17  2  0  0  0  0
 16 43  1  0  0  0  0
 17 18  1  0  0  0  0
 18 19  1  0  0  0  0
 19 20  2  0  0  0  0
M  CHG  1  18  -1
M  END
> <s_m_source_file>
AV-unprocessed.smi

> <i_m_source_file_index>
2229

> <i_lp_mmshare_version>
43012

> <i_f3d_flags>
0

> <s_epik_input>
W0NIM11bQ0hdKFtDSDNdKVtDSDJdW0NIMl1bQ0BASF0xW0NIMl1bQ0gyXVtDSDJdW0NASF0xW05IXUMoPU8pW0NIMl1uMltjSF1uW25IXWMyPU8=

> <s_epik_cmdline>
J2VwaWtfcHl0aG9uJywgJy1waCcsICc3LjAnLCAnLXRuJywgJzgnLCAnLW1hJywgJzIwMCcsICctbWV0YWxfYmluZGluZycsICctaW1hZScsICc8aW5maWxlLm1hZT4nLCAnLW9tYWUnLCAnPG91dGZpbGUubWFlPic=

> <r_lp_tautomer_probability>
1

> <r_epik_Ionization_Penalty>
13.6733

> <r_epik_Ionization_Penalty_Charging>
13.6725

> <r_epik_Ionization_Penalty_Neutral>
0.000837689

> <r_epik_State_Penalty>
5.67062

> <r_epik_Charging_Adjusted_Penalty>
19.3431

> <i_epik_Tot_Q>
-1

> <i_epik_Tot_abs_Q>
1

> <r_epik_Metal_State_Penalty>
1.61781

> <b_epik_Metal_Only>
1

> <s_lp_Force_Field>
OPLS_2005

> <r_lp_Energy>
25.9104

> <b_lp_Chiralities_Consistent>
1

> <s_lp_Variant>
AV-unprocessed.smi:2229-6

> <Gold.Version>
5.8.1

> <Gold.Id.Protein>
6NUR|6NUR_protein|mol2

> <Gold.PLP.Fitness>
47.2517

> <Gold.PLP.PLP>
-40.7357

> <Gold.PLP.part.hbond>
-3.0000

> <Gold.PLP.part.metal>
0.0000

> <Gold.PLP.part.buried>
-5.3381

> <Gold.PLP.part.nonpolar>
-33.6513

> <Gold.PLP.part.repulsive>
0.2673

> <Gold.PLP.ligand.clash>
0.0000

> <Gold.PLP.ligand.torsion>
0.5585

> <Gold.PLP.Chemscore.Hbond>
2.5234

> <Gold.PLP.Chemscore.CHOScore>
0.0000

> <Gold.PLP.Chemscore.Metal>
0.0000

> <Gold.Chemscore.Hbonds>
donor molecule, donor type, donor heavy atom, donor atom, acceptor molecule, acceptor atom, score
      P1  H  6896  6908       L1    20  0.06
      P1  H  7997  8008       L1    13  1.00
      P1  H 10752 10765       L1    17  1.00

> <Gold.PLP.Chemscore.Internal.Correction>
0.0628

> <Gold.Rescore>
     Score         DG    S(hbond)    S(metal)    S(lipo)     H(rot)  DE(clash)    DE(int)     intcor
     15.17     -17.24       1.81        0.00     105.48       2.59       0.13       1.94       ----

> <Gold.Chemscore.Fitness>
15.1670

> <Gold.Chemscore.DG>
-17.2409

> <Gold.Chemscore.ZeroCoef>
-5.4800

> <Gold.Chemscore.Hbond>
1.8143

> <Gold.Chemscore.Metal>
0.0000

> <Gold.Chemscore.Lipo>
105.4844

> <Gold.Chemscore.Internal_Hbond>
0.0000

> <Gold.Chemscore.DEClash>
0.1334

> <Gold.Chemscore.DEInternal>
1.9406

> <Gold.Chemscore.Rot>
2.5939

> <Gold.Chemscore.Internal.Correction>
   9.000000E+99

> <Gold.Chemscore.Hbonds>
donor molecule, donor type, donor heavy atom, donor atom, acceptor molecule, acceptor atom, score
      P1  H  6896  6908       L1    20  0.07
      P1  H  7997  8008       L1    13  0.98
      P1  H 10752 10765       L1    17  0.37

> <Gold.Chemscore.Hbond.Weighted>
-6.0597

> <Gold.Chemscore.Metal.Weighted>
-0.0000

> <Gold.Chemscore.Lipo.Weighted>
-12.3417

> <Gold.Chemscore.Internal_Hbond.Weighted>
0.0000

> <Gold.Chemscore.DEClash.Weighted>
0.1334

> <Gold.Chemscore.DEInternal.Weighted>
1.9406

> <Gold.Chemscore.Rot.Weighted>
6.6405

> <Gold.Chemscore.Internal.Correction.Weighted>
   9.000000E+99

> <Gold.Protein.RotatedTorsions>
[ 6907 6896 6895 6894 ] final  142.12 input  -60.11 | X-H torsion
[ 7974 7965 7964 7962 ] final  -68.14 input  175.53 | X-H torsion
[ 8008 7997 7996 7995 ] final  -86.28 input   59.86 | X-H torsion
[ 10167 10162 10161 10158 ] final   -9.54 input  -65.29 | X-H torsion
[ 10718 10713 10712 10709 ] final  -24.11 input   66.30 | X-H torsion
[ 10763 10752 10751 10750 ] final -166.39 input  -60.55 | X-H torsion
[ 11005 11000 10999 10996 ] final  160.22 input  -57.11 | X-H torsion

> <Gold.Protein.ActiveResidues>
 VAL166  LYS551  ARG553  GLY616  TRP617  ASP618  TYR619  PRO620  LYS621  CYS622 
 ASP623  PHE694  ASN695  SER759  ASP760  ASP761  ALA762  ILE779  LEU786  VAL792 
 PHE793  MET794  SER795  GLU796  ALA797  LYS798  CYS799  TRP800  GLU811  SER814 

> <Gold.Protein.RotatedAtoms>
  152.2226  133.4995  159.5170 H   0  0  0  0  0  0  0  0  0  0  0  0  # atno 6907 bound_to 6896
  150.7017  134.1322  159.4083 H   0  0  0  0  0  0  0  0  0  0  0  0  # atno 6908 bound_to 6896
  151.9243  135.0284  160.0575 H   0  0  0  0  0  0  0  0  0  0  0  0  # atno 6909 bound_to 6896
  145.7203  140.9041  143.0633 H   0  0  0  0  0  0  0  0  0  0  0  0  # atno 7974 bound_to 7965
  154.6501  140.0580  156.9946 H   0  0  0  0  0  0  0  0  0  0  0  0  # atno 8008 bound_to 7997
  155.1384  140.3263  155.4439 H   0  0  0  0  0  0  0  0  0  0  0  0  # atno 8009 bound_to 7997
  156.2572  140.1968  156.6501 H   0  0  0  0  0  0  0  0  0  0  0  0  # atno 8010 bound_to 7997
  140.7090  143.5846  150.8956 H   0  0  0  0  0  0  0  0  0  0  0  0  # atno 10167 bound_to 10162
  156.4820  130.4547  149.6806 H   0  0  0  0  0  0  0  0  0  0  0  0  # atno 10718 bound_to 10713
  154.6838  135.2959  154.9576 H   0  0  0  0  0  0  0  0  0  0  0  0  # atno 10763 bound_to 10752
  154.0562  135.6638  153.4810 H   0  0  0  0  0  0  0  0  0  0  0  0  # atno 10764 bound_to 10752
  153.0565  135.5141  154.7895 H   0  0  0  0  0  0  0  0  0  0  0  0  # atno 10765 bound_to 10752
  140.2038  134.8318  157.3047 H   0  0  0  0  0  0  0  0  0  0  0  0  # atno 11005 bound_to 11000
  144.6918  139.9194  143.7467 LP  0  0  0  0  0  0  0  0  0  0  0  0  # atno 17320 bound_to 7965
  146.0631  139.3624  143.0569 LP  0  0  0  0  0  0  0  0  0  0  0  0  # atno 17321 bound_to 7965
  139.9572  143.6205  152.3012 LP  0  0  0  0  0  0  0  0  0  0  0  0  # atno 17342 bound_to 10162
  139.6744  144.7659  151.1722 LP  0  0  0  0  0  0  0  0  0  0  0  0  # atno 17343 bound_to 10162
  156.3512  130.7433  151.2393 LP  0  0  0  0  0  0  0  0  0  0  0  0  # atno 17370 bound_to 10713
  157.7482  131.0376  150.4465 LP  0  0  0  0  0  0  0  0  0  0  0  0  # atno 17371 bound_to 10713
  140.2025  134.4237  155.7655 LP  0  0  0  0  0  0  0  0  0  0  0  0  # atno 17394 bound_to 11000
  141.2227  133.7079  156.8207 LP  0  0  0  0  0  0  0  0  0  0  0  0  # atno 17395 bound_to 11000

$$$$
