AV-unprocessed.smi:2691|AV-procd|sdf|10391|dock4
  -GOLD-   2272014423D 1   1.00000     0.00000
 Structure written by MMmdl.
 49 51  0  0  0  0  0  0  0  0  1 V2000
  152.8222  143.0950  161.2341 C   0  0  0  0  0  0  0  0  0  0  0  0
  152.2675  142.7195  159.8713 C   0  0  0  0  0  0  0  0  0  0  0  0
  152.6624  141.4974  159.2817 C   0  0  0  0  0  0  0  0  0  0  0  0
  152.1684  141.1107  158.0166 C   0  0  0  0  0  0  0  0  0  0  0  0
  152.4166  139.9761  157.2626 N   0  0  0  0  0  0  0  0  0  0  0  0
  151.6649  140.1990  156.1883 C   0  0  0  0  0  0  0  0  0  0  0  0
  150.9580  141.3451  156.1576 N   0  0  0  0  0  0  0  0  0  0  0  0
  150.0686  141.8029  155.1058 C   0  0  0  0  0  0  0  0  0  0  0  0
  148.6522  141.2090  155.2319 C   0  0  1  0  0  0  0  0  0  0  0  0
  147.9368  141.9604  156.1938 O   0  0  0  0  0  0  0  0  0  0  0  0
  147.8884  141.2641  153.8911 C   0  0  0  0  0  0  0  0  0  0  0  0
  147.0990  140.0451  153.6536 N   0  0  0  0  0  0  0  0  0  0  0  0
  147.1836  139.4843  152.3654 C   0  0  0  0  0  0  0  0  0  0  0  0
  146.5421  138.4051  152.0486 N   0  0  0  0  0  0  0  0  0  0  0  0
  145.7342  137.7700  153.0004 C   0  0  0  0  0  0  0  0  0  0  0  0
  144.9968  136.5064  152.5757 C   0  0  0  0  0  0  0  0  0  0  0  0
  145.5282  135.9792  151.2343 C   0  0  0  0  0  0  0  0  0  0  0  0
  143.4740  136.7156  152.5365 C   0  0  0  0  0  0  0  0  0  0  0  0
  145.6058  138.2838  154.2471 C   0  0  0  0  0  0  0  0  0  0  0  0
  146.3176  139.5024  154.6326 C   0  0  0  0  0  0  0  0  0  0  0  0
  146.2196  140.0017  155.7540 O   0  0  0  0  0  0  0  0  0  0  0  0
  151.2600  141.9863  157.3536 C   0  0  0  0  0  0  0  0  0  0  0  0
  150.8592  143.2048  157.9294 C   0  0  0  0  0  0  0  0  0  0  0  0
  151.3648  143.5773  159.1925 C   0  0  0  0  0  0  0  0  0  0  0  0
  150.9291  144.8970  159.8043 C   0  0  0  0  0  0  0  0  0  0  0  0
  153.4547  142.3039  161.6379 H   0  0  0  0  0  0  0  0  0  0  0  0
  152.0124  143.2689  161.9430 H   0  0  0  0  0  0  0  0  0  0  0  0
  153.4234  144.0018  161.1643 H   0  0  0  0  0  0  0  0  0  0  0  0
  153.3503  140.8442  159.7977 H   0  0  0  0  0  0  0  0  0  0  0  0
  151.6262  139.4884  155.3757 H   0  0  0  0  0  0  0  0  0  0  0  0
  150.0321  142.8933  155.1225 H   0  0  0  0  0  0  0  0  0  0  0  0
  150.5108  141.5198  154.1498 H   0  0  0  0  0  0  0  0  0  0  0  0
  148.7318  140.1794  155.5836 H   0  0  0  0  0  0  0  0  0  0  0  0
  147.9996  142.8760  155.9687 H   0  0  0  0  0  0  0  0  0  0  0  0
  147.2806  142.1692  153.8295 H   0  0  0  0  0  0  0  0  0  0  0  0
  148.6017  141.3680  153.0713 H   0  0  0  0  0  0  0  0  0  0  0  0
  147.8206  140.0216  151.6608 H   0  0  0  0  0  0  0  0  0  0  0  0
  145.1950  135.7403  153.3267 H   0  0  0  0  0  0  0  0  0  0  0  0
  146.6042  135.8079  151.2784 H   0  0  0  0  0  0  0  0  0  0  0  0
  145.3363  136.6836  150.4242 H   0  0  0  0  0  0  0  0  0  0  0  0
  145.0549  135.0332  150.9702 H   0  0  0  0  0  0  0  0  0  0  0  0
  143.1036  137.0786  153.4957 H   0  0  0  0  0  0  0  0  0  0  0  0
  142.9572  135.7809  152.3169 H   0  0  0  0  0  0  0  0  0  0  0  0
  143.1855  137.4379  151.7720 H   0  0  0  0  0  0  0  0  0  0  0  0
  144.9750  137.7931  154.9740 H   0  0  0  0  0  0  0  0  0  0  0  0
  150.1702  143.8476  157.4011 H   0  0  0  0  0  0  0  0  0  0  0  0
  150.2953  145.4623  159.1205 H   0  0  0  0  0  0  0  0  0  0  0  0
  151.7954  145.5146  160.0426 H   0  0  0  0  0  0  0  0  0  0  0  0
  150.3642  144.7233  160.7205 H   0  0  0  0  0  0  0  0  0  0  0  0
  1  2  1  0  0  0  0
  1 26  1  0  0  0  0
  1 27  1  0  0  0  0
  1 28  1  0  0  0  0
  2 24  1  0  0  0  0
  2  3  2  0  0  0  0
  3  4  1  0  0  0  0
  3 29  1  0  0  0  0
  4 22  2  0  0  0  0
  4  5  1  0  0  0  0
  5  6  2  0  0  0  0
  6  7  1  0  0  0  0
  6 30  1  0  0  0  0
  7  8  1  0  0  0  0
  7 22  1  0  0  0  0
  8  9  1  0  0  0  0
  8 31  1  0  0  0  0
  8 32  1  0  0  0  0
  9 10  1  0  0  0  0
  9 11  1  0  0  0  0
  9 33  1  0  0  0  0
 10 34  1  0  0  0  0
 11 12  1  0  0  0  0
 11 35  1  0  0  0  0
 11 36  1  0  0  0  0
 12 20  1  0  0  0  0
 12 13  1  0  0  0  0
 13 14  2  0  0  0  0
 13 37  1  0  0  0  0
 14 15  1  0  0  0  0
 15 16  1  0  0  0  0
 15 19  2  0  0  0  0
 16 17  1  0  0  0  0
 16 18  1  0  0  0  0
 16 38  1  0  0  0  0
 17 39  1  0  0  0  0
 17 40  1  0  0  0  0
 17 41  1  0  0  0  0
 18 42  1  0  0  0  0
 18 43  1  0  0  0  0
 18 44  1  0  0  0  0
 19 20  1  0  0  0  0
 19 45  1  0  0  0  0
 20 21  2  0  0  0  0
 22 23  1  0  0  0  0
 23 24  2  0  0  0  0
 23 46  1  0  0  0  0
 24 25  1  0  0  0  0
 25 47  1  0  0  0  0
 25 48  1  0  0  0  0
 25 49  1  0  0  0  0
M  END
> <s_m_source_file>
AV-unprocessed.smi

> <i_m_source_file_index>
2691

> <i_lp_mmshare_version>
43012

> <i_f3d_flags>
0

> <s_epik_input>
W0NIM11jKFtjSF0xKWMoW0NIM10pW2NIXWMoYzEyKW4oW2NIXW4yKVtDSDJdW0NASF0oW09IXSlbQ0gyXW4zW2NIXW5jKFtDSF0oW0NIM10pW0NIM10pW2NIXWMzPU8=

> <s_epik_cmdline>
J2VwaWtfcHl0aG9uJywgJy1waCcsICc3LjAnLCAnLXRuJywgJzgnLCAnLW1hJywgJzIwMCcsICctbWV0YWxfYmluZGluZycsICctaW1hZScsICc8aW5maWxlLm1hZT4nLCAnLW9tYWUnLCAnPG91dGZpbGUubWFlPic=

> <r_lp_tautomer_probability>
1

> <r_epik_Ionization_Penalty>
0.113357

> <r_epik_Ionization_Penalty_Charging>
3.84185e-08

> <r_epik_Ionization_Penalty_Neutral>
0.113357

> <r_epik_State_Penalty>
0.103025

> <r_epik_Charging_Adjusted_Penalty>
0.103025

> <i_epik_Tot_Q>
0

> <i_epik_Tot_abs_Q>
0

> <r_epik_Metal_State_Penalty>
0.0863451

> <b_epik_Metal_Only>
0

> <s_lp_Force_Field>
OPLS_2005

> <r_lp_Energy>
17.2292

> <b_lp_Chiralities_Consistent>
1

> <s_lp_Variant>
AV-unprocessed.smi:2691-2

> <Gold.Version>
5.8.1

> <Gold.Id.Protein>
6NUR|6NUR_protein|mol2

> <Gold.PLP.Fitness>
52.3262

> <Gold.PLP.PLP>
-46.4676

> <Gold.PLP.part.hbond>
-2.0000

> <Gold.PLP.part.metal>
0.0000

> <Gold.PLP.part.buried>
-3.6356

> <Gold.PLP.part.nonpolar>
-41.0617

> <Gold.PLP.part.repulsive>
0.3576

> <Gold.PLP.ligand.clash>
0.0000

> <Gold.PLP.ligand.torsion>
1.4594

> <Gold.PLP.Chemscore.Hbond>
1.9663

> <Gold.PLP.Chemscore.CHOScore>
0.9329

> <Gold.PLP.Chemscore.Metal>
0.0000

> <Gold.Chemscore.Hbonds>
donor molecule, donor type, donor heavy atom, donor atom, acceptor molecule, acceptor atom, score
      L1  H    10    34       P1  8028  0.96
      P1  H  7997  8010       L1     5  0.93
      L1  C    13    37       P1  7957  0.48

> <Gold.PLP.Chemscore.Internal.Correction>
0.0799

> <Gold.Rescore>
     Score         DG    S(hbond)    S(metal)    S(lipo)     H(rot)  DE(clash)    DE(int)     intcor
     10.68     -16.91       1.07        0.00     120.93       2.45       1.87       4.36       ----

> <Gold.Chemscore.Fitness>
10.6784

> <Gold.Chemscore.DG>
-16.9124

> <Gold.Chemscore.ZeroCoef>
-5.4800

> <Gold.Chemscore.Hbond>
1.0674

> <Gold.Chemscore.Metal>
0.0000

> <Gold.Chemscore.Lipo>
120.9275

> <Gold.Chemscore.Internal_Hbond>
0.0000

> <Gold.Chemscore.DEClash>
1.8734

> <Gold.Chemscore.DEInternal>
4.3605

> <Gold.Chemscore.Rot>
2.4536

> <Gold.Chemscore.Internal.Correction>
   9.000000E+99

> <Gold.Chemscore.Hbonds>
donor molecule, donor type, donor heavy atom, donor atom, acceptor molecule, acceptor atom, score
      L1  H    10    34       P1  8028  0.63
      P1  H  7997  8010       L1     5  0.26

> <Gold.Chemscore.Hbond.Weighted>
-3.5651

> <Gold.Chemscore.Metal.Weighted>
-0.0000

> <Gold.Chemscore.Lipo.Weighted>
-14.1485

> <Gold.Chemscore.Internal_Hbond.Weighted>
0.0000

> <Gold.Chemscore.DEClash.Weighted>
1.8734

> <Gold.Chemscore.DEInternal.Weighted>
4.3605

> <Gold.Chemscore.Rot.Weighted>
6.2812

> <Gold.Chemscore.Internal.Correction.Weighted>
   9.000000E+99

> <Gold.Protein.RotatedTorsions>
[ 6907 6896 6895 6894 ] final   43.22 input  -60.11 | X-H torsion
[ 7974 7965 7964 7962 ] final   61.11 input  175.53 | X-H torsion
[ 8008 7997 7996 7995 ] final   63.07 input   59.86 | X-H torsion
[ 10167 10162 10161 10158 ] final  149.38 input  -65.29 | X-H torsion
[ 10718 10713 10712 10709 ] final  -14.72 input   66.30 | X-H torsion
[ 10763 10752 10751 10750 ] final   44.40 input  -60.55 | X-H torsion
[ 11005 11000 10999 10996 ] final   32.37 input  -57.11 | X-H torsion

> <Gold.Protein.ActiveResidues>
 VAL166  LYS551  ARG553  GLY616  TRP617  ASP618  TYR619  PRO620  LYS621  CYS622 
 ASP623  PHE694  ASN695  SER759  ASP760  ASP761  ALA762  ILE779  LEU786  VAL792 
 PHE793  MET794  SER795  GLU796  ALA797  LYS798  CYS799  TRP800  GLU811  SER814 

> <Gold.Protein.RotatedAtoms>
  152.2176  134.8443  160.0489 H   0  0  0  0  0  0  0  0  0  0  0  0  # atno 6907 bound_to 6896
  151.9239  133.3588  159.3915 H   0  0  0  0  0  0  0  0  0  0  0  0  # atno 6908 bound_to 6896
  150.6991  134.4532  159.5390 H   0  0  0  0  0  0  0  0  0  0  0  0  # atno 6909 bound_to 6896
  145.8885  139.3494  143.0664 H   0  0  0  0  0  0  0  0  0  0  0  0  # atno 7974 bound_to 7965
  155.6244  140.3496  155.4662 H   0  0  0  0  0  0  0  0  0  0  0  0  # atno 8008 bound_to 7997
  156.0053  140.1222  157.0531 H   0  0  0  0  0  0  0  0  0  0  0  0  # atno 8009 bound_to 7997
  154.4262  140.1092  156.5740 H   0  0  0  0  0  0  0  0  0  0  0  0  # atno 8010 bound_to 7997
  139.4862  144.5606  151.7238 H   0  0  0  0  0  0  0  0  0  0  0  0  # atno 10167 bound_to 10162
  156.6119  130.4852  149.6198 H   0  0  0  0  0  0  0  0  0  0  0  0  # atno 10718 bound_to 10713
  152.9842  135.6072  154.3268 H   0  0  0  0  0  0  0  0  0  0  0  0  # atno 10763 bound_to 10752
  154.2974  135.2773  155.2628 H   0  0  0  0  0  0  0  0  0  0  0  0  # atno 10764 bound_to 10752
  154.4896  135.5895  153.6506 H   0  0  0  0  0  0  0  0  0  0  0  0  # atno 10765 bound_to 10752
  140.2741  134.3048  155.7819 H   0  0  0  0  0  0  0  0  0  0  0  0  # atno 11005 bound_to 11000
  145.8938  140.9287  143.0538 LP  0  0  0  0  0  0  0  0  0  0  0  0  # atno 17320 bound_to 7965
  144.6729  140.0940  143.7464 LP  0  0  0  0  0  0  0  0  0  0  0  0  # atno 17321 bound_to 7965
  140.5175  144.0930  150.6012 LP  0  0  0  0  0  0  0  0  0  0  0  0  # atno 17342 bound_to 10162
  140.3877  143.2769  152.0097 LP  0  0  0  0  0  0  0  0  0  0  0  0  # atno 17343 bound_to 10162
  156.2383  130.6836  151.1531 LP  0  0  0  0  0  0  0  0  0  0  0  0  # atno 17370 bound_to 10713
  157.7252  131.0655  150.5964 LP  0  0  0  0  0  0  0  0  0  0  0  0  # atno 17371 bound_to 10713
  141.2173  133.7485  156.9380 LP  0  0  0  0  0  0  0  0  0  0  0  0  # atno 17394 bound_to 11000
  140.1345  134.9334  157.2382 LP  0  0  0  0  0  0  0  0  0  0  0  0  # atno 17395 bound_to 11000

$$$$
