AV-unprocessed.smi:2252|AV-procd|sdf|9111|dock3
  -GOLD-   2272012313D 1   1.00000     0.00000
 Structure written by MMmdl.
 44 46  0  0  0  0  0  0  0  0  3 V2000
  151.9805  144.5289  157.6790 C   0  0  0  0  0  0  0  0  0  0  0  0
  151.9512  144.1235  159.0715 N   0  0  0  0  0  0  0  0  0  0  0  0
  151.8154  144.9756  160.1599 C   0  0  0  0  0  0  0  0  0  0  0  0
  151.8421  144.1879  161.2844 C   0  0  0  0  0  0  0  0  0  0  0  0
  151.9941  142.8583  160.9103 N   0  0  0  0  0  0  0  0  0  0  0  0
  152.0472  142.8758  159.5784 C   0  0  0  0  0  0  0  0  0  0  0  0
  152.2057  141.6401  158.7262 C   0  0  0  0  0  0  0  0  0  0  0  0
  150.9918  140.6792  158.7102 C   0  0  0  0  0  0  0  0  0  0  0  0
  149.9403  141.1883  157.8326 N   0  5  0  0  0  0  0  0  0  0  0  0
  149.4579  140.5251  156.7443 C   0  0  0  0  0  0  0  0  0  0  0  0
  148.6479  139.5963  156.6677 O   0  0  0  0  0  0  0  0  0  0  0  0
  150.0273  141.1079  155.4370 C   0  0  2  0  0  0  0  0  0  0  0  0
  148.8803  141.5233  154.4852 C   0  0  0  0  0  0  0  0  0  0  0  0
  147.4711  141.7315  154.9968 C   0  0  0  0  0  0  0  0  0  0  0  0
  147.7846  140.5440  154.1236 C   0  0  0  0  0  0  0  0  0  0  0  0
  150.9803  140.1589  154.7933 N   0  3  0  0  0  0  0  0  0  0  0  0
  152.2171  139.8686  155.5509 C   0  0  0  0  0  0  0  0  0  0  0  0
  152.7190  138.5013  155.0654 C   0  0  0  0  0  0  0  0  0  0  0  0
  151.6263  137.9669  154.1363 C   0  0  0  0  0  0  0  0  0  0  0  0
  150.4130  138.8439  154.4302 C   0  0  0  0  0  0  0  0  0  0  0  0
  151.8374  145.6069  157.5980 H   0  0  0  0  0  0  0  0  0  0  0  0
  151.1838  144.0275  157.1291 H   0  0  0  0  0  0  0  0  0  0  0  0
  152.9429  144.2677  157.2385 H   0  0  0  0  0  0  0  0  0  0  0  0
  151.7140  146.0448  160.0469 H   0  0  0  0  0  0  0  0  0  0  0  0
  151.7656  144.4718  162.3236 H   0  0  0  0  0  0  0  0  0  0  0  0
  152.4317  141.9444  157.7043 H   0  0  0  0  0  0  0  0  0  0  0  0
  153.0915  141.1029  159.0678 H   0  0  0  0  0  0  0  0  0  0  0  0
  151.3274  139.6939  158.3863 H   0  0  0  0  0  0  0  0  0  0  0  0
  150.6398  140.5401  159.7332 H   0  0  0  0  0  0  0  0  0  0  0  0
  150.5875  142.0081  155.6965 H   0  0  0  0  0  0  0  0  0  0  0  0
  149.1958  142.1828  153.6782 H   0  0  0  0  0  0  0  0  0  0  0  0
  147.2774  141.5397  156.0503 H   0  0  0  0  0  0  0  0  0  0  0  0
  146.8942  142.5424  154.5571 H   0  0  0  0  0  0  0  0  0  0  0  0
  147.4192  140.5594  153.0988 H   0  0  0  0  0  0  0  0  0  0  0  0
  147.8021  139.5647  154.5978 H   0  0  0  0  0  0  0  0  0  0  0  0
  152.9585  140.6546  155.4033 H   0  0  0  0  0  0  0  0  0  0  0  0
  151.9936  139.8108  156.6171 H   0  0  0  0  0  0  0  0  0  0  0  0
  153.6695  138.5867  154.5376 H   0  0  0  0  0  0  0  0  0  0  0  0
  152.8717  137.8324  155.9130 H   0  0  0  0  0  0  0  0  0  0  0  0
  151.9312  138.1012  153.0979 H   0  0  0  0  0  0  0  0  0  0  0  0
  151.4229  136.9064  154.2879 H   0  0  0  0  0  0  0  0  0  0  0  0
  149.8576  138.4369  155.2768 H   0  0  0  0  0  0  0  0  0  0  0  0
  149.7344  138.9055  153.5787 H   0  0  0  0  0  0  0  0  0  0  0  0
  151.2671  140.5904  153.9253 H   0  0  0  0  0  0  0  0  0  0  0  0
  1  2  1  0  0  0  0
  1 21  1  0  0  0  0
  1 22  1  0  0  0  0
  1 23  1  0  0  0  0
  2  6  1  0  0  0  0
  2  3  1  0  0  0  0
  3  4  2  0  0  0  0
  3 24  1  0  0  0  0
  4  5  1  0  0  0  0
  4 25  1  0  0  0  0
  5  6  2  0  0  0  0
  6  7  1  0  0  0  0
  7  8  1  0  0  0  0
  7 26  1  0  0  0  0
  7 27  1  0  0  0  0
  8  9  1  0  0  0  0
  8 28  1  0  0  0  0
  8 29  1  0  0  0  0
  9 10  1  0  0  0  0
 10 11  2  0  0  0  0
 10 12  1  0  0  0  0
 12 13  1  0  0  0  0
 12 16  1  0  0  0  0
 12 30  1  0  0  0  0
 13 15  1  0  0  0  0
 13 14  1  0  0  0  0
 13 31  1  0  0  0  0
 14 15  1  0  0  0  0
 14 32  1  0  0  0  0
 14 33  1  0  0  0  0
 15 34  1  0  0  0  0
 15 35  1  0  0  0  0
 16 20  1  0  0  0  0
 16 17  1  0  0  0  0
 16 44  1  0  0  0  0
 17 18  1  0  0  0  0
 17 36  1  0  0  0  0
 17 37  1  0  0  0  0
 18 19  1  0  0  0  0
 18 38  1  0  0  0  0
 18 39  1  0  0  0  0
 19 20  1  0  0  0  0
 19 40  1  0  0  0  0
 19 41  1  0  0  0  0
 20 42  1  0  0  0  0
 20 43  1  0  0  0  0
M  CHG  1   9  -1
M  CHG  1  16   1
M  END
> <s_m_source_file>
AV-unprocessed.smi

> <i_m_source_file_index>
2252

> <i_lp_mmshare_version>
43012

> <i_f3d_flags>
0

> <s_epik_input>
W0NIM11uMVtjSF1bY0hdbmMxW0NIMl1bQ0gyXVtOSF1DKD1PKVtDQEhdKFtDSF0yW0NIMl1bQ0gyXTIpTjNbQ0gyXVtDSDJdW0NIMl1bQ0gyXTM=

> <s_epik_cmdline>
J2VwaWtfcHl0aG9uJywgJy1waCcsICc3LjAnLCAnLXRuJywgJzgnLCAnLW1hJywgJzIwMCcsICctbWV0YWxfYmluZGluZycsICctaW1hZScsICc8aW5maWxlLm1hZT4nLCAnLW9tYWUnLCAnPG91dGZpbGUubWFlPic=

> <r_lp_tautomer_probability>
1

> <r_epik_Ionization_Penalty>
7.86289

> <r_epik_Ionization_Penalty_Charging>
7.86289

> <r_epik_Ionization_Penalty_Neutral>
4.79398e-13

> <r_epik_State_Penalty>
7.18546

> <r_epik_Charging_Adjusted_Penalty>
15.0484

> <i_epik_Tot_Q>
0

> <i_epik_Tot_abs_Q>
2

> <r_epik_Metal_State_Penalty>
3.4294

> <b_epik_Metal_Only>
1

> <s_lp_Force_Field>
OPLS_2005

> <r_lp_Energy>
29.989

> <b_lp_Chiralities_Consistent>
1

> <s_lp_Variant>
AV-unprocessed.smi:2252-9

> <Gold.Version>
5.8.1

> <Gold.Id.Protein>
6NUR|6NUR_protein|mol2

> <Gold.PLP.Fitness>
44.4017

> <Gold.PLP.PLP>
-46.3974

> <Gold.PLP.part.hbond>
-0.3753

> <Gold.PLP.part.metal>
0.0000

> <Gold.PLP.part.buried>
-6.4401

> <Gold.PLP.part.nonpolar>
-42.9405

> <Gold.PLP.part.repulsive>
3.0052

> <Gold.PLP.ligand.clash>
0.0000

> <Gold.PLP.ligand.torsion>
1.6446

> <Gold.PLP.Chemscore.Hbond>
0.0000

> <Gold.PLP.Chemscore.CHOScore>
0.0000

> <Gold.PLP.Chemscore.Metal>
0.0000

> <Gold.PLP.Chemscore.Internal.Correction>
1.2935

> <Gold.Rescore>
     Score         DG    S(hbond)    S(metal)    S(lipo)     H(rot)  DE(clash)    DE(int)     intcor
      9.10     -13.16       0.00        0.00     106.76       1.88       0.11       3.95       ----

> <Gold.Chemscore.Fitness>
9.0958

> <Gold.Chemscore.DG>
-13.1551

> <Gold.Chemscore.ZeroCoef>
-5.4800

> <Gold.Chemscore.Hbond>
0.0000

> <Gold.Chemscore.Metal>
0.0000

> <Gold.Chemscore.Lipo>
106.7638

> <Gold.Chemscore.Internal_Hbond>
0.0000

> <Gold.Chemscore.DEClash>
0.1115

> <Gold.Chemscore.DEInternal>
3.9478

> <Gold.Chemscore.Rot>
1.8814

> <Gold.Chemscore.Internal.Correction>
   9.000000E+99

> <Gold.Chemscore.Hbond.Weighted>
-0.0000

> <Gold.Chemscore.Metal.Weighted>
-0.0000

> <Gold.Chemscore.Lipo.Weighted>
-12.4914

> <Gold.Chemscore.Internal_Hbond.Weighted>
0.0000

> <Gold.Chemscore.DEClash.Weighted>
0.1115

> <Gold.Chemscore.DEInternal.Weighted>
3.9478

> <Gold.Chemscore.Rot.Weighted>
4.8163

> <Gold.Chemscore.Internal.Correction.Weighted>
   9.000000E+99

> <Gold.Protein.RotatedTorsions>
[ 6907 6896 6895 6894 ] final   18.31 input  -60.11 | X-H torsion
[ 7974 7965 7964 7962 ] final  -45.12 input  175.53 | X-H torsion
[ 8008 7997 7996 7995 ] final  114.29 input   59.86 | X-H torsion
[ 10167 10162 10161 10158 ] final  -34.74 input  -65.29 | X-H torsion
[ 10718 10713 10712 10709 ] final  174.68 input   66.30 | X-H torsion
[ 10763 10752 10751 10750 ] final   52.26 input  -60.55 | X-H torsion
[ 11005 11000 10999 10996 ] final   49.80 input  -57.11 | X-H torsion

> <Gold.Protein.ActiveResidues>
 VAL166  LYS551  ARG553  GLY616  TRP617  ASP618  TYR619  PRO620  LYS621  CYS622 
 ASP623  PHE694  ASN695  SER759  ASP760  ASP761  ALA762  ILE779  LEU786  VAL792 
 PHE793  MET794  SER795  GLU796  ALA797  LYS798  CYS799  TRP800  GLU811  SER814 

> <Gold.Protein.RotatedAtoms>
  151.8632  135.0516  160.0471 H   0  0  0  0  0  0  0  0  0  0  0  0  # atno 6907 bound_to 6896
  152.2646  133.5323  159.5411 H   0  0  0  0  0  0  0  0  0  0  0  0  # atno 6908 bound_to 6896
  150.7129  134.0698  159.3903 H   0  0  0  0  0  0  0  0  0  0  0  0  # atno 6909 bound_to 6896
  145.9852  140.7240  142.9344 H   0  0  0  0  0  0  0  0  0  0  0  0  # atno 7974 bound_to 7965
  156.2312  140.2962  156.0193 H   0  0  0  0  0  0  0  0  0  0  0  0  # atno 8008 bound_to 7997
  155.2220  140.0416  157.2967 H   0  0  0  0  0  0  0  0  0  0  0  0  # atno 8009 bound_to 7997
  154.5999  140.2424  155.7814 H   0  0  0  0  0  0  0  0  0  0  0  0  # atno 8010 bound_to 7997
  140.7179  143.3527  151.2123 H   0  0  0  0  0  0  0  0  0  0  0  0  # atno 10167 bound_to 10162
  156.9460  131.0016  151.2958 H   0  0  0  0  0  0  0  0  0  0  0  0  # atno 10718 bound_to 10713
  152.9788  135.5818  154.4550 H   0  0  0  0  0  0  0  0  0  0  0  0  # atno 10763 bound_to 10752
  154.4134  135.2770  155.2024 H   0  0  0  0  0  0  0  0  0  0  0  0  # atno 10764 bound_to 10752
  154.3804  135.6148  153.5842 H   0  0  0  0  0  0  0  0  0  0  0  0  # atno 10765 bound_to 10752
  140.1072  134.5002  155.8709 H   0  0  0  0  0  0  0  0  0  0  0  0  # atno 11005 bound_to 11000
  144.6873  140.2976  143.7268 LP  0  0  0  0  0  0  0  0  0  0  0  0  # atno 17320 bound_to 7965
  145.7711  139.1857  143.2212 LP  0  0  0  0  0  0  0  0  0  0  0  0  # atno 17321 bound_to 7965
  139.7061  143.9453  152.2927 LP  0  0  0  0  0  0  0  0  0  0  0  0  # atno 17342 bound_to 10162
  139.9162  144.6827  150.8509 LP  0  0  0  0  0  0  0  0  0  0  0  0  # atno 17343 bound_to 10162
  157.5753  130.8339  149.8447 LP  0  0  0  0  0  0  0  0  0  0  0  0  # atno 17370 bound_to 10713
  156.0383  130.3745  150.1501 LP  0  0  0  0  0  0  0  0  0  0  0  0  # atno 17371 bound_to 10713
  141.2121  133.6715  156.6635 LP  0  0  0  0  0  0  0  0  0  0  0  0  # atno 17394 bound_to 11000
  140.3139  134.8063  157.4198 LP  0  0  0  0  0  0  0  0  0  0  0  0  # atno 17395 bound_to 11000

$$$$
