AV-unprocessed.smi:210|AV-procd|sdf|1611|dock1
  -GOLD-   2262019533D 1   1.00000     0.00000
 Structure written by MMmdl.
 57 61  0  0  0  0  0  0  0  0  1 V2000
  152.6888  137.9754  155.3540 C   0  0  0  0  0  0  0  0  0  0  0  0
  151.8668  139.1305  155.3565 O   0  0  0  0  0  0  0  0  0  0  0  0
  150.5979  138.8990  155.9534 C   0  0  2  0  0  0  0  0  0  0  0  0
  149.6030  138.3832  154.9062 C   0  0  0  0  0  0  0  0  0  0  0  0
  149.2317  139.8484  154.6240 C   0  0  1  0  0  0  0  0  0  0  0  0
  147.8061  140.0817  154.3879 N   0  0  0  0  0  0  0  0  0  0  0  0
  147.4123  141.4667  154.1575 C   0  0  0  0  0  0  0  0  0  0  0  0
  147.2717  139.2586  153.4587 C   0  0  0  0  0  0  0  0  0  0  0  0
  147.3634  139.5729  152.1396 N   0  0  0  0  0  0  0  0  0  0  0  0
  146.8382  138.7536  151.2234 C   0  0  0  0  0  0  0  0  0  0  0  0
  146.1967  137.5968  151.4067 N   0  0  0  0  0  0  0  0  0  0  0  0
  146.1075  137.2808  152.7315 C   0  0  0  0  0  0  0  0  0  0  0  0
  146.6135  138.0531  153.8139 C   0  0  0  0  0  0  0  0  0  0  0  0
  146.3394  137.4249  155.0211 N   0  0  0  0  0  0  0  0  0  0  0  0
  145.7029  136.3401  154.6725 C   0  0  0  0  0  0  0  0  0  0  0  0
  145.5238  136.1696  153.3169 N   0  0  0  0  0  0  0  0  0  0  0  0
  144.8521  135.0784  152.6696 C   0  0  0  0  0  0  0  0  0  0  0  0
  145.2580  133.6323  152.9551 C   0  0  0  0  0  0  0  0  0  0  0  0
  144.8980  133.2510  151.5015 C   0  0  0  0  0  0  0  0  0  0  0  0
  145.8878  132.2963  150.8134 C   0  0  0  0  0  0  0  0  0  0  0  0
  147.2186  132.5693  151.2027 O   0  0  0  0  0  0  0  0  0  0  0  0
  143.4628  132.7241  151.3000 C   0  0  0  0  0  0  0  0  0  0  0  0
  143.1378  132.6187  149.9285 O   0  0  0  0  0  0  0  0  0  0  0  0
  145.0984  134.7538  151.1946 C   0  0  0  0  0  0  0  0  0  0  0  0
  149.7162  140.1634  156.0553 C   0  0  0  0  0  0  0  0  0  0  0  0
  150.2976  141.5314  156.4428 C   0  0  0  0  0  0  0  0  0  0  0  0
  149.7553  141.3037  157.8573 C   0  0  0  0  0  0  0  0  0  0  0  0
  148.7668  140.2955  157.2621 C   0  0  0  0  0  0  0  0  0  0  0  0
  153.6666  138.2219  154.9401 H   0  0  0  0  0  0  0  0  0  0  0  0
  152.2521  137.1889  154.7372 H   0  0  0  0  0  0  0  0  0  0  0  0
  152.8366  137.5823  156.3601 H   0  0  0  0  0  0  0  0  0  0  0  0
  150.6260  138.2763  156.8496 H   0  0  0  0  0  0  0  0  0  0  0  0
  150.0510  137.8569  154.0629 H   0  0  0  0  0  0  0  0  0  0  0  0
  148.7928  137.8054  155.3551 H   0  0  0  0  0  0  0  0  0  0  0  0
  149.8848  140.2936  153.8709 H   0  0  0  0  0  0  0  0  0  0  0  0
  146.3446  141.5404  153.9460 H   0  0  0  0  0  0  0  0  0  0  0  0
  147.9594  141.8909  153.3146 H   0  0  0  0  0  0  0  0  0  0  0  0
  147.6161  142.0805  155.0336 H   0  0  0  0  0  0  0  0  0  0  0  0
  146.9485  139.0699  150.1966 H   0  0  0  0  0  0  0  0  0  0  0  0
  145.3424  135.6302  155.4027 H   0  0  0  0  0  0  0  0  0  0  0  0
  143.7840  135.2122  152.8473 H   0  0  0  0  0  0  0  0  0  0  0  0
  146.3233  133.5294  153.1698 H   0  0  0  0  0  0  0  0  0  0  0  0
  144.6578  133.1384  153.7199 H   0  0  0  0  0  0  0  0  0  0  0  0
  145.6607  131.2529  151.0333 H   0  0  0  0  0  0  0  0  0  0  0  0
  145.8324  132.3979  149.7292 H   0  0  0  0  0  0  0  0  0  0  0  0
  147.7894  131.9500  150.7736 H   0  0  0  0  0  0  0  0  0  0  0  0
  143.3264  131.7492  151.7683 H   0  0  0  0  0  0  0  0  0  0  0  0
  142.7317  133.3859  151.7647 H   0  0  0  0  0  0  0  0  0  0  0  0
  142.4420  133.2291  149.7373 H   0  0  0  0  0  0  0  0  0  0  0  0
  144.3664  135.1883  150.5128 H   0  0  0  0  0  0  0  0  0  0  0  0
  146.1134  134.9899  150.8713 H   0  0  0  0  0  0  0  0  0  0  0  0
  151.3809  141.6207  156.3740 H   0  0  0  0  0  0  0  0  0  0  0  0
  149.8019  142.3589  155.9339 H   0  0  0  0  0  0  0  0  0  0  0  0
  150.4872  140.8363  158.5179 H   0  0  0  0  0  0  0  0  0  0  0  0
  149.2953  142.1791  158.3161 H   0  0  0  0  0  0  0  0  0  0  0  0
  147.8049  140.7508  157.0269 H   0  0  0  0  0  0  0  0  0  0  0  0
  148.6407  139.3856  157.8497 H   0  0  0  0  0  0  0  0  0  0  0  0
  1  2  1  0  0  0  0
  1 29  1  0  0  0  0
  1 30  1  0  0  0  0
  1 31  1  0  0  0  0
  2  3  1  0  0  0  0
  3 25  1  0  0  0  0
  3  4  1  0  0  0  0
  3 32  1  0  0  0  0
  4  5  1  0  0  0  0
  4 33  1  0  0  0  0
  4 34  1  0  0  0  0
  5  6  1  0  0  0  0
  5 25  1  0  0  0  0
  5 35  1  0  0  0  0
  6  7  1  0  0  0  0
  6  8  1  0  0  0  0
  7 36  1  0  0  0  0
  7 37  1  0  0  0  0
  7 38  1  0  0  0  0
  8 13  1  0  0  0  0
  8  9  2  0  0  0  0
  9 10  1  0  0  0  0
 10 11  2  0  0  0  0
 10 39  1  0  0  0  0
 11 12  1  0  0  0  0
 12 16  1  0  0  0  0
 12 13  2  0  0  0  0
 13 14  1  0  0  0  0
 14 15  2  0  0  0  0
 15 16  1  0  0  0  0
 15 40  1  0  0  0  0
 16 17  1  0  0  0  0
 17 24  1  0  0  0  0
 17 18  1  0  0  0  0
 17 41  1  0  0  0  0
 18 19  1  0  0  0  0
 18 42  1  0  0  0  0
 18 43  1  0  0  0  0
 19 20  1  0  0  0  0
 19 22  1  0  0  0  0
 19 24  1  0  0  0  0
 20 21  1  0  0  0  0
 20 44  1  0  0  0  0
 20 45  1  0  0  0  0
 21 46  1  0  0  0  0
 22 23  1  0  0  0  0
 22 47  1  0  0  0  0
 22 48  1  0  0  0  0
 23 49  1  0  0  0  0
 24 50  1  0  0  0  0
 24 51  1  0  0  0  0
 25 28  1  0  0  0  0
 25 26  1  0  0  0  0
 26 27  1  0  0  0  0
 26 52  1  0  0  0  0
 26 53  1  0  0  0  0
 27 28  1  0  0  0  0
 27 54  1  0  0  0  0
 27 55  1  0  0  0  0
 28 56  1  0  0  0  0
 28 57  1  0  0  0  0
M  END
> <s_m_source_file>
AV-unprocessed.smi

> <i_m_source_file_index>
210

> <i_lp_mmshare_version>
43012

> <i_f3d_flags>
0

> <s_epik_input>
W0NIMl0xW0NIMl1bQ0gyXUMxMltDQEhdKE9bQ0gzXSlbQ0gyXVtDQEhdMk4oW0NIM10pYyhuW2NIXW4zKWMoYzM0KW5bY0hdbjRbQ0hdKFtDSDJdNSlbQ0gyXUM1KFtDSDJdW09IXSlbQ0gyXVtPSF0=

> <s_epik_cmdline>
J2VwaWtfcHl0aG9uJywgJy1waCcsICc3LjAnLCAnLXRuJywgJzgnLCAnLW1hJywgJzIwMCcsICctbWV0YWxfYmluZGluZycsICctaW1hZScsICc8aW5maWxlLm1hZT4nLCAnLW9tYWUnLCAnPG91dGZpbGUubWFlPic=

> <r_lp_tautomer_probability>
1

> <r_epik_Ionization_Penalty>
0.00313676

> <r_epik_Ionization_Penalty_Charging>
0

> <r_epik_Ionization_Penalty_Neutral>
0.00313676

> <r_epik_State_Penalty>
0.00199132

> <r_epik_Charging_Adjusted_Penalty>
0.00199132

> <i_epik_Tot_Q>
0

> <i_epik_Tot_abs_Q>
0

> <r_epik_Metal_State_Penalty>
-0

> <b_epik_Metal_Only>
0

> <s_lp_Force_Field>
OPLS_2005

> <r_lp_Energy>
59.5036

> <b_lp_Chiralities_Consistent>
1

> <s_lp_Variant>
AV-unprocessed.smi:210-1

> <Gold.Version>
5.8.1

> <Gold.Id.Protein>
6NUR|6NUR_protein|mol2

> <Gold.PLP.Fitness>
48.6864

> <Gold.PLP.PLP>
-41.2101

> <Gold.PLP.part.hbond>
-3.2974

> <Gold.PLP.part.metal>
0.0000

> <Gold.PLP.part.buried>
-6.2785

> <Gold.PLP.part.nonpolar>
-38.0999

> <Gold.PLP.part.repulsive>
6.6987

> <Gold.PLP.ligand.clash>
0.0000

> <Gold.PLP.ligand.torsion>
1.5162

> <Gold.PLP.Chemscore.Hbond>
2.9760

> <Gold.PLP.Chemscore.CHOScore>
0.1455

> <Gold.PLP.Chemscore.Metal>
0.0000

> <Gold.Chemscore.Hbonds>
donor molecule, donor type, donor heavy atom, donor atom, acceptor molecule, acceptor atom, score
      L1  H    21    46       P1 10747  1.00
      L1  H    23    49       P1 10186  1.00

> <Gold.PLP.Chemscore.Internal.Correction>
1.1443

> <Gold.Rescore>
     Score         DG    S(hbond)    S(metal)    S(lipo)     H(rot)  DE(clash)    DE(int)     intcor
     11.57     -16.61       2.87        0.00      91.38       3.57       3.26       1.78       ----

> <Gold.Chemscore.Fitness>
11.5672

> <Gold.Chemscore.DG>
-16.6116

> <Gold.Chemscore.ZeroCoef>
-5.4800

> <Gold.Chemscore.Hbond>
2.8691

> <Gold.Chemscore.Metal>
0.0000

> <Gold.Chemscore.Lipo>
91.3775

> <Gold.Chemscore.Internal_Hbond>
0.0000

> <Gold.Chemscore.DEClash>
3.2611

> <Gold.Chemscore.DEInternal>
1.7832

> <Gold.Chemscore.Rot>
3.5712

> <Gold.Chemscore.Internal.Correction>
   9.000000E+99

> <Gold.Chemscore.Hbonds>
donor molecule, donor type, donor heavy atom, donor atom, acceptor molecule, acceptor atom, score
      L1  H    21    46       P1 10747  1.00
      L1  H    23    49       P1 10186  1.00

> <Gold.Chemscore.Hbond.Weighted>
-9.5827

> <Gold.Chemscore.Metal.Weighted>
-0.0000

> <Gold.Chemscore.Lipo.Weighted>
-10.6912

> <Gold.Chemscore.Internal_Hbond.Weighted>
0.0000

> <Gold.Chemscore.DEClash.Weighted>
3.2611

> <Gold.Chemscore.DEInternal.Weighted>
1.7832

> <Gold.Chemscore.Rot.Weighted>
9.1423

> <Gold.Chemscore.Internal.Correction.Weighted>
   9.000000E+99

> <Gold.Protein.RotatedTorsions>
[ 6907 6896 6895 6894 ] final   25.46 input  -60.11 | X-H torsion
[ 7974 7965 7964 7962 ] final -177.09 input  175.53 | X-H torsion
[ 8008 7997 7996 7995 ] final  -76.37 input   59.86 | X-H torsion
[ 10167 10162 10161 10158 ] final  -37.44 input  -65.29 | X-H torsion
[ 10718 10713 10712 10709 ] final  124.26 input   66.30 | X-H torsion
[ 10763 10752 10751 10750 ] final -173.74 input  -60.55 | X-H torsion
[ 11005 11000 10999 10996 ] final -105.78 input  -57.11 | X-H torsion

> <Gold.Protein.ActiveResidues>
 VAL166  LYS551  ARG553  GLY616  TRP617  ASP618  TYR619  PRO620  LYS621  CYS622 
 ASP623  PHE694  ASN695  SER759  ASP760  ASP761  ALA762  ILE779  LEU786  VAL792 
 PHE793  MET794  SER795  GLU796  ALA797  LYS798  CYS799  TRP800  GLU811  SER814 

> <Gold.Protein.RotatedAtoms>
  151.9728  135.0068  160.0553 H   0  0  0  0  0  0  0  0  0  0  0  0  # atno 6907 bound_to 6896
  152.1767  133.4675  159.4945 H   0  0  0  0  0  0  0  0  0  0  0  0  # atno 6908 bound_to 6896
  150.6910  134.1802  159.4288 H   0  0  0  0  0  0  0  0  0  0  0  0  # atno 6909 bound_to 6896
  144.7127  140.1071  143.6413 H   0  0  0  0  0  0  0  0  0  0  0  0  # atno 7974 bound_to 7965
  154.5499  140.0728  156.8650 H   0  0  0  0  0  0  0  0  0  0  0  0  # atno 8008 bound_to 7997
  155.3014  140.3384  155.4229 H   0  0  0  0  0  0  0  0  0  0  0  0  # atno 8009 bound_to 7997
  156.1952  140.1701  156.7999 H   0  0  0  0  0  0  0  0  0  0  0  0  # atno 8010 bound_to 7997
  140.7118  143.3342  151.2501 H   0  0  0  0  0  0  0  0  0  0  0  0  # atno 10167 bound_to 10162
  157.5599  131.1090  150.8556 H   0  0  0  0  0  0  0  0  0  0  0  0  # atno 10718 bound_to 10713
  154.6043  135.2858  155.0501 H   0  0  0  0  0  0  0  0  0  0  0  0  # atno 10763 bound_to 10752
  154.1755  135.6465  153.5024 H   0  0  0  0  0  0  0  0  0  0  0  0  # atno 10764 bound_to 10752
  153.0169  135.5411  154.6773 H   0  0  0  0  0  0  0  0  0  0  0  0  # atno 10765 bound_to 10752
  141.1037  133.8837  157.1775 H   0  0  0  0  0  0  0  0  0  0  0  0  # atno 11005 bound_to 11000
  145.9487  139.2718  143.1225 LP  0  0  0  0  0  0  0  0  0  0  0  0  # atno 17320 bound_to 7965
  145.9346  140.9023  143.0338 LP  0  0  0  0  0  0  0  0  0  0  0  0  # atno 17321 bound_to 7965
  139.6832  143.9819  152.2820 LP  0  0  0  0  0  0  0  0  0  0  0  0  # atno 17342 bound_to 10162
  139.9455  144.6654  150.8223 LP  0  0  0  0  0  0  0  0  0  0  0  0  # atno 17343 bound_to 10162
  156.9057  130.5262  149.5281 LP  0  0  0  0  0  0  0  0  0  0  0  0  # atno 17370 bound_to 10713
  156.0653  130.5697  150.9276 LP  0  0  0  0  0  0  0  0  0  0  0  0  # atno 17371 bound_to 10713
  139.9898  135.0069  156.9948 LP  0  0  0  0  0  0  0  0  0  0  0  0  # atno 17394 bound_to 11000
  140.4957  134.1148  155.7241 LP  0  0  0  0  0  0  0  0  0  0  0  0  # atno 17395 bound_to 11000

$$$$
