AV-unprocessed.smi:23|AV-procd|sdf|174|dock6
  -GOLD-   2262015433D 1   1.00000     0.00000
 Structure written by MMmdl.
 53 56  0  0  0  0  0  0  0  0  1 V2000
  151.6336  139.8572  155.6591 C   0  0  0  0  0  0  0  0  0  0  0  0
  150.6846  140.4165  154.7584 O   0  0  0  0  0  0  0  0  0  0  0  0
  149.2909  140.2984  155.0636 C   0  0  2  0  0  0  0  0  0  0  0  0
  148.6220  140.9191  153.8204 C   0  0  0  0  0  0  0  0  0  0  0  0
  148.9379  141.0941  156.3470 C   0  0  0  0  0  0  0  0  0  0  0  0
  147.4591  140.9186  156.7359 C   0  0  0  0  0  0  0  0  0  0  0  0
  147.0815  139.4308  156.8301 C   0  0  0  0  0  0  0  0  0  0  0  0
  147.4444  138.7236  155.6016 N   0  0  0  0  0  0  0  0  0  0  0  0
  146.8699  137.5180  155.3646 C   0  0  0  0  0  0  0  0  0  0  0  0
  146.8243  136.5822  156.3504 N   0  0  0  0  0  0  0  0  0  0  0  0
  146.2724  135.3872  156.1203 C   0  0  0  0  0  0  0  0  0  0  0  0
  145.7116  134.9284  154.9999 N   0  0  0  0  0  0  0  0  0  0  0  0
  145.7425  135.8666  154.0104 C   0  0  0  0  0  0  0  0  0  0  0  0
  146.3022  137.1723  154.1058 C   0  0  0  0  0  0  0  0  0  0  0  0
  146.1536  137.8400  152.8957 N   0  0  0  0  0  0  0  0  0  0  0  0
  145.5564  136.9727  152.1248 C   0  0  0  0  0  0  0  0  0  0  0  0
  145.2448  135.7718  152.7220 N   0  0  0  0  0  0  0  0  0  0  0  0
  144.6278  134.6376  152.0979 C   0  0  0  0  0  0  0  0  0  0  0  0
  145.2780  133.2517  152.1547 C   0  0  0  0  0  0  0  0  0  0  0  0
  144.7932  132.9513  150.7190 C   0  0  0  0  0  0  0  0  0  0  0  0
  145.8522  132.3445  149.7857 C   0  0  0  0  0  0  0  0  0  0  0  0
  146.4015  131.1608  150.3285 O   0  0  0  0  0  0  0  0  0  0  0  0
  143.5144  132.0966  150.5706 C   0  0  0  0  0  0  0  0  0  0  0  0
  143.0005  132.0773  149.2542 O   0  0  0  0  0  0  0  0  0  0  0  0
  144.6174  134.4796  150.5742 C   0  0  0  0  0  0  0  0  0  0  0  0
  148.8541  138.8208  155.2214 C   0  0  0  0  0  0  0  0  0  0  0  0
  152.6351  140.0823  155.2926 H   0  0  0  0  0  0  0  0  0  0  0  0
  151.5547  138.7722  155.7173 H   0  0  0  0  0  0  0  0  0  0  0  0
  151.5598  140.2744  156.6621 H   0  0  0  0  0  0  0  0  0  0  0  0
  147.5342  140.8887  153.8747 H   0  0  0  0  0  0  0  0  0  0  0  0
  148.9111  140.3851  152.9146 H   0  0  0  0  0  0  0  0  0  0  0  0
  148.9154  141.9617  153.6937 H   0  0  0  0  0  0  0  0  0  0  0  0
  149.5381  140.7488  157.1875 H   0  0  0  0  0  0  0  0  0  0  0  0
  149.1715  142.1514  156.2179 H   0  0  0  0  0  0  0  0  0  0  0  0
  147.2647  141.4105  157.6894 H   0  0  0  0  0  0  0  0  0  0  0  0
  146.8187  141.4139  156.0061 H   0  0  0  0  0  0  0  0  0  0  0  0
  147.5947  138.9681  157.6743 H   0  0  0  0  0  0  0  0  0  0  0  0
  146.0102  139.3406  157.0150 H   0  0  0  0  0  0  0  0  0  0  0  0
  146.2805  134.7003  156.9538 H   0  0  0  0  0  0  0  0  0  0  0  0
  145.3192  137.1913  151.0937 H   0  0  0  0  0  0  0  0  0  0  0  0
  143.6125  134.6009  152.4944 H   0  0  0  0  0  0  0  0  0  0  0  0
  146.3658  133.3044  152.2276 H   0  0  0  0  0  0  0  0  0  0  0  0
  144.8690  132.5940  152.9223 H   0  0  0  0  0  0  0  0  0  0  0  0
  145.4333  132.1229  148.8035 H   0  0  0  0  0  0  0  0  0  0  0  0
  146.6716  133.0444  149.6197 H   0  0  0  0  0  0  0  0  0  0  0  0
  147.2896  131.0713  150.0181 H   0  0  0  0  0  0  0  0  0  0  0  0
  143.7047  131.0642  150.8655 H   0  0  0  0  0  0  0  0  0  0  0  0
  142.7210  132.4651  151.2214 H   0  0  0  0  0  0  0  0  0  0  0  0
  142.3832  132.7871  149.1625 H   0  0  0  0  0  0  0  0  0  0  0  0
  143.6877  134.7924  150.0974 H   0  0  0  0  0  0  0  0  0  0  0  0
  145.4743  134.9652  150.1043 H   0  0  0  0  0  0  0  0  0  0  0  0
  149.0668  138.2725  154.3040 H   0  0  0  0  0  0  0  0  0  0  0  0
  149.4239  138.3333  156.0121 H   0  0  0  0  0  0  0  0  0  0  0  0
  1  2  1  0  0  0  0
  1 27  1  0  0  0  0
  1 28  1  0  0  0  0
  1 29  1  0  0  0  0
  2  3  1  0  0  0  0
  3 26  1  0  0  0  0
  3  4  1  0  0  0  0
  3  5  1  0  0  0  0
  4 30  1  0  0  0  0
  4 31  1  0  0  0  0
  4 32  1  0  0  0  0
  5  6  1  0  0  0  0
  5 33  1  0  0  0  0
  5 34  1  0  0  0  0
  6  7  1  0  0  0  0
  6 35  1  0  0  0  0
  6 36  1  0  0  0  0
  7  8  1  0  0  0  0
  7 37  1  0  0  0  0
  7 38  1  0  0  0  0
  8  9  1  0  0  0  0
  8 26  1  0  0  0  0
  9 14  1  0  0  0  0
  9 10  2  0  0  0  0
 10 11  1  0  0  0  0
 11 12  2  0  0  0  0
 11 39  1  0  0  0  0
 12 13  1  0  0  0  0
 13 17  1  0  0  0  0
 13 14  2  0  0  0  0
 14 15  1  0  0  0  0
 15 16  2  0  0  0  0
 16 17  1  0  0  0  0
 16 40  1  0  0  0  0
 17 18  1  0  0  0  0
 18 25  1  0  0  0  0
 18 19  1  0  0  0  0
 18 41  1  0  0  0  0
 19 20  1  0  0  0  0
 19 42  1  0  0  0  0
 19 43  1  0  0  0  0
 20 21  1  0  0  0  0
 20 23  1  0  0  0  0
 20 25  1  0  0  0  0
 21 22  1  0  0  0  0
 21 44  1  0  0  0  0
 21 45  1  0  0  0  0
 22 46  1  0  0  0  0
 23 24  1  0  0  0  0
 23 47  1  0  0  0  0
 23 48  1  0  0  0  0
 24 49  1  0  0  0  0
 25 50  1  0  0  0  0
 25 51  1  0  0  0  0
 26 52  1  0  0  0  0
 26 53  1  0  0  0  0
M  END
> <s_m_source_file>
AV-unprocessed.smi

> <i_m_source_file_index>
23

> <i_lp_mmshare_version>
43012

> <i_f3d_flags>
0

> <s_epik_input>
W0NIM11PW0NAQF0xKFtDSDNdKVtDSDJdW0NIMl1bQ0gyXU4oW0NIMl0xKWMobltjSF1uMiljKGMyMyluW2NIXW4zW0NIXShbQ0gyXTQpW0NIMl1DNChbQ0gyXVtPSF0pW0NIMl1bT0hd

> <s_epik_cmdline>
J2VwaWtfcHl0aG9uJywgJy1waCcsICc3LjAnLCAnLXRuJywgJzgnLCAnLW1hJywgJzIwMCcsICctbWV0YWxfYmluZGluZycsICctaW1hZScsICc8aW5maWxlLm1hZT4nLCAnLW9tYWUnLCAnPG91dGZpbGUubWFlPic=

> <r_lp_tautomer_probability>
1

> <r_epik_Ionization_Penalty>
0.00233978

> <r_epik_Ionization_Penalty_Charging>
0

> <r_epik_Ionization_Penalty_Neutral>
0.00233978

> <r_epik_State_Penalty>
0.00146422

> <r_epik_Charging_Adjusted_Penalty>
0.00146422

> <i_epik_Tot_Q>
0

> <i_epik_Tot_abs_Q>
0

> <r_epik_Metal_State_Penalty>
-0

> <b_epik_Metal_Only>
0

> <s_lp_Force_Field>
OPLS_2005

> <r_lp_Energy>
49.2291

> <b_lp_Chiralities_Consistent>
1

> <s_lp_Variant>
AV-unprocessed.smi:23-2

> <Gold.Version>
5.8.1

> <Gold.Id.Protein>
6NUR|6NUR_protein|mol2

> <Gold.PLP.Fitness>
46.9683

> <Gold.PLP.PLP>
-34.1044

> <Gold.PLP.part.hbond>
-4.9427

> <Gold.PLP.part.metal>
0.0000

> <Gold.PLP.part.buried>
-4.4408

> <Gold.PLP.part.nonpolar>
-24.9784

> <Gold.PLP.part.repulsive>
0.3888

> <Gold.PLP.ligand.clash>
0.0000

> <Gold.PLP.ligand.torsion>
1.1612

> <Gold.PLP.Chemscore.Hbond>
3.7713

> <Gold.PLP.Chemscore.CHOScore>
1.0000

> <Gold.PLP.Chemscore.Metal>
0.0000

> <Gold.Chemscore.Hbonds>
donor molecule, donor type, donor heavy atom, donor atom, acceptor molecule, acceptor atom, score
      L1  H    22    46       P1 10747  1.00
      L1  H    24    49       P1 10186  0.68
      P1  H  7989  7998       L1     2  1.00
      P1  H 10785 10796       L1    24  1.00
      L1  C    16    40       P1 10171  1.00

> <Gold.PLP.Chemscore.Internal.Correction>
0.8725

> <Gold.Rescore>
     Score         DG    S(hbond)    S(metal)    S(lipo)     H(rot)  DE(clash)    DE(int)     intcor
     14.79     -16.00       3.26        0.00      70.92       3.38       0.15       1.07       ----

> <Gold.Chemscore.Fitness>
14.7858

> <Gold.Chemscore.DG>
-16.0039

> <Gold.Chemscore.ZeroCoef>
-5.4800

> <Gold.Chemscore.Hbond>
3.2601

> <Gold.Chemscore.Metal>
0.0000

> <Gold.Chemscore.Lipo>
70.9174

> <Gold.Chemscore.Internal_Hbond>
0.0000

> <Gold.Chemscore.DEClash>
0.1461

> <Gold.Chemscore.DEInternal>
1.0720

> <Gold.Chemscore.Rot>
3.3837

> <Gold.Chemscore.Internal.Correction>
   9.000000E+99

> <Gold.Chemscore.Hbonds>
donor molecule, donor type, donor heavy atom, donor atom, acceptor molecule, acceptor atom, score
      L1  H    22    46       P1 10747  0.98
      L1  H    24    49       P1 10186  0.67
      P1  H  7989  7998       L1     2  0.34
      P1  H 10785 10796       L1    24  0.38

> <Gold.Chemscore.Hbond.Weighted>
-10.8888

> <Gold.Chemscore.Metal.Weighted>
-0.0000

> <Gold.Chemscore.Lipo.Weighted>
-8.2973

> <Gold.Chemscore.Internal_Hbond.Weighted>
0.0000

> <Gold.Chemscore.DEClash.Weighted>
0.1461

> <Gold.Chemscore.DEInternal.Weighted>
1.0720

> <Gold.Chemscore.Rot.Weighted>
8.6622

> <Gold.Chemscore.Internal.Correction.Weighted>
   9.000000E+99

> <Gold.Protein.RotatedTorsions>
[ 6907 6896 6895 6894 ] final -147.84 input  -60.11 | X-H torsion
[ 7974 7965 7964 7962 ] final  134.74 input  175.53 | X-H torsion
[ 8008 7997 7996 7995 ] final   31.63 input   59.86 | X-H torsion
[ 10167 10162 10161 10158 ] final   46.05 input  -65.29 | X-H torsion
[ 10718 10713 10712 10709 ] final  -80.17 input   66.30 | X-H torsion
[ 10763 10752 10751 10750 ] final  -93.13 input  -60.55 | X-H torsion
[ 11005 11000 10999 10996 ] final  -97.93 input  -57.11 | X-H torsion

> <Gold.Protein.ActiveResidues>
 VAL166  LYS551  ARG553  GLY616  TRP617  ASP618  TYR619  PRO620  LYS621  CYS622 
 ASP623  PHE694  ASN695  SER759  ASP760  ASP761  ALA762  ILE779  LEU786  VAL792 
 PHE793  MET794  SER795  GLU796  ALA797  LYS798  CYS799  TRP800  GLU811  SER814 

> <Gold.Protein.RotatedAtoms>
  151.1613  133.4843  159.2594 H   0  0  0  0  0  0  0  0  0  0  0  0  # atno 6907 bound_to 6896
  151.1451  135.0199  159.8653 H   0  0  0  0  0  0  0  0  0  0  0  0  # atno 6908 bound_to 6896
  152.5463  134.1503  159.8569 H   0  0  0  0  0  0  0  0  0  0  0  0  # atno 6909 bound_to 6896
  144.9733  139.4582  143.5422 H   0  0  0  0  0  0  0  0  0  0  0  0  # atno 7974 bound_to 7965
  155.1096  140.3237  155.4525 H   0  0  0  0  0  0  0  0  0  0  0  0  # atno 8008 bound_to 7997
  156.2694  140.2046  156.6168 H   0  0  0  0  0  0  0  0  0  0  0  0  # atno 8009 bound_to 7997
  154.6766  140.0530  157.0209 H   0  0  0  0  0  0  0  0  0  0  0  0  # atno 8010 bound_to 7997
  140.3179  144.2741  150.6188 H   0  0  0  0  0  0  0  0  0  0  0  0  # atno 10167 bound_to 10162
  156.0076  130.4567  150.3760 H   0  0  0  0  0  0  0  0  0  0  0  0  # atno 10718 bound_to 10713
  154.6929  135.5205  153.8418 H   0  0  0  0  0  0  0  0  0  0  0  0  # atno 10763 bound_to 10752
  153.0646  135.6580  154.0394 H   0  0  0  0  0  0  0  0  0  0  0  0  # atno 10764 bound_to 10752
  154.0265  135.2989  155.3354 H   0  0  0  0  0  0  0  0  0  0  0  0  # atno 10765 bound_to 10752
  141.1362  133.8207  157.0772 H   0  0  0  0  0  0  0  0  0  0  0  0  # atno 11005 bound_to 11000
  146.3388  139.8959  142.8802 LP  0  0  0  0  0  0  0  0  0  0  0  0  # atno 17320 bound_to 7965
  145.2527  141.0049  143.3872 LP  0  0  0  0  0  0  0  0  0  0  0  0  # atno 17321 bound_to 7965
  140.5510  143.2206  151.7927 LP  0  0  0  0  0  0  0  0  0  0  0  0  # atno 17342 bound_to 10162
  139.4880  144.4476  151.9691 LP  0  0  0  0  0  0  0  0  0  0  0  0  # atno 17343 bound_to 10162
  157.1842  131.0399  151.2733 LP  0  0  0  0  0  0  0  0  0  0  0  0  # atno 17370 bound_to 10713
  157.4118  130.7389  149.6845 LP  0  0  0  0  0  0  0  0  0  0  0  0  # atno 17371 bound_to 10713
  140.0474  134.9823  157.1074 LP  0  0  0  0  0  0  0  0  0  0  0  0  # atno 17394 bound_to 11000
  140.4041  134.2051  155.7163 LP  0  0  0  0  0  0  0  0  0  0  0  0  # atno 17395 bound_to 11000

$$$$
