AV-unprocessed.smi:2653|AV-procd|sdf|10295|dock2
  -GOLD-   2272014313D 1   1.00000     0.00000
 Structure written by MMmdl.
 31 32  0  0  0  0  0  0  0  0  1 V2000
  146.3544  138.1609  152.7690 C   0  0  0  0  0  0  0  0  0  0  0  0
  146.8743  139.5422  152.3567 C   0  0  0  0  0  0  0  0  0  0  0  0
  147.9510  140.0555  153.2563 C   0  0  0  0  0  0  0  0  0  0  0  0
  149.1283  139.3676  153.4481 N   0  0  0  0  0  0  0  0  0  0  0  0
  149.9770  139.9894  154.2845 N   0  0  0  0  0  0  0  0  0  0  0  0
  149.3214  141.0924  154.6244 C   0  0  0  0  0  0  0  0  0  0  0  0
  149.7844  142.1161  155.5019 N   0  0  0  0  0  0  0  0  0  0  0  0
  150.7420  142.1068  156.4535 C   0  0  0  0  0  0  0  0  0  0  0  0
  151.3906  141.0883  156.6879 O   0  0  0  0  0  0  0  0  0  0  0  0
  150.9328  143.2607  157.1124 N   0  0  0  0  0  0  0  0  0  0  0  0
  151.8835  143.4817  158.1529 C   0  0  0  0  0  0  0  0  0  0  0  0
  151.6825  144.6905  159.0411 C   0  0  0  0  0  0  0  0  0  0  0  0
  152.7930  144.6850  158.0274 C   0  0  0  0  0  0  0  0  0  0  0  0
  148.0355  141.1952  154.0104 C   0  0  0  0  0  0  0  0  0  0  0  0
  147.0142  142.2932  154.1480 C   0  0  0  0  0  0  0  0  0  0  0  0
  149.3613  138.4838  153.0179 H   0  0  0  0  0  0  0  0  0  0  0  0
  145.5696  137.8232  152.0921 H   0  0  0  0  0  0  0  0  0  0  0  0
  145.9393  138.1800  153.7772 H   0  0  0  0  0  0  0  0  0  0  0  0
  147.1536  137.4194  152.7494 H   0  0  0  0  0  0  0  0  0  0  0  0
  147.2447  139.4970  151.3322 H   0  0  0  0  0  0  0  0  0  0  0  0
  146.0449  140.2500  152.3447 H   0  0  0  0  0  0  0  0  0  0  0  0
  149.3176  143.0038  155.3881 H   0  0  0  0  0  0  0  0  0  0  0  0
  150.3535  144.0464  156.8515 H   0  0  0  0  0  0  0  0  0  0  0  0
  152.3154  142.6039  158.6312 H   0  0  0  0  0  0  0  0  0  0  0  0
  150.8255  145.3318  158.8432 H   0  0  0  0  0  0  0  0  0  0  0  0
  151.9579  144.5925  160.0892 H   0  0  0  0  0  0  0  0  0  0  0  0
  153.8112  144.5850  158.3978 H   0  0  0  0  0  0  0  0  0  0  0  0
  152.6768  145.3222  157.1525 H   0  0  0  0  0  0  0  0  0  0  0  0
  147.3070  143.0461  154.8794 H   0  0  0  0  0  0  0  0  0  0  0  0
  146.0468  141.9035  154.4650 H   0  0  0  0  0  0  0  0  0  0  0  0
  146.8567  142.8121  153.2025 H   0  0  0  0  0  0  0  0  0  0  0  0
  1  2  1  0  0  0  0
  1 17  1  0  0  0  0
  1 18  1  0  0  0  0
  1 19  1  0  0  0  0
  2  3  1  0  0  0  0
  2 20  1  0  0  0  0
  2 21  1  0  0  0  0
  3 14  2  0  0  0  0
  3  4  1  0  0  0  0
  4 16  1  0  0  0  0
  4  5  1  0  0  0  0
  5  6  2  0  0  0  0
  6  7  1  0  0  0  0
  6 14  1  0  0  0  0
  7  8  1  0  0  0  0
  7 22  1  0  0  0  0
  8  9  2  0  0  0  0
  8 10  1  0  0  0  0
 10 11  1  0  0  0  0
 10 23  1  0  0  0  0
 11 13  1  0  0  0  0
 11 12  1  0  0  0  0
 11 24  1  0  0  0  0
 12 13  1  0  0  0  0
 12 25  1  0  0  0  0
 12 26  1  0  0  0  0
 13 27  1  0  0  0  0
 13 28  1  0  0  0  0
 14 15  1  0  0  0  0
 15 29  1  0  0  0  0
 15 30  1  0  0  0  0
 15 31  1  0  0  0  0
M  END
> <s_m_source_file>
AV-unprocessed.smi

> <i_m_source_file_index>
2653

> <i_lp_mmshare_version>
43012

> <i_f3d_flags>
0

> <s_epik_input>
W0NIM11bQ0gyXWMxW25IXW5jKGMxW0NIM10pW05IXUMoPU8pW05IXVtDSF0yW0NIMl1bQ0gyXTI=

> <s_epik_cmdline>
J2VwaWtfcHl0aG9uJywgJy1waCcsICc3LjAnLCAnLXRuJywgJzgnLCAnLW1hJywgJzIwMCcsICctbWV0YWxfYmluZGluZycsICctaW1hZScsICc8aW5maWxlLm1hZT4nLCAnLW9tYWUnLCAnPG91dGZpbGUubWFlPic=

> <r_lp_tautomer_probability>
0.5

> <r_epik_Ionization_Penalty>
4.18734e-05

> <r_epik_Ionization_Penalty_Charging>
0

> <r_epik_Ionization_Penalty_Neutral>
4.18734e-05

> <r_epik_State_Penalty>
0.41068

> <r_epik_Charging_Adjusted_Penalty>
0.41068

> <i_epik_Tot_Q>
0

> <i_epik_Tot_abs_Q>
0

> <r_epik_Metal_State_Penalty>
0.410694

> <b_epik_Metal_Only>
0

> <s_lp_Force_Field>
OPLS_2005

> <r_lp_Energy>
17.3388

> <b_lp_Chiralities_Consistent>
1

> <s_lp_Variant>
AV-unprocessed.smi:2653-1

> <Gold.Version>
5.8.1

> <Gold.Id.Protein>
6NUR|6NUR_protein|mol2

> <Gold.PLP.Fitness>
43.9741

> <Gold.PLP.PLP>
-35.7139

> <Gold.PLP.part.hbond>
-3.6769

> <Gold.PLP.part.metal>
0.0000

> <Gold.PLP.part.buried>
-0.9923

> <Gold.PLP.part.nonpolar>
-32.2550

> <Gold.PLP.part.repulsive>
0.4584

> <Gold.PLP.ligand.clash>
0.0000

> <Gold.PLP.ligand.torsion>
0.2536

> <Gold.PLP.Chemscore.Hbond>
2.9100

> <Gold.PLP.Chemscore.CHOScore>
0.0000

> <Gold.PLP.Chemscore.Metal>
0.0000

> <Gold.Chemscore.Hbonds>
donor molecule, donor type, donor heavy atom, donor atom, acceptor molecule, acceptor atom, score
      L1  H     7    22       P1  8028  1.00
      L1  H    10    23       P1  8028  0.96
      P1  H  7989  7998       L1     5  0.90

> <Gold.PLP.Chemscore.Internal.Correction>
0.0374

> <Gold.Rescore>
     Score         DG    S(hbond)    S(metal)    S(lipo)     H(rot)  DE(clash)    DE(int)     intcor
     16.88     -19.87       2.52        0.00      77.56       1.21       1.66       1.33       ----

> <Gold.Chemscore.Fitness>
16.8769

> <Gold.Chemscore.DG>
-19.8691

> <Gold.Chemscore.ZeroCoef>
-5.4800

> <Gold.Chemscore.Hbond>
2.5207

> <Gold.Chemscore.Metal>
0.0000

> <Gold.Chemscore.Lipo>
77.5621

> <Gold.Chemscore.Internal_Hbond>
0.0000

> <Gold.Chemscore.DEClash>
1.6593

> <Gold.Chemscore.DEInternal>
1.3329

> <Gold.Chemscore.Rot>
1.2129

> <Gold.Chemscore.Internal.Correction>
   9.000000E+99

> <Gold.Chemscore.Hbonds>
donor molecule, donor type, donor heavy atom, donor atom, acceptor molecule, acceptor atom, score
      L1  H     4    16       P1  7948  0.01
      L1  H     7    22       P1  8028  1.00
      L1  H    10    23       P1  8028  0.89
      P1  H  7989  7998       L1     5  0.15

> <Gold.Chemscore.Hbond.Weighted>
-8.4193

> <Gold.Chemscore.Metal.Weighted>
-0.0000

> <Gold.Chemscore.Lipo.Weighted>
-9.0748

> <Gold.Chemscore.Internal_Hbond.Weighted>
0.0000

> <Gold.Chemscore.DEClash.Weighted>
1.6593

> <Gold.Chemscore.DEInternal.Weighted>
1.3329

> <Gold.Chemscore.Rot.Weighted>
3.1049

> <Gold.Chemscore.Internal.Correction.Weighted>
   9.000000E+99

> <Gold.Protein.RotatedTorsions>
[ 6907 6896 6895 6894 ] final  113.44 input  -60.11 | X-H torsion
[ 7974 7965 7964 7962 ] final  161.98 input  175.53 | X-H torsion
[ 8008 7997 7996 7995 ] final -150.22 input   59.86 | X-H torsion
[ 10167 10162 10161 10158 ] final   54.30 input  -65.29 | X-H torsion
[ 10718 10713 10712 10709 ] final   14.05 input   66.30 | X-H torsion
[ 10763 10752 10751 10750 ] final   53.88 input  -60.55 | X-H torsion
[ 11005 11000 10999 10996 ] final   72.68 input  -57.11 | X-H torsion

> <Gold.Protein.ActiveResidues>
 VAL166  LYS551  ARG553  GLY616  TRP617  ASP618  TYR619  PRO620  LYS621  CYS622 
 ASP623  PHE694  ASN695  SER759  ASP760  ASP761  ALA762  ILE779  LEU786  VAL792 
 PHE793  MET794  SER795  GLU796  ALA797  LYS798  CYS799  TRP800  GLU811  SER814 

> <Gold.Protein.RotatedAtoms>
  152.4860  133.8375  159.7135 H   0  0  0  0  0  0  0  0  0  0  0  0  # atno 6907 bound_to 6896
  150.8948  133.7186  159.2901 H   0  0  0  0  0  0  0  0  0  0  0  0  # atno 6908 bound_to 6896
  151.4647  135.1045  159.9787 H   0  0  0  0  0  0  0  0  0  0  0  0  # atno 6909 bound_to 6896
  144.7659  139.7975  143.6315 H   0  0  0  0  0  0  0  0  0  0  0  0  # atno 7974 bound_to 7965
  155.6201  140.0680  157.2680 H   0  0  0  0  0  0  0  0  0  0  0  0  # atno 8008 bound_to 7997
  154.4231  140.1786  156.1411 H   0  0  0  0  0  0  0  0  0  0  0  0  # atno 8009 bound_to 7997
  156.0016  140.3335  155.6855 H   0  0  0  0  0  0  0  0  0  0  0  0  # atno 8010 bound_to 7997
  140.2316  144.3681  150.6412 H   0  0  0  0  0  0  0  0  0  0  0  0  # atno 10167 bound_to 10162
  157.0336  130.6202  149.5739 H   0  0  0  0  0  0  0  0  0  0  0  0  # atno 10718 bound_to 10713
  152.9799  135.5764  154.4814 H   0  0  0  0  0  0  0  0  0  0  0  0  # atno 10763 bound_to 10752
  154.4362  135.2774  155.1881 H   0  0  0  0  0  0  0  0  0  0  0  0  # atno 10764 bound_to 10752
  154.3568  135.6197  153.5724 H   0  0  0  0  0  0  0  0  0  0  0  0  # atno 10765 bound_to 10752
  139.9478  134.7280  156.0935 H   0  0  0  0  0  0  0  0  0  0  0  0  # atno 11005 bound_to 11000
  146.1765  139.4938  142.9894 LP  0  0  0  0  0  0  0  0  0  0  0  0  # atno 17320 bound_to 7965
  145.6472  141.0271  143.1779 LP  0  0  0  0  0  0  0  0  0  0  0  0  # atno 17321 bound_to 7965
  140.6181  143.2174  151.6750 LP  0  0  0  0  0  0  0  0  0  0  0  0  # atno 17342 bound_to 10162
  139.5108  144.3530  152.0634 LP  0  0  0  0  0  0  0  0  0  0  0  0  # atno 17343 bound_to 10162
  156.0061  130.5148  150.7835 LP  0  0  0  0  0  0  0  0  0  0  0  0  # atno 17370 bound_to 10713
  157.5159  131.0928  151.0140 LP  0  0  0  0  0  0  0  0  0  0  0  0  # atno 17371 bound_to 10713
  141.1134  133.6636  156.3034 LP  0  0  0  0  0  0  0  0  0  0  0  0  # atno 17394 bound_to 11000
  140.5791  134.5764  157.5475 LP  0  0  0  0  0  0  0  0  0  0  0  0  # atno 17395 bound_to 11000

$$$$
