AV-unprocessed.smi:3349|AV-procd|sdf|12934|dock9
  -GOLD-   2272019363D 1   1.00000     0.00000
 Structure written by MMmdl.
 40 41  0  0  0  0  0  0  0  0  1 V2000
  152.0833  144.2362  157.2696 C   0  0  0  0  0  0  0  0  0  0  0  0
  151.1044  143.1874  157.8579 C   0  0  1  0  0  0  0  0  0  0  0  0
  150.9368  142.0259  156.8391 C   0  0  0  0  0  0  0  0  0  0  0  0
  149.7193  142.1463  156.0453 N   0  0  0  0  0  0  0  0  0  0  0  0
  149.2437  141.1934  155.2304 C   0  0  0  0  0  0  0  0  0  0  0  0
  149.7884  140.0979  155.0881 O   0  0  0  0  0  0  0  0  0  0  0  0
  147.9563  141.5351  154.4644 C   0  0  1  0  0  0  0  0  0  0  0  0
  147.4219  140.3477  153.6427 C   0  0  0  0  0  0  0  0  0  0  0  0
  146.9384  142.0359  155.3773 N   0  0  0  0  0  0  0  0  0  0  0  0
  145.6192  142.1843  155.2243 C   0  0  0  0  0  0  0  0  0  0  0  0
  145.0095  142.6939  156.2853 N   0  0  0  0  0  0  0  0  0  0  0  0
  146.0856  142.8529  157.1118 C   0  0  0  0  0  0  0  0  0  0  0  0
  147.2647  142.4779  156.6155 N   0  0  0  0  0  0  0  0  0  0  0  0
  151.5061  142.7249  159.2072 N   0  0  0  0  0  0  0  0  0  0  0  0
  151.8137  143.8314  160.1212 C   0  0  0  0  0  0  0  0  0  0  0  0
  152.2554  143.3508  161.5146 C   0  0  0  0  0  0  0  0  0  0  0  0
  153.3791  142.4899  161.3918 O   0  0  0  0  0  0  0  0  0  0  0  0
  153.0985  141.3607  160.5765 C   0  0  0  0  0  0  0  0  0  0  0  0
  152.6679  141.8287  159.1756 C   0  0  0  0  0  0  0  0  0  0  0  0
  151.8135  144.5415  156.2592 H   0  0  0  0  0  0  0  0  0  0  0  0
  153.1011  143.8465  157.2323 H   0  0  0  0  0  0  0  0  0  0  0  0
  152.0965  145.1596  157.8466 H   0  0  0  0  0  0  0  0  0  0  0  0
  150.1322  143.6752  157.9460 H   0  0  0  0  0  0  0  0  0  0  0  0
  151.8036  141.9850  156.1771 H   0  0  0  0  0  0  0  0  0  0  0  0
  150.8691  141.0620  157.3416 H   0  0  0  0  0  0  0  0  0  0  0  0
  149.2110  143.0164  156.1123 H   0  0  0  0  0  0  0  0  0  0  0  0
  148.2009  142.3333  153.7605 H   0  0  0  0  0  0  0  0  0  0  0  0
  148.1815  139.9647  152.9604 H   0  0  0  0  0  0  0  0  0  0  0  0
  146.5641  140.6482  153.0406 H   0  0  0  0  0  0  0  0  0  0  0  0
  147.1022  139.5239  154.2820 H   0  0  0  0  0  0  0  0  0  0  0  0
  145.0954  141.9147  154.3184 H   0  0  0  0  0  0  0  0  0  0  0  0
  145.9981  143.2593  158.1087 H   0  0  0  0  0  0  0  0  0  0  0  0
  152.5938  144.4611  159.6909 H   0  0  0  0  0  0  0  0  0  0  0  0
  150.9407  144.4637  160.2696 H   0  0  0  0  0  0  0  0  0  0  0  0
  152.5267  144.2016  162.1399 H   0  0  0  0  0  0  0  0  0  0  0  0
  151.4406  142.8295  162.0196 H   0  0  0  0  0  0  0  0  0  0  0  0
  153.9917  140.7392  160.5099 H   0  0  0  0  0  0  0  0  0  0  0  0
  152.3186  140.7526  161.0378 H   0  0  0  0  0  0  0  0  0  0  0  0
  152.4483  140.9339  158.5961 H   0  0  0  0  0  0  0  0  0  0  0  0
  153.5064  142.3267  158.6865 H   0  0  0  0  0  0  0  0  0  0  0  0
  1  2  1  0  0  0  0
  1 20  1  0  0  0  0
  1 21  1  0  0  0  0
  1 22  1  0  0  0  0
  2  3  1  0  0  0  0
  2 14  1  0  0  0  0
  2 23  1  0  0  0  0
  3  4  1  0  0  0  0
  3 24  1  0  0  0  0
  3 25  1  0  0  0  0
  4  5  1  0  0  0  0
  4 26  1  0  0  0  0
  5  6  2  0  0  0  0
  5  7  1  0  0  0  0
  7  8  1  0  0  0  0
  7  9  1  0  0  0  0
  7 27  1  0  0  0  0
  8 28  1  0  0  0  0
  8 29  1  0  0  0  0
  8 30  1  0  0  0  0
  9 13  1  0  0  0  0
  9 10  1  0  0  0  0
 10 11  2  0  0  0  0
 10 31  1  0  0  0  0
 11 12  1  0  0  0  0
 12 13  2  0  0  0  0
 12 32  1  0  0  0  0
 14 19  1  0  0  0  0
 14 15  1  0  0  0  0
 15 16  1  0  0  0  0
 15 33  1  0  0  0  0
 15 34  1  0  0  0  0
 16 17  1  0  0  0  0
 16 35  1  0  0  0  0
 16 36  1  0  0  0  0
 17 18  1  0  0  0  0
 18 19  1  0  0  0  0
 18 37  1  0  0  0  0
 18 38  1  0  0  0  0
 19 39  1  0  0  0  0
 19 40  1  0  0  0  0
M  END
> <s_m_source_file>
AV-unprocessed.smi

> <i_m_source_file_index>
3349

> <i_lp_mmshare_version>
43012

> <i_f3d_flags>
0

> <s_epik_input>
W0NIMl0xW0NIMl1PW0NIMl1bQ0gyXU4xW0NASF0oW0NIM10pW0NIMl1bTkhdQyg9TylbQ0BIXShbQ0gzXSluMltjSF1uW2NIXW4y

> <s_epik_cmdline>
J2VwaWtfcHl0aG9uJywgJy1waCcsICc3LjAnLCAnLXRuJywgJzgnLCAnLW1hJywgJzIwMCcsICctbWV0YWxfYmluZGluZycsICctaW1hZScsICc8aW5maWxlLm1hZT4nLCAnLW9tYWUnLCAnPG91dGZpbGUubWFlPic=

> <r_lp_tautomer_probability>
1

> <r_epik_Ionization_Penalty>
0.211373

> <r_epik_Ionization_Penalty_Charging>
0

> <r_epik_Ionization_Penalty_Neutral>
0.211373

> <r_epik_State_Penalty>
0.201459

> <r_epik_Charging_Adjusted_Penalty>
0.201459

> <i_epik_Tot_Q>
0

> <i_epik_Tot_abs_Q>
0

> <r_epik_Metal_State_Penalty>
0.201458

> <b_epik_Metal_Only>
0

> <s_lp_Force_Field>
OPLS_2005

> <r_lp_Energy>
35.0343

> <b_lp_Chiralities_Consistent>
1

> <s_lp_Variant>
AV-unprocessed.smi:3349-4

> <Gold.Version>
5.8.1

> <Gold.Id.Protein>
6NUR|6NUR_protein|mol2

> <Gold.PLP.Fitness>
44.5987

> <Gold.PLP.PLP>
-38.5689

> <Gold.PLP.part.hbond>
-2.0000

> <Gold.PLP.part.metal>
0.0000

> <Gold.PLP.part.buried>
-3.8554

> <Gold.PLP.part.nonpolar>
-33.4229

> <Gold.PLP.part.repulsive>
1.3863

> <Gold.PLP.ligand.clash>
0.0000

> <Gold.PLP.ligand.torsion>
1.3820

> <Gold.PLP.Chemscore.Hbond>
1.9200

> <Gold.PLP.Chemscore.CHOScore>
0.9794

> <Gold.PLP.Chemscore.Metal>
0.0000

> <Gold.Chemscore.Hbonds>
donor molecule, donor type, donor heavy atom, donor atom, acceptor molecule, acceptor atom, score
      L1  H     4    26       P1  8028  1.00
      L1  C    10    31       P1 10175  0.49

> <Gold.PLP.Chemscore.Internal.Correction>
0.0956

> <Gold.Rescore>
     Score         DG    S(hbond)    S(metal)    S(lipo)     H(rot)  DE(clash)    DE(int)     intcor
     10.28     -12.74       1.00        0.00      89.53       2.56       0.15       2.31       ----

> <Gold.Chemscore.Fitness>
10.2841

> <Gold.Chemscore.DG>
-12.7421

> <Gold.Chemscore.ZeroCoef>
-5.4800

> <Gold.Chemscore.Hbond>
0.9978

> <Gold.Chemscore.Metal>
0.0000

> <Gold.Chemscore.Lipo>
89.5325

> <Gold.Chemscore.Internal_Hbond>
0.0000

> <Gold.Chemscore.DEClash>
0.1457

> <Gold.Chemscore.DEInternal>
2.3123

> <Gold.Chemscore.Rot>
2.5570

> <Gold.Chemscore.Internal.Correction>
   9.000000E+99

> <Gold.Chemscore.Hbonds>
donor molecule, donor type, donor heavy atom, donor atom, acceptor molecule, acceptor atom, score
      L1  H     4    26       P1  8028  0.98

> <Gold.Chemscore.Hbond.Weighted>
-3.3327

> <Gold.Chemscore.Metal.Weighted>
-0.0000

> <Gold.Chemscore.Lipo.Weighted>
-10.4753

> <Gold.Chemscore.Internal_Hbond.Weighted>
0.0000

> <Gold.Chemscore.DEClash.Weighted>
0.1457

> <Gold.Chemscore.DEInternal.Weighted>
2.3123

> <Gold.Chemscore.Rot.Weighted>
6.5459

> <Gold.Chemscore.Internal.Correction.Weighted>
   9.000000E+99

> <Gold.Protein.RotatedTorsions>
[ 6907 6896 6895 6894 ] final  177.74 input  -60.11 | X-H torsion
[ 7974 7965 7964 7962 ] final  -41.19 input  175.53 | X-H torsion
[ 8008 7997 7996 7995 ] final   52.54 input   59.86 | X-H torsion
[ 10167 10162 10161 10158 ] final  145.11 input  -65.29 | X-H torsion
[ 10718 10713 10712 10709 ] final   86.99 input   66.30 | X-H torsion
[ 10763 10752 10751 10750 ] final -124.93 input  -60.55 | X-H torsion
[ 11005 11000 10999 10996 ] final  165.73 input  -57.11 | X-H torsion

> <Gold.Protein.ActiveResidues>
 VAL166  LYS551  ARG553  GLY616  TRP617  ASP618  TYR619  PRO620  LYS621  CYS622 
 ASP623  PHE694  ASN695  SER759  ASP760  ASP761  ALA762  ILE779  LEU786  VAL792 
 PHE793  MET794  SER795  GLU796  ALA797  LYS798  CYS799  TRP800  GLU811  SER814 

> <Gold.Protein.RotatedAtoms>
  151.6991  133.3311  159.3261 H   0  0  0  0  0  0  0  0  0  0  0  0  # atno 6907 bound_to 6896
  150.7744  134.6631  159.6360 H   0  0  0  0  0  0  0  0  0  0  0  0  # atno 6908 bound_to 6896
  152.3781  134.6636  160.0205 H   0  0  0  0  0  0  0  0  0  0  0  0  # atno 6909 bound_to 6896
  146.0234  140.6822  142.9167 H   0  0  0  0  0  0  0  0  0  0  0  0  # atno 7974 bound_to 7965
  155.4535  140.3459  155.4303 H   0  0  0  0  0  0  0  0  0  0  0  0  # atno 8008 bound_to 7997
  156.1206  140.1486  156.9240 H   0  0  0  0  0  0  0  0  0  0  0  0  # atno 8009 bound_to 7997
  154.4820  140.0867  156.7379 H   0  0  0  0  0  0  0  0  0  0  0  0  # atno 8010 bound_to 7997
  139.4933  144.5925  151.6651 H   0  0  0  0  0  0  0  0  0  0  0  0  # atno 10167 bound_to 10162
  157.6935  131.0237  150.3055 H   0  0  0  0  0  0  0  0  0  0  0  0  # atno 10718 bound_to 10713
  154.8729  135.4047  154.3185 H   0  0  0  0  0  0  0  0  0  0  0  0  # atno 10763 bound_to 10752
  153.4017  135.7018  153.6427 H   0  0  0  0  0  0  0  0  0  0  0  0  # atno 10764 bound_to 10752
  153.5166  135.3696  155.2583 H   0  0  0  0  0  0  0  0  0  0  0  0  # atno 10765 bound_to 10752
  140.2592  134.7916  157.3574 H   0  0  0  0  0  0  0  0  0  0  0  0  # atno 11005 bound_to 11000
  144.6999  140.3606  143.7164 LP  0  0  0  0  0  0  0  0  0  0  0  0  # atno 17320 bound_to 7965
  145.7157  139.1696  143.2513 LP  0  0  0  0  0  0  0  0  0  0  0  0  # atno 17321 bound_to 7965
  140.5555  144.0355  150.6146 LP  0  0  0  0  0  0  0  0  0  0  0  0  # atno 17342 bound_to 10162
  140.3423  143.3012  152.0575 LP  0  0  0  0  0  0  0  0  0  0  0  0  # atno 17343 bound_to 10162
  156.3564  130.3839  149.7286 LP  0  0  0  0  0  0  0  0  0  0  0  0  # atno 17370 bound_to 10713
  156.4747  130.8013  151.3030 LP  0  0  0  0  0  0  0  0  0  0  0  0  # atno 17371 bound_to 10713
  140.1482  134.4884  155.7981 LP  0  0  0  0  0  0  0  0  0  0  0  0  # atno 17394 bound_to 11000
  141.2192  133.6852  156.7331 LP  0  0  0  0  0  0  0  0  0  0  0  0  # atno 17395 bound_to 11000

$$$$
