AV-unprocessed.smi:2568|AV-procd|sdf|10098|dock4
  -GOLD-   2272014113D 1   1.00000     0.00000
 Structure written by MMmdl.
 24 25  0  0  0  0  0  0  0  0  3 V2000
  153.0085  137.7553  158.4804 C   0  0  0  0  0  0  0  0  0  0  0  0
  153.1169  139.2260  158.8109 C   0  0  0  0  0  0  0  0  0  0  0  0
  154.2435  139.8795  159.1451 N   0  5  0  0  0  0  0  0  0  0  0  0
  153.9737  141.1498  159.3661 N   0  0  0  0  0  0  0  0  0  0  0  0
  152.6554  141.2764  159.1517 C   0  0  0  0  0  0  0  0  0  0  0  0
  151.8808  142.5664  159.3228 C   0  0  2  0  0  0  0  0  0  0  0  0
  151.1527  142.9530  158.0205 C   0  0  0  0  0  0  0  0  0  0  0  0
  150.4149  144.2177  158.2044 N   0  3  0  0  0  0  0  0  0  0  0  0
  151.2983  145.2956  158.6891 C   0  0  0  0  0  0  0  0  0  0  0  0
  152.0268  144.8454  159.9665 C   0  0  0  0  0  0  0  0  0  0  0  0
  152.7373  143.6393  159.7108 O   0  0  0  0  0  0  0  0  0  0  0  0
  152.1121  140.0958  158.8216 N   0  0  0  0  0  0  0  0  0  0  0  0
  153.9807  137.2690  158.5623 H   0  0  0  0  0  0  0  0  0  0  0  0
  152.6413  137.6235  157.4626 H   0  0  0  0  0  0  0  0  0  0  0  0
  152.3177  137.2637  159.1655 H   0  0  0  0  0  0  0  0  0  0  0  0
  151.1491  142.4011  160.1159 H   0  0  0  0  0  0  0  0  0  0  0  0
  151.8684  143.0708  157.2053 H   0  0  0  0  0  0  0  0  0  0  0  0
  150.4533  142.1711  157.7230 H   0  0  0  0  0  0  0  0  0  0  0  0
  149.9971  144.4924  157.3268 H   0  0  0  0  0  0  0  0  0  0  0  0
  152.0211  145.5437  157.9107 H   0  0  0  0  0  0  0  0  0  0  0  0
  150.7072  146.1917  158.8784 H   0  0  0  0  0  0  0  0  0  0  0  0
  152.7339  145.6113  160.2854 H   0  0  0  0  0  0  0  0  0  0  0  0
  151.3230  144.7000  160.7876 H   0  0  0  0  0  0  0  0  0  0  0  0
  149.6845  144.0666  158.8854 H   0  0  0  0  0  0  0  0  0  0  0  0
  1 13  1  0  0  0  0
  1 14  1  0  0  0  0
  1 15  1  0  0  0  0
  1  2  1  0  0  0  0
  2 12  2  0  0  0  0
  2  3  1  0  0  0  0
  3  4  1  0  0  0  0
  4  5  2  0  0  0  0
  5 12  1  0  0  0  0
  5  6  1  0  0  0  0
  6 11  1  0  0  0  0
  6  7  1  0  0  0  0
  6 16  1  0  0  0  0
  7  8  1  0  0  0  0
  7 17  1  0  0  0  0
  7 18  1  0  0  0  0
  8  9  1  0  0  0  0
  8 19  1  0  0  0  0
  8 24  1  0  0  0  0
  9 10  1  0  0  0  0
  9 20  1  0  0  0  0
  9 21  1  0  0  0  0
 10 11  1  0  0  0  0
 10 22  1  0  0  0  0
 10 23  1  0  0  0  0
M  CHG  1   3  -1
M  CHG  1   8   1
M  END
> <s_m_source_file>
AV-unprocessed.smi

> <i_m_source_file_index>
2568

> <i_lp_mmshare_version>
43012

> <i_f3d_flags>
0

> <s_epik_input>
W0NIM11jMW5bbkhdYyhuMSlbQ0BASF0yW0NIMl1bTkhdW0NIMl1bQ0gyXU8y

> <s_epik_cmdline>
J2VwaWtfcHl0aG9uJywgJy1waCcsICc3LjAnLCAnLXRuJywgJzgnLCAnLW1hJywgJzIwMCcsICctbWV0YWxfYmluZGluZycsICctaW1hZScsICc8aW5maWxlLm1hZT4nLCAnLW9tYWUnLCAnPG91dGZpbGUubWFlPic=

> <r_lp_tautomer_probability>
0.948284

> <r_epik_Ionization_Penalty>
5.18319

> <r_epik_Ionization_Penalty_Charging>
5.18319

> <r_epik_Ionization_Penalty_Neutral>
2.73247e-13

> <r_epik_State_Penalty>
2.89074

> <r_epik_Charging_Adjusted_Penalty>
8.07392

> <i_epik_Tot_Q>
0

> <i_epik_Tot_abs_Q>
2

> <r_epik_Metal_State_Penalty>
0.548499

> <b_epik_Metal_Only>
1

> <s_lp_Force_Field>
OPLS_2005

> <r_lp_Energy>
8.28058

> <b_lp_Chiralities_Consistent>
1

> <s_lp_Variant>
AV-unprocessed.smi:2568-11

> <Gold.Version>
5.8.1

> <Gold.Id.Protein>
6NUR|6NUR_protein|mol2

> <Gold.PLP.Fitness>
32.8180

> <Gold.PLP.PLP>
-20.8205

> <Gold.PLP.part.hbond>
-2.8164

> <Gold.PLP.part.metal>
0.0000

> <Gold.PLP.part.buried>
-2.7426

> <Gold.PLP.part.nonpolar>
-14.5429

> <Gold.PLP.part.repulsive>
0.0766

> <Gold.PLP.ligand.clash>
0.0000

> <Gold.PLP.ligand.torsion>
0.0071

> <Gold.PLP.Chemscore.Hbond>
4.0000

> <Gold.PLP.Chemscore.CHOScore>
0.0000

> <Gold.PLP.Chemscore.Metal>
0.0000

> <Gold.Chemscore.Hbonds>
donor molecule, donor type, donor heavy atom, donor atom, acceptor molecule, acceptor atom, score
      L1  H     8    19       P1  8028  2.00
      P1  H  7997  8010       L1     3  2.00

> <Gold.PLP.Chemscore.Internal.Correction>
0.0117

> <Gold.Rescore>
     Score         DG    S(hbond)    S(metal)    S(lipo)     H(rot)  DE(clash)    DE(int)     intcor
     11.78     -11.81       0.93        0.00      49.35       1.00       0.03       0.01       ----

> <Gold.Chemscore.Fitness>
11.7751

> <Gold.Chemscore.DG>
-11.8138

> <Gold.Chemscore.ZeroCoef>
-5.4800

> <Gold.Chemscore.Hbond>
0.9342

> <Gold.Chemscore.Metal>
0.0000

> <Gold.Chemscore.Lipo>
49.3465

> <Gold.Chemscore.Internal_Hbond>
0.0000

> <Gold.Chemscore.DEClash>
0.0275

> <Gold.Chemscore.DEInternal>
0.0112

> <Gold.Chemscore.Rot>
1.0000

> <Gold.Chemscore.Internal.Correction>
   9.000000E+99

> <Gold.Chemscore.Hbonds>
donor molecule, donor type, donor heavy atom, donor atom, acceptor molecule, acceptor atom, score
      L1  H     8    19       P1  8028  0.34
      P1  H  7997  8010       L1     3  0.06

> <Gold.Chemscore.Hbond.Weighted>
-3.1202

> <Gold.Chemscore.Metal.Weighted>
-0.0000

> <Gold.Chemscore.Lipo.Weighted>
-5.7735

> <Gold.Chemscore.Internal_Hbond.Weighted>
0.0000

> <Gold.Chemscore.DEClash.Weighted>
0.0275

> <Gold.Chemscore.DEInternal.Weighted>
0.0112

> <Gold.Chemscore.Rot.Weighted>
2.5600

> <Gold.Chemscore.Internal.Correction.Weighted>
   9.000000E+99

> <Gold.Protein.RotatedTorsions>
[ 6907 6896 6895 6894 ] final -143.69 input  -60.11 | X-H torsion
[ 7974 7965 7964 7962 ] final   97.89 input  175.53 | X-H torsion
[ 8008 7997 7996 7995 ] final   -0.25 input   59.86 | X-H torsion
[ 10167 10162 10161 10158 ] final  102.99 input  -65.29 | X-H torsion
[ 10718 10713 10712 10709 ] final  176.98 input   66.30 | X-H torsion
[ 10763 10752 10751 10750 ] final -103.63 input  -60.55 | X-H torsion
[ 11005 11000 10999 10996 ] final  -58.85 input  -57.11 | X-H torsion

> <Gold.Protein.ActiveResidues>
 VAL166  LYS551  ARG553  GLY616  TRP617  ASP618  TYR619  PRO620  LYS621  CYS622 
 ASP623  PHE694  ASN695  SER759  ASP760  ASP761  ALA762  ILE779  LEU786  VAL792 
 PHE793  MET794  SER795  GLU796  ALA797  LYS798  CYS799  TRP800  GLU811  SER814 

> <Gold.Protein.RotatedAtoms>
  151.1038  133.5223  159.2608 H   0  0  0  0  0  0  0  0  0  0  0  0  # atno 6907 bound_to 6896
  151.2044  135.0455  159.8895 H   0  0  0  0  0  0  0  0  0  0  0  0  # atno 6908 bound_to 6896
  152.5445  134.0862  159.8310 H   0  0  0  0  0  0  0  0  0  0  0  0  # atno 6909 bound_to 6896
  145.4195  139.2323  143.3204 H   0  0  0  0  0  0  0  0  0  0  0  0  # atno 7974 bound_to 7965
  154.6602  140.2589  155.7117 H   0  0  0  0  0  0  0  0  0  0  0  0  # atno 8008 bound_to 7997
  156.2615  140.2850  156.0993 H   0  0  0  0  0  0  0  0  0  0  0  0  # atno 8009 bound_to 7997
  155.1320  140.0379  157.2767 H   0  0  0  0  0  0  0  0  0  0  0  0  # atno 8010 bound_to 7997
  139.7302  144.7038  151.0734 H   0  0  0  0  0  0  0  0  0  0  0  0  # atno 10167 bound_to 10162
  156.9122  130.9913  151.3019 H   0  0  0  0  0  0  0  0  0  0  0  0  # atno 10718 bound_to 10713
  154.7821  135.4816  153.9867 H   0  0  0  0  0  0  0  0  0  0  0  0  # atno 10763 bound_to 10752
  153.1508  135.6791  153.8892 H   0  0  0  0  0  0  0  0  0  0  0  0  # atno 10764 bound_to 10752
  153.8537  135.3164  155.3412 H   0  0  0  0  0  0  0  0  0  0  0  0  # atno 10765 bound_to 10752
  141.1224  133.6614  156.4982 H   0  0  0  0  0  0  0  0  0  0  0  0  # atno 11005 bound_to 11000
  146.2664  140.4918  142.8832 LP  0  0  0  0  0  0  0  0  0  0  0  0  # atno 17320 bound_to 7965
  144.8255  140.6621  143.6325 LP  0  0  0  0  0  0  0  0  0  0  0  0  # atno 17321 bound_to 7965
  140.7770  143.5053  150.9720 LP  0  0  0  0  0  0  0  0  0  0  0  0  # atno 17342 bound_to 10162
  139.8741  143.7155  152.3163 LP  0  0  0  0  0  0  0  0  0  0  0  0  # atno 17343 bound_to 10162
  157.5960  130.8478  149.8730 LP  0  0  0  0  0  0  0  0  0  0  0  0  # atno 17370 bound_to 10713
  156.0531  130.3714  150.1155 LP  0  0  0  0  0  0  0  0  0  0  0  0  # atno 17371 bound_to 10713
  140.4467  134.6966  157.5019 LP  0  0  0  0  0  0  0  0  0  0  0  0  # atno 17394 bound_to 11000
  140.0193  134.6572  155.9264 LP  0  0  0  0  0  0  0  0  0  0  0  0  # atno 17395 bound_to 11000

$$$$
