AV-unprocessed.smi:2823|AV-procd|sdf|10884|dock9
  -GOLD-   2272015323D 1   1.00000     0.00000
 Structure written by MMmdl.
 42 43  0  0  0  0  0  0  0  0  1 V2000
  152.6839  143.1015  161.1978 C   0  0  0  0  0  0  0  0  0  0  0  0
  152.1803  142.5310  159.9165 C   0  0  0  0  0  0  0  0  0  0  0  0
  152.5211  141.3059  159.5324 N   0  0  0  0  0  0  0  0  0  0  0  0
  151.8548  141.1520  158.3076 O   0  0  0  0  0  0  0  0  0  0  0  0
  151.1904  142.3169  158.1081 C   0  0  0  0  0  0  0  0  0  0  0  0
  150.3865  142.5682  156.9704 N   0  0  0  0  0  0  0  0  0  0  0  0
  150.1661  141.7363  155.9401 C   0  0  0  0  0  0  0  0  0  0  0  0
  150.6435  140.6068  155.8299 O   0  0  0  0  0  0  0  0  0  0  0  0
  149.3455  142.2888  155.0351 N   0  0  0  0  0  0  0  0  0  0  0  0
  148.8700  141.6477  153.8080 C   0  0  0  0  0  0  0  0  0  0  0  0
  147.7273  140.6147  154.0540 C   0  0  0  0  0  0  0  0  0  0  0  0
  146.6961  141.1341  155.1142 C   0  0  0  0  0  0  0  0  0  0  0  0
  146.5542  140.4758  156.1477 O   0  0  0  0  0  0  0  0  0  0  0  0
  145.9690  142.2712  154.9377 N   0  0  0  0  0  0  0  0  0  0  0  0
  146.1885  143.0877  153.7389 C   0  0  0  0  0  0  0  0  0  0  0  0
  144.9283  142.8247  155.8087 C   0  0  0  0  0  0  0  0  0  0  0  0
  147.0453  140.1159  152.7538 C   0  0  0  0  0  0  0  0  0  0  0  0
  146.4943  138.7146  153.0491 C   0  0  0  0  0  0  0  0  0  0  0  0
  147.3425  138.1665  154.1988 C   0  0  0  0  0  0  0  0  0  0  0  0
  148.3592  139.2696  154.5106 C   0  0  0  0  0  0  0  0  0  0  0  0
  151.3555  143.2143  159.0747 N   0  0  0  0  0  0  0  0  0  0  0  0
  153.7723  143.1637  161.1812 H   0  0  0  0  0  0  0  0  0  0  0  0
  152.3839  142.4713  162.0355 H   0  0  0  0  0  0  0  0  0  0  0  0
  152.2838  144.1030  161.3591 H   0  0  0  0  0  0  0  0  0  0  0  0
  149.9299  143.4676  156.9432 H   0  0  0  0  0  0  0  0  0  0  0  0
  149.0063  143.2226  155.2144 H   0  0  0  0  0  0  0  0  0  0  0  0
  148.5640  142.4462  153.1387 H   0  0  0  0  0  0  0  0  0  0  0  0
  149.7021  141.1684  153.2896 H   0  0  0  0  0  0  0  0  0  0  0  0
  147.2419  143.3531  153.6348 H   0  0  0  0  0  0  0  0  0  0  0  0
  145.6260  144.0222  153.7628 H   0  0  0  0  0  0  0  0  0  0  0  0
  145.8826  142.5434  152.8445 H   0  0  0  0  0  0  0  0  0  0  0  0
  144.5824  142.1693  156.5995 H   0  0  0  0  0  0  0  0  0  0  0  0
  144.0466  143.0844  155.2218 H   0  0  0  0  0  0  0  0  0  0  0  0
  145.2924  143.7381  156.2801 H   0  0  0  0  0  0  0  0  0  0  0  0
  146.2556  140.7502  152.3612 H   0  0  0  0  0  0  0  0  0  0  0  0
  147.7928  140.0407  151.9628 H   0  0  0  0  0  0  0  0  0  0  0  0
  145.4500  138.7766  153.3578 H   0  0  0  0  0  0  0  0  0  0  0  0
  146.5374  138.0756  152.1666 H   0  0  0  0  0  0  0  0  0  0  0  0
  146.7126  137.9723  155.0678 H   0  0  0  0  0  0  0  0  0  0  0  0
  147.8369  137.2307  153.9361 H   0  0  0  0  0  0  0  0  0  0  0  0
  149.2600  139.0726  153.9272 H   0  0  0  0  0  0  0  0  0  0  0  0
  148.6763  139.2510  155.5541 H   0  0  0  0  0  0  0  0  0  0  0  0
  1  2  1  0  0  0  0
  1 22  1  0  0  0  0
  1 23  1  0  0  0  0
  1 24  1  0  0  0  0
  2 21  1  0  0  0  0
  2  3  2  0  0  0  0
  3  4  1  0  0  0  0
  4  5  1  0  0  0  0
  5  6  1  0  0  0  0
  5 21  2  0  0  0  0
  6  7  1  0  0  0  0
  6 25  1  0  0  0  0
  7  8  2  0  0  0  0
  7  9  1  0  0  0  0
  9 10  1  0  0  0  0
  9 26  1  0  0  0  0
 10 11  1  0  0  0  0
 10 27  1  0  0  0  0
 10 28  1  0  0  0  0
 11 20  1  0  0  0  0
 11 12  1  0  0  0  0
 11 17  1  0  0  0  0
 12 13  2  0  0  0  0
 12 14  1  0  0  0  0
 14 15  1  0  0  0  0
 14 16  1  0  0  0  0
 15 29  1  0  0  0  0
 15 30  1  0  0  0  0
 15 31  1  0  0  0  0
 16 32  1  0  0  0  0
 16 33  1  0  0  0  0
 16 34  1  0  0  0  0
 17 18  1  0  0  0  0
 17 35  1  0  0  0  0
 17 36  1  0  0  0  0
 18 19  1  0  0  0  0
 18 37  1  0  0  0  0
 18 38  1  0  0  0  0
 19 20  1  0  0  0  0
 19 39  1  0  0  0  0
 19 40  1  0  0  0  0
 20 41  1  0  0  0  0
 20 42  1  0  0  0  0
M  END
> <s_m_source_file>
AV-unprocessed.smi

> <i_m_source_file_index>
2823

> <i_lp_mmshare_version>
43012

> <i_f3d_flags>
0

> <s_epik_input>
W0NIM11jMW5vYyhuMSlbTkhdQyg9TylbTkhdW0NIMl1DMihDKD1PKU4oW0NIM10pW0NIM10pW0NIMl1bQ0gyXVtDSDJdW0NIMl0y

> <s_epik_cmdline>
J2VwaWtfcHl0aG9uJywgJy1waCcsICc3LjAnLCAnLXRuJywgJzgnLCAnLW1hJywgJzIwMCcsICctbWV0YWxfYmluZGluZycsICctaW1hZScsICc8aW5maWxlLm1hZT4nLCAnLW9tYWUnLCAnPG91dGZpbGUubWFlPic=

> <r_lp_tautomer_probability>
1

> <r_epik_Ionization_Penalty>
4.1201e-05

> <r_epik_Ionization_Penalty_Charging>
0

> <r_epik_Ionization_Penalty_Neutral>
4.1201e-05

> <r_epik_State_Penalty>
-0

> <r_epik_Charging_Adjusted_Penalty>
0

> <i_epik_Tot_Q>
0

> <i_epik_Tot_abs_Q>
0

> <r_epik_Metal_State_Penalty>
0.0212056

> <b_epik_Metal_Only>
0

> <s_lp_Force_Field>
OPLS_2005

> <r_lp_Energy>
33.0432

> <b_lp_Chiralities_Consistent>
1

> <s_lp_Variant>
AV-unprocessed.smi:2823-1

> <Gold.Version>
5.8.1

> <Gold.Id.Protein>
6NUR|6NUR_protein|mol2

> <Gold.PLP.Fitness>
37.8705

> <Gold.PLP.PLP>
-33.0828

> <Gold.PLP.part.hbond>
-1.9550

> <Gold.PLP.part.metal>
0.0000

> <Gold.PLP.part.buried>
-1.5522

> <Gold.PLP.part.nonpolar>
-29.2556

> <Gold.PLP.part.repulsive>
0.3455

> <Gold.PLP.ligand.clash>
0.0000

> <Gold.PLP.ligand.torsion>
0.4172

> <Gold.PLP.Chemscore.Hbond>
1.8112

> <Gold.PLP.Chemscore.CHOScore>
0.0000

> <Gold.PLP.Chemscore.Metal>
0.0000

> <Gold.Chemscore.Hbonds>
donor molecule, donor type, donor heavy atom, donor atom, acceptor molecule, acceptor atom, score
      L1  H     6    25       P1  8028  0.77
      L1  H     9    26       P1  8028  1.00

> <Gold.PLP.Chemscore.Internal.Correction>
0.1885

> <Gold.Rescore>
     Score         DG    S(hbond)    S(metal)    S(lipo)     H(rot)  DE(clash)    DE(int)     intcor
     10.09     -14.19       1.92        0.00      57.55       1.74       1.02       3.08       ----

> <Gold.Chemscore.Fitness>
10.0920

> <Gold.Chemscore.DG>
-14.1854

> <Gold.Chemscore.ZeroCoef>
-5.4800

> <Gold.Chemscore.Hbond>
1.9210

> <Gold.Chemscore.Metal>
0.0000

> <Gold.Chemscore.Lipo>
57.5515

> <Gold.Chemscore.Internal_Hbond>
0.0000

> <Gold.Chemscore.DEClash>
1.0175

> <Gold.Chemscore.DEInternal>
3.0758

> <Gold.Chemscore.Rot>
1.7360

> <Gold.Chemscore.Internal.Correction>
   9.000000E+99

> <Gold.Chemscore.Hbonds>
donor molecule, donor type, donor heavy atom, donor atom, acceptor molecule, acceptor atom, score
      L1  H     6    25       P1  8028  0.72
      L1  H     9    26       P1  8028  0.96

> <Gold.Chemscore.Hbond.Weighted>
-6.4161

> <Gold.Chemscore.Metal.Weighted>
-0.0000

> <Gold.Chemscore.Lipo.Weighted>
-6.7335

> <Gold.Chemscore.Internal_Hbond.Weighted>
0.0000

> <Gold.Chemscore.DEClash.Weighted>
1.0175

> <Gold.Chemscore.DEInternal.Weighted>
3.0758

> <Gold.Chemscore.Rot.Weighted>
4.4443

> <Gold.Chemscore.Internal.Correction.Weighted>
   9.000000E+99

> <Gold.Protein.RotatedTorsions>
[ 6907 6896 6895 6894 ] final  -98.72 input  -60.11 | X-H torsion
[ 7974 7965 7964 7962 ] final -149.06 input  175.53 | X-H torsion
[ 8008 7997 7996 7995 ] final  164.81 input   59.86 | X-H torsion
[ 10167 10162 10161 10158 ] final   -8.60 input  -65.29 | X-H torsion
[ 10718 10713 10712 10709 ] final  103.91 input   66.30 | X-H torsion
[ 10763 10752 10751 10750 ] final  -53.59 input  -60.55 | X-H torsion
[ 11005 11000 10999 10996 ] final  134.15 input  -57.11 | X-H torsion

> <Gold.Protein.ActiveResidues>
 VAL166  LYS551  ARG553  GLY616  TRP617  ASP618  TYR619  PRO620  LYS621  CYS622 
 ASP623  PHE694  ASN695  SER759  ASP760  ASP761  ALA762  ILE779  LEU786  VAL792 
 PHE793  MET794  SER795  GLU796  ALA797  LYS798  CYS799  TRP800  GLU811  SER814 

> <Gold.Protein.RotatedAtoms>
  150.7056  134.1151  159.4014 H   0  0  0  0  0  0  0  0  0  0  0  0  # atno 6907 bound_to 6896
  151.9137  135.0325  160.0526 H   0  0  0  0  0  0  0  0  0  0  0  0  # atno 6908 bound_to 6896
  152.2314  133.5026  159.5254 H   0  0  0  0  0  0  0  0  0  0  0  0  # atno 6909 bound_to 6896
  144.7990  140.5114  143.5720 H   0  0  0  0  0  0  0  0  0  0  0  0  # atno 7974 bound_to 7965
  156.1850  140.1687  156.8202 H   0  0  0  0  0  0  0  0  0  0  0  0  # atno 8008 bound_to 7997
  154.5404  140.0738  156.8532 H   0  0  0  0  0  0  0  0  0  0  0  0  # atno 8009 bound_to 7997
  155.3226  140.3374  155.4243 H   0  0  0  0  0  0  0  0  0  0  0  0  # atno 8010 bound_to 7997
  140.7064  143.5951  150.8854 H   0  0  0  0  0  0  0  0  0  0  0  0  # atno 10167 bound_to 10162
  157.6757  131.0791  150.5627 H   0  0  0  0  0  0  0  0  0  0  0  0  # atno 10718 bound_to 10713
  154.1613  135.6474  153.4986 H   0  0  0  0  0  0  0  0  0  0  0  0  # atno 10763 bound_to 10752
  153.0110  135.5361  154.6708 H   0  0  0  0  0  0  0  0  0  0  0  0  # atno 10764 bound_to 10752
  154.6022  135.2945  155.0494 H   0  0  0  0  0  0  0  0  0  0  0  0  # atno 10765 bound_to 10752
  139.9896  134.9520  156.9825 H   0  0  0  0  0  0  0  0  0  0  0  0  # atno 11005 bound_to 11000
  145.5599  139.1479  143.3347 LP  0  0  0  0  0  0  0  0  0  0  0  0  # atno 17320 bound_to 7965
  146.2267  140.5736  142.8993 LP  0  0  0  0  0  0  0  0  0  0  0  0  # atno 17321 bound_to 7965
  139.9676  143.6093  152.2983 LP  0  0  0  0  0  0  0  0  0  0  0  0  # atno 17342 bound_to 10162
  139.6668  144.7662  151.1857 LP  0  0  0  0  0  0  0  0  0  0  0  0  # atno 17343 bound_to 10162
  156.5930  130.4334  149.5929 LP  0  0  0  0  0  0  0  0  0  0  0  0  # atno 17370 bound_to 10713
  156.2568  130.6939  151.1695 LP  0  0  0  0  0  0  0  0  0  0  0  0  # atno 17371 bound_to 10713
  140.4934  134.1170  155.7237 LP  0  0  0  0  0  0  0  0  0  0  0  0  # atno 17394 bound_to 11000
  141.1555  133.8891  157.1989 LP  0  0  0  0  0  0  0  0  0  0  0  0  # atno 17395 bound_to 11000

$$$$
