AV-unprocessed.smi:848|AV-procd|sdf|3941|dock9
  -GOLD-   22720 1413D 1   1.00000     0.00000
 Structure written by MMmdl.
 47 49  0  0  0  0  0  0  0  0  2 V2000
  152.5721  143.7536  162.5577 C   0  0  0  0  0  0  0  0  0  0  0  0
  152.9737  142.5666  161.7065 C   0  0  0  0  0  0  0  0  0  0  0  0
  153.9028  141.6253  162.1922 C   0  0  0  0  0  0  0  0  0  0  0  0
  154.2741  140.5246  161.3963 C   0  0  0  0  0  0  0  0  0  0  0  0
  155.2738  139.5169  161.9256 C   0  0  0  0  0  0  0  0  0  0  0  0
  153.7131  140.3690  160.1121 C   0  0  0  0  0  0  0  0  0  0  0  0
  152.7822  141.3017  159.6108 C   0  0  0  0  0  0  0  0  0  0  0  0
  152.2877  141.0719  158.3445 O   0  0  0  0  0  0  0  0  0  0  0  0
  151.5062  142.0888  157.7312 C   0  0  0  0  0  0  0  0  0  0  0  0
  150.9663  141.5663  156.3918 C   0  0  2  0  0  0  0  0  0  0  0  0
  150.3065  142.6278  155.7309 O   0  0  0  0  0  0  0  0  0  0  0  0
  150.0077  140.3707  156.5656 C   0  0  0  0  0  0  0  0  0  0  0  0
  149.5798  139.7927  155.2815 N   0  0  0  0  0  0  0  0  0  0  0  0
  150.0695  138.7166  154.6008 C   0  0  0  0  0  0  0  0  0  0  0  0
  151.1957  137.8292  155.0168 C   0  0  0  0  0  0  0  0  0  0  0  0
  151.3399  136.7140  154.1658 O   0  0  0  0  0  0  0  0  0  0  0  0
  149.3297  138.5864  153.4639 N   0  3  0  0  0  0  0  0  0  0  0  0
  148.3601  139.5884  153.4137 C   0  0  0  0  0  0  0  0  0  0  0  0
  147.3847  139.8640  152.4603 C   0  0  0  0  0  0  0  0  0  0  0  0
  146.5481  140.9709  152.7124 C   0  0  0  0  0  0  0  0  0  0  0  0
  146.6976  141.7540  153.8752 C   0  0  0  0  0  0  0  0  0  0  0  0
  147.6886  141.4635  154.8359 C   0  0  0  0  0  0  0  0  0  0  0  0
  148.5132  140.3678  154.5792 C   0  0  0  0  0  0  0  0  0  0  0  0
  152.4150  142.4050  160.4221 C   0  0  0  0  0  0  0  0  0  0  0  0
  153.0831  143.7446  163.5210 H   0  0  0  0  0  0  0  0  0  0  0  0
  151.4977  143.7401  162.7422 H   0  0  0  0  0  0  0  0  0  0  0  0
  152.8216  144.6850  162.0489 H   0  0  0  0  0  0  0  0  0  0  0  0
  154.3334  141.7453  163.1759 H   0  0  0  0  0  0  0  0  0  0  0  0
  155.4587  138.7208  161.2038 H   0  0  0  0  0  0  0  0  0  0  0  0
  154.9020  139.0636  162.8448 H   0  0  0  0  0  0  0  0  0  0  0  0
  156.2233  140.0060  162.1440 H   0  0  0  0  0  0  0  0  0  0  0  0
  153.9977  139.5255  159.5002 H   0  0  0  0  0  0  0  0  0  0  0  0
  150.6801  142.3846  158.3803 H   0  0  0  0  0  0  0  0  0  0  0  0
  152.1296  142.9672  157.5532 H   0  0  0  0  0  0  0  0  0  0  0  0
  151.8079  141.2697  155.7651 H   0  0  0  0  0  0  0  0  0  0  0  0
  149.9614  143.2186  156.3824 H   0  0  0  0  0  0  0  0  0  0  0  0
  150.5020  139.5751  157.1243 H   0  0  0  0  0  0  0  0  0  0  0  0
  149.1303  140.6460  157.1507 H   0  0  0  0  0  0  0  0  0  0  0  0
  152.1253  138.3988  155.0177 H   0  0  0  0  0  0  0  0  0  0  0  0
  151.0328  137.4813  156.0369 H   0  0  0  0  0  0  0  0  0  0  0  0
  151.1237  136.9778  153.2843 H   0  0  0  0  0  0  0  0  0  0  0  0
  147.2685  139.2655  151.5685 H   0  0  0  0  0  0  0  0  0  0  0  0
  145.7774  141.2253  151.9990 H   0  0  0  0  0  0  0  0  0  0  0  0
  146.0390  142.5956  154.0338 H   0  0  0  0  0  0  0  0  0  0  0  0
  147.7938  142.0733  155.7206 H   0  0  0  0  0  0  0  0  0  0  0  0
  151.7063  143.1437  160.0792 H   0  0  0  0  0  0  0  0  0  0  0  0
  149.4786  137.8601  152.7753 H   0  0  0  0  0  0  0  0  0  0  0  0
  1  2  1  0  0  0  0
  1 25  1  0  0  0  0
  1 26  1  0  0  0  0
  1 27  1  0  0  0  0
  2 24  1  0  0  0  0
  2  3  2  0  0  0  0
  3  4  1  0  0  0  0
  3 28  1  0  0  0  0
  4  5  1  0  0  0  0
  4  6  2  0  0  0  0
  5 29  1  0  0  0  0
  5 30  1  0  0  0  0
  5 31  1  0  0  0  0
  6  7  1  0  0  0  0
  6 32  1  0  0  0  0
  7  8  1  0  0  0  0
  7 24  2  0  0  0  0
  8  9  1  0  0  0  0
  9 10  1  0  0  0  0
  9 33  1  0  0  0  0
  9 34  1  0  0  0  0
 10 11  1  0  0  0  0
 10 12  1  0  0  0  0
 10 35  1  0  0  0  0
 11 36  1  0  0  0  0
 12 13  1  0  0  0  0
 12 37  1  0  0  0  0
 12 38  1  0  0  0  0
 13 23  1  0  0  0  0
 13 14  1  0  0  0  0
 14 15  1  0  0  0  0
 14 17  2  0  0  0  0
 15 16  1  0  0  0  0
 15 39  1  0  0  0  0
 15 40  1  0  0  0  0
 16 41  1  0  0  0  0
 17 18  1  0  0  0  0
 17 47  1  0  0  0  0
 18 23  2  0  0  0  0
 18 19  1  0  0  0  0
 19 20  2  0  0  0  0
 19 42  1  0  0  0  0
 20 21  1  0  0  0  0
 20 43  1  0  0  0  0
 21 22  2  0  0  0  0
 21 44  1  0  0  0  0
 22 23  1  0  0  0  0
 22 45  1  0  0  0  0
 24 46  1  0  0  0  0
M  CHG  1  17   1
M  END
> <s_m_source_file>
AV-unprocessed.smi

> <i_m_source_file_index>
848

> <i_lp_mmshare_version>
43012

> <i_f3d_flags>
0

> <s_epik_input>
W0NIM11jMVtjSF1jKFtDSDNdKVtjSF1jKFtjSF0xKU9bQ0gyXVtDQEhdKFtPSF0pW0NIMl1uKGMobjIpW0NIMl1bT0hdKWMoYzIzKVtjSF1bY0hdW2NIXVtjSF0z

> <s_epik_cmdline>
J2VwaWtfcHl0aG9uJywgJy1waCcsICc3LjAnLCAnLXRuJywgJzgnLCAnLW1hJywgJzIwMCcsICctbWV0YWxfYmluZGluZycsICctaW1hZScsICc8aW5maWxlLm1hZT4nLCAnLW9tYWUnLCAnPG91dGZpbGUubWFlPic=

> <r_lp_tautomer_probability>
1

> <r_epik_Ionization_Penalty>
1.43292

> <r_epik_Ionization_Penalty_Charging>
1.43206

> <r_epik_Ionization_Penalty_Neutral>
0.000858184

> <r_epik_State_Penalty>
1.51673

> <r_epik_Charging_Adjusted_Penalty>
2.94879

> <i_epik_Tot_Q>
1

> <i_epik_Tot_abs_Q>
1

> <r_epik_Metal_State_Penalty>
5.56186

> <b_epik_Metal_Only>
0

> <s_lp_Force_Field>
OPLS_2005

> <r_lp_Energy>
18.3298

> <b_lp_Chiralities_Consistent>
1

> <s_lp_Variant>
AV-unprocessed.smi:848-3

> <Gold.Version>
5.8.1

> <Gold.Id.Protein>
6NUR|6NUR_protein|mol2

> <Gold.PLP.Fitness>
58.7045

> <Gold.PLP.PLP>
-47.2458

> <Gold.PLP.part.hbond>
-5.0000

> <Gold.PLP.part.metal>
0.0000

> <Gold.PLP.part.buried>
6.0005

> <Gold.PLP.part.nonpolar>
-47.5526

> <Gold.PLP.part.repulsive>
0.0780

> <Gold.PLP.ligand.clash>
0.0000

> <Gold.PLP.ligand.torsion>
0.4876

> <Gold.PLP.Chemscore.Hbond>
4.1261

> <Gold.PLP.Chemscore.CHOScore>
0.0000

> <Gold.PLP.Chemscore.Metal>
0.0000

> <Gold.Chemscore.Hbonds>
donor molecule, donor type, donor heavy atom, donor atom, acceptor molecule, acceptor atom, score
      L1  H    11    36       P1  8028  0.30
      L1  H    16    41       P1  7949  0.63
      L1  H    17    47       P1  7948  2.00
      P1  H 10752 10763       L1    16  1.00

> <Gold.PLP.Chemscore.Internal.Correction>
0.0556

> <Gold.Rescore>
     Score         DG    S(hbond)    S(metal)    S(lipo)     H(rot)  DE(clash)    DE(int)     intcor
     20.50     -23.07       2.68        0.00     140.43       3.05       2.07       0.50       ----

> <Gold.Chemscore.Fitness>
20.4979

> <Gold.Chemscore.DG>
-23.0667

> <Gold.Chemscore.ZeroCoef>
-5.4800

> <Gold.Chemscore.Hbond>
2.6819

> <Gold.Chemscore.Metal>
0.0000

> <Gold.Chemscore.Lipo>
140.4347

> <Gold.Chemscore.Internal_Hbond>
0.0000

> <Gold.Chemscore.DEClash>
2.0731

> <Gold.Chemscore.DEInternal>
0.4958

> <Gold.Chemscore.Rot>
3.0476

> <Gold.Chemscore.Internal.Correction>
   9.000000E+99

> <Gold.Chemscore.Hbonds>
donor molecule, donor type, donor heavy atom, donor atom, acceptor molecule, acceptor atom, score
      L1  H    11    36       P1  8028  0.29
      L1  H    16    41       P1  7949  0.27
      L1  H    17    47       P1  7948  0.80
      P1  H 10752 10763       L1    16  0.77

> <Gold.Chemscore.Hbond.Weighted>
-8.9576

> <Gold.Chemscore.Metal.Weighted>
-0.0000

> <Gold.Chemscore.Lipo.Weighted>
-16.4309

> <Gold.Chemscore.Internal_Hbond.Weighted>
0.0000

> <Gold.Chemscore.DEClash.Weighted>
2.0731

> <Gold.Chemscore.DEInternal.Weighted>
0.4958

> <Gold.Chemscore.Rot.Weighted>
7.8018

> <Gold.Chemscore.Internal.Correction.Weighted>
   9.000000E+99

> <Gold.Protein.RotatedTorsions>
[ 6907 6896 6895 6894 ] final  120.20 input  -60.11 | X-H torsion
[ 7974 7965 7964 7962 ] final -132.54 input  175.53 | X-H torsion
[ 8008 7997 7996 7995 ] final   68.63 input   59.86 | X-H torsion
[ 10167 10162 10161 10158 ] final   63.64 input  -65.29 | X-H torsion
[ 10718 10713 10712 10709 ] final  121.37 input   66.30 | X-H torsion
[ 10763 10752 10751 10750 ] final   35.50 input  -60.55 | X-H torsion
[ 11005 11000 10999 10996 ] final  -69.19 input  -57.11 | X-H torsion

> <Gold.Protein.ActiveResidues>
 VAL166  LYS551  ARG553  GLY616  TRP617  ASP618  TYR619  PRO620  LYS621  CYS622 
 ASP623  PHE694  ASN695  SER759  ASP760  ASP761  ALA762  ILE779  LEU786  VAL792 
 PHE793  MET794  SER795  GLU796  ALA797  LYS798  CYS799  TRP800  GLU811  SER814 

> <Gold.Protein.RotatedAtoms>
  152.4416  133.7458  159.6666 H   0  0  0  0  0  0  0  0  0  0  0  0  # atno 6907 bound_to 6896
  150.8307  133.8085  159.3106 H   0  0  0  0  0  0  0  0  0  0  0  0  # atno 6908 bound_to 6896
  151.5740  135.1064  160.0053 H   0  0  0  0  0  0  0  0  0  0  0  0  # atno 6909 bound_to 6896
  144.9275  140.7089  143.4926 H   0  0  0  0  0  0  0  0  0  0  0  0  # atno 7974 bound_to 7965
  155.7112  140.3494  155.4974 H   0  0  0  0  0  0  0  0  0  0  0  0  # atno 8008 bound_to 7997
  155.9354  140.1092  157.1121 H   0  0  0  0  0  0  0  0  0  0  0  0  # atno 8009 bound_to 7997
  154.4093  140.1223  156.4844 H   0  0  0  0  0  0  0  0  0  0  0  0  # atno 8010 bound_to 7997
  140.1309  144.4644  150.6865 H   0  0  0  0  0  0  0  0  0  0  0  0  # atno 10167 bound_to 10162
  157.5823  131.1073  150.8164 H   0  0  0  0  0  0  0  0  0  0  0  0  # atno 10718 bound_to 10713
  153.0116  135.6331  154.1836 H   0  0  0  0  0  0  0  0  0  0  0  0  # atno 10763 bound_to 10752
  154.1578  135.2825  155.3119 H   0  0  0  0  0  0  0  0  0  0  0  0  # atno 10764 bound_to 10752
  154.6005  135.5589  153.7430 H   0  0  0  0  0  0  0  0  0  0  0  0  # atno 10765 bound_to 10752
  141.1548  133.6758  156.6561 H   0  0  0  0  0  0  0  0  0  0  0  0  # atno 11005 bound_to 11000
  145.3195  139.1793  143.4595 LP  0  0  0  0  0  0  0  0  0  0  0  0  # atno 17320 bound_to 7965
  146.3233  140.3210  142.8633 LP  0  0  0  0  0  0  0  0  0  0  0  0  # atno 17321 bound_to 7965
  140.6817  143.2330  151.5365 LP  0  0  0  0  0  0  0  0  0  0  0  0  # atno 17342 bound_to 10162
  139.5520  144.2371  152.1547 LP  0  0  0  0  0  0  0  0  0  0  0  0  # atno 17343 bound_to 10162
  156.8607  130.5112  149.5304 LP  0  0  0  0  0  0  0  0  0  0  0  0  # atno 17370 bound_to 10713
  156.0869  130.5865  150.9664 LP  0  0  0  0  0  0  0  0  0  0  0  0  # atno 17371 bound_to 10713
  140.3283  134.7950  157.4306 LP  0  0  0  0  0  0  0  0  0  0  0  0  # atno 17394 bound_to 11000
  140.1038  134.5437  155.8328 LP  0  0  0  0  0  0  0  0  0  0  0  0  # atno 17395 bound_to 11000

$$$$
