AV-unprocessed.smi:2069|AV-procd|sdf|8435|dock1
  -GOLD-   2272011133D 1   1.00000     0.00000
 Structure written by MMmdl.
 37 38  0  0  0  0  0  0  0  0  2 V2000
  152.9257  143.1990  162.7884 C   0  0  0  0  0  0  0  0  0  0  0  0
  152.2359  143.3533  161.4764 C   0  0  0  0  0  0  0  0  0  0  0  0
  151.0115  143.8730  161.3615 N   0  0  0  0  0  0  0  0  0  0  0  0
  150.5807  143.9097  160.0431 N   0  0  0  0  0  0  0  0  0  0  0  0
  151.4781  143.4092  159.1824 C   0  0  0  0  0  0  0  0  0  0  0  0
  151.2544  143.3569  157.8588 N   0  5  0  0  0  0  0  0  0  0  0  0
  151.0996  142.1614  157.2457 C   0  0  0  0  0  0  0  0  0  0  0  0
  151.7684  141.1449  157.4468 O   0  0  0  0  0  0  0  0  0  0  0  0
  150.1116  142.1439  156.3394 N   0  0  0  0  0  0  0  0  0  0  0  0
  149.7268  141.0017  155.5131 C   0  0  0  0  0  0  0  0  0  0  0  0
  148.5004  141.2837  154.5961 C   0  0  2  0  0  0  0  0  0  0  0  0
  147.3531  141.8669  155.4600 C   0  0  0  0  0  0  0  0  0  0  0  0
  148.0758  140.1061  153.8026 N   0  0  0  0  0  0  0  0  0  0  0  0
  147.1093  140.4470  152.7524 C   0  0  0  0  0  0  0  0  0  0  0  0
  146.6387  139.2203  151.9518 C   0  0  0  0  0  0  0  0  0  0  0  0
  146.0806  138.2556  152.8332 O   0  0  0  0  0  0  0  0  0  0  0  0
  147.0113  137.8376  153.8218 C   0  0  0  0  0  0  0  0  0  0  0  0
  147.4835  139.0539  154.6368 C   0  0  0  0  0  0  0  0  0  0  0  0
  152.9653  142.8624  159.9570 S   0  0  0  0  0  0  0  0  0  0  0  0
  152.5342  142.3280  163.3140 H   0  0  0  0  0  0  0  0  0  0  0  0
  152.7661  144.0836  163.4056 H   0  0  0  0  0  0  0  0  0  0  0  0
  153.9976  143.0669  162.6399 H   0  0  0  0  0  0  0  0  0  0  0  0
  149.5888  142.9974  156.2085 H   0  0  0  0  0  0  0  0  0  0  0  0
  150.6101  140.7196  154.9417 H   0  0  0  0  0  0  0  0  0  0  0  0
  149.5089  140.1643  156.1762 H   0  0  0  0  0  0  0  0  0  0  0  0
  148.7976  142.0658  153.8957 H   0  0  0  0  0  0  0  0  0  0  0  0
  147.6809  142.7013  156.0788 H   0  0  0  0  0  0  0  0  0  0  0  0
  146.9376  141.1095  156.1255 H   0  0  0  0  0  0  0  0  0  0  0  0
  146.5411  142.2671  154.8550 H   0  0  0  0  0  0  0  0  0  0  0  0
  146.2451  140.9475  153.1921 H   0  0  0  0  0  0  0  0  0  0  0  0
  147.5469  141.1388  152.0359 H   0  0  0  0  0  0  0  0  0  0  0  0
  145.8849  139.5127  151.2208 H   0  0  0  0  0  0  0  0  0  0  0  0
  147.4685  138.7803  151.3964 H   0  0  0  0  0  0  0  0  0  0  0  0
  146.5322  137.1079  154.4744 H   0  0  0  0  0  0  0  0  0  0  0  0
  147.8577  137.3369  153.3487 H   0  0  0  0  0  0  0  0  0  0  0  0
  148.2055  138.6883  155.3646 H   0  0  0  0  0  0  0  0  0  0  0  0
  146.6419  139.4593  155.2007 H   0  0  0  0  0  0  0  0  0  0  0  0
  1  2  1  0  0  0  0
  1 20  1  0  0  0  0
  1 21  1  0  0  0  0
  1 22  1  0  0  0  0
  2 19  1  0  0  0  0
  2  3  2  0  0  0  0
  3  4  1  0  0  0  0
  4  5  2  0  0  0  0
  5  6  1  0  0  0  0
  5 19  1  0  0  0  0
  6  7  1  0  0  0  0
  7  8  2  0  0  0  0
  7  9  1  0  0  0  0
  9 10  1  0  0  0  0
  9 23  1  0  0  0  0
 10 11  1  0  0  0  0
 10 24  1  0  0  0  0
 10 25  1  0  0  0  0
 11 12  1  0  0  0  0
 11 13  1  0  0  0  0
 11 26  1  0  0  0  0
 12 27  1  0  0  0  0
 12 28  1  0  0  0  0
 12 29  1  0  0  0  0
 13 18  1  0  0  0  0
 13 14  1  0  0  0  0
 14 15  1  0  0  0  0
 14 30  1  0  0  0  0
 14 31  1  0  0  0  0
 15 16  1  0  0  0  0
 15 32  1  0  0  0  0
 15 33  1  0  0  0  0
 16 17  1  0  0  0  0
 17 18  1  0  0  0  0
 17 34  1  0  0  0  0
 17 35  1  0  0  0  0
 18 36  1  0  0  0  0
 18 37  1  0  0  0  0
M  CHG  1   6  -1
M  END
> <s_m_source_file>
AV-unprocessed.smi

> <i_m_source_file_index>
2069

> <i_lp_mmshare_version>
43012

> <i_f3d_flags>
0

> <s_epik_input>
W0NIM11jMW5uYyhzMSlbTkhdQyg9TylbTkhdW0NIMl1bQ0BIXShbQ0gzXSlOMltDSDJdW0NIMl1PW0NIMl1bQ0gyXTI=

> <s_epik_cmdline>
J2VwaWtfcHl0aG9uJywgJy1waCcsICc3LjAnLCAnLXRuJywgJzgnLCAnLW1hJywgJzIwMCcsICctbWV0YWxfYmluZGluZycsICctaW1hZScsICc8aW5maWxlLm1hZT4nLCAnLW9tYWUnLCAnPG91dGZpbGUubWFlPic=

> <r_lp_tautomer_probability>
1

> <r_epik_Ionization_Penalty>
3.82002

> <r_epik_Ionization_Penalty_Charging>
3.36369

> <r_epik_Ionization_Penalty_Neutral>
0.456339

> <r_epik_State_Penalty>
3.571

> <r_epik_Charging_Adjusted_Penalty>
6.93469

> <i_epik_Tot_Q>
-1

> <i_epik_Tot_abs_Q>
1

> <r_epik_Metal_State_Penalty>
0.710436

> <b_epik_Metal_Only>
1

> <s_lp_Force_Field>
OPLS_2005

> <r_lp_Energy>
26.0796

> <b_lp_Chiralities_Consistent>
1

> <s_lp_Variant>
AV-unprocessed.smi:2069-5

> <Gold.Version>
5.8.1

> <Gold.Id.Protein>
6NUR|6NUR_protein|mol2

> <Gold.PLP.Fitness>
34.4615

> <Gold.PLP.PLP>
-33.4654

> <Gold.PLP.part.hbond>
-2.4551

> <Gold.PLP.part.metal>
0.0000

> <Gold.PLP.part.buried>
-2.3025

> <Gold.PLP.part.nonpolar>
-29.5663

> <Gold.PLP.part.repulsive>
1.3962

> <Gold.PLP.ligand.clash>
0.0000

> <Gold.PLP.ligand.torsion>
1.0872

> <Gold.PLP.Chemscore.Hbond>
1.0140

> <Gold.PLP.Chemscore.CHOScore>
0.0000

> <Gold.PLP.Chemscore.Metal>
0.0000

> <Gold.Chemscore.Hbonds>
donor molecule, donor type, donor heavy atom, donor atom, acceptor molecule, acceptor atom, score
      L1  H     9    23       P1  8028  1.00

> <Gold.PLP.Chemscore.Internal.Correction>
0.1284

> <Gold.Rescore>
     Score         DG    S(hbond)    S(metal)    S(lipo)     H(rot)  DE(clash)    DE(int)     intcor
     12.57     -13.76       0.97        0.00      77.41       1.57       0.09       1.10       ----

> <Gold.Chemscore.Fitness>
12.5727

> <Gold.Chemscore.DG>
-13.7602

> <Gold.Chemscore.ZeroCoef>
-5.4800

> <Gold.Chemscore.Hbond>
0.9734

> <Gold.Chemscore.Metal>
0.0000

> <Gold.Chemscore.Lipo>
77.4068

> <Gold.Chemscore.Internal_Hbond>
0.0000

> <Gold.Chemscore.DEClash>
0.0907

> <Gold.Chemscore.DEInternal>
1.0969

> <Gold.Chemscore.Rot>
1.5732

> <Gold.Chemscore.Internal.Correction>
   9.000000E+99

> <Gold.Chemscore.Hbonds>
donor molecule, donor type, donor heavy atom, donor atom, acceptor molecule, acceptor atom, score
      L1  H     9    23       P1  8028  0.99

> <Gold.Chemscore.Hbond.Weighted>
-3.2511

> <Gold.Chemscore.Metal.Weighted>
-0.0000

> <Gold.Chemscore.Lipo.Weighted>
-9.0566

> <Gold.Chemscore.Internal_Hbond.Weighted>
0.0000

> <Gold.Chemscore.DEClash.Weighted>
0.0907

> <Gold.Chemscore.DEInternal.Weighted>
1.0969

> <Gold.Chemscore.Rot.Weighted>
4.0274

> <Gold.Chemscore.Internal.Correction.Weighted>
   9.000000E+99

> <Gold.Protein.RotatedTorsions>
[ 6907 6896 6895 6894 ] final   22.51 input  -60.11 | X-H torsion
[ 7974 7965 7964 7962 ] final  -61.12 input  175.53 | X-H torsion
[ 8008 7997 7996 7995 ] final  -50.29 input   59.86 | X-H torsion
[ 10167 10162 10161 10158 ] final   75.30 input  -65.29 | X-H torsion
[ 10718 10713 10712 10709 ] final  -62.88 input   66.30 | X-H torsion
[ 10763 10752 10751 10750 ] final -116.49 input  -60.55 | X-H torsion
[ 11005 11000 10999 10996 ] final   69.50 input  -57.11 | X-H torsion

> <Gold.Protein.ActiveResidues>
 VAL166  LYS551  ARG553  GLY616  TRP617  ASP618  TYR619  PRO620  LYS621  CYS622 
 ASP623  PHE694  ASN695  SER759  ASP760  ASP761  ALA762  ILE779  LEU786  VAL792 
 PHE793  MET794  SER795  GLU796  ALA797  LYS798  CYS799  TRP800  GLU811  SER814 

> <Gold.Protein.RotatedAtoms>
  151.9282  135.0268  160.0526 H   0  0  0  0  0  0  0  0  0  0  0  0  # atno 6907 bound_to 6896
  152.2141  133.4929  159.5134 H   0  0  0  0  0  0  0  0  0  0  0  0  # atno 6908 bound_to 6896
  150.6983  134.1345  159.4125 H   0  0  0  0  0  0  0  0  0  0  0  0  # atno 6909 bound_to 6896
  145.8073  140.8619  143.0200 H   0  0  0  0  0  0  0  0  0  0  0  0  # atno 7974 bound_to 7965
  154.4059  140.1276  156.4642 H   0  0  0  0  0  0  0  0  0  0  0  0  # atno 8008 bound_to 7997
  155.7243  140.3492  155.5010 H   0  0  0  0  0  0  0  0  0  0  0  0  # atno 8009 bound_to 7997
  155.9185  140.1048  157.1215 H   0  0  0  0  0  0  0  0  0  0  0  0  # atno 8010 bound_to 7997
  140.0045  144.5661  150.7710 H   0  0  0  0  0  0  0  0  0  0  0  0  # atno 10167 bound_to 10162
  156.0827  130.4214  150.1198 H   0  0  0  0  0  0  0  0  0  0  0  0  # atno 10718 bound_to 10713
  154.8521  135.4343  154.1829 H   0  0  0  0  0  0  0  0  0  0  0  0  # atno 10763 bound_to 10752
  153.2916  135.6962  153.7294 H   0  0  0  0  0  0  0  0  0  0  0  0  # atno 10764 bound_to 10752
  153.6459  135.3460  155.3060 H   0  0  0  0  0  0  0  0  0  0  0  0  # atno 10765 bound_to 10752
  139.9650  134.6996  156.0565 H   0  0  0  0  0  0  0  0  0  0  0  0  # atno 11005 bound_to 11000
  144.6761  140.0345  143.7482 LP  0  0  0  0  0  0  0  0  0  0  0  0  # atno 17320 bound_to 7965
  145.9814  139.2944  143.1039 LP  0  0  0  0  0  0  0  0  0  0  0  0  # atno 17321 bound_to 7965
  140.7406  143.2806  151.3609 LP  0  0  0  0  0  0  0  0  0  0  0  0  # atno 17342 bound_to 10162
  139.6248  144.0835  152.2424 LP  0  0  0  0  0  0  0  0  0  0  0  0  # atno 17343 bound_to 10162
  156.9225  130.9687  151.3546 LP  0  0  0  0  0  0  0  0  0  0  0  0  # atno 17370 bound_to 10713
  157.5949  130.8470  149.8715 LP  0  0  0  0  0  0  0  0  0  0  0  0  # atno 17371 bound_to 10713
  141.1329  133.6582  156.3514 LP  0  0  0  0  0  0  0  0  0  0  0  0  # atno 17394 bound_to 11000
  140.5416  134.6114  157.5381 LP  0  0  0  0  0  0  0  0  0  0  0  0  # atno 17395 bound_to 11000

$$$$
