AV-unprocessed.smi:1984|AV-procd|sdf|8040|dock3
  -GOLD-   2272010233D 1   1.00000     0.00000
 Structure written by MMmdl.
 38 39  0  0  0  0  0  0  0  0  1 V2000
  153.8320  141.5387  161.7625 C   0  0  0  0  0  0  0  0  0  0  0  0
  153.0753  142.5300  160.9285 C   0  0  0  0  0  0  0  0  0  0  0  0
  152.5195  143.7765  161.3298 C   0  0  0  0  0  0  0  0  0  0  0  0
  151.9293  144.2638  160.1979 C   0  0  0  0  0  0  0  0  0  0  0  0
  151.1719  145.5322  159.9795 C   0  0  0  0  0  0  0  0  0  0  0  0
  152.1441  143.3306  159.1987 N   0  0  0  0  0  0  0  0  0  0  0  0
  151.6971  143.3439  157.8116 C   0  0  0  0  0  0  0  0  0  0  0  0
  150.8059  142.1369  157.5074 C   0  0  0  0  0  0  0  0  0  0  0  0
  149.7771  141.9504  158.1562 O   0  0  0  0  0  0  0  0  0  0  0  0
  151.1953  141.3442  156.4967 N   0  0  0  0  0  0  0  0  0  0  0  0
  150.3882  140.2856  155.9037 C   0  0  0  0  0  0  0  0  0  0  0  0
  151.1718  138.9593  155.8312 C   0  0  2  0  0  0  0  0  0  0  0  0
  150.4049  137.8532  155.0822 C   0  0  0  0  0  0  0  0  0  0  0  0
  151.1403  136.5263  155.2959 C   0  0  0  0  0  0  0  0  0  0  0  0
  151.8101  136.6051  156.9987 S   0  0  0  0  0  0  0  0  0  0  0  0
  150.9048  135.8936  157.9137 O   0  0  0  0  0  0  0  0  0  0  0  0
  153.2482  136.2989  156.9657 O   0  0  0  0  0  0  0  0  0  0  0  0
  151.5700  138.4088  157.2130 C   0  0  0  0  0  0  0  0  0  0  0  0
  152.8525  142.2718  159.6507 N   0  0  0  0  0  0  0  0  0  0  0  0
  154.1554  141.9824  162.7042 H   0  0  0  0  0  0  0  0  0  0  0  0
  154.7213  141.1800  161.2433 H   0  0  0  0  0  0  0  0  0  0  0  0
  153.2112  140.6741  161.9985 H   0  0  0  0  0  0  0  0  0  0  0  0
  152.5456  144.2407  162.3046 H   0  0  0  0  0  0  0  0  0  0  0  0
  151.0445  146.0757  160.9159 H   0  0  0  0  0  0  0  0  0  0  0  0
  150.1808  145.3315  159.5727 H   0  0  0  0  0  0  0  0  0  0  0  0
  151.7006  146.1836  159.2834 H   0  0  0  0  0  0  0  0  0  0  0  0
  151.1523  144.2656  157.6073 H   0  0  0  0  0  0  0  0  0  0  0  0
  152.5713  143.3386  157.1587 H   0  0  0  0  0  0  0  0  0  0  0  0
  152.0647  141.5651  156.0332 H   0  0  0  0  0  0  0  0  0  0  0  0
  149.4961  140.1597  156.5179 H   0  0  0  0  0  0  0  0  0  0  0  0
  150.0440  140.5846  154.9123 H   0  0  0  0  0  0  0  0  0  0  0  0
  152.0948  139.1319  155.2752 H   0  0  0  0  0  0  0  0  0  0  0  0
  149.3986  137.7702  155.4945 H   0  0  0  0  0  0  0  0  0  0  0  0
  150.2976  138.0819  154.0215 H   0  0  0  0  0  0  0  0  0  0  0  0
  150.4971  135.6539  155.1805 H   0  0  0  0  0  0  0  0  0  0  0  0
  151.9806  136.4360  154.6070 H   0  0  0  0  0  0  0  0  0  0  0  0
  152.4813  138.8635  157.6032 H   0  0  0  0  0  0  0  0  0  0  0  0
  150.7718  138.5540  157.9412 H   0  0  0  0  0  0  0  0  0  0  0  0
  1  2  1  0  0  0  0
  1 20  1  0  0  0  0
  1 21  1  0  0  0  0
  1 22  1  0  0  0  0
  2 19  2  0  0  0  0
  2  3  1  0  0  0  0
  3  4  2  0  0  0  0
  3 23  1  0  0  0  0
  4  5  1  0  0  0  0
  4  6  1  0  0  0  0
  5 24  1  0  0  0  0
  5 25  1  0  0  0  0
  5 26  1  0  0  0  0
  6  7  1  0  0  0  0
  6 19  1  0  0  0  0
  7  8  1  0  0  0  0
  7 27  1  0  0  0  0
  7 28  1  0  0  0  0
  8  9  2  0  0  0  0
  8 10  1  0  0  0  0
 10 11  1  0  0  0  0
 10 29  1  0  0  0  0
 11 12  1  0  0  0  0
 11 30  1  0  0  0  0
 11 31  1  0  0  0  0
 12 18  1  0  0  0  0
 12 13  1  0  0  0  0
 12 32  1  0  0  0  0
 13 14  1  0  0  0  0
 13 33  1  0  0  0  0
 13 34  1  0  0  0  0
 14 15  1  0  0  0  0
 14 35  1  0  0  0  0
 14 36  1  0  0  0  0
 15 16  2  0  0  0  0
 15 17  2  0  0  0  0
 15 18  1  0  0  0  0
 18 37  1  0  0  0  0
 18 38  1  0  0  0  0
M  END
> <s_m_source_file>
AV-unprocessed.smi

> <i_m_source_file_index>
1984

> <i_lp_mmshare_version>
43012

> <i_f3d_flags>
0

> <s_epik_input>
W0NIM11jMVtjSF1jKFtDSDNdKW4objEpW0NIMl1DKD1PKVtOSF1bQ0gyXVtDQEBIXShbQ0gyXTIpW0NIMl1bQ0gyXVMyKD1PKT1P

> <s_epik_cmdline>
J2VwaWtfcHl0aG9uJywgJy1waCcsICc3LjAnLCAnLXRuJywgJzgnLCAnLW1hJywgJzIwMCcsICctbWV0YWxfYmluZGluZycsICctaW1hZScsICc8aW5maWxlLm1hZT4nLCAnLW9tYWUnLCAnPG91dGZpbGUubWFlPic=

> <r_lp_tautomer_probability>
1

> <r_epik_Ionization_Penalty>
0.000335865

> <r_epik_Ionization_Penalty_Charging>
0

> <r_epik_Ionization_Penalty_Neutral>
0.000335865

> <r_epik_State_Penalty>
-0

> <r_epik_Charging_Adjusted_Penalty>
0

> <i_epik_Tot_Q>
0

> <i_epik_Tot_abs_Q>
0

> <r_epik_Metal_State_Penalty>
-0

> <b_epik_Metal_Only>
0

> <s_lp_Force_Field>
OPLS_2005

> <r_lp_Energy>
1.39039

> <b_lp_Chiralities_Consistent>
1

> <s_lp_Variant>
AV-unprocessed.smi:1984-1

> <Gold.Version>
5.8.1

> <Gold.Id.Protein>
6NUR|6NUR_protein|mol2

> <Gold.PLP.Fitness>
42.9733

> <Gold.PLP.PLP>
-38.3181

> <Gold.PLP.part.hbond>
-2.0000

> <Gold.PLP.part.metal>
0.0000

> <Gold.PLP.part.buried>
-5.6039

> <Gold.PLP.part.nonpolar>
-30.9217

> <Gold.PLP.part.repulsive>
0.2130

> <Gold.PLP.ligand.clash>
0.0000

> <Gold.PLP.ligand.torsion>
0.0597

> <Gold.PLP.Chemscore.Hbond>
1.5881

> <Gold.PLP.Chemscore.CHOScore>
0.0000

> <Gold.PLP.Chemscore.Metal>
0.0000

> <Gold.Chemscore.Hbonds>
donor molecule, donor type, donor heavy atom, donor atom, acceptor molecule, acceptor atom, score
      P1  H  6896  6907       L1    16  0.44
      P1  H 10752 10765       L1    17  1.00

> <Gold.PLP.Chemscore.Internal.Correction>
0.0103

> <Gold.Rescore>
     Score         DG    S(hbond)    S(metal)    S(lipo)     H(rot)  DE(clash)    DE(int)     intcor
     17.45     -17.65       1.76        0.00      90.61       1.68       0.08       0.12       ----

> <Gold.Chemscore.Fitness>
17.4540

> <Gold.Chemscore.DG>
-17.6508

> <Gold.Chemscore.ZeroCoef>
-5.4800

> <Gold.Chemscore.Hbond>
1.7571

> <Gold.Chemscore.Metal>
0.0000

> <Gold.Chemscore.Lipo>
90.6130

> <Gold.Chemscore.Internal_Hbond>
0.0000

> <Gold.Chemscore.DEClash>
0.0765

> <Gold.Chemscore.DEInternal>
0.1203

> <Gold.Chemscore.Rot>
1.6795

> <Gold.Chemscore.Internal.Correction>
   9.000000E+99

> <Gold.Chemscore.Hbonds>
donor molecule, donor type, donor heavy atom, donor atom, acceptor molecule, acceptor atom, score
      P1  H  6896  6907       L1    16  0.42
      P1  H 10752 10765       L1    17  0.34

> <Gold.Chemscore.Hbond.Weighted>
-5.8686

> <Gold.Chemscore.Metal.Weighted>
-0.0000

> <Gold.Chemscore.Lipo.Weighted>
-10.6017

> <Gold.Chemscore.Internal_Hbond.Weighted>
0.0000

> <Gold.Chemscore.DEClash.Weighted>
0.0765

> <Gold.Chemscore.DEInternal.Weighted>
0.1203

> <Gold.Chemscore.Rot.Weighted>
4.2995

> <Gold.Chemscore.Internal.Correction.Weighted>
   9.000000E+99

> <Gold.Protein.RotatedTorsions>
[ 6907 6896 6895 6894 ] final  -59.90 input  -60.11 | X-H torsion
[ 7974 7965 7964 7962 ] final    5.47 input  175.53 | X-H torsion
[ 8008 7997 7996 7995 ] final -109.72 input   59.86 | X-H torsion
[ 10167 10162 10161 10158 ] final  128.27 input  -65.29 | X-H torsion
[ 10718 10713 10712 10709 ] final   -1.91 input   66.30 | X-H torsion
[ 10763 10752 10751 10750 ] final -130.97 input  -60.55 | X-H torsion
[ 11005 11000 10999 10996 ] final  131.99 input  -57.11 | X-H torsion

> <Gold.Protein.ActiveResidues>
 VAL166  LYS551  ARG553  GLY616  TRP617  ASP618  TYR619  PRO620  LYS621  CYS622 
 ASP623  PHE694  ASN695  SER759  ASP760  ASP761  ALA762  ILE779  LEU786  VAL792 
 PHE793  MET794  SER795  GLU796  ALA797  LYS798  CYS799  TRP800  GLU811  SER814 

> <Gold.Protein.RotatedAtoms>
  150.7896  134.6908  159.6495 H   0  0  0  0  0  0  0  0  0  0  0  0  # atno 6907 bound_to 6896
  152.3999  134.6300  160.0083 H   0  0  0  0  0  0  0  0  0  0  0  0  # atno 6908 bound_to 6896
  151.6575  133.3281  159.3202 H   0  0  0  0  0  0  0  0  0  0  0  0  # atno 6909 bound_to 6896
  146.2440  140.0379  142.8384 H   0  0  0  0  0  0  0  0  0  0  0  0  # atno 7974 bound_to 7965
  154.9636  140.0398  157.2202 H   0  0  0  0  0  0  0  0  0  0  0  0  # atno 8008 bound_to 7997
  154.7866  140.2828  155.6001 H   0  0  0  0  0  0  0  0  0  0  0  0  # atno 8009 bound_to 7997
  156.2944  140.2581  156.2703 H   0  0  0  0  0  0  0  0  0  0  0  0  # atno 8010 bound_to 7997
  139.5536  144.6832  151.4250 H   0  0  0  0  0  0  0  0  0  0  0  0  # atno 10167 bound_to 10162
  156.7987  130.5385  149.5725 H   0  0  0  0  0  0  0  0  0  0  0  0  # atno 10718 bound_to 10713
  154.8753  135.3845  154.4171 H   0  0  0  0  0  0  0  0  0  0  0  0  # atno 10763 bound_to 10752
  153.4878  135.7030  153.5906 H   0  0  0  0  0  0  0  0  0  0  0  0  # atno 10764 bound_to 10752
  153.4293  135.3882  155.2128 H   0  0  0  0  0  0  0  0  0  0  0  0  # atno 10765 bound_to 10752
  139.9763  134.9562  156.9518 H   0  0  0  0  0  0  0  0  0  0  0  0  # atno 11005 bound_to 11000
  145.1096  140.9396  143.4664 LP  0  0  0  0  0  0  0  0  0  0  0  0  # atno 17320 bound_to 7965
  145.0590  139.3120  143.5890 LP  0  0  0  0  0  0  0  0  0  0  0  0  # atno 17321 bound_to 7965
  140.6804  143.8095  150.7114 LP  0  0  0  0  0  0  0  0  0  0  0  0  # atno 17342 bound_to 10162
  140.1546  143.4327  152.2108 LP  0  0  0  0  0  0  0  0  0  0  0  0  # atno 17343 bound_to 10162
  156.1114  130.6043  151.0054 LP  0  0  0  0  0  0  0  0  0  0  0  0  # atno 17370 bound_to 10713
  157.6564  131.0888  150.7936 LP  0  0  0  0  0  0  0  0  0  0  0  0  # atno 17371 bound_to 10713
  140.5188  134.0928  155.7287 LP  0  0  0  0  0  0  0  0  0  0  0  0  # atno 17394 bound_to 11000
  141.1440  133.9088  157.2260 LP  0  0  0  0  0  0  0  0  0  0  0  0  # atno 17395 bound_to 11000

$$$$
