AV-unprocessed.smi:2706|AV-procd|sdf|10448|dock6
  -GOLD-   2272014493D 1   1.00000     0.00000
 Structure written by MMmdl.
 44 47  0  0  0  0  0  0  0  0  2 V2000
  140.2800  146.6055  159.0251 C   0  0  0  0  0  0  0  0  0  0  0  0
  141.6440  146.2029  158.7071 N   0  0  0  0  0  0  0  0  0  0  0  0
  142.1342  146.3016  157.3366 C   0  0  0  0  0  0  0  0  0  0  0  0
  142.5389  145.8838  159.7505 C   0  0  0  0  0  0  0  0  0  0  0  0
  142.1271  145.6738  161.0878 C   0  0  0  0  0  0  0  0  0  0  0  0
  143.0863  145.3593  162.0694 C   0  0  0  0  0  0  0  0  0  0  0  0
  144.4439  145.2571  161.7085 C   0  0  0  0  0  0  0  0  0  0  0  0
  144.8242  145.4733  160.3604 C   0  0  0  0  0  0  0  0  0  0  0  0
  146.1545  145.4022  159.8595 N   0  0  0  0  0  0  0  0  0  0  0  0
  147.2775  144.9693  160.4608 C   0  0  0  0  0  0  0  0  0  0  0  0
  147.3526  144.5343  161.6093 O   0  0  0  0  0  0  0  0  0  0  0  0
  148.3326  145.0719  159.6400 N   0  0  0  0  0  0  0  0  0  0  0  0
  149.6727  144.6990  159.9601 C   0  0  2  0  0  0  0  0  0  0  0  0
  150.7586  145.1509  159.0055 C   0  0  1  0  0  0  0  0  0  0  0  0
  152.2673  145.0862  159.2323 C   0  0  1  0  0  0  0  0  0  0  0  0
  152.5997  144.6876  160.6851 C   0  0  0  0  0  0  0  0  0  0  0  0
  152.1756  143.2027  160.7285 C   0  0  0  0  0  0  0  0  0  0  0  0
  151.6604  142.9618  159.2944 C   0  0  2  0  0  0  0  0  0  0  0  0
  152.6434  143.8074  158.4907 C   0  0  0  0  0  0  0  0  0  0  0  0
  150.3413  143.6906  159.0485 C   0  0  1  0  0  0  0  0  0  0  0  0
  143.8585  145.7714  159.4604 N   0  3  0  0  0  0  0  0  0  0  0  0
  140.2810  147.4766  159.6813 H   0  0  0  0  0  0  0  0  0  0  0  0
  139.7455  145.7946  159.5211 H   0  0  0  0  0  0  0  0  0  0  0  0
  139.7237  146.8678  158.1250 H   0  0  0  0  0  0  0  0  0  0  0  0
  142.8791  147.0937  157.2531 H   0  0  0  0  0  0  0  0  0  0  0  0
  141.3253  146.5286  156.6417 H   0  0  0  0  0  0  0  0  0  0  0  0
  142.5876  145.3615  157.0208 H   0  0  0  0  0  0  0  0  0  0  0  0
  141.0897  145.7476  161.3777 H   0  0  0  0  0  0  0  0  0  0  0  0
  142.7822  145.1968  163.0931 H   0  0  0  0  0  0  0  0  0  0  0  0
  145.1562  145.0148  162.4807 H   0  0  0  0  0  0  0  0  0  0  0  0
  146.2704  145.7316  158.9125 H   0  0  0  0  0  0  0  0  0  0  0  0
  148.1803  145.4417  158.7130 H   0  0  0  0  0  0  0  0  0  0  0  0
  149.9177  144.6582  161.0187 H   0  0  0  0  0  0  0  0  0  0  0  0
  150.4552  145.7010  158.1161 H   0  0  0  0  0  0  0  0  0  0  0  0
  152.7765  145.9863  158.8871 H   0  0  0  0  0  0  0  0  0  0  0  0
  153.6696  144.7832  160.8755 H   0  0  0  0  0  0  0  0  0  0  0  0
  152.0802  145.3046  161.4187 H   0  0  0  0  0  0  0  0  0  0  0  0
  153.0367  142.5674  160.9404 H   0  0  0  0  0  0  0  0  0  0  0  0
  151.4209  142.9944  161.4873 H   0  0  0  0  0  0  0  0  0  0  0  0
  151.6129  141.9116  159.0048 H   0  0  0  0  0  0  0  0  0  0  0  0
  152.4111  143.8428  157.4247 H   0  0  0  0  0  0  0  0  0  0  0  0
  153.6868  143.5131  158.6211 H   0  0  0  0  0  0  0  0  0  0  0  0
  149.7797  143.3359  158.1858 H   0  0  0  0  0  0  0  0  0  0  0  0
  144.1384  145.9250  158.4920 H   0  0  0  0  0  0  0  0  0  0  0  0
  1  2  1  0  0  0  0
  1 22  1  0  0  0  0
  1 23  1  0  0  0  0
  1 24  1  0  0  0  0
  2  3  1  0  0  0  0
  2  4  1  0  0  0  0
  3 25  1  0  0  0  0
  3 26  1  0  0  0  0
  3 27  1  0  0  0  0
  4 21  1  0  0  0  0
  4  5  2  0  0  0  0
  5  6  1  0  0  0  0
  5 28  1  0  0  0  0
  6  7  2  0  0  0  0
  6 29  1  0  0  0  0
  7  8  1  0  0  0  0
  7 30  1  0  0  0  0
  8  9  1  0  0  0  0
  8 21  2  0  0  0  0
  9 10  1  0  0  0  0
  9 31  1  0  0  0  0
 10 11  2  0  0  0  0
 10 12  1  0  0  0  0
 12 13  1  0  0  0  0
 12 32  1  0  0  0  0
 13 20  1  0  0  0  0
 13 14  1  0  0  0  0
 13 33  1  0  0  0  0
 14 20  1  0  0  0  0
 14 15  1  0  0  0  0
 14 34  1  0  0  0  0
 15 19  1  0  0  0  0
 15 16  1  0  0  0  0
 15 35  1  0  0  0  0
 16 17  1  0  0  0  0
 16 36  1  0  0  0  0
 16 37  1  0  0  0  0
 17 18  1  0  0  0  0
 17 38  1  0  0  0  0
 17 39  1  0  0  0  0
 18 19  1  0  0  0  0
 18 20  1  0  0  0  0
 18 40  1  0  0  0  0
 19 41  1  0  0  0  0
 19 42  1  0  0  0  0
 20 43  1  0  0  0  0
 21 44  1  0  0  0  0
M  CHG  1  21   1
M  END
> <s_m_source_file>
AV-unprocessed.smi

> <i_m_source_file_index>
2706

> <i_lp_mmshare_version>
43012

> <i_f3d_flags>
0

> <s_epik_input>
W0NIM11OKFtDSDNdKWMxW2NIXVtjSF1bY0hdYyhuMSlbTkhdQyg9TylbTkhdW0NASF0yW0NAQEhdM1tDQEBIXShbQ0gyXTQpW0NIMl1bQ0gyXVtDQEBIXTRbQ0BIXTIz

> <s_epik_cmdline>
J2VwaWtfcHl0aG9uJywgJy1waCcsICc3LjAnLCAnLXRuJywgJzgnLCAnLW1hJywgJzIwMCcsICctbWV0YWxfYmluZGluZycsICctaW1hZScsICc8aW5maWxlLm1hZT4nLCAnLW9tYWUnLCAnPG91dGZpbGUubWFlPic=

> <r_lp_tautomer_probability>
0.999994

> <r_epik_Ionization_Penalty>
1.8105

> <r_epik_Ionization_Penalty_Charging>
1.79227

> <r_epik_Ionization_Penalty_Neutral>
0.0182286

> <r_epik_State_Penalty>
1.90588

> <r_epik_Charging_Adjusted_Penalty>
3.69815

> <i_epik_Tot_Q>
1

> <i_epik_Tot_abs_Q>
1

> <r_epik_Metal_State_Penalty>
1.93501

> <b_epik_Metal_Only>
0

> <s_lp_Force_Field>
OPLS_2005

> <r_lp_Energy>
87.3902

> <b_lp_Chiralities_Consistent>
1

> <s_lp_Variant>
AV-unprocessed.smi:2706-5

> <Gold.Version>
5.8.1

> <Gold.Id.Protein>
6NUR|6NUR_protein|mol2

> <Gold.PLP.Fitness>
43.7184

> <Gold.PLP.PLP>
-36.8795

> <Gold.PLP.part.hbond>
-2.7062

> <Gold.PLP.part.metal>
0.0000

> <Gold.PLP.part.buried>
-7.4378

> <Gold.PLP.part.nonpolar>
-26.2596

> <Gold.PLP.part.repulsive>
0.2345

> <Gold.PLP.ligand.clash>
0.0000

> <Gold.PLP.ligand.torsion>
0.1350

> <Gold.PLP.Chemscore.Hbond>
2.3515

> <Gold.PLP.Chemscore.CHOScore>
0.0000

> <Gold.PLP.Chemscore.Metal>
0.0000

> <Gold.Chemscore.Hbonds>
donor molecule, donor type, donor heavy atom, donor atom, acceptor molecule, acceptor atom, score
      L1  H     9    31       P1  8029  0.33
      L1  H    12    32       P1  8029  1.00

> <Gold.PLP.Chemscore.Internal.Correction>
0.0543

> <Gold.Rescore>
     Score         DG    S(hbond)    S(metal)    S(lipo)     H(rot)  DE(clash)    DE(int)     intcor
     23.87     -24.94       2.90        0.00     105.51       1.00       0.05       1.02       ----

> <Gold.Chemscore.Fitness>
23.8672

> <Gold.Chemscore.DG>
-24.9367

> <Gold.Chemscore.ZeroCoef>
-5.4800

> <Gold.Chemscore.Hbond>
2.8957

> <Gold.Chemscore.Metal>
0.0000

> <Gold.Chemscore.Lipo>
105.5120

> <Gold.Chemscore.Internal_Hbond>
0.0000

> <Gold.Chemscore.DEClash>
0.0498

> <Gold.Chemscore.DEInternal>
1.0196

> <Gold.Chemscore.Rot>
1.0000

> <Gold.Chemscore.Internal.Correction>
   9.000000E+99

> <Gold.Chemscore.Hbonds>
donor molecule, donor type, donor heavy atom, donor atom, acceptor molecule, acceptor atom, score
      L1  H     9    31       P1  8029  0.33
      L1  H    12    32       P1  8029  0.94
      P1  H  6933  6944       L1    11  0.03

> <Gold.Chemscore.Hbond.Weighted>
-9.6718

> <Gold.Chemscore.Metal.Weighted>
-0.0000

> <Gold.Chemscore.Lipo.Weighted>
-12.3449

> <Gold.Chemscore.Internal_Hbond.Weighted>
0.0000

> <Gold.Chemscore.DEClash.Weighted>
0.0498

> <Gold.Chemscore.DEInternal.Weighted>
1.0196

> <Gold.Chemscore.Rot.Weighted>
2.5600

> <Gold.Chemscore.Internal.Correction.Weighted>
   9.000000E+99

> <Gold.Protein.RotatedTorsions>
[ 6907 6896 6895 6894 ] final -159.67 input  -60.11 | X-H torsion
[ 7974 7965 7964 7962 ] final  113.00 input  175.53 | X-H torsion
[ 8008 7997 7996 7995 ] final  -66.43 input   59.86 | X-H torsion
[ 10167 10162 10161 10158 ] final -174.52 input  -65.29 | X-H torsion
[ 10718 10713 10712 10709 ] final -159.61 input   66.30 | X-H torsion
[ 10763 10752 10751 10750 ] final  169.49 input  -60.55 | X-H torsion
[ 11005 11000 10999 10996 ] final   79.46 input  -57.11 | X-H torsion

> <Gold.Protein.ActiveResidues>
 VAL166  LYS551  ARG553  GLY616  TRP617  ASP618  TYR619  PRO620  LYS621  CYS622 
 ASP623  PHE694  ASN695  SER759  ASP760  ASP761  ALA762  ILE779  LEU786  VAL792 
 PHE793  MET794  SER795  GLU796  ALA797  LYS798  CYS799  TRP800  GLU811  SER814 

> <Gold.Protein.RotatedAtoms>
  151.3372  133.3977  159.2667 H   0  0  0  0  0  0  0  0  0  0  0  0  # atno 6907 bound_to 6896
  150.9907  134.9243  159.7908 H   0  0  0  0  0  0  0  0  0  0  0  0  # atno 6908 bound_to 6896
  152.5246  134.3337  159.9244 H   0  0  0  0  0  0  0  0  0  0  0  0  # atno 6909 bound_to 6896
  145.2225  139.2856  143.4211 H   0  0  0  0  0  0  0  0  0  0  0  0  # atno 7974 bound_to 7965
  154.4734  140.0913  156.7201 H   0  0  0  0  0  0  0  0  0  0  0  0  # atno 8008 bound_to 7997
  155.4662  140.3463  155.4301 H   0  0  0  0  0  0  0  0  0  0  0  0  # atno 8009 bound_to 7997
  156.1076  140.1439  156.9370 H   0  0  0  0  0  0  0  0  0  0  0  0  # atno 8010 bound_to 7997
  139.5630  144.1824  152.1268 H   0  0  0  0  0  0  0  0  0  0  0  0  # atno 10167 bound_to 10162
  156.5705  130.8686  151.2836 H   0  0  0  0  0  0  0  0  0  0  0  0  # atno 10718 bound_to 10713
  154.3838  135.2753  155.2195 H   0  0  0  0  0  0  0  0  0  0  0  0  # atno 10763 bound_to 10752
  154.4290  135.5982  153.6060 H   0  0  0  0  0  0  0  0  0  0  0  0  # atno 10764 bound_to 10752
  152.9834  135.5991  154.4084 H   0  0  0  0  0  0  0  0  0  0  0  0  # atno 10765 bound_to 10752
  139.9172  134.7844  156.1782 H   0  0  0  0  0  0  0  0  0  0  0  0  # atno 11005 bound_to 11000
  146.3372  140.2535  142.8599 LP  0  0  0  0  0  0  0  0  0  0  0  0  # atno 17320 bound_to 7965
  144.9752  140.8407  143.5431 LP  0  0  0  0  0  0  0  0  0  0  0  0  # atno 17321 bound_to 7965
  140.1342  144.5261  150.6784 LP  0  0  0  0  0  0  0  0  0  0  0  0  # atno 17342 bound_to 10162
  140.6911  143.2376  151.5128 LP  0  0  0  0  0  0  0  0  0  0  0  0  # atno 17343 bound_to 10162
  157.7349  130.9754  150.2054 LP  0  0  0  0  0  0  0  0  0  0  0  0  # atno 17370 bound_to 10713
  156.2719  130.3723  149.8023 LP  0  0  0  0  0  0  0  0  0  0  0  0  # atno 17371 bound_to 10713
  141.0659  133.6819  156.2043 LP  0  0  0  0  0  0  0  0  0  0  0  0  # atno 17394 bound_to 11000
  140.6586  134.4991  157.5582 LP  0  0  0  0  0  0  0  0  0  0  0  0  # atno 17395 bound_to 11000

$$$$
