AV-unprocessed.smi:3243|AV-procd|sdf|12395|dock1
  -GOLD-   2272018263D 1   1.00000     0.00000
 Structure written by MMmdl.
 37 38  0  0  0  0  0  0  0  0  1 V2000
  153.6633  141.0944  160.8640 C   0  0  0  0  0  0  0  0  0  0  0  0
  153.3406  142.5876  160.7104 C   0  0  0  0  0  0  0  0  0  0  0  0
  152.5834  143.1514  161.9215 C   0  0  0  0  0  0  0  0  0  0  0  0
  152.6297  142.8733  159.4238 C   0  0  0  0  0  0  0  0  0  0  0  0
  152.0805  141.9230  158.6617 N   0  0  0  0  0  0  0  0  0  0  0  0
  151.4681  142.4354  157.5135 C   0  0  0  0  0  0  0  0  0  0  0  0
  150.7963  141.5085  156.5464 C   0  0  0  0  0  0  0  0  0  0  0  0
  151.7906  140.5414  155.8823 C   0  0  0  0  0  0  0  0  0  0  0  0
  151.1143  139.3809  155.3143 N   0  0  0  0  0  0  0  0  0  0  0  0
  151.7273  138.2931  154.8236 C   0  0  0  0  0  0  0  0  0  0  0  0
  152.9529  138.1738  154.7948 O   0  0  0  0  0  0  0  0  0  0  0  0
  150.7825  137.2466  154.3201 C   0  0  1  0  0  0  0  0  0  0  0  0
  150.8965  135.8456  154.8892 C   0  0  0  0  0  0  0  0  0  0  0  0
  149.6994  136.6971  155.2389 C   0  0  1  0  0  0  0  0  0  0  0  0
  149.4700  137.1685  156.6643 C   0  0  0  0  0  0  0  0  0  0  0  0
  151.5606  143.8010  157.4143 C   0  0  0  0  0  0  0  0  0  0  0  0
  152.4207  144.4932  158.7614 S   0  0  0  0  0  0  0  0  0  0  0  0
  154.2653  140.7362  160.0283 H   0  0  0  0  0  0  0  0  0  0  0  0
  152.7551  140.4922  160.9030 H   0  0  0  0  0  0  0  0  0  0  0  0
  154.2251  140.9064  161.7792 H   0  0  0  0  0  0  0  0  0  0  0  0
  154.2967  143.1118  160.6681 H   0  0  0  0  0  0  0  0  0  0  0  0
  152.4245  144.2252  161.8189 H   0  0  0  0  0  0  0  0  0  0  0  0
  153.1414  142.9877  162.8435 H   0  0  0  0  0  0  0  0  0  0  0  0
  151.6075  142.6792  162.0371 H   0  0  0  0  0  0  0  0  0  0  0  0
  150.0200  140.9410  157.0613 H   0  0  0  0  0  0  0  0  0  0  0  0
  150.2819  142.0860  155.7774 H   0  0  0  0  0  0  0  0  0  0  0  0
  152.3211  141.0489  155.0759 H   0  0  0  0  0  0  0  0  0  0  0  0
  152.5491  140.2206  156.5985 H   0  0  0  0  0  0  0  0  0  0  0  0
  150.1048  139.4032  155.2998 H   0  0  0  0  0  0  0  0  0  0  0  0
  150.5054  137.3294  153.2701 H   0  0  0  0  0  0  0  0  0  0  0  0
  150.7477  135.0187  154.1977 H   0  0  0  0  0  0  0  0  0  0  0  0
  151.6290  135.6577  155.6724 H   0  0  0  0  0  0  0  0  0  0  0  0
  148.7681  136.4578  154.7290 H   0  0  0  0  0  0  0  0  0  0  0  0
  150.3977  137.1910  157.2350 H   0  0  0  0  0  0  0  0  0  0  0  0
  148.7823  136.4915  157.1711 H   0  0  0  0  0  0  0  0  0  0  0  0
  149.0332  138.1671  156.6632 H   0  0  0  0  0  0  0  0  0  0  0  0
  151.1740  144.4397  156.6338 H   0  0  0  0  0  0  0  0  0  0  0  0
  1  2  1  0  0  0  0
  1 18  1  0  0  0  0
  1 19  1  0  0  0  0
  1 20  1  0  0  0  0
  2  3  1  0  0  0  0
  2  4  1  0  0  0  0
  2 21  1  0  0  0  0
  3 22  1  0  0  0  0
  3 23  1  0  0  0  0
  3 24  1  0  0  0  0
  4 17  1  0  0  0  0
  4  5  2  0  0  0  0
  5  6  1  0  0  0  0
  6  7  1  0  0  0  0
  6 16  2  0  0  0  0
  7  8  1  0  0  0  0
  7 25  1  0  0  0  0
  7 26  1  0  0  0  0
  8  9  1  0  0  0  0
  8 27  1  0  0  0  0
  8 28  1  0  0  0  0
  9 10  1  0  0  0  0
  9 29  1  0  0  0  0
 10 11  2  0  0  0  0
 10 12  1  0  0  0  0
 12 14  1  0  0  0  0
 12 13  1  0  0  0  0
 12 30  1  0  0  0  0
 13 14  1  0  0  0  0
 13 31  1  0  0  0  0
 13 32  1  0  0  0  0
 14 15  1  0  0  0  0
 14 33  1  0  0  0  0
 15 34  1  0  0  0  0
 15 35  1  0  0  0  0
 15 36  1  0  0  0  0
 16 17  1  0  0  0  0
 16 37  1  0  0  0  0
M  END
> <s_m_source_file>
AV-unprocessed.smi

> <i_m_source_file_index>
3243

> <i_lp_mmshare_version>
43012

> <i_f3d_flags>
0

> <s_epik_input>
W0NIM11bQ0hdKFtDSDNdKWMxbmMoW2NIXXMxKVtDSDJdW0NIMl1bTkhdQyg9TylbQ0BASF0yW0NIMl1bQ0BIXTJbQ0gzXQ==

> <s_epik_cmdline>
J2VwaWtfcHl0aG9uJywgJy1waCcsICc3LjAnLCAnLXRuJywgJzgnLCAnLW1hJywgJzIwMCcsICctbWV0YWxfYmluZGluZycsICctaW1hZScsICc8aW5maWxlLm1hZT4nLCAnLW9tYWUnLCAnPG91dGZpbGUubWFlPic=

> <r_epik_Ionization_Penalty>
0.00084212

> <r_epik_Ionization_Penalty_Charging>
0

> <r_epik_Ionization_Penalty_Neutral>
0.00084212

> <r_epik_State_Penalty>
0.000542609

> <r_epik_Charging_Adjusted_Penalty>
0.000542609

> <i_epik_Tot_Q>
0

> <i_epik_Tot_abs_Q>
0

> <r_epik_Metal_State_Penalty>
-0

> <b_epik_Metal_Only>
0

> <s_lp_Force_Field>
OPLS_2005

> <r_lp_Energy>
-2.57645

> <b_lp_Chiralities_Consistent>
1

> <s_lp_Variant>
AV-unprocessed.smi:3243-2

> <Gold.Version>
5.8.1

> <Gold.Id.Protein>
6NUR|6NUR_protein|mol2

> <Gold.PLP.Fitness>
42.7584

> <Gold.PLP.PLP>
-40.3322

> <Gold.PLP.part.hbond>
-0.7473

> <Gold.PLP.part.metal>
0.0000

> <Gold.PLP.part.buried>
-3.2923

> <Gold.PLP.part.nonpolar>
-34.3184

> <Gold.PLP.part.repulsive>
0.1397

> <Gold.PLP.ligand.clash>
0.0000

> <Gold.PLP.ligand.torsion>
0.3998

> <Gold.PLP.Chemscore.Hbond>
0.0000

> <Gold.PLP.Chemscore.CHOScore>
1.0000

> <Gold.PLP.Chemscore.Metal>
0.0000

> <Gold.Chemscore.Hbonds>
donor molecule, donor type, donor heavy atom, donor atom, acceptor molecule, acceptor atom, score
      L1  C    16    37       P1  8028  1.00

> <Gold.PLP.Chemscore.Internal.Correction>
0.2256

> <Gold.Rescore>
     Score         DG    S(hbond)    S(metal)    S(lipo)     H(rot)  DE(clash)    DE(int)     intcor
     14.62     -15.07       0.00        0.00     114.53       1.49       0.12       0.34       ----

> <Gold.Chemscore.Fitness>
14.6169

> <Gold.Chemscore.DG>
-15.0733

> <Gold.Chemscore.ZeroCoef>
-5.4800

> <Gold.Chemscore.Hbond>
0.0000

> <Gold.Chemscore.Metal>
0.0000

> <Gold.Chemscore.Lipo>
114.5296

> <Gold.Chemscore.Internal_Hbond>
0.0000

> <Gold.Chemscore.DEClash>
0.1156

> <Gold.Chemscore.DEInternal>
0.3408

> <Gold.Chemscore.Rot>
1.4870

> <Gold.Chemscore.Internal.Correction>
   9.000000E+99

> <Gold.Chemscore.Hbond.Weighted>
-0.0000

> <Gold.Chemscore.Metal.Weighted>
-0.0000

> <Gold.Chemscore.Lipo.Weighted>
-13.4000

> <Gold.Chemscore.Internal_Hbond.Weighted>
0.0000

> <Gold.Chemscore.DEClash.Weighted>
0.1156

> <Gold.Chemscore.DEInternal.Weighted>
0.3408

> <Gold.Chemscore.Rot.Weighted>
3.8067

> <Gold.Chemscore.Internal.Correction.Weighted>
   9.000000E+99

> <Gold.Protein.RotatedTorsions>
[ 6907 6896 6895 6894 ] final -136.18 input  -60.11 | X-H torsion
[ 7974 7965 7964 7962 ] final  -85.62 input  175.53 | X-H torsion
[ 8008 7997 7996 7995 ] final  166.57 input   59.86 | X-H torsion
[ 10167 10162 10161 10158 ] final -165.24 input  -65.29 | X-H torsion
[ 10718 10713 10712 10709 ] final   -3.83 input   66.30 | X-H torsion
[ 10763 10752 10751 10750 ] final   81.99 input  -60.55 | X-H torsion
[ 11005 11000 10999 10996 ] final   35.90 input  -57.11 | X-H torsion

> <Gold.Protein.ActiveResidues>
 VAL166  LYS551  ARG553  GLY616  TRP617  ASP618  TYR619  PRO620  LYS621  CYS622 
 ASP623  PHE694  ASN695  SER759  ASP760  ASP761  ALA762  ILE779  LEU786  VAL792 
 PHE793  MET794  SER795  GLU796  ALA797  LYS798  CYS799  TRP800  GLU811  SER814 

> <Gold.Protein.RotatedAtoms>
  151.0069  133.6002  159.2687 H   0  0  0  0  0  0  0  0  0  0  0  0  # atno 6907 bound_to 6896
  151.3168  135.0807  159.9301 H   0  0  0  0  0  0  0  0  0  0  0  0  # atno 6908 bound_to 6896
  152.5289  133.9724  159.7822 H   0  0  0  0  0  0  0  0  0  0  0  0  # atno 6909 bound_to 6896
  145.4908  140.9553  143.1813 H   0  0  0  0  0  0  0  0  0  0  0  0  # atno 7974 bound_to 7965
  156.1707  140.1640  156.8452 H   0  0  0  0  0  0  0  0  0  0  0  0  # atno 8008 bound_to 7997
  154.5254  140.0769  156.8282 H   0  0  0  0  0  0  0  0  0  0  0  0  # atno 8009 bound_to 7997
  155.3519  140.3390  155.4242 H   0  0  0  0  0  0  0  0  0  0  0  0  # atno 8010 bound_to 7997
  139.6195  144.0652  152.1920 H   0  0  0  0  0  0  0  0  0  0  0  0  # atno 10167 bound_to 10162
  156.7703  130.5297  149.5769 H   0  0  0  0  0  0  0  0  0  0  0  0  # atno 10718 bound_to 10713
  153.1164  135.4745  154.9122 H   0  0  0  0  0  0  0  0  0  0  0  0  # atno 10763 bound_to 10752
  154.7532  135.3111  154.8521 H   0  0  0  0  0  0  0  0  0  0  0  0  # atno 10764 bound_to 10752
  153.9097  135.6866  153.4805 H   0  0  0  0  0  0  0  0  0  0  0  0  # atno 10765 bound_to 10752
  140.2380  134.3448  155.7937 H   0  0  0  0  0  0  0  0  0  0  0  0  # atno 11005 bound_to 11000
  144.7835  139.6476  143.7144 LP  0  0  0  0  0  0  0  0  0  0  0  0  # atno 17320 bound_to 7965
  146.2285  139.5768  142.9571 LP  0  0  0  0  0  0  0  0  0  0  0  0  # atno 17321 bound_to 7965
  140.0290  144.6095  150.7503 LP  0  0  0  0  0  0  0  0  0  0  0  0  # atno 17342 bound_to 10162
  140.7373  143.2764  151.3730 LP  0  0  0  0  0  0  0  0  0  0  0  0  # atno 17343 bound_to 10162
  156.1282  130.6159  151.0295 LP  0  0  0  0  0  0  0  0  0  0  0  0  # atno 17370 bound_to 10713
  157.6694  131.0864  150.7649 LP  0  0  0  0  0  0  0  0  0  0  0  0  # atno 17371 bound_to 10713
  141.2213  133.7283  156.8839 LP  0  0  0  0  0  0  0  0  0  0  0  0  # atno 17394 bound_to 11000
  140.1682  134.9118  157.2800 LP  0  0  0  0  0  0  0  0  0  0  0  0  # atno 17395 bound_to 11000

$$$$
