AV-unprocessed.smi:218|AV-procd|sdf|1672|dock6
  -GOLD-   2262020 93D 1   1.00000     0.00000
 Structure written by MMmdl.
 54 57  0  0  0  0  0  0  0  0  1 V2000
  153.6353  141.6501  160.9341 C   0  0  0  0  0  0  0  0  0  0  0  0
  152.7826  141.9998  159.7087 C   0  0  0  0  0  0  0  0  0  0  0  0
  152.0634  143.3466  159.8968 C   0  0  0  0  0  0  0  0  0  0  0  0
  151.8285  140.9475  159.5534 O   0  0  0  0  0  0  0  0  0  0  0  0
  151.0937  140.8427  158.3881 C   0  0  0  0  0  0  0  0  0  0  0  0
  150.3925  139.6438  158.1469 C   0  0  0  0  0  0  0  0  0  0  0  0
  149.6401  139.5213  156.9614 C   0  0  0  0  0  0  0  0  0  0  0  0
  148.8584  138.2573  156.6747 C   0  0  0  0  0  0  0  0  0  0  0  0
  147.7589  138.0569  157.6077 N   0  0  0  0  0  0  0  0  0  0  0  0
  146.6107  137.4850  157.1884 C   0  0  0  0  0  0  0  0  0  0  0  0
  145.5538  137.3366  158.0298 N   0  0  0  0  0  0  0  0  0  0  0  0
  144.4270  136.7659  157.5923 C   0  0  0  0  0  0  0  0  0  0  0  0
  144.1531  136.2821  156.3784 N   0  0  0  0  0  0  0  0  0  0  0  0
  145.2136  136.4285  155.5320 C   0  0  0  0  0  0  0  0  0  0  0  0
  146.4662  137.0174  155.8569 C   0  0  0  0  0  0  0  0  0  0  0  0
  147.2974  136.9955  154.7449 N   0  0  0  0  0  0  0  0  0  0  0  0
  146.5733  136.4238  153.8201 C   0  0  0  0  0  0  0  0  0  0  0  0
  145.3028  136.0511  154.2095 N   0  0  0  0  0  0  0  0  0  0  0  0
  144.2174  135.3751  153.4212 C   0  0  2  0  0  0  0  0  0  0  0  0
  144.6938  134.1296  153.0186 O   0  0  0  0  0  0  0  0  0  0  0  0
  145.1334  134.1436  151.6572 C   0  0  1  0  0  0  0  0  0  0  0  0
  144.3049  133.0665  150.9259 C   0  0  0  0  0  0  0  0  0  0  0  0
  142.9295  133.2790  151.1634 O   0  0  0  0  0  0  0  0  0  0  0  0
  144.9181  135.5966  151.1741 C   0  0  1  0  0  0  0  0  0  0  0  0
  144.4719  135.6951  149.8346 O   0  0  0  0  0  0  0  0  0  0  0  0
  143.8792  136.1454  152.1382 C   0  0  2  0  0  0  0  0  0  0  0  0
  143.9854  137.5514  152.2670 O   0  0  0  0  0  0  0  0  0  0  0  0
  149.6183  140.6033  156.0593 C   0  0  0  0  0  0  0  0  0  0  0  0
  150.3528  141.7600  156.3854 C   0  0  0  0  0  0  0  0  0  0  0  0
  151.0751  141.8840  157.5192 N   0  0  0  0  0  0  0  0  0  0  0  0
  143.3846  135.2786  154.1185 H   0  0  0  0  0  0  0  0  0  0  0  0
  146.1940  133.8956  151.5969 H   0  0  0  0  0  0  0  0  0  0  0  0
  145.8539  136.1486  151.2774 H   0  0  0  0  0  0  0  0  0  0  0  0
  142.8710  135.8628  151.8315 H   0  0  0  0  0  0  0  0  0  0  0  0
  154.3975  142.4091  161.1123 H   0  0  0  0  0  0  0  0  0  0  0  0
  154.1444  140.6962  160.7942 H   0  0  0  0  0  0  0  0  0  0  0  0
  153.0236  141.5721  161.8334 H   0  0  0  0  0  0  0  0  0  0  0  0
  153.4565  142.0526  158.8522 H   0  0  0  0  0  0  0  0  0  0  0  0
  152.7793  144.1525  160.0594 H   0  0  0  0  0  0  0  0  0  0  0  0
  151.3945  143.3172  160.7574 H   0  0  0  0  0  0  0  0  0  0  0  0
  151.4670  143.6123  159.0244 H   0  0  0  0  0  0  0  0  0  0  0  0
  150.4299  138.8347  158.8617 H   0  0  0  0  0  0  0  0  0  0  0  0
  148.4700  138.2950  155.6560 H   0  0  0  0  0  0  0  0  0  0  0  0
  149.5407  137.4080  156.7280 H   0  0  0  0  0  0  0  0  0  0  0  0
  147.9023  138.3978  158.5475 H   0  0  0  0  0  0  0  0  0  0  0  0
  143.6318  136.6844  158.3188 H   0  0  0  0  0  0  0  0  0  0  0  0
  146.9573  136.2578  152.8247 H   0  0  0  0  0  0  0  0  0  0  0  0
  144.5100  133.0626  149.8549 H   0  0  0  0  0  0  0  0  0  0  0  0
  144.5289  132.0700  151.3057 H   0  0  0  0  0  0  0  0  0  0  0  0
  142.5483  133.6739  150.3941 H   0  0  0  0  0  0  0  0  0  0  0  0
  145.1719  135.4207  149.2623 H   0  0  0  0  0  0  0  0  0  0  0  0
  143.9870  137.9331  151.4026 H   0  0  0  0  0  0  0  0  0  0  0  0
  149.0514  140.5528  155.1414 H   0  0  0  0  0  0  0  0  0  0  0  0
  150.3587  142.6093  155.7186 H   0  0  0  0  0  0  0  0  0  0  0  0
  1  2  1  0  0  0  0
  1 35  1  0  0  0  0
  1 36  1  0  0  0  0
  1 37  1  0  0  0  0
  2  3  1  0  0  0  0
  2  4  1  0  0  0  0
  2 38  1  0  0  0  0
  3 39  1  0  0  0  0
  3 40  1  0  0  0  0
  3 41  1  0  0  0  0
  4  5  1  0  0  0  0
  5 30  1  0  0  0  0
  5  6  2  0  0  0  0
  6  7  1  0  0  0  0
  6 42  1  0  0  0  0
  7  8  1  0  0  0  0
  7 28  2  0  0  0  0
  8  9  1  0  0  0  0
  8 43  1  0  0  0  0
  8 44  1  0  0  0  0
  9 10  1  0  0  0  0
  9 45  1  0  0  0  0
 10 15  1  0  0  0  0
 10 11  2  0  0  0  0
 11 12  1  0  0  0  0
 12 13  2  0  0  0  0
 12 46  1  0  0  0  0
 13 14  1  0  0  0  0
 14 18  1  0  0  0  0
 14 15  2  0  0  0  0
 15 16  1  0  0  0  0
 16 17  2  0  0  0  0
 17 18  1  0  0  0  0
 17 47  1  0  0  0  0
 18 19  1  0  0  0  0
 19 31  1  0  0  0  0
 19 26  1  0  0  0  0
 19 20  1  0  0  0  0
 20 21  1  0  0  0  0
 21 32  1  0  0  0  0
 21 22  1  0  0  0  0
 21 24  1  0  0  0  0
 22 23  1  0  0  0  0
 22 48  1  0  0  0  0
 22 49  1  0  0  0  0
 23 50  1  0  0  0  0
 24 33  1  0  0  0  0
 24 25  1  0  0  0  0
 24 26  1  0  0  0  0
 25 51  1  0  0  0  0
 26 34  1  0  0  0  0
 26 27  1  0  0  0  0
 27 52  1  0  0  0  0
 28 29  1  0  0  0  0
 28 53  1  0  0  0  0
 29 30  2  0  0  0  0
 29 54  1  0  0  0  0
M  END
> <s_m_source_file>
AV-unprocessed.smi

> <i_m_source_file_index>
218

> <i_lp_mmshare_version>
43012

> <i_f3d_flags>
0

> <s_epik_input>
W0NIM11bQ0hdKFtDSDNdKU9jMVtjSF1jKFtjSF1bY0hdbjEpW0NIMl1bTkhdYyhuW2NIXW4yKWMoYzIzKW5bY0hdbjNbQ0BASF00T1tDQEhdKFtDSDJdW09IXSlbQ0BASF0oW09IXSlbQ0BIXTRbT0hd

> <s_epik_cmdline>
J2VwaWtfcHl0aG9uJywgJy1waCcsICc3LjAnLCAnLXRuJywgJzgnLCAnLW1hJywgJzIwMCcsICctbWV0YWxfYmluZGluZycsICctaW1hZScsICc8aW5maWxlLm1hZT4nLCAnLW9tYWUnLCAnPG91dGZpbGUubWFlPic=

> <r_lp_tautomer_probability>
1

> <r_epik_Ionization_Penalty>
0.00457014

> <r_epik_Ionization_Penalty_Charging>
0

> <r_epik_Ionization_Penalty_Neutral>
0.00457014

> <r_epik_State_Penalty>
-0

> <r_epik_Charging_Adjusted_Penalty>
0

> <i_epik_Tot_Q>
0

> <i_epik_Tot_abs_Q>
0

> <r_epik_Metal_State_Penalty>
-0

> <b_epik_Metal_Only>
0

> <s_epik_Chemistry_Notes>
This compound contains an acetal/aminal-like group ( X-CH(R)-Y where X, Y are N, S, or O) that may be acid/base labile, releasing an aldehyde.

> <s_lp_Force_Field>
OPLS_2005

> <r_lp_Energy>
43.2146

> <b_lp_Chiralities_Consistent>
1

> <s_lp_Variant>
AV-unprocessed.smi:218-11

> <Gold.Version>
5.8.1

> <Gold.Id.Protein>
6NUR|6NUR_protein|mol2

> <Gold.PLP.Fitness>
50.4484

> <Gold.PLP.PLP>
-36.2995

> <Gold.PLP.part.hbond>
-5.0000

> <Gold.PLP.part.metal>
0.0000

> <Gold.PLP.part.buried>
-7.1663

> <Gold.PLP.part.nonpolar>
-25.7245

> <Gold.PLP.part.repulsive>
0.2790

> <Gold.PLP.ligand.clash>
0.0000

> <Gold.PLP.ligand.torsion>
0.5097

> <Gold.PLP.Chemscore.Hbond>
3.0000

> <Gold.PLP.Chemscore.CHOScore>
1.9960

> <Gold.PLP.Chemscore.Metal>
0.0000

> <Gold.Chemscore.Hbonds>
donor molecule, donor type, donor heavy atom, donor atom, acceptor molecule, acceptor atom, score
      L1  H    23    50       P1 10186  0.96
      L1  H    25    51       P1  7921  1.00
      L1  H    27    52       P1 10171  1.00
      L1  C    17    47       P1  7948  1.00
      L1  C    29    54       P1  8028  0.90

> <Gold.PLP.Chemscore.Internal.Correction>
0.1803

> <Gold.Rescore>
     Score         DG    S(hbond)    S(metal)    S(lipo)     H(rot)  DE(clash)    DE(int)     intcor
      9.54     -11.49       2.94        0.00      74.72       4.90       0.07       1.87       ----

> <Gold.Chemscore.Fitness>
9.5413

> <Gold.Chemscore.DG>
-11.4856

> <Gold.Chemscore.ZeroCoef>
-5.4800

> <Gold.Chemscore.Hbond>
2.9387

> <Gold.Chemscore.Metal>
0.0000

> <Gold.Chemscore.Lipo>
74.7162

> <Gold.Chemscore.Internal_Hbond>
0.0000

> <Gold.Chemscore.DEClash>
0.0724

> <Gold.Chemscore.DEInternal>
1.8719

> <Gold.Chemscore.Rot>
4.9029

> <Gold.Chemscore.Internal.Correction>
   9.000000E+99

> <Gold.Chemscore.Hbonds>
donor molecule, donor type, donor heavy atom, donor atom, acceptor molecule, acceptor atom, score
      L1  H    23    50       P1 10186  0.91
      L1  H    25    51       P1  7921  0.98
      L1  H    27    52       P1 10171  1.00

> <Gold.Chemscore.Hbond.Weighted>
-9.8153

> <Gold.Chemscore.Metal.Weighted>
-0.0000

> <Gold.Chemscore.Lipo.Weighted>
-8.7418

> <Gold.Chemscore.Internal_Hbond.Weighted>
0.0000

> <Gold.Chemscore.DEClash.Weighted>
0.0724

> <Gold.Chemscore.DEInternal.Weighted>
1.8719

> <Gold.Chemscore.Rot.Weighted>
12.5515

> <Gold.Chemscore.Internal.Correction.Weighted>
   9.000000E+99

> <Gold.Protein.RotatedTorsions>
[ 6907 6896 6895 6894 ] final  -76.94 input  -60.11 | X-H torsion
[ 7974 7965 7964 7962 ] final  153.53 input  175.53 | X-H torsion
[ 8008 7997 7996 7995 ] final  -65.65 input   59.86 | X-H torsion
[ 10167 10162 10161 10158 ] final -170.76 input  -65.29 | X-H torsion
[ 10718 10713 10712 10709 ] final -173.95 input   66.30 | X-H torsion
[ 10763 10752 10751 10750 ] final  101.29 input  -60.55 | X-H torsion
[ 11005 11000 10999 10996 ] final  -53.14 input  -57.11 | X-H torsion

> <Gold.Protein.ActiveResidues>
 VAL166  LYS551  ARG553  GLY616  TRP617  ASP618  TYR619  PRO620  LYS621  CYS622 
 ASP623  PHE694  ASN695  SER759  ASP760  ASP761  ALA762  ILE779  LEU786  VAL792 
 PHE793  MET794  SER795  GLU796  ALA797  LYS798  CYS799  TRP800  GLU811  SER814 

> <Gold.Protein.RotatedAtoms>
  150.7013  134.4497  159.5330 H   0  0  0  0  0  0  0  0  0  0  0  0  # atno 6907 bound_to 6896
  152.2192  134.8426  160.0497 H   0  0  0  0  0  0  0  0  0  0  0  0  # atno 6908 bound_to 6896
  151.9283  133.3569  159.3958 H   0  0  0  0  0  0  0  0  0  0  0  0  # atno 6909 bound_to 6896
  144.8148  139.6812  143.6126 H   0  0  0  0  0  0  0  0  0  0  0  0  # atno 7974 bound_to 7965
  154.4685  140.0929  156.7083 H   0  0  0  0  0  0  0  0  0  0  0  0  # atno 8008 bound_to 7997
  155.4791  140.3467  155.4318 H   0  0  0  0  0  0  0  0  0  0  0  0  # atno 8009 bound_to 7997
  156.0998  140.1419  156.9471 H   0  0  0  0  0  0  0  0  0  0  0  0  # atno 8010 bound_to 7997
  139.5842  144.1354  152.1555 H   0  0  0  0  0  0  0  0  0  0  0  0  # atno 10167 bound_to 10162
  156.7779  130.9472  151.3120 H   0  0  0  0  0  0  0  0  0  0  0  0  # atno 10718 bound_to 10713
  153.3248  135.4049  155.1447 H   0  0  0  0  0  0  0  0  0  0  0  0  # atno 10763 bound_to 10752
  154.8609  135.3596  154.5548 H   0  0  0  0  0  0  0  0  0  0  0  0  # atno 10764 bound_to 10752
  153.5983  135.7072  153.5454 H   0  0  0  0  0  0  0  0  0  0  0  0  # atno 10765 bound_to 10752
  141.0961  133.6624  156.4128 H   0  0  0  0  0  0  0  0  0  0  0  0  # atno 11005 bound_to 11000
  146.2451  139.6081  142.9465 LP  0  0  0  0  0  0  0  0  0  0  0  0  # atno 17320 bound_to 7965
  145.5239  141.0430  143.2420 LP  0  0  0  0  0  0  0  0  0  0  0  0  # atno 17321 bound_to 7965
  140.0914  144.5617  150.7052 LP  0  0  0  0  0  0  0  0  0  0  0  0  # atno 17342 bound_to 10162
  140.7116  143.2510  151.4562 LP  0  0  0  0  0  0  0  0  0  0  0  0  # atno 17343 bound_to 10162
  157.6660  130.9008  149.9933 LP  0  0  0  0  0  0  0  0  0  0  0  0  # atno 17370 bound_to 10713
  156.1236  130.3645  149.9846 LP  0  0  0  0  0  0  0  0  0  0  0  0  # atno 17371 bound_to 10713
  140.5137  134.6370  157.5294 LP  0  0  0  0  0  0  0  0  0  0  0  0  # atno 17394 bound_to 11000
  139.9798  134.7156  155.9881 LP  0  0  0  0  0  0  0  0  0  0  0  0  # atno 17395 bound_to 11000

$$$$
