AV-unprocessed.smi:215|AV-procd|sdf|1651|dock2
  -GOLD-   2262020 33D 1   1.00000     0.00000
 Structure written by MMmdl.
 59 62  0  0  0  0  0  0  0  0  2 V2000
  149.7808  139.0813  154.5064 C   0  0  0  0  0  0  0  0  0  0  0  0
  148.5376  139.9202  154.8773 C   0  0  1  0  0  0  0  0  0  0  0  0
  148.7968  141.4482  154.7787 C   0  0  2  0  0  0  0  0  0  0  0  0
  149.1490  142.1292  156.0653 N   0  3  2  0  0  0  0  0  0  0  0  0
  150.5402  141.8158  156.4857 C   0  0  0  0  0  0  0  0  0  0  0  0
  148.1666  141.9192  157.1684 C   0  0  0  0  0  0  0  0  0  0  0  0
  148.4123  142.8056  158.4043 C   0  0  0  0  0  0  0  0  0  0  0  0
  147.3645  142.6471  159.3383 O   0  0  0  0  0  0  0  0  0  0  0  0
  147.4876  141.9866  154.1765 C   0  0  0  0  0  0  0  0  0  0  0  0
  146.9940  140.8586  153.2808 C   0  0  0  0  0  0  0  0  0  0  0  0
  147.4512  139.6492  153.9409 N   0  0  0  0  0  0  0  0  0  0  0  0
  146.7515  138.4856  153.8667 C   0  0  0  0  0  0  0  0  0  0  0  0
  146.3080  137.9435  155.0314 N   0  0  0  0  0  0  0  0  0  0  0  0
  145.6074  136.8064  155.0305 C   0  0  0  0  0  0  0  0  0  0  0  0
  145.2410  136.0553  153.9920 N   0  0  0  0  0  0  0  0  0  0  0  0
  145.6835  136.5866  152.8170 C   0  0  0  0  0  0  0  0  0  0  0  0
  146.4442  137.7825  152.6625 C   0  0  0  0  0  0  0  0  0  0  0  0
  146.7299  137.9755  151.3144 N   0  0  0  0  0  0  0  0  0  0  0  0
  146.1693  136.9631  150.7125 C   0  0  0  0  0  0  0  0  0  0  0  0
  145.4945  136.0940  151.5377 N   0  0  0  0  0  0  0  0  0  0  0  0
  144.8248  134.8859  151.1536 C   0  0  0  0  0  0  0  0  0  0  0  0
  145.3394  133.5114  151.5955 C   0  0  0  0  0  0  0  0  0  0  0  0
  144.8337  132.9090  150.2640 C   0  0  0  0  0  0  0  0  0  0  0  0
  145.7340  131.8476  149.6008 C   0  0  0  0  0  0  0  0  0  0  0  0
  147.0994  132.2138  149.6037 O   0  0  0  0  0  0  0  0  0  0  0  0
  143.4131  132.3175  150.3400 C   0  0  0  0  0  0  0  0  0  0  0  0
  142.8666  132.1104  149.0531 O   0  0  0  0  0  0  0  0  0  0  0  0
  144.9219  134.3542  149.7208 C   0  0  0  0  0  0  0  0  0  0  0  0
  148.1855  139.6817  155.8801 H   0  0  0  0  0  0  0  0  0  0  0  0
  149.5990  141.6216  154.0587 H   0  0  0  0  0  0  0  0  0  0  0  0
  150.6332  139.2882  155.1504 H   0  0  0  0  0  0  0  0  0  0  0  0
  150.0957  139.2832  153.4819 H   0  0  0  0  0  0  0  0  0  0  0  0
  149.5817  138.0124  154.5750 H   0  0  0  0  0  0  0  0  0  0  0  0
  150.6283  140.7729  156.7926 H   0  0  0  0  0  0  0  0  0  0  0  0
  150.8658  142.4449  157.3123 H   0  0  0  0  0  0  0  0  0  0  0  0
  151.2574  141.9910  155.6854 H   0  0  0  0  0  0  0  0  0  0  0  0
  147.1586  142.1497  156.8301 H   0  0  0  0  0  0  0  0  0  0  0  0
  148.1692  140.8671  157.4565 H   0  0  0  0  0  0  0  0  0  0  0  0
  149.3424  142.5061  158.8879 H   0  0  0  0  0  0  0  0  0  0  0  0
  148.5308  143.8579  158.1500 H   0  0  0  0  0  0  0  0  0  0  0  0
  146.6973  143.2929  159.1595 H   0  0  0  0  0  0  0  0  0  0  0  0
  146.7561  142.1632  154.9668 H   0  0  0  0  0  0  0  0  0  0  0  0
  147.6152  142.9162  153.6214 H   0  0  0  0  0  0  0  0  0  0  0  0
  145.9096  140.8935  153.1670 H   0  0  0  0  0  0  0  0  0  0  0  0
  147.4479  140.9172  152.2909 H   0  0  0  0  0  0  0  0  0  0  0  0
  145.2942  136.4485  156.0001 H   0  0  0  0  0  0  0  0  0  0  0  0
  146.2308  136.8261  149.6427 H   0  0  0  0  0  0  0  0  0  0  0  0
  143.7811  135.0178  151.4435 H   0  0  0  0  0  0  0  0  0  0  0  0
  146.4249  133.4904  151.7031 H   0  0  0  0  0  0  0  0  0  0  0  0
  144.8555  133.1170  152.4895 H   0  0  0  0  0  0  0  0  0  0  0  0
  145.6445  130.8889  150.1126 H   0  0  0  0  0  0  0  0  0  0  0  0
  145.4431  131.6788  148.5637 H   0  0  0  0  0  0  0  0  0  0  0  0
  147.5928  131.5298  150.0299 H   0  0  0  0  0  0  0  0  0  0  0  0
  143.4117  131.3688  150.8780 H   0  0  0  0  0  0  0  0  0  0  0  0
  142.7374  132.9766  150.8854 H   0  0  0  0  0  0  0  0  0  0  0  0
  142.1772  132.7415  148.9138 H   0  0  0  0  0  0  0  0  0  0  0  0
  144.0976  134.6570  149.0745 H   0  0  0  0  0  0  0  0  0  0  0  0
  145.8815  134.5900  149.2580 H   0  0  0  0  0  0  0  0  0  0  0  0
  149.1256  143.1197  155.8671 H   0  0  0  0  0  0  0  0  0  0  0  0
  1  2  1  0  0  0  0
  1 31  1  0  0  0  0
  1 32  1  0  0  0  0
  1 33  1  0  0  0  0
  2 29  1  0  0  0  0
  2 11  1  0  0  0  0
  2  3  1  0  0  0  0
  3 30  1  0  0  0  0
  3  4  1  0  0  0  0
  3  9  1  0  0  0  0
  4  5  1  0  0  0  0
  4  6  1  0  0  0  0
  4 59  1  0  0  0  0
  5 34  1  0  0  0  0
  5 35  1  0  0  0  0
  5 36  1  0  0  0  0
  6  7  1  0  0  0  0
  6 37  1  0  0  0  0
  6 38  1  0  0  0  0
  7  8  1  0  0  0  0
  7 39  1  0  0  0  0
  7 40  1  0  0  0  0
  8 41  1  0  0  0  0
  9 10  1  0  0  0  0
  9 42  1  0  0  0  0
  9 43  1  0  0  0  0
 10 11  1  0  0  0  0
 10 44  1  0  0  0  0
 10 45  1  0  0  0  0
 11 12  1  0  0  0  0
 12 17  1  0  0  0  0
 12 13  2  0  0  0  0
 13 14  1  0  0  0  0
 14 15  2  0  0  0  0
 14 46  1  0  0  0  0
 15 16  1  0  0  0  0
 16 20  1  0  0  0  0
 16 17  2  0  0  0  0
 17 18  1  0  0  0  0
 18 19  2  0  0  0  0
 19 20  1  0  0  0  0
 19 47  1  0  0  0  0
 20 21  1  0  0  0  0
 21 28  1  0  0  0  0
 21 22  1  0  0  0  0
 21 48  1  0  0  0  0
 22 23  1  0  0  0  0
 22 49  1  0  0  0  0
 22 50  1  0  0  0  0
 23 24  1  0  0  0  0
 23 26  1  0  0  0  0
 23 28  1  0  0  0  0
 24 25  1  0  0  0  0
 24 51  1  0  0  0  0
 24 52  1  0  0  0  0
 25 53  1  0  0  0  0
 26 27  1  0  0  0  0
 26 54  1  0  0  0  0
 26 55  1  0  0  0  0
 27 56  1  0  0  0  0
 28 57  1  0  0  0  0
 28 58  1  0  0  0  0
M  CHG  1   4   1
M  END
> <s_m_source_file>
AV-unprocessed.smi

> <i_m_source_file_index>
215

> <i_lp_mmshare_version>
43012

> <i_f3d_flags>
0

> <s_epik_input>
W09IXVtDSDJdW0NIMl1OKFtDSDNdKVtDQEBIXShbQ0BIXTFbQ0gzXSlbQ0gyXVtDSDJdTjFjKG5bY0hdbjIpYyhjMjMpbltjSF1uM1tDSF0oW0NIMl00KVtDSDJdQzQoW0NIMl1bT0hdKVtDSDJdW09IXQ==

> <s_epik_cmdline>
J2VwaWtfcHl0aG9uJywgJy1waCcsICc3LjAnLCAnLXRuJywgJzgnLCAnLW1hJywgJzIwMCcsICctbWV0YWxfYmluZGluZycsICctaW1hZScsICc8aW5maWxlLm1hZT4nLCAnLW9tYWUnLCAnPG91dGZpbGUubWFlPic=

> <r_lp_tautomer_probability>
1

> <r_epik_Ionization_Penalty>
0.0036237

> <r_epik_Ionization_Penalty_Charging>
0.0032725

> <r_epik_Ionization_Penalty_Neutral>
0.000351196

> <r_epik_State_Penalty>
-0

> <r_epik_Charging_Adjusted_Penalty>
0.0032725

> <i_epik_Tot_Q>
1

> <i_epik_Tot_abs_Q>
1

> <r_epik_Metal_State_Penalty>
-0

> <b_epik_Metal_Only>
0

> <s_lp_Force_Field>
OPLS_2005

> <r_lp_Energy>
68.3917

> <b_lp_Chiralities_Consistent>
1

> <s_lp_Variant>
AV-unprocessed.smi:215-2

> <Gold.Version>
5.8.1

> <Gold.Id.Protein>
6NUR|6NUR_protein|mol2

> <Gold.PLP.Fitness>
61.8645

> <Gold.PLP.PLP>
-45.6282

> <Gold.PLP.part.hbond>
-9.8035

> <Gold.PLP.part.metal>
0.0000

> <Gold.PLP.part.buried>
3.8949

> <Gold.PLP.part.nonpolar>
-43.9816

> <Gold.PLP.part.repulsive>
1.5390

> <Gold.PLP.ligand.clash>
0.0000

> <Gold.PLP.ligand.torsion>
1.3535

> <Gold.PLP.Chemscore.Hbond>
5.6500

> <Gold.PLP.Chemscore.CHOScore>
0.3575

> <Gold.PLP.Chemscore.Metal>
0.0000

> <Gold.Chemscore.Hbonds>
donor molecule, donor type, donor heavy atom, donor atom, acceptor molecule, acceptor atom, score
      L1  H     4    59       P1  8028  2.00
      L1  H    25    53       P1 10747  0.94
      L1  H    27    56       P1 10186  0.76
      P1  H  6933  6944       L1     8  0.06
      P1  H  6934  6946       L1     8  0.23
      P1  H  7954  7966       L1    18  0.35
      P1  H 10785 10796       L1    27  1.00
      L1  C    19    47       P1  7921  0.30

> <Gold.PLP.Chemscore.Internal.Correction>
0.9207

> <Gold.Rescore>
     Score         DG    S(hbond)    S(metal)    S(lipo)     H(rot)  DE(clash)    DE(int)     intcor
     14.24     -17.69       3.97        0.00      88.97       4.48       1.30       2.15       ----

> <Gold.Chemscore.Fitness>
14.2374

> <Gold.Chemscore.DG>
-17.6876

> <Gold.Chemscore.ZeroCoef>
-5.4800

> <Gold.Chemscore.Hbond>
3.9713

> <Gold.Chemscore.Metal>
0.0000

> <Gold.Chemscore.Lipo>
88.9656

> <Gold.Chemscore.Internal_Hbond>
0.0000

> <Gold.Chemscore.DEClash>
1.2959

> <Gold.Chemscore.DEInternal>
2.1543

> <Gold.Chemscore.Rot>
4.4787

> <Gold.Chemscore.Internal.Correction>
   9.000000E+99

> <Gold.Chemscore.Hbonds>
donor molecule, donor type, donor heavy atom, donor atom, acceptor molecule, acceptor atom, score
      L1  H     4    59       P1  8028  0.99
      L1  H    25    53       P1 10747  0.86
      L1  H    27    56       P1 10186  0.72
      P1  H  6933  6944       L1     8  0.03
      P1  H  6934  6946       L1     8  0.23
      P1  H  7954  7966       L1    18  0.01
      P1  H 10785 10796       L1    27  0.37

> <Gold.Chemscore.Hbond.Weighted>
-13.2641

> <Gold.Chemscore.Metal.Weighted>
-0.0000

> <Gold.Chemscore.Lipo.Weighted>
-10.4090

> <Gold.Chemscore.Internal_Hbond.Weighted>
0.0000

> <Gold.Chemscore.DEClash.Weighted>
1.2959

> <Gold.Chemscore.DEInternal.Weighted>
2.1543

> <Gold.Chemscore.Rot.Weighted>
11.4655

> <Gold.Chemscore.Internal.Correction.Weighted>
   9.000000E+99

> <Gold.Protein.RotatedTorsions>
[ 6907 6896 6895 6894 ] final -148.32 input  -60.11 | X-H torsion
[ 7974 7965 7964 7962 ] final   49.02 input  175.53 | X-H torsion
[ 8008 7997 7996 7995 ] final  -32.01 input   59.86 | X-H torsion
[ 10167 10162 10161 10158 ] final  -26.08 input  -65.29 | X-H torsion
[ 10718 10713 10712 10709 ] final  -91.93 input   66.30 | X-H torsion
[ 10763 10752 10751 10750 ] final    7.74 input  -60.55 | X-H torsion
[ 11005 11000 10999 10996 ] final   91.36 input  -57.11 | X-H torsion

> <Gold.Protein.ActiveResidues>
 VAL166  LYS551  ARG553  GLY616  TRP617  ASP618  TYR619  PRO620  LYS621  CYS622 
 ASP623  PHE694  ASN695  SER759  ASP760  ASP761  ALA762  ILE779  LEU786  VAL792 
 PHE793  MET794  SER795  GLU796  ALA797  LYS798  CYS799  TRP800  GLU811  SER814 

> <Gold.Protein.RotatedAtoms>
  151.1682  133.4801  159.2593 H   0  0  0  0  0  0  0  0  0  0  0  0  # atno 6907 bound_to 6896
  151.1383  135.0166  159.8624 H   0  0  0  0  0  0  0  0  0  0  0  0  # atno 6908 bound_to 6896
  152.5462  134.1578  159.8598 H   0  0  0  0  0  0  0  0  0  0  0  0  # atno 6909 bound_to 6896
  146.0149  139.4585  142.9933 H   0  0  0  0  0  0  0  0  0  0  0  0  # atno 7974 bound_to 7965
  154.4194  140.1749  156.1658 H   0  0  0  0  0  0  0  0  0  0  0  0  # atno 8008 bound_to 7997
  155.9801  140.3378  155.6630 H   0  0  0  0  0  0  0  0  0  0  0  0  # atno 8009 bound_to 7997
  155.6512  140.0690  157.2577 H   0  0  0  0  0  0  0  0  0  0  0  0  # atno 8010 bound_to 7997
  140.7284  143.4209  151.0953 H   0  0  0  0  0  0  0  0  0  0  0  0  # atno 10167 bound_to 10162
  155.9997  130.4967  150.5549 H   0  0  0  0  0  0  0  0  0  0  0  0  # atno 10718 bound_to 10713
  153.2329  135.6894  153.7870 H   0  0  0  0  0  0  0  0  0  0  0  0  # atno 10763 bound_to 10752
  153.7028  135.3295  155.3229 H   0  0  0  0  0  0  0  0  0  0  0  0  # atno 10764 bound_to 10752
  154.8322  135.4572  154.1221 H   0  0  0  0  0  0  0  0  0  0  0  0  # atno 10765 bound_to 10752
  139.8840  134.8669  156.3417 H   0  0  0  0  0  0  0  0  0  0  0  0  # atno 11005 bound_to 11000
  145.7284  141.0051  143.1365 LP  0  0  0  0  0  0  0  0  0  0  0  0  # atno 17320 bound_to 7965
  144.6967  139.8955  143.7455 LP  0  0  0  0  0  0  0  0  0  0  0  0  # atno 17321 bound_to 7965
  139.7854  143.8295  152.3144 LP  0  0  0  0  0  0  0  0  0  0  0  0  # atno 17342 bound_to 10162
  139.8260  144.7275  150.9511 LP  0  0  0  0  0  0  0  0  0  0  0  0  # atno 17343 bound_to 10162
  157.3466  131.0726  151.1746 LP  0  0  0  0  0  0  0  0  0  0  0  0  # atno 17370 bound_to 10713
  157.2576  130.6644  149.5960 LP  0  0  0  0  0  0  0  0  0  0  0  0  # atno 17371 bound_to 10713
  140.9654  133.7361  156.0460 LP  0  0  0  0  0  0  0  0  0  0  0  0  # atno 17394 bound_to 11000
  140.7937  134.3588  157.5458 LP  0  0  0  0  0  0  0  0  0  0  0  0  # atno 17395 bound_to 11000

$$$$
