AV-unprocessed.smi:419|AV-procd|sdf|2530|dock7
  -GOLD-   2262022483D 1   1.00000     0.00000
 Structure written by MMmdl.
 44 46  0  0  0  0  0  0  0  0  1 V2000
  144.0139  139.8589  156.6209 C   0  0  0  0  0  0  0  0  0  0  0  0
  144.6421  140.6885  155.6543 O   0  0  0  0  0  0  0  0  0  0  0  0
  145.9924  140.5202  155.4346 C   0  0  0  0  0  0  0  0  0  0  0  0
  146.6218  141.4371  154.5702 C   0  0  0  0  0  0  0  0  0  0  0  0
  147.9980  141.3374  154.2916 C   0  0  0  0  0  0  0  0  0  0  0  0
  148.7792  140.3185  154.8710 C   0  0  0  0  0  0  0  0  0  0  0  0
  150.1188  140.2937  154.5463 O   0  0  0  0  0  0  0  0  0  0  0  0
  150.9083  139.2140  155.0288 C   0  0  0  0  0  0  0  0  0  0  0  0
  151.9485  139.7619  156.0197 C   0  0  2  0  0  0  0  0  0  0  0  0
  153.1961  139.1920  155.6766 O   0  0  0  0  0  0  0  0  0  0  0  0
  151.6271  139.3507  157.4714 C   0  0  0  0  0  0  0  0  0  0  0  0
  152.1630  140.3063  158.4400 N   0  0  0  0  0  0  0  0  0  0  0  0
  153.0304  140.0341  159.4439 C   0  0  0  0  0  0  0  0  0  0  0  0
  153.5072  138.9297  159.7051 O   0  0  0  0  0  0  0  0  0  0  0  0
  153.2804  141.1874  160.1067 N   0  0  0  0  0  0  0  0  0  0  0  0
  154.1601  141.3669  161.2553 C   0  0  0  0  0  0  0  0  0  0  0  0
  152.5555  142.2268  159.5100 C   0  0  0  0  0  0  0  0  0  0  0  0
  152.4792  143.5948  159.8223 C   0  0  0  0  0  0  0  0  0  0  0  0
  151.6383  144.3954  159.0142 C   0  0  0  0  0  0  0  0  0  0  0  0
  150.9077  143.8266  157.9386 C   0  0  0  0  0  0  0  0  0  0  0  0
  151.0043  142.4457  157.6462 C   0  0  0  0  0  0  0  0  0  0  0  0
  151.8495  141.6735  158.4624 C   0  0  0  0  0  0  0  0  0  0  0  0
  148.1509  139.3939  155.7411 C   0  0  0  0  0  0  0  0  0  0  0  0
  146.7737  139.4934  156.0197 C   0  0  0  0  0  0  0  0  0  0  0  0
  142.9551  140.1111  156.6781 H   0  0  0  0  0  0  0  0  0  0  0  0
  144.4419  140.0080  157.6131 H   0  0  0  0  0  0  0  0  0  0  0  0
  144.0872  138.8049  156.3496 H   0  0  0  0  0  0  0  0  0  0  0  0
  146.0429  142.2275  154.1152 H   0  0  0  0  0  0  0  0  0  0  0  0
  148.4592  142.0524  153.6261 H   0  0  0  0  0  0  0  0  0  0  0  0
  150.2483  138.5163  155.5469 H   0  0  0  0  0  0  0  0  0  0  0  0
  151.3933  138.6722  154.2145 H   0  0  0  0  0  0  0  0  0  0  0  0
  151.9962  140.8485  155.9346 H   0  0  0  0  0  0  0  0  0  0  0  0
  153.1098  138.7716  154.8345 H   0  0  0  0  0  0  0  0  0  0  0  0
  150.5457  139.3183  157.6130 H   0  0  0  0  0  0  0  0  0  0  0  0
  151.9772  138.3393  157.6809 H   0  0  0  0  0  0  0  0  0  0  0  0
  153.6411  141.9030  162.0500 H   0  0  0  0  0  0  0  0  0  0  0  0
  155.0379  141.9461  160.9685 H   0  0  0  0  0  0  0  0  0  0  0  0
  154.5004  140.4140  161.6630 H   0  0  0  0  0  0  0  0  0  0  0  0
  153.0374  144.0195  160.6435 H   0  0  0  0  0  0  0  0  0  0  0  0
  151.5509  145.4523  159.2189 H   0  0  0  0  0  0  0  0  0  0  0  0
  150.2696  144.4555  157.3355 H   0  0  0  0  0  0  0  0  0  0  0  0
  150.4485  142.0088  156.8299 H   0  0  0  0  0  0  0  0  0  0  0  0
  148.7041  138.5952  156.2110 H   0  0  0  0  0  0  0  0  0  0  0  0
  146.3396  138.7664  156.6890 H   0  0  0  0  0  0  0  0  0  0  0  0
  1  2  1  0  0  0  0
  1 25  1  0  0  0  0
  1 26  1  0  0  0  0
  1 27  1  0  0  0  0
  2  3  1  0  0  0  0
  3 24  1  0  0  0  0
  3  4  2  0  0  0  0
  4  5  1  0  0  0  0
  4 28  1  0  0  0  0
  5  6  2  0  0  0  0
  5 29  1  0  0  0  0
  6  7  1  0  0  0  0
  6 23  1  0  0  0  0
  7  8  1  0  0  0  0
  8  9  1  0  0  0  0
  8 30  1  0  0  0  0
  8 31  1  0  0  0  0
  9 10  1  0  0  0  0
  9 11  1  0  0  0  0
  9 32  1  0  0  0  0
 10 33  1  0  0  0  0
 11 12  1  0  0  0  0
 11 34  1  0  0  0  0
 11 35  1  0  0  0  0
 12 22  1  0  0  0  0
 12 13  1  0  0  0  0
 13 14  2  0  0  0  0
 13 15  1  0  0  0  0
 15 16  1  0  0  0  0
 15 17  1  0  0  0  0
 16 36  1  0  0  0  0
 16 37  1  0  0  0  0
 16 38  1  0  0  0  0
 17 22  2  0  0  0  0
 17 18  1  0  0  0  0
 18 19  2  0  0  0  0
 18 39  1  0  0  0  0
 19 20  1  0  0  0  0
 19 40  1  0  0  0  0
 20 21  2  0  0  0  0
 20 41  1  0  0  0  0
 21 22  1  0  0  0  0
 21 42  1  0  0  0  0
 23 24  2  0  0  0  0
 23 43  1  0  0  0  0
 24 44  1  0  0  0  0
M  END
> <s_m_source_file>
AV-unprocessed.smi

> <i_m_source_file_index>
419

> <i_lp_mmshare_version>
43012

> <i_f3d_flags>
0

> <s_epik_input>
W0NIM11PYzFbY0hdW2NIXWMoW2NIXVtjSF0xKU9bQ0gyXVtDQEhdKFtPSF0pW0NIMl1uKGMoPU8pbjJbQ0gzXSljKGMyMylbY0hdW2NIXVtjSF1bY0hdMw==

> <s_epik_cmdline>
J2VwaWtfcHl0aG9uJywgJy1waCcsICc3LjAnLCAnLXRuJywgJzgnLCAnLW1hJywgJzIwMCcsICctbWV0YWxfYmluZGluZycsICctaW1hZScsICc8aW5maWxlLm1hZT4nLCAnLW9tYWUnLCAnPG91dGZpbGUubWFlPic=

> <r_lp_tautomer_probability>
1

> <r_epik_Ionization_Penalty>
2.40131e-06

> <r_epik_Ionization_Penalty_Charging>
2.01037e-09

> <r_epik_Ionization_Penalty_Neutral>
2.3993e-06

> <r_epik_State_Penalty>
-0

> <r_epik_Charging_Adjusted_Penalty>
2.01037e-09

> <i_epik_Tot_Q>
0

> <i_epik_Tot_abs_Q>
0

> <r_epik_Metal_State_Penalty>
-0

> <b_epik_Metal_Only>
0

> <s_lp_Force_Field>
OPLS_2005

> <r_lp_Energy>
51.0107

> <b_lp_Chiralities_Consistent>
1

> <s_lp_Variant>
AV-unprocessed.smi:419-1

> <Gold.Version>
5.8.1

> <Gold.Id.Protein>
6NUR|6NUR_protein|mol2

> <Gold.PLP.Fitness>
53.3432

> <Gold.PLP.PLP>
-50.4485

> <Gold.PLP.part.hbond>
-2.0000

> <Gold.PLP.part.metal>
0.0000

> <Gold.PLP.part.buried>
-5.0909

> <Gold.PLP.part.nonpolar>
-44.1821

> <Gold.PLP.part.repulsive>
0.2559

> <Gold.PLP.ligand.clash>
0.0000

> <Gold.PLP.ligand.torsion>
1.4475

> <Gold.PLP.Chemscore.Hbond>
1.9000

> <Gold.PLP.Chemscore.CHOScore>
0.0000

> <Gold.PLP.Chemscore.Metal>
0.0000

> <Gold.Chemscore.Hbonds>
donor molecule, donor type, donor heavy atom, donor atom, acceptor molecule, acceptor atom, score
      P1  H  7989  7998       L1     7  0.45
      P1  H  7997  8010       L1    10  1.00

> <Gold.PLP.Chemscore.Internal.Correction>
0.0896

> <Gold.Rescore>
     Score         DG    S(hbond)    S(metal)    S(lipo)     H(rot)  DE(clash)    DE(int)     intcor
     15.70     -17.23       0.96        0.00     125.47       2.40       0.14       1.39       ----

> <Gold.Chemscore.Fitness>
15.7049

> <Gold.Chemscore.DG>
-17.2335

> <Gold.Chemscore.ZeroCoef>
-5.4800

> <Gold.Chemscore.Hbond>
0.9596

> <Gold.Chemscore.Metal>
0.0000

> <Gold.Chemscore.Lipo>
125.4708

> <Gold.Chemscore.Internal_Hbond>
0.0000

> <Gold.Chemscore.DEClash>
0.1421

> <Gold.Chemscore.DEInternal>
1.3865

> <Gold.Chemscore.Rot>
2.3952

> <Gold.Chemscore.Internal.Correction>
   9.000000E+99

> <Gold.Chemscore.Hbonds>
donor molecule, donor type, donor heavy atom, donor atom, acceptor molecule, acceptor atom, score
      P1  H  7989  7998       L1     7  0.01
      P1  H  7997  8010       L1    10  0.82

> <Gold.Chemscore.Hbond.Weighted>
-3.2050

> <Gold.Chemscore.Metal.Weighted>
-0.0000

> <Gold.Chemscore.Lipo.Weighted>
-14.6801

> <Gold.Chemscore.Internal_Hbond.Weighted>
0.0000

> <Gold.Chemscore.DEClash.Weighted>
0.1421

> <Gold.Chemscore.DEInternal.Weighted>
1.3865

> <Gold.Chemscore.Rot.Weighted>
6.1316

> <Gold.Chemscore.Internal.Correction.Weighted>
   9.000000E+99

> <Gold.Protein.RotatedTorsions>
[ 6907 6896 6895 6894 ] final  166.48 input  -60.11 | X-H torsion
[ 7974 7965 7964 7962 ] final -164.29 input  175.53 | X-H torsion
[ 8008 7997 7996 7995 ] final   97.97 input   59.86 | X-H torsion
[ 10167 10162 10161 10158 ] final    2.44 input  -65.29 | X-H torsion
[ 10718 10713 10712 10709 ] final  -42.03 input   66.30 | X-H torsion
[ 10763 10752 10751 10750 ] final  -79.62 input  -60.55 | X-H torsion
[ 11005 11000 10999 10996 ] final  -46.81 input  -57.11 | X-H torsion

> <Gold.Protein.ActiveResidues>
 VAL166  LYS551  ARG553  GLY616  TRP617  ASP618  TYR619  PRO620  LYS621  CYS622 
 ASP623  PHE694  ASN695  SER759  ASP760  ASP761  ALA762  ILE779  LEU786  VAL792 
 PHE793  MET794  SER795  GLU796  ALA797  LYS798  CYS799  TRP800  GLU811  SER814 

> <Gold.Protein.RotatedAtoms>
  151.8783  133.3490  159.3757 H   0  0  0  0  0  0  0  0  0  0  0  0  # atno 6907 bound_to 6896
  150.7134  134.5044  159.5586 H   0  0  0  0  0  0  0  0  0  0  0  0  # atno 6908 bound_to 6896
  152.2591  134.8054  160.0484 H   0  0  0  0  0  0  0  0  0  0  0  0  # atno 6909 bound_to 6896
  144.7301  140.2983  143.6209 H   0  0  0  0  0  0  0  0  0  0  0  0  # atno 7974 bound_to 7965
  156.0957  140.3250  155.7874 H   0  0  0  0  0  0  0  0  0  0  0  0  # atno 8008 bound_to 7997
  155.4922  140.0562  157.2969 H   0  0  0  0  0  0  0  0  0  0  0  0  # atno 8009 bound_to 7997
  154.4665  140.1991  156.0121 H   0  0  0  0  0  0  0  0  0  0  0  0  # atno 8010 bound_to 7997
  140.6635  143.7241  150.7783 H   0  0  0  0  0  0  0  0  0  0  0  0  # atno 10167 bound_to 10162
  156.2639  130.4200  149.8511 H   0  0  0  0  0  0  0  0  0  0  0  0  # atno 10718 bound_to 10713
  154.5409  135.5689  153.6839 H   0  0  0  0  0  0  0  0  0  0  0  0  # atno 10763 bound_to 10752
  152.9963  135.6227  154.2503 H   0  0  0  0  0  0  0  0  0  0  0  0  # atno 10764 bound_to 10752
  154.2433  135.2861  155.2825 H   0  0  0  0  0  0  0  0  0  0  0  0  # atno 10765 bound_to 10752
  141.0602  133.6712  156.3208 H   0  0  0  0  0  0  0  0  0  0  0  0  # atno 11005 bound_to 11000
  145.7786  139.1883  143.2171 LP  0  0  0  0  0  0  0  0  0  0  0  0  # atno 17320 bound_to 7965
  146.0852  140.7718  142.9622 LP  0  0  0  0  0  0  0  0  0  0  0  0  # atno 17321 bound_to 7965
  140.0914  143.4874  152.2476 LP  0  0  0  0  0  0  0  0  0  0  0  0  # atno 17342 bound_to 10162
  139.5876  144.7537  151.3481 LP  0  0  0  0  0  0  0  0  0  0  0  0  # atno 17343 bound_to 10162
  156.6017  130.8549  151.3433 LP  0  0  0  0  0  0  0  0  0  0  0  0  # atno 17370 bound_to 10713
  157.7260  130.9624  150.1640 LP  0  0  0  0  0  0  0  0  0  0  0  0  # atno 17371 bound_to 10713
  140.5884  134.5675  157.5494 LP  0  0  0  0  0  0  0  0  0  0  0  0  # atno 17394 bound_to 11000
  139.9426  134.7760  156.0642 LP  0  0  0  0  0  0  0  0  0  0  0  0  # atno 17395 bound_to 11000

$$$$
