AV-unprocessed.smi:260|AV-procd|sdf|1976|dock8
  -GOLD-   2262021143D 1   1.00000     0.00000
 Structure written by MMmdl.
 53 56  0  0  0  0  0  0  0  0  1 V2000
  158.0639  134.6000  165.8443 C   0  0  0  0  0  0  0  0  0  0  0  0
  156.6837  134.5140  165.3927 N   0  0  0  0  0  0  0  0  0  0  0  0
  156.2454  133.6663  164.4482 C   0  0  0  0  0  0  0  0  0  0  0  0
  157.0035  132.8845  163.8722 O   0  0  0  0  0  0  0  0  0  0  0  0
  154.7396  133.6829  164.0745 C   0  0  2  0  0  0  0  0  0  0  0  0
  153.9076  133.3561  165.3304 C   0  0  0  0  0  0  0  0  0  0  0  0
  154.3688  132.7679  162.8846 C   0  0  0  0  0  0  0  0  0  0  0  0
  154.6854  133.5951  161.6319 C   0  0  0  0  0  0  0  0  0  0  0  0
  154.6787  134.9822  162.0723 N   0  0  0  0  0  0  0  0  0  0  0  0
  154.4093  136.0057  161.2208 C   0  0  0  0  0  0  0  0  0  0  0  0
  153.8819  135.7150  160.0020 N   0  0  0  0  0  0  0  0  0  0  0  0
  153.5970  136.6895  159.1343 C   0  0  0  0  0  0  0  0  0  0  0  0
  153.7557  138.0057  159.2776 N   0  0  0  0  0  0  0  0  0  0  0  0
  154.2772  138.3099  160.5000 C   0  0  0  0  0  0  0  0  0  0  0  0
  154.6263  137.3827  161.5246 C   0  0  0  0  0  0  0  0  0  0  0  0
  155.1087  138.0737  162.6312 N   0  0  0  0  0  0  0  0  0  0  0  0
  155.0589  139.3283  162.2784 C   0  0  0  0  0  0  0  0  0  0  0  0
  154.5885  139.5601  161.0064 N   0  0  0  0  0  0  0  0  0  0  0  0
  154.4200  140.8538  160.3665 C   0  0  0  0  0  0  0  0  0  0  0  0
  152.9430  141.2349  160.1132 C   0  0  2  0  0  0  0  0  0  0  0  0
  152.4598  140.2964  159.1734 O   0  0  0  0  0  0  0  0  0  0  0  0
  152.7155  142.6405  159.5104 C   0  0  2  0  0  0  0  0  0  0  0  0
  152.9584  143.8252  160.4490 C   0  0  0  0  0  0  0  0  0  0  0  0
  152.0845  144.9309  159.8797 C   0  0  0  0  0  0  0  0  0  0  0  0
  151.1103  144.1917  158.9618 C   0  0  0  0  0  0  0  0  0  0  0  0
  151.3348  142.8143  159.2248 O   0  0  0  0  0  0  0  0  0  0  0  0
  154.3638  135.0596  163.4937 C   0  0  0  0  0  0  0  0  0  0  0  0
  158.1557  135.3646  166.6154 H   0  0  0  0  0  0  0  0  0  0  0  0
  158.7270  134.8655  165.0201 H   0  0  0  0  0  0  0  0  0  0  0  0
  158.3940  133.6496  166.2649 H   0  0  0  0  0  0  0  0  0  0  0  0
  156.0150  135.1316  165.8298 H   0  0  0  0  0  0  0  0  0  0  0  0
  152.8383  133.4039  165.1218 H   0  0  0  0  0  0  0  0  0  0  0  0
  154.1073  134.0567  166.1423 H   0  0  0  0  0  0  0  0  0  0  0  0
  154.1234  132.3517  165.6969 H   0  0  0  0  0  0  0  0  0  0  0  0
  154.8620  131.7953  162.8839 H   0  0  0  0  0  0  0  0  0  0  0  0
  153.2971  132.5650  162.9041 H   0  0  0  0  0  0  0  0  0  0  0  0
  155.6751  133.3510  161.2450 H   0  0  0  0  0  0  0  0  0  0  0  0
  153.9519  133.4074  160.8471 H   0  0  0  0  0  0  0  0  0  0  0  0
  153.1834  136.3676  158.1899 H   0  0  0  0  0  0  0  0  0  0  0  0
  155.3701  140.1238  162.9401 H   0  0  0  0  0  0  0  0  0  0  0  0
  154.9139  141.6213  160.9635 H   0  0  0  0  0  0  0  0  0  0  0  0
  154.9595  140.8072  159.4193 H   0  0  0  0  0  0  0  0  0  0  0  0
  152.3652  141.1217  161.0311 H   0  0  0  0  0  0  0  0  0  0  0  0
  152.0001  139.6148  159.6393 H   0  0  0  0  0  0  0  0  0  0  0  0
  153.2990  142.7720  158.5968 H   0  0  0  0  0  0  0  0  0  0  0  0
  152.6219  143.5843  161.4582 H   0  0  0  0  0  0  0  0  0  0  0  0
  154.0073  144.1151  160.4987 H   0  0  0  0  0  0  0  0  0  0  0  0
  151.5668  145.4691  160.6742 H   0  0  0  0  0  0  0  0  0  0  0  0
  152.6733  145.6519  159.3117 H   0  0  0  0  0  0  0  0  0  0  0  0
  150.0708  144.4611  159.1489 H   0  0  0  0  0  0  0  0  0  0  0  0
  151.3344  144.4001  157.9146 H   0  0  0  0  0  0  0  0  0  0  0  0
  153.2976  135.2559  163.6168 H   0  0  0  0  0  0  0  0  0  0  0  0
  154.9078  135.8768  163.9699 H   0  0  0  0  0  0  0  0  0  0  0  0
  1  2  1  0  0  0  0
  1 28  1  0  0  0  0
  1 29  1  0  0  0  0
  1 30  1  0  0  0  0
  2  3  1  0  0  0  0
  2 31  1  0  0  0  0
  3  4  2  0  0  0  0
  3  5  1  0  0  0  0
  5 27  1  0  0  0  0
  5  6  1  0  0  0  0
  5  7  1  0  0  0  0
  6 32  1  0  0  0  0
  6 33  1  0  0  0  0
  6 34  1  0  0  0  0
  7  8  1  0  0  0  0
  7 35  1  0  0  0  0
  7 36  1  0  0  0  0
  8  9  1  0  0  0  0
  8 37  1  0  0  0  0
  8 38  1  0  0  0  0
  9 10  1  0  0  0  0
  9 27  1  0  0  0  0
 10 15  1  0  0  0  0
 10 11  2  0  0  0  0
 11 12  1  0  0  0  0
 12 13  2  0  0  0  0
 12 39  1  0  0  0  0
 13 14  1  0  0  0  0
 14 18  1  0  0  0  0
 14 15  2  0  0  0  0
 15 16  1  0  0  0  0
 16 17  2  0  0  0  0
 17 18  1  0  0  0  0
 17 40  1  0  0  0  0
 18 19  1  0  0  0  0
 19 20  1  0  0  0  0
 19 41  1  0  0  0  0
 19 42  1  0  0  0  0
 20 21  1  0  0  0  0
 20 22  1  0  0  0  0
 20 43  1  0  0  0  0
 21 44  1  0  0  0  0
 22 26  1  0  0  0  0
 22 23  1  0  0  0  0
 22 45  1  0  0  0  0
 23 24  1  0  0  0  0
 23 46  1  0  0  0  0
 23 47  1  0  0  0  0
 24 25  1  0  0  0  0
 24 48  1  0  0  0  0
 24 49  1  0  0  0  0
 25 26  1  0  0  0  0
 25 50  1  0  0  0  0
 25 51  1  0  0  0  0
 27 52  1  0  0  0  0
 27 53  1  0  0  0  0
M  END
> <s_m_source_file>
AV-unprocessed.smi

> <i_m_source_file_index>
260

> <i_lp_mmshare_version>
43012

> <i_f3d_flags>
0

> <s_epik_input>
W0NIM11bTkhdQyg9TylbQ0BAXTEoW0NIM10pW0NIMl1bQ0gyXU4oW0NIMl0xKWMobltjSF1uMiljKGMyMyluW2NIXW4zW0NIMl1bQ0BIXShbT0hdKVtDQEBIXTRbQ0gyXVtDSDJdW0NIMl1PNA==

> <s_epik_cmdline>
J2VwaWtfcHl0aG9uJywgJy1waCcsICc3LjAnLCAnLXRuJywgJzgnLCAnLW1hJywgJzIwMCcsICctbWV0YWxfYmluZGluZycsICctaW1hZScsICc8aW5maWxlLm1hZT4nLCAnLW9tYWUnLCAnPG91dGZpbGUubWFlPic=

> <r_lp_tautomer_probability>
1

> <r_epik_Ionization_Penalty>
0.00115068

> <r_epik_Ionization_Penalty_Charging>
0

> <r_epik_Ionization_Penalty_Neutral>
0.00115068

> <r_epik_State_Penalty>
0.000668876

> <r_epik_Charging_Adjusted_Penalty>
0.000668876

> <i_epik_Tot_Q>
0

> <i_epik_Tot_abs_Q>
0

> <r_epik_Metal_State_Penalty>
-0

> <b_epik_Metal_Only>
0

> <s_lp_Force_Field>
OPLS_2005

> <r_lp_Energy>
52.371

> <b_lp_Chiralities_Consistent>
1

> <s_lp_Variant>
AV-unprocessed.smi:260-2

> <Gold.Version>
5.8.1

> <Gold.Id.Protein>
6NUR|6NUR_protein|mol2

> <Gold.PLP.Fitness>
48.6258

> <Gold.PLP.PLP>
-46.3452

> <Gold.PLP.part.hbond>
-1.9725

> <Gold.PLP.part.metal>
0.0000

> <Gold.PLP.part.buried>
-5.1865

> <Gold.PLP.part.nonpolar>
-38.7799

> <Gold.PLP.part.repulsive>
0.0673

> <Gold.PLP.ligand.clash>
0.0000

> <Gold.PLP.ligand.torsion>
0.5301

> <Gold.PLP.Chemscore.Hbond>
1.0000

> <Gold.PLP.Chemscore.CHOScore>
0.0000

> <Gold.PLP.Chemscore.Metal>
0.0000

> <Gold.Chemscore.Hbonds>
donor molecule, donor type, donor heavy atom, donor atom, acceptor molecule, acceptor atom, score
      P1  H  6896  6907       L1    11  1.00

> <Gold.PLP.Chemscore.Internal.Correction>
0.3408

> <Gold.Rescore>
     Score         DG    S(hbond)    S(metal)    S(lipo)     H(rot)  DE(clash)    DE(int)     intcor
     12.94     -13.61       0.63        0.00     106.71       2.53       0.04       0.63       ----

> <Gold.Chemscore.Fitness>
12.9423

> <Gold.Chemscore.DG>
-13.6088

> <Gold.Chemscore.ZeroCoef>
-5.4800

> <Gold.Chemscore.Hbond>
0.6318

> <Gold.Chemscore.Metal>
0.0000

> <Gold.Chemscore.Lipo>
106.7090

> <Gold.Chemscore.Internal_Hbond>
0.0000

> <Gold.Chemscore.DEClash>
0.0405

> <Gold.Chemscore.DEInternal>
0.6261

> <Gold.Chemscore.Rot>
2.5259

> <Gold.Chemscore.Internal.Correction>
   9.000000E+99

> <Gold.Chemscore.Hbonds>
donor molecule, donor type, donor heavy atom, donor atom, acceptor molecule, acceptor atom, score
      P1  H  6896  6907       L1    11  0.46

> <Gold.Chemscore.Hbond.Weighted>
-2.1102

> <Gold.Chemscore.Metal.Weighted>
-0.0000

> <Gold.Chemscore.Lipo.Weighted>
-12.4850

> <Gold.Chemscore.Internal_Hbond.Weighted>
0.0000

> <Gold.Chemscore.DEClash.Weighted>
0.0405

> <Gold.Chemscore.DEInternal.Weighted>
0.6261

> <Gold.Chemscore.Rot.Weighted>
6.4663

> <Gold.Chemscore.Internal.Correction.Weighted>
   9.000000E+99

> <Gold.Protein.RotatedTorsions>
[ 6907 6896 6895 6894 ] final   60.41 input  -60.11 | X-H torsion
[ 7974 7965 7964 7962 ] final  -46.23 input  175.53 | X-H torsion
[ 8008 7997 7996 7995 ] final  -52.76 input   59.86 | X-H torsion
[ 10167 10162 10161 10158 ] final  121.43 input  -65.29 | X-H torsion
[ 10718 10713 10712 10709 ] final  -47.20 input   66.30 | X-H torsion
[ 10763 10752 10751 10750 ] final  -11.07 input  -60.55 | X-H torsion
[ 11005 11000 10999 10996 ] final  -47.63 input  -57.11 | X-H torsion

> <Gold.Protein.ActiveResidues>
 VAL166  LYS551  ARG553  GLY616  TRP617  ASP618  TYR619  PRO620  LYS621  CYS622 
 ASP623  PHE694  ASN695  SER759  ASP760  ASP761  ALA762  ILE779  LEU786  VAL792 
 PHE793  MET794  SER795  GLU796  ALA797  LYS798  CYS799  TRP800  GLU811  SER814 

> <Gold.Protein.RotatedAtoms>
  152.4000  134.6301  160.0073 H   0  0  0  0  0  0  0  0  0  0  0  0  # atno 6907 bound_to 6896
  151.6509  133.3315  159.3160 H   0  0  0  0  0  0  0  0  0  0  0  0  # atno 6908 bound_to 6896
  150.7902  134.6962  159.6569 H   0  0  0  0  0  0  0  0  0  0  0  0  # atno 6909 bound_to 6896
  145.9740  140.7353  142.9396 H   0  0  0  0  0  0  0  0  0  0  0  0  # atno 7974 bound_to 7965
  154.4115  140.1216  156.5044 H   0  0  0  0  0  0  0  0  0  0  0  0  # atno 8008 bound_to 7997
  155.6862  140.3496  155.4855 H   0  0  0  0  0  0  0  0  0  0  0  0  # atno 8009 bound_to 7997
  155.9509  140.1104  157.0968 H   0  0  0  0  0  0  0  0  0  0  0  0  # atno 8010 bound_to 7997
  139.5920  144.7028  151.3267 H   0  0  0  0  0  0  0  0  0  0  0  0  # atno 10167 bound_to 10162
  156.2107  130.4160  149.9118 H   0  0  0  0  0  0  0  0  0  0  0  0  # atno 10718 bound_to 10713
  153.4784  135.7017  153.5952 H   0  0  0  0  0  0  0  0  0  0  0  0  # atno 10763 bound_to 10752
  153.4176  135.3833  155.2091 H   0  0  0  0  0  0  0  0  0  0  0  0  # atno 10764 bound_to 10752
  154.8722  135.3920  154.4230 H   0  0  0  0  0  0  0  0  0  0  0  0  # atno 10765 bound_to 10752
  141.0652  133.6696  156.3325 H   0  0  0  0  0  0  0  0  0  0  0  0  # atno 11005 bound_to 11000
  144.6844  140.2797  143.7294 LP  0  0  0  0  0  0  0  0  0  0  0  0  # atno 17320 bound_to 7965
  145.7865  139.1910  143.2128 LP  0  0  0  0  0  0  0  0  0  0  0  0  # atno 17321 bound_to 7965
  140.7181  143.7211  150.7695 LP  0  0  0  0  0  0  0  0  0  0  0  0  # atno 17342 bound_to 10162
  140.0769  143.5006  152.2551 LP  0  0  0  0  0  0  0  0  0  0  0  0  # atno 17343 bound_to 10162
  156.6797  130.8853  151.3574 LP  0  0  0  0  0  0  0  0  0  0  0  0  # atno 17370 bound_to 10713
  157.7037  130.9361  150.0864 LP  0  0  0  0  0  0  0  0  0  0  0  0  # atno 17371 bound_to 10713
  140.5787  134.5767  157.5474 LP  0  0  0  0  0  0  0  0  0  0  0  0  # atno 17394 bound_to 11000
  139.9470  134.7685  156.0539 LP  0  0  0  0  0  0  0  0  0  0  0  0  # atno 17395 bound_to 11000

$$$$
