AV-unprocessed.smi:2990|AV-procd|sdf|11395|dock4
  -GOLD-   2272016323D 1   1.00000     0.00000
 Structure written by MMmdl.
 40 42  0  0  0  0  0  0  0  0  2 V2000
  150.1767  140.6396  155.5445 C   0  0  0  0  0  0  0  0  0  0  0  0
  150.7712  141.5113  156.5991 C   0  0  0  0  0  0  0  0  0  0  0  0
  150.6876  142.8702  156.6585 N   0  3  0  0  0  0  0  0  0  0  0  0
  151.3649  143.3362  157.7863 C   0  0  0  0  0  0  0  0  0  0  0  0
  151.5546  144.6290  158.2648 C   0  0  0  0  0  0  0  0  0  0  0  0
  152.2969  144.7602  159.4569 C   0  0  0  0  0  0  0  0  0  0  0  0
  152.8166  143.6328  160.1254 C   0  0  0  0  0  0  0  0  0  0  0  0
  152.6197  142.3272  159.6292 C   0  0  0  0  0  0  0  0  0  0  0  0
  151.8865  142.2057  158.4488 C   0  0  0  0  0  0  0  0  0  0  0  0
  151.4976  141.1028  157.6783 N   0  0  0  0  0  0  0  0  0  0  0  0
  151.8901  139.7454  158.0907 C   0  0  0  0  0  0  0  0  0  0  0  0
  150.7728  138.7058  157.8718 C   0  0  2  0  0  0  0  0  0  0  0  0
  149.6493  139.0225  158.6689 O   0  0  0  0  0  0  0  0  0  0  0  0
  151.2211  137.2764  158.2096 C   0  0  0  0  0  0  0  0  0  0  0  0
  151.5981  137.2242  159.5791 O   0  0  0  0  0  0  0  0  0  0  0  0
  152.9194  137.4465  159.9019 C   0  0  0  0  0  0  0  0  0  0  0  0
  153.2614  137.3878  161.2688 C   0  0  0  0  0  0  0  0  0  0  0  0
  154.5872  137.6059  161.6905 C   0  0  0  0  0  0  0  0  0  0  0  0
  155.5893  137.8872  160.7439 C   0  0  0  0  0  0  0  0  0  0  0  0
  155.2627  137.9474  159.3765 C   0  0  0  0  0  0  0  0  0  0  0  0
  153.9366  137.7281  158.9544 C   0  0  0  0  0  0  0  0  0  0  0  0
  149.6201  141.2369  154.8220 H   0  0  0  0  0  0  0  0  0  0  0  0
  149.4962  139.9159  155.9934 H   0  0  0  0  0  0  0  0  0  0  0  0
  150.9627  140.0993  155.0167 H   0  0  0  0  0  0  0  0  0  0  0  0
  151.1557  145.4940  157.7553 H   0  0  0  0  0  0  0  0  0  0  0  0
  152.4694  145.7447  159.8673 H   0  0  0  0  0  0  0  0  0  0  0  0
  153.3776  143.7717  161.0384 H   0  0  0  0  0  0  0  0  0  0  0  0
  153.0175  141.4707  160.1532 H   0  0  0  0  0  0  0  0  0  0  0  0
  152.7688  139.4755  157.5039 H   0  0  0  0  0  0  0  0  0  0  0  0
  152.2184  139.7629  159.1300 H   0  0  0  0  0  0  0  0  0  0  0  0
  150.4494  138.7348  156.8305 H   0  0  0  0  0  0  0  0  0  0  0  0
  149.0962  138.2582  158.7245 H   0  0  0  0  0  0  0  0  0  0  0  0
  150.4149  136.5700  158.0033 H   0  0  0  0  0  0  0  0  0  0  0  0
  152.0768  137.0068  157.5877 H   0  0  0  0  0  0  0  0  0  0  0  0
  152.4985  137.1729  162.0025 H   0  0  0  0  0  0  0  0  0  0  0  0
  154.8341  137.5577  162.7407 H   0  0  0  0  0  0  0  0  0  0  0  0
  156.6060  138.0566  161.0662 H   0  0  0  0  0  0  0  0  0  0  0  0
  156.0313  138.1633  158.6491 H   0  0  0  0  0  0  0  0  0  0  0  0
  153.7262  137.7835  157.8973 H   0  0  0  0  0  0  0  0  0  0  0  0
  150.2010  143.4363  155.9753 H   0  0  0  0  0  0  0  0  0  0  0  0
  1  2  1  0  0  0  0
  1 22  1  0  0  0  0
  1 23  1  0  0  0  0
  1 24  1  0  0  0  0
  2 10  1  0  0  0  0
  2  3  2  0  0  0  0
  3  4  1  0  0  0  0
  3 40  1  0  0  0  0
  4  9  2  0  0  0  0
  4  5  1  0  0  0  0
  5  6  2  0  0  0  0
  5 25  1  0  0  0  0
  6  7  1  0  0  0  0
  6 26  1  0  0  0  0
  7  8  2  0  0  0  0
  7 27  1  0  0  0  0
  8  9  1  0  0  0  0
  8 28  1  0  0  0  0
  9 10  1  0  0  0  0
 10 11  1  0  0  0  0
 11 12  1  0  0  0  0
 11 29  1  0  0  0  0
 11 30  1  0  0  0  0
 12 13  1  0  0  0  0
 12 14  1  0  0  0  0
 12 31  1  0  0  0  0
 13 32  1  0  0  0  0
 14 15  1  0  0  0  0
 14 33  1  0  0  0  0
 14 34  1  0  0  0  0
 15 16  1  0  0  0  0
 16 21  1  0  0  0  0
 16 17  2  0  0  0  0
 17 18  1  0  0  0  0
 17 35  1  0  0  0  0
 18 19  2  0  0  0  0
 18 36  1  0  0  0  0
 19 20  1  0  0  0  0
 19 37  1  0  0  0  0
 20 21  2  0  0  0  0
 20 38  1  0  0  0  0
 21 39  1  0  0  0  0
M  CHG  1   3   1
M  END
> <s_m_source_file>
AV-unprocessed.smi

> <i_m_source_file_index>
2990

> <i_lp_mmshare_version>
43012

> <i_f3d_flags>
0

> <s_epik_input>
W2NIXTFbY0hdW2NIXVtjSF1jKGMxMiluKGMobjIpW0NIM10pW0NIMl1bQ0BIXShbT0hdKVtDSDJdT2MzW2NIXVtjSF1bY0hdW2NIXVtjSF0z

> <s_epik_cmdline>
J2VwaWtfcHl0aG9uJywgJy1waCcsICc3LjAnLCAnLXRuJywgJzgnLCAnLW1hJywgJzIwMCcsICctbWV0YWxfYmluZGluZycsICctaW1hZScsICc8aW5maWxlLm1hZT4nLCAnLW9tYWUnLCAnPG91dGZpbGUubWFlPic=

> <r_lp_tautomer_probability>
1

> <r_epik_Ionization_Penalty>
1.00673

> <r_epik_Ionization_Penalty_Charging>
1.00673

> <r_epik_Ionization_Penalty_Neutral>
2.3993e-06

> <r_epik_State_Penalty>
1.05579

> <r_epik_Charging_Adjusted_Penalty>
2.06252

> <i_epik_Tot_Q>
1

> <i_epik_Tot_abs_Q>
1

> <r_epik_Metal_State_Penalty>
5.03947

> <b_epik_Metal_Only>
0

> <s_lp_Force_Field>
OPLS_2005

> <r_lp_Energy>
19.3411

> <b_lp_Chiralities_Consistent>
1

> <s_lp_Variant>
AV-unprocessed.smi:2990-3

> <Gold.Version>
5.8.1

> <Gold.Id.Protein>
6NUR|6NUR_protein|mol2

> <Gold.PLP.Fitness>
48.4482

> <Gold.PLP.PLP>
-40.6958

> <Gold.PLP.part.hbond>
-1.9481

> <Gold.PLP.part.metal>
0.0000

> <Gold.PLP.part.buried>
-6.2286

> <Gold.PLP.part.nonpolar>
-33.8056

> <Gold.PLP.part.repulsive>
0.0490

> <Gold.PLP.ligand.clash>
0.0000

> <Gold.PLP.ligand.torsion>
0.5031

> <Gold.PLP.Chemscore.Hbond>
2.8938

> <Gold.PLP.Chemscore.CHOScore>
0.0000

> <Gold.PLP.Chemscore.Metal>
0.0000

> <Gold.Chemscore.Hbonds>
donor molecule, donor type, donor heavy atom, donor atom, acceptor molecule, acceptor atom, score
      L1  H     3    40       P1  8028  1.89
      P1  H  6896  6909       L1    15  0.81

> <Gold.PLP.Chemscore.Internal.Correction>
0.0773

> <Gold.Rescore>
     Score         DG    S(hbond)    S(metal)    S(lipo)     H(rot)  DE(clash)    DE(int)     intcor
     16.73     -17.25       1.16        0.00     113.88       2.12       0.00       0.52       ----

> <Gold.Chemscore.Fitness>
16.7279

> <Gold.Chemscore.DG>
-17.2522

> <Gold.Chemscore.ZeroCoef>
-5.4800

> <Gold.Chemscore.Hbond>
1.1591

> <Gold.Chemscore.Metal>
0.0000

> <Gold.Chemscore.Lipo>
113.8809

> <Gold.Chemscore.Internal_Hbond>
0.0000

> <Gold.Chemscore.DEClash>
0.0000

> <Gold.Chemscore.DEInternal>
0.5243

> <Gold.Chemscore.Rot>
2.1184

> <Gold.Chemscore.Internal.Correction>
   9.000000E+99

> <Gold.Chemscore.Hbonds>
donor molecule, donor type, donor heavy atom, donor atom, acceptor molecule, acceptor atom, score
      L1  H     3    40       P1  8028  0.91
      P1  H  6896  6909       L1    15  0.08

> <Gold.Chemscore.Hbond.Weighted>
-3.8712

> <Gold.Chemscore.Metal.Weighted>
-0.0000

> <Gold.Chemscore.Lipo.Weighted>
-13.3241

> <Gold.Chemscore.Internal_Hbond.Weighted>
0.0000

> <Gold.Chemscore.DEClash.Weighted>
0.0000

> <Gold.Chemscore.DEInternal.Weighted>
0.5243

> <Gold.Chemscore.Rot.Weighted>
5.4231

> <Gold.Chemscore.Internal.Correction.Weighted>
   9.000000E+99

> <Gold.Protein.RotatedTorsions>
[ 6907 6896 6895 6894 ] final  107.61 input  -60.11 | X-H torsion
[ 7974 7965 7964 7962 ] final  -89.50 input  175.53 | X-H torsion
[ 8008 7997 7996 7995 ] final -148.79 input   59.86 | X-H torsion
[ 10167 10162 10161 10158 ] final  135.74 input  -65.29 | X-H torsion
[ 10718 10713 10712 10709 ] final  121.31 input   66.30 | X-H torsion
[ 10763 10752 10751 10750 ] final -168.27 input  -60.55 | X-H torsion
[ 11005 11000 10999 10996 ] final -125.73 input  -57.11 | X-H torsion

> <Gold.Protein.ActiveResidues>
 VAL166  LYS551  ARG553  GLY616  TRP617  ASP618  TYR619  PRO620  LYS621  CYS622 
 ASP623  PHE694  ASN695  SER759  ASP760  ASP761  ALA762  ILE779  LEU786  VAL792 
 PHE793  MET794  SER795  GLU796  ALA797  LYS798  CYS799  TRP800  GLU811  SER814 

> <Gold.Protein.RotatedAtoms>
  152.5147  133.9209  159.7533 H   0  0  0  0  0  0  0  0  0  0  0  0  # atno 6907 bound_to 6896
  150.9581  133.6466  159.2766 H   0  0  0  0  0  0  0  0  0  0  0  0  # atno 6908 bound_to 6896
  151.3721  135.0929  159.9521 H   0  0  0  0  0  0  0  0  0  0  0  0  # atno 6909 bound_to 6896
  145.4389  140.9558  143.2086 H   0  0  0  0  0  0  0  0  0  0  0  0  # atno 7974 bound_to 7965
  155.5973  140.0658  157.2742 H   0  0  0  0  0  0  0  0  0  0  0  0  # atno 8008 bound_to 7997
  154.4288  140.1824  156.1184 H   0  0  0  0  0  0  0  0  0  0  0  0  # atno 8009 bound_to 7997
  156.0186  140.3319  155.7019 H   0  0  0  0  0  0  0  0  0  0  0  0  # atno 8010 bound_to 7997
  139.5206  144.6501  151.5327 H   0  0  0  0  0  0  0  0  0  0  0  0  # atno 10167 bound_to 10162
  157.5827  131.1073  150.8156 H   0  0  0  0  0  0  0  0  0  0  0  0  # atno 10718 bound_to 10713
  154.6646  135.2930  154.9822 H   0  0  0  0  0  0  0  0  0  0  0  0  # atno 10763 bound_to 10752
  154.0870  135.6596  153.4850 H   0  0  0  0  0  0  0  0  0  0  0  0  # atno 10764 bound_to 10752
  153.0450  135.5211  154.7613 H   0  0  0  0  0  0  0  0  0  0  0  0  # atno 10765 bound_to 10752
  140.9738  134.0768  157.3840 H   0  0  0  0  0  0  0  0  0  0  0  0  # atno 11005 bound_to 11000
  144.8134  139.5921  143.7019 LP  0  0  0  0  0  0  0  0  0  0  0  0  # atno 17320 bound_to 7965
  146.2567  139.6317  142.9390 LP  0  0  0  0  0  0  0  0  0  0  0  0  # atno 17321 bound_to 7965
  140.6302  143.9090  150.6599 LP  0  0  0  0  0  0  0  0  0  0  0  0  # atno 17342 bound_to 10162
  140.2392  143.3676  152.1501 LP  0  0  0  0  0  0  0  0  0  0  0  0  # atno 17343 bound_to 10162
  156.8598  130.5109  149.5304 LP  0  0  0  0  0  0  0  0  0  0  0  0  # atno 17370 bound_to 10713
  156.0874  130.5869  150.9672 LP  0  0  0  0  0  0  0  0  0  0  0  0  # atno 17371 bound_to 10713
  139.8922  135.0123  156.6836 LP  0  0  0  0  0  0  0  0  0  0  0  0  # atno 17394 bound_to 11000
  140.7289  133.9076  155.8197 LP  0  0  0  0  0  0  0  0  0  0  0  0  # atno 17395 bound_to 11000

$$$$
