AV-unprocessed.smi:1460|AV-procd|sdf|5929|dock3
  -GOLD-   22720 6 13D 1   1.00000     0.00000
 Structure written by MMmdl.
 41 42  0  0  0  0  0  0  0  0  1 V2000
  150.4773  141.9466  155.9158 C   0  0  0  0  0  0  0  0  0  0  0  0
  151.1754  140.8576  156.7412 C   0  0  1  0  0  0  0  0  0  0  0  0
  151.0228  141.1164  158.2559 C   0  0  0  0  0  0  0  0  0  0  0  0
  151.5769  142.3945  158.6672 N   0  0  0  0  0  0  0  0  0  0  0  0
  151.1989  143.6606  158.2712 C   0  0  0  0  0  0  0  0  0  0  0  0
  151.9916  144.5486  158.9400 C   0  0  0  0  0  0  0  0  0  0  0  0
  152.8380  143.7189  159.7275 C   0  0  0  0  0  0  0  0  0  0  0  0
  152.5903  142.4302  159.5589 N   0  0  0  0  0  0  0  0  0  0  0  0
  150.6170  139.5557  156.3770 N   0  0  0  0  0  0  0  0  0  0  0  0
  150.3534  139.1367  155.1285 C   0  0  0  0  0  0  0  0  0  0  0  0
  150.5329  139.8322  154.1283 O   0  0  0  0  0  0  0  0  0  0  0  0
  149.8245  137.7044  154.9869 C   0  0  0  0  0  0  0  0  0  0  0  0
  148.4650  137.5483  155.7079 C   0  0  0  0  0  0  0  0  0  0  0  0
  147.9897  136.0841  155.6866 C   0  0  0  0  0  0  0  0  0  0  0  0
  149.0281  135.2379  156.2983 N   0  0  0  0  0  0  0  0  0  0  0  0
  148.9757  134.6705  157.5299 C   0  0  0  0  0  0  0  0  0  0  0  0
  147.8618  134.9187  158.2260 N   0  0  0  0  0  0  0  0  0  0  0  0
  149.8549  133.9408  157.9851 O   0  0  0  0  0  0  0  0  0  0  0  0
  150.2627  135.2524  155.5040 C   0  0  0  0  0  0  0  0  0  0  0  0
  150.8499  136.6751  155.5163 C   0  0  0  0  0  0  0  0  0  0  0  0
  150.8889  142.9312  156.1396 H   0  0  0  0  0  0  0  0  0  0  0  0
  149.4071  141.9790  156.1225 H   0  0  0  0  0  0  0  0  0  0  0  0
  150.6061  141.7728  154.8470 H   0  0  0  0  0  0  0  0  0  0  0  0
  152.2357  140.8910  156.4834 H   0  0  0  0  0  0  0  0  0  0  0  0
  149.9681  141.1021  158.5345 H   0  0  0  0  0  0  0  0  0  0  0  0
  151.5054  140.3248  158.8307 H   0  0  0  0  0  0  0  0  0  0  0  0
  150.4003  143.8220  157.5624 H   0  0  0  0  0  0  0  0  0  0  0  0
  151.9693  145.6264  158.8784 H   0  0  0  0  0  0  0  0  0  0  0  0
  153.6200  144.0126  160.4118 H   0  0  0  0  0  0  0  0  0  0  0  0
  150.4345  138.9143  157.1352 H   0  0  0  0  0  0  0  0  0  0  0  0
  149.6641  137.4972  153.9272 H   0  0  0  0  0  0  0  0  0  0  0  0
  148.5428  137.8833  156.7436 H   0  0  0  0  0  0  0  0  0  0  0  0
  147.7160  138.1844  155.2343 H   0  0  0  0  0  0  0  0  0  0  0  0
  147.0160  136.0082  156.1701 H   0  0  0  0  0  0  0  0  0  0  0  0
  147.8266  135.7610  154.6573 H   0  0  0  0  0  0  0  0  0  0  0  0
  147.7495  134.5321  159.1516 H   0  0  0  0  0  0  0  0  0  0  0  0
  147.1380  135.4941  157.8209 H   0  0  0  0  0  0  0  0  0  0  0  0
  151.0045  134.5397  155.8675 H   0  0  0  0  0  0  0  0  0  0  0  0
  150.0383  134.9473  154.4807 H   0  0  0  0  0  0  0  0  0  0  0  0
  151.7560  136.7034  154.9096 H   0  0  0  0  0  0  0  0  0  0  0  0
  151.1521  136.9263  156.5343 H   0  0  0  0  0  0  0  0  0  0  0  0
  1  2  1  0  0  0  0
  1 21  1  0  0  0  0
  1 22  1  0  0  0  0
  1 23  1  0  0  0  0
  2  3  1  0  0  0  0
  2  9  1  0  0  0  0
  2 24  1  0  0  0  0
  3  4  1  0  0  0  0
  3 25  1  0  0  0  0
  3 26  1  0  0  0  0
  4  8  1  0  0  0  0
  4  5  1  0  0  0  0
  5  6  2  0  0  0  0
  5 27  1  0  0  0  0
  6  7  1  0  0  0  0
  6 28  1  0  0  0  0
  7  8  2  0  0  0  0
  7 29  1  0  0  0  0
  9 10  1  0  0  0  0
  9 30  1  0  0  0  0
 10 11  2  0  0  0  0
 10 12  1  0  0  0  0
 12 20  1  0  0  0  0
 12 13  1  0  0  0  0
 12 31  1  0  0  0  0
 13 14  1  0  0  0  0
 13 32  1  0  0  0  0
 13 33  1  0  0  0  0
 14 15  1  0  0  0  0
 14 34  1  0  0  0  0
 14 35  1  0  0  0  0
 15 16  1  0  0  0  0
 15 19  1  0  0  0  0
 16 17  1  0  0  0  0
 16 18  2  0  0  0  0
 17 36  1  0  0  0  0
 17 37  1  0  0  0  0
 19 20  1  0  0  0  0
 19 38  1  0  0  0  0
 19 39  1  0  0  0  0
 20 40  1  0  0  0  0
 20 41  1  0  0  0  0
M  END
> <s_m_source_file>
AV-unprocessed.smi

> <i_m_source_file_index>
1460

> <i_lp_mmshare_version>
43012

> <i_f3d_flags>
0

> <s_epik_input>
bjFbY0hdW2NIXVtjSF1uMVtDSDJdW0NAQEhdKFtDSDNdKVtOSF1DKD1PKVtDSF0yW0NIMl1bQ0gyXU4oQyg9TylbTkgyXSlbQ0gyXVtDSDJdMg==

> <s_epik_cmdline>
J2VwaWtfcHl0aG9uJywgJy1waCcsICc3LjAnLCAnLXRuJywgJzgnLCAnLW1hJywgJzIwMCcsICctbWV0YWxfYmluZGluZycsICctaW1hZScsICc8aW5maWxlLm1hZT4nLCAnLW9tYWUnLCAnPG91dGZpbGUubWFlPic=

> <r_lp_tautomer_probability>
1

> <r_epik_Ionization_Penalty>
0.000387527

> <r_epik_Ionization_Penalty_Charging>
0

> <r_epik_Ionization_Penalty_Neutral>
0.000387527

> <r_epik_State_Penalty>
-0

> <r_epik_Charging_Adjusted_Penalty>
0

> <i_epik_Tot_Q>
0

> <i_epik_Tot_abs_Q>
0

> <r_epik_Metal_State_Penalty>
-0

> <b_epik_Metal_Only>
0

> <s_lp_Force_Field>
OPLS_2005

> <r_lp_Energy>
25.9922

> <b_lp_Chiralities_Consistent>
1

> <s_lp_Variant>
AV-unprocessed.smi:1460-2

> <Gold.Version>
5.8.1

> <Gold.Id.Protein>
6NUR|6NUR_protein|mol2

> <Gold.PLP.Fitness>
38.7474

> <Gold.PLP.PLP>
-30.1423

> <Gold.PLP.part.hbond>
-2.0000

> <Gold.PLP.part.metal>
0.0000

> <Gold.PLP.part.buried>
-5.0109

> <Gold.PLP.part.nonpolar>
-23.7055

> <Gold.PLP.part.repulsive>
0.4199

> <Gold.PLP.ligand.clash>
0.0000

> <Gold.PLP.ligand.torsion>
0.2295

> <Gold.PLP.Chemscore.Hbond>
2.0000

> <Gold.PLP.Chemscore.CHOScore>
1.0000

> <Gold.PLP.Chemscore.Metal>
0.0000

> <Gold.Chemscore.Hbonds>
donor molecule, donor type, donor heavy atom, donor atom, acceptor molecule, acceptor atom, score
      P1  H  6896  6907       L1    18  1.00
      P1  H  7989  7998       L1    11  1.00
      L1  C     5    27       P1  8028  0.90

> <Gold.PLP.Chemscore.Internal.Correction>
0.0641

> <Gold.Rescore>
     Score         DG    S(hbond)    S(metal)    S(lipo)     H(rot)  DE(clash)    DE(int)     intcor
     14.12     -15.95       1.98        0.00      72.68       1.82       0.02       1.81       ----

> <Gold.Chemscore.Fitness>
14.1227

> <Gold.Chemscore.DG>
-15.9500

> <Gold.Chemscore.ZeroCoef>
-5.4800

> <Gold.Chemscore.Hbond>
1.9843

> <Gold.Chemscore.Metal>
0.0000

> <Gold.Chemscore.Lipo>
72.6771

> <Gold.Chemscore.Internal_Hbond>
0.0000

> <Gold.Chemscore.DEClash>
0.0208

> <Gold.Chemscore.DEInternal>
1.8064

> <Gold.Chemscore.Rot>
1.8206

> <Gold.Chemscore.Internal.Correction>
   9.000000E+99

> <Gold.Chemscore.Hbonds>
donor molecule, donor type, donor heavy atom, donor atom, acceptor molecule, acceptor atom, score
      P1  H  6896  6907       L1    18  0.96
      P1  H  7989  7998       L1    11  0.99

> <Gold.Chemscore.Hbond.Weighted>
-6.6275

> <Gold.Chemscore.Metal.Weighted>
-0.0000

> <Gold.Chemscore.Lipo.Weighted>
-8.5032

> <Gold.Chemscore.Internal_Hbond.Weighted>
0.0000

> <Gold.Chemscore.DEClash.Weighted>
0.0208

> <Gold.Chemscore.DEInternal.Weighted>
1.8064

> <Gold.Chemscore.Rot.Weighted>
4.6607

> <Gold.Chemscore.Internal.Correction.Weighted>
   9.000000E+99

> <Gold.Protein.RotatedTorsions>
[ 6907 6896 6895 6894 ] final -122.62 input  -60.11 | X-H torsion
[ 7974 7965 7964 7962 ] final   76.06 input  175.53 | X-H torsion
[ 8008 7997 7996 7995 ] final   36.20 input   59.86 | X-H torsion
[ 10167 10162 10161 10158 ] final  -36.68 input  -65.29 | X-H torsion
[ 10718 10713 10712 10709 ] final -106.12 input   66.30 | X-H torsion
[ 10763 10752 10751 10750 ] final   46.29 input  -60.55 | X-H torsion
[ 11005 11000 10999 10996 ] final -111.61 input  -57.11 | X-H torsion

> <Gold.Protein.ActiveResidues>
 VAL166  LYS551  ARG553  GLY616  TRP617  ASP618  TYR619  PRO620  LYS621  CYS622 
 ASP623  PHE694  ASN695  SER759  ASP760  ASP761  ALA762  ILE779  LEU786  VAL792 
 PHE793  MET794  SER795  GLU796  ALA797  LYS798  CYS799  TRP800  GLU811  SER814 

> <Gold.Protein.RotatedAtoms>
  150.8593  133.7668  159.2997 H   0  0  0  0  0  0  0  0  0  0  0  0  # atno 6907 bound_to 6896
  151.5315  135.1067  159.9913 H   0  0  0  0  0  0  0  0  0  0  0  0  # atno 6908 bound_to 6896
  152.4614  133.7786  159.6894 H   0  0  0  0  0  0  0  0  0  0  0  0  # atno 6909 bound_to 6896
  145.7077  139.2604  143.1669 H   0  0  0  0  0  0  0  0  0  0  0  0  # atno 7974 bound_to 7965
  155.1835  140.3302  155.4371 H   0  0  0  0  0  0  0  0  0  0  0  0  # atno 8008 bound_to 7997
  156.2468  140.1923  156.6882 H   0  0  0  0  0  0  0  0  0  0  0  0  # atno 8009 bound_to 7997
  154.6255  140.0589  156.9654 H   0  0  0  0  0  0  0  0  0  0  0  0  # atno 8010 bound_to 7997
  140.7137  143.3392  151.2394 H   0  0  0  0  0  0  0  0  0  0  0  0  # atno 10167 bound_to 10162
  156.0376  130.5597  150.7635 H   0  0  0  0  0  0  0  0  0  0  0  0  # atno 10718 bound_to 10713
  152.9812  135.6012  154.3576 H   0  0  0  0  0  0  0  0  0  0  0  0  # atno 10763 bound_to 10752
  154.3260  135.2769  155.2497 H   0  0  0  0  0  0  0  0  0  0  0  0  # atno 10764 bound_to 10752
  154.4642  135.5958  153.6332 H   0  0  0  0  0  0  0  0  0  0  0  0  # atno 10765 bound_to 10752
  141.0724  133.9357  157.2458 H   0  0  0  0  0  0  0  0  0  0  0  0  # atno 11005 bound_to 11000
  146.0741  140.7837  142.9673 LP  0  0  0  0  0  0  0  0  0  0  0  0  # atno 17320 bound_to 7965
  144.6951  140.3387  143.7203 LP  0  0  0  0  0  0  0  0  0  0  0  0  # atno 17321 bound_to 7965
  139.6896  143.9715  152.2852 LP  0  0  0  0  0  0  0  0  0  0  0  0  # atno 17342 bound_to 10162
  139.9372  144.6704  150.8303 LP  0  0  0  0  0  0  0  0  0  0  0  0  # atno 17343 bound_to 10162
  157.5148  131.0928  151.0153 LP  0  0  0  0  0  0  0  0  0  0  0  0  # atno 17370 bound_to 10713
  157.0498  130.5782  149.5368 LP  0  0  0  0  0  0  0  0  0  0  0  0  # atno 17371 bound_to 10713
  139.9537  135.0170  156.9067 LP  0  0  0  0  0  0  0  0  0  0  0  0  # atno 17394 bound_to 11000
  140.5645  134.0503  155.7410 LP  0  0  0  0  0  0  0  0  0  0  0  0  # atno 17395 bound_to 11000

$$$$
