AV-unprocessed.smi:35|AV-procd|sdf|258|dock1
  -GOLD-   2262016 23D 1   1.00000     0.00000
 Structure written by MMmdl.
 29 30  0  0  0  0  0  0  0  0  1 V2000
  150.6022  136.5687  158.6102 O   0  0  0  0  0  0  0  0  0  0  0  0
  151.2314  137.5956  158.8558 C   0  0  0  0  0  0  0  0  0  0  0  0
  152.3698  137.5500  159.6641 N   0  0  0  0  0  0  0  0  0  0  0  0
  153.1590  138.6464  160.0159 C   0  0  0  0  0  0  0  0  0  0  0  0
  154.1594  138.4826  160.7128 O   0  0  0  0  0  0  0  0  0  0  0  0
  152.7601  139.9171  159.5395 N   0  0  0  0  0  0  0  0  0  0  0  0
  153.6215  141.1193  159.8931 C   0  0  1  0  0  0  0  0  0  0  0  0
  153.1755  142.2482  159.2048 O   0  0  0  0  0  0  0  0  0  0  0  0
  152.2537  142.9652  160.0144 C   0  0  2  0  0  0  0  0  0  0  0  0
  152.1284  144.4049  159.4925 C   0  0  0  0  0  0  0  0  0  0  0  0
  151.5036  144.4183  158.2266 O   0  0  0  0  0  0  0  0  0  0  0  0
  152.8569  142.8385  161.4157 C   0  0  1  0  0  0  0  0  0  0  0  0
  151.8339  142.8799  162.3907 O   0  0  0  0  0  0  0  0  0  0  0  0
  153.5292  141.4649  161.3991 C   0  0  2  0  0  0  0  0  0  0  0  0
  154.8094  141.5406  161.9946 O   0  0  0  0  0  0  0  0  0  0  0  0
  151.6560  140.0020  158.6966 C   0  0  0  0  0  0  0  0  0  0  0  0
  150.9052  138.9271  158.3586 C   0  0  0  0  0  0  0  0  0  0  0  0
  149.3718  139.2629  157.1496 Br  0  0  0  0  0  0  0  0  0  0  0  0
  152.6489  136.6467  160.0185 H   0  0  0  0  0  0  0  0  0  0  0  0
  154.6220  140.8498  159.5487 H   0  0  0  0  0  0  0  0  0  0  0  0
  151.2867  142.4609  159.9689 H   0  0  0  0  0  0  0  0  0  0  0  0
  151.5636  145.0275  160.1868 H   0  0  0  0  0  0  0  0  0  0  0  0
  153.1175  144.8520  159.3907 H   0  0  0  0  0  0  0  0  0  0  0  0
  151.0037  143.6220  158.1296 H   0  0  0  0  0  0  0  0  0  0  0  0
  153.5837  143.6334  161.5915 H   0  0  0  0  0  0  0  0  0  0  0  0
  152.2182  143.1358  163.2156 H   0  0  0  0  0  0  0  0  0  0  0  0
  152.9270  140.7216  161.9241 H   0  0  0  0  0  0  0  0  0  0  0  0
  154.9544  140.7535  162.4967 H   0  0  0  0  0  0  0  0  0  0  0  0
  151.3646  140.9502  158.2715 H   0  0  0  0  0  0  0  0  0  0  0  0
  1  2  2  0  0  0  0
  2 17  1  0  0  0  0
  2  3  1  0  0  0  0
  3 19  1  0  0  0  0
  3  4  1  0  0  0  0
  4  5  2  0  0  0  0
  4  6  1  0  0  0  0
  6  7  1  0  0  0  0
  6 16  1  0  0  0  0
  7 14  1  0  0  0  0
  7  8  1  0  0  0  0
  7 20  1  0  0  0  0
  8  9  1  0  0  0  0
  9 10  1  0  0  0  0
  9 12  1  0  0  0  0
  9 21  1  0  0  0  0
 10 11  1  0  0  0  0
 10 22  1  0  0  0  0
 10 23  1  0  0  0  0
 11 24  1  0  0  0  0
 12 13  1  0  0  0  0
 12 14  1  0  0  0  0
 12 25  1  0  0  0  0
 13 26  1  0  0  0  0
 14 15  1  0  0  0  0
 14 27  1  0  0  0  0
 15 28  1  0  0  0  0
 16 17  2  0  0  0  0
 16 29  1  0  0  0  0
 17 18  1  0  0  0  0
M  END
> <s_m_source_file>
AV-unprocessed.smi

> <i_m_source_file_index>
35

> <i_lp_mmshare_version>
43012

> <i_f3d_flags>
0

> <s_epik_input>
Tz1jMVtuSF1jKD1PKW4oW2NIXWMxQnIpW0NAQEhdMk9bQ0BASF0oW0NIMl1bT0hdKVtDQEBIXShbT0hdKVtDQEhdMltPSF0=

> <s_epik_cmdline>
J2VwaWtfcHl0aG9uJywgJy1waCcsICc3LjAnLCAnLXRuJywgJzgnLCAnLW1hJywgJzIwMCcsICctbWV0YWxfYmluZGluZycsICctaW1hZScsICc8aW5maWxlLm1hZT4nLCAnLW9tYWUnLCAnPG91dGZpbGUubWFlPic=

> <r_lp_tautomer_probability>
0.999537

> <r_epik_Ionization_Penalty>
0.10812

> <r_epik_Ionization_Penalty_Charging>
0.108119

> <r_epik_Ionization_Penalty_Neutral>
4.93006e-07

> <r_epik_State_Penalty>
0.0979238

> <r_epik_Charging_Adjusted_Penalty>
0.206043

> <i_epik_Tot_Q>
0

> <i_epik_Tot_abs_Q>
0

> <r_epik_Metal_State_Penalty>
3.07911

> <b_epik_Metal_Only>
0

> <s_epik_Chemistry_Notes>
This compound contains an acetal/aminal-like group ( X-CH(R)-Y where X, Y are N, S, or O) that may be acid/base labile, releasing an aldehyde.

> <s_lp_Force_Field>
OPLS_2005

> <r_lp_Energy>
26.4636

> <b_lp_Chiralities_Consistent>
1

> <s_lp_Variant>
AV-unprocessed.smi:35-12

> <Gold.Version>
5.8.1

> <Gold.Id.Protein>
6NUR|6NUR_protein|mol2

> <Gold.PLP.Fitness>
39.8910

> <Gold.PLP.PLP>
-34.1193

> <Gold.PLP.part.hbond>
-4.0000

> <Gold.PLP.part.metal>
0.0000

> <Gold.PLP.part.buried>
-6.4287

> <Gold.PLP.part.nonpolar>
-24.4912

> <Gold.PLP.part.repulsive>
0.1346

> <Gold.PLP.ligand.clash>
0.0000

> <Gold.PLP.ligand.torsion>
0.1054

> <Gold.PLP.Chemscore.Hbond>
1.9833

> <Gold.PLP.Chemscore.CHOScore>
0.0000

> <Gold.PLP.Chemscore.Metal>
0.0000

> <Gold.Chemscore.Hbonds>
donor molecule, donor type, donor heavy atom, donor atom, acceptor molecule, acceptor atom, score
      P1  H  6896  6909       L1     1  0.98
      P1  H  6933  6945       L1    13  0.81

> <Gold.PLP.Chemscore.Internal.Correction>
0.0327

> <Gold.Rescore>
     Score         DG    S(hbond)    S(metal)    S(lipo)     H(rot)  DE(clash)    DE(int)     intcor
      5.78      -7.69       1.62        0.00      52.94       3.67       1.77       0.14       ----

> <Gold.Chemscore.Fitness>
5.7804

> <Gold.Chemscore.DG>
-7.6911

> <Gold.Chemscore.ZeroCoef>
-5.4800

> <Gold.Chemscore.Hbond>
1.6205

> <Gold.Chemscore.Metal>
0.0000

> <Gold.Chemscore.Lipo>
52.9422

> <Gold.Chemscore.Internal_Hbond>
0.0000

> <Gold.Chemscore.DEClash>
1.7716

> <Gold.Chemscore.DEInternal>
0.1391

> <Gold.Chemscore.Rot>
3.6701

> <Gold.Chemscore.Internal.Correction>
   9.000000E+99

> <Gold.Chemscore.Hbonds>
donor molecule, donor type, donor heavy atom, donor atom, acceptor molecule, acceptor atom, score
      P1  H  6896  6909       L1     1  0.82
      P1  H  6933  6945       L1    13  0.74

> <Gold.Chemscore.Hbond.Weighted>
-5.4123

> <Gold.Chemscore.Metal.Weighted>
-0.0000

> <Gold.Chemscore.Lipo.Weighted>
-6.1942

> <Gold.Chemscore.Internal_Hbond.Weighted>
0.0000

> <Gold.Chemscore.DEClash.Weighted>
1.7716

> <Gold.Chemscore.DEInternal.Weighted>
0.1391

> <Gold.Chemscore.Rot.Weighted>
9.3955

> <Gold.Chemscore.Internal.Correction.Weighted>
   9.000000E+99

> <Gold.Protein.RotatedTorsions>
[ 6907 6896 6895 6894 ] final   84.66 input  -60.11 | X-H torsion
[ 7974 7965 7964 7962 ] final -167.92 input  175.53 | X-H torsion
[ 8008 7997 7996 7995 ] final  121.71 input   59.86 | X-H torsion
[ 10167 10162 10161 10158 ] final -120.51 input  -65.29 | X-H torsion
[ 10718 10713 10712 10709 ] final  -47.26 input   66.30 | X-H torsion
[ 10763 10752 10751 10750 ] final   53.98 input  -60.55 | X-H torsion
[ 11005 11000 10999 10996 ] final   14.27 input  -57.11 | X-H torsion

> <Gold.Protein.ActiveResidues>
 VAL166  LYS551  ARG553  GLY616  TRP617  ASP618  TYR619  PRO620  LYS621  CYS622 
 ASP623  PHE694  ASN695  SER759  ASP760  ASP761  ALA762  ILE779  LEU786  VAL792 
 PHE793  MET794  SER795  GLU796  ALA797  LYS798  CYS799  TRP800  GLU811  SER814 

> <Gold.Protein.RotatedAtoms>
  152.5357  134.2706  159.8969 H   0  0  0  0  0  0  0  0  0  0  0  0  # atno 6907 bound_to 6896
  151.2663  133.4270  159.2626 H   0  0  0  0  0  0  0  0  0  0  0  0  # atno 6908 bound_to 6896
  151.0407  134.9620  159.8217 H   0  0  0  0  0  0  0  0  0  0  0  0  # atno 6909 bound_to 6896
  144.7213  140.2447  143.6287 H   0  0  0  0  0  0  0  0  0  0  0  0  # atno 7974 bound_to 7965
  156.2698  140.2802  156.1352 H   0  0  0  0  0  0  0  0  0  0  0  0  # atno 8008 bound_to 7997
  155.1012  140.0389  157.2715 H   0  0  0  0  0  0  0  0  0  0  0  0  # atno 8009 bound_to 7997
  154.6814  140.2609  155.6911 H   0  0  0  0  0  0  0  0  0  0  0  0  # atno 8010 bound_to 7997
  140.0350  143.5210  152.2158 H   0  0  0  0  0  0  0  0  0  0  0  0  # atno 10167 bound_to 10162
  156.2101  130.4160  149.9125 H   0  0  0  0  0  0  0  0  0  0  0  0  # atno 10718 bound_to 10713
  152.9800  135.5760  154.4830 H   0  0  0  0  0  0  0  0  0  0  0  0  # atno 10763 bound_to 10752
  154.4376  135.2775  155.1872 H   0  0  0  0  0  0  0  0  0  0  0  0  # atno 10764 bound_to 10752
  154.3553  135.6200  153.5717 H   0  0  0  0  0  0  0  0  0  0  0  0  # atno 10765 bound_to 10752
  140.4714  134.1027  155.7733 H   0  0  0  0  0  0  0  0  0  0  0  0  # atno 11005 bound_to 11000
  145.8285  139.2075  143.1896 LP  0  0  0  0  0  0  0  0  0  0  0  0  # atno 17320 bound_to 7965
  146.0451  140.8126  142.9809 LP  0  0  0  0  0  0  0  0  0  0  0  0  # atno 17321 bound_to 7965
  139.6051  144.7594  151.3081 LP  0  0  0  0  0  0  0  0  0  0  0  0  # atno 17342 bound_to 10162
  140.7285  143.6933  150.7904 LP  0  0  0  0  0  0  0  0  0  0  0  0  # atno 17343 bound_to 10162
  156.6806  130.8857  151.3575 LP  0  0  0  0  0  0  0  0  0  0  0  0  # atno 17370 bound_to 10713
  157.7034  130.9358  150.0855 LP  0  0  0  0  0  0  0  0  0  0  0  0  # atno 17371 bound_to 10713
  141.1575  133.8856  157.1938 LP  0  0  0  0  0  0  0  0  0  0  0  0  # atno 17394 bound_to 11000
  139.9882  135.0074  156.9914 LP  0  0  0  0  0  0  0  0  0  0  0  0  # atno 17395 bound_to 11000

$$$$
