AV-unprocessed.smi:1543|AV-procd|sdf|6205|dock8
  -GOLD-   22720 6373D 1   1.00000     0.00000
 Structure written by MMmdl.
 48 49  0  0  0  0  0  0  0  0  1 V2000
  151.3729  138.1247  154.3445 C   0  0  0  0  0  0  0  0  0  0  0  0
  150.4258  139.0867  155.0701 C   0  0  2  0  0  0  0  0  0  0  0  0
  149.0757  139.2255  154.3433 C   0  0  0  0  0  0  0  0  0  0  0  0
  148.2046  140.2155  154.9830 N   0  0  0  0  0  0  0  0  0  0  0  0
  146.8199  140.2845  154.4365 C   0  0  0  0  0  0  0  0  0  0  0  0
  146.0251  141.5057  154.9575 C   0  0  0  0  0  0  0  0  0  0  0  0
  146.8348  140.3721  152.8890 C   0  0  0  0  0  0  0  0  0  0  0  0
  145.9979  139.0109  154.7907 C   0  0  0  0  0  0  0  0  0  0  0  0
  146.3544  137.8680  153.9497 N   0  0  0  0  0  0  0  0  0  0  0  0
  145.5320  136.8801  153.5714 C   0  0  0  0  0  0  0  0  0  0  0  0
  144.3535  136.8042  153.9173 O   0  0  0  0  0  0  0  0  0  0  0  0
  146.1726  135.9984  152.7847 N   0  0  0  0  0  0  0  0  0  0  0  0
  145.6789  134.8040  152.1920 C   0  0  0  0  0  0  0  0  0  0  0  0
  144.3076  134.5163  151.9839 C   0  0  0  0  0  0  0  0  0  0  0  0
  143.9538  133.2970  151.3740 C   0  0  0  0  0  0  0  0  0  0  0  0
  144.9808  132.4146  150.9876 C   0  0  0  0  0  0  0  0  0  0  0  0
  146.2915  132.6807  151.1676 N   0  0  0  0  0  0  0  0  0  0  0  0
  146.6228  133.8511  151.7533 C   0  0  0  0  0  0  0  0  0  0  0  0
  148.9147  141.4987  155.0289 C   0  0  0  0  0  0  0  0  0  0  0  0
  150.2807  141.3969  155.7340 C   0  0  1  0  0  0  0  0  0  0  0  0
  150.1622  141.2365  157.2594 C   0  0  0  0  0  0  0  0  0  0  0  0
  151.0645  140.3587  155.1464 O   0  0  0  0  0  0  0  0  0  0  0  0
  150.9355  137.1294  154.2632 H   0  0  0  0  0  0  0  0  0  0  0  0
  152.3175  138.0296  154.8806 H   0  0  0  0  0  0  0  0  0  0  0  0
  151.5957  138.4760  153.3367 H   0  0  0  0  0  0  0  0  0  0  0  0
  150.2574  138.7058  156.0779 H   0  0  0  0  0  0  0  0  0  0  0  0
  149.2559  139.5015  153.3040 H   0  0  0  0  0  0  0  0  0  0  0  0
  148.6065  138.2437  154.3326 H   0  0  0  0  0  0  0  0  0  0  0  0
  145.0220  141.5306  154.5300 H   0  0  0  0  0  0  0  0  0  0  0  0
  146.5018  142.4496  154.6936 H   0  0  0  0  0  0  0  0  0  0  0  0
  145.9044  141.4863  156.0404 H   0  0  0  0  0  0  0  0  0  0  0  0
  145.8358  140.2418  152.4711 H   0  0  0  0  0  0  0  0  0  0  0  0
  147.4722  139.6045  152.4484 H   0  0  0  0  0  0  0  0  0  0  0  0
  147.1875  141.3391  152.5313 H   0  0  0  0  0  0  0  0  0  0  0  0
  146.1483  138.7216  155.8306 H   0  0  0  0  0  0  0  0  0  0  0  0
  144.9300  139.2262  154.7226 H   0  0  0  0  0  0  0  0  0  0  0  0
  147.3045  137.8459  153.6092 H   0  0  0  0  0  0  0  0  0  0  0  0
  147.1556  136.1751  152.6371 H   0  0  0  0  0  0  0  0  0  0  0  0
  143.5237  135.2016  152.2646 H   0  0  0  0  0  0  0  0  0  0  0  0
  142.9175  133.0454  151.2028 H   0  0  0  0  0  0  0  0  0  0  0  0
  144.7432  131.4722  150.5167 H   0  0  0  0  0  0  0  0  0  0  0  0
  147.6808  134.0302  151.8796 H   0  0  0  0  0  0  0  0  0  0  0  0
  149.0767  141.8665  154.0155 H   0  0  0  0  0  0  0  0  0  0  0  0
  148.3288  142.2573  155.5440 H   0  0  0  0  0  0  0  0  0  0  0  0
  150.8210  142.3263  155.5529 H   0  0  0  0  0  0  0  0  0  0  0  0
  149.6552  142.0955  157.6997 H   0  0  0  0  0  0  0  0  0  0  0  0
  151.1471  141.1620  157.7207 H   0  0  0  0  0  0  0  0  0  0  0  0
  149.5942  140.3485  157.5362 H   0  0  0  0  0  0  0  0  0  0  0  0
  1  2  1  0  0  0  0
  1 23  1  0  0  0  0
  1 24  1  0  0  0  0
  1 25  1  0  0  0  0
  2 22  1  0  0  0  0
  2  3  1  0  0  0  0
  2 26  1  0  0  0  0
  3  4  1  0  0  0  0
  3 27  1  0  0  0  0
  3 28  1  0  0  0  0
  4  5  1  0  0  0  0
  4 19  1  0  0  0  0
  5  6  1  0  0  0  0
  5  7  1  0  0  0  0
  5  8  1  0  0  0  0
  6 29  1  0  0  0  0
  6 30  1  0  0  0  0
  6 31  1  0  0  0  0
  7 32  1  0  0  0  0
  7 33  1  0  0  0  0
  7 34  1  0  0  0  0
  8  9  1  0  0  0  0
  8 35  1  0  0  0  0
  8 36  1  0  0  0  0
  9 10  1  0  0  0  0
  9 37  1  0  0  0  0
 10 11  2  0  0  0  0
 10 12  1  0  0  0  0
 12 13  1  0  0  0  0
 12 38  1  0  0  0  0
 13 18  1  0  0  0  0
 13 14  2  0  0  0  0
 14 15  1  0  0  0  0
 14 39  1  0  0  0  0
 15 16  2  0  0  0  0
 15 40  1  0  0  0  0
 16 17  1  0  0  0  0
 16 41  1  0  0  0  0
 17 18  2  0  0  0  0
 18 42  1  0  0  0  0
 19 20  1  0  0  0  0
 19 43  1  0  0  0  0
 19 44  1  0  0  0  0
 20 21  1  0  0  0  0
 20 22  1  0  0  0  0
 20 45  1  0  0  0  0
 21 46  1  0  0  0  0
 21 47  1  0  0  0  0
 21 48  1  0  0  0  0
M  END
> <s_m_source_file>
AV-unprocessed.smi

> <i_m_source_file_index>
1543

> <i_lp_mmshare_version>
43012

> <i_f3d_flags>
0

> <s_epik_input>
W0NIM11bQ0BASF0xW0NIMl1OKFtDSDJdW0NASF0oTzEpW0NIM10pQyhbQ0gzXSkoW0NIM10pW0NIMl1bTkhdQyg9TylbTkhdYzJbY0hdW2NIXVtjSF1uW2NIXTI=

> <s_epik_cmdline>
J2VwaWtfcHl0aG9uJywgJy1waCcsICc3LjAnLCAnLXRuJywgJzgnLCAnLW1hJywgJzIwMCcsICctbWV0YWxfYmluZGluZycsICctaW1hZScsICc8aW5maWxlLm1hZT4nLCAnLW9tYWUnLCAnPG91dGZpbGUubWFlPic=

> <r_epik_Ionization_Penalty>
0.270794

> <r_epik_Ionization_Penalty_Charging>
0

> <r_epik_Ionization_Penalty_Neutral>
0.270794

> <r_epik_State_Penalty>
0.268291

> <r_epik_Charging_Adjusted_Penalty>
0.268291

> <i_epik_Tot_Q>
0

> <i_epik_Tot_abs_Q>
0

> <r_epik_Metal_State_Penalty>
0.264827

> <b_epik_Metal_Only>
0

> <s_lp_Force_Field>
OPLS_2005

> <r_lp_Energy>
46.6988

> <b_lp_Chiralities_Consistent>
1

> <s_lp_Variant>
AV-unprocessed.smi:1543-1

> <Gold.Version>
5.8.1

> <Gold.Id.Protein>
6NUR|6NUR_protein|mol2

> <Gold.PLP.Fitness>
41.6626

> <Gold.PLP.PLP>
-34.6297

> <Gold.PLP.part.hbond>
-2.0000

> <Gold.PLP.part.metal>
0.0000

> <Gold.PLP.part.buried>
-3.8208

> <Gold.PLP.part.nonpolar>
-29.3979

> <Gold.PLP.part.repulsive>
0.4238

> <Gold.PLP.ligand.clash>
0.0000

> <Gold.PLP.ligand.torsion>
0.8068

> <Gold.PLP.Chemscore.Hbond>
2.0000

> <Gold.PLP.Chemscore.CHOScore>
0.8618

> <Gold.PLP.Chemscore.Metal>
0.0000

> <Gold.Chemscore.Hbonds>
donor molecule, donor type, donor heavy atom, donor atom, acceptor molecule, acceptor atom, score
      L1  H    12    38       P1  7948  1.00
      P1  H  7989  7998       L1    22  1.00
      L1  C    18    42       P1  7948  0.79

> <Gold.PLP.Chemscore.Internal.Correction>
0.0612

> <Gold.Rescore>
     Score         DG    S(hbond)    S(metal)    S(lipo)     H(rot)  DE(clash)    DE(int)     intcor
     16.23     -17.62       1.51        0.00      92.04       1.43       0.28       1.11       ----

> <Gold.Chemscore.Fitness>
16.2311

> <Gold.Chemscore.DG>
-17.6169

> <Gold.Chemscore.ZeroCoef>
-5.4800

> <Gold.Chemscore.Hbond>
1.5051

> <Gold.Chemscore.Metal>
0.0000

> <Gold.Chemscore.Lipo>
92.0366

> <Gold.Chemscore.Internal_Hbond>
0.0000

> <Gold.Chemscore.DEClash>
0.2791

> <Gold.Chemscore.DEInternal>
1.1067

> <Gold.Chemscore.Rot>
1.4291

> <Gold.Chemscore.Internal.Correction>
   9.000000E+99

> <Gold.Chemscore.Hbonds>
donor molecule, donor type, donor heavy atom, donor atom, acceptor molecule, acceptor atom, score
      L1  H    12    38       P1  7948  0.99
      P1  H  7989  7998       L1    22  0.57

> <Gold.Chemscore.Hbond.Weighted>
-5.0272

> <Gold.Chemscore.Metal.Weighted>
-0.0000

> <Gold.Chemscore.Lipo.Weighted>
-10.7683

> <Gold.Chemscore.Internal_Hbond.Weighted>
0.0000

> <Gold.Chemscore.DEClash.Weighted>
0.2791

> <Gold.Chemscore.DEInternal.Weighted>
1.1067

> <Gold.Chemscore.Rot.Weighted>
3.6586

> <Gold.Chemscore.Internal.Correction.Weighted>
   9.000000E+99

> <Gold.Protein.RotatedTorsions>
[ 6907 6896 6895 6894 ] final  -22.66 input  -60.11 | X-H torsion
[ 7974 7965 7964 7962 ] final   81.04 input  175.53 | X-H torsion
[ 8008 7997 7996 7995 ] final    7.42 input   59.86 | X-H torsion
[ 10167 10162 10161 10158 ] final  -31.70 input  -65.29 | X-H torsion
[ 10718 10713 10712 10709 ] final  -33.87 input   66.30 | X-H torsion
[ 10763 10752 10751 10750 ] final  -29.91 input  -60.55 | X-H torsion
[ 11005 11000 10999 10996 ] final  -75.40 input  -57.11 | X-H torsion

> <Gold.Protein.ActiveResidues>
 VAL166  LYS551  ARG553  GLY616  TRP617  ASP618  TYR619  PRO620  LYS621  CYS622 
 ASP623  PHE694  ASN695  SER759  ASP760  ASP761  ALA762  ILE779  LEU786  VAL792 
 PHE793  MET794  SER795  GLU796  ALA797  LYS798  CYS799  TRP800  GLU811  SER814 

> <Gold.Protein.RotatedAtoms>
  151.2154  135.0497  159.8927 H   0  0  0  0  0  0  0  0  0  0  0  0  # atno 6907 bound_to 6896
  152.5420  134.0699  159.8199 H   0  0  0  0  0  0  0  0  0  0  0  0  # atno 6908 bound_to 6896
  151.0858  133.5306  159.2649 H   0  0  0  0  0  0  0  0  0  0  0  0  # atno 6909 bound_to 6896
  145.6433  139.2430  143.2018 H   0  0  0  0  0  0  0  0  0  0  0  0  # atno 7974 bound_to 7965
  154.7536  140.2771  155.6272 H   0  0  0  0  0  0  0  0  0  0  0  0  # atno 8008 bound_to 7997
  156.2901  140.2673  156.2223 H   0  0  0  0  0  0  0  0  0  0  0  0  # atno 8009 bound_to 7997
  155.0106  140.0372  157.2387 H   0  0  0  0  0  0  0  0  0  0  0  0  # atno 8010 bound_to 7997
  140.7232  143.3751  151.1705 H   0  0  0  0  0  0  0  0  0  0  0  0  # atno 10167 bound_to 10162
  156.3574  130.4318  149.7652 H   0  0  0  0  0  0  0  0  0  0  0  0  # atno 10718 bound_to 10713
  153.7724  135.6911  153.4904 H   0  0  0  0  0  0  0  0  0  0  0  0  # atno 10763 bound_to 10752
  153.1865  135.4487  155.0094 H   0  0  0  0  0  0  0  0  0  0  0  0  # atno 10764 bound_to 10752
  154.8113  135.3378  154.7233 H   0  0  0  0  0  0  0  0  0  0  0  0  # atno 10765 bound_to 10752
  141.1645  133.6945  156.7510 H   0  0  0  0  0  0  0  0  0  0  0  0  # atno 11005 bound_to 11000
  146.1263  140.7244  142.9433 LP  0  0  0  0  0  0  0  0  0  0  0  0  # atno 17320 bound_to 7965
  144.7149  140.4174  143.7052 LP  0  0  0  0  0  0  0  0  0  0  0  0  # atno 17321 bound_to 7965
  139.7329  143.9044  152.3025 LP  0  0  0  0  0  0  0  0  0  0  0  0  # atno 17342 bound_to 10162
  139.8839  144.7002  150.8846 LP  0  0  0  0  0  0  0  0  0  0  0  0  # atno 17343 bound_to 10162
  156.4829  130.8049  151.3063 LP  0  0  0  0  0  0  0  0  0  0  0  0  # atno 17370 bound_to 10713
  157.7469  131.0000  150.2909 LP  0  0  0  0  0  0  0  0  0  0  0  0  # atno 17371 bound_to 10713
  140.2604  134.8471  157.3753 LP  0  0  0  0  0  0  0  0  0  0  0  0  # atno 17394 bound_to 11000
  140.1617  134.4720  155.7890 LP  0  0  0  0  0  0  0  0  0  0  0  0  # atno 17395 bound_to 11000

$$$$
