AV-unprocessed.smi:1463|AV-procd|sdf|5934|dock4
  -GOLD-   22720 6 13D 1   1.00000     0.00000
 Structure written by MMmdl.
 46 47  0  0  0  0  0  0  0  0  1 V2000
  151.6287  145.3762  160.0528 C   0  0  0  0  0  0  0  0  0  0  0  0
  151.8333  144.1988  159.2928 O   0  0  0  0  0  0  0  0  0  0  0  0
  151.8690  143.0306  160.0961 C   0  0  0  0  0  0  0  0  0  0  0  0
  152.9212  142.0756  159.5269 C   0  0  0  0  0  0  0  0  0  0  0  0
  152.3596  141.4385  158.3859 O   0  0  0  0  0  0  0  0  0  0  0  0
  152.1028  140.0825  158.4339 C   0  0  0  0  0  0  0  0  0  0  0  0
  152.4242  139.4080  159.5667 N   0  0  0  0  0  0  0  0  0  0  0  0
  152.1547  138.0873  159.6272 C   0  0  0  0  0  0  0  0  0  0  0  0
  151.5497  137.3744  158.5753 C   0  0  0  0  0  0  0  0  0  0  0  0
  151.2174  138.0722  157.3993 C   0  0  0  0  0  0  0  0  0  0  0  0
  151.5125  139.4492  157.3107 C   0  0  0  0  0  0  0  0  0  0  0  0
  151.1399  140.2149  156.0714 C   0  0  0  0  0  0  0  0  0  0  0  0
  151.6504  139.8800  155.0018 O   0  0  0  0  0  0  0  0  0  0  0  0
  150.2450  141.2300  156.1770 N   0  0  0  0  0  0  0  0  0  0  0  0
  149.4950  141.8372  155.0669 C   0  0  0  0  0  0  0  0  0  0  0  0
  148.0189  141.4113  155.1644 C   0  0  0  0  0  0  0  0  0  0  0  0
  147.4046  141.7845  156.5308 C   0  0  0  0  0  0  0  0  0  0  0  0
  145.9482  141.2779  156.6373 C   0  0  0  0  0  0  0  0  0  0  0  0
  145.0774  141.6100  155.4195 C   0  0  0  0  0  0  0  0  0  0  0  0
  144.6083  140.5796  154.7118 N   0  0  0  0  0  0  0  0  0  0  0  0
  144.8349  142.7764  155.1154 O   0  0  0  0  0  0  0  0  0  0  0  0
  148.3067  141.2760  157.6805 C   0  0  0  0  0  0  0  0  0  0  0  0
  149.7671  141.7146  157.4771 C   0  0  0  0  0  0  0  0  0  0  0  0
  151.6108  146.2410  159.3896 H   0  0  0  0  0  0  0  0  0  0  0  0
  152.4308  145.5226  160.7772 H   0  0  0  0  0  0  0  0  0  0  0  0
  150.6772  145.3411  160.5848 H   0  0  0  0  0  0  0  0  0  0  0  0
  152.1330  143.3028  161.1190 H   0  0  0  0  0  0  0  0  0  0  0  0
  150.8920  142.5454  160.1252 H   0  0  0  0  0  0  0  0  0  0  0  0
  153.8273  142.6283  159.2724 H   0  0  0  0  0  0  0  0  0  0  0  0
  153.1802  141.3238  160.2739 H   0  0  0  0  0  0  0  0  0  0  0  0
  152.4244  137.5848  160.5442 H   0  0  0  0  0  0  0  0  0  0  0  0
  151.3441  136.3184  158.6691 H   0  0  0  0  0  0  0  0  0  0  0  0
  150.7493  137.5522  156.5759 H   0  0  0  0  0  0  0  0  0  0  0  0
  149.5807  142.9232  155.1263 H   0  0  0  0  0  0  0  0  0  0  0  0
  149.8673  141.5630  154.0819 H   0  0  0  0  0  0  0  0  0  0  0  0
  147.4499  141.8783  154.3599 H   0  0  0  0  0  0  0  0  0  0  0  0
  147.9452  140.3338  155.0086 H   0  0  0  0  0  0  0  0  0  0  0  0
  147.3911  142.8746  156.5816 H   0  0  0  0  0  0  0  0  0  0  0  0
  145.9466  140.1931  156.7498 H   0  0  0  0  0  0  0  0  0  0  0  0
  145.4857  141.6795  157.5403 H   0  0  0  0  0  0  0  0  0  0  0  0
  144.0293  140.7447  153.9013 H   0  0  0  0  0  0  0  0  0  0  0  0
  144.8347  139.6362  154.9918 H   0  0  0  0  0  0  0  0  0  0  0  0
  147.9506  141.6495  158.6407 H   0  0  0  0  0  0  0  0  0  0  0  0
  148.2594  140.1875  157.7353 H   0  0  0  0  0  0  0  0  0  0  0  0
  150.3812  141.3630  158.3074 H   0  0  0  0  0  0  0  0  0  0  0  0
  149.8374  142.8032  157.5006 H   0  0  0  0  0  0  0  0  0  0  0  0
  1  2  1  0  0  0  0
  1 24  1  0  0  0  0
  1 25  1  0  0  0  0
  1 26  1  0  0  0  0
  2  3  1  0  0  0  0
  3  4  1  0  0  0  0
  3 27  1  0  0  0  0
  3 28  1  0  0  0  0
  4  5  1  0  0  0  0
  4 29  1  0  0  0  0
  4 30  1  0  0  0  0
  5  6  1  0  0  0  0
  6 11  1  0  0  0  0
  6  7  2  0  0  0  0
  7  8  1  0  0  0  0
  8  9  2  0  0  0  0
  8 31  1  0  0  0  0
  9 10  1  0  0  0  0
  9 32  1  0  0  0  0
 10 11  2  0  0  0  0
 10 33  1  0  0  0  0
 11 12  1  0  0  0  0
 12 13  2  0  0  0  0
 12 14  1  0  0  0  0
 14 23  1  0  0  0  0
 14 15  1  0  0  0  0
 15 16  1  0  0  0  0
 15 34  1  0  0  0  0
 15 35  1  0  0  0  0
 16 17  1  0  0  0  0
 16 36  1  0  0  0  0
 16 37  1  0  0  0  0
 17 18  1  0  0  0  0
 17 22  1  0  0  0  0
 17 38  1  0  0  0  0
 18 19  1  0  0  0  0
 18 39  1  0  0  0  0
 18 40  1  0  0  0  0
 19 20  1  0  0  0  0
 19 21  2  0  0  0  0
 20 41  1  0  0  0  0
 20 42  1  0  0  0  0
 22 23  1  0  0  0  0
 22 43  1  0  0  0  0
 22 44  1  0  0  0  0
 23 45  1  0  0  0  0
 23 46  1  0  0  0  0
M  END
> <s_m_source_file>
AV-unprocessed.smi

> <i_m_source_file_index>
1463

> <i_lp_mmshare_version>
43012

> <i_f3d_flags>
0

> <s_epik_input>
W0NIM11PW0NIMl1bQ0gyXU9jMW5bY0hdW2NIXVtjSF1jMUMoPU8pTjJbQ0gyXVtDSDJdW0NIXShbQ0gyXVtDSDJdMilbQ0gyXUMoPU8pW05IMl0=

> <s_epik_cmdline>
J2VwaWtfcHl0aG9uJywgJy1waCcsICc3LjAnLCAnLXRuJywgJzgnLCAnLW1hJywgJzIwMCcsICctbWV0YWxfYmluZGluZycsICctaW1hZScsICc8aW5maWxlLm1hZT4nLCAnLW9tYWUnLCAnPG91dGZpbGUubWFlPic=

> <r_lp_tautomer_probability>
1

> <r_epik_Ionization_Penalty>
2.54873e-06

> <r_epik_Ionization_Penalty_Charging>
0

> <r_epik_Ionization_Penalty_Neutral>
2.54873e-06

> <r_epik_State_Penalty>
-0

> <r_epik_Charging_Adjusted_Penalty>
0

> <i_epik_Tot_Q>
0

> <i_epik_Tot_abs_Q>
0

> <r_epik_Metal_State_Penalty>
-0

> <b_epik_Metal_Only>
0

> <s_lp_Force_Field>
OPLS_2005

> <r_lp_Energy>
26.7295

> <b_lp_Chiralities_Consistent>
1

> <s_lp_Variant>
AV-unprocessed.smi:1463-1

> <Gold.Version>
5.8.1

> <Gold.Id.Protein>
6NUR|6NUR_protein|mol2

> <Gold.PLP.Fitness>
39.7979

> <Gold.PLP.PLP>
-36.0421

> <Gold.PLP.part.hbond>
-2.0000

> <Gold.PLP.part.metal>
0.0000

> <Gold.PLP.part.buried>
-4.0244

> <Gold.PLP.part.nonpolar>
-29.8333

> <Gold.PLP.part.repulsive>
0.2443

> <Gold.PLP.ligand.clash>
0.0000

> <Gold.PLP.ligand.torsion>
1.9796

> <Gold.PLP.Chemscore.Hbond>
2.0000

> <Gold.PLP.Chemscore.CHOScore>
0.0000

> <Gold.PLP.Chemscore.Metal>
0.0000

> <Gold.Chemscore.Hbonds>
donor molecule, donor type, donor heavy atom, donor atom, acceptor molecule, acceptor atom, score
      L1  H    20    41       P1 10175  0.83
      P1  H  7989  7998       L1    13  1.00

> <Gold.PLP.Chemscore.Internal.Correction>
1.7151

> <Gold.Rescore>
     Score         DG    S(hbond)    S(metal)    S(lipo)     H(rot)  DE(clash)    DE(int)     intcor
     10.58     -14.45       1.93        0.00      77.45       2.55       0.50       3.36       ----

> <Gold.Chemscore.Fitness>
10.5829

> <Gold.Chemscore.DG>
-14.4494

> <Gold.Chemscore.ZeroCoef>
-5.4800

> <Gold.Chemscore.Hbond>
1.9297

> <Gold.Chemscore.Metal>
0.0000

> <Gold.Chemscore.Lipo>
77.4474

> <Gold.Chemscore.Internal_Hbond>
0.0000

> <Gold.Chemscore.DEClash>
0.5030

> <Gold.Chemscore.DEInternal>
3.3634

> <Gold.Chemscore.Rot>
2.5536

> <Gold.Chemscore.Internal.Correction>
   9.000000E+99

> <Gold.Chemscore.Hbonds>
donor molecule, donor type, donor heavy atom, donor atom, acceptor molecule, acceptor atom, score
      L1  H    20    41       P1 10175  0.77
      P1  H  7989  7998       L1    13  0.97

> <Gold.Chemscore.Hbond.Weighted>
-6.4453

> <Gold.Chemscore.Metal.Weighted>
-0.0000

> <Gold.Chemscore.Lipo.Weighted>
-9.0613

> <Gold.Chemscore.Internal_Hbond.Weighted>
0.0000

> <Gold.Chemscore.DEClash.Weighted>
0.5030

> <Gold.Chemscore.DEInternal.Weighted>
3.3634

> <Gold.Chemscore.Rot.Weighted>
6.5373

> <Gold.Chemscore.Internal.Correction.Weighted>
   9.000000E+99

> <Gold.Protein.RotatedTorsions>
[ 6907 6896 6895 6894 ] final -123.97 input  -60.11 | X-H torsion
[ 7974 7965 7964 7962 ] final   84.10 input  175.53 | X-H torsion
[ 8008 7997 7996 7995 ] final -123.04 input   59.86 | X-H torsion
[ 10167 10162 10161 10158 ] final  152.60 input  -65.29 | X-H torsion
[ 10718 10713 10712 10709 ] final  -57.29 input   66.30 | X-H torsion
[ 10763 10752 10751 10750 ] final   23.05 input  -60.55 | X-H torsion
[ 11005 11000 10999 10996 ] final  -39.60 input  -57.11 | X-H torsion

> <Gold.Protein.ActiveResidues>
 VAL166  LYS551  ARG553  GLY616  TRP617  ASP618  TYR619  PRO620  LYS621  CYS622 
 ASP623  PHE694  ASN695  SER759  ASP760  ASP761  ALA762  ILE779  LEU786  VAL792 
 PHE793  MET794  SER795  GLU796  ALA797  LYS798  CYS799  TRP800  GLU811  SER814 

> <Gold.Protein.RotatedAtoms>
  150.8722  133.7489  159.2957 H   0  0  0  0  0  0  0  0  0  0  0  0  # atno 6907 bound_to 6896
  151.5097  135.1063  159.9860 H   0  0  0  0  0  0  0  0  0  0  0  0  # atno 6908 bound_to 6896
  152.4703  133.7970  159.6988 H   0  0  0  0  0  0  0  0  0  0  0  0  # atno 6909 bound_to 6896
  145.6032  139.2356  143.2234 H   0  0  0  0  0  0  0  0  0  0  0  0  # atno 7974 bound_to 7965
  155.1741  140.0409  157.2869 H   0  0  0  0  0  0  0  0  0  0  0  0  # atno 8008 bound_to 7997
  154.6249  140.2510  155.7476 H   0  0  0  0  0  0  0  0  0  0  0  0  # atno 8009 bound_to 7997
  156.2454  140.2887  156.0574 H   0  0  0  0  0  0  0  0  0  0  0  0  # atno 8010 bound_to 7997
  139.4832  144.5344  151.7669 H   0  0  0  0  0  0  0  0  0  0  0  0  # atno 10167 bound_to 10162
  156.1222  130.4165  150.0420 H   0  0  0  0  0  0  0  0  0  0  0  0  # atno 10718 bound_to 10713
  153.0868  135.6635  153.9933 H   0  0  0  0  0  0  0  0  0  0  0  0  # atno 10763 bound_to 10752
  153.9541  135.2981  155.3438 H   0  0  0  0  0  0  0  0  0  0  0  0  # atno 10764 bound_to 10752
  154.7277  135.5137  153.8985 H   0  0  0  0  0  0  0  0  0  0  0  0  # atno 10765 bound_to 10752
  141.0114  133.6906  156.2209 H   0  0  0  0  0  0  0  0  0  0  0  0  # atno 11005 bound_to 11000
  146.1561  140.6856  142.9299 LP  0  0  0  0  0  0  0  0  0  0  0  0  # atno 17320 bound_to 7965
  144.7301  140.4646  143.6944 LP  0  0  0  0  0  0  0  0  0  0  0  0  # atno 17321 bound_to 7965
  140.4875  144.1359  150.5944 LP  0  0  0  0  0  0  0  0  0  0  0  0  # atno 17342 bound_to 10162
  140.4209  143.2612  151.9717 LP  0  0  0  0  0  0  0  0  0  0  0  0  # atno 17343 bound_to 10162
  156.8355  130.9407  151.3635 LP  0  0  0  0  0  0  0  0  0  0  0  0  # atno 17370 bound_to 10713
  157.6405  130.8802  149.9440 LP  0  0  0  0  0  0  0  0  0  0  0  0  # atno 17371 bound_to 10713
  140.6727  134.4850  157.5587 LP  0  0  0  0  0  0  0  0  0  0  0  0  # atno 17394 bound_to 11000
  139.9092  134.8382  156.1591 LP  0  0  0  0  0  0  0  0  0  0  0  0  # atno 17395 bound_to 11000

$$$$
