AV-unprocessed.smi:1717|AV-procd|sdf|6921|dock7
  -GOLD-   22720 8123D 1   1.00000     0.00000
 Structure written by MMmdl.
 40 41  0  0  0  0  0  0  0  0  3 V2000
  153.3044  138.0944  157.4964 C   0  0  0  0  0  0  0  0  0  0  0  0
  153.0052  139.1886  156.5800 N   0  5  0  0  0  0  0  0  0  0  0  0
  152.1105  139.0896  155.5605 C   0  0  0  0  0  0  0  0  0  0  0  0
  151.4600  139.9592  154.9715 O   0  0  0  0  0  0  0  0  0  0  0  0
  151.9532  137.6351  155.1020 C   0  0  0  0  0  0  0  0  0  0  0  0
  150.6267  137.1108  155.5117 N   0  3  2  0  0  0  0  0  0  0  0  0
  150.5473  135.6322  155.4047 C   0  0  0  0  0  0  0  0  0  0  0  0
  149.2231  135.1036  155.9833 C   0  0  0  0  0  0  0  0  0  0  0  0
  147.9967  135.7637  155.3220 C   0  0  2  0  0  0  0  0  0  0  0  0
  147.8076  135.3107  153.9441 N   0  0  0  0  0  0  0  0  0  0  0  0
  146.7994  134.5373  153.5156 C   0  0  0  0  0  0  0  0  0  0  0  0
  145.9224  134.0924  154.2557 O   0  0  0  0  0  0  0  0  0  0  0  0
  146.8753  134.3229  152.1922 N   0  0  0  0  0  0  0  0  0  0  0  0
  145.9837  133.5616  151.3955 C   0  0  0  0  0  0  0  0  0  0  0  0
  146.2546  132.7780  150.2352 C   0  0  0  0  0  0  0  0  0  0  0  0
  145.1491  132.2152  149.7679 N   0  0  0  0  0  0  0  0  0  0  0  0
  144.1795  132.6309  150.6135 N   0  0  0  0  0  0  0  0  0  0  0  0
  144.6433  133.4526  151.6168 C   0  0  0  0  0  0  0  0  0  0  0  0
  148.1391  137.2948  155.3722 C   0  0  0  0  0  0  0  0  0  0  0  0
  149.4916  137.7707  154.8119 C   0  0  0  0  0  0  0  0  0  0  0  0
  143.2171  132.3486  150.4928 H   0  0  0  0  0  0  0  0  0  0  0  0
  154.0570  138.3766  158.2324 H   0  0  0  0  0  0  0  0  0  0  0  0
  153.6898  137.2133  156.9825 H   0  0  0  0  0  0  0  0  0  0  0  0
  152.4276  137.7737  158.0598 H   0  0  0  0  0  0  0  0  0  0  0  0
  152.1005  137.5084  154.0272 H   0  0  0  0  0  0  0  0  0  0  0  0
  152.7455  137.0651  155.5892 H   0  0  0  0  0  0  0  0  0  0  0  0
  150.6538  135.3343  154.3604 H   0  0  0  0  0  0  0  0  0  0  0  0
  151.3769  135.1791  155.9486 H   0  0  0  0  0  0  0  0  0  0  0  0
  149.1780  134.0184  155.8846 H   0  0  0  0  0  0  0  0  0  0  0  0
  149.2002  135.3072  157.0547 H   0  0  0  0  0  0  0  0  0  0  0  0
  147.1038  135.4911  155.8877 H   0  0  0  0  0  0  0  0  0  0  0  0
  148.4805  135.6306  153.2631 H   0  0  0  0  0  0  0  0  0  0  0  0
  147.6412  134.7595  151.7010 H   0  0  0  0  0  0  0  0  0  0  0  0
  147.1869  132.5981  149.7215 H   0  0  0  0  0  0  0  0  0  0  0  0
  143.9978  133.8719  152.3745 H   0  0  0  0  0  0  0  0  0  0  0  0
  147.3203  137.7705  154.8308 H   0  0  0  0  0  0  0  0  0  0  0  0
  148.0498  137.6277  156.4072 H   0  0  0  0  0  0  0  0  0  0  0  0
  149.5555  138.8531  154.9241 H   0  0  0  0  0  0  0  0  0  0  0  0
  149.5533  137.5648  153.7423 H   0  0  0  0  0  0  0  0  0  0  0  0
  150.5370  137.3317  156.4934 H   0  0  0  0  0  0  0  0  0  0  0  0
  1  2  1  0  0  0  0
  1 22  1  0  0  0  0
  1 23  1  0  0  0  0
  1 24  1  0  0  0  0
  2  3  1  0  0  0  0
  3  4  2  0  0  0  0
  3  5  1  0  0  0  0
  5  6  1  0  0  0  0
  5 25  1  0  0  0  0
  5 26  1  0  0  0  0
  6 20  1  0  0  0  0
  6  7  1  0  0  0  0
  6 40  1  0  0  0  0
  7  8  1  0  0  0  0
  7 27  1  0  0  0  0
  7 28  1  0  0  0  0
  8  9  1  0  0  0  0
  8 29  1  0  0  0  0
  8 30  1  0  0  0  0
  9 10  1  0  0  0  0
  9 19  1  0  0  0  0
  9 31  1  0  0  0  0
 10 11  1  0  0  0  0
 10 32  1  0  0  0  0
 11 12  2  0  0  0  0
 11 13  1  0  0  0  0
 13 14  1  0  0  0  0
 13 33  1  0  0  0  0
 14 18  2  0  0  0  0
 14 15  1  0  0  0  0
 15 16  2  0  0  0  0
 15 34  1  0  0  0  0
 16 17  1  0  0  0  0
 17 21  1  0  0  0  0
 17 18  1  0  0  0  0
 18 35  1  0  0  0  0
 19 20  1  0  0  0  0
 19 36  1  0  0  0  0
 19 37  1  0  0  0  0
 20 38  1  0  0  0  0
 20 39  1  0  0  0  0
M  CHG  1   2  -1
M  CHG  1   6   1
M  END
> <s_m_source_file>
AV-unprocessed.smi

> <i_m_source_file_index>
1717

> <i_lp_mmshare_version>
43012

> <i_f3d_flags>
0

> <s_epik_input>
W0NIM11bTkhdQyg9TylbQ0gyXU4xW0NIMl1bQ0gyXVtDSF0oW0NIMl1bQ0gyXTEpW05IXUMoPU8pW05IXWMyW2NIXW5bbkhdW2NIXTI=

> <s_epik_cmdline>
J2VwaWtfcHl0aG9uJywgJy1waCcsICc3LjAnLCAnLXRuJywgJzgnLCAnLW1hJywgJzIwMCcsICctbWV0YWxfYmluZGluZycsICctaW1hZScsICc8aW5maWxlLm1hZT4nLCAnLW9tYWUnLCAnPG91dGZpbGUubWFlPic=

> <r_lp_tautomer_probability>
0.5

> <r_epik_Ionization_Penalty>
6.1395

> <r_epik_Ionization_Penalty_Charging>
6.13946

> <r_epik_Ionization_Penalty_Neutral>
4.21226e-05

> <r_epik_State_Penalty>
6.9595

> <r_epik_Charging_Adjusted_Penalty>
13.099

> <i_epik_Tot_Q>
0

> <i_epik_Tot_abs_Q>
2

> <r_epik_Metal_State_Penalty>
2.89141

> <b_epik_Metal_Only>
1

> <s_lp_Force_Field>
OPLS_2005

> <r_lp_Energy>
13.1948

> <b_lp_Chiralities_Consistent>
1

> <s_lp_Variant>
AV-unprocessed.smi:1717-5

> <Gold.Version>
5.8.1

> <Gold.Id.Protein>
6NUR|6NUR_protein|mol2

> <Gold.PLP.Fitness>
40.1267

> <Gold.PLP.PLP>
-23.6448

> <Gold.PLP.part.hbond>
-4.0000

> <Gold.PLP.part.metal>
0.0000

> <Gold.PLP.part.buried>
-4.7178

> <Gold.PLP.part.nonpolar>
-15.8493

> <Gold.PLP.part.repulsive>
0.4042

> <Gold.PLP.ligand.clash>
0.0000

> <Gold.PLP.ligand.torsion>
0.6008

> <Gold.PLP.Chemscore.Hbond>
4.8800

> <Gold.PLP.Chemscore.CHOScore>
0.9990

> <Gold.PLP.Chemscore.Metal>
0.0000

> <Gold.Chemscore.Hbonds>
donor molecule, donor type, donor heavy atom, donor atom, acceptor molecule, acceptor atom, score
      L1  H    10    32       P1  7948  1.00
      L1  H    13    33       P1  7948  0.88
      P1  H  7989  7998       L1     4  1.00
      P1  H  7997  8008       L1     2  1.90
      L1  C    15    34       P1 10747  0.96

> <Gold.PLP.Chemscore.Internal.Correction>
0.0464

> <Gold.Rescore>
     Score         DG    S(hbond)    S(metal)    S(lipo)     H(rot)  DE(clash)    DE(int)     intcor
     20.33     -21.28       4.57        0.00      42.95       1.75       0.00       0.95       ----

> <Gold.Chemscore.Fitness>
20.3326

> <Gold.Chemscore.DG>
-21.2834

> <Gold.Chemscore.ZeroCoef>
-5.4800

> <Gold.Chemscore.Hbond>
4.5720

> <Gold.Chemscore.Metal>
0.0000

> <Gold.Chemscore.Lipo>
42.9466

> <Gold.Chemscore.Internal_Hbond>
0.0000

> <Gold.Chemscore.DEClash>
0.0038

> <Gold.Chemscore.DEInternal>
0.9470

> <Gold.Chemscore.Rot>
1.7546

> <Gold.Chemscore.Internal.Correction>
   9.000000E+99

> <Gold.Chemscore.Hbonds>
donor molecule, donor type, donor heavy atom, donor atom, acceptor molecule, acceptor atom, score
      L1  H    10    32       P1  7948  0.96
      L1  H    13    33       P1  7948  0.34
      P1  H  7989  7998       L1     4  0.99
      P1  H  7997  8008       L1     2  0.21

> <Gold.Chemscore.Hbond.Weighted>
-15.2704

> <Gold.Chemscore.Metal.Weighted>
-0.0000

> <Gold.Chemscore.Lipo.Weighted>
-5.0247

> <Gold.Chemscore.Internal_Hbond.Weighted>
0.0000

> <Gold.Chemscore.DEClash.Weighted>
0.0038

> <Gold.Chemscore.DEInternal.Weighted>
0.9470

> <Gold.Chemscore.Rot.Weighted>
4.4917

> <Gold.Chemscore.Internal.Correction.Weighted>
   9.000000E+99

> <Gold.Protein.RotatedTorsions>
[ 6907 6896 6895 6894 ] final   88.36 input  -60.11 | X-H torsion
[ 7974 7965 7964 7962 ] final -138.59 input  175.53 | X-H torsion
[ 8008 7997 7996 7995 ] final  -68.20 input   59.86 | X-H torsion
[ 10167 10162 10161 10158 ] final   54.18 input  -65.29 | X-H torsion
[ 10718 10713 10712 10709 ] final  -40.39 input   66.30 | X-H torsion
[ 10763 10752 10751 10750 ] final -139.05 input  -60.55 | X-H torsion
[ 11005 11000 10999 10996 ] final  136.17 input  -57.11 | X-H torsion

> <Gold.Protein.ActiveResidues>
 VAL166  LYS551  ARG553  GLY616  TRP617  ASP618  TYR619  PRO620  LYS621  CYS622 
 ASP623  PHE694  ASN695  SER759  ASP760  ASP761  ALA762  ILE779  LEU786  VAL792 
 PHE793  MET794  SER795  GLU796  ALA797  LYS798  CYS799  TRP800  GLU811  SER814 

> <Gold.Protein.RotatedAtoms>
  152.5424  134.2133  159.8758 H   0  0  0  0  0  0  0  0  0  0  0  0  # atno 6907 bound_to 6896
  151.2115  133.4546  159.2606 H   0  0  0  0  0  0  0  0  0  0  0  0  # atno 6908 bound_to 6896
  151.0892  134.9919  159.8450 H   0  0  0  0  0  0  0  0  0  0  0  0  # atno 6909 bound_to 6896
  144.8746  140.6417  143.5245 H   0  0  0  0  0  0  0  0  0  0  0  0  # atno 7974 bound_to 7965
  154.4851  140.0877  156.7468 H   0  0  0  0  0  0  0  0  0  0  0  0  # atno 8008 bound_to 7997
  155.4370  140.3452  155.4267 H   0  0  0  0  0  0  0  0  0  0  0  0  # atno 8009 bound_to 7997
  156.1250  140.1485  156.9138 H   0  0  0  0  0  0  0  0  0  0  0  0  # atno 8010 bound_to 7997
  140.2328  144.3668  150.6408 H   0  0  0  0  0  0  0  0  0  0  0  0  # atno 10167 bound_to 10162
  156.2818  130.4218  149.8329 H   0  0  0  0  0  0  0  0  0  0  0  0  # atno 10718 bound_to 10713
  154.8620  135.3594  154.5484 H   0  0  0  0  0  0  0  0  0  0  0  0  # atno 10763 bound_to 10752
  153.6103  135.7009  153.5354 H   0  0  0  0  0  0  0  0  0  0  0  0  # atno 10764 bound_to 10752
  153.3215  135.4150  155.1381 H   0  0  0  0  0  0  0  0  0  0  0  0  # atno 10765 bound_to 10752
  140.0028  134.9471  157.0110 H   0  0  0  0  0  0  0  0  0  0  0  0  # atno 11005 bound_to 11000
  145.4067  139.1587  143.4148 LP  0  0  0  0  0  0  0  0  0  0  0  0  # atno 17320 bound_to 7965
  146.2954  140.4168  142.8724 LP  0  0  0  0  0  0  0  0  0  0  0  0  # atno 17321 bound_to 7965
  140.6172  143.2173  151.6768 LP  0  0  0  0  0  0  0  0  0  0  0  0  # atno 17342 bound_to 10162
  139.5104  144.3544  152.0621 LP  0  0  0  0  0  0  0  0  0  0  0  0  # atno 17343 bound_to 10162
  156.5773  130.8450  151.3373 LP  0  0  0  0  0  0  0  0  0  0  0  0  # atno 17370 bound_to 10713
  157.7317  130.9703  150.1891 LP  0  0  0  0  0  0  0  0  0  0  0  0  # atno 17371 bound_to 10713
  140.4696  134.1400  155.7201 LP  0  0  0  0  0  0  0  0  0  0  0  0  # atno 17394 bound_to 11000
  141.1655  133.8712  157.1727 LP  0  0  0  0  0  0  0  0  0  0  0  0  # atno 17395 bound_to 11000

$$$$
