AV-unprocessed.smi:951|AV-procd|sdf|4251|dock4
  -GOLD-   22720 2153D 1   1.00000     0.00000
 Structure written by MMmdl.
 51 53  0  0  0  0  0  0  0  0  1 V2000
  147.6643  139.4499  158.4226 O   0  0  0  0  0  0  0  0  0  0  0  0
  148.7598  139.4942  157.8634 C   0  0  0  0  0  0  0  0  0  0  0  0
  149.7432  138.6196  158.1320 N   0  0  0  0  0  0  0  0  0  0  0  0
  149.6581  137.5367  159.0993 C   0  0  0  0  0  0  0  0  0  0  0  0
  148.2975  136.8345  158.9926 C   0  0  0  0  0  0  0  0  0  0  0  0
  147.8410  136.2607  160.3203 C   0  0  0  0  0  0  0  0  0  0  0  0
  147.7422  134.8652  160.5076 C   0  0  0  0  0  0  0  0  0  0  0  0
  147.3208  134.3851  161.7627 C   0  0  0  0  0  0  0  0  0  0  0  0
  147.0166  135.3135  162.7768 C   0  0  0  0  0  0  0  0  0  0  0  0
  147.1485  136.6870  162.4898 C   0  0  0  0  0  0  0  0  0  0  0  0
  147.5510  137.1578  161.2897 N   0  0  0  0  0  0  0  0  0  0  0  0
  149.0320  140.6031  156.8203 C   0  0  2  0  0  0  0  0  0  0  0  0
  149.1497  140.0027  155.4113 C   0  0  0  0  0  0  0  0  0  0  0  0
  150.6357  139.7272  155.2474 C   0  0  0  0  0  0  0  0  0  0  0  0
  151.3065  140.8499  156.0399 C   0  0  0  0  0  0  0  0  0  0  0  0
  150.3120  141.3072  157.0163 N   0  0  0  0  0  0  0  0  0  0  0  0
  150.5083  142.2568  157.9627 C   0  0  0  0  0  0  0  0  0  0  0  0
  149.5949  142.6157  158.7060 O   0  0  0  0  0  0  0  0  0  0  0  0
  151.9141  142.8822  158.1263 C   0  0  0  0  0  0  0  0  0  0  0  0
  152.5129  142.5687  159.5181 C   0  0  0  0  0  0  0  0  0  0  0  0
  151.8946  143.4160  160.6435 C   0  0  0  0  0  0  0  0  0  0  0  0
  152.0442  144.9144  160.3433 C   0  0  0  0  0  0  0  0  0  0  0  0
  151.4029  145.2775  158.9962 C   0  0  0  0  0  0  0  0  0  0  0  0
  151.9553  144.4074  157.8475 C   0  0  0  0  0  0  0  0  0  0  0  0
  150.6160  138.7214  157.6347 H   0  0  0  0  0  0  0  0  0  0  0  0
  150.4627  136.8218  158.9191 H   0  0  0  0  0  0  0  0  0  0  0  0
  149.7998  137.9403  160.1031 H   0  0  0  0  0  0  0  0  0  0  0  0
  147.5421  137.5349  158.6326 H   0  0  0  0  0  0  0  0  0  0  0  0
  148.3482  136.0333  158.2538 H   0  0  0  0  0  0  0  0  0  0  0  0
  147.9856  134.1779  159.7106 H   0  0  0  0  0  0  0  0  0  0  0  0
  147.2338  133.3242  161.9449 H   0  0  0  0  0  0  0  0  0  0  0  0
  146.6909  134.9817  163.7515 H   0  0  0  0  0  0  0  0  0  0  0  0
  146.9248  137.4272  163.2439 H   0  0  0  0  0  0  0  0  0  0  0  0
  148.1985  141.3076  156.8467 H   0  0  0  0  0  0  0  0  0  0  0  0
  148.5397  139.1116  155.2547 H   0  0  0  0  0  0  0  0  0  0  0  0
  148.8343  140.7429  154.6747 H   0  0  0  0  0  0  0  0  0  0  0  0
  150.8800  138.7635  155.6964 H   0  0  0  0  0  0  0  0  0  0  0  0
  150.9507  139.6981  154.2039 H   0  0  0  0  0  0  0  0  0  0  0  0
  152.2237  140.5008  156.5151 H   0  0  0  0  0  0  0  0  0  0  0  0
  151.5576  141.6747  155.3717 H   0  0  0  0  0  0  0  0  0  0  0  0
  152.5656  142.4357  157.3766 H   0  0  0  0  0  0  0  0  0  0  0  0
  152.3939  141.5112  159.7573 H   0  0  0  0  0  0  0  0  0  0  0  0
  153.5888  142.7459  159.4894 H   0  0  0  0  0  0  0  0  0  0  0  0
  150.8403  143.1657  160.7681 H   0  0  0  0  0  0  0  0  0  0  0  0
  152.3789  143.1795  161.5911 H   0  0  0  0  0  0  0  0  0  0  0  0
  151.5894  145.5017  161.1415 H   0  0  0  0  0  0  0  0  0  0  0  0
  153.1021  145.1800  160.3279 H   0  0  0  0  0  0  0  0  0  0  0  0
  150.3210  145.1738  159.0698 H   0  0  0  0  0  0  0  0  0  0  0  0
  151.5846  146.3299  158.7761 H   0  0  0  0  0  0  0  0  0  0  0  0
  152.9912  144.6960  157.6655 H   0  0  0  0  0  0  0  0  0  0  0  0
  151.4209  144.6369  156.9247 H   0  0  0  0  0  0  0  0  0  0  0  0
  1  2  2  0  0  0  0
  2  3  1  0  0  0  0
  2 12  1  0  0  0  0
  3  4  1  0  0  0  0
  3 25  1  0  0  0  0
  4  5  1  0  0  0  0
  4 26  1  0  0  0  0
  4 27  1  0  0  0  0
  5  6  1  0  0  0  0
  5 28  1  0  0  0  0
  5 29  1  0  0  0  0
  6 11  1  0  0  0  0
  6  7  2  0  0  0  0
  7  8  1  0  0  0  0
  7 30  1  0  0  0  0
  8  9  2  0  0  0  0
  8 31  1  0  0  0  0
  9 10  1  0  0  0  0
  9 32  1  0  0  0  0
 10 11  2  0  0  0  0
 10 33  1  0  0  0  0
 12 16  1  0  0  0  0
 12 13  1  0  0  0  0
 12 34  1  0  0  0  0
 13 14  1  0  0  0  0
 13 35  1  0  0  0  0
 13 36  1  0  0  0  0
 14 15  1  0  0  0  0
 14 37  1  0  0  0  0
 14 38  1  0  0  0  0
 15 16  1  0  0  0  0
 15 39  1  0  0  0  0
 15 40  1  0  0  0  0
 16 17  1  0  0  0  0
 17 18  2  0  0  0  0
 17 19  1  0  0  0  0
 19 24  1  0  0  0  0
 19 20  1  0  0  0  0
 19 41  1  0  0  0  0
 20 21  1  0  0  0  0
 20 42  1  0  0  0  0
 20 43  1  0  0  0  0
 21 22  1  0  0  0  0
 21 44  1  0  0  0  0
 21 45  1  0  0  0  0
 22 23  1  0  0  0  0
 22 46  1  0  0  0  0
 22 47  1  0  0  0  0
 23 24  1  0  0  0  0
 23 48  1  0  0  0  0
 23 49  1  0  0  0  0
 24 50  1  0  0  0  0
 24 51  1  0  0  0  0
M  END
> <s_m_source_file>
AV-unprocessed.smi

> <i_m_source_file_index>
951

> <i_lp_mmshare_version>
43012

> <i_f3d_flags>
0

> <s_epik_input>
bjFbY0hdW2NIXVtjSF1bY0hdYzFbQ0gyXVtDSDJdW05IXUMoPU8pW0NAQEhdMltDSDJdW0NIMl1bQ0gyXU4yQyg9TylbQ0hdM1tDSDJdW0NIMl1bQ0gyXVtDSDJdW0NIMl0z

> <s_epik_cmdline>
J2VwaWtfcHl0aG9uJywgJy1waCcsICc3LjAnLCAnLXRuJywgJzgnLCAnLW1hJywgJzIwMCcsICctbWV0YWxfYmluZGluZycsICctaW1hZScsICc8aW5maWxlLm1hZT4nLCAnLW9tYWUnLCAnPG91dGZpbGUubWFlPic=

> <r_epik_Ionization_Penalty>
0.0265505

> <r_epik_Ionization_Penalty_Charging>
0

> <r_epik_Ionization_Penalty_Neutral>
0.0265505

> <r_epik_State_Penalty>
0.02168

> <r_epik_Charging_Adjusted_Penalty>
0.02168

> <i_epik_Tot_Q>
0

> <i_epik_Tot_abs_Q>
0

> <r_epik_Metal_State_Penalty>
0.020746

> <b_epik_Metal_Only>
0

> <s_lp_Force_Field>
OPLS_2005

> <r_lp_Energy>
18.972

> <b_lp_Chiralities_Consistent>
1

> <s_lp_Variant>
AV-unprocessed.smi:951-1

> <Gold.Version>
5.8.1

> <Gold.Id.Protein>
6NUR|6NUR_protein|mol2

> <Gold.PLP.Fitness>
59.1221

> <Gold.PLP.PLP>
-54.9474

> <Gold.PLP.part.hbond>
-3.4195

> <Gold.PLP.part.metal>
0.0000

> <Gold.PLP.part.buried>
-7.4346

> <Gold.PLP.part.nonpolar>
-46.3237

> <Gold.PLP.part.repulsive>
0.2393

> <Gold.PLP.ligand.clash>
0.0000

> <Gold.PLP.ligand.torsion>
0.5804

> <Gold.PLP.Chemscore.Hbond>
1.7492

> <Gold.PLP.Chemscore.CHOScore>
0.0000

> <Gold.PLP.Chemscore.Metal>
0.0000

> <Gold.Chemscore.Hbonds>
donor molecule, donor type, donor heavy atom, donor atom, acceptor molecule, acceptor atom, score
      P1  H  6931  6943       L1    11  0.85
      P1  H  6934  6947       L1    11  0.91

> <Gold.PLP.Chemscore.Internal.Correction>
0.0878

> <Gold.Rescore>
     Score         DG    S(hbond)    S(metal)    S(lipo)     H(rot)  DE(clash)    DE(int)     intcor
     19.37     -21.21       1.00        0.00     139.66       1.55       0.02       1.81       ----

> <Gold.Chemscore.Fitness>
19.3745

> <Gold.Chemscore.DG>
-21.2054

> <Gold.Chemscore.ZeroCoef>
-5.4800

> <Gold.Chemscore.Hbond>
1.0044

> <Gold.Chemscore.Metal>
0.0000

> <Gold.Chemscore.Lipo>
139.6590

> <Gold.Chemscore.Internal_Hbond>
0.0000

> <Gold.Chemscore.DEClash>
0.0174

> <Gold.Chemscore.DEInternal>
1.8135

> <Gold.Chemscore.Rot>
1.5506

> <Gold.Chemscore.Internal.Correction>
   9.000000E+99

> <Gold.Chemscore.Hbonds>
donor molecule, donor type, donor heavy atom, donor atom, acceptor molecule, acceptor atom, score
      P1  H  6931  6943       L1    11  0.15
      P1  H  6934  6947       L1    11  0.81

> <Gold.Chemscore.Hbond.Weighted>
-3.3548

> <Gold.Chemscore.Metal.Weighted>
-0.0000

> <Gold.Chemscore.Lipo.Weighted>
-16.3401

> <Gold.Chemscore.Internal_Hbond.Weighted>
0.0000

> <Gold.Chemscore.DEClash.Weighted>
0.0174

> <Gold.Chemscore.DEInternal.Weighted>
1.8135

> <Gold.Chemscore.Rot.Weighted>
3.9695

> <Gold.Chemscore.Internal.Correction.Weighted>
   9.000000E+99

> <Gold.Protein.RotatedTorsions>
[ 6907 6896 6895 6894 ] final  -84.78 input  -60.11 | X-H torsion
[ 7974 7965 7964 7962 ] final  112.11 input  175.53 | X-H torsion
[ 8008 7997 7996 7995 ] final -136.23 input   59.86 | X-H torsion
[ 10167 10162 10161 10158 ] final   -6.47 input  -65.29 | X-H torsion
[ 10718 10713 10712 10709 ] final    6.74 input   66.30 | X-H torsion
[ 10763 10752 10751 10750 ] final  -36.17 input  -60.55 | X-H torsion
[ 11005 11000 10999 10996 ] final   17.97 input  -57.11 | X-H torsion

> <Gold.Protein.ActiveResidues>
 VAL166  LYS551  ARG553  GLY616  TRP617  ASP618  TYR619  PRO620  LYS621  CYS622 
 ASP623  PHE694  ASN695  SER759  ASP760  ASP761  ALA762  ILE779  LEU786  VAL792 
 PHE793  MET794  SER795  GLU796  ALA797  LYS798  CYS799  TRP800  GLU811  SER814 

> <Gold.Protein.RotatedAtoms>
  150.6874  134.3306  159.4825 H   0  0  0  0  0  0  0  0  0  0  0  0  # atno 6907 bound_to 6896
  152.1171  134.9230  160.0573 H   0  0  0  0  0  0  0  0  0  0  0  0  # atno 6908 bound_to 6896
  152.0450  133.3959  159.4390 H   0  0  0  0  0  0  0  0  0  0  0  0  # atno 6909 bound_to 6896
  145.2338  139.2808  143.4154 H   0  0  0  0  0  0  0  0  0  0  0  0  # atno 7974 bound_to 7965
  155.3917  140.0500  157.3040 H   0  0  0  0  0  0  0  0  0  0  0  0  # atno 8008 bound_to 7997
  154.5033  140.2165  155.9264 H   0  0  0  0  0  0  0  0  0  0  0  0  # atno 8009 bound_to 7997
  156.1494  140.3139  155.8629 H   0  0  0  0  0  0  0  0  0  0  0  0  # atno 8010 bound_to 7997
  140.6998  143.6190  150.8631 H   0  0  0  0  0  0  0  0  0  0  0  0  # atno 10167 bound_to 10162
  156.9267  130.5811  149.5648 H   0  0  0  0  0  0  0  0  0  0  0  0  # atno 10718 bound_to 10713
  153.8754  135.6827  153.4771 H   0  0  0  0  0  0  0  0  0  0  0  0  # atno 10763 bound_to 10752
  153.1264  135.4717  154.9276 H   0  0  0  0  0  0  0  0  0  0  0  0  # atno 10764 bound_to 10752
  154.7694  135.3234  154.8171 H   0  0  0  0  0  0  0  0  0  0  0  0  # atno 10765 bound_to 10752
  140.4300  134.1430  155.7680 H   0  0  0  0  0  0  0  0  0  0  0  0  # atno 11005 bound_to 11000
  146.3346  140.2680  142.8604 LP  0  0  0  0  0  0  0  0  0  0  0  0  # atno 17320 bound_to 7965
  144.9652  140.8315  143.5489 LP  0  0  0  0  0  0  0  0  0  0  0  0  # atno 17321 bound_to 7965
  139.9911  143.5846  152.2910 LP  0  0  0  0  0  0  0  0  0  0  0  0  # atno 17342 bound_to 10162
  139.6501  144.7660  151.2164 LP  0  0  0  0  0  0  0  0  0  0  0  0  # atno 17343 bound_to 10162
  156.0466  130.5541  150.8894 LP  0  0  0  0  0  0  0  0  0  0  0  0  # atno 17370 bound_to 10713
  157.5873  131.0945  150.9175 LP  0  0  0  0  0  0  0  0  0  0  0  0  # atno 17371 bound_to 10713
  141.1749  133.8533  157.1452 LP  0  0  0  0  0  0  0  0  0  0  0  0  # atno 17394 bound_to 11000
  140.0141  134.9975  157.0456 LP  0  0  0  0  0  0  0  0  0  0  0  0  # atno 17395 bound_to 11000

$$$$
