AV-unprocessed.smi:1893|AV-procd|sdf|7677|dock3
  -GOLD-   22720 9413D 1   1.00000     0.00000
 Structure written by MMmdl.
 43 44  0  0  0  0  0  0  0  0  2 V2000
  152.7064  144.7098  158.0224 C   0  0  0  0  0  0  0  0  0  0  0  0
  151.5203  144.1078  158.8073 C   0  0  2  0  0  0  0  0  0  0  0  0
  151.1606  144.9390  160.0569 C   0  0  0  0  0  0  0  0  0  0  0  0
  152.1956  144.7726  161.1794 C   0  0  0  0  0  0  0  0  0  0  0  0
  152.3857  143.2857  161.5019 C   0  0  0  0  0  0  0  0  0  0  0  0
  152.7430  142.4835  160.2399 C   0  0  0  0  0  0  0  0  0  0  0  0
  151.7193  142.6737  159.1759 N   0  3  2  0  0  0  0  0  0  0  0  0
  151.9034  141.7778  158.0055 C   0  0  0  0  0  0  0  0  0  0  0  0
  150.8668  142.0427  156.8967 C   0  0  0  0  0  0  0  0  0  0  0  0
  150.4617  140.8033  156.2453 N   0  0  0  0  0  0  0  0  0  0  0  0
  151.2898  139.7948  155.9282 C   0  0  0  0  0  0  0  0  0  0  0  0
  152.5041  139.8410  156.1290 O   0  0  0  0  0  0  0  0  0  0  0  0
  150.6395  138.5511  155.2992 C   0  0  1  0  0  0  0  0  0  0  0  0
  151.1078  138.2909  153.8531 C   0  0  0  0  0  0  0  0  0  0  0  0
  150.8440  137.3859  156.1516 N   0  0  0  0  0  0  0  0  0  0  0  0
  150.5223  137.1918  157.4324 C   0  0  0  0  0  0  0  0  0  0  0  0
  150.8984  136.0138  157.9098 N   0  0  0  0  0  0  0  0  0  0  0  0
  151.4911  135.4941  156.7941 C   0  0  0  0  0  0  0  0  0  0  0  0
  151.4961  136.2787  155.7166 N   0  0  0  0  0  0  0  0  0  0  0  0
  152.5061  145.7498  157.7633 H   0  0  0  0  0  0  0  0  0  0  0  0
  152.8830  144.1799  157.0864 H   0  0  0  0  0  0  0  0  0  0  0  0
  153.6349  144.6923  158.5919 H   0  0  0  0  0  0  0  0  0  0  0  0
  150.6523  144.1488  158.1475 H   0  0  0  0  0  0  0  0  0  0  0  0
  151.0581  145.9927  159.7955 H   0  0  0  0  0  0  0  0  0  0  0  0
  150.1839  144.6238  160.4268 H   0  0  0  0  0  0  0  0  0  0  0  0
  153.1476  145.2135  160.8827 H   0  0  0  0  0  0  0  0  0  0  0  0
  151.8714  145.3109  162.0705 H   0  0  0  0  0  0  0  0  0  0  0  0
  153.1658  143.1646  162.2541 H   0  0  0  0  0  0  0  0  0  0  0  0
  151.4698  142.8868  161.9401 H   0  0  0  0  0  0  0  0  0  0  0  0
  153.7271  142.7742  159.8711 H   0  0  0  0  0  0  0  0  0  0  0  0
  152.8154  141.4303  160.5081 H   0  0  0  0  0  0  0  0  0  0  0  0
  152.8989  141.9397  157.5895 H   0  0  0  0  0  0  0  0  0  0  0  0
  151.8683  140.7349  158.3244 H   0  0  0  0  0  0  0  0  0  0  0  0
  149.9679  142.5033  157.3050 H   0  0  0  0  0  0  0  0  0  0  0  0
  151.2653  142.7398  156.1575 H   0  0  0  0  0  0  0  0  0  0  0  0
  149.4788  140.6924  156.0423 H   0  0  0  0  0  0  0  0  0  0  0  0
  149.5650  138.7378  155.2628 H   0  0  0  0  0  0  0  0  0  0  0  0
  150.8817  139.1398  153.2069 H   0  0  0  0  0  0  0  0  0  0  0  0
  150.6041  137.4196  153.4335 H   0  0  0  0  0  0  0  0  0  0  0  0
  152.1819  138.1090  153.7970 H   0  0  0  0  0  0  0  0  0  0  0  0
  150.0074  137.9298  158.0302 H   0  0  0  0  0  0  0  0  0  0  0  0
  151.9390  134.5112  156.7777 H   0  0  0  0  0  0  0  0  0  0  0  0
  150.8413  142.3920  159.5884 H   0  0  0  0  0  0  0  0  0  0  0  0
  1  2  1  0  0  0  0
  1 20  1  0  0  0  0
  1 21  1  0  0  0  0
  1 22  1  0  0  0  0
  2  7  1  0  0  0  0
  2  3  1  0  0  0  0
  2 23  1  0  0  0  0
  3  4  1  0  0  0  0
  3 24  1  0  0  0  0
  3 25  1  0  0  0  0
  4  5  1  0  0  0  0
  4 26  1  0  0  0  0
  4 27  1  0  0  0  0
  5  6  1  0  0  0  0
  5 28  1  0  0  0  0
  5 29  1  0  0  0  0
  6  7  1  0  0  0  0
  6 30  1  0  0  0  0
  6 31  1  0  0  0  0
  7  8  1  0  0  0  0
  7 43  1  0  0  0  0
  8  9  1  0  0  0  0
  8 32  1  0  0  0  0
  8 33  1  0  0  0  0
  9 10  1  0  0  0  0
  9 34  1  0  0  0  0
  9 35  1  0  0  0  0
 10 11  1  0  0  0  0
 10 36  1  0  0  0  0
 11 12  2  0  0  0  0
 11 13  1  0  0  0  0
 13 14  1  0  0  0  0
 13 15  1  0  0  0  0
 13 37  1  0  0  0  0
 14 38  1  0  0  0  0
 14 39  1  0  0  0  0
 14 40  1  0  0  0  0
 15 19  1  0  0  0  0
 15 16  1  0  0  0  0
 16 17  2  0  0  0  0
 16 41  1  0  0  0  0
 17 18  1  0  0  0  0
 18 19  2  0  0  0  0
 18 42  1  0  0  0  0
M  CHG  1   7   1
M  END
> <s_m_source_file>
AV-unprocessed.smi

> <i_m_source_file_index>
1893

> <i_lp_mmshare_version>
43012

> <i_f3d_flags>
0

> <s_epik_input>
W0NIM11bQ0BASF0xW0NIMl1bQ0gyXVtDSDJdW0NIMl1OMVtDSDJdW0NIMl1bTkhdQyg9TylbQ0BIXShbQ0gzXSluMltjSF1uW2NIXW4y

> <s_epik_cmdline>
J2VwaWtfcHl0aG9uJywgJy1waCcsICc3LjAnLCAnLXRuJywgJzgnLCAnLW1hJywgJzIwMCcsICctbWV0YWxfYmluZGluZycsICctaW1hZScsICc8aW5maWxlLm1hZT4nLCAnLW9tYWUnLCAnPG91dGZpbGUubWFlPic=

> <r_lp_tautomer_probability>
1

> <r_epik_Ionization_Penalty>
0.00266409

> <r_epik_Ionization_Penalty_Charging>
0.00265606

> <r_epik_Ionization_Penalty_Neutral>
8.02794e-06

> <r_epik_State_Penalty>
0.00184955

> <r_epik_Charging_Adjusted_Penalty>
0.00450561

> <i_epik_Tot_Q>
1

> <i_epik_Tot_abs_Q>
1

> <r_epik_Metal_State_Penalty>
-0

> <b_epik_Metal_Only>
0

> <s_lp_Force_Field>
OPLS_2005

> <r_lp_Energy>
24.5349

> <b_lp_Chiralities_Consistent>
1

> <s_lp_Variant>
AV-unprocessed.smi:1893-7

> <Gold.Version>
5.8.1

> <Gold.Id.Protein>
6NUR|6NUR_protein|mol2

> <Gold.PLP.Fitness>
45.7482

> <Gold.PLP.PLP>
-39.0762

> <Gold.PLP.part.hbond>
-3.0000

> <Gold.PLP.part.metal>
0.0000

> <Gold.PLP.part.buried>
-5.7154

> <Gold.PLP.part.nonpolar>
-30.3108

> <Gold.PLP.part.repulsive>
0.1967

> <Gold.PLP.ligand.clash>
0.0000

> <Gold.PLP.ligand.torsion>
0.4876

> <Gold.PLP.Chemscore.Hbond>
2.4550

> <Gold.PLP.Chemscore.CHOScore>
0.0000

> <Gold.PLP.Chemscore.Metal>
0.0000

> <Gold.Chemscore.Hbonds>
donor molecule, donor type, donor heavy atom, donor atom, acceptor molecule, acceptor atom, score
      P1  H  6896  6908       L1    17  0.44
      P1  H  7997  8009       L1    12  1.00
      P1  H 10752 10765       L1    19  1.00

> <Gold.PLP.Chemscore.Internal.Correction>
0.2822

> <Gold.Rescore>
     Score         DG    S(hbond)    S(metal)    S(lipo)     H(rot)  DE(clash)    DE(int)     intcor
     17.06     -19.06       2.38        0.00     103.53       2.54       0.06       1.94       ----

> <Gold.Chemscore.Fitness>
17.0564

> <Gold.Chemscore.DG>
-19.0569

> <Gold.Chemscore.ZeroCoef>
-5.4800

> <Gold.Chemscore.Hbond>
2.3835

> <Gold.Chemscore.Metal>
0.0000

> <Gold.Chemscore.Lipo>
103.5252

> <Gold.Chemscore.Internal_Hbond>
0.0000

> <Gold.Chemscore.DEClash>
0.0620

> <Gold.Chemscore.DEInternal>
1.9385

> <Gold.Chemscore.Rot>
2.5377

> <Gold.Chemscore.Internal.Correction>
   9.000000E+99

> <Gold.Chemscore.Hbonds>
donor molecule, donor type, donor heavy atom, donor atom, acceptor molecule, acceptor atom, score
      P1  H  6896  6908       L1    17  0.41
      P1  H  7997  8009       L1    12  1.00
      P1  H 10752 10765       L1    19  0.49

> <Gold.Chemscore.Hbond.Weighted>
-7.9610

> <Gold.Chemscore.Metal.Weighted>
-0.0000

> <Gold.Chemscore.Lipo.Weighted>
-12.1124

> <Gold.Chemscore.Internal_Hbond.Weighted>
0.0000

> <Gold.Chemscore.DEClash.Weighted>
0.0620

> <Gold.Chemscore.DEInternal.Weighted>
1.9385

> <Gold.Chemscore.Rot.Weighted>
6.4966

> <Gold.Chemscore.Internal.Correction.Weighted>
   9.000000E+99

> <Gold.Protein.RotatedTorsions>
[ 6907 6896 6895 6894 ] final -167.66 input  -60.11 | X-H torsion
[ 7974 7965 7964 7962 ] final  101.07 input  175.53 | X-H torsion
[ 8008 7997 7996 7995 ] final -156.00 input   59.86 | X-H torsion
[ 10167 10162 10161 10158 ] final  165.37 input  -65.29 | X-H torsion
[ 10718 10713 10712 10709 ] final -124.73 input   66.30 | X-H torsion
[ 10763 10752 10751 10750 ] final  179.98 input  -60.55 | X-H torsion
[ 11005 11000 10999 10996 ] final -151.31 input  -57.11 | X-H torsion

> <Gold.Protein.ActiveResidues>
 VAL166  LYS551  ARG553  GLY616  TRP617  ASP618  TYR619  PRO620  LYS621  CYS622 
 ASP623  PHE694  ASN695  SER759  ASP760  ASP761  ALA762  ILE779  LEU786  VAL792 
 PHE793  MET794  SER795  GLU796  ALA797  LYS798  CYS799  TRP800  GLU811  SER814 

> <Gold.Protein.RotatedAtoms>
  151.4631  133.3588  159.2811 H   0  0  0  0  0  0  0  0  0  0  0  0  # atno 6907 bound_to 6896
  150.9012  134.8426  159.7372 H   0  0  0  0  0  0  0  0  0  0  0  0  # atno 6908 bound_to 6896
  152.4880  134.4551  159.9639 H   0  0  0  0  0  0  0  0  0  0  0  0  # atno 6909 bound_to 6896
  145.3772  139.2386  143.3423 H   0  0  0  0  0  0  0  0  0  0  0  0  # atno 7974 bound_to 7965
  155.7105  140.0777  157.2373 H   0  0  0  0  0  0  0  0  0  0  0  0  # atno 8008 bound_to 7997
  154.4059  140.1631  156.2344 H   0  0  0  0  0  0  0  0  0  0  0  0  # atno 8009 bound_to 7997
  155.9287  140.3393  155.6234 H   0  0  0  0  0  0  0  0  0  0  0  0  # atno 8010 bound_to 7997
  139.4905  144.4139  151.9267 H   0  0  0  0  0  0  0  0  0  0  0  0  # atno 10167 bound_to 10162
  156.1613  130.6603  151.0053 H   0  0  0  0  0  0  0  0  0  0  0  0  # atno 10718 bound_to 10713
  154.5276  135.2798  155.1208 H   0  0  0  0  0  0  0  0  0  0  0  0  # atno 10763 bound_to 10752
  154.2741  135.6298  153.5325 H   0  0  0  0  0  0  0  0  0  0  0  0  # atno 10764 bound_to 10752
  152.9950  135.5635  154.5781 H   0  0  0  0  0  0  0  0  0  0  0  0  # atno 10765 bound_to 10752
  140.7309  134.3622  157.5167 H   0  0  0  0  0  0  0  0  0  0  0  0  # atno 11005 bound_to 11000
  146.2858  140.4434  142.8758 LP  0  0  0  0  0  0  0  0  0  0  0  0  # atno 17320 bound_to 7965
  144.8533  140.7034  143.6154 LP  0  0  0  0  0  0  0  0  0  0  0  0  # atno 17321 bound_to 7965
  140.3581  144.3006  150.5938 LP  0  0  0  0  0  0  0  0  0  0  0  0  # atno 17342 bound_to 10162
  140.5427  143.2220  151.8059 LP  0  0  0  0  0  0  0  0  0  0  0  0  # atno 17343 bound_to 10162
  157.6734  131.0856  150.7555 LP  0  0  0  0  0  0  0  0  0  0  0  0  # atno 17370 bound_to 10713
  156.7617  130.4801  149.5435 LP  0  0  0  0  0  0  0  0  0  0  0  0  # atno 17371 bound_to 10713
  139.8826  134.9018  156.2818 LP  0  0  0  0  0  0  0  0  0  0  0  0  # atno 17394 bound_to 11000
  140.9922  133.7202  156.0830 LP  0  0  0  0  0  0  0  0  0  0  0  0  # atno 17395 bound_to 11000

$$$$
