AV-unprocessed.smi:3237|AV-procd|sdf|12370|dock2
  -GOLD-   2272018233D 1   1.00000     0.00000
 Structure written by MMmdl.
 36 38  0  0  0  0  0  0  0  0  3 V2000
  146.2727  136.1806  162.0951 C   0  0  0  0  0  0  0  0  0  0  0  0
  147.2625  136.4703  161.0190 C   0  0  0  0  0  0  0  0  0  0  0  0
  148.4340  135.8723  160.6500 C   0  0  0  0  0  0  0  0  0  0  0  0
  148.8708  136.6632  159.5524 C   0  0  0  0  0  0  0  0  0  0  0  0
  149.9855  136.4659  158.8316 N   0  5  0  0  0  0  0  0  0  0  0  0
  150.4657  137.4500  158.0383 C   0  0  0  0  0  0  0  0  0  0  0  0
  150.3564  137.5234  156.8123 O   0  0  0  0  0  0  0  0  0  0  0  0
  151.1140  138.4125  158.7085 N   0  0  0  0  0  0  0  0  0  0  0  0
  151.7357  139.5880  158.1098 C   0  0  1  0  0  0  0  0  0  0  0  0
  150.7671  140.5006  157.3522 C   0  0  0  0  0  0  0  0  0  0  0  0
  151.3614  141.9105  157.5092 C   0  0  0  0  0  0  0  0  0  0  0  0
  152.4931  141.7946  158.4583 N   0  3  1  0  0  0  0  0  0  0  0  0
  152.6677  142.9638  159.3454 C   0  0  0  0  0  0  0  0  0  0  0  0
  151.4018  143.7614  159.5480 C   0  0  0  0  0  0  0  0  0  0  0  0
  152.4930  144.2879  158.6408 C   0  0  0  0  0  0  0  0  0  0  0  0
  152.3144  140.5180  159.1700 C   0  0  0  0  0  0  0  0  0  0  0  0
  148.0303  137.6445  159.2699 N   0  0  0  0  0  0  0  0  0  0  0  0
  146.9995  137.5321  160.2105 O   0  0  0  0  0  0  0  0  0  0  0  0
  146.1006  135.1078  162.1827 H   0  0  0  0  0  0  0  0  0  0  0  0
  145.3155  136.6596  161.8879 H   0  0  0  0  0  0  0  0  0  0  0  0
  146.6328  136.5456  163.0571 H   0  0  0  0  0  0  0  0  0  0  0  0
  148.9059  135.0096  161.0959 H   0  0  0  0  0  0  0  0  0  0  0  0
  151.1821  138.3128  159.7109 H   0  0  0  0  0  0  0  0  0  0  0  0
  152.5414  139.2786  157.4408 H   0  0  0  0  0  0  0  0  0  0  0  0
  150.6590  140.2072  156.3075 H   0  0  0  0  0  0  0  0  0  0  0  0
  149.7765  140.4689  157.8087 H   0  0  0  0  0  0  0  0  0  0  0  0
  151.7235  142.3038  156.5589 H   0  0  0  0  0  0  0  0  0  0  0  0
  150.6002  142.5965  157.8841 H   0  0  0  0  0  0  0  0  0  0  0  0
  153.3900  142.8580  160.1531 H   0  0  0  0  0  0  0  0  0  0  0  0
  150.4868  143.4033  159.0789 H   0  0  0  0  0  0  0  0  0  0  0  0
  151.2688  144.2578  160.5071 H   0  0  0  0  0  0  0  0  0  0  0  0
  153.0784  145.1306  159.0030 H   0  0  0  0  0  0  0  0  0  0  0  0
  152.3032  144.2803  157.5688 H   0  0  0  0  0  0  0  0  0  0  0  0
  151.6088  140.6496  159.9929 H   0  0  0  0  0  0  0  0  0  0  0  0
  153.2553  140.1507  159.5812 H   0  0  0  0  0  0  0  0  0  0  0  0
  153.3295  141.6964  157.9007 H   0  0  0  0  0  0  0  0  0  0  0  0
  1  2  1  0  0  0  0
  1 19  1  0  0  0  0
  1 20  1  0  0  0  0
  1 21  1  0  0  0  0
  2 18  1  0  0  0  0
  2  3  2  0  0  0  0
  3  4  1  0  0  0  0
  3 22  1  0  0  0  0
  4  5  1  0  0  0  0
  4 17  2  0  0  0  0
  5  6  1  0  0  0  0
  6  7  2  0  0  0  0
  6  8  1  0  0  0  0
  8  9  1  0  0  0  0
  8 23  1  0  0  0  0
  9 16  1  0  0  0  0
  9 10  1  0  0  0  0
  9 24  1  0  0  0  0
 10 11  1  0  0  0  0
 10 25  1  0  0  0  0
 10 26  1  0  0  0  0
 11 12  1  0  0  0  0
 11 27  1  0  0  0  0
 11 28  1  0  0  0  0
 12 13  1  0  0  0  0
 12 16  1  0  0  0  0
 12 36  1  0  0  0  0
 13 15  1  0  0  0  0
 13 14  1  0  0  0  0
 13 29  1  0  0  0  0
 14 15  1  0  0  0  0
 14 30  1  0  0  0  0
 14 31  1  0  0  0  0
 15 32  1  0  0  0  0
 15 33  1  0  0  0  0
 16 34  1  0  0  0  0
 16 35  1  0  0  0  0
 17 18  1  0  0  0  0
M  CHG  1   5  -1
M  CHG  1  12   1
M  END
> <s_m_source_file>
AV-unprocessed.smi

> <i_m_source_file_index>
3237

> <i_lp_mmshare_version>
43012

> <i_f3d_flags>
0

> <s_epik_input>
W0NIM11jMVtjSF1jKG5vMSlbTkhdQyg9TylbTkhdW0NAQEhdMltDSDJdW0NIMl1OKFtDSDJdMilbQ0hdM1tDSDJdW0NIMl0z

> <s_epik_cmdline>
J2VwaWtfcHl0aG9uJywgJy1waCcsICc3LjAnLCAnLXRuJywgJzgnLCAnLW1hJywgJzIwMCcsICctbWV0YWxfYmluZGluZycsICctaW1hZScsICc8aW5maWxlLm1hZT4nLCAnLW9tYWUnLCAnPG91dGZpbGUubWFlPic=

> <r_epik_Ionization_Penalty>
6.08472

> <r_epik_Ionization_Penalty_Charging>
6.08464

> <r_epik_Ionization_Penalty_Neutral>
8.41751e-05

> <r_epik_State_Penalty>
6.08438

> <r_epik_Charging_Adjusted_Penalty>
12.169

> <i_epik_Tot_Q>
0

> <i_epik_Tot_abs_Q>
2

> <r_epik_Metal_State_Penalty>
2.0369

> <b_epik_Metal_Only>
1

> <s_lp_Force_Field>
OPLS_2005

> <r_lp_Energy>
23.7623

> <b_lp_Chiralities_Consistent>
1

> <s_lp_Variant>
AV-unprocessed.smi:3237-8

> <Gold.Version>
5.8.1

> <Gold.Id.Protein>
6NUR|6NUR_protein|mol2

> <Gold.PLP.Fitness>
39.1173

> <Gold.PLP.PLP>
-31.6823

> <Gold.PLP.part.hbond>
-3.4889

> <Gold.PLP.part.metal>
0.0000

> <Gold.PLP.part.buried>
-3.5876

> <Gold.PLP.part.nonpolar>
-24.3075

> <Gold.PLP.part.repulsive>
0.2192

> <Gold.PLP.ligand.clash>
0.0000

> <Gold.PLP.ligand.torsion>
1.4298

> <Gold.PLP.Chemscore.Hbond>
3.0000

> <Gold.PLP.Chemscore.CHOScore>
0.0000

> <Gold.PLP.Chemscore.Metal>
0.0000

> <Gold.Chemscore.Hbonds>
donor molecule, donor type, donor heavy atom, donor atom, acceptor molecule, acceptor atom, score
      P1  H  6896  6909       L1     5  1.98
      P1  H  6934  6947       L1    18  0.90

> <Gold.PLP.Chemscore.Internal.Correction>
1.2946

> <Gold.Rescore>
     Score         DG    S(hbond)    S(metal)    S(lipo)     H(rot)  DE(clash)    DE(int)     intcor
     14.16     -15.79       1.10        0.00      84.15       1.25       0.22       1.41       ----

> <Gold.Chemscore.Fitness>
14.1640

> <Gold.Chemscore.DG>
-15.7939

> <Gold.Chemscore.ZeroCoef>
-5.4800

> <Gold.Chemscore.Hbond>
1.0955

> <Gold.Chemscore.Metal>
0.0000

> <Gold.Chemscore.Lipo>
84.1536

> <Gold.Chemscore.Internal_Hbond>
0.0000

> <Gold.Chemscore.DEClash>
0.2247

> <Gold.Chemscore.DEInternal>
1.4052

> <Gold.Chemscore.Rot>
1.2464

> <Gold.Chemscore.Internal.Correction>
   9.000000E+99

> <Gold.Chemscore.Hbonds>
donor molecule, donor type, donor heavy atom, donor atom, acceptor molecule, acceptor atom, score
      P1  H  6896  6909       L1     5  0.36
      P1  H  6934  6947       L1    18  0.16

> <Gold.Chemscore.Hbond.Weighted>
-3.6588

> <Gold.Chemscore.Metal.Weighted>
-0.0000

> <Gold.Chemscore.Lipo.Weighted>
-9.8460

> <Gold.Chemscore.Internal_Hbond.Weighted>
0.0000

> <Gold.Chemscore.DEClash.Weighted>
0.2247

> <Gold.Chemscore.DEInternal.Weighted>
1.4052

> <Gold.Chemscore.Rot.Weighted>
3.1909

> <Gold.Chemscore.Internal.Correction.Weighted>
   9.000000E+99

> <Gold.Protein.RotatedTorsions>
[ 6907 6896 6895 6894 ] final   62.19 input  -60.11 | X-H torsion
[ 7974 7965 7964 7962 ] final  127.92 input  175.53 | X-H torsion
[ 8008 7997 7996 7995 ] final  -70.63 input   59.86 | X-H torsion
[ 10167 10162 10161 10158 ] final   17.95 input  -65.29 | X-H torsion
[ 10718 10713 10712 10709 ] final -176.62 input   66.30 | X-H torsion
[ 10763 10752 10751 10750 ] final  174.19 input  -60.55 | X-H torsion
[ 11005 11000 10999 10996 ] final   24.07 input  -57.11 | X-H torsion

> <Gold.Protein.ActiveResidues>
 VAL166  LYS551  ARG553  GLY616  TRP617  ASP618  TYR619  PRO620  LYS621  CYS622 
 ASP623  PHE694  ASN695  SER759  ASP760  ASP761  ALA762  ILE779  LEU786  VAL792 
 PHE793  MET794  SER795  GLU796  ALA797  LYS798  CYS799  TRP800  GLU811  SER814 

> <Gold.Protein.RotatedAtoms>
  152.4151  134.6055  160.0011 H   0  0  0  0  0  0  0  0  0  0  0  0  # atno 6907 bound_to 6896
  151.6221  133.3332  159.3098 H   0  0  0  0  0  0  0  0  0  0  0  0  # atno 6908 bound_to 6896
  150.8040  134.7192  159.6693 H   0  0  0  0  0  0  0  0  0  0  0  0  # atno 6909 bound_to 6896
  145.0453  139.3928  143.5081 H   0  0  0  0  0  0  0  0  0  0  0  0  # atno 7974 bound_to 7965
  154.5027  140.0830  156.7830 H   0  0  0  0  0  0  0  0  0  0  0  0  # atno 8008 bound_to 7997
  155.3966  140.3435  155.4236 H   0  0  0  0  0  0  0  0  0  0  0  0  # atno 8009 bound_to 7997
  156.1476  140.1548  156.8809 H   0  0  0  0  0  0  0  0  0  0  0  0  # atno 8010 bound_to 7997
  140.5689  143.9199  150.6697 H   0  0  0  0  0  0  0  0  0  0  0  0  # atno 10167 bound_to 10162
  156.8174  130.9608  151.3113 H   0  0  0  0  0  0  0  0  0  0  0  0  # atno 10718 bound_to 10713
  154.4505  135.2764  155.1785 H   0  0  0  0  0  0  0  0  0  0  0  0  # atno 10763 bound_to 10752
  154.3614  135.6128  153.5696 H   0  0  0  0  0  0  0  0  0  0  0  0  # atno 10764 bound_to 10752
  152.9847  135.5835  154.4848 H   0  0  0  0  0  0  0  0  0  0  0  0  # atno 10765 bound_to 10752
  140.3627  134.2108  155.7671 H   0  0  0  0  0  0  0  0  0  0  0  0  # atno 11005 bound_to 11000
  146.3513  140.0075  142.8670 LP  0  0  0  0  0  0  0  0  0  0  0  0  # atno 17320 bound_to 7965
  145.1596  140.9666  143.4385 LP  0  0  0  0  0  0  0  0  0  0  0  0  # atno 17321 bound_to 7965
  140.2669  143.3484  152.1273 LP  0  0  0  0  0  0  0  0  0  0  0  0  # atno 17342 bound_to 10162
  139.5107  144.6888  151.5814 LP  0  0  0  0  0  0  0  0  0  0  0  0  # atno 17343 bound_to 10162
  157.6474  130.8856  149.9566 LP  0  0  0  0  0  0  0  0  0  0  0  0  # atno 17370 bound_to 10713
  156.1008  130.3656  150.0221 LP  0  0  0  0  0  0  0  0  0  0  0  0  # atno 17371 bound_to 10713
  141.1979  133.8048  157.0606 LP  0  0  0  0  0  0  0  0  0  0  0  0  # atno 17394 bound_to 11000
  140.0614  134.9753  157.1311 LP  0  0  0  0  0  0  0  0  0  0  0  0  # atno 17395 bound_to 11000

$$$$
