AV-unprocessed.smi:269|AV-procd|sdf|2044|dock8
  -GOLD-   2262021263D 1   1.00000     0.00000
 Structure written by MMmdl.
 61 64  0  0  0  0  0  0  0  0  3 V2000
  139.3898  137.0283  153.6277 C   0  0  0  0  0  0  0  0  0  0  0  0
  140.6074  137.5066  154.4251 C   0  0  0  0  0  0  0  0  0  0  0  0
  141.8178  136.8857  153.8959 N   0  5  0  0  0  0  0  0  0  0  0  0
  141.9921  135.5402  153.8007 C   0  0  0  0  0  0  0  0  0  0  0  0
  141.1882  134.6118  153.9359 O   0  0  0  0  0  0  0  0  0  0  0  0
  143.4406  135.1947  153.4375 C   0  0  0  0  0  0  0  0  0  0  0  0
  144.0913  134.4761  154.5609 N   0  3  0  0  0  0  0  0  0  0  0  0
  143.8859  135.1597  155.8633 C   0  0  0  0  0  0  0  0  0  0  0  0
  144.4923  134.3472  157.0214 C   0  0  0  0  0  0  0  0  0  0  0  0
  145.8988  134.0478  156.7659 N   0  0  0  0  0  0  0  0  0  0  0  0
  146.8045  134.9542  157.2229 C   0  0  0  0  0  0  0  0  0  0  0  0
  147.5846  134.6479  158.2938 N   0  0  0  0  0  0  0  0  0  0  0  0
  148.4857  135.5216  158.7497 C   0  0  0  0  0  0  0  0  0  0  0  0
  148.7639  136.7437  158.2955 N   0  0  0  0  0  0  0  0  0  0  0  0
  147.9754  137.0696  157.2325 C   0  0  0  0  0  0  0  0  0  0  0  0
  146.9838  136.2400  156.6349 C   0  0  0  0  0  0  0  0  0  0  0  0
  146.3871  136.9128  155.5752 N   0  0  0  0  0  0  0  0  0  0  0  0
  146.9990  138.0646  155.5405 C   0  0  0  0  0  0  0  0  0  0  0  0
  147.9554  138.2533  156.5135 N   0  0  0  0  0  0  0  0  0  0  0  0
  148.7845  139.4365  156.7074 C   0  0  0  0  0  0  0  0  0  0  0  0
  149.5549  139.9235  155.4381 C   0  0  0  0  0  0  0  0  0  0  0  0
  148.5692  140.3875  154.3326 C   0  0  0  0  0  0  0  0  0  0  0  0
  149.2368  140.9563  153.2235 O   0  0  0  0  0  0  0  0  0  0  0  0
  150.4971  141.1122  155.7566 C   0  0  0  0  0  0  0  0  0  0  0  0
  151.7151  140.6996  156.6035 C   0  0  0  0  0  0  0  0  0  0  0  0
  152.4377  139.6707  155.9409 O   0  0  0  0  0  0  0  0  0  0  0  0
  151.6695  138.4880  155.7634 C   0  0  0  0  0  0  0  0  0  0  0  0
  150.4438  138.7833  154.8794 C   0  0  0  0  0  0  0  0  0  0  0  0
  146.1389  133.3808  155.4860 C   0  0  0  0  0  0  0  0  0  0  0  0
  145.5267  134.1714  154.3132 C   0  0  0  0  0  0  0  0  0  0  0  0
  138.4755  137.4792  154.0137 H   0  0  0  0  0  0  0  0  0  0  0  0
  139.2753  135.9456  153.6885 H   0  0  0  0  0  0  0  0  0  0  0  0
  139.4734  137.3003  152.5749 H   0  0  0  0  0  0  0  0  0  0  0  0
  140.6535  138.5949  154.3747 H   0  0  0  0  0  0  0  0  0  0  0  0
  140.4583  137.2608  155.4770 H   0  0  0  0  0  0  0  0  0  0  0  0
  143.5228  134.6147  152.5156 H   0  0  0  0  0  0  0  0  0  0  0  0
  143.9538  136.1396  153.2538 H   0  0  0  0  0  0  0  0  0  0  0  0
  144.3372  136.1525  155.8258 H   0  0  0  0  0  0  0  0  0  0  0  0
  142.8193  135.3008  156.0422 H   0  0  0  0  0  0  0  0  0  0  0  0
  144.3496  134.8853  157.9572 H   0  0  0  0  0  0  0  0  0  0  0  0
  143.9567  133.4032  157.1292 H   0  0  0  0  0  0  0  0  0  0  0  0
  149.0661  135.1955  159.6004 H   0  0  0  0  0  0  0  0  0  0  0  0
  146.7594  138.8160  154.8026 H   0  0  0  0  0  0  0  0  0  0  0  0
  148.1451  140.2242  157.1034 H   0  0  0  0  0  0  0  0  0  0  0  0
  149.4900  139.2153  157.5090 H   0  0  0  0  0  0  0  0  0  0  0  0
  147.9485  139.5617  153.9853 H   0  0  0  0  0  0  0  0  0  0  0  0
  147.8803  141.1371  154.7235 H   0  0  0  0  0  0  0  0  0  0  0  0
  149.2875  140.3087  152.5376 H   0  0  0  0  0  0  0  0  0  0  0  0
  150.8734  141.5348  154.8239 H   0  0  0  0  0  0  0  0  0  0  0  0
  149.9559  141.9226  156.2440 H   0  0  0  0  0  0  0  0  0  0  0  0
  152.3760  141.5553  156.7420 H   0  0  0  0  0  0  0  0  0  0  0  0
  151.4238  140.3678  157.5997 H   0  0  0  0  0  0  0  0  0  0  0  0
  152.2977  137.7367  155.2847 H   0  0  0  0  0  0  0  0  0  0  0  0
  151.3784  138.0777  156.7306 H   0  0  0  0  0  0  0  0  0  0  0  0
  149.8603  137.8715  154.7477 H   0  0  0  0  0  0  0  0  0  0  0  0
  150.8038  139.0554  153.8861 H   0  0  0  0  0  0  0  0  0  0  0  0
  147.2041  133.2113  155.3235 H   0  0  0  0  0  0  0  0  0  0  0  0
  145.6829  132.3915  155.5336 H   0  0  0  0  0  0  0  0  0  0  0  0
  145.6404  133.5931  153.3962 H   0  0  0  0  0  0  0  0  0  0  0  0
  146.0686  135.1055  154.1613 H   0  0  0  0  0  0  0  0  0  0  0  0
  143.6153  133.5881  154.6313 H   0  0  0  0  0  0  0  0  0  0  0  0
  1  2  1  0  0  0  0
  1 31  1  0  0  0  0
  1 32  1  0  0  0  0
  1 33  1  0  0  0  0
  2  3  1  0  0  0  0
  2 34  1  0  0  0  0
  2 35  1  0  0  0  0
  3  4  1  0  0  0  0
  4  5  2  0  0  0  0
  4  6  1  0  0  0  0
  6  7  1  0  0  0  0
  6 36  1  0  0  0  0
  6 37  1  0  0  0  0
  7 30  1  0  0  0  0
  7  8  1  0  0  0  0
  7 61  1  0  0  0  0
  8  9  1  0  0  0  0
  8 38  1  0  0  0  0
  8 39  1  0  0  0  0
  9 10  1  0  0  0  0
  9 40  1  0  0  0  0
  9 41  1  0  0  0  0
 10 11  1  0  0  0  0
 10 29  1  0  0  0  0
 11 16  1  0  0  0  0
 11 12  2  0  0  0  0
 12 13  1  0  0  0  0
 13 14  2  0  0  0  0
 13 42  1  0  0  0  0
 14 15  1  0  0  0  0
 15 19  1  0  0  0  0
 15 16  2  0  0  0  0
 16 17  1  0  0  0  0
 17 18  2  0  0  0  0
 18 19  1  0  0  0  0
 18 43  1  0  0  0  0
 19 20  1  0  0  0  0
 20 21  1  0  0  0  0
 20 44  1  0  0  0  0
 20 45  1  0  0  0  0
 21 28  1  0  0  0  0
 21 22  1  0  0  0  0
 21 24  1  0  0  0  0
 22 23  1  0  0  0  0
 22 46  1  0  0  0  0
 22 47  1  0  0  0  0
 23 48  1  0  0  0  0
 24 25  1  0  0  0  0
 24 49  1  0  0  0  0
 24 50  1  0  0  0  0
 25 26  1  0  0  0  0
 25 51  1  0  0  0  0
 25 52  1  0  0  0  0
 26 27  1  0  0  0  0
 27 28  1  0  0  0  0
 27 53  1  0  0  0  0
 27 54  1  0  0  0  0
 28 55  1  0  0  0  0
 28 56  1  0  0  0  0
 29 30  1  0  0  0  0
 29 57  1  0  0  0  0
 29 58  1  0  0  0  0
 30 59  1  0  0  0  0
 30 60  1  0  0  0  0
M  CHG  1   3  -1
M  CHG  1   7   1
M  END
> <s_m_source_file>
AV-unprocessed.smi

> <i_m_source_file_index>
269

> <i_lp_mmshare_version>
43012

> <i_f3d_flags>
0

> <s_epik_input>
W0NIM11bQ0gyXVtOSF1DKD1PKVtDSDJdTjFbQ0gyXVtDSDJdTihbQ0gyXVtDSDJdMSljKG5bY0hdbjIpYyhjMjMpbltjSF1uM1tDSDJdQzQoW0NIMl1bT0hdKVtDSDJdW0NIMl1PW0NIMl1bQ0gyXTQ=

> <s_epik_cmdline>
J2VwaWtfcHl0aG9uJywgJy1waCcsICc3LjAnLCAnLXRuJywgJzgnLCAnLW1hJywgJzIwMCcsICctbWV0YWxfYmluZGluZycsICctaW1hZScsICc8aW5maWxlLm1hZT4nLCAnLW9tYWUnLCAnPG91dGZpbGUubWFlPic=

> <r_lp_tautomer_probability>
1

> <r_epik_Ionization_Penalty>
6.2463

> <r_epik_Ionization_Penalty_Charging>
6.24626

> <r_epik_Ionization_Penalty_Neutral>
4.36947e-05

> <r_epik_State_Penalty>
6.38251

> <r_epik_Charging_Adjusted_Penalty>
12.6288

> <i_epik_Tot_Q>
0

> <i_epik_Tot_abs_Q>
2

> <r_epik_Metal_State_Penalty>
2.3175

> <b_epik_Metal_Only>
1

> <s_lp_Force_Field>
OPLS_2005

> <r_lp_Energy>
38.3131

> <b_lp_Chiralities_Consistent>
1

> <s_lp_Variant>
AV-unprocessed.smi:269-3

> <Gold.Version>
5.8.1

> <Gold.Id.Protein>
6NUR|6NUR_protein|mol2

> <Gold.PLP.Fitness>
49.6542

> <Gold.PLP.PLP>
-32.6994

> <Gold.PLP.part.hbond>
-5.6298

> <Gold.PLP.part.metal>
0.0000

> <Gold.PLP.part.buried>
-8.4041

> <Gold.PLP.part.nonpolar>
-19.8014

> <Gold.PLP.part.repulsive>
0.3195

> <Gold.PLP.ligand.clash>
0.0000

> <Gold.PLP.ligand.torsion>
0.4348

> <Gold.PLP.Chemscore.Hbond>
5.7266

> <Gold.PLP.Chemscore.CHOScore>
0.0000

> <Gold.PLP.Chemscore.Metal>
0.0000

> <Gold.Chemscore.Hbonds>
donor molecule, donor type, donor heavy atom, donor atom, acceptor molecule, acceptor atom, score
      L1  H     7    61       P1 10957  1.85
      L1  H    23    48       P1  7957  0.71
      P1  H  7989  7998       L1    23  0.02
      P1  H  7997  8010       L1    26  1.00
      P1  H  8011  8017       L1    23  1.00
      P1  H 11000 11005       L1     5  1.00

> <Gold.PLP.Chemscore.Internal.Correction>
0.6445

> <Gold.Rescore>
     Score         DG    S(hbond)    S(metal)    S(lipo)     H(rot)  DE(clash)    DE(int)     intcor
     17.36     -17.75       4.08        0.00      60.18       3.28       0.06       0.33       ----

> <Gold.Chemscore.Fitness>
17.3591

> <Gold.Chemscore.DG>
-17.7530

> <Gold.Chemscore.ZeroCoef>
-5.4800

> <Gold.Chemscore.Hbond>
4.0816

> <Gold.Chemscore.Metal>
0.0000

> <Gold.Chemscore.Lipo>
60.1825

> <Gold.Chemscore.Internal_Hbond>
0.0000

> <Gold.Chemscore.DEClash>
0.0595

> <Gold.Chemscore.DEInternal>
0.3343

> <Gold.Chemscore.Rot>
3.2816

> <Gold.Chemscore.Internal.Correction>
   9.000000E+99

> <Gold.Chemscore.Hbonds>
donor molecule, donor type, donor heavy atom, donor atom, acceptor molecule, acceptor atom, score
      L1  H     7    61       P1 10957  0.89
      L1  H    23    48       P1  7957  0.69
      P1  H  7997  8010       L1    26  0.49
      P1  H  8011  8017       L1    23  0.26
      P1  H 11000 11005       L1     5  0.95

> <Gold.Chemscore.Hbond.Weighted>
-13.6325

> <Gold.Chemscore.Metal.Weighted>
-0.0000

> <Gold.Chemscore.Lipo.Weighted>
-7.0414

> <Gold.Chemscore.Internal_Hbond.Weighted>
0.0000

> <Gold.Chemscore.DEClash.Weighted>
0.0595

> <Gold.Chemscore.DEInternal.Weighted>
0.3343

> <Gold.Chemscore.Rot.Weighted>
8.4009

> <Gold.Chemscore.Internal.Correction.Weighted>
   9.000000E+99

> <Gold.Protein.RotatedTorsions>
[ 6907 6896 6895 6894 ] final   68.93 input  -60.11 | X-H torsion
[ 7974 7965 7964 7962 ] final -150.19 input  175.53 | X-H torsion
[ 8008 7997 7996 7995 ] final   87.25 input   59.86 | X-H torsion
[ 10167 10162 10161 10158 ] final  165.06 input  -65.29 | X-H torsion
[ 10718 10713 10712 10709 ] final -149.44 input   66.30 | X-H torsion
[ 10763 10752 10751 10750 ] final  -92.23 input  -60.55 | X-H torsion
[ 11005 11000 10999 10996 ] final    5.37 input  -57.11 | X-H torsion

> <Gold.Protein.ActiveResidues>
 VAL166  LYS551  ARG553  GLY616  TRP617  ASP618  TYR619  PRO620  LYS621  CYS622 
 ASP623  PHE694  ASN695  SER759  ASP760  ASP761  ALA762  ILE779  LEU786  VAL792 
 PHE793  MET794  SER795  GLU796  ALA797  LYS798  CYS799  TRP800  GLU811  SER814 

> <Gold.Protein.RotatedAtoms>
  152.4653  134.5090  159.9747 H   0  0  0  0  0  0  0  0  0  0  0  0  # atno 6907 bound_to 6896
  151.5129  133.3475  159.2896 H   0  0  0  0  0  0  0  0  0  0  0  0  # atno 6908 bound_to 6896
  150.8634  134.8020  159.7162 H   0  0  0  0  0  0  0  0  0  0  0  0  # atno 6909 bound_to 6896
  144.7922  140.4965  143.5764 H   0  0  0  0  0  0  0  0  0  0  0  0  # atno 7974 bound_to 7965
  155.9731  140.3384  155.6593 H   0  0  0  0  0  0  0  0  0  0  0  0  # atno 8008 bound_to 7997
  155.6649  140.0720  157.2559 H   0  0  0  0  0  0  0  0  0  0  0  0  # atno 8009 bound_to 7997
  154.4171  140.1702  156.1803 H   0  0  0  0  0  0  0  0  0  0  0  0  # atno 8010 bound_to 7997
  139.4899  144.4171  151.9231 H   0  0  0  0  0  0  0  0  0  0  0  0  # atno 10167 bound_to 10162
  156.4332  130.8086  151.2313 H   0  0  0  0  0  0  0  0  0  0  0  0  # atno 10718 bound_to 10713
  154.6840  135.5238  153.8302 H   0  0  0  0  0  0  0  0  0  0  0  0  # atno 10763 bound_to 10752
  153.0585  135.6559  154.0529 H   0  0  0  0  0  0  0  0  0  0  0  0  # atno 10764 bound_to 10752
  154.0413  135.2977  155.3334 H   0  0  0  0  0  0  0  0  0  0  0  0  # atno 10765 bound_to 10752
  140.5715  134.0098  155.8010 H   0  0  0  0  0  0  0  0  0  0  0  0  # atno 11005 bound_to 11000
  145.5764  139.1486  143.3260 LP  0  0  0  0  0  0  0  0  0  0  0  0  # atno 17320 bound_to 7965
  146.2178  140.5895  142.9030 LP  0  0  0  0  0  0  0  0  0  0  0  0  # atno 17321 bound_to 7965
  140.3614  144.2968  150.5933 LP  0  0  0  0  0  0  0  0  0  0  0  0  # atno 17342 bound_to 10162
  140.5400  143.2225  151.8101 LP  0  0  0  0  0  0  0  0  0  0  0  0  # atno 17343 bound_to 10162
  157.7508  131.0192  150.3656 LP  0  0  0  0  0  0  0  0  0  0  0  0  # atno 17370 bound_to 10713
  156.3997  130.3913  149.6968 LP  0  0  0  0  0  0  0  0  0  0  0  0  # atno 17371 bound_to 10713
  141.1053  133.9703  157.3008 LP  0  0  0  0  0  0  0  0  0  0  0  0  # atno 17394 bound_to 11000
  139.9359  135.0196  156.8555 LP  0  0  0  0  0  0  0  0  0  0  0  0  # atno 17395 bound_to 11000

$$$$
