AV-unprocessed.smi:561|AV-procd|sdf|2939|dock2
  -GOLD-   2262023433D 1   1.00000     0.00000
 Structure written by MMmdl.
 36 37  0  0  0  0  0  0  0  0  1 V2000
  144.7964  137.2505  151.5667 C   0  0  0  0  0  0  0  0  0  0  0  0
  145.8970  136.3564  152.1566 C   0  0  1  0  0  0  0  0  0  0  0  0
  146.4149  135.3383  151.1228 C   0  0  0  0  0  0  0  0  0  0  0  0
  145.4615  134.2713  150.8788 N   0  0  0  0  0  0  0  0  0  0  0  0
  144.2390  134.3730  150.2286 C   0  0  0  0  0  0  0  0  0  0  0  0
  143.6793  133.1155  150.2454 C   0  0  0  0  0  0  0  0  0  0  0  0
  144.5356  132.2293  150.8951 N   0  0  0  0  0  0  0  0  0  0  0  0
  145.5698  132.9850  151.2401 C   0  0  0  0  0  0  0  0  0  0  0  0
  147.0037  137.1797  152.6372 N   0  0  0  0  0  0  0  0  0  0  0  0
  146.9069  138.2040  153.5039 C   0  0  0  0  0  0  0  0  0  0  0  0
  145.8328  138.6108  153.9475 O   0  0  0  0  0  0  0  0  0  0  0  0
  148.1945  138.8238  153.9156 C   0  0  0  0  0  0  0  0  0  0  0  0
  148.4569  140.0499  153.5859 N   0  0  0  0  0  0  0  0  0  0  0  0
  149.6443  140.6653  153.9234 N   0  0  0  0  0  0  0  0  0  0  0  0
  149.8660  141.9304  153.2236 C   0  0  0  0  0  0  0  0  0  0  0  0
  150.5324  140.1768  154.8274 C   0  0  0  0  0  0  0  0  0  0  0  0
  151.6036  140.7157  155.1049 O   0  0  0  0  0  0  0  0  0  0  0  0
  150.1295  138.8870  155.5489 C   0  0  0  0  0  0  0  0  0  0  0  0
  149.2050  138.0024  154.6898 C   0  0  0  0  0  0  0  0  0  0  0  0
  143.9519  136.6542  151.2199 H   0  0  0  0  0  0  0  0  0  0  0  0
  145.1661  137.8287  150.7193 H   0  0  0  0  0  0  0  0  0  0  0  0
  144.4180  137.9528  152.3102 H   0  0  0  0  0  0  0  0  0  0  0  0
  145.4703  135.7994  152.9931 H   0  0  0  0  0  0  0  0  0  0  0  0
  146.6145  135.8352  150.1725 H   0  0  0  0  0  0  0  0  0  0  0  0
  147.3584  134.8996  151.4511 H   0  0  0  0  0  0  0  0  0  0  0  0
  143.8776  135.3064  149.8224 H   0  0  0  0  0  0  0  0  0  0  0  0
  142.7333  132.7834  149.8438 H   0  0  0  0  0  0  0  0  0  0  0  0
  146.4236  132.5951  151.7754 H   0  0  0  0  0  0  0  0  0  0  0  0
  147.9284  136.9233  152.3223 H   0  0  0  0  0  0  0  0  0  0  0  0
  150.7634  142.4610  153.5442 H   0  0  0  0  0  0  0  0  0  0  0  0
  149.0202  142.6006  153.3821 H   0  0  0  0  0  0  0  0  0  0  0  0
  149.9552  141.7517  152.1514 H   0  0  0  0  0  0  0  0  0  0  0  0
  151.0180  138.3296  155.8473 H   0  0  0  0  0  0  0  0  0  0  0  0
  149.6149  139.1725  156.4671 H   0  0  0  0  0  0  0  0  0  0  0  0
  148.7011  137.2905  155.3446 H   0  0  0  0  0  0  0  0  0  0  0  0
  149.7990  137.4116  153.9916 H   0  0  0  0  0  0  0  0  0  0  0  0
  1  2  1  0  0  0  0
  1 20  1  0  0  0  0
  1 21  1  0  0  0  0
  1 22  1  0  0  0  0
  2  3  1  0  0  0  0
  2  9  1  0  0  0  0
  2 23  1  0  0  0  0
  3  4  1  0  0  0  0
  3 24  1  0  0  0  0
  3 25  1  0  0  0  0
  4  8  1  0  0  0  0
  4  5  1  0  0  0  0
  5  6  2  0  0  0  0
  5 26  1  0  0  0  0
  6  7  1  0  0  0  0
  6 27  1  0  0  0  0
  7  8  2  0  0  0  0
  8 28  1  0  0  0  0
  9 10  1  0  0  0  0
  9 29  1  0  0  0  0
 10 11  2  0  0  0  0
 10 12  1  0  0  0  0
 12 19  1  0  0  0  0
 12 13  2  0  0  0  0
 13 14  1  0  0  0  0
 14 15  1  0  0  0  0
 14 16  1  0  0  0  0
 15 30  1  0  0  0  0
 15 31  1  0  0  0  0
 15 32  1  0  0  0  0
 16 17  2  0  0  0  0
 16 18  1  0  0  0  0
 18 19  1  0  0  0  0
 18 33  1  0  0  0  0
 18 34  1  0  0  0  0
 19 35  1  0  0  0  0
 19 36  1  0  0  0  0
M  END
> <s_m_source_file>
AV-unprocessed.smi

> <i_m_source_file_index>
561

> <i_lp_mmshare_version>
43012

> <i_f3d_flags>
0

> <s_epik_input>
W2NIXTFuW2NIXVtjSF1uMVtDSDJdW0NAQEhdKFtDSDNdKVtOSF1DKD1PKUMyPU5OKFtDSDNdKUMoPU8pW0NIMl1bQ0gyXTI=

> <s_epik_cmdline>
J2VwaWtfcHl0aG9uJywgJy1waCcsICc3LjAnLCAnLXRuJywgJzgnLCAnLW1hJywgJzIwMCcsICctbWV0YWxfYmluZGluZycsICctaW1hZScsICc8aW5maWxlLm1hZT4nLCAnLW9tYWUnLCAnPG91dGZpbGUubWFlPic=

> <r_lp_tautomer_probability>
1

> <r_epik_Ionization_Penalty>
0.46798

> <r_epik_Ionization_Penalty_Charging>
0.467902

> <r_epik_Ionization_Penalty_Neutral>
7.78263e-05

> <r_epik_State_Penalty>
0.47192

> <r_epik_Charging_Adjusted_Penalty>
0.939822

> <i_epik_Tot_Q>
0

> <i_epik_Tot_abs_Q>
0

> <r_epik_Metal_State_Penalty>
0.280825

> <b_epik_Metal_Only>
0

> <s_epik_Chemistry_Notes>
This compound has an imine and may undergo hydrolysis.

> <s_lp_Force_Field>
OPLS_2005

> <r_lp_Energy>
18.7987

> <b_lp_Chiralities_Consistent>
1

> <s_lp_Variant>
AV-unprocessed.smi:561-4

> <Gold.Version>
5.8.1

> <Gold.Id.Protein>
6NUR|6NUR_protein|mol2

> <Gold.PLP.Fitness>
38.7036

> <Gold.PLP.PLP>
-26.7834

> <Gold.PLP.part.hbond>
-2.0000

> <Gold.PLP.part.metal>
0.0000

> <Gold.PLP.part.buried>
-2.7811

> <Gold.PLP.part.nonpolar>
-22.4285

> <Gold.PLP.part.repulsive>
0.3752

> <Gold.PLP.ligand.clash>
0.0000

> <Gold.PLP.ligand.torsion>
1.4441

> <Gold.PLP.Chemscore.Hbond>
1.9120

> <Gold.PLP.Chemscore.CHOScore>
2.9999

> <Gold.PLP.Chemscore.Metal>
0.0000

> <Gold.Chemscore.Hbonds>
donor molecule, donor type, donor heavy atom, donor atom, acceptor molecule, acceptor atom, score
      L1  H     9    29       P1  7948  0.46
      P1  H  7989  7998       L1    17  0.07
      L1  C     6    27       P1 10186  0.77

> <Gold.PLP.Chemscore.Internal.Correction>
0.0727

> <Gold.Rescore>
     Score         DG    S(hbond)    S(metal)    S(lipo)     H(rot)  DE(clash)    DE(int)     intcor
     10.01     -12.57       1.84        0.00      45.45       1.71       0.05       2.52       ----

> <Gold.Chemscore.Fitness>
10.0093

> <Gold.Chemscore.DG>
-12.5718

> <Gold.Chemscore.ZeroCoef>
-5.4800

> <Gold.Chemscore.Hbond>
1.8409

> <Gold.Chemscore.Metal>
0.0000

> <Gold.Chemscore.Lipo>
45.4454

> <Gold.Chemscore.Internal_Hbond>
0.0000

> <Gold.Chemscore.DEClash>
0.0456

> <Gold.Chemscore.DEInternal>
2.5169

> <Gold.Chemscore.Rot>
1.7086

> <Gold.Chemscore.Internal.Correction>
   9.000000E+99

> <Gold.Chemscore.Hbonds>
donor molecule, donor type, donor heavy atom, donor atom, acceptor molecule, acceptor atom, score
      L1  H     9    29       P1  7948  0.46

> <Gold.Chemscore.Hbond.Weighted>
-6.1486

> <Gold.Chemscore.Metal.Weighted>
-0.0000

> <Gold.Chemscore.Lipo.Weighted>
-5.3171

> <Gold.Chemscore.Internal_Hbond.Weighted>
0.0000

> <Gold.Chemscore.DEClash.Weighted>
0.0456

> <Gold.Chemscore.DEInternal.Weighted>
2.5169

> <Gold.Chemscore.Rot.Weighted>
4.3739

> <Gold.Chemscore.Internal.Correction.Weighted>
   9.000000E+99

> <Gold.Protein.RotatedTorsions>
[ 6907 6896 6895 6894 ] final   40.48 input  -60.11 | X-H torsion
[ 7974 7965 7964 7962 ] final  139.61 input  175.53 | X-H torsion
[ 8008 7997 7996 7995 ] final -124.45 input   59.86 | X-H torsion
[ 10167 10162 10161 10158 ] final   94.07 input  -65.29 | X-H torsion
[ 10718 10713 10712 10709 ] final -173.64 input   66.30 | X-H torsion
[ 10763 10752 10751 10750 ] final   77.79 input  -60.55 | X-H torsion
[ 11005 11000 10999 10996 ] final -156.91 input  -57.11 | X-H torsion

> <Gold.Protein.ActiveResidues>
 VAL166  LYS551  ARG553  GLY616  TRP617  ASP618  TYR619  PRO620  LYS621  CYS622 
 ASP623  PHE694  ASN695  SER759  ASP760  ASP761  ALA762  ILE779  LEU786  VAL792 
 PHE793  MET794  SER795  GLU796  ALA797  LYS798  CYS799  TRP800  GLU811  SER814 

> <Gold.Protein.RotatedAtoms>
  152.1831  134.8737  160.0524 H   0  0  0  0  0  0  0  0  0  0  0  0  # atno 6907 bound_to 6896
  151.9654  133.3703  159.4059 H   0  0  0  0  0  0  0  0  0  0  0  0  # atno 6908 bound_to 6896
  150.6921  134.4120  159.5210 H   0  0  0  0  0  0  0  0  0  0  0  0  # atno 6909 bound_to 6896
  144.9262  139.5104  143.5639 H   0  0  0  0  0  0  0  0  0  0  0  0  # atno 7974 bound_to 7965
  155.1971  140.0415  157.2911 H   0  0  0  0  0  0  0  0  0  0  0  0  # atno 8008 bound_to 7997
  154.6099  140.2474  155.7654 H   0  0  0  0  0  0  0  0  0  0  0  0  # atno 8009 bound_to 7997
  156.2373  140.2917  156.0356 H   0  0  0  0  0  0  0  0  0  0  0  0  # atno 8010 bound_to 7997
  139.8119  144.6770  150.9630 H   0  0  0  0  0  0  0  0  0  0  0  0  # atno 10167 bound_to 10162
  156.7733  130.9457  151.3120 H   0  0  0  0  0  0  0  0  0  0  0  0  # atno 10718 bound_to 10713
  153.0825  135.4901  154.8531 H   0  0  0  0  0  0  0  0  0  0  0  0  # atno 10763 bound_to 10752
  154.7169  135.3031  154.9112 H   0  0  0  0  0  0  0  0  0  0  0  0  # atno 10764 bound_to 10752
  153.9788  135.6792  153.4802 H   0  0  0  0  0  0  0  0  0  0  0  0  # atno 10765 bound_to 10752
  140.6703  134.4254  157.5232 H   0  0  0  0  0  0  0  0  0  0  0  0  # atno 11005 bound_to 11000
  146.3227  139.8179  142.8932 LP  0  0  0  0  0  0  0  0  0  0  0  0  # atno 17320 bound_to 7965
  145.3215  141.0245  143.3498 LP  0  0  0  0  0  0  0  0  0  0  0  0  # atno 17321 bound_to 7965
  140.7817  143.4177  151.0891 LP  0  0  0  0  0  0  0  0  0  0  0  0  # atno 17342 bound_to 10162
  139.7843  143.8310  152.3142 LP  0  0  0  0  0  0  0  0  0  0  0  0  # atno 17343 bound_to 10162
  157.6680  130.9025  149.9977 LP  0  0  0  0  0  0  0  0  0  0  0  0  # atno 17370 bound_to 10713
  156.1264  130.3644  149.9803 LP  0  0  0  0  0  0  0  0  0  0  0  0  # atno 17371 bound_to 10713
  139.8983  134.8615  156.2005 LP  0  0  0  0  0  0  0  0  0  0  0  0  # atno 17394 bound_to 11000
  141.0397  133.6944  156.1575 LP  0  0  0  0  0  0  0  0  0  0  0  0  # atno 17395 bound_to 11000

$$$$
