AV-unprocessed.smi:3068|AV-procd|sdf|11706|dock6
  -GOLD-   2272017113D 1   1.00000     0.00000
 Structure written by MMmdl.
 39 41  0  0  0  0  0  0  0  0  1 V2000
  151.9900  137.4318  154.2864 N   0  0  0  0  0  0  0  0  0  0  0  0
  151.1052  138.1768  154.3255 C   0  0  0  0  0  0  0  0  0  0  0  0
  149.9912  139.1153  154.3744 C   0  0  0  0  0  0  0  0  0  0  0  0
  150.3051  140.4227  154.5268 N   0  0  0  0  0  0  0  0  0  0  0  0
  149.2827  141.3031  154.5706 C   0  0  0  0  0  0  0  0  0  0  0  0
  147.9427  140.8833  154.4650 C   0  0  0  0  0  0  0  0  0  0  0  0
  147.6204  139.5812  154.3148 N   0  0  0  0  0  0  0  0  0  0  0  0
  148.6384  138.6854  154.2648 C   0  0  0  0  0  0  0  0  0  0  0  0
  148.3193  137.3236  154.1075 N   0  0  0  0  0  0  0  0  0  0  0  0
  147.2841  136.6807  154.9085 C   0  0  0  0  0  0  0  0  0  0  0  0
  146.2420  135.9498  154.0460 C   0  0  2  0  0  0  0  0  0  0  0  0
  146.8285  134.6797  153.4038 C   0  0  0  0  0  0  0  0  0  0  0  0
  145.8687  134.0224  152.5260 N   0  0  0  0  0  0  0  0  0  0  0  0
  146.4384  132.8206  151.9195 C   0  0  0  0  0  0  0  0  0  0  0  0
  145.4346  132.0886  151.0147 C   0  0  0  0  0  0  0  0  0  0  0  0
  144.9094  133.0362  149.9268 C   0  0  0  0  0  0  0  0  0  0  0  0
  144.3597  134.3204  150.5667 C   0  0  0  0  0  0  0  0  0  0  0  0
  145.4062  134.9627  151.5008 C   0  0  1  0  0  0  0  0  0  0  0  0
  144.8458  136.2469  152.1453 C   0  0  0  0  0  0  0  0  0  0  0  0
  145.8242  136.8265  153.0025 O   0  0  0  0  0  0  0  0  0  0  0  0
  149.5340  142.3467  154.6906 H   0  0  0  0  0  0  0  0  0  0  0  0
  147.1289  141.5925  154.5011 H   0  0  0  0  0  0  0  0  0  0  0  0
  148.6562  136.8338  153.2908 H   0  0  0  0  0  0  0  0  0  0  0  0
  147.7629  135.9737  155.5863 H   0  0  0  0  0  0  0  0  0  0  0  0
  146.7989  137.4243  155.5417 H   0  0  0  0  0  0  0  0  0  0  0  0
  145.3799  135.6748  154.6563 H   0  0  0  0  0  0  0  0  0  0  0  0
  147.7265  134.9392  152.8406 H   0  0  0  0  0  0  0  0  0  0  0  0
  147.1408  133.9890  154.1879 H   0  0  0  0  0  0  0  0  0  0  0  0
  147.3243  133.0835  151.3392 H   0  0  0  0  0  0  0  0  0  0  0  0
  146.7732  132.1394  152.7027 H   0  0  0  0  0  0  0  0  0  0  0  0
  145.9042  131.2163  150.5597 H   0  0  0  0  0  0  0  0  0  0  0  0
  144.6019  131.7186  151.6146 H   0  0  0  0  0  0  0  0  0  0  0  0
  145.7179  133.2872  149.2389 H   0  0  0  0  0  0  0  0  0  0  0  0
  144.1360  132.5451  149.3356 H   0  0  0  0  0  0  0  0  0  0  0  0
  144.0667  135.0239  149.7868 H   0  0  0  0  0  0  0  0  0  0  0  0
  143.4552  134.0874  151.1303 H   0  0  0  0  0  0  0  0  0  0  0  0
  146.2620  135.2528  150.8884 H   0  0  0  0  0  0  0  0  0  0  0  0
  144.5791  136.9737  151.3777 H   0  0  0  0  0  0  0  0  0  0  0  0
  143.9387  136.0354  152.7138 H   0  0  0  0  0  0  0  0  0  0  0  0
  1  2  3  0  0  0  0
  2  3  1  0  0  0  0
  3  8  1  0  0  0  0
  3  4  2  0  0  0  0
  4  5  1  0  0  0  0
  5  6  2  0  0  0  0
  5 21  1  0  0  0  0
  6  7  1  0  0  0  0
  6 22  1  0  0  0  0
  7  8  2  0  0  0  0
  8  9  1  0  0  0  0
  9 10  1  0  0  0  0
  9 23  1  0  0  0  0
 10 11  1  0  0  0  0
 10 24  1  0  0  0  0
 10 25  1  0  0  0  0
 11 20  1  0  0  0  0
 11 12  1  0  0  0  0
 11 26  1  0  0  0  0
 12 13  1  0  0  0  0
 12 27  1  0  0  0  0
 12 28  1  0  0  0  0
 13 18  1  0  0  0  0
 13 14  1  0  0  0  0
 14 15  1  0  0  0  0
 14 29  1  0  0  0  0
 14 30  1  0  0  0  0
 15 16  1  0  0  0  0
 15 31  1  0  0  0  0
 15 32  1  0  0  0  0
 16 17  1  0  0  0  0
 16 33  1  0  0  0  0
 16 34  1  0  0  0  0
 17 18  1  0  0  0  0
 17 35  1  0  0  0  0
 17 36  1  0  0  0  0
 18 19  1  0  0  0  0
 18 37  1  0  0  0  0
 19 20  1  0  0  0  0
 19 38  1  0  0  0  0
 19 39  1  0  0  0  0
M  END
> <s_m_source_file>
AV-unprocessed.smi

> <i_m_source_file_index>
3068

> <i_lp_mmshare_version>
43012

> <i_f3d_flags>
0

> <s_epik_input>
TiNDYzFuW2NIXVtjSF1uYzFbTkhdW0NIMl1bQ0BIXShbQ0gyXTIpT1tDSDJdW0NAQEhdKE4yMylbQ0gyXVtDSDJdW0NIMl1bQ0gyXTM=

> <s_epik_cmdline>
J2VwaWtfcHl0aG9uJywgJy1waCcsICc3LjAnLCAnLXRuJywgJzgnLCAnLW1hJywgJzIwMCcsICctbWV0YWxfYmluZGluZycsICctaW1hZScsICc8aW5maWxlLm1hZT4nLCAnLW9tYWUnLCAnPG91dGZpbGUubWFlPic=

> <r_epik_Ionization_Penalty>
1.22359

> <r_epik_Ionization_Penalty_Charging>
0

> <r_epik_Ionization_Penalty_Neutral>
1.22359

> <r_epik_State_Penalty>
1.29103

> <r_epik_Charging_Adjusted_Penalty>
1.29103

> <i_epik_Tot_Q>
0

> <i_epik_Tot_abs_Q>
0

> <r_epik_Metal_State_Penalty>
1.29103

> <b_epik_Metal_Only>
0

> <s_lp_Force_Field>
OPLS_2005

> <r_lp_Energy>
45.8422

> <b_lp_Chiralities_Consistent>
1

> <s_lp_Variant>
AV-unprocessed.smi:3068-9

> <Gold.Version>
5.8.1

> <Gold.Id.Protein>
6NUR|6NUR_protein|mol2

> <Gold.PLP.Fitness>
41.6054

> <Gold.PLP.PLP>
-31.5136

> <Gold.PLP.part.hbond>
-3.0000

> <Gold.PLP.part.metal>
0.0000

> <Gold.PLP.part.buried>
-3.9943

> <Gold.PLP.part.nonpolar>
-25.3275

> <Gold.PLP.part.repulsive>
0.6409

> <Gold.PLP.ligand.clash>
0.0000

> <Gold.PLP.ligand.torsion>
0.4962

> <Gold.PLP.Chemscore.Hbond>
2.8800

> <Gold.PLP.Chemscore.CHOScore>
0.8135

> <Gold.PLP.Chemscore.Metal>
0.0000

> <Gold.Chemscore.Hbonds>
donor molecule, donor type, donor heavy atom, donor atom, acceptor molecule, acceptor atom, score
      L1  H     9    23       P1  7948  1.00
      P1  H  7989  7998       L1     4  0.99
      P1  H 10752 10763       L1     1  0.90
      L1  C     5    21       P1  8028  0.75

> <Gold.PLP.Chemscore.Internal.Correction>
0.0038

> <Gold.Rescore>
     Score         DG    S(hbond)    S(metal)    S(lipo)     H(rot)  DE(clash)    DE(int)     intcor
     18.11     -18.59       2.67        0.00      64.22       1.30       0.03       0.45       ----

> <Gold.Chemscore.Fitness>
18.1095

> <Gold.Chemscore.DG>
-18.5928

> <Gold.Chemscore.ZeroCoef>
-5.4800

> <Gold.Chemscore.Hbond>
2.6742

> <Gold.Chemscore.Metal>
0.0000

> <Gold.Chemscore.Lipo>
64.2211

> <Gold.Chemscore.Internal_Hbond>
0.0000

> <Gold.Chemscore.DEClash>
0.0343

> <Gold.Chemscore.DEInternal>
0.4489

> <Gold.Chemscore.Rot>
1.3019

> <Gold.Chemscore.Internal.Correction>
   9.000000E+99

> <Gold.Chemscore.Hbonds>
donor molecule, donor type, donor heavy atom, donor atom, acceptor molecule, acceptor atom, score
      L1  H     9    23       P1  7948  0.97
      P1  H  7989  7998       L1     4  0.67
      P1  H 10752 10763       L1     1  0.85

> <Gold.Chemscore.Hbond.Weighted>
-8.9317

> <Gold.Chemscore.Metal.Weighted>
-0.0000

> <Gold.Chemscore.Lipo.Weighted>
-7.5139

> <Gold.Chemscore.Internal_Hbond.Weighted>
0.0000

> <Gold.Chemscore.DEClash.Weighted>
0.0343

> <Gold.Chemscore.DEInternal.Weighted>
0.4489

> <Gold.Chemscore.Rot.Weighted>
3.3327

> <Gold.Chemscore.Internal.Correction.Weighted>
   9.000000E+99

> <Gold.Protein.RotatedTorsions>
[ 6907 6896 6895 6894 ] final   26.34 input  -60.11 | X-H torsion
[ 7974 7965 7964 7962 ] final -123.84 input  175.53 | X-H torsion
[ 8008 7997 7996 7995 ] final  -98.22 input   59.86 | X-H torsion
[ 10167 10162 10161 10158 ] final -136.75 input  -65.29 | X-H torsion
[ 10718 10713 10712 10709 ] final   48.90 input   66.30 | X-H torsion
[ 10763 10752 10751 10750 ] final   42.27 input  -60.55 | X-H torsion
[ 11005 11000 10999 10996 ] final  -85.90 input  -57.11 | X-H torsion

> <Gold.Protein.ActiveResidues>
 VAL166  LYS551  ARG553  GLY616  TRP617  ASP618  TYR619  PRO620  LYS621  CYS622 
 ASP623  PHE694  ASN695  SER759  ASP760  ASP761  ALA762  ILE779  LEU786  VAL792 
 PHE793  MET794  SER795  GLU796  ALA797  LYS798  CYS799  TRP800  GLU811  SER814 

> <Gold.Protein.RotatedAtoms>
  151.9860  135.0004  160.0559 H   0  0  0  0  0  0  0  0  0  0  0  0  # atno 6907 bound_to 6896
  152.1652  133.4603  159.4889 H   0  0  0  0  0  0  0  0  0  0  0  0  # atno 6908 bound_to 6896
  150.6893  134.1939  159.4339 H   0  0  0  0  0  0  0  0  0  0  0  0  # atno 6909 bound_to 6896
  145.0144  140.7934  143.4419 H   0  0  0  0  0  0  0  0  0  0  0  0  # atno 7974 bound_to 7965
  154.7982  140.0457  157.1253 H   0  0  0  0  0  0  0  0  0  0  0  0  # atno 8008 bound_to 7997
  154.9510  140.3065  155.5055 H   0  0  0  0  0  0  0  0  0  0  0  0  # atno 8009 bound_to 7997
  156.2958  140.2288  156.4587 H   0  0  0  0  0  0  0  0  0  0  0  0  # atno 8010 bound_to 7997
  139.8646  143.7033  152.2646 H   0  0  0  0  0  0  0  0  0  0  0  0  # atno 10167 bound_to 10162
  157.4733  130.8269  149.8011 H   0  0  0  0  0  0  0  0  0  0  0  0  # atno 10718 bound_to 10713
  152.9887  135.6137  154.2923 H   0  0  0  0  0  0  0  0  0  0  0  0  # atno 10763 bound_to 10752
  154.2647  135.2781  155.2765 H   0  0  0  0  0  0  0  0  0  0  0  0  # atno 10764 bound_to 10752
  154.5175  135.5824  153.6711 H   0  0  0  0  0  0  0  0  0  0  0  0  # atno 10765 bound_to 10752
  141.1636  133.7425  156.9083 H   0  0  0  0  0  0  0  0  0  0  0  0  # atno 11005 bound_to 11000
  145.1980  139.2267  143.5208 LP  0  0  0  0  0  0  0  0  0  0  0  0  # atno 17320 bound_to 7965
  146.3475  140.1791  142.8589 LP  0  0  0  0  0  0  0  0  0  0  0  0  # atno 17321 bound_to 7965
  139.7341  144.7575  151.0755 LP  0  0  0  0  0  0  0  0  0  0  0  0  # atno 17342 bound_to 10162
  140.7770  143.5052  150.9721 LP  0  0  0  0  0  0  0  0  0  0  0  0  # atno 17343 bound_to 10162
  156.0084  130.3844  150.2350 LP  0  0  0  0  0  0  0  0  0  0  0  0  # atno 17370 bound_to 10713
  157.0533  131.0069  151.3246 LP  0  0  0  0  0  0  0  0  0  0  0  0  # atno 17371 bound_to 10713
  140.1535  134.9214  157.2623 LP  0  0  0  0  0  0  0  0  0  0  0  0  # atno 17394 bound_to 11000
  140.2695  134.3477  155.7378 LP  0  0  0  0  0  0  0  0  0  0  0  0  # atno 17395 bound_to 11000

$$$$
