AV-unprocessed.smi:184|AV-procd|sdf|1464|dock2
  -GOLD-   2262019273D 1   1.00000     0.00000
 Structure written by MMmdl.
 54 58  0  0  0  0  0  0  0  0  1 V2000
  154.4672  141.2217  161.2761 O   0  0  0  0  0  0  0  0  0  0  0  0
  153.4814  141.5829  160.6378 C   0  0  0  0  0  0  0  0  0  0  0  0
  153.2265  140.9905  159.2398 C   0  0  0  0  0  0  0  0  0  0  0  0
  151.9688  141.4356  158.6165 N   0  0  0  0  0  0  0  0  0  0  0  0
  151.6301  140.9110  157.4100 C   0  0  0  0  0  0  0  0  0  0  0  0
  152.4840  140.0536  156.7903 N   0  0  0  0  0  0  0  0  0  0  0  0
  152.1777  139.5380  155.5965 C   0  0  0  0  0  0  0  0  0  0  0  0
  151.0847  139.7363  154.8581 N   0  0  0  0  0  0  0  0  0  0  0  0
  150.2135  140.5800  155.4811 C   0  0  0  0  0  0  0  0  0  0  0  0
  150.4055  141.2074  156.7450 C   0  0  0  0  0  0  0  0  0  0  0  0
  149.2970  141.9874  157.0554 N   0  0  0  0  0  0  0  0  0  0  0  0
  148.5059  141.8443  156.0280 C   0  0  0  0  0  0  0  0  0  0  0  0
  148.9729  141.0072  155.0405 N   0  0  0  0  0  0  0  0  0  0  0  0
  148.2961  140.6653  153.7989 C   0  0  0  0  0  0  0  0  0  0  0  0
  147.0546  139.7573  153.9842 C   0  0  0  0  0  0  0  0  0  0  0  0
  146.4628  139.5688  152.7107 O   0  0  0  0  0  0  0  0  0  0  0  0
  147.4090  138.3707  154.5654 C   0  0  0  0  0  0  0  0  0  0  0  0
  146.1553  137.5628  154.9453 C   0  0  0  0  0  0  0  0  0  0  0  0
  145.3417  138.3120  155.8394 O   0  0  0  0  0  0  0  0  0  0  0  0
  144.8507  139.5137  155.2587 C   0  0  0  0  0  0  0  0  0  0  0  0
  146.0244  140.4434  154.9040 C   0  0  0  0  0  0  0  0  0  0  0  0
  151.4906  142.7853  158.9222 C   0  0  2  0  0  0  0  0  0  0  0  0
  152.3898  143.8648  158.2722 C   0  0  0  0  0  0  0  0  0  0  0  0
  151.9652  145.2813  158.6850 C   0  0  0  0  0  0  0  0  0  0  0  0
  151.9598  145.4293  160.2134 C   0  0  0  0  0  0  0  0  0  0  0  0
  151.0357  144.3862  160.8617 C   0  0  0  0  0  0  0  0  0  0  0  0
  151.4035  142.9450  160.4577 C   0  0  2  0  0  0  0  0  0  0  0  0
  152.6269  142.4991  161.1244 N   0  0  0  0  0  0  0  0  0  0  0  0
  154.0730  141.2648  158.6088 H   0  0  0  0  0  0  0  0  0  0  0  0
  153.2231  139.9028  159.3213 H   0  0  0  0  0  0  0  0  0  0  0  0
  152.9141  138.8715  155.1723 H   0  0  0  0  0  0  0  0  0  0  0  0
  147.5483  142.3405  155.9666 H   0  0  0  0  0  0  0  0  0  0  0  0
  148.0050  141.5971  153.3125 H   0  0  0  0  0  0  0  0  0  0  0  0
  149.0182  140.1906  153.1328 H   0  0  0  0  0  0  0  0  0  0  0  0
  145.5665  139.8655  152.7479 H   0  0  0  0  0  0  0  0  0  0  0  0
  148.0114  137.7957  153.8615 H   0  0  0  0  0  0  0  0  0  0  0  0
  148.0212  138.5015  155.4587 H   0  0  0  0  0  0  0  0  0  0  0  0
  145.5821  137.2867  154.0592 H   0  0  0  0  0  0  0  0  0  0  0  0
  146.4463  136.6327  155.4335 H   0  0  0  0  0  0  0  0  0  0  0  0
  144.2468  139.2871  154.3790 H   0  0  0  0  0  0  0  0  0  0  0  0
  144.1912  140.0041  155.9749 H   0  0  0  0  0  0  0  0  0  0  0  0
  146.5139  140.7459  155.8307 H   0  0  0  0  0  0  0  0  0  0  0  0
  145.6505  141.3596  154.4446 H   0  0  0  0  0  0  0  0  0  0  0  0
  150.4846  142.9327  158.5326 H   0  0  0  0  0  0  0  0  0  0  0  0
  153.4325  143.7156  158.5540 H   0  0  0  0  0  0  0  0  0  0  0  0
  152.3531  143.7741  157.1861 H   0  0  0  0  0  0  0  0  0  0  0  0
  152.6402  146.0144  158.2425 H   0  0  0  0  0  0  0  0  0  0  0  0
  150.9715  145.4969  158.2907 H   0  0  0  0  0  0  0  0  0  0  0  0
  152.9740  145.3178  160.5987 H   0  0  0  0  0  0  0  0  0  0  0  0
  151.6338  146.4330  160.4869 H   0  0  0  0  0  0  0  0  0  0  0  0
  151.0552  144.4914  161.9471 H   0  0  0  0  0  0  0  0  0  0  0  0
  150.0077  144.5877  160.5576 H   0  0  0  0  0  0  0  0  0  0  0  0
  150.6143  142.2858  160.8226 H   0  0  0  0  0  0  0  0  0  0  0  0
  152.8204  142.8893  162.0353 H   0  0  0  0  0  0  0  0  0  0  0  0
  1  2  2  0  0  0  0
  2 28  1  0  0  0  0
  2  3  1  0  0  0  0
  3  4  1  0  0  0  0
  3 29  1  0  0  0  0
  3 30  1  0  0  0  0
  4  5  1  0  0  0  0
  4 22  1  0  0  0  0
  5 10  1  0  0  0  0
  5  6  2  0  0  0  0
  6  7  1  0  0  0  0
  7  8  2  0  0  0  0
  7 31  1  0  0  0  0
  8  9  1  0  0  0  0
  9 13  1  0  0  0  0
  9 10  2  0  0  0  0
 10 11  1  0  0  0  0
 11 12  2  0  0  0  0
 12 13  1  0  0  0  0
 12 32  1  0  0  0  0
 13 14  1  0  0  0  0
 14 15  1  0  0  0  0
 14 33  1  0  0  0  0
 14 34  1  0  0  0  0
 15 21  1  0  0  0  0
 15 16  1  0  0  0  0
 15 17  1  0  0  0  0
 16 35  1  0  0  0  0
 17 18  1  0  0  0  0
 17 36  1  0  0  0  0
 17 37  1  0  0  0  0
 18 19  1  0  0  0  0
 18 38  1  0  0  0  0
 18 39  1  0  0  0  0
 19 20  1  0  0  0  0
 20 21  1  0  0  0  0
 20 40  1  0  0  0  0
 20 41  1  0  0  0  0
 21 42  1  0  0  0  0
 21 43  1  0  0  0  0
 22 27  1  0  0  0  0
 22 23  1  0  0  0  0
 22 44  1  0  0  0  0
 23 24  1  0  0  0  0
 23 45  1  0  0  0  0
 23 46  1  0  0  0  0
 24 25  1  0  0  0  0
 24 47  1  0  0  0  0
 24 48  1  0  0  0  0
 25 26  1  0  0  0  0
 25 49  1  0  0  0  0
 25 50  1  0  0  0  0
 26 27  1  0  0  0  0
 26 51  1  0  0  0  0
 26 52  1  0  0  0  0
 27 28  1  0  0  0  0
 27 53  1  0  0  0  0
 28 54  1  0  0  0  0
M  END
> <s_m_source_file>
AV-unprocessed.smi

> <i_m_source_file_index>
184

> <i_lp_mmshare_version>
43012

> <i_f3d_flags>
0

> <s_epik_input>
W0NIMl0xW0NIMl1bQ0gyXVtDSDJdW0NASF0oW0NASF0xMilbTkhdQyg9TylbQ0gyXU4yYyhuW2NIXW4zKWMoYzM0KW5bY0hdbjRbQ0gyXUM1KFtPSF0pW0NIMl1bQ0gyXU9bQ0gyXVtDSDJdNQ==

> <s_epik_cmdline>
J2VwaWtfcHl0aG9uJywgJy1waCcsICc3LjAnLCAnLXRuJywgJzgnLCAnLW1hJywgJzIwMCcsICctbWV0YWxfYmluZGluZycsICctaW1hZScsICc8aW5maWxlLm1hZT4nLCAnLW9tYWUnLCAnPG91dGZpbGUubWFlPic=

> <r_lp_tautomer_probability>
1

> <r_epik_Ionization_Penalty>
0.000822761

> <r_epik_Ionization_Penalty_Charging>
0

> <r_epik_Ionization_Penalty_Neutral>
0.000822761

> <r_epik_State_Penalty>
0.000403048

> <r_epik_Charging_Adjusted_Penalty>
0.000403048

> <i_epik_Tot_Q>
0

> <i_epik_Tot_abs_Q>
0

> <r_epik_Metal_State_Penalty>
-0

> <b_epik_Metal_Only>
0

> <s_lp_Force_Field>
OPLS_2005

> <r_lp_Energy>
36.9453

> <b_lp_Chiralities_Consistent>
1

> <s_lp_Variant>
AV-unprocessed.smi:184-4

> <Gold.Version>
5.8.1

> <Gold.Id.Protein>
6NUR|6NUR_protein|mol2

> <Gold.PLP.Fitness>
54.4500

> <Gold.PLP.PLP>
-45.7315

> <Gold.PLP.part.hbond>
-4.0000

> <Gold.PLP.part.metal>
0.0000

> <Gold.PLP.part.buried>
-2.0161

> <Gold.PLP.part.nonpolar>
-39.8502

> <Gold.PLP.part.repulsive>
0.2924

> <Gold.PLP.ligand.clash>
0.0000

> <Gold.PLP.ligand.torsion>
0.3184

> <Gold.PLP.Chemscore.Hbond>
3.0000

> <Gold.PLP.Chemscore.CHOScore>
0.0560

> <Gold.PLP.Chemscore.Metal>
0.0000

> <Gold.Chemscore.Hbonds>
donor molecule, donor type, donor heavy atom, donor atom, acceptor molecule, acceptor atom, score
      L1  H    16    35       P1 10175  1.00
      P1  H  7989  7998       L1     8  0.95
      P1  H  7997  8009       L1     6  1.00
      L1  C    12    32       P1  8028  0.10

> <Gold.PLP.Chemscore.Internal.Correction>
0.1871

> <Gold.Rescore>
     Score         DG    S(hbond)    S(metal)    S(lipo)     H(rot)  DE(clash)    DE(int)     intcor
     15.96     -18.61       1.82        0.00     100.34       1.83       1.29       1.37       ----

> <Gold.Chemscore.Fitness>
15.9565

> <Gold.Chemscore.DG>
-18.6149

> <Gold.Chemscore.ZeroCoef>
-5.4800

> <Gold.Chemscore.Hbond>
1.8169

> <Gold.Chemscore.Metal>
0.0000

> <Gold.Chemscore.Lipo>
100.3389

> <Gold.Chemscore.Internal_Hbond>
0.0000

> <Gold.Chemscore.DEClash>
1.2921

> <Gold.Chemscore.DEInternal>
1.3663

> <Gold.Chemscore.Rot>
1.8255

> <Gold.Chemscore.Internal.Correction>
   9.000000E+99

> <Gold.Chemscore.Hbonds>
donor molecule, donor type, donor heavy atom, donor atom, acceptor molecule, acceptor atom, score
      L1  H    16    35       P1 10175  0.96
      P1  H  7989  7998       L1     8  0.10
      P1  H  7997  8009       L1     6  0.25

> <Gold.Chemscore.Hbond.Weighted>
-6.0684

> <Gold.Chemscore.Metal.Weighted>
-0.0000

> <Gold.Chemscore.Lipo.Weighted>
-11.7396

> <Gold.Chemscore.Internal_Hbond.Weighted>
0.0000

> <Gold.Chemscore.DEClash.Weighted>
1.2921

> <Gold.Chemscore.DEInternal.Weighted>
1.3663

> <Gold.Chemscore.Rot.Weighted>
4.6732

> <Gold.Chemscore.Internal.Correction.Weighted>
   9.000000E+99

> <Gold.Protein.RotatedTorsions>
[ 6907 6896 6895 6894 ] final  139.13 input  -60.11 | X-H torsion
[ 7974 7965 7964 7962 ] final  152.47 input  175.53 | X-H torsion
[ 8008 7997 7996 7995 ] final  178.95 input   59.86 | X-H torsion
[ 10167 10162 10161 10158 ] final  106.87 input  -65.29 | X-H torsion
[ 10718 10713 10712 10709 ] final -145.49 input   66.30 | X-H torsion
[ 10763 10752 10751 10750 ] final  162.26 input  -60.55 | X-H torsion
[ 11005 11000 10999 10996 ] final -166.23 input  -57.11 | X-H torsion

> <Gold.Protein.ActiveResidues>
 VAL166  LYS551  ARG553  GLY616  TRP617  ASP618  TYR619  PRO620  LYS621  CYS622 
 ASP623  PHE694  ASN695  SER759  ASP760  ASP761  ALA762  ILE779  LEU786  VAL792 
 PHE793  MET794  SER795  GLU796  ALA797  LYS798  CYS799  TRP800  GLU811  SER814 

> <Gold.Protein.RotatedAtoms>
  152.2586  133.5277  159.5367 H   0  0  0  0  0  0  0  0  0  0  0  0  # atno 6907 bound_to 6896
  150.7117  134.0861  159.3924 H   0  0  0  0  0  0  0  0  0  0  0  0  # atno 6908 bound_to 6896
  151.8780  135.0464  160.0536 H   0  0  0  0  0  0  0  0  0  0  0  0  # atno 6909 bound_to 6896
  144.8220  139.6673  143.6096 H   0  0  0  0  0  0  0  0  0  0  0  0  # atno 7974 bound_to 7965
  156.0489  140.1320  157.0073 H   0  0  0  0  0  0  0  0  0  0  0  0  # atno 8008 bound_to 7997
  154.4425  140.1015  156.6417 H   0  0  0  0  0  0  0  0  0  0  0  0  # atno 8009 bound_to 7997
  155.5554  140.3464  155.4481 H   0  0  0  0  0  0  0  0  0  0  0  0  # atno 8010 bound_to 7997
  139.6973  144.7099  151.1245 H   0  0  0  0  0  0  0  0  0  0  0  0  # atno 10167 bound_to 10162
  156.3831  130.7847  151.2041 H   0  0  0  0  0  0  0  0  0  0  0  0  # atno 10718 bound_to 10713
  154.2756  135.2764  155.2719 H   0  0  0  0  0  0  0  0  0  0  0  0  # atno 10763 bound_to 10752
  154.5263  135.5742  153.6726 H   0  0  0  0  0  0  0  0  0  0  0  0  # atno 10764 bound_to 10752
  152.9938  135.6217  154.2912 H   0  0  0  0  0  0  0  0  0  0  0  0  # atno 10765 bound_to 10752
  140.5668  134.5278  157.5154 H   0  0  0  0  0  0  0  0  0  0  0  0  # atno 11005 bound_to 11000
  146.2525  139.6231  142.9417 LP  0  0  0  0  0  0  0  0  0  0  0  0  # atno 17320 bound_to 7965
  145.5084  141.0436  143.2501 LP  0  0  0  0  0  0  0  0  0  0  0  0  # atno 17321 bound_to 7965
  140.7700  143.5473  150.9244 LP  0  0  0  0  0  0  0  0  0  0  0  0  # atno 17342 bound_to 10162
  139.9153  143.6670  152.3107 LP  0  0  0  0  0  0  0  0  0  0  0  0  # atno 17343 bound_to 10162
  157.7494  131.0338  150.4288 LP  0  0  0  0  0  0  0  0  0  0  0  0  # atno 17370 bound_to 10713
  156.4536  130.4017  149.6620 LP  0  0  0  0  0  0  0  0  0  0  0  0  # atno 17371 bound_to 10713
  139.9381  134.7837  156.0749 LP  0  0  0  0  0  0  0  0  0  0  0  0  # atno 17394 bound_to 11000
  141.1081  133.6653  156.2912 LP  0  0  0  0  0  0  0  0  0  0  0  0  # atno 17395 bound_to 11000

$$$$
