AV-unprocessed.smi:3346|AV-procd|sdf|12907|dock4
  -GOLD-   2272019323D 1   1.00000     0.00000
 Structure written by MMmdl.
 48 49  0  0  0  0  0  0  0  0  2 V2000
  149.6588  145.1983  160.1289 C   0  0  0  0  0  0  0  0  0  0  0  0
  151.1311  144.9166  159.7852 C   0  0  0  0  0  0  0  0  0  0  0  0
  151.9440  146.2203  159.8091 C   0  0  0  0  0  0  0  0  0  0  0  0
  151.2958  144.2128  158.4211 C   0  0  0  0  0  0  0  0  0  0  0  0
  150.8644  142.7286  158.3565 C   0  0  2  0  0  0  0  0  0  0  0  0
  152.0214  141.7698  158.6777 C   0  0  0  0  0  0  0  0  0  0  0  0
  150.3435  142.4212  157.0075 N   0  3  0  0  0  0  0  0  0  0  0  0
  149.3410  141.3367  156.9537 C   0  0  0  0  0  0  0  0  0  0  0  0
  149.8636  140.1817  156.1164 C   0  0  0  0  0  0  0  0  0  0  0  0
  151.1219  139.6156  156.4114 C   0  0  0  0  0  0  0  0  0  0  0  0
  151.6029  138.5619  155.6135 C   0  0  0  0  0  0  0  0  0  0  0  0
  150.8035  138.1143  154.5456 C   0  0  0  0  0  0  0  0  0  0  0  0
  149.5990  138.6468  154.2513 N   0  0  0  0  0  0  0  0  0  0  0  0
  149.1305  139.6613  155.0175 C   0  0  0  0  0  0  0  0  0  0  0  0
  147.8652  140.1857  154.6991 N   0  0  0  0  0  0  0  0  0  0  0  0
  146.8376  140.0283  155.7229 C   0  0  0  0  0  0  0  0  0  0  0  0
  145.4805  140.5088  155.1805 C   0  0  0  0  0  0  0  0  0  0  0  0
  145.5963  141.8588  154.7406 O   0  0  0  0  0  0  0  0  0  0  0  0
  146.5505  142.0037  153.6926 C   0  0  0  0  0  0  0  0  0  0  0  0
  147.9364  141.5473  154.1830 C   0  0  0  0  0  0  0  0  0  0  0  0
  149.1779  145.7974  159.3547 H   0  0  0  0  0  0  0  0  0  0  0  0
  149.5745  145.7439  161.0690 H   0  0  0  0  0  0  0  0  0  0  0  0
  149.0885  144.2771  160.2445 H   0  0  0  0  0  0  0  0  0  0  0  0
  151.5417  144.2753  160.5650 H   0  0  0  0  0  0  0  0  0  0  0  0
  151.5924  146.9217  159.0517 H   0  0  0  0  0  0  0  0  0  0  0  0
  153.0010  146.0300  159.6192 H   0  0  0  0  0  0  0  0  0  0  0  0
  151.8703  146.7135  160.7790 H   0  0  0  0  0  0  0  0  0  0  0  0
  150.7386  144.7856  157.6810 H   0  0  0  0  0  0  0  0  0  0  0  0
  152.3402  144.2807  158.1131 H   0  0  0  0  0  0  0  0  0  0  0  0
  150.0627  142.5371  159.0704 H   0  0  0  0  0  0  0  0  0  0  0  0
  152.3672  141.8884  159.7043 H   0  0  0  0  0  0  0  0  0  0  0  0
  152.8724  141.9357  158.0161 H   0  0  0  0  0  0  0  0  0  0  0  0
  151.7111  140.7304  158.5650 H   0  0  0  0  0  0  0  0  0  0  0  0
  149.9335  143.2644  156.6323 H   0  0  0  0  0  0  0  0  0  0  0  0
  149.1232  141.0022  157.9684 H   0  0  0  0  0  0  0  0  0  0  0  0
  148.3966  141.6900  156.5412 H   0  0  0  0  0  0  0  0  0  0  0  0
  151.7146  139.9851  157.2356 H   0  0  0  0  0  0  0  0  0  0  0  0
  152.5625  138.1083  155.8134 H   0  0  0  0  0  0  0  0  0  0  0  0
  151.1399  137.3081  153.9106 H   0  0  0  0  0  0  0  0  0  0  0  0
  146.7733  138.9822  156.0242 H   0  0  0  0  0  0  0  0  0  0  0  0
  147.1025  140.6067  156.6091 H   0  0  0  0  0  0  0  0  0  0  0  0
  145.1394  139.8759  154.3599 H   0  0  0  0  0  0  0  0  0  0  0  0
  144.7224  140.4536  155.9617 H   0  0  0  0  0  0  0  0  0  0  0  0
  146.2352  141.4308  152.8197 H   0  0  0  0  0  0  0  0  0  0  0  0
  146.5866  143.0497  153.3879 H   0  0  0  0  0  0  0  0  0  0  0  0
  148.2899  142.2143  154.9708 H   0  0  0  0  0  0  0  0  0  0  0  0
  148.6582  141.6042  153.3674 H   0  0  0  0  0  0  0  0  0  0  0  0
  151.1161  142.1512  156.4157 H   0  0  0  0  0  0  0  0  0  0  0  0
  1  2  1  0  0  0  0
  1 21  1  0  0  0  0
  1 22  1  0  0  0  0
  1 23  1  0  0  0  0
  2  3  1  0  0  0  0
  2  4  1  0  0  0  0
  2 24  1  0  0  0  0
  3 25  1  0  0  0  0
  3 26  1  0  0  0  0
  3 27  1  0  0  0  0
  4  5  1  0  0  0  0
  4 28  1  0  0  0  0
  4 29  1  0  0  0  0
  5  6  1  0  0  0  0
  5  7  1  0  0  0  0
  5 30  1  0  0  0  0
  6 31  1  0  0  0  0
  6 32  1  0  0  0  0
  6 33  1  0  0  0  0
  7  8  1  0  0  0  0
  7 34  1  0  0  0  0
  7 48  1  0  0  0  0
  8  9  1  0  0  0  0
  8 35  1  0  0  0  0
  8 36  1  0  0  0  0
  9 14  1  0  0  0  0
  9 10  2  0  0  0  0
 10 11  1  0  0  0  0
 10 37  1  0  0  0  0
 11 12  2  0  0  0  0
 11 38  1  0  0  0  0
 12 13  1  0  0  0  0
 12 39  1  0  0  0  0
 13 14  2  0  0  0  0
 14 15  1  0  0  0  0
 15 20  1  0  0  0  0
 15 16  1  0  0  0  0
 16 17  1  0  0  0  0
 16 40  1  0  0  0  0
 16 41  1  0  0  0  0
 17 18  1  0  0  0  0
 17 42  1  0  0  0  0
 17 43  1  0  0  0  0
 18 19  1  0  0  0  0
 19 20  1  0  0  0  0
 19 44  1  0  0  0  0
 19 45  1  0  0  0  0
 20 46  1  0  0  0  0
 20 47  1  0  0  0  0
M  CHG  1   7   1
M  END
> <s_m_source_file>
AV-unprocessed.smi

> <i_m_source_file_index>
3346

> <i_lp_mmshare_version>
43012

> <i_f3d_flags>
0

> <s_epik_input>
W0NIM11bQ0hdKFtDSDNdKVtDSDJdW0NASF0oW0NIM10pW05IXVtDSDJdYzFbY0hdW2NIXVtjSF1uYzFOMltDSDJdW0NIMl1PW0NIMl1bQ0gyXTI=

> <s_epik_cmdline>
J2VwaWtfcHl0aG9uJywgJy1waCcsICc3LjAnLCAnLXRuJywgJzgnLCAnLW1hJywgJzIwMCcsICctbWV0YWxfYmluZGluZycsICctaW1hZScsICc8aW5maWxlLm1hZT4nLCAnLW9tYWUnLCAnPG91dGZpbGUubWFlPic=

> <r_lp_tautomer_probability>
1

> <r_epik_Ionization_Penalty>
0.0185938

> <r_epik_Ionization_Penalty_Charging>
0.0176519

> <r_epik_Ionization_Penalty_Neutral>
0.000941891

> <r_epik_State_Penalty>
0.0140027

> <r_epik_Charging_Adjusted_Penalty>
0.0316546

> <i_epik_Tot_Q>
1

> <i_epik_Tot_abs_Q>
1

> <r_epik_Metal_State_Penalty>
0.0141454

> <b_epik_Metal_Only>
0

> <s_lp_Force_Field>
OPLS_2005

> <r_lp_Energy>
22.6913

> <b_lp_Chiralities_Consistent>
1

> <s_lp_Variant>
AV-unprocessed.smi:3346-1

> <Gold.Version>
5.8.1

> <Gold.Id.Protein>
6NUR|6NUR_protein|mol2

> <Gold.PLP.Fitness>
43.5100

> <Gold.PLP.PLP>
-36.9993

> <Gold.PLP.part.hbond>
-1.0000

> <Gold.PLP.part.metal>
0.0000

> <Gold.PLP.part.buried>
-6.9126

> <Gold.PLP.part.nonpolar>
-31.7944

> <Gold.PLP.part.repulsive>
2.1530

> <Gold.PLP.ligand.clash>
0.0000

> <Gold.PLP.ligand.torsion>
1.2978

> <Gold.PLP.Chemscore.Hbond>
1.9825

> <Gold.PLP.Chemscore.CHOScore>
1.0000

> <Gold.PLP.Chemscore.Metal>
0.0000

> <Gold.Chemscore.Hbonds>
donor molecule, donor type, donor heavy atom, donor atom, acceptor molecule, acceptor atom, score
      L1  H     7    34       P1  8028  1.98
      L1  C    12    39       P1  7949  0.44

> <Gold.PLP.Chemscore.Internal.Correction>
0.1587

> <Gold.Rescore>
     Score         DG    S(hbond)    S(metal)    S(lipo)     H(rot)  DE(clash)    DE(int)     intcor
     14.94     -17.10       0.94        0.00     107.92       1.62       0.49       1.67       ----

> <Gold.Chemscore.Fitness>
14.9391

> <Gold.Chemscore.DG>
-17.1016

> <Gold.Chemscore.ZeroCoef>
-5.4800

> <Gold.Chemscore.Hbond>
0.9444

> <Gold.Chemscore.Metal>
0.0000

> <Gold.Chemscore.Lipo>
107.9231

> <Gold.Chemscore.Internal_Hbond>
0.0000

> <Gold.Chemscore.DEClash>
0.4945

> <Gold.Chemscore.DEInternal>
1.6680

> <Gold.Chemscore.Rot>
1.6248

> <Gold.Chemscore.Internal.Correction>
   9.000000E+99

> <Gold.Chemscore.Hbonds>
donor molecule, donor type, donor heavy atom, donor atom, acceptor molecule, acceptor atom, score
      L1  H     7    34       P1  8028  0.92

> <Gold.Chemscore.Hbond.Weighted>
-3.1542

> <Gold.Chemscore.Metal.Weighted>
-0.0000

> <Gold.Chemscore.Lipo.Weighted>
-12.6270

> <Gold.Chemscore.Internal_Hbond.Weighted>
0.0000

> <Gold.Chemscore.DEClash.Weighted>
0.4945

> <Gold.Chemscore.DEInternal.Weighted>
1.6680

> <Gold.Chemscore.Rot.Weighted>
4.1596

> <Gold.Chemscore.Internal.Correction.Weighted>
   9.000000E+99

> <Gold.Protein.RotatedTorsions>
[ 6907 6896 6895 6894 ] final   27.15 input  -60.11 | X-H torsion
[ 7974 7965 7964 7962 ] final  152.42 input  175.53 | X-H torsion
[ 8008 7997 7996 7995 ] final -125.48 input   59.86 | X-H torsion
[ 10167 10162 10161 10158 ] final -172.01 input  -65.29 | X-H torsion
[ 10718 10713 10712 10709 ] final   14.43 input   66.30 | X-H torsion
[ 10763 10752 10751 10750 ] final -159.17 input  -60.55 | X-H torsion
[ 11005 11000 10999 10996 ] final  166.55 input  -57.11 | X-H torsion

> <Gold.Protein.ActiveResidues>
 VAL166  LYS551  ARG553  GLY616  TRP617  ASP618  TYR619  PRO620  LYS621  CYS622 
 ASP623  PHE694  ASN695  SER759  ASP760  ASP761  ALA762  ILE779  LEU786  VAL792 
 PHE793  MET794  SER795  GLU796  ALA797  LYS798  CYS799  TRP800  GLU811  SER814 

> <Gold.Protein.RotatedAtoms>
  151.9980  134.9943  160.0563 H   0  0  0  0  0  0  0  0  0  0  0  0  # atno 6907 bound_to 6896
  152.1546  133.4538  159.4838 H   0  0  0  0  0  0  0  0  0  0  0  0  # atno 6908 bound_to 6896
  150.6880  134.2065  159.4385 H   0  0  0  0  0  0  0  0  0  0  0  0  # atno 6909 bound_to 6896
  144.8224  139.6666  143.6095 H   0  0  0  0  0  0  0  0  0  0  0  0  # atno 7974 bound_to 7965
  155.2140  140.0420  157.2938 H   0  0  0  0  0  0  0  0  0  0  0  0  # atno 8008 bound_to 7997
  154.5993  140.2447  155.7786 H   0  0  0  0  0  0  0  0  0  0  0  0  # atno 8009 bound_to 7997
  156.2310  140.2938  156.0198 H   0  0  0  0  0  0  0  0  0  0  0  0  # atno 8010 bound_to 7997
  139.5769  144.1511  152.1463 H   0  0  0  0  0  0  0  0  0  0  0  0  # atno 10167 bound_to 10162
  157.0390  130.6223  149.5748 H   0  0  0  0  0  0  0  0  0  0  0  0  # atno 10718 bound_to 10713
  154.7497  135.3089  154.8581 H   0  0  0  0  0  0  0  0  0  0  0  0  # atno 10763 bound_to 10752
  153.9372  135.6779  153.4749 H   0  0  0  0  0  0  0  0  0  0  0  0  # atno 10764 bound_to 10752
  153.1093  135.4874  154.8934 H   0  0  0  0  0  0  0  0  0  0  0  0  # atno 10765 bound_to 10752
  140.2676  134.7853  157.3646 H   0  0  0  0  0  0  0  0  0  0  0  0  # atno 11005 bound_to 11000
  146.2529  139.6239  142.9415 LP  0  0  0  0  0  0  0  0  0  0  0  0  # atno 17320 bound_to 7965
  145.5076  141.0436  143.2505 LP  0  0  0  0  0  0  0  0  0  0  0  0  # atno 17321 bound_to 7965
  140.1056  144.5501  150.6959 LP  0  0  0  0  0  0  0  0  0  0  0  0  # atno 17342 bound_to 10162
  140.7051  143.2462  151.4750 LP  0  0  0  0  0  0  0  0  0  0  0  0  # atno 17343 bound_to 10162
  156.0044  130.5128  150.7778 LP  0  0  0  0  0  0  0  0  0  0  0  0  # atno 17370 bound_to 10713
  157.5119  131.0926  151.0188 LP  0  0  0  0  0  0  0  0  0  0  0  0  # atno 17371 bound_to 10713
  140.1404  134.4979  155.8036 LP  0  0  0  0  0  0  0  0  0  0  0  0  # atno 17394 bound_to 11000
  141.2182  133.6823  156.7200 LP  0  0  0  0  0  0  0  0  0  0  0  0  # atno 17395 bound_to 11000

$$$$
