AV-unprocessed.smi:1454|AV-procd|sdf|5913|dock9
  -GOLD-   22720 5593D 1   1.00000     0.00000
 Structure written by MMmdl.
 44 45  0  0  0  0  0  0  0  0  1 V2000
  150.7378  139.1152  154.0899 O   0  0  0  0  0  0  0  0  0  0  0  0
  151.0124  138.7631  155.2377 C   0  0  0  0  0  0  0  0  0  0  0  0
  151.8976  139.6343  156.1353 C   0  0  0  0  0  0  0  0  0  0  0  0
  151.1280  140.2870  157.3009 C   0  0  0  0  0  0  0  0  0  0  0  0
  151.9393  141.2841  157.9900 N   0  0  0  0  0  0  0  0  0  0  0  0
  151.6384  142.5876  158.0949 C   0  0  0  0  0  0  0  0  0  0  0  0
  150.6280  143.0875  157.5987 O   0  0  0  0  0  0  0  0  0  0  0  0
  152.6343  143.4576  158.8796 C   0  0  0  0  0  0  0  0  0  0  0  0
  152.7648  143.0038  160.3528 C   0  0  0  0  0  0  0  0  0  0  0  0
  152.3396  144.1906  161.2268 C   0  0  0  0  0  0  0  0  0  0  0  0
  151.5112  145.0880  160.3121 C   0  0  0  0  0  0  0  0  0  0  0  0
  152.1767  144.9275  158.9462 C   0  0  0  0  0  0  0  0  0  0  0  0
  150.5610  137.6230  155.7800 N   0  0  0  0  0  0  0  0  0  0  0  0
  149.6944  136.6743  155.0944 C   0  0  0  0  0  0  0  0  0  0  0  0
  149.4550  135.4322  155.9630 C   0  0  0  0  0  0  0  0  0  0  0  0
  149.2684  134.1805  155.1282 C   0  0  0  0  0  0  0  0  0  0  0  0
  149.9350  132.9827  155.4588 C   0  0  0  0  0  0  0  0  0  0  0  0
  149.7340  131.8489  154.6483 C   0  0  0  0  0  0  0  0  0  0  0  0
  148.8733  131.9622  153.5382 C   0  0  0  0  0  0  0  0  0  0  0  0
  148.2299  133.1039  153.2119 N   0  0  0  0  0  0  0  0  0  0  0  0
  148.4280  134.1863  153.9947 C   0  0  0  0  0  0  0  0  0  0  0  0
  152.7041  139.0121  156.5248 H   0  0  0  0  0  0  0  0  0  0  0  0
  152.3661  140.4071  155.5242 H   0  0  0  0  0  0  0  0  0  0  0  0
  150.2014  140.7416  156.9461 H   0  0  0  0  0  0  0  0  0  0  0  0
  150.8431  139.5327  158.0351 H   0  0  0  0  0  0  0  0  0  0  0  0
  152.7888  140.9573  158.4276 H   0  0  0  0  0  0  0  0  0  0  0  0
  153.6081  143.4096  158.3894 H   0  0  0  0  0  0  0  0  0  0  0  0
  152.1306  142.1423  160.5704 H   0  0  0  0  0  0  0  0  0  0  0  0
  153.7867  142.7020  160.5848 H   0  0  0  0  0  0  0  0  0  0  0  0
  151.7898  143.8801  162.1160 H   0  0  0  0  0  0  0  0  0  0  0  0
  153.2258  144.7325  161.5601 H   0  0  0  0  0  0  0  0  0  0  0  0
  150.4828  144.7267  160.2700 H   0  0  0  0  0  0  0  0  0  0  0  0
  151.4878  146.1244  160.6494 H   0  0  0  0  0  0  0  0  0  0  0  0
  153.0479  145.5810  158.8859 H   0  0  0  0  0  0  0  0  0  0  0  0
  151.5076  145.2136  158.1331 H   0  0  0  0  0  0  0  0  0  0  0  0
  150.8308  137.4021  156.7278 H   0  0  0  0  0  0  0  0  0  0  0  0
  148.7429  137.1559  154.8628 H   0  0  0  0  0  0  0  0  0  0  0  0
  150.1515  136.3879  154.1458 H   0  0  0  0  0  0  0  0  0  0  0  0
  150.2937  135.2834  156.6445 H   0  0  0  0  0  0  0  0  0  0  0  0
  148.5716  135.5756  156.5870 H   0  0  0  0  0  0  0  0  0  0  0  0
  150.5907  132.9328  156.3158 H   0  0  0  0  0  0  0  0  0  0  0  0
  150.2285  130.9150  154.8708 H   0  0  0  0  0  0  0  0  0  0  0  0
  148.6979  131.1132  152.8942 H   0  0  0  0  0  0  0  0  0  0  0  0
  147.9019  135.0843  153.7055 H   0  0  0  0  0  0  0  0  0  0  0  0
  1  2  2  0  0  0  0
  2  3  1  0  0  0  0
  2 13  1  0  0  0  0
  3  4  1  0  0  0  0
  3 22  1  0  0  0  0
  3 23  1  0  0  0  0
  4  5  1  0  0  0  0
  4 24  1  0  0  0  0
  4 25  1  0  0  0  0
  5  6  1  0  0  0  0
  5 26  1  0  0  0  0
  6  7  2  0  0  0  0
  6  8  1  0  0  0  0
  8 12  1  0  0  0  0
  8  9  1  0  0  0  0
  8 27  1  0  0  0  0
  9 10  1  0  0  0  0
  9 28  1  0  0  0  0
  9 29  1  0  0  0  0
 10 11  1  0  0  0  0
 10 30  1  0  0  0  0
 10 31  1  0  0  0  0
 11 12  1  0  0  0  0
 11 32  1  0  0  0  0
 11 33  1  0  0  0  0
 12 34  1  0  0  0  0
 12 35  1  0  0  0  0
 13 14  1  0  0  0  0
 13 36  1  0  0  0  0
 14 15  1  0  0  0  0
 14 37  1  0  0  0  0
 14 38  1  0  0  0  0
 15 16  1  0  0  0  0
 15 39  1  0  0  0  0
 15 40  1  0  0  0  0
 16 21  1  0  0  0  0
 16 17  2  0  0  0  0
 17 18  1  0  0  0  0
 17 41  1  0  0  0  0
 18 19  2  0  0  0  0
 18 42  1  0  0  0  0
 19 20  1  0  0  0  0
 19 43  1  0  0  0  0
 20 21  2  0  0  0  0
 21 44  1  0  0  0  0
M  END
> <s_m_source_file>
AV-unprocessed.smi

> <i_m_source_file_index>
1454

> <i_lp_mmshare_version>
43012

> <i_f3d_flags>
0

> <s_epik_input>
W2NIXTFuW2NIXVtjSF1bY0hdYzFbQ0gyXVtDSDJdW05IXUMoPU8pW0NIMl1bQ0gyXVtOSF1DKD1PKVtDSF0yW0NIMl1bQ0gyXVtDSDJdW0NIMl0y

> <s_epik_cmdline>
J2VwaWtfcHl0aG9uJywgJy1waCcsICc3LjAnLCAnLXRuJywgJzgnLCAnLW1hJywgJzIwMCcsICctbWV0YWxfYmluZGluZycsICctaW1hZScsICc8aW5maWxlLm1hZT4nLCAnLW9tYWUnLCAnPG91dGZpbGUubWFlPic=

> <r_epik_Ionization_Penalty>
0.013238

> <r_epik_Ionization_Penalty_Charging>
0

> <r_epik_Ionization_Penalty_Neutral>
0.013238

> <r_epik_State_Penalty>
0.0102918

> <r_epik_Charging_Adjusted_Penalty>
0.0102918

> <i_epik_Tot_Q>
0

> <i_epik_Tot_abs_Q>
0

> <r_epik_Metal_State_Penalty>
0.0100665

> <b_epik_Metal_Only>
0

> <s_lp_Force_Field>
OPLS_2005

> <r_lp_Energy>
20.9977

> <b_lp_Chiralities_Consistent>
1

> <s_lp_Variant>
AV-unprocessed.smi:1454-1

> <Gold.Version>
5.8.1

> <Gold.Id.Protein>
6NUR|6NUR_protein|mol2

> <Gold.PLP.Fitness>
48.5225

> <Gold.PLP.PLP>
-41.5962

> <Gold.PLP.part.hbond>
-1.0000

> <Gold.PLP.part.metal>
0.0000

> <Gold.PLP.part.buried>
-3.9099

> <Gold.PLP.part.nonpolar>
-37.5494

> <Gold.PLP.part.repulsive>
0.7622

> <Gold.PLP.ligand.clash>
0.0000

> <Gold.PLP.ligand.torsion>
0.5027

> <Gold.PLP.Chemscore.Hbond>
0.9913

> <Gold.PLP.Chemscore.CHOScore>
1.6122

> <Gold.PLP.Chemscore.Metal>
0.0000

> <Gold.Chemscore.Hbonds>
donor molecule, donor type, donor heavy atom, donor atom, acceptor molecule, acceptor atom, score
      P1  H  7989  7998       L1     1  0.96
      L1  C    19    43       P1 10747  0.78
      L1  C    21    44       P1  7948  0.64

> <Gold.PLP.Chemscore.Internal.Correction>
0.1212

> <Gold.Rescore>
     Score         DG    S(hbond)    S(metal)    S(lipo)     H(rot)  DE(clash)    DE(int)     intcor
     15.32     -16.05       0.98        0.00     108.26       2.10       0.22       0.51       ----

> <Gold.Chemscore.Fitness>
15.3166

> <Gold.Chemscore.DG>
-16.0543

> <Gold.Chemscore.ZeroCoef>
-5.4800

> <Gold.Chemscore.Hbond>
0.9803

> <Gold.Chemscore.Metal>
0.0000

> <Gold.Chemscore.Lipo>
108.2569

> <Gold.Chemscore.Internal_Hbond>
0.0000

> <Gold.Chemscore.DEClash>
0.2242

> <Gold.Chemscore.DEInternal>
0.5135

> <Gold.Chemscore.Rot>
2.0961

> <Gold.Chemscore.Internal.Correction>
   9.000000E+99

> <Gold.Chemscore.Hbonds>
donor molecule, donor type, donor heavy atom, donor atom, acceptor molecule, acceptor atom, score
      P1  H  7989  7998       L1     1  0.82

> <Gold.Chemscore.Hbond.Weighted>
-3.2742

> <Gold.Chemscore.Metal.Weighted>
-0.0000

> <Gold.Chemscore.Lipo.Weighted>
-12.6661

> <Gold.Chemscore.Internal_Hbond.Weighted>
0.0000

> <Gold.Chemscore.DEClash.Weighted>
0.2242

> <Gold.Chemscore.DEInternal.Weighted>
0.5135

> <Gold.Chemscore.Rot.Weighted>
5.3660

> <Gold.Chemscore.Internal.Correction.Weighted>
   9.000000E+99

> <Gold.Protein.RotatedTorsions>
[ 6907 6896 6895 6894 ] final  -58.06 input  -60.11 | X-H torsion
[ 7974 7965 7964 7962 ] final  178.92 input  175.53 | X-H torsion
[ 8008 7997 7996 7995 ] final -150.29 input   59.86 | X-H torsion
[ 10167 10162 10161 10158 ] final  -59.44 input  -65.29 | X-H torsion
[ 10718 10713 10712 10709 ] final  167.99 input   66.30 | X-H torsion
[ 10763 10752 10751 10750 ] final -146.32 input  -60.55 | X-H torsion
[ 11005 11000 10999 10996 ] final  -92.32 input  -57.11 | X-H torsion

> <Gold.Protein.ActiveResidues>
 VAL166  LYS551  ARG553  GLY616  TRP617  ASP618  TYR619  PRO620  LYS621  CYS622 
 ASP623  PHE694  ASN695  SER759  ASP760  ASP761  ALA762  ILE779  LEU786  VAL792 
 PHE793  MET794  SER795  GLU796  ALA797  LYS798  CYS799  TRP800  GLU811  SER814 

> <Gold.Protein.RotatedAtoms>
  150.8037  134.7148  159.6623 H   0  0  0  0  0  0  0  0  0  0  0  0  # atno 6907 bound_to 6896
  152.4155  134.6045  160.0019 H   0  0  0  0  0  0  0  0  0  0  0  0  # atno 6908 bound_to 6896
  151.6276  133.3297  159.3138 H   0  0  0  0  0  0  0  0  0  0  0  0  # atno 6909 bound_to 6896
  144.7151  140.0470  143.6436 H   0  0  0  0  0  0  0  0  0  0  0  0  # atno 7974 bound_to 7965
  155.6212  140.0681  157.2677 H   0  0  0  0  0  0  0  0  0  0  0  0  # atno 8008 bound_to 7997
  154.4229  140.1784  156.1422 H   0  0  0  0  0  0  0  0  0  0  0  0  # atno 8009 bound_to 7997
  156.0008  140.3336  155.6847 H   0  0  0  0  0  0  0  0  0  0  0  0  # atno 8010 bound_to 7997
  140.6135  143.2394  151.5654 H   0  0  0  0  0  0  0  0  0  0  0  0  # atno 10167 bound_to 10162
  157.0435  131.0293  151.2705 H   0  0  0  0  0  0  0  0  0  0  0  0  # atno 10718 bound_to 10713
  154.8342  135.3389  154.6643 H   0  0  0  0  0  0  0  0  0  0  0  0  # atno 10763 bound_to 10752
  153.7259  135.6955  153.5005 H   0  0  0  0  0  0  0  0  0  0  0  0  # atno 10764 bound_to 10752
  153.2347  135.4404  155.0586 H   0  0  0  0  0  0  0  0  0  0  0  0  # atno 10765 bound_to 10752
  141.1524  133.7813  157.0003 H   0  0  0  0  0  0  0  0  0  0  0  0  # atno 11005 bound_to 11000
  145.9976  139.3065  143.0947 LP  0  0  0  0  0  0  0  0  0  0  0  0  # atno 17320 bound_to 7965
  145.8830  140.9351  143.0591 LP  0  0  0  0  0  0  0  0  0  0  0  0  # atno 17321 bound_to 7965
  139.5380  144.2728  152.1291 LP  0  0  0  0  0  0  0  0  0  0  0  0  # atno 17342 bound_to 10162
  140.1932  144.4731  150.6468 LP  0  0  0  0  0  0  0  0  0  0  0  0  # atno 17343 bound_to 10162
  157.5086  130.7924  149.7680 LP  0  0  0  0  0  0  0  0  0  0  0  0  # atno 17370 bound_to 10713
  156.0030  130.3870  150.2534 LP  0  0  0  0  0  0  0  0  0  0  0  0  # atno 17371 bound_to 10713
  140.0944  134.9573  157.1827 LP  0  0  0  0  0  0  0  0  0  0  0  0  # atno 17394 bound_to 11000
  140.3402  134.2712  155.7213 LP  0  0  0  0  0  0  0  0  0  0  0  0  # atno 17395 bound_to 11000

$$$$
