AV-unprocessed.smi:1988|AV-procd|sdf|8058|dock7
  -GOLD-   2272010263D 1   1.00000     0.00000
 Structure written by MMmdl.
 37 38  0  0  0  0  0  0  0  0  1 V2000
  148.0400  131.9091  159.4474 C   0  0  0  0  0  0  0  0  0  0  0  0
  147.9290  132.7683  160.6742 C   0  0  0  0  0  0  0  0  0  0  0  0
  148.1124  132.2244  161.8653 N   0  0  0  0  0  0  0  0  0  0  0  0
  147.9292  133.2561  162.7907 O   0  0  0  0  0  0  0  0  0  0  0  0
  147.6363  134.3942  162.1118 C   0  0  0  0  0  0  0  0  0  0  0  0
  147.3876  135.6182  162.9267 C   0  0  0  0  0  0  0  0  0  0  0  0
  147.6222  134.1573  160.7650 C   0  0  0  0  0  0  0  0  0  0  0  0
  147.3314  135.1256  159.6474 C   0  0  0  0  0  0  0  0  0  0  0  0
  148.3176  136.2885  159.7304 C   0  0  0  0  0  0  0  0  0  0  0  0
  148.2749  137.0639  160.6853 O   0  0  0  0  0  0  0  0  0  0  0  0
  149.1723  136.4176  158.7037 N   0  0  0  0  0  0  0  0  0  0  0  0
  150.0953  137.5297  158.5045 C   0  0  0  0  0  0  0  0  0  0  0  0
  150.2526  137.8642  157.0086 C   0  0  2  0  0  0  0  0  0  0  0  0
  151.0953  136.8156  156.2570 C   0  0  0  0  0  0  0  0  0  0  0  0
  151.4111  137.3529  154.8573 C   0  0  0  0  0  0  0  0  0  0  0  0
  151.5869  139.1655  155.0519 S   0  0  0  0  0  0  0  0  0  0  0  0
  153.0136  139.5169  155.1150 O   0  0  0  0  0  0  0  0  0  0  0  0
  150.6819  139.8375  154.1073 O   0  0  0  0  0  0  0  0  0  0  0  0
  150.8793  139.2443  156.7401 C   0  0  0  0  0  0  0  0  0  0  0  0
  148.4009  132.4828  158.5942 H   0  0  0  0  0  0  0  0  0  0  0  0
  147.0702  131.4894  159.1790 H   0  0  0  0  0  0  0  0  0  0  0  0
  148.7307  131.0796  159.6009 H   0  0  0  0  0  0  0  0  0  0  0  0
  146.3535  135.9459  162.8206 H   0  0  0  0  0  0  0  0  0  0  0  0
  148.0351  136.4338  162.6051 H   0  0  0  0  0  0  0  0  0  0  0  0
  147.5770  135.4333  163.9844 H   0  0  0  0  0  0  0  0  0  0  0  0
  147.4292  134.6493  158.6711 H   0  0  0  0  0  0  0  0  0  0  0  0
  146.3097  135.5042  159.6977 H   0  0  0  0  0  0  0  0  0  0  0  0
  149.1334  135.7246  157.9701 H   0  0  0  0  0  0  0  0  0  0  0  0
  149.7767  138.4118  159.0626 H   0  0  0  0  0  0  0  0  0  0  0  0
  151.0614  137.2405  158.9187 H   0  0  0  0  0  0  0  0  0  0  0  0
  149.2612  137.8649  156.5523 H   0  0  0  0  0  0  0  0  0  0  0  0
  152.0323  136.6578  156.7929 H   0  0  0  0  0  0  0  0  0  0  0  0
  150.5907  135.8502  156.2073 H   0  0  0  0  0  0  0  0  0  0  0  0
  152.3193  136.9279  154.4297 H   0  0  0  0  0  0  0  0  0  0  0  0
  150.5818  137.1660  154.1746 H   0  0  0  0  0  0  0  0  0  0  0  0
  150.1610  140.0617  156.8069 H   0  0  0  0  0  0  0  0  0  0  0  0
  151.6966  139.4455  157.4333 H   0  0  0  0  0  0  0  0  0  0  0  0
  1  2  1  0  0  0  0
  1 20  1  0  0  0  0
  1 21  1  0  0  0  0
  1 22  1  0  0  0  0
  2  7  1  0  0  0  0
  2  3  2  0  0  0  0
  3  4  1  0  0  0  0
  4  5  1  0  0  0  0
  5  6  1  0  0  0  0
  5  7  2  0  0  0  0
  6 23  1  0  0  0  0
  6 24  1  0  0  0  0
  6 25  1  0  0  0  0
  7  8  1  0  0  0  0
  8  9  1  0  0  0  0
  8 26  1  0  0  0  0
  8 27  1  0  0  0  0
  9 10  2  0  0  0  0
  9 11  1  0  0  0  0
 11 12  1  0  0  0  0
 11 28  1  0  0  0  0
 12 13  1  0  0  0  0
 12 29  1  0  0  0  0
 12 30  1  0  0  0  0
 13 19  1  0  0  0  0
 13 14  1  0  0  0  0
 13 31  1  0  0  0  0
 14 15  1  0  0  0  0
 14 32  1  0  0  0  0
 14 33  1  0  0  0  0
 15 16  1  0  0  0  0
 15 34  1  0  0  0  0
 15 35  1  0  0  0  0
 16 17  2  0  0  0  0
 16 18  2  0  0  0  0
 16 19  1  0  0  0  0
 19 36  1  0  0  0  0
 19 37  1  0  0  0  0
M  END
> <s_m_source_file>
AV-unprocessed.smi

> <i_m_source_file_index>
1988

> <i_lp_mmshare_version>
43012

> <i_f3d_flags>
0

> <s_epik_input>
W0NIM11jMW5vYyhbQ0gzXSljMVtDSDJdQyg9TylbTkhdW0NIMl1bQ0BASF0oW0NIMl0yKVtDSDJdW0NIMl1TMig9Tyk9Tw==

> <s_epik_cmdline>
J2VwaWtfcHl0aG9uJywgJy1waCcsICc3LjAnLCAnLXRuJywgJzgnLCAnLW1hJywgJzIwMCcsICctbWV0YWxfYmluZGluZycsICctaW1hZScsICc8aW5maWxlLm1hZT4nLCAnLW9tYWUnLCAnPG91dGZpbGUubWFlPic=

> <r_lp_tautomer_probability>
1

> <r_epik_Ionization_Penalty>
2.7503e-08

> <r_epik_Ionization_Penalty_Charging>
0

> <r_epik_Ionization_Penalty_Neutral>
2.7503e-08

> <r_epik_State_Penalty>
-0

> <r_epik_Charging_Adjusted_Penalty>
0

> <i_epik_Tot_Q>
0

> <i_epik_Tot_abs_Q>
0

> <r_epik_Metal_State_Penalty>
-0

> <b_epik_Metal_Only>
0

> <s_lp_Force_Field>
OPLS_2005

> <r_lp_Energy>
-3.10021

> <b_lp_Chiralities_Consistent>
1

> <s_lp_Variant>
AV-unprocessed.smi:1988-1

> <Gold.Version>
5.8.1

> <Gold.Id.Protein>
6NUR|6NUR_protein|mol2

> <Gold.PLP.Fitness>
36.6575

> <Gold.PLP.PLP>
-27.7587

> <Gold.PLP.part.hbond>
-4.8221

> <Gold.PLP.part.metal>
0.0000

> <Gold.PLP.part.buried>
-3.0074

> <Gold.PLP.part.nonpolar>
-21.1847

> <Gold.PLP.part.repulsive>
0.3868

> <Gold.PLP.ligand.clash>
0.0000

> <Gold.PLP.ligand.torsion>
0.3218

> <Gold.PLP.Chemscore.Hbond>
3.1776

> <Gold.PLP.Chemscore.CHOScore>
0.0000

> <Gold.PLP.Chemscore.Metal>
0.0000

> <Gold.Chemscore.Hbonds>
donor molecule, donor type, donor heavy atom, donor atom, acceptor molecule, acceptor atom, score
      P1  H  6931  6943       L1    10  0.88
      P1  H  6934  6947       L1    10  0.30
      P1  H  7989  7998       L1    18  0.98
      P1  H  7997  8008       L1    17  1.00

> <Gold.PLP.Chemscore.Internal.Correction>
0.0095

> <Gold.Rescore>
     Score         DG    S(hbond)    S(metal)    S(lipo)     H(rot)  DE(clash)    DE(int)     intcor
     17.49     -19.30       3.60        0.00      52.55       1.70       0.18       1.63       ----

> <Gold.Chemscore.Fitness>
17.4880

> <Gold.Chemscore.DG>
-19.3038

> <Gold.Chemscore.ZeroCoef>
-5.4800

> <Gold.Chemscore.Hbond>
3.5977

> <Gold.Chemscore.Metal>
0.0000

> <Gold.Chemscore.Lipo>
52.5518

> <Gold.Chemscore.Internal_Hbond>
0.0000

> <Gold.Chemscore.DEClash>
0.1849

> <Gold.Chemscore.DEInternal>
1.6309

> <Gold.Chemscore.Rot>
1.6958

> <Gold.Chemscore.Internal.Correction>
   9.000000E+99

> <Gold.Chemscore.Hbonds>
donor molecule, donor type, donor heavy atom, donor atom, acceptor molecule, acceptor atom, score
      P1  H  6931  6943       L1    10  0.86
      P1  H  6934  6947       L1    10  0.30
      P1  H  7989  7998       L1    18  0.28
      P1  H  7997  8008       L1    17  1.00

> <Gold.Chemscore.Hbond.Weighted>
-12.0165

> <Gold.Chemscore.Metal.Weighted>
-0.0000

> <Gold.Chemscore.Lipo.Weighted>
-6.1486

> <Gold.Chemscore.Internal_Hbond.Weighted>
0.0000

> <Gold.Chemscore.DEClash.Weighted>
0.1849

> <Gold.Chemscore.DEInternal.Weighted>
1.6309

> <Gold.Chemscore.Rot.Weighted>
4.3413

> <Gold.Chemscore.Internal.Correction.Weighted>
   9.000000E+99

> <Gold.Protein.RotatedTorsions>
[ 6907 6896 6895 6894 ] final -136.16 input  -60.11 | X-H torsion
[ 7974 7965 7964 7962 ] final   -4.62 input  175.53 | X-H torsion
[ 8008 7997 7996 7995 ] final  -16.65 input   59.86 | X-H torsion
[ 10167 10162 10161 10158 ] final -143.50 input  -65.29 | X-H torsion
[ 10718 10713 10712 10709 ] final   80.39 input   66.30 | X-H torsion
[ 10763 10752 10751 10750 ] final   62.04 input  -60.55 | X-H torsion
[ 11005 11000 10999 10996 ] final   17.57 input  -57.11 | X-H torsion

> <Gold.Protein.ActiveResidues>
 VAL166  LYS551  ARG553  GLY616  TRP617  ASP618  TYR619  PRO620  LYS621  CYS622 
 ASP623  PHE694  ASN695  SER759  ASP760  ASP761  ALA762  ILE779  LEU786  VAL792 
 PHE793  MET794  SER795  GLU796  ALA797  LYS798  CYS799  TRP800  GLU811  SER814 

> <Gold.Protein.RotatedAtoms>
  151.0067  133.6004  159.2687 H   0  0  0  0  0  0  0  0  0  0  0  0  # atno 6907 bound_to 6896
  151.3171  135.0808  159.9302 H   0  0  0  0  0  0  0  0  0  0  0  0  # atno 6908 bound_to 6896
  152.5288  133.9721  159.7821 H   0  0  0  0  0  0  0  0  0  0  0  0  # atno 6909 bound_to 6896
  146.2369  140.1898  142.8332 H   0  0  0  0  0  0  0  0  0  0  0  0  # atno 7974 bound_to 7965
  154.5037  140.2164  155.9295 H   0  0  0  0  0  0  0  0  0  0  0  0  # atno 8008 bound_to 7997
  156.1466  140.3169  155.8547 H   0  0  0  0  0  0  0  0  0  0  0  0  # atno 8009 bound_to 7997
  155.4019  140.0485  157.3027 H   0  0  0  0  0  0  0  0  0  0  0  0  # atno 8010 bound_to 7997
  139.7987  143.7864  152.2656 H   0  0  0  0  0  0  0  0  0  0  0  0  # atno 10167 bound_to 10162
  157.6804  130.9957  150.2072 H   0  0  0  0  0  0  0  0  0  0  0  0  # atno 10718 bound_to 10713
  152.9970  135.5479  154.6130 H   0  0  0  0  0  0  0  0  0  0  0  0  # atno 10763 bound_to 10752
  154.5447  135.2822  155.1066 H   0  0  0  0  0  0  0  0  0  0  0  0  # atno 10764 bound_to 10752
  154.2329  135.6430  153.5234 H   0  0  0  0  0  0  0  0  0  0  0  0  # atno 10765 bound_to 10752
  140.4344  134.1386  155.7684 H   0  0  0  0  0  0  0  0  0  0  0  0  # atno 11005 bound_to 11000
  144.9867  140.8509  143.5364 LP  0  0  0  0  0  0  0  0  0  0  0  0  # atno 17320 bound_to 7965
  145.1899  139.2307  143.5248 LP  0  0  0  0  0  0  0  0  0  0  0  0  # atno 17321 bound_to 7965
  139.7977  144.7386  150.9867 LP  0  0  0  0  0  0  0  0  0  0  0  0  # atno 17342 bound_to 10162
  140.7820  143.4377  151.0599 LP  0  0  0  0  0  0  0  0  0  0  0  0  # atno 17343 bound_to 10162
  156.2750  130.3726  149.7992 LP  0  0  0  0  0  0  0  0  0  0  0  0  # atno 17370 bound_to 10713
  156.5698  130.8420  151.3353 LP  0  0  0  0  0  0  0  0  0  0  0  0  # atno 17371 bound_to 10713
  141.1732  133.8567  157.1505 LP  0  0  0  0  0  0  0  0  0  0  0  0  # atno 17394 bound_to 11000
  140.0112  134.9987  157.0399 LP  0  0  0  0  0  0  0  0  0  0  0  0  # atno 17395 bound_to 11000

$$$$
