AV-unprocessed.smi:456|AV-procd|sdf|2618|dock2
  -GOLD-   2262023 13D 1   1.00000     0.00000
 Structure written by MMmdl.
 33 35  0  0  0  0  0  0  0  0  2 V2000
  149.9277  141.9823  156.1470 O   0  0  0  0  0  0  0  0  0  0  0  0
  150.5551  141.0472  157.0037 C   0  0  1  0  0  0  0  0  0  0  0  0
  151.3891  140.0570  156.1674 C   0  0  0  0  0  0  0  0  0  0  0  0
  150.5675  139.0328  155.5092 N   0  0  0  0  0  0  0  0  0  0  0  0
  150.5371  138.6392  154.2071 C   0  0  0  0  0  0  0  0  0  0  0  0
  149.6015  137.6553  154.0976 N   0  3  0  0  0  0  0  0  0  0  0  0
  149.0253  137.4183  155.3480 C   0  0  0  0  0  0  0  0  0  0  0  0
  148.0370  136.5227  155.7430 C   0  0  0  0  0  0  0  0  0  0  0  0
  147.6750  136.5368  157.1064 C   0  0  0  0  0  0  0  0  0  0  0  0
  146.7188  135.6843  157.5447 F   0  0  0  0  0  0  0  0  0  0  0  0
  148.2889  137.4202  158.0200 C   0  0  0  0  0  0  0  0  0  0  0  0
  147.9116  137.4012  159.3202 F   0  0  0  0  0  0  0  0  0  0  0  0
  149.2895  138.3247  157.6074 C   0  0  0  0  0  0  0  0  0  0  0  0
  149.6414  138.3017  156.2589 C   0  0  0  0  0  0  0  0  0  0  0  0
  151.4049  141.7196  158.0700 C   0  0  0  0  0  0  0  0  0  0  0  0
  151.6008  143.1172  158.0348 C   0  0  0  0  0  0  0  0  0  0  0  0
  152.3784  143.7504  159.0237 C   0  0  0  0  0  0  0  0  0  0  0  0
  152.9617  142.9905  160.0557 C   0  0  0  0  0  0  0  0  0  0  0  0
  152.7664  141.5966  160.0987 C   0  0  0  0  0  0  0  0  0  0  0  0
  151.9897  140.9626  159.1095 C   0  0  0  0  0  0  0  0  0  0  0  0
  150.4816  142.7453  156.0808 H   0  0  0  0  0  0  0  0  0  0  0  0
  149.7541  140.5012  157.5034 H   0  0  0  0  0  0  0  0  0  0  0  0
  151.9401  140.5857  155.3882 H   0  0  0  0  0  0  0  0  0  0  0  0
  152.1346  139.5553  156.7860 H   0  0  0  0  0  0  0  0  0  0  0  0
  151.1430  139.0384  153.4063 H   0  0  0  0  0  0  0  0  0  0  0  0
  147.5640  135.8453  155.0472 H   0  0  0  0  0  0  0  0  0  0  0  0
  149.7523  138.9978  158.3137 H   0  0  0  0  0  0  0  0  0  0  0  0
  151.1546  143.7100  157.2496 H   0  0  0  0  0  0  0  0  0  0  0  0
  152.5261  144.8199  158.9912 H   0  0  0  0  0  0  0  0  0  0  0  0
  153.5571  143.4764  160.8145 H   0  0  0  0  0  0  0  0  0  0  0  0
  153.2112  141.0134  160.8916 H   0  0  0  0  0  0  0  0  0  0  0  0
  151.8425  139.8934  159.1535 H   0  0  0  0  0  0  0  0  0  0  0  0
  149.3747  137.1836  153.2313 H   0  0  0  0  0  0  0  0  0  0  0  0
  1  2  1  0  0  0  0
  1 21  1  0  0  0  0
  2  3  1  0  0  0  0
  2 15  1  0  0  0  0
  2 22  1  0  0  0  0
  3  4  1  0  0  0  0
  3 23  1  0  0  0  0
  3 24  1  0  0  0  0
  4 14  1  0  0  0  0
  4  5  1  0  0  0  0
  5  6  2  0  0  0  0
  5 25  1  0  0  0  0
  6  7  1  0  0  0  0
  6 33  1  0  0  0  0
  7 14  2  0  0  0  0
  7  8  1  0  0  0  0
  8  9  2  0  0  0  0
  8 26  1  0  0  0  0
  9 10  1  0  0  0  0
  9 11  1  0  0  0  0
 11 12  1  0  0  0  0
 11 13  2  0  0  0  0
 13 14  1  0  0  0  0
 13 27  1  0  0  0  0
 15 20  1  0  0  0  0
 15 16  2  0  0  0  0
 16 17  1  0  0  0  0
 16 28  1  0  0  0  0
 17 18  2  0  0  0  0
 17 29  1  0  0  0  0
 18 19  1  0  0  0  0
 18 30  1  0  0  0  0
 19 20  2  0  0  0  0
 19 31  1  0  0  0  0
 20 32  1  0  0  0  0
M  CHG  1   6   1
M  END
> <s_m_source_file>
AV-unprocessed.smi

> <i_m_source_file_index>
456

> <i_lp_mmshare_version>
43012

> <i_f3d_flags>
0

> <s_epik_input>
W2NIXTFbY0hdW2NIXVtjSF1bY0hdYzFbQ0BIXShbT0hdKVtDSDJdbihbY0hdbjIpYyhjMjMpW2NIXWMoRiljKEYpW2NIXTM=

> <s_epik_cmdline>
J2VwaWtfcHl0aG9uJywgJy1waCcsICc3LjAnLCAnLXRuJywgJzgnLCAnLW1hJywgJzIwMCcsICctbWV0YWxfYmluZGluZycsICctaW1hZScsICc8aW5maWxlLm1hZT4nLCAnLW9tYWUnLCAnPG91dGZpbGUubWFlPic=

> <r_epik_Ionization_Penalty>
2.16139

> <r_epik_Ionization_Penalty_Charging>
2.16138

> <r_epik_Ionization_Penalty_Neutral>
1.34362e-06

> <r_epik_State_Penalty>
2.30198

> <r_epik_Charging_Adjusted_Penalty>
4.46337

> <i_epik_Tot_Q>
1

> <i_epik_Tot_abs_Q>
1

> <r_epik_Metal_State_Penalty>
6.38245

> <b_epik_Metal_Only>
0

> <s_lp_Force_Field>
OPLS_2005

> <r_lp_Energy>
14.9755

> <b_lp_Chiralities_Consistent>
1

> <s_lp_Variant>
AV-unprocessed.smi:456-4

> <Gold.Version>
5.8.1

> <Gold.Id.Protein>
6NUR|6NUR_protein|mol2

> <Gold.PLP.Fitness>
46.9886

> <Gold.PLP.PLP>
-36.2933

> <Gold.PLP.part.hbond>
-2.0000

> <Gold.PLP.part.metal>
0.0000

> <Gold.PLP.part.buried>
-3.4933

> <Gold.PLP.part.nonpolar>
-30.7295

> <Gold.PLP.part.repulsive>
0.0295

> <Gold.PLP.ligand.clash>
0.0000

> <Gold.PLP.ligand.torsion>
0.3194

> <Gold.PLP.Chemscore.Hbond>
2.7706

> <Gold.PLP.Chemscore.CHOScore>
1.0000

> <Gold.PLP.Chemscore.Metal>
0.0000

> <Gold.Chemscore.Hbonds>
donor molecule, donor type, donor heavy atom, donor atom, acceptor molecule, acceptor atom, score
      L1  H     6    33       P1  7948  2.00
      L1  C     5    25       P1  7957  0.10

> <Gold.PLP.Chemscore.Internal.Correction>
0.0221

> <Gold.Rescore>
     Score         DG    S(hbond)    S(metal)    S(lipo)     H(rot)  DE(clash)    DE(int)     intcor
     17.00     -17.37       1.86        0.00      92.96       2.03       0.03       0.35       ----

> <Gold.Chemscore.Fitness>
16.9989

> <Gold.Chemscore.DG>
-17.3742

> <Gold.Chemscore.ZeroCoef>
-5.4800

> <Gold.Chemscore.Hbond>
1.8571

> <Gold.Chemscore.Metal>
0.0000

> <Gold.Chemscore.Lipo>
92.9643

> <Gold.Chemscore.Internal_Hbond>
0.0000

> <Gold.Chemscore.DEClash>
0.0266

> <Gold.Chemscore.DEInternal>
0.3488

> <Gold.Chemscore.Rot>
2.0256

> <Gold.Chemscore.Internal.Correction>
   9.000000E+99

> <Gold.Chemscore.Hbonds>
donor molecule, donor type, donor heavy atom, donor atom, acceptor molecule, acceptor atom, score
      L1  H     6    33       P1  7948  0.94

> <Gold.Chemscore.Hbond.Weighted>
-6.2029

> <Gold.Chemscore.Metal.Weighted>
-0.0000

> <Gold.Chemscore.Lipo.Weighted>
-10.8768

> <Gold.Chemscore.Internal_Hbond.Weighted>
0.0000

> <Gold.Chemscore.DEClash.Weighted>
0.0266

> <Gold.Chemscore.DEInternal.Weighted>
0.3488

> <Gold.Chemscore.Rot.Weighted>
5.1855

> <Gold.Chemscore.Internal.Correction.Weighted>
   9.000000E+99

> <Gold.Protein.RotatedTorsions>
[ 6907 6896 6895 6894 ] final -140.22 input  -60.11 | X-H torsion
[ 7974 7965 7964 7962 ] final   27.55 input  175.53 | X-H torsion
[ 8008 7997 7996 7995 ] final  -32.82 input   59.86 | X-H torsion
[ 10167 10162 10161 10158 ] final  156.52 input  -65.29 | X-H torsion
[ 10718 10713 10712 10709 ] final   57.96 input   66.30 | X-H torsion
[ 10763 10752 10751 10750 ] final    8.83 input  -60.55 | X-H torsion
[ 11005 11000 10999 10996 ] final   18.39 input  -57.11 | X-H torsion

> <Gold.Protein.ActiveResidues>
 VAL166  LYS551  ARG553  GLY616  TRP617  ASP618  TYR619  PRO620  LYS621  CYS622 
 ASP623  PHE694  ASN695  SER759  ASP760  ASP761  ALA762  ILE779  LEU786  VAL792 
 PHE793  MET794  SER795  GLU796  ALA797  LYS798  CYS799  TRP800  GLU811  SER814 

> <Gold.Protein.RotatedAtoms>
  151.0579  133.5568  159.2636 H   0  0  0  0  0  0  0  0  0  0  0  0  # atno 6907 bound_to 6896
  151.2554  135.0635  159.9088 H   0  0  0  0  0  0  0  0  0  0  0  0  # atno 6908 bound_to 6896
  152.5393  134.0333  159.8088 H   0  0  0  0  0  0  0  0  0  0  0  0  # atno 6909 bound_to 6896
  146.1778  139.7176  142.8922 H   0  0  0  0  0  0  0  0  0  0  0  0  # atno 7974 bound_to 7965
  154.4168  140.1727  156.1789 H   0  0  0  0  0  0  0  0  0  0  0  0  # atno 8008 bound_to 7997
  155.9699  140.3386  155.6542 H   0  0  0  0  0  0  0  0  0  0  0  0  # atno 8009 bound_to 7997
  155.6639  140.0704  157.2535 H   0  0  0  0  0  0  0  0  0  0  0  0  # atno 8010 bound_to 7997
  139.4821  144.5001  151.8181 H   0  0  0  0  0  0  0  0  0  0  0  0  # atno 10167 bound_to 10162
  157.5557  130.8798  149.9032 H   0  0  0  0  0  0  0  0  0  0  0  0  # atno 10718 bound_to 10713
  153.2206  135.6880  153.8004 H   0  0  0  0  0  0  0  0  0  0  0  0  # atno 10763 bound_to 10752
  153.7204  135.3268  155.3266 H   0  0  0  0  0  0  0  0  0  0  0  0  # atno 10764 bound_to 10752
  154.8268  135.4612  154.1052 H   0  0  0  0  0  0  0  0  0  0  0  0  # atno 10765 bound_to 10752
  140.4254  134.1475  155.7676 H   0  0  0  0  0  0  0  0  0  0  0  0  # atno 11005 bound_to 11000
  145.4163  141.0402  143.2989 LP  0  0  0  0  0  0  0  0  0  0  0  0  # atno 17320 bound_to 7965
  144.8264  139.5702  143.6963 LP  0  0  0  0  0  0  0  0  0  0  0  0  # atno 17321 bound_to 7965
  140.4493  144.1877  150.5896 LP  0  0  0  0  0  0  0  0  0  0  0  0  # atno 17342 bound_to 10162
  140.4601  143.2452  151.9231 LP  0  0  0  0  0  0  0  0  0  0  0  0  # atno 17343 bound_to 10162
  156.0616  130.3699  150.0969 LP  0  0  0  0  0  0  0  0  0  0  0  0  # atno 17370 bound_to 10713
  156.9138  130.9660  151.3559 LP  0  0  0  0  0  0  0  0  0  0  0  0  # atno 17371 bound_to 10713
  141.1767  133.8499  157.1396 LP  0  0  0  0  0  0  0  0  0  0  0  0  # atno 17394 bound_to 11000
  140.0171  134.9962  157.0516 LP  0  0  0  0  0  0  0  0  0  0  0  0  # atno 17395 bound_to 11000

$$$$
