AV-unprocessed.smi:1599|AV-procd|sdf|6424|dock8
  -GOLD-   22720 7 63D 1   1.00000     0.00000
 Structure written by MMmdl.
 39 40  0  0  0  0  0  0  0  0  1 V2000
  152.5277  139.8726  157.0965 C   0  0  0  0  0  0  0  0  0  0  0  0
  152.0706  141.2500  157.5995 C   0  0  1  0  0  0  0  0  0  0  0  0
  150.6761  141.4667  157.2200 N   0  0  0  0  0  0  0  0  0  0  0  0
  150.1700  141.3328  155.9860 C   0  0  0  0  0  0  0  0  0  0  0  0
  150.8321  140.9858  155.0083 O   0  0  0  0  0  0  0  0  0  0  0  0
  148.8608  141.6288  155.9649 N   0  0  0  0  0  0  0  0  0  0  0  0
  148.0000  141.6263  154.8393 C   0  0  0  0  0  0  0  0  0  0  0  0
  146.6900  142.1668  154.7045 C   0  0  0  0  0  0  0  0  0  0  0  0
  146.2124  141.9557  153.4874 N   0  0  0  0  0  0  0  0  0  0  0  0
  147.1959  141.2910  152.8306 N   0  0  0  0  0  0  0  0  0  0  0  0
  146.9965  140.8932  151.4476 C   0  0  0  0  0  0  0  0  0  0  0  0
  146.8945  139.3716  151.3091 C   0  0  0  0  0  0  0  0  0  0  0  0
  145.7966  138.7884  151.7970 N   0  0  0  0  0  0  0  0  0  0  0  0
  147.7929  138.7281  150.7701 O   0  0  0  0  0  0  0  0  0  0  0  0
  148.3005  141.0727  153.6314 C   0  0  0  0  0  0  0  0  0  0  0  0
  152.2217  141.3902  159.1260 C   0  0  2  0  0  0  0  0  0  0  0  0
  151.9558  142.7950  159.6664 C   0  0  0  0  0  0  0  0  0  0  0  0
  152.6820  142.7879  160.9990 C   0  0  0  0  0  0  0  0  0  0  0  0
  153.7396  141.6917  160.8357 C   0  0  0  0  0  0  0  0  0  0  0  0
  153.5680  141.1758  159.5206 O   0  0  0  0  0  0  0  0  0  0  0  0
  153.5725  139.6887  157.3478 H   0  0  0  0  0  0  0  0  0  0  0  0
  152.4349  139.8003  156.0122 H   0  0  0  0  0  0  0  0  0  0  0  0
  151.9342  139.0706  157.5364 H   0  0  0  0  0  0  0  0  0  0  0  0
  152.7038  142.0068  157.1327 H   0  0  0  0  0  0  0  0  0  0  0  0
  150.0498  141.7543  157.9575 H   0  0  0  0  0  0  0  0  0  0  0  0
  148.4397  141.8968  156.8422 H   0  0  0  0  0  0  0  0  0  0  0  0
  146.0766  142.6899  155.4227 H   0  0  0  0  0  0  0  0  0  0  0  0
  146.0913  141.3770  151.0772 H   0  0  0  0  0  0  0  0  0  0  0  0
  147.8260  141.2561  150.8387 H   0  0  0  0  0  0  0  0  0  0  0  0
  145.6843  137.7871  151.7325 H   0  0  0  0  0  0  0  0  0  0  0  0
  145.0824  139.3539  152.2328 H   0  0  0  0  0  0  0  0  0  0  0  0
  149.1802  140.5549  153.2782 H   0  0  0  0  0  0  0  0  0  0  0  0
  151.5832  140.6703  159.6422 H   0  0  0  0  0  0  0  0  0  0  0  0
  152.4019  143.5419  159.0078 H   0  0  0  0  0  0  0  0  0  0  0  0
  150.8936  143.0216  159.7637 H   0  0  0  0  0  0  0  0  0  0  0  0
  153.1209  143.7597  161.2266 H   0  0  0  0  0  0  0  0  0  0  0  0
  151.9973  142.5306  161.8078 H   0  0  0  0  0  0  0  0  0  0  0  0
  154.7531  142.0735  160.9618 H   0  0  0  0  0  0  0  0  0  0  0  0
  153.5837  140.8949  161.5638 H   0  0  0  0  0  0  0  0  0  0  0  0
  1  2  1  0  0  0  0
  1 21  1  0  0  0  0
  1 22  1  0  0  0  0
  1 23  1  0  0  0  0
  2  3  1  0  0  0  0
  2 16  1  0  0  0  0
  2 24  1  0  0  0  0
  3  4  1  0  0  0  0
  3 25  1  0  0  0  0
  4  5  2  0  0  0  0
  4  6  1  0  0  0  0
  6  7  1  0  0  0  0
  6 26  1  0  0  0  0
  7 15  2  0  0  0  0
  7  8  1  0  0  0  0
  8  9  2  0  0  0  0
  8 27  1  0  0  0  0
  9 10  1  0  0  0  0
 10 11  1  0  0  0  0
 10 15  1  0  0  0  0
 11 12  1  0  0  0  0
 11 28  1  0  0  0  0
 11 29  1  0  0  0  0
 12 13  1  0  0  0  0
 12 14  2  0  0  0  0
 13 30  1  0  0  0  0
 13 31  1  0  0  0  0
 15 32  1  0  0  0  0
 16 20  1  0  0  0  0
 16 17  1  0  0  0  0
 16 33  1  0  0  0  0
 17 18  1  0  0  0  0
 17 34  1  0  0  0  0
 17 35  1  0  0  0  0
 18 19  1  0  0  0  0
 18 36  1  0  0  0  0
 18 37  1  0  0  0  0
 19 20  1  0  0  0  0
 19 38  1  0  0  0  0
 19 39  1  0  0  0  0
M  END
> <s_m_source_file>
AV-unprocessed.smi

> <i_m_source_file_index>
1599

> <i_lp_mmshare_version>
43012

> <i_f3d_flags>
0

> <s_epik_input>
TzFbQ0gyXVtDSDJdW0NIMl1bQ0BIXTFbQ0BIXShbQ0gzXSlbTkhdQyg9TylbTkhdYzJbY0hdbm4oW2NIXTIpW0NIMl1DKD1PKVtOSDJd

> <s_epik_cmdline>
J2VwaWtfcHl0aG9uJywgJy1waCcsICc3LjAnLCAnLXRuJywgJzgnLCAnLW1hJywgJzIwMCcsICctbWV0YWxfYmluZGluZycsICctaW1hZScsICc8aW5maWxlLm1hZT4nLCAnLW9tYWUnLCAnPG91dGZpbGUubWFlPic=

> <r_lp_tautomer_probability>
1

> <r_epik_Ionization_Penalty>
4.15391e-05

> <r_epik_Ionization_Penalty_Charging>
0

> <r_epik_Ionization_Penalty_Neutral>
4.15391e-05

> <r_epik_State_Penalty>
-0

> <r_epik_Charging_Adjusted_Penalty>
0

> <i_epik_Tot_Q>
0

> <i_epik_Tot_abs_Q>
0

> <r_epik_Metal_State_Penalty>
-0

> <b_epik_Metal_Only>
0

> <s_lp_Force_Field>
OPLS_2005

> <r_lp_Energy>
20.7391

> <b_lp_Chiralities_Consistent>
1

> <s_lp_Variant>
AV-unprocessed.smi:1599-2

> <Gold.Version>
5.8.1

> <Gold.Id.Protein>
6NUR|6NUR_protein|mol2

> <Gold.PLP.Fitness>
42.4672

> <Gold.PLP.PLP>
-31.8853

> <Gold.PLP.part.hbond>
-4.4002

> <Gold.PLP.part.metal>
0.0000

> <Gold.PLP.part.buried>
-1.9182

> <Gold.PLP.part.nonpolar>
-31.2144

> <Gold.PLP.part.repulsive>
5.3685

> <Gold.PLP.ligand.clash>
0.0000

> <Gold.PLP.ligand.torsion>
0.2606

> <Gold.PLP.Chemscore.Hbond>
2.9760

> <Gold.PLP.Chemscore.CHOScore>
0.7055

> <Gold.PLP.Chemscore.Metal>
0.0000

> <Gold.Chemscore.Hbonds>
donor molecule, donor type, donor heavy atom, donor atom, acceptor molecule, acceptor atom, score
      L1  H    13    31       P1 10175  1.00
      P1  H  7954  7966       L1    14  0.22
      P1  H  7989  7998       L1     5  0.72
      L1  C    15    32       P1  7957  0.91

> <Gold.PLP.Chemscore.Internal.Correction>
0.0586

> <Gold.Rescore>
     Score         DG    S(hbond)    S(metal)    S(lipo)     H(rot)  DE(clash)    DE(int)     intcor
     11.77     -18.61       2.79        0.00      82.53       2.28       3.83       3.01       ----

> <Gold.Chemscore.Fitness>
11.7670

> <Gold.Chemscore.DG>
-18.6095

> <Gold.Chemscore.ZeroCoef>
-5.4800

> <Gold.Chemscore.Hbond>
2.7894

> <Gold.Chemscore.Metal>
0.0000

> <Gold.Chemscore.Lipo>
82.5260

> <Gold.Chemscore.Internal_Hbond>
0.0000

> <Gold.Chemscore.DEClash>
3.8342

> <Gold.Chemscore.DEInternal>
3.0083

> <Gold.Chemscore.Rot>
2.2823

> <Gold.Chemscore.Internal.Correction>
   9.000000E+99

> <Gold.Chemscore.Hbonds>
donor molecule, donor type, donor heavy atom, donor atom, acceptor molecule, acceptor atom, score
      L1  H    13    31       P1 10175  1.00
      P1  H  7954  7966       L1    14  0.22
      P1  H  7989  7998       L1     5  0.72

> <Gold.Chemscore.Hbond.Weighted>
-9.3167

> <Gold.Chemscore.Metal.Weighted>
-0.0000

> <Gold.Chemscore.Lipo.Weighted>
-9.6555

> <Gold.Chemscore.Internal_Hbond.Weighted>
0.0000

> <Gold.Chemscore.DEClash.Weighted>
3.8342

> <Gold.Chemscore.DEInternal.Weighted>
3.0083

> <Gold.Chemscore.Rot.Weighted>
5.8427

> <Gold.Chemscore.Internal.Correction.Weighted>
   9.000000E+99

> <Gold.Protein.RotatedTorsions>
[ 6907 6896 6895 6894 ] final    0.02 input  -60.11 | X-H torsion
[ 7974 7965 7964 7962 ] final  -20.35 input  175.53 | X-H torsion
[ 8008 7997 7996 7995 ] final  -94.44 input   59.86 | X-H torsion
[ 10167 10162 10161 10158 ] final -132.97 input  -65.29 | X-H torsion
[ 10718 10713 10712 10709 ] final -119.41 input   66.30 | X-H torsion
[ 10763 10752 10751 10750 ] final  159.32 input  -60.55 | X-H torsion
[ 11005 11000 10999 10996 ] final  114.62 input  -57.11 | X-H torsion

> <Gold.Protein.ActiveResidues>
 VAL166  LYS551  ARG553  GLY616  TRP617  ASP618  TYR619  PRO620  LYS621  CYS622 
 ASP623  PHE694  ASN695  SER759  ASP760  ASP761  ALA762  ILE779  LEU786  VAL792 
 PHE793  MET794  SER795  GLU796  ALA797  LYS798  CYS799  TRP800  GLU811  SER814 

> <Gold.Protein.RotatedAtoms>
  151.5697  135.1063  159.9992 H   0  0  0  0  0  0  0  0  0  0  0  0  # atno 6907 bound_to 6896
  152.4406  133.7438  159.6666 H   0  0  0  0  0  0  0  0  0  0  0  0  # atno 6908 bound_to 6896
  150.8311  133.8020  159.3121 H   0  0  0  0  0  0  0  0  0  0  0  0  # atno 6909 bound_to 6896
  146.1793  140.4190  142.8501 H   0  0  0  0  0  0  0  0  0  0  0  0  # atno 7974 bound_to 7965
  154.7484  140.0489  157.0872 H   0  0  0  0  0  0  0  0  0  0  0  0  # atno 8008 bound_to 7997
  155.0088  140.3133  155.4818 H   0  0  0  0  0  0  0  0  0  0  0  0  # atno 8009 bound_to 7997
  156.2880  140.2188  156.5201 H   0  0  0  0  0  0  0  0  0  0  0  0  # atno 8010 bound_to 7997
  139.9030  143.6584  152.2591 H   0  0  0  0  0  0  0  0  0  0  0  0  # atno 10167 bound_to 10162
  156.1179  130.6300  150.9412 H   0  0  0  0  0  0  0  0  0  0  0  0  # atno 10718 bound_to 10713
  154.2299  135.2778  155.2894 H   0  0  0  0  0  0  0  0  0  0  0  0  # atno 10763 bound_to 10752
  154.5633  135.5640  153.7030 H   0  0  0  0  0  0  0  0  0  0  0  0  # atno 10764 bound_to 10752
  153.0022  135.6303  154.2440 H   0  0  0  0  0  0  0  0  0  0  0  0  # atno 10765 bound_to 10752
  139.8986  134.9571  156.6920 H   0  0  0  0  0  0  0  0  0  0  0  0  # atno 11005 bound_to 11000
  144.8288  140.6672  143.6305 LP  0  0  0  0  0  0  0  0  0  0  0  0  # atno 17320 bound_to 7965
  145.4123  139.1578  143.4119 LP  0  0  0  0  0  0  0  0  0  0  0  0  # atno 17321 bound_to 7965
  139.7008  144.7635  151.1276 LP  0  0  0  0  0  0  0  0  0  0  0  0  # atno 17342 bound_to 10162
  140.7702  143.5460  150.9258 LP  0  0  0  0  0  0  0  0  0  0  0  0  # atno 17343 bound_to 10162
  157.6362  131.0915  150.8343 LP  0  0  0  0  0  0  0  0  0  0  0  0  # atno 17370 bound_to 10713
  156.8444  130.5059  149.5318 LP  0  0  0  0  0  0  0  0  0  0  0  0  # atno 17371 bound_to 10713
  140.7218  133.9134  155.8152 LP  0  0  0  0  0  0  0  0  0  0  0  0  # atno 17394 bound_to 11000
  141.0222  134.0874  157.4108 LP  0  0  0  0  0  0  0  0  0  0  0  0  # atno 17395 bound_to 11000

$$$$
