AV-unprocessed.smi:1036|AV-procd|sdf|4517|dock1
  -GOLD-   22720 2533D 1   1.00000     0.00000
 Structure written by MMmdl.
 42 44  0  0  0  0  0  0  0  0  2 V2000
  151.2124  134.8124  155.8145 O   0  0  0  0  0  0  0  0  0  0  0  0
  150.5229  135.7859  155.0599 C   0  0  0  0  0  0  0  0  0  0  0  0
  151.5236  136.6490  154.2809 C   0  0  0  0  0  0  0  0  0  0  0  0
  151.5473  138.0182  154.7701 N   0  0  0  0  0  0  0  0  0  0  0  0
  150.4462  138.8457  154.5273 C   0  0  0  0  0  0  0  0  0  0  0  0
  149.3953  138.5583  153.7132 N   0  3  0  0  0  0  0  0  0  0  0  0
  148.5055  139.6360  153.7467 C   0  0  0  0  0  0  0  0  0  0  0  0
  147.2897  139.8305  153.0985 C   0  0  0  0  0  0  0  0  0  0  0  0
  146.6243  141.0481  153.3518 C   0  0  0  0  0  0  0  0  0  0  0  0
  147.1688  142.0177  154.2191 C   0  0  0  0  0  0  0  0  0  0  0  0
  148.4026  141.8134  154.8710 C   0  0  0  0  0  0  0  0  0  0  0  0
  149.0555  140.6077  154.6171 C   0  0  0  0  0  0  0  0  0  0  0  0
  150.2653  140.0743  155.0778 N   0  0  0  0  0  0  0  0  0  0  0  0
  151.0917  140.8482  156.0160 C   0  0  0  0  0  0  0  0  0  0  0  0
  150.2865  141.3952  157.2107 C   0  0  1  0  0  0  0  0  0  0  0  0
  149.4291  140.3851  157.7088 O   0  0  0  0  0  0  0  0  0  0  0  0
  151.2107  141.9650  158.2782 C   0  0  0  0  0  0  0  0  0  0  0  0
  151.2134  143.3488  158.5653 C   0  0  0  0  0  0  0  0  0  0  0  0
  152.0624  143.8676  159.5621 C   0  0  0  0  0  0  0  0  0  0  0  0
  152.0594  145.1949  159.8302 F   0  0  0  0  0  0  0  0  0  0  0  0
  152.9121  143.0067  160.2817 C   0  0  0  0  0  0  0  0  0  0  0  0
  152.9089  141.6261  160.0070 C   0  0  0  0  0  0  0  0  0  0  0  0
  152.0599  141.1049  159.0110 C   0  0  0  0  0  0  0  0  0  0  0  0
  152.0610  139.7721  158.7668 F   0  0  0  0  0  0  0  0  0  0  0  0
  150.8988  134.8445  156.7055 H   0  0  0  0  0  0  0  0  0  0  0  0
  149.7923  135.3155  154.4005 H   0  0  0  0  0  0  0  0  0  0  0  0
  149.9679  136.4109  155.7603 H   0  0  0  0  0  0  0  0  0  0  0  0
  152.5242  136.2355  154.4121 H   0  0  0  0  0  0  0  0  0  0  0  0
  151.3070  136.6256  153.2117 H   0  0  0  0  0  0  0  0  0  0  0  0
  152.2404  138.2864  155.4543 H   0  0  0  0  0  0  0  0  0  0  0  0
  146.8690  139.0900  152.4342 H   0  0  0  0  0  0  0  0  0  0  0  0
  145.6762  141.2419  152.8712 H   0  0  0  0  0  0  0  0  0  0  0  0
  146.6287  142.9380  154.3882 H   0  0  0  0  0  0  0  0  0  0  0  0
  148.8102  142.5620  155.5344 H   0  0  0  0  0  0  0  0  0  0  0  0
  151.8976  140.2009  156.3643 H   0  0  0  0  0  0  0  0  0  0  0  0
  151.5681  141.6588  155.4631 H   0  0  0  0  0  0  0  0  0  0  0  0
  149.6346  142.1968  156.8622 H   0  0  0  0  0  0  0  0  0  0  0  0
  148.5563  140.5439  157.3825 H   0  0  0  0  0  0  0  0  0  0  0  0
  150.5616  144.0202  158.0259 H   0  0  0  0  0  0  0  0  0  0  0  0
  153.5628  143.4043  161.0465 H   0  0  0  0  0  0  0  0  0  0  0  0
  153.5568  140.9651  160.5633 H   0  0  0  0  0  0  0  0  0  0  0  0
  149.2951  137.7004  153.1865 H   0  0  0  0  0  0  0  0  0  0  0  0
  1  2  1  0  0  0  0
  1 25  1  0  0  0  0
  2  3  1  0  0  0  0
  2 26  1  0  0  0  0
  2 27  1  0  0  0  0
  3  4  1  0  0  0  0
  3 28  1  0  0  0  0
  3 29  1  0  0  0  0
  4  5  1  0  0  0  0
  4 30  1  0  0  0  0
  5 13  1  0  0  0  0
  5  6  2  0  0  0  0
  6  7  1  0  0  0  0
  6 42  1  0  0  0  0
  7 12  2  0  0  0  0
  7  8  1  0  0  0  0
  8  9  2  0  0  0  0
  8 31  1  0  0  0  0
  9 10  1  0  0  0  0
  9 32  1  0  0  0  0
 10 11  2  0  0  0  0
 10 33  1  0  0  0  0
 11 12  1  0  0  0  0
 11 34  1  0  0  0  0
 12 13  1  0  0  0  0
 13 14  1  0  0  0  0
 14 15  1  0  0  0  0
 14 35  1  0  0  0  0
 14 36  1  0  0  0  0
 15 16  1  0  0  0  0
 15 17  1  0  0  0  0
 15 37  1  0  0  0  0
 16 38  1  0  0  0  0
 17 23  1  0  0  0  0
 17 18  2  0  0  0  0
 18 19  1  0  0  0  0
 18 39  1  0  0  0  0
 19 20  1  0  0  0  0
 19 21  2  0  0  0  0
 21 22  1  0  0  0  0
 21 40  1  0  0  0  0
 22 23  2  0  0  0  0
 22 41  1  0  0  0  0
 23 24  1  0  0  0  0
M  CHG  1   6   1
M  END
> <s_m_source_file>
AV-unprocessed.smi

> <i_m_source_file_index>
1036

> <i_lp_mmshare_version>
43012

> <i_f3d_flags>
0

> <s_epik_input>
W09IXVtDSDJdW0NIMl1bTkhdYyhuMSluKGMoYzEyKVtjSF1bY0hdW2NIXVtjSF0yKVtDSDJdW0NASF0oW09IXSljM1tjSF1jKEYpW2NIXVtjSF1jM0Y=

> <s_epik_cmdline>
J2VwaWtfcHl0aG9uJywgJy1waCcsICc3LjAnLCAnLXRuJywgJzgnLCAnLW1hJywgJzIwMCcsICctbWV0YWxfYmluZGluZycsICctaW1hZScsICc8aW5maWxlLm1hZT4nLCAnLW9tYWUnLCAnPG91dGZpbGUubWFlPic=

> <r_epik_Ionization_Penalty>
0.0688114

> <r_epik_Ionization_Penalty_Charging>
0.0688055

> <r_epik_Ionization_Penalty_Neutral>
5.85933e-06

> <r_epik_State_Penalty>
0.0602293

> <r_epik_Charging_Adjusted_Penalty>
0.129035

> <i_epik_Tot_Q>
1

> <i_epik_Tot_abs_Q>
1

> <r_epik_Metal_State_Penalty>
2.77411

> <b_epik_Metal_Only>
0

> <s_lp_Force_Field>
OPLS_2005

> <r_lp_Energy>
24.5331

> <b_lp_Chiralities_Consistent>
1

> <s_lp_Variant>
AV-unprocessed.smi:1036-2

> <Gold.Version>
5.8.1

> <Gold.Id.Protein>
6NUR|6NUR_protein|mol2

> <Gold.PLP.Fitness>
55.4067

> <Gold.PLP.PLP>
-49.3186

> <Gold.PLP.part.hbond>
-3.0000

> <Gold.PLP.part.metal>
0.0000

> <Gold.PLP.part.buried>
7.8377

> <Gold.PLP.part.nonpolar>
-53.5888

> <Gold.PLP.part.repulsive>
0.2040

> <Gold.PLP.ligand.clash>
0.0000

> <Gold.PLP.ligand.torsion>
0.6676

> <Gold.PLP.Chemscore.Hbond>
2.4505

> <Gold.PLP.Chemscore.CHOScore>
0.0000

> <Gold.PLP.Chemscore.Metal>
0.0000

> <Gold.Chemscore.Hbonds>
donor molecule, donor type, donor heavy atom, donor atom, acceptor molecule, acceptor atom, score
      L1  H     6    42       P1  7948  2.00
      P1  H 10752 10763       L1     1  0.21

> <Gold.PLP.Chemscore.Internal.Correction>
0.0718

> <Gold.Rescore>
     Score         DG    S(hbond)    S(metal)    S(lipo)     H(rot)  DE(clash)    DE(int)     intcor
     12.15     -15.05       0.88        0.00     128.65       3.29       1.15       1.75       ----

> <Gold.Chemscore.Fitness>
12.1538

> <Gold.Chemscore.DG>
-15.0475

> <Gold.Chemscore.ZeroCoef>
-5.4800

> <Gold.Chemscore.Hbond>
0.8776

> <Gold.Chemscore.Metal>
0.0000

> <Gold.Chemscore.Lipo>
128.6508

> <Gold.Chemscore.Internal_Hbond>
0.0000

> <Gold.Chemscore.DEClash>
1.1463

> <Gold.Chemscore.DEInternal>
1.7475

> <Gold.Chemscore.Rot>
3.2874

> <Gold.Chemscore.Internal.Correction>
   9.000000E+99

> <Gold.Chemscore.Hbonds>
donor molecule, donor type, donor heavy atom, donor atom, acceptor molecule, acceptor atom, score
      L1  H     6    42       P1  7948  0.96

> <Gold.Chemscore.Hbond.Weighted>
-2.9311

> <Gold.Chemscore.Metal.Weighted>
-0.0000

> <Gold.Chemscore.Lipo.Weighted>
-15.0521

> <Gold.Chemscore.Internal_Hbond.Weighted>
0.0000

> <Gold.Chemscore.DEClash.Weighted>
1.1463

> <Gold.Chemscore.DEInternal.Weighted>
1.7475

> <Gold.Chemscore.Rot.Weighted>
8.4158

> <Gold.Chemscore.Internal.Correction.Weighted>
   9.000000E+99

> <Gold.Protein.RotatedTorsions>
[ 6907 6896 6895 6894 ] final   15.83 input  -60.11 | X-H torsion
[ 7974 7965 7964 7962 ] final  147.39 input  175.53 | X-H torsion
[ 8008 7997 7996 7995 ] final  -12.35 input   59.86 | X-H torsion
[ 10167 10162 10161 10158 ] final  133.48 input  -65.29 | X-H torsion
[ 10718 10713 10712 10709 ] final  -10.24 input   66.30 | X-H torsion
[ 10763 10752 10751 10750 ] final   74.13 input  -60.55 | X-H torsion
[ 11005 11000 10999 10996 ] final -175.90 input  -57.11 | X-H torsion

> <Gold.Protein.ActiveResidues>
 VAL166  LYS551  ARG553  GLY616  TRP617  ASP618  TYR619  PRO620  LYS621  CYS622 
 ASP623  PHE694  ASN695  SER759  ASP760  ASP761  ALA762  ILE779  LEU786  VAL792 
 PHE793  MET794  SER795  GLU796  ALA797  LYS798  CYS799  TRP800  GLU811  SER814 

> <Gold.Protein.RotatedAtoms>
  151.8242  135.0642  160.0428 H   0  0  0  0  0  0  0  0  0  0  0  0  # atno 6907 bound_to 6896
  152.2928  133.5574  159.5577 H   0  0  0  0  0  0  0  0  0  0  0  0  # atno 6908 bound_to 6896
  150.7238  134.0320  159.3778 H   0  0  0  0  0  0  0  0  0  0  0  0  # atno 6909 bound_to 6896
  144.8596  139.6022  143.5937 H   0  0  0  0  0  0  0  0  0  0  0  0  # atno 7974 bound_to 7965
  154.5385  140.2278  155.8681 H   0  0  0  0  0  0  0  0  0  0  0  0  # atno 8008 bound_to 7997
  156.1835  140.3094  155.9156 H   0  0  0  0  0  0  0  0  0  0  0  0  # atno 8009 bound_to 7997
  155.3305  140.0445  157.3033 H   0  0  0  0  0  0  0  0  0  0  0  0  # atno 8010 bound_to 7997
  139.5295  144.6613  151.5002 H   0  0  0  0  0  0  0  0  0  0  0  0  # atno 10167 bound_to 10162
  156.6763  130.5024  149.5984 H   0  0  0  0  0  0  0  0  0  0  0  0  # atno 10718 bound_to 10713
  153.0567  135.5037  154.7997 H   0  0  0  0  0  0  0  0  0  0  0  0  # atno 10763 bound_to 10752
  154.6818  135.2969  154.9605 H   0  0  0  0  0  0  0  0  0  0  0  0  # atno 10764 bound_to 10752
  154.0389  135.6719  153.4840 H   0  0  0  0  0  0  0  0  0  0  0  0  # atno 10765 bound_to 10752
  140.4581  134.6280  157.4831 H   0  0  0  0  0  0  0  0  0  0  0  0  # atno 11005 bound_to 11000
  146.2850  139.6979  142.9202 LP  0  0  0  0  0  0  0  0  0  0  0  0  # atno 17320 bound_to 7965
  145.4339  141.0417  143.2895 LP  0  0  0  0  0  0  0  0  0  0  0  0  # atno 17321 bound_to 7965
  140.6463  143.8787  150.6741 LP  0  0  0  0  0  0  0  0  0  0  0  0  # atno 17342 bound_to 10162
  140.2138  143.3862  152.1697 LP  0  0  0  0  0  0  0  0  0  0  0  0  # atno 17343 bound_to 10162
  156.1901  130.6554  151.1051 LP  0  0  0  0  0  0  0  0  0  0  0  0  # atno 17370 bound_to 10713
  157.7059  131.0756  150.6667 LP  0  0  0  0  0  0  0  0  0  0  0  0  # atno 17371 bound_to 10713
  139.9963  134.6906  155.9604 LP  0  0  0  0  0  0  0  0  0  0  0  0  # atno 17394 bound_to 11000
  141.1634  133.6538  156.4395 LP  0  0  0  0  0  0  0  0  0  0  0  0  # atno 17395 bound_to 11000

$$$$
