AV-unprocessed.smi:1774|AV-procd|sdf|7170|dock6
  -GOLD-   22720 8413D 1   1.00000     0.00000
 Structure written by MMmdl.
 46 47  0  0  0  0  0  0  0  0  2 V2000
  147.1904  131.7423  152.9145 C   0  0  0  0  0  0  0  0  0  0  0  0
  146.0506  132.2047  152.0212 C   0  0  0  0  0  0  0  0  0  0  0  0
  145.2336  131.2423  151.3903 C   0  0  0  0  0  0  0  0  0  0  0  0
  144.1798  131.6717  150.5655 C   0  0  0  0  0  0  0  0  0  0  0  0
  143.9864  133.0543  150.4054 C   0  0  0  0  0  0  0  0  0  0  0  0
  144.7625  133.9809  151.0039 N   0  0  0  0  0  0  0  0  0  0  0  0
  145.7833  133.5832  151.8044 C   0  0  0  0  0  0  0  0  0  0  0  0
  146.6448  134.5048  152.4639 N   0  0  0  0  0  0  0  0  0  0  0  0
  146.6039  134.9189  153.7426 C   0  0  0  0  0  0  0  0  0  0  0  0
  145.8009  134.5346  154.5936 O   0  0  0  0  0  0  0  0  0  0  0  0
  147.5646  135.8202  153.9941 N   0  0  0  0  0  0  0  0  0  0  0  0
  147.7985  136.4452  155.2908 C   0  0  0  0  0  0  0  0  0  0  0  0
  149.2444  136.9642  155.4196 C   0  0  0  0  0  0  0  0  0  0  0  0
  149.6952  137.6975  154.2072 N   0  3  1  0  0  0  0  0  0  0  0  0
  149.1042  139.0523  154.0815 C   0  0  0  0  0  0  0  0  0  0  0  0
  149.7965  140.0563  155.0260 C   0  0  2  0  0  0  0  0  0  0  0  0
  149.2584  141.4798  154.8465 C   0  0  0  0  0  0  0  0  0  0  0  0
  151.1907  140.0721  154.7392 O   0  0  0  0  0  0  0  0  0  0  0  0
  151.8145  138.8108  154.9558 C   0  0  2  0  0  0  0  0  0  0  0  0
  153.3145  138.9704  154.6856 C   0  0  0  0  0  0  0  0  0  0  0  0
  151.1688  137.7598  154.0271 C   0  0  0  0  0  0  0  0  0  0  0  0
  147.2301  130.6544  152.9775 H   0  0  0  0  0  0  0  0  0  0  0  0
  147.0656  132.1317  153.9254 H   0  0  0  0  0  0  0  0  0  0  0  0
  148.1467  132.0909  152.5234 H   0  0  0  0  0  0  0  0  0  0  0  0
  145.4095  130.1864  151.5346 H   0  0  0  0  0  0  0  0  0  0  0  0
  143.5366  130.9602  150.0690 H   0  0  0  0  0  0  0  0  0  0  0  0
  143.1887  133.4274  149.7804 H   0  0  0  0  0  0  0  0  0  0  0  0
  147.3777  134.8946  151.8898 H   0  0  0  0  0  0  0  0  0  0  0  0
  148.1851  136.0808  153.2412 H   0  0  0  0  0  0  0  0  0  0  0  0
  147.0700  137.2441  155.4314 H   0  0  0  0  0  0  0  0  0  0  0  0
  147.5993  135.7045  156.0655 H   0  0  0  0  0  0  0  0  0  0  0  0
  149.2814  137.6388  156.2762 H   0  0  0  0  0  0  0  0  0  0  0  0
  149.9325  136.1504  155.6467 H   0  0  0  0  0  0  0  0  0  0  0  0
  149.2261  139.3820  153.0486 H   0  0  0  0  0  0  0  0  0  0  0  0
  148.0297  139.0200  154.2656 H   0  0  0  0  0  0  0  0  0  0  0  0
  149.6451  139.7611  156.0656 H   0  0  0  0  0  0  0  0  0  0  0  0
  148.1912  141.5270  155.0648 H   0  0  0  0  0  0  0  0  0  0  0  0
  149.4075  141.8329  153.8257 H   0  0  0  0  0  0  0  0  0  0  0  0
  149.7652  142.1749  155.5164 H   0  0  0  0  0  0  0  0  0  0  0  0
  151.6882  138.5229  156.0004 H   0  0  0  0  0  0  0  0  0  0  0  0
  153.8441  138.0309  154.8461 H   0  0  0  0  0  0  0  0  0  0  0  0
  153.7530  139.7158  155.3497 H   0  0  0  0  0  0  0  0  0  0  0  0
  153.5007  139.2886  153.6593 H   0  0  0  0  0  0  0  0  0  0  0  0
  151.6274  136.7831  154.1753 H   0  0  0  0  0  0  0  0  0  0  0  0
  151.3658  138.0286  152.9883 H   0  0  0  0  0  0  0  0  0  0  0  0
  149.3324  137.1658  153.4289 H   0  0  0  0  0  0  0  0  0  0  0  0
  1  2  1  0  0  0  0
  1 22  1  0  0  0  0
  1 23  1  0  0  0  0
  1 24  1  0  0  0  0
  2  7  1  0  0  0  0
  2  3  2  0  0  0  0
  3  4  1  0  0  0  0
  3 25  1  0  0  0  0
  4  5  2  0  0  0  0
  4 26  1  0  0  0  0
  5  6  1  0  0  0  0
  5 27  1  0  0  0  0
  6  7  2  0  0  0  0
  7  8  1  0  0  0  0
  8  9  1  0  0  0  0
  8 28  1  0  0  0  0
  9 10  2  0  0  0  0
  9 11  1  0  0  0  0
 11 12  1  0  0  0  0
 11 29  1  0  0  0  0
 12 13  1  0  0  0  0
 12 30  1  0  0  0  0
 12 31  1  0  0  0  0
 13 14  1  0  0  0  0
 13 32  1  0  0  0  0
 13 33  1  0  0  0  0
 14 21  1  0  0  0  0
 14 15  1  0  0  0  0
 14 46  1  0  0  0  0
 15 16  1  0  0  0  0
 15 34  1  0  0  0  0
 15 35  1  0  0  0  0
 16 17  1  0  0  0  0
 16 18  1  0  0  0  0
 16 36  1  0  0  0  0
 17 37  1  0  0  0  0
 17 38  1  0  0  0  0
 17 39  1  0  0  0  0
 18 19  1  0  0  0  0
 19 20  1  0  0  0  0
 19 21  1  0  0  0  0
 19 40  1  0  0  0  0
 20 41  1  0  0  0  0
 20 42  1  0  0  0  0
 20 43  1  0  0  0  0
 21 44  1  0  0  0  0
 21 45  1  0  0  0  0
M  CHG  1  14   1
M  END
> <s_m_source_file>
AV-unprocessed.smi

> <i_m_source_file_index>
1774

> <i_lp_mmshare_version>
43012

> <i_f3d_flags>
0

> <s_epik_input>
W0NIM11jMVtjSF1bY0hdW2NIXW5jMVtOSF1DKD1PKVtOSF1bQ0gyXVtDSDJdTjJbQ0gyXVtDQEBIXShbQ0gzXSlPW0NAQEhdKFtDSDNdKVtDSDJdMg==

> <s_epik_cmdline>
J2VwaWtfcHl0aG9uJywgJy1waCcsICc3LjAnLCAnLXRuJywgJzgnLCAnLW1hJywgJzIwMCcsICctbWV0YWxfYmluZGluZycsICctaW1hZScsICc8aW5maWxlLm1hZT4nLCAnLW9tYWUnLCAnPG91dGZpbGUubWFlPic=

> <r_epik_Ionization_Penalty>
0.602573

> <r_epik_Ionization_Penalty_Charging>
0.602531

> <r_epik_Ionization_Penalty_Neutral>
4.21996e-05

> <r_epik_State_Penalty>
0.617039

> <r_epik_Charging_Adjusted_Penalty>
1.21957

> <i_epik_Tot_Q>
1

> <i_epik_Tot_abs_Q>
1

> <r_epik_Metal_State_Penalty>
0.617042

> <b_epik_Metal_Only>
0

> <s_lp_Force_Field>
OPLS_2005

> <r_lp_Energy>
17.7689

> <b_lp_Chiralities_Consistent>
1

> <s_lp_Variant>
AV-unprocessed.smi:1774-7

> <Gold.Version>
5.8.1

> <Gold.Id.Protein>
6NUR|6NUR_protein|mol2

> <Gold.PLP.Fitness>
51.9754

> <Gold.PLP.PLP>
-36.4262

> <Gold.PLP.part.hbond>
-3.9524

> <Gold.PLP.part.metal>
0.0000

> <Gold.PLP.part.buried>
-1.2649

> <Gold.PLP.part.nonpolar>
-31.2998

> <Gold.PLP.part.repulsive>
0.3058

> <Gold.PLP.ligand.clash>
0.0000

> <Gold.PLP.ligand.torsion>
1.1128

> <Gold.PLP.Chemscore.Hbond>
4.9120

> <Gold.PLP.Chemscore.CHOScore>
1.0000

> <Gold.PLP.Chemscore.Metal>
0.0000

> <Gold.Chemscore.Hbonds>
donor molecule, donor type, donor heavy atom, donor atom, acceptor molecule, acceptor atom, score
      L1  H     8    28       P1  7948  0.91
      L1  H    11    29       P1  7948  1.00
      L1  H    14    46       P1  7948  2.00
      P1  H  7989  7998       L1    18  1.00
      L1  C     5    27       P1 10186  1.00

> <Gold.PLP.Chemscore.Internal.Correction>
0.0387

> <Gold.Rescore>
     Score         DG    S(hbond)    S(metal)    S(lipo)     H(rot)  DE(clash)    DE(int)     intcor
     21.26     -23.58       3.52        0.00      87.01       1.49       1.31       1.01       ----

> <Gold.Chemscore.Fitness>
21.2628

> <Gold.Chemscore.DG>
-23.5767

> <Gold.Chemscore.ZeroCoef>
-5.4800

> <Gold.Chemscore.Hbond>
3.5157

> <Gold.Chemscore.Metal>
0.0000

> <Gold.Chemscore.Lipo>
87.0103

> <Gold.Chemscore.Internal_Hbond>
0.0000

> <Gold.Chemscore.DEClash>
1.3073

> <Gold.Chemscore.DEInternal>
1.0065

> <Gold.Chemscore.Rot>
1.4946

> <Gold.Chemscore.Internal.Correction>
   9.000000E+99

> <Gold.Chemscore.Hbonds>
donor molecule, donor type, donor heavy atom, donor atom, acceptor molecule, acceptor atom, score
      L1  H     8    28       P1  7948  0.72
      L1  H    11    29       P1  7948  0.98
      L1  H    14    46       P1  7948  0.97
      P1  H  7989  7998       L1    18  0.84

> <Gold.Chemscore.Hbond.Weighted>
-11.7425

> <Gold.Chemscore.Metal.Weighted>
-0.0000

> <Gold.Chemscore.Lipo.Weighted>
-10.1802

> <Gold.Chemscore.Internal_Hbond.Weighted>
0.0000

> <Gold.Chemscore.DEClash.Weighted>
1.3073

> <Gold.Chemscore.DEInternal.Weighted>
1.0065

> <Gold.Chemscore.Rot.Weighted>
3.8261

> <Gold.Chemscore.Internal.Correction.Weighted>
   9.000000E+99

> <Gold.Protein.RotatedTorsions>
[ 6907 6896 6895 6894 ] final  111.67 input  -60.11 | X-H torsion
[ 7974 7965 7964 7962 ] final  -71.59 input  175.53 | X-H torsion
[ 8008 7997 7996 7995 ] final -140.99 input   59.86 | X-H torsion
[ 10167 10162 10161 10158 ] final  165.46 input  -65.29 | X-H torsion
[ 10718 10713 10712 10709 ] final  105.26 input   66.30 | X-H torsion
[ 10763 10752 10751 10750 ] final -149.11 input  -60.55 | X-H torsion
[ 11005 11000 10999 10996 ] final  -86.70 input  -57.11 | X-H torsion

> <Gold.Protein.ActiveResidues>
 VAL166  LYS551  ARG553  GLY616  TRP617  ASP618  TYR619  PRO620  LYS621  CYS622 
 ASP623  PHE694  ASN695  SER759  ASP760  ASP761  ALA762  ILE779  LEU786  VAL792 
 PHE793  MET794  SER795  GLU796  ALA797  LYS798  CYS799  TRP800  GLU811  SER814 

> <Gold.Protein.RotatedAtoms>
  152.4957  133.8625  159.7257 H   0  0  0  0  0  0  0  0  0  0  0  0  # atno 6907 bound_to 6896
  150.9133  133.6962  159.2856 H   0  0  0  0  0  0  0  0  0  0  0  0  # atno 6908 bound_to 6896
  151.4364  135.1019  159.9709 H   0  0  0  0  0  0  0  0  0  0  0  0  # atno 6909 bound_to 6896
  145.6760  140.9204  143.0857 H   0  0  0  0  0  0  0  0  0  0  0  0  # atno 7974 bound_to 7965
  155.4705  140.0552  157.2980 H   0  0  0  0  0  0  0  0  0  0  0  0  # atno 8008 bound_to 7997
  154.4700  140.2036  155.9972 H   0  0  0  0  0  0  0  0  0  0  0  0  # atno 8009 bound_to 7997
  156.1040  140.3214  155.7985 H   0  0  0  0  0  0  0  0  0  0  0  0  # atno 8010 bound_to 7997
  139.4906  144.4130  151.9277 H   0  0  0  0  0  0  0  0  0  0  0  0  # atno 10167 bound_to 10162
  157.6711  131.0823  150.5830 H   0  0  0  0  0  0  0  0  0  0  0  0  # atno 10718 bound_to 10713
  154.8196  135.3317  154.7078 H   0  0  0  0  0  0  0  0  0  0  0  0  # atno 10763 bound_to 10752
  153.7713  135.6925  153.4910 H   0  0  0  0  0  0  0  0  0  0  0  0  # atno 10764 bound_to 10752
  153.2043  135.4505  155.0252 H   0  0  0  0  0  0  0  0  0  0  0  0  # atno 10765 bound_to 10752
  141.1627  133.7469  156.9199 H   0  0  0  0  0  0  0  0  0  0  0  0  # atno 11005 bound_to 11000
  144.7041  139.8635  143.7435 LP  0  0  0  0  0  0  0  0  0  0  0  0  # atno 17320 bound_to 7965
  146.1004  139.4000  143.0350 LP  0  0  0  0  0  0  0  0  0  0  0  0  # atno 17321 bound_to 7965
  140.3572  144.3017  150.5939 LP  0  0  0  0  0  0  0  0  0  0  0  0  # atno 17342 bound_to 10162
  140.5434  143.2219  151.8046 LP  0  0  0  0  0  0  0  0  0  0  0  0  # atno 17343 bound_to 10162
  156.6131  130.4385  149.5851 LP  0  0  0  0  0  0  0  0  0  0  0  0  # atno 17370 bound_to 10713
  156.2415  130.6854  151.1560 LP  0  0  0  0  0  0  0  0  0  0  0  0  # atno 17371 bound_to 10713
  140.1458  134.9263  157.2528 LP  0  0  0  0  0  0  0  0  0  0  0  0  # atno 17394 bound_to 11000
  140.2781  134.3381  155.7351 LP  0  0  0  0  0  0  0  0  0  0  0  0  # atno 17395 bound_to 11000

$$$$
