AV-unprocessed.smi:37|AV-procd|sdf|314|dock5
  -GOLD-   2262016133D 1   1.00000     0.00000
 Structure written by MMmdl.
 44 45  0  0  0  0  0  0  0  0  1 V2000
  146.8081  134.5194  161.8555 C   0  0  0  0  0  0  0  0  0  0  0  0
  147.2157  135.9981  161.7822 C   0  0  0  0  0  0  0  0  0  0  0  0
  147.1871  136.5722  160.3642 C   0  0  0  0  0  0  0  0  0  0  0  0
  146.3298  137.3753  159.9918 O   0  0  0  0  0  0  0  0  0  0  0  0
  148.1914  136.0965  159.6143 O   0  0  0  0  0  0  0  0  0  0  0  0
  148.4090  136.6142  158.3122 C   0  0  0  0  0  0  0  0  0  0  0  0
  149.5502  137.6375  158.3559 C   0  0  1  0  0  0  0  0  0  0  0  0
  150.6685  137.0845  159.0468 O   0  0  0  0  0  0  0  0  0  0  0  0
  151.8585  137.5262  158.4651 C   0  0  2  0  0  0  0  0  0  0  0  0
  152.6827  138.2076  159.5328 N   0  0  0  0  0  0  0  0  0  0  0  0
  152.8208  139.5888  159.5399 C   0  0  0  0  0  0  0  0  0  0  0  0
  153.5198  140.2566  160.4875 C   0  0  0  0  0  0  0  0  0  0  0  0
  153.6098  141.5958  160.4248 F   0  0  0  0  0  0  0  0  0  0  0  0
  154.1730  139.5354  161.5757 C   0  0  0  0  0  0  0  0  0  0  0  0
  154.8299  140.0499  162.4784 O   0  0  0  0  0  0  0  0  0  0  0  0
  154.0009  138.1487  161.5333 N   0  0  0  0  0  0  0  0  0  0  0  0
  153.2818  137.4479  160.5630 C   0  0  0  0  0  0  0  0  0  0  0  0
  153.2036  136.2222  160.6285 O   0  0  0  0  0  0  0  0  0  0  0  0
  151.4968  138.4930  157.3369 C   0  0  1  0  0  0  0  0  0  0  0  0
  152.7411  138.3259  155.7925 Br  0  0  0  0  0  0  0  0  0  0  0  0
  150.0968  138.0411  156.9816 C   0  0  2  0  0  0  0  0  0  0  0  0
  149.3794  139.1243  156.4027 O   0  0  0  0  0  0  0  0  0  0  0  0
  149.7992  139.6871  155.2557 C   0  0  0  0  0  0  0  0  0  0  0  0
  150.7816  139.3373  154.5994 O   0  0  0  0  0  0  0  0  0  0  0  0
  148.8956  140.8433  154.8231 C   0  0  0  0  0  0  0  0  0  0  0  0
  147.4321  140.4302  154.6051 C   0  0  0  0  0  0  0  0  0  0  0  0
  154.4346  137.6077  162.2673 H   0  0  0  0  0  0  0  0  0  0  0  0
  146.8395  134.1638  162.8853 H   0  0  0  0  0  0  0  0  0  0  0  0
  147.4800  133.8912  161.2696 H   0  0  0  0  0  0  0  0  0  0  0  0
  145.7934  134.3680  161.4856 H   0  0  0  0  0  0  0  0  0  0  0  0
  146.5498  136.5925  162.4081 H   0  0  0  0  0  0  0  0  0  0  0  0
  148.2212  136.1225  162.1849 H   0  0  0  0  0  0  0  0  0  0  0  0
  148.6749  135.7879  157.6519 H   0  0  0  0  0  0  0  0  0  0  0  0
  147.5036  137.0745  157.9132 H   0  0  0  0  0  0  0  0  0  0  0  0
  149.2395  138.5242  158.9111 H   0  0  0  0  0  0  0  0  0  0  0  0
  152.3908  136.6427  158.1119 H   0  0  0  0  0  0  0  0  0  0  0  0
  152.3524  140.1661  158.7565 H   0  0  0  0  0  0  0  0  0  0  0  0
  151.5062  139.5247  157.6907 H   0  0  0  0  0  0  0  0  0  0  0  0
  150.1573  137.1685  156.3292 H   0  0  0  0  0  0  0  0  0  0  0  0
  148.9455  141.6237  155.5828 H   0  0  0  0  0  0  0  0  0  0  0  0
  149.2977  141.2711  153.9045 H   0  0  0  0  0  0  0  0  0  0  0  0
  146.8311  141.2904  154.3102 H   0  0  0  0  0  0  0  0  0  0  0  0
  146.9946  140.0196  155.5157 H   0  0  0  0  0  0  0  0  0  0  0  0
  147.3421  139.6809  153.8178 H   0  0  0  0  0  0  0  0  0  0  0  0
  1  2  1  0  0  0  0
  1 28  1  0  0  0  0
  1 29  1  0  0  0  0
  1 30  1  0  0  0  0
  2  3  1  0  0  0  0
  2 31  1  0  0  0  0
  2 32  1  0  0  0  0
  3  4  2  0  0  0  0
  3  5  1  0  0  0  0
  5  6  1  0  0  0  0
  6  7  1  0  0  0  0
  6 33  1  0  0  0  0
  6 34  1  0  0  0  0
  7 21  1  0  0  0  0
  7  8  1  0  0  0  0
  7 35  1  0  0  0  0
  8  9  1  0  0  0  0
  9 10  1  0  0  0  0
  9 19  1  0  0  0  0
  9 36  1  0  0  0  0
 10 17  1  0  0  0  0
 10 11  1  0  0  0  0
 11 12  2  0  0  0  0
 11 37  1  0  0  0  0
 12 13  1  0  0  0  0
 12 14  1  0  0  0  0
 14 15  2  0  0  0  0
 14 16  1  0  0  0  0
 16 27  1  0  0  0  0
 16 17  1  0  0  0  0
 17 18  2  0  0  0  0
 19 20  1  0  0  0  0
 19 21  1  0  0  0  0
 19 38  1  0  0  0  0
 21 22  1  0  0  0  0
 21 39  1  0  0  0  0
 22 23  1  0  0  0  0
 23 24  2  0  0  0  0
 23 25  1  0  0  0  0
 25 26  1  0  0  0  0
 25 40  1  0  0  0  0
 25 41  1  0  0  0  0
 26 42  1  0  0  0  0
 26 43  1  0  0  0  0
 26 44  1  0  0  0  0
M  END
> <s_m_source_file>
AV-unprocessed.smi

> <i_m_source_file_index>
37

> <i_lp_mmshare_version>
43012

> <i_f3d_flags>
0

> <s_epik_input>
W0NIM11bQ0gyXUMoPU8pT1tDSDJdW0NAQEhdMU9bQ0BASF0objJbY0hdYyhGKWMoPU8pW25IXWMyPU8pW0NAQEhdKEJyKVtDQEhdMU9DKD1PKVtDSDJdW0NIM10=

> <s_epik_cmdline>
J2VwaWtfcHl0aG9uJywgJy1waCcsICc3LjAnLCAnLXRuJywgJzgnLCAnLW1hJywgJzIwMCcsICctbWV0YWxfYmluZGluZycsICctaW1hZScsICc8aW5maWxlLm1hZT4nLCAnLW9tYWUnLCAnPG91dGZpbGUubWFlPic=

> <r_lp_tautomer_probability>
0.999537

> <r_epik_Ionization_Penalty>
0.104106

> <r_epik_Ionization_Penalty_Charging>
0.104106

> <r_epik_Ionization_Penalty_Neutral>
3.94675e-16

> <r_epik_State_Penalty>
0.0940182

> <r_epik_Charging_Adjusted_Penalty>
0.198124

> <i_epik_Tot_Q>
0

> <i_epik_Tot_abs_Q>
0

> <r_epik_Metal_State_Penalty>
3.05314

> <b_epik_Metal_Only>
0

> <s_epik_Chemistry_Notes>
This compound has an ester and may undergo hydrolysis at high or low pH. This compound contains an acetal/aminal-like group ( X-CH(R)-Y where X, Y are N, S, or O) that may be acid/base labile, releasing an aldehyde.

> <s_lp_Force_Field>
OPLS_2005

> <r_lp_Energy>
22.7414

> <b_lp_Chiralities_Consistent>
1

> <s_lp_Variant>
AV-unprocessed.smi:37-12

> <Gold.Version>
5.8.1

> <Gold.Id.Protein>
6NUR|6NUR_protein|mol2

> <Gold.PLP.Fitness>
47.0971

> <Gold.PLP.PLP>
-40.1044

> <Gold.PLP.part.hbond>
-3.6061

> <Gold.PLP.part.metal>
0.0000

> <Gold.PLP.part.buried>
-7.4763

> <Gold.PLP.part.nonpolar>
-29.8788

> <Gold.PLP.part.repulsive>
0.0893

> <Gold.PLP.ligand.clash>
0.0000

> <Gold.PLP.ligand.torsion>
0.7505

> <Gold.PLP.Chemscore.Hbond>
2.7963

> <Gold.PLP.Chemscore.CHOScore>
0.0000

> <Gold.PLP.Chemscore.Metal>
0.0000

> <Gold.Chemscore.Hbonds>
donor molecule, donor type, donor heavy atom, donor atom, acceptor molecule, acceptor atom, score
      P1  H  6896  6907       L1    18  1.00
      P1  H  6934  6947       L1     4  0.73
      P1  H  7989  7998       L1    24  0.91

> <Gold.PLP.Chemscore.Internal.Correction>
0.1050

> <Gold.Rescore>
     Score         DG    S(hbond)    S(metal)    S(lipo)     H(rot)  DE(clash)    DE(int)     intcor
      6.35     -10.68       1.98        0.00      60.89       3.33       0.01       4.32       ----

> <Gold.Chemscore.Fitness>
6.3522

> <Gold.Chemscore.DG>
-10.6815

> <Gold.Chemscore.ZeroCoef>
-5.4800

> <Gold.Chemscore.Hbond>
1.9771

> <Gold.Chemscore.Metal>
0.0000

> <Gold.Chemscore.Lipo>
60.8851

> <Gold.Chemscore.Internal_Hbond>
0.0000

> <Gold.Chemscore.DEClash>
0.0089

> <Gold.Chemscore.DEInternal>
4.3204

> <Gold.Chemscore.Rot>
3.3303

> <Gold.Chemscore.Internal.Correction>
   9.000000E+99

> <Gold.Chemscore.Hbonds>
donor molecule, donor type, donor heavy atom, donor atom, acceptor molecule, acceptor atom, score
      P1  H  6896  6907       L1    18  1.00
      P1  H  6934  6947       L1     4  0.10
      P1  H  7989  7998       L1    24  0.77

> <Gold.Chemscore.Hbond.Weighted>
-6.6035

> <Gold.Chemscore.Metal.Weighted>
-0.0000

> <Gold.Chemscore.Lipo.Weighted>
-7.1236

> <Gold.Chemscore.Internal_Hbond.Weighted>
0.0000

> <Gold.Chemscore.DEClash.Weighted>
0.0089

> <Gold.Chemscore.DEInternal.Weighted>
4.3204

> <Gold.Chemscore.Rot.Weighted>
8.5256

> <Gold.Chemscore.Internal.Correction.Weighted>
   9.000000E+99

> <Gold.Protein.RotatedTorsions>
[ 6907 6896 6895 6894 ] final   41.15 input  -60.11 | X-H torsion
[ 7974 7965 7964 7962 ] final -118.04 input  175.53 | X-H torsion
[ 8008 7997 7996 7995 ] final -164.74 input   59.86 | X-H torsion
[ 10167 10162 10161 10158 ] final -153.69 input  -65.29 | X-H torsion
[ 10718 10713 10712 10709 ] final -114.75 input   66.30 | X-H torsion
[ 10763 10752 10751 10750 ] final   85.99 input  -60.55 | X-H torsion
[ 11005 11000 10999 10996 ] final  -66.16 input  -57.11 | X-H torsion

> <Gold.Protein.ActiveResidues>
 VAL166  LYS551  ARG553  GLY616  TRP617  ASP618  TYR619  PRO620  LYS621  CYS622 
 ASP623  PHE694  ASN695  SER759  ASP760  ASP761  ALA762  ILE779  LEU786  VAL792 
 PHE793  MET794  SER795  GLU796  ALA797  LYS798  CYS799  TRP800  GLU811  SER814 

> <Gold.Protein.RotatedAtoms>
  152.1916  134.8667  160.0516 H   0  0  0  0  0  0  0  0  0  0  0  0  # atno 6907 bound_to 6896
  151.9553  133.3673  159.4023 H   0  0  0  0  0  0  0  0  0  0  0  0  # atno 6908 bound_to 6896
  150.6936  134.4221  159.5253 H   0  0  0  0  0  0  0  0  0  0  0  0  # atno 6909 bound_to 6896
  145.0784  140.8408  143.4054 H   0  0  0  0  0  0  0  0  0  0  0  0  # atno 7974 bound_to 7965
  155.8399  140.0947  157.1741 H   0  0  0  0  0  0  0  0  0  0  0  0  # atno 8008 bound_to 7997
  154.3981  140.1403  156.3777 H   0  0  0  0  0  0  0  0  0  0  0  0  # atno 8009 bound_to 7997
  155.8075  140.3451  155.5441 H   0  0  0  0  0  0  0  0  0  0  0  0  # atno 8010 bound_to 7997
  139.7076  143.9161  152.2455 H   0  0  0  0  0  0  0  0  0  0  0  0  # atno 10167 bound_to 10162
  156.0850  130.6044  150.8816 H   0  0  0  0  0  0  0  0  0  0  0  0  # atno 10718 bound_to 10713
  153.1527  135.4597  154.9660 H   0  0  0  0  0  0  0  0  0  0  0  0  # atno 10763 bound_to 10752
  154.7837  135.3197  154.7935 H   0  0  0  0  0  0  0  0  0  0  0  0  # atno 10764 bound_to 10752
  153.8438  135.6928  153.4854 H   0  0  0  0  0  0  0  0  0  0  0  0  # atno 10765 bound_to 10752
  141.1474  133.6694  156.6096 H   0  0  0  0  0  0  0  0  0  0  0  0  # atno 11005 bound_to 11000
  145.1208  139.2695  143.5589 LP  0  0  0  0  0  0  0  0  0  0  0  0  # atno 17320 bound_to 7965
  146.3530  140.0831  142.8616 LP  0  0  0  0  0  0  0  0  0  0  0  0  # atno 17321 bound_to 7965
  139.9021  144.6905  150.8653 LP  0  0  0  0  0  0  0  0  0  0  0  0  # atno 17342 bound_to 10162
  140.7725  143.3506  151.2023 LP  0  0  0  0  0  0  0  0  0  0  0  0  # atno 17343 bound_to 10162
  157.5982  131.0942  150.9006 LP  0  0  0  0  0  0  0  0  0  0  0  0  # atno 17370 bound_to 10713
  156.9168  130.5300  149.5279 LP  0  0  0  0  0  0  0  0  0  0  0  0  # atno 17371 bound_to 10713
  140.3625  134.7676  157.4543 LP  0  0  0  0  0  0  0  0  0  0  0  0  # atno 17394 bound_to 11000
  140.0774  134.5778  155.8576 LP  0  0  0  0  0  0  0  0  0  0  0  0  # atno 17395 bound_to 11000

$$$$
