AV-unprocessed.smi:767|AV-procd|sdf|3665|dock5
  -GOLD-   22720 1 73D 1   1.00000     0.00000
 Structure written by MMmdl.
 48 50  0  0  0  0  0  0  0  0  2 V2000
  151.1851  144.1096  158.2486 C   0  0  0  0  0  0  0  0  0  0  0  0
  151.1536  142.8430  157.4193 C   0  0  0  0  0  0  0  0  0  0  0  0
  151.9845  141.7371  157.7001 C   0  0  0  0  0  0  0  0  0  0  0  0
  151.8963  140.5868  156.8892 C   0  0  0  0  0  0  0  0  0  0  0  0
  150.9776  140.5630  155.8166 C   0  0  0  0  0  0  0  0  0  0  0  0
  150.8445  139.3294  154.9398 C   0  0  0  0  0  0  0  0  0  0  0  0
  149.4414  138.6888  154.9810 C   0  0  0  0  0  0  0  0  0  0  0  0
  149.4184  137.3113  154.4955 N   0  0  0  0  0  0  0  0  0  0  0  0
  149.3120  136.2218  155.2684 C   0  0  0  0  0  0  0  0  0  0  0  0
  149.2170  136.2530  156.4951 O   0  0  0  0  0  0  0  0  0  0  0  0
  149.3027  135.0963  154.5428 N   0  0  0  0  0  0  0  0  0  0  0  0
  149.1570  133.7588  155.1044 C   0  0  2  0  0  0  0  0  0  0  0  0
  150.3329  132.8453  154.7568 C   0  0  1  0  0  0  0  0  0  0  0  0
  151.4153  132.1904  155.5383 C   0  0  0  0  0  0  0  0  0  0  0  0
  151.3032  130.7746  154.9112 C   0  0  0  0  0  0  0  0  0  0  0  0
  150.0786  130.7784  154.1369 O   0  0  0  0  0  0  0  0  0  0  0  0
  149.2804  131.7537  154.7753 C   0  0  2  0  0  0  0  0  0  0  0  0
  148.2884  132.7918  154.2141 C   0  0  0  0  0  0  0  0  0  0  0  0
  146.8376  132.6152  154.6632 C   0  0  0  0  0  0  0  0  0  0  0  0
  148.2475  132.9869  152.6848 C   0  0  0  0  0  0  0  0  0  0  0  0
  150.1768  141.7006  155.5799 C   0  0  0  0  0  0  0  0  0  0  0  0
  150.2916  142.7840  156.3792 N   0  3  0  0  0  0  0  0  0  0  0  0
  151.9723  144.0661  159.0021 H   0  0  0  0  0  0  0  0  0  0  0  0
  150.2323  144.2517  158.7594 H   0  0  0  0  0  0  0  0  0  0  0  0
  151.3695  144.9770  157.6142 H   0  0  0  0  0  0  0  0  0  0  0  0
  152.6787  141.7645  158.5275 H   0  0  0  0  0  0  0  0  0  0  0  0
  152.5211  139.7298  157.0967 H   0  0  0  0  0  0  0  0  0  0  0  0
  151.0941  139.5983  153.9129 H   0  0  0  0  0  0  0  0  0  0  0  0
  151.5919  138.5956  155.2441 H   0  0  0  0  0  0  0  0  0  0  0  0
  149.0847  138.6699  156.0110 H   0  0  0  0  0  0  0  0  0  0  0  0
  148.7289  139.2967  154.4212 H   0  0  0  0  0  0  0  0  0  0  0  0
  149.4934  137.1794  153.4974 H   0  0  0  0  0  0  0  0  0  0  0  0
  149.3899  135.1664  153.5396 H   0  0  0  0  0  0  0  0  0  0  0  0
  148.9015  133.7434  156.1683 H   0  0  0  0  0  0  0  0  0  0  0  0
  150.7024  133.0668  153.7526 H   0  0  0  0  0  0  0  0  0  0  0  0
  152.3926  132.6454  155.3748 H   0  0  0  0  0  0  0  0  0  0  0  0
  151.1994  132.1823  156.6077 H   0  0  0  0  0  0  0  0  0  0  0  0
  152.1462  130.5507  154.2570 H   0  0  0  0  0  0  0  0  0  0  0  0
  151.2626  130.0084  155.6863 H   0  0  0  0  0  0  0  0  0  0  0  0
  149.0011  131.4243  155.7829 H   0  0  0  0  0  0  0  0  0  0  0  0
  146.3806  131.7380  154.2043 H   0  0  0  0  0  0  0  0  0  0  0  0
  146.2282  133.4809  154.4024 H   0  0  0  0  0  0  0  0  0  0  0  0
  146.7656  132.4883  155.7439 H   0  0  0  0  0  0  0  0  0  0  0  0
  147.8697  132.0935  152.1866 H   0  0  0  0  0  0  0  0  0  0  0  0
  149.2177  133.2050  152.2423 H   0  0  0  0  0  0  0  0  0  0  0  0
  147.5901  133.8108  152.4097 H   0  0  0  0  0  0  0  0  0  0  0  0
  149.4482  141.7739  154.7855 H   0  0  0  0  0  0  0  0  0  0  0  0
  149.6993  143.5934  156.1910 H   0  0  0  0  0  0  0  0  0  0  0  0
  1  2  1  0  0  0  0
  1 23  1  0  0  0  0
  1 24  1  0  0  0  0
  1 25  1  0  0  0  0
  2 22  1  0  0  0  0
  2  3  2  0  0  0  0
  3  4  1  0  0  0  0
  3 26  1  0  0  0  0
  4  5  2  0  0  0  0
  4 27  1  0  0  0  0
  5  6  1  0  0  0  0
  5 21  1  0  0  0  0
  6  7  1  0  0  0  0
  6 28  1  0  0  0  0
  6 29  1  0  0  0  0
  7  8  1  0  0  0  0
  7 30  1  0  0  0  0
  7 31  1  0  0  0  0
  8  9  1  0  0  0  0
  8 32  1  0  0  0  0
  9 10  2  0  0  0  0
  9 11  1  0  0  0  0
 11 12  1  0  0  0  0
 11 33  1  0  0  0  0
 12 18  1  0  0  0  0
 12 13  1  0  0  0  0
 12 34  1  0  0  0  0
 13 17  1  0  0  0  0
 13 14  1  0  0  0  0
 13 35  1  0  0  0  0
 14 15  1  0  0  0  0
 14 36  1  0  0  0  0
 14 37  1  0  0  0  0
 15 16  1  0  0  0  0
 15 38  1  0  0  0  0
 15 39  1  0  0  0  0
 16 17  1  0  0  0  0
 17 18  1  0  0  0  0
 17 40  1  0  0  0  0
 18 19  1  0  0  0  0
 18 20  1  0  0  0  0
 19 41  1  0  0  0  0
 19 42  1  0  0  0  0
 19 43  1  0  0  0  0
 20 44  1  0  0  0  0
 20 45  1  0  0  0  0
 20 46  1  0  0  0  0
 21 22  2  0  0  0  0
 21 47  1  0  0  0  0
 22 48  1  0  0  0  0
M  CHG  1  22   1
M  END
> <s_m_source_file>
AV-unprocessed.smi

> <i_m_source_file_index>
767

> <i_lp_mmshare_version>
43012

> <i_f3d_flags>
0

> <s_epik_input>
W0NIM11jMVtjSF1bY0hdYyhbY0hdbjEpW0NIMl1bQ0gyXVtOSF1DKD1PKVtOSF1bQ0BIXTJDKFtDSDNdKShbQ0gzXSlbQ0BIXShbQ0BASF0yMylPW0NIMl1bQ0gyXTM=

> <s_epik_cmdline>
J2VwaWtfcHl0aG9uJywgJy1waCcsICc3LjAnLCAnLXRuJywgJzgnLCAnLW1hJywgJzIwMCcsICctbWV0YWxfYmluZGluZycsICctaW1hZScsICc8aW5maWxlLm1hZT4nLCAnLW9tYWUnLCAnPG91dGZpbGUubWFlPic=

> <r_epik_Ionization_Penalty>
1.41853

> <r_epik_Ionization_Penalty_Charging>
1.41848

> <r_epik_Ionization_Penalty_Neutral>
5.17407e-05

> <r_epik_State_Penalty>
1.50205

> <r_epik_Charging_Adjusted_Penalty>
2.92053

> <i_epik_Tot_Q>
1

> <i_epik_Tot_abs_Q>
1

> <r_epik_Metal_State_Penalty>
1.5544

> <b_epik_Metal_Only>
0

> <s_lp_Force_Field>
OPLS_2005

> <r_lp_Energy>
63.3353

> <b_lp_Chiralities_Consistent>
1

> <s_lp_Variant>
AV-unprocessed.smi:767-9

> <Gold.Version>
5.8.1

> <Gold.Id.Protein>
6NUR|6NUR_protein|mol2

> <Gold.PLP.Fitness>
49.2216

> <Gold.PLP.PLP>
-37.6545

> <Gold.PLP.part.hbond>
-3.0000

> <Gold.PLP.part.metal>
0.0000

> <Gold.PLP.part.buried>
-5.6441

> <Gold.PLP.part.nonpolar>
-29.3272

> <Gold.PLP.part.repulsive>
0.1948

> <Gold.PLP.ligand.clash>
0.0000

> <Gold.PLP.ligand.torsion>
0.3322

> <Gold.PLP.Chemscore.Hbond>
3.9840

> <Gold.PLP.Chemscore.CHOScore>
0.0000

> <Gold.PLP.Chemscore.Metal>
0.0000

> <Gold.Chemscore.Hbonds>
donor molecule, donor type, donor heavy atom, donor atom, acceptor molecule, acceptor atom, score
      L1  H     8    32       P1  7948  1.00
      L1  H    11    33       P1  7948  0.78
      L1  H    22    48       P1  8028  1.79

> <Gold.PLP.Chemscore.Internal.Correction>
0.2795

> <Gold.Rescore>
     Score         DG    S(hbond)    S(metal)    S(lipo)     H(rot)  DE(clash)    DE(int)     intcor
     21.87     -22.36       2.85        0.00      96.35       1.52       0.16       0.32       ----

> <Gold.Chemscore.Fitness>
21.8744

> <Gold.Chemscore.DG>
-22.3578

> <Gold.Chemscore.ZeroCoef>
-5.4800

> <Gold.Chemscore.Hbond>
2.8457

> <Gold.Chemscore.Metal>
0.0000

> <Gold.Chemscore.Lipo>
96.3481

> <Gold.Chemscore.Internal_Hbond>
0.0000

> <Gold.Chemscore.DEClash>
0.1585

> <Gold.Chemscore.DEInternal>
0.3249

> <Gold.Chemscore.Rot>
1.5233

> <Gold.Chemscore.Internal.Correction>
   9.000000E+99

> <Gold.Chemscore.Hbonds>
donor molecule, donor type, donor heavy atom, donor atom, acceptor molecule, acceptor atom, score
      L1  H     8    32       P1  7948  0.86
      L1  H    11    33       P1  7948  0.11
      L1  H    22    48       P1  8028  0.86

> <Gold.Chemscore.Hbond.Weighted>
-9.5046

> <Gold.Chemscore.Metal.Weighted>
-0.0000

> <Gold.Chemscore.Lipo.Weighted>
-11.2727

> <Gold.Chemscore.Internal_Hbond.Weighted>
0.0000

> <Gold.Chemscore.DEClash.Weighted>
0.1585

> <Gold.Chemscore.DEInternal.Weighted>
0.3249

> <Gold.Chemscore.Rot.Weighted>
3.8995

> <Gold.Chemscore.Internal.Correction.Weighted>
   9.000000E+99

> <Gold.Protein.RotatedTorsions>
[ 6907 6896 6895 6894 ] final  121.17 input  -60.11 | X-H torsion
[ 7974 7965 7964 7962 ] final -132.19 input  175.53 | X-H torsion
[ 8008 7997 7996 7995 ] final  167.07 input   59.86 | X-H torsion
[ 10167 10162 10161 10158 ] final -137.07 input  -65.29 | X-H torsion
[ 10718 10713 10712 10709 ] final -125.16 input   66.30 | X-H torsion
[ 10763 10752 10751 10750 ] final   15.13 input  -60.55 | X-H torsion
[ 11005 11000 10999 10996 ] final -126.74 input  -57.11 | X-H torsion

> <Gold.Protein.ActiveResidues>
 VAL166  LYS551  ARG553  GLY616  TRP617  ASP618  TYR619  PRO620  LYS621  CYS622 
 ASP623  PHE694  ASN695  SER759  ASP760  ASP761  ALA762  ILE779  LEU786  VAL792 
 PHE793  MET794  SER795  GLU796  ALA797  LYS798  CYS799  TRP800  GLU811  SER814 

> <Gold.Protein.RotatedAtoms>
  152.4342  133.7331  159.6598 H   0  0  0  0  0  0  0  0  0  0  0  0  # atno 6907 bound_to 6896
  150.8224  133.8219  159.3139 H   0  0  0  0  0  0  0  0  0  0  0  0  # atno 6908 bound_to 6896
  151.5898  135.1056  160.0088 H   0  0  0  0  0  0  0  0  0  0  0  0  # atno 6909 bound_to 6896
  144.9309  140.7127  143.4907 H   0  0  0  0  0  0  0  0  0  0  0  0  # atno 7974 bound_to 7965
  156.1665  140.1626  156.8523 H   0  0  0  0  0  0  0  0  0  0  0  0  # atno 8008 bound_to 7997
  154.5212  140.0778  156.8211 H   0  0  0  0  0  0  0  0  0  0  0  0  # atno 8009 bound_to 7997
  155.3602  140.3395  155.4243 H   0  0  0  0  0  0  0  0  0  0  0  0  # atno 8010 bound_to 7997
  139.8614  143.7072  152.2649 H   0  0  0  0  0  0  0  0  0  0  0  0  # atno 10167 bound_to 10162
  156.1650  130.6628  151.0103 H   0  0  0  0  0  0  0  0  0  0  0  0  # atno 10718 bound_to 10713
  153.1555  135.6786  153.8818 H   0  0  0  0  0  0  0  0  0  0  0  0  # atno 10763 bound_to 10752
  153.8231  135.3127  155.3413 H   0  0  0  0  0  0  0  0  0  0  0  0  # atno 10764 bound_to 10752
  154.7894  135.4843  154.0107 H   0  0  0  0  0  0  0  0  0  0  0  0  # atno 10765 bound_to 10752
  140.9657  134.0875  157.3923 H   0  0  0  0  0  0  0  0  0  0  0  0  # atno 11005 bound_to 11000
  145.3144  139.1808  143.4621 LP  0  0  0  0  0  0  0  0  0  0  0  0  # atno 17320 bound_to 7965
  146.3246  140.3153  142.8629 LP  0  0  0  0  0  0  0  0  0  0  0  0  # atno 17321 bound_to 7965
  139.7370  144.7569  151.0712 LP  0  0  0  0  0  0  0  0  0  0  0  0  # atno 17342 bound_to 10162
  140.7774  143.5019  150.9761 LP  0  0  0  0  0  0  0  0  0  0  0  0  # atno 17343 bound_to 10162
  157.6761  131.0850  150.7490 LP  0  0  0  0  0  0  0  0  0  0  0  0  # atno 17370 bound_to 10713
  156.7551  130.4781  149.5448 LP  0  0  0  0  0  0  0  0  0  0  0  0  # atno 17371 bound_to 10713
  139.8893  135.0104  156.6674 LP  0  0  0  0  0  0  0  0  0  0  0  0  # atno 17394 bound_to 11000
  140.7403  133.8983  155.8273 LP  0  0  0  0  0  0  0  0  0  0  0  0  # atno 17395 bound_to 11000

$$$$
