AV-unprocessed.smi:1178|AV-procd|sdf|4956|dock3
  -GOLD-   22720 3543D 1   1.00000     0.00000
 Structure written by MMmdl.
 33 34  0  0  0  0  0  0  0  0  1 V2000
  153.1409  138.6803  156.8260 O   0  0  0  0  0  0  0  0  0  0  0  0
  152.1820  139.2813  156.3394 C   0  0  0  0  0  0  0  0  0  0  0  0
  151.7493  139.0216  154.8896 C   0  0  0  0  0  0  0  0  0  0  0  0
  150.4621  138.3173  154.8004 N   0  0  0  0  0  0  0  0  0  0  0  0
  149.3218  138.9902  154.3848 C   0  0  0  0  0  0  0  0  0  0  0  0
  148.1110  138.3974  154.2579 C   0  0  0  0  0  0  0  0  0  0  0  0
  147.9473  136.9797  154.5610 C   0  0  0  0  0  0  0  0  0  0  0  0
  146.8936  136.3530  154.4750 O   0  0  0  0  0  0  0  0  0  0  0  0
  149.1170  136.3379  154.9763 N   0  0  0  0  0  0  0  0  0  0  0  0
  150.3676  136.9428  155.1095 C   0  0  0  0  0  0  0  0  0  0  0  0
  151.3364  136.2826  155.4822 O   0  0  0  0  0  0  0  0  0  0  0  0
  151.4712  140.1974  157.0143 N   0  0  0  0  0  0  0  0  0  0  0  0
  151.6941  140.5823  158.4038 C   0  0  0  0  0  0  0  0  0  0  0  0
  152.3230  141.9864  158.5241 C   0  0  0  0  0  0  0  0  0  0  0  0
  152.4762  142.4017  159.9254 N   0  0  0  0  0  0  0  0  0  0  0  0
  151.9393  143.5446  160.4115 C   0  0  0  0  0  0  0  0  0  0  0  0
  151.2746  144.3448  159.7544 O   0  0  0  0  0  0  0  0  0  0  0  0
  152.2278  143.8001  161.8955 C   0  0  0  0  0  0  0  0  0  0  0  0
  153.2286  142.4052  162.4180 S   0  0  0  0  0  0  0  0  0  0  0  0
  153.1803  141.6962  160.8269 C   0  0  0  0  0  0  0  0  0  0  0  0
  153.7626  140.6388  160.5874 O   0  0  0  0  0  0  0  0  0  0  0  0
  149.0528  135.3546  155.1960 H   0  0  0  0  0  0  0  0  0  0  0  0
  151.7013  139.9634  154.3391 H   0  0  0  0  0  0  0  0  0  0  0  0
  152.5333  138.4418  154.4008 H   0  0  0  0  0  0  0  0  0  0  0  0
  149.3971  140.0408  154.1431 H   0  0  0  0  0  0  0  0  0  0  0  0
  147.2594  138.9745  153.9274 H   0  0  0  0  0  0  0  0  0  0  0  0
  150.7045  140.6468  156.5350 H   0  0  0  0  0  0  0  0  0  0  0  0
  150.7379  140.5659  158.9292 H   0  0  0  0  0  0  0  0  0  0  0  0
  152.3157  139.8302  158.8902 H   0  0  0  0  0  0  0  0  0  0  0  0
  153.2718  142.0413  157.9874 H   0  0  0  0  0  0  0  0  0  0  0  0
  151.6784  142.7043  158.0140 H   0  0  0  0  0  0  0  0  0  0  0  0
  152.7733  144.7346  162.0274 H   0  0  0  0  0  0  0  0  0  0  0  0
  151.3007  143.8434  162.4675 H   0  0  0  0  0  0  0  0  0  0  0  0
  1  2  2  0  0  0  0
  2  3  1  0  0  0  0
  2 12  1  0  0  0  0
  3  4  1  0  0  0  0
  3 23  1  0  0  0  0
  3 24  1  0  0  0  0
  4 10  1  0  0  0  0
  4  5  1  0  0  0  0
  5  6  2  0  0  0  0
  5 25  1  0  0  0  0
  6  7  1  0  0  0  0
  6 26  1  0  0  0  0
  7  8  2  0  0  0  0
  7  9  1  0  0  0  0
  9 22  1  0  0  0  0
  9 10  1  0  0  0  0
 10 11  2  0  0  0  0
 12 13  1  0  0  0  0
 12 27  1  0  0  0  0
 13 14  1  0  0  0  0
 13 28  1  0  0  0  0
 13 29  1  0  0  0  0
 14 15  1  0  0  0  0
 14 30  1  0  0  0  0
 14 31  1  0  0  0  0
 15 20  1  0  0  0  0
 15 16  1  0  0  0  0
 16 17  2  0  0  0  0
 16 18  1  0  0  0  0
 18 19  1  0  0  0  0
 18 32  1  0  0  0  0
 18 33  1  0  0  0  0
 19 20  1  0  0  0  0
 20 21  2  0  0  0  0
M  END
> <s_m_source_file>
AV-unprocessed.smi

> <i_m_source_file_index>
1178

> <i_lp_mmshare_version>
43012

> <i_f3d_flags>
0

> <s_epik_input>
Tz1jMVtuSF1jKD1PKVtjSF1bY0hdbjFbQ0gyXUMoPU8pW05IXVtDSDJdW0NIMl1OMkMoPU8pW0NIMl1TQzI9Tw==

> <s_epik_cmdline>
J2VwaWtfcHl0aG9uJywgJy1waCcsICc3LjAnLCAnLXRuJywgJzgnLCAnLW1hJywgJzIwMCcsICctbWV0YWxfYmluZGluZycsICctaW1hZScsICc8aW5maWxlLm1hZT4nLCAnLW9tYWUnLCAnPG91dGZpbGUubWFlPic=

> <r_lp_tautomer_probability>
0.999537

> <r_epik_Ionization_Penalty>
0.00339795

> <r_epik_Ionization_Penalty_Charging>
0.0033979

> <r_epik_Ionization_Penalty_Neutral>
5.48861e-08

> <r_epik_State_Penalty>
0.00240602

> <r_epik_Charging_Adjusted_Penalty>
0.00580392

> <i_epik_Tot_Q>
0

> <i_epik_Tot_abs_Q>
0

> <r_epik_Metal_State_Penalty>
0.366682

> <b_epik_Metal_Only>
0

> <s_lp_Force_Field>
OPLS_2005

> <r_lp_Energy>
11.0957

> <b_lp_Chiralities_Consistent>
1

> <s_lp_Variant>
AV-unprocessed.smi:1178-1

> <Gold.Version>
5.8.1

> <Gold.Id.Protein>
6NUR|6NUR_protein|mol2

> <Gold.PLP.Fitness>
44.4538

> <Gold.PLP.PLP>
-39.1059

> <Gold.PLP.part.hbond>
-2.8683

> <Gold.PLP.part.metal>
0.0000

> <Gold.PLP.part.buried>
-4.3235

> <Gold.PLP.part.nonpolar>
-31.5555

> <Gold.PLP.part.repulsive>
0.3513

> <Gold.PLP.ligand.clash>
0.0000

> <Gold.PLP.ligand.torsion>
0.3355

> <Gold.PLP.Chemscore.Hbond>
2.0000

> <Gold.PLP.Chemscore.CHOScore>
0.0000

> <Gold.PLP.Chemscore.Metal>
0.0000

> <Gold.Chemscore.Hbonds>
donor molecule, donor type, donor heavy atom, donor atom, acceptor molecule, acceptor atom, score
      P1  H  7997  8009       L1     1  0.75
      P1  H 10752 10765       L1    11  1.00

> <Gold.PLP.Chemscore.Internal.Correction>
0.0188

> <Gold.Rescore>
     Score         DG    S(hbond)    S(metal)    S(lipo)     H(rot)  DE(clash)    DE(int)     intcor
     10.08     -10.85       1.99        0.00      54.14       2.97       0.61       0.17       ----

> <Gold.Chemscore.Fitness>
10.0799

> <Gold.Chemscore.DG>
-10.8549

> <Gold.Chemscore.ZeroCoef>
-5.4800

> <Gold.Chemscore.Hbond>
1.9868

> <Gold.Chemscore.Metal>
0.0000

> <Gold.Chemscore.Lipo>
54.1439

> <Gold.Chemscore.Internal_Hbond>
0.0000

> <Gold.Chemscore.DEClash>
0.6053

> <Gold.Chemscore.DEInternal>
0.1697

> <Gold.Chemscore.Rot>
2.9672

> <Gold.Chemscore.Internal.Correction>
   9.000000E+99

> <Gold.Chemscore.Hbonds>
donor molecule, donor type, donor heavy atom, donor atom, acceptor molecule, acceptor atom, score
      P1  H  7997  8009       L1     1  0.09
      P1  H 10752 10765       L1    11  0.97

> <Gold.Chemscore.Hbond.Weighted>
-6.6360

> <Gold.Chemscore.Metal.Weighted>
-0.0000

> <Gold.Chemscore.Lipo.Weighted>
-6.3348

> <Gold.Chemscore.Internal_Hbond.Weighted>
0.0000

> <Gold.Chemscore.DEClash.Weighted>
0.6053

> <Gold.Chemscore.DEInternal.Weighted>
0.1697

> <Gold.Chemscore.Rot.Weighted>
7.5960

> <Gold.Chemscore.Internal.Correction.Weighted>
   9.000000E+99

> <Gold.Protein.RotatedTorsions>
[ 6907 6896 6895 6894 ] final  -39.82 input  -60.11 | X-H torsion
[ 7974 7965 7964 7962 ] final   86.93 input  175.53 | X-H torsion
[ 8008 7997 7996 7995 ] final -171.99 input   59.86 | X-H torsion
[ 10167 10162 10161 10158 ] final -119.11 input  -65.29 | X-H torsion
[ 10718 10713 10712 10709 ] final   52.83 input   66.30 | X-H torsion
[ 10763 10752 10751 10750 ] final -155.87 input  -60.55 | X-H torsion
[ 11005 11000 10999 10996 ] final -138.18 input  -57.11 | X-H torsion

> <Gold.Protein.ActiveResidues>
 VAL166  LYS551  ARG553  GLY616  TRP617  ASP618  TYR619  PRO620  LYS621  CYS622 
 ASP623  PHE694  ASN695  SER759  ASP760  ASP761  ALA762  ILE779  LEU786  VAL792 
 PHE793  MET794  SER795  GLU796  ALA797  LYS798  CYS799  TRP800  GLU811  SER814 

> <Gold.Protein.RotatedAtoms>
  150.9857  134.9203  159.7870 H   0  0  0  0  0  0  0  0  0  0  0  0  # atno 6907 bound_to 6896
  152.5236  134.3349  159.9206 H   0  0  0  0  0  0  0  0  0  0  0  0  # atno 6908 bound_to 6896
  151.3356  133.3942  159.2701 H   0  0  0  0  0  0  0  0  0  0  0  0  # atno 6909 bound_to 6896
  145.5657  139.2308  143.2434 H   0  0  0  0  0  0  0  0  0  0  0  0  # atno 7974 bound_to 7965
  155.9388  140.1104  157.1073 H   0  0  0  0  0  0  0  0  0  0  0  0  # atno 8008 bound_to 7997
  154.4085  140.1223  156.4965 H   0  0  0  0  0  0  0  0  0  0  0  0  # atno 8009 bound_to 7997
  155.6988  140.3472  155.4926 H   0  0  0  0  0  0  0  0  0  0  0  0  # atno 8010 bound_to 7997
  140.0502  143.5068  152.2086 H   0  0  0  0  0  0  0  0  0  0  0  0  # atno 10167 bound_to 10162
  157.5111  130.8501  149.8436 H   0  0  0  0  0  0  0  0  0  0  0  0  # atno 10718 bound_to 10713
  154.7755  135.3158  154.8101 H   0  0  0  0  0  0  0  0  0  0  0  0  # atno 10763 bound_to 10752
  153.8825  135.6833  153.4770 H   0  0  0  0  0  0  0  0  0  0  0  0  # atno 10764 bound_to 10752
  153.1378  135.4752  154.9385 H   0  0  0  0  0  0  0  0  0  0  0  0  # atno 10765 bound_to 10752
  140.8640  134.2133  157.4690 H   0  0  0  0  0  0  0  0  0  0  0  0  # atno 11005 bound_to 11000
  146.1820  140.6483  142.9185 LP  0  0  0  0  0  0  0  0  0  0  0  0  # atno 17320 bound_to 7965
  144.7461  140.5072  143.6834 LP  0  0  0  0  0  0  0  0  0  0  0  0  # atno 17321 bound_to 7965
  139.5958  144.7566  151.3290 LP  0  0  0  0  0  0  0  0  0  0  0  0  # atno 17342 bound_to 10162
  140.7220  143.7108  150.7771 LP  0  0  0  0  0  0  0  0  0  0  0  0  # atno 17343 bound_to 10162
  156.0290  130.3770  150.1742 LP  0  0  0  0  0  0  0  0  0  0  0  0  # atno 17370 bound_to 10713
  156.9931  130.9899  151.3409 LP  0  0  0  0  0  0  0  0  0  0  0  0  # atno 17371 bound_to 10713
  139.8708  134.9743  156.4841 LP  0  0  0  0  0  0  0  0  0  0  0  0  # atno 17394 bound_to 11000
  140.8650  133.8031  155.9304 LP  0  0  0  0  0  0  0  0  0  0  0  0  # atno 17395 bound_to 11000

$$$$
