AV-unprocessed.smi:1952|AV-procd|sdf|7888|dock2
  -GOLD-   2272010 43D 1   1.00000     0.00000
 Structure written by MMmdl.
 38 39  0  0  0  0  0  0  0  0  2 V2000
  143.9328  133.6098  150.7548 C   0  0  0  0  0  0  0  0  0  0  0  0
  144.5033  134.8865  151.2713 C   0  0  0  0  0  0  0  0  0  0  0  0
  145.3541  135.8080  150.7303 C   0  0  0  0  0  0  0  0  0  0  0  0
  145.4739  136.7827  151.7585 C   0  0  0  0  0  0  0  0  0  0  0  0
  146.2227  137.8950  151.7073 N   0  5  0  0  0  0  0  0  0  0  0  0
  146.4560  138.6113  152.8316 C   0  0  0  0  0  0  0  0  0  0  0  0
  145.7857  138.5850  153.8665 O   0  0  0  0  0  0  0  0  0  0  0  0
  147.5323  139.4074  152.7500 N   0  0  0  0  0  0  0  0  0  0  0  0
  148.0219  140.3098  153.7912 C   0  0  1  0  0  0  0  0  0  0  0  0
  147.0228  141.4577  154.0016 C   0  0  0  0  0  0  0  0  0  0  0  0
  148.2581  139.5263  155.0990 C   0  0  0  0  0  0  0  0  0  0  0  0
  149.6591  139.3075  155.4651 N   0  0  0  0  0  0  0  0  0  0  0  0
  150.4193  138.6244  154.4210 C   0  0  0  0  0  0  0  0  0  0  0  0
  151.8914  138.4250  154.8219 C   0  0  0  0  0  0  0  0  0  0  0  0
  152.4773  139.6834  155.1392 O   0  0  0  0  0  0  0  0  0  0  0  0
  151.7907  140.3570  156.1889 C   0  0  0  0  0  0  0  0  0  0  0  0
  150.3198  140.5664  155.7899 C   0  0  0  0  0  0  0  0  0  0  0  0
  144.7720  136.4708  152.8350 N   0  0  0  0  0  0  0  0  0  0  0  0
  144.1405  135.2596  152.5282 O   0  0  0  0  0  0  0  0  0  0  0  0
  144.7272  132.9229  150.4637 H   0  0  0  0  0  0  0  0  0  0  0  0
  143.3069  133.7935  149.8816 H   0  0  0  0  0  0  0  0  0  0  0  0
  143.3210  133.1173  151.5111 H   0  0  0  0  0  0  0  0  0  0  0  0
  145.8143  135.7918  149.7538 H   0  0  0  0  0  0  0  0  0  0  0  0
  148.0465  139.3984  151.8814 H   0  0  0  0  0  0  0  0  0  0  0  0
  148.9672  140.7532  153.4769 H   0  0  0  0  0  0  0  0  0  0  0  0
  147.3746  142.1472  154.7692 H   0  0  0  0  0  0  0  0  0  0  0  0
  146.0469  141.0830  154.3118 H   0  0  0  0  0  0  0  0  0  0  0  0
  146.8834  142.0312  153.0845 H   0  0  0  0  0  0  0  0  0  0  0  0
  147.7439  140.0319  155.9178 H   0  0  0  0  0  0  0  0  0  0  0  0
  147.7700  138.5558  154.9975 H   0  0  0  0  0  0  0  0  0  0  0  0
  149.9841  137.6475  154.2130 H   0  0  0  0  0  0  0  0  0  0  0  0
  150.3701  139.1954  153.4928 H   0  0  0  0  0  0  0  0  0  0  0  0
  151.9689  137.7541  155.6789 H   0  0  0  0  0  0  0  0  0  0  0  0
  152.4486  137.9667  154.0050 H   0  0  0  0  0  0  0  0  0  0  0  0
  151.8624  139.7786  157.1114 H   0  0  0  0  0  0  0  0  0  0  0  0
  152.2743  141.3162  156.3735 H   0  0  0  0  0  0  0  0  0  0  0  0
  150.2713  141.2409  154.9336 H   0  0  0  0  0  0  0  0  0  0  0  0
  149.7932  141.0611  156.6066 H   0  0  0  0  0  0  0  0  0  0  0  0
  1  2  1  0  0  0  0
  1 20  1  0  0  0  0
  1 21  1  0  0  0  0
  1 22  1  0  0  0  0
  2 19  1  0  0  0  0
  2  3  2  0  0  0  0
  3  4  1  0  0  0  0
  3 23  1  0  0  0  0
  4  5  1  0  0  0  0
  4 18  2  0  0  0  0
  5  6  1  0  0  0  0
  6  7  2  0  0  0  0
  6  8  1  0  0  0  0
  8  9  1  0  0  0  0
  8 24  1  0  0  0  0
  9 10  1  0  0  0  0
  9 11  1  0  0  0  0
  9 25  1  0  0  0  0
 10 26  1  0  0  0  0
 10 27  1  0  0  0  0
 10 28  1  0  0  0  0
 11 12  1  0  0  0  0
 11 29  1  0  0  0  0
 11 30  1  0  0  0  0
 12 17  1  0  0  0  0
 12 13  1  0  0  0  0
 13 14  1  0  0  0  0
 13 31  1  0  0  0  0
 13 32  1  0  0  0  0
 14 15  1  0  0  0  0
 14 33  1  0  0  0  0
 14 34  1  0  0  0  0
 15 16  1  0  0  0  0
 16 17  1  0  0  0  0
 16 35  1  0  0  0  0
 16 36  1  0  0  0  0
 17 37  1  0  0  0  0
 17 38  1  0  0  0  0
 18 19  1  0  0  0  0
M  CHG  1   5  -1
M  END
> <s_m_source_file>
AV-unprocessed.smi

> <i_m_source_file_index>
1952

> <i_lp_mmshare_version>
43012

> <i_f3d_flags>
0

> <s_epik_input>
W0NIM11jMVtjSF1jKG5vMSlbTkhdQyg9TylbTkhdW0NASF0oW0NIM10pW0NIMl1OMltDSDJdW0NIMl1PW0NIMl1bQ0gyXTI=

> <s_epik_cmdline>
J2VwaWtfcHl0aG9uJywgJy1waCcsICc3LjAnLCAnLXRuJywgJzgnLCAnLW1hJywgJzIwMCcsICctbWV0YWxfYmluZGluZycsICctaW1hZScsICc8aW5maWxlLm1hZT4nLCAnLW9tYWUnLCAnPG91dGZpbGUubWFlPic=

> <r_epik_Ionization_Penalty>
6.81701

> <r_epik_Ionization_Penalty_Charging>
6.50532

> <r_epik_Ionization_Penalty_Neutral>
0.311686

> <r_epik_State_Penalty>
6.70952

> <r_epik_Charging_Adjusted_Penalty>
13.2148

> <i_epik_Tot_Q>
-1

> <i_epik_Tot_abs_Q>
1

> <r_epik_Metal_State_Penalty>
2.64135

> <b_epik_Metal_Only>
1

> <s_lp_Force_Field>
OPLS_2005

> <r_lp_Energy>
19.0911

> <b_lp_Chiralities_Consistent>
1

> <s_lp_Variant>
AV-unprocessed.smi:1952-6

> <Gold.Version>
5.8.1

> <Gold.Id.Protein>
6NUR|6NUR_protein|mol2

> <Gold.PLP.Fitness>
36.3491

> <Gold.PLP.PLP>
-31.9001

> <Gold.PLP.part.hbond>
-2.7080

> <Gold.PLP.part.metal>
0.0000

> <Gold.PLP.part.buried>
-5.8379

> <Gold.PLP.part.nonpolar>
-25.5165

> <Gold.PLP.part.repulsive>
1.0149

> <Gold.PLP.ligand.clash>
0.0000

> <Gold.PLP.ligand.torsion>
0.8648

> <Gold.PLP.Chemscore.Hbond>
2.0329

> <Gold.PLP.Chemscore.CHOScore>
0.0000

> <Gold.PLP.Chemscore.Metal>
0.0000

> <Gold.Chemscore.Hbonds>
donor molecule, donor type, donor heavy atom, donor atom, acceptor molecule, acceptor atom, score
      L1  H     8    24       P1  7957  0.83
      P1  H  7989  7998       L1    15  0.35
      P1  H  7997  8008       L1    15  0.47

> <Gold.PLP.Chemscore.Internal.Correction>
0.0800

> <Gold.Rescore>
     Score         DG    S(hbond)    S(metal)    S(lipo)     H(rot)  DE(clash)    DE(int)     intcor
     10.54     -14.60       1.70        0.00      62.84       1.53       0.35       3.70       ----

> <Gold.Chemscore.Fitness>
10.5431

> <Gold.Chemscore.DG>
-14.5997

> <Gold.Chemscore.ZeroCoef>
-5.4800

> <Gold.Chemscore.Hbond>
1.7031

> <Gold.Chemscore.Metal>
0.0000

> <Gold.Chemscore.Lipo>
62.8418

> <Gold.Chemscore.Internal_Hbond>
0.0000

> <Gold.Chemscore.DEClash>
0.3525

> <Gold.Chemscore.DEInternal>
3.7042

> <Gold.Chemscore.Rot>
1.5317

> <Gold.Chemscore.Internal.Correction>
   9.000000E+99

> <Gold.Chemscore.Hbonds>
donor molecule, donor type, donor heavy atom, donor atom, acceptor molecule, acceptor atom, score
      L1  H     8    24       P1  7957  0.83
      P1  H  7989  7998       L1    15  0.01
      P1  H  7997  8008       L1    15  0.08

> <Gold.Chemscore.Hbond.Weighted>
-5.6884

> <Gold.Chemscore.Metal.Weighted>
-0.0000

> <Gold.Chemscore.Lipo.Weighted>
-7.3525

> <Gold.Chemscore.Internal_Hbond.Weighted>
0.0000

> <Gold.Chemscore.DEClash.Weighted>
0.3525

> <Gold.Chemscore.DEInternal.Weighted>
3.7042

> <Gold.Chemscore.Rot.Weighted>
3.9211

> <Gold.Chemscore.Internal.Correction.Weighted>
   9.000000E+99

> <Gold.Protein.RotatedTorsions>
[ 6907 6896 6895 6894 ] final   82.36 input  -60.11 | X-H torsion
[ 7974 7965 7964 7962 ] final -178.42 input  175.53 | X-H torsion
[ 8008 7997 7996 7995 ] final   -7.54 input   59.86 | X-H torsion
[ 10167 10162 10161 10158 ] final -169.98 input  -65.29 | X-H torsion
[ 10718 10713 10712 10709 ] final -104.14 input   66.30 | X-H torsion
[ 10763 10752 10751 10750 ] final  -33.51 input  -60.55 | X-H torsion
[ 11005 11000 10999 10996 ] final -156.44 input  -57.11 | X-H torsion

> <Gold.Protein.ActiveResidues>
 VAL166  LYS551  ARG553  GLY616  TRP617  ASP618  TYR619  PRO620  LYS621  CYS622 
 ASP623  PHE694  ASN695  SER759  ASP760  ASP761  ALA762  ILE779  LEU786  VAL792 
 PHE793  MET794  SER795  GLU796  ALA797  LYS798  CYS799  TRP800  GLU811  SER814 

> <Gold.Protein.RotatedAtoms>
  152.5296  134.3062  159.9096 H   0  0  0  0  0  0  0  0  0  0  0  0  # atno 6907 bound_to 6896
  151.3012  133.4115  159.2647 H   0  0  0  0  0  0  0  0  0  0  0  0  # atno 6908 bound_to 6896
  151.0117  134.9418  159.8068 H   0  0  0  0  0  0  0  0  0  0  0  0  # atno 6909 bound_to 6896
  144.7131  140.0871  143.6423 H   0  0  0  0  0  0  0  0  0  0  0  0  # atno 7974 bound_to 7965
  154.5829  140.2404  155.8029 H   0  0  0  0  0  0  0  0  0  0  0  0  # atno 8008 bound_to 7997
  156.2192  140.3003  155.9867 H   0  0  0  0  0  0  0  0  0  0  0  0  # atno 8009 bound_to 7997
  155.2510  140.0410  157.2977 H   0  0  0  0  0  0  0  0  0  0  0  0  # atno 8010 bound_to 7997
  139.5890  144.1256  152.1610 H   0  0  0  0  0  0  0  0  0  0  0  0  # atno 10167 bound_to 10162
  156.0292  130.5501  150.7353 H   0  0  0  0  0  0  0  0  0  0  0  0  # atno 10718 bound_to 10713
  153.8314  135.6866  153.4814 H   0  0  0  0  0  0  0  0  0  0  0  0  # atno 10763 bound_to 10752
  153.1509  135.4618  154.9633 H   0  0  0  0  0  0  0  0  0  0  0  0  # atno 10764 bound_to 10752
  154.7885  135.3293  154.7777 H   0  0  0  0  0  0  0  0  0  0  0  0  # atno 10765 bound_to 10752
  140.6755  134.4201  157.5229 H   0  0  0  0  0  0  0  0  0  0  0  0  # atno 11005 bound_to 11000
  145.9652  139.2830  143.1131 LP  0  0  0  0  0  0  0  0  0  0  0  0  # atno 17320 bound_to 7965
  145.9177  140.9137  143.0421 LP  0  0  0  0  0  0  0  0  0  0  0  0  # atno 17321 bound_to 7965
  140.0826  144.5688  150.7112 LP  0  0  0  0  0  0  0  0  0  0  0  0  # atno 17342 bound_to 10162
  140.7156  143.2542  151.4444 LP  0  0  0  0  0  0  0  0  0  0  0  0  # atno 17343 bound_to 10162
  157.4936  131.0913  151.0398 LP  0  0  0  0  0  0  0  0  0  0  0  0  # atno 17370 bound_to 10713
  157.0798  130.5898  149.5418 LP  0  0  0  0  0  0  0  0  0  0  0  0  # atno 17371 bound_to 10713
  139.8968  134.8651  156.2072 LP  0  0  0  0  0  0  0  0  0  0  0  0  # atno 17394 bound_to 11000
  141.0359  133.6964  156.1511 LP  0  0  0  0  0  0  0  0  0  0  0  0  # atno 17395 bound_to 11000

$$$$
