AV-unprocessed.smi:1409|AV-procd|sdf|5728|dock1
  -GOLD-   22720 5363D 1   1.00000     0.00000
 Structure written by MMmdl.
 37 38  0  0  0  0  0  0  0  0  1 V2000
  144.9570  135.2901  150.7681 C   0  0  0  0  0  0  0  0  0  0  0  0
  146.0767  134.7870  151.4889 O   0  0  0  0  0  0  0  0  0  0  0  0
  146.1202  133.4373  151.7835 C   0  0  0  0  0  0  0  0  0  0  0  0
  145.1770  132.6289  151.2379 N   0  0  0  0  0  0  0  0  0  0  0  0
  145.2178  131.3113  151.5217 C   0  0  0  0  0  0  0  0  0  0  0  0
  146.1941  130.7334  152.3528 C   0  0  0  0  0  0  0  0  0  0  0  0
  147.1747  131.5689  152.9186 C   0  0  0  0  0  0  0  0  0  0  0  0
  147.1412  132.9576  152.6380 C   0  0  0  0  0  0  0  0  0  0  0  0
  148.0804  133.9030  153.1410 N   0  0  0  0  0  0  0  0  0  0  0  0
  148.7649  133.9029  154.2978 C   0  0  0  0  0  0  0  0  0  0  0  0
  148.6899  133.0457  155.1769 O   0  0  0  0  0  0  0  0  0  0  0  0
  149.5571  134.9812  154.3845 N   0  0  0  0  0  0  0  0  0  0  0  0
  150.4403  135.3009  155.5024 C   0  0  0  0  0  0  0  0  0  0  0  0
  150.6288  136.8207  155.6675 C   0  0  1  0  0  0  0  0  0  0  0  0
  151.5072  137.1725  156.8838 C   0  0  0  0  0  0  0  0  0  0  0  0
  151.8456  138.6652  156.8274 C   0  0  0  0  0  0  0  0  0  0  0  0
  151.9967  139.0675  155.0472 S   0  0  0  0  0  0  0  0  0  0  0  0
  151.1102  140.1988  154.7356 O   0  0  0  0  0  0  0  0  0  0  0  0
  153.4177  139.0921  154.6690 O   0  0  0  0  0  0  0  0  0  0  0  0
  151.2433  137.5115  154.4373 C   0  0  0  0  0  0  0  0  0  0  0  0
  145.0744  136.3640  150.6244 H   0  0  0  0  0  0  0  0  0  0  0  0
  144.0250  135.1293  151.3117 H   0  0  0  0  0  0  0  0  0  0  0  0
  144.8807  134.8312  149.7813 H   0  0  0  0  0  0  0  0  0  0  0  0
  144.4513  130.6991  151.0699 H   0  0  0  0  0  0  0  0  0  0  0  0
  146.1929  129.6715  152.5498 H   0  0  0  0  0  0  0  0  0  0  0  0
  147.9283  131.1189  153.5440 H   0  0  0  0  0  0  0  0  0  0  0  0
  148.2289  134.7054  152.5464 H   0  0  0  0  0  0  0  0  0  0  0  0
  149.5515  135.6333  153.6137 H   0  0  0  0  0  0  0  0  0  0  0  0
  149.9878  134.8907  156.4054 H   0  0  0  0  0  0  0  0  0  0  0  0
  151.4061  134.8041  155.3958 H   0  0  0  0  0  0  0  0  0  0  0  0
  149.6500  137.2712  155.8402 H   0  0  0  0  0  0  0  0  0  0  0  0
  151.0208  136.9110  157.8239 H   0  0  0  0  0  0  0  0  0  0  0  0
  152.4342  136.5995  156.8349 H   0  0  0  0  0  0  0  0  0  0  0  0
  151.0326  139.2625  157.2406 H   0  0  0  0  0  0  0  0  0  0  0  0
  152.7672  138.9164  157.3527 H   0  0  0  0  0  0  0  0  0  0  0  0
  152.0394  136.9052  154.0036 H   0  0  0  0  0  0  0  0  0  0  0  0
  150.5115  137.7285  153.6590 H   0  0  0  0  0  0  0  0  0  0  0  0
  1  2  1  0  0  0  0
  1 21  1  0  0  0  0
  1 22  1  0  0  0  0
  1 23  1  0  0  0  0
  2  3  1  0  0  0  0
  3  8  1  0  0  0  0
  3  4  2  0  0  0  0
  4  5  1  0  0  0  0
  5  6  2  0  0  0  0
  5 24  1  0  0  0  0
  6  7  1  0  0  0  0
  6 25  1  0  0  0  0
  7  8  2  0  0  0  0
  7 26  1  0  0  0  0
  8  9  1  0  0  0  0
  9 10  1  0  0  0  0
  9 27  1  0  0  0  0
 10 11  2  0  0  0  0
 10 12  1  0  0  0  0
 12 13  1  0  0  0  0
 12 28  1  0  0  0  0
 13 14  1  0  0  0  0
 13 29  1  0  0  0  0
 13 30  1  0  0  0  0
 14 20  1  0  0  0  0
 14 15  1  0  0  0  0
 14 31  1  0  0  0  0
 15 16  1  0  0  0  0
 15 32  1  0  0  0  0
 15 33  1  0  0  0  0
 16 17  1  0  0  0  0
 16 34  1  0  0  0  0
 16 35  1  0  0  0  0
 17 18  2  0  0  0  0
 17 19  2  0  0  0  0
 17 20  1  0  0  0  0
 20 36  1  0  0  0  0
 20 37  1  0  0  0  0
M  END
> <s_m_source_file>
AV-unprocessed.smi

> <i_m_source_file_index>
1409

> <i_lp_mmshare_version>
43012

> <i_f3d_flags>
0

> <s_epik_input>
W0NIM11PYzFuW2NIXVtjSF1bY0hdYzFbTkhdQyg9TylbTkhdW0NIMl1bQ0BASF0oW0NIMl0yKVtDSDJdW0NIMl1TMig9Tyk9Tw==

> <s_epik_cmdline>
J2VwaWtfcHl0aG9uJywgJy1waCcsICc3LjAnLCAnLXRuJywgJzgnLCAnLW1hJywgJzIwMCcsICctbWV0YWxfYmluZGluZycsICctaW1hZScsICc8aW5maWxlLm1hZT4nLCAnLW9tYWUnLCAnPG91dGZpbGUubWFlPic=

> <r_lp_tautomer_probability>
1

> <r_epik_Ionization_Penalty>
9.0549e-05

> <r_epik_Ionization_Penalty_Charging>
0

> <r_epik_Ionization_Penalty_Neutral>
9.0549e-05

> <r_epik_State_Penalty>
-0

> <r_epik_Charging_Adjusted_Penalty>
0

> <i_epik_Tot_Q>
0

> <i_epik_Tot_abs_Q>
0

> <r_epik_Metal_State_Penalty>
-0

> <b_epik_Metal_Only>
0

> <s_lp_Force_Field>
OPLS_2005

> <r_lp_Energy>
6.49732

> <b_lp_Chiralities_Consistent>
1

> <s_lp_Variant>
AV-unprocessed.smi:1409-2

> <Gold.Version>
5.8.1

> <Gold.Id.Protein>
6NUR|6NUR_protein|mol2

> <Gold.PLP.Fitness>
44.6627

> <Gold.PLP.PLP>
-33.6738

> <Gold.PLP.part.hbond>
-3.9571

> <Gold.PLP.part.metal>
0.0000

> <Gold.PLP.part.buried>
-6.3565

> <Gold.PLP.part.nonpolar>
-23.4309

> <Gold.PLP.part.repulsive>
0.4125

> <Gold.PLP.ligand.clash>
0.0000

> <Gold.PLP.ligand.torsion>
0.4391

> <Gold.PLP.Chemscore.Hbond>
3.9500

> <Gold.PLP.Chemscore.CHOScore>
0.0000

> <Gold.PLP.Chemscore.Metal>
0.0000

> <Gold.Chemscore.Hbonds>
donor molecule, donor type, donor heavy atom, donor atom, acceptor molecule, acceptor atom, score
      L1  H     9    27       P1  7948  1.00
      L1  H    12    28       P1  7948  0.95
      P1  H  7989  7998       L1    18  0.93
      P1  H  7997  8009       L1    19  1.00

> <Gold.PLP.Chemscore.Internal.Correction>
0.0171

> <Gold.Rescore>
     Score         DG    S(hbond)    S(metal)    S(lipo)     H(rot)  DE(clash)    DE(int)     intcor
     19.04     -19.65       3.51        0.00      55.69       1.59       0.00       0.60       ----

> <Gold.Chemscore.Fitness>
19.0402

> <Gold.Chemscore.DG>
-19.6451

> <Gold.Chemscore.ZeroCoef>
-5.4800

> <Gold.Chemscore.Hbond>
3.5103

> <Gold.Chemscore.Metal>
0.0000

> <Gold.Chemscore.Lipo>
55.6936

> <Gold.Chemscore.Internal_Hbond>
0.0000

> <Gold.Chemscore.DEClash>
0.0015

> <Gold.Chemscore.DEInternal>
0.6034

> <Gold.Chemscore.Rot>
1.5919

> <Gold.Chemscore.Internal.Correction>
   9.000000E+99

> <Gold.Chemscore.Hbonds>
donor molecule, donor type, donor heavy atom, donor atom, acceptor molecule, acceptor atom, score
      L1  H     9    27       P1  7948  0.40
      L1  H    12    28       P1  7948  0.21
      P1  H  7989  7998       L1    18  0.58
      P1  H  7997  8009       L1    19  0.77

> <Gold.Chemscore.Hbond.Weighted>
-11.7243

> <Gold.Chemscore.Metal.Weighted>
-0.0000

> <Gold.Chemscore.Lipo.Weighted>
-6.5161

> <Gold.Chemscore.Internal_Hbond.Weighted>
0.0000

> <Gold.Chemscore.DEClash.Weighted>
0.0015

> <Gold.Chemscore.DEInternal.Weighted>
0.6034

> <Gold.Chemscore.Rot.Weighted>
4.0754

> <Gold.Chemscore.Internal.Correction.Weighted>
   9.000000E+99

> <Gold.Protein.RotatedTorsions>
[ 6907 6896 6895 6894 ] final -137.53 input  -60.11 | X-H torsion
[ 7974 7965 7964 7962 ] final  -26.40 input  175.53 | X-H torsion
[ 8008 7997 7996 7995 ] final -136.99 input   59.86 | X-H torsion
[ 10167 10162 10161 10158 ] final  -60.41 input  -65.29 | X-H torsion
[ 10718 10713 10712 10709 ] final  -44.04 input   66.30 | X-H torsion
[ 10763 10752 10751 10750 ] final  -25.98 input  -60.55 | X-H torsion
[ 11005 11000 10999 10996 ] final -151.54 input  -57.11 | X-H torsion

> <Gold.Protein.ActiveResidues>
 VAL166  LYS551  ARG553  GLY616  TRP617  ASP618  TYR619  PRO620  LYS621  CYS622 
 ASP623  PHE694  ASN695  SER759  ASP760  ASP761  ALA762  ILE779  LEU786  VAL792 
 PHE793  MET794  SER795  GLU796  ALA797  LYS798  CYS799  TRP800  GLU811  SER814 

> <Gold.Protein.RotatedAtoms>
  151.0236  133.5854  159.2668 H   0  0  0  0  0  0  0  0  0  0  0  0  # atno 6907 bound_to 6896
  151.2961  135.0755  159.9231 H   0  0  0  0  0  0  0  0  0  0  0  0  # atno 6908 bound_to 6896
  152.5329  133.9926  159.7912 H   0  0  0  0  0  0  0  0  0  0  0  0  # atno 6909 bound_to 6896
  146.1428  140.5014  142.8644 H   0  0  0  0  0  0  0  0  0  0  0  0  # atno 7974 bound_to 7965
  155.4043  140.0508  157.3035 H   0  0  0  0  0  0  0  0  0  0  0  0  # atno 8008 bound_to 7997
  154.4976  140.2144  155.9375 H   0  0  0  0  0  0  0  0  0  0  0  0  # atno 8009 bound_to 7997
  156.1425  140.3151  155.8523 H   0  0  0  0  0  0  0  0  0  0  0  0  # atno 8010 bound_to 7997
  140.6073  143.2377  151.5792 H   0  0  0  0  0  0  0  0  0  0  0  0  # atno 10167 bound_to 10162
  156.2427  130.4181  149.8742 H   0  0  0  0  0  0  0  0  0  0  0  0  # atno 10718 bound_to 10713
  153.7086  135.6952  153.5043 H   0  0  0  0  0  0  0  0  0  0  0  0  # atno 10763 bound_to 10752
  153.2289  135.4344  155.0572 H   0  0  0  0  0  0  0  0  0  0  0  0  # atno 10764 bound_to 10752
  154.8322  135.3479  154.6623 H   0  0  0  0  0  0  0  0  0  0  0  0  # atno 10765 bound_to 10752
  140.7285  134.3648  157.5171 H   0  0  0  0  0  0  0  0  0  0  0  0  # atno 11005 bound_to 11000
  144.7812  140.5843  143.6604 LP  0  0  0  0  0  0  0  0  0  0  0  0  # atno 17320 bound_to 7965
  145.5007  139.1483  143.3659 LP  0  0  0  0  0  0  0  0  0  0  0  0  # atno 17321 bound_to 7965
  139.5334  144.2850  152.1199 LP  0  0  0  0  0  0  0  0  0  0  0  0  # atno 17342 bound_to 10162
  140.2042  144.4628  150.6417 LP  0  0  0  0  0  0  0  0  0  0  0  0  # atno 17343 bound_to 10162
  156.6318  130.8669  151.3497 LP  0  0  0  0  0  0  0  0  0  0  0  0  # atno 17370 bound_to 10713
  157.7182  130.9524  150.1335 LP  0  0  0  0  0  0  0  0  0  0  0  0  # atno 17371 bound_to 10713
  139.8832  134.9002  156.2784 LP  0  0  0  0  0  0  0  0  0  0  0  0  # atno 17394 bound_to 11000
  140.9942  133.7190  156.0860 LP  0  0  0  0  0  0  0  0  0  0  0  0  # atno 17395 bound_to 11000

$$$$
