AV-unprocessed.smi:73|AV-procd|sdf|759|dock7
  -GOLD-   2262017 93D 1   1.00000     0.00000
 Structure written by MMmdl.
 35 36  0  0  0  0  0  0  0  0  2 V2000
  150.5212  137.1715  155.4209 C   0  0  0  0  0  0  0  0  0  0  0  0
  151.1430  138.0550  156.5122 C   0  0  0  0  0  0  0  0  0  0  0  0
  150.3540  139.1997  157.0235 N   0  0  0  0  0  0  0  0  0  0  0  0
  148.9940  138.7183  157.3308 C   0  0  0  0  0  0  0  0  0  0  0  0
  148.9474  137.5901  158.3130 C   0  0  0  0  0  0  0  0  0  0  0  0
  149.5645  136.4096  158.2209 N   0  0  0  0  0  0  0  0  0  0  0  0
  149.2082  135.7125  159.3541 N   0  0  0  0  0  0  0  0  0  0  0  0
  148.4046  136.5259  160.0436 C   0  0  0  0  0  0  0  0  0  0  0  0
  147.7432  136.2518  161.3506 C   0  0  0  0  0  0  0  0  0  0  0  0
  148.2039  137.7263  159.4413 O   0  0  0  0  0  0  0  0  0  0  0  0
  150.3214  140.3314  156.0625 C   0  0  2  0  0  0  0  0  0  0  0  0
  149.7275  141.6438  156.6455 C   0  0  0  0  0  0  0  0  0  0  0  0
  148.6431  142.1044  155.7637 N   0  3  0  0  0  0  0  0  0  0  0  0
  148.8553  141.4772  154.4615 C   0  0  0  0  0  0  0  0  0  0  0  0
  149.4444  140.1127  154.8005 C   0  0  1  0  0  0  0  0  0  0  0  0
  150.2069  139.6583  153.6997 O   0  0  0  0  0  0  0  0  0  0  0  0
  148.6236  139.4241  155.0077 H   0  0  0  0  0  0  0  0  0  0  0  0
  151.2880  136.5425  154.9682 H   0  0  0  0  0  0  0  0  0  0  0  0
  150.0829  137.7716  154.6229 H   0  0  0  0  0  0  0  0  0  0  0  0
  149.7644  136.4952  155.8148 H   0  0  0  0  0  0  0  0  0  0  0  0
  151.4615  137.4256  157.3447 H   0  0  0  0  0  0  0  0  0  0  0  0
  152.0669  138.4231  156.0677 H   0  0  0  0  0  0  0  0  0  0  0  0
  148.3885  139.5046  157.7757 H   0  0  0  0  0  0  0  0  0  0  0  0
  148.4831  138.4173  156.4149 H   0  0  0  0  0  0  0  0  0  0  0  0
  147.6444  135.1773  161.5059 H   0  0  0  0  0  0  0  0  0  0  0  0
  146.7498  136.7005  161.3718 H   0  0  0  0  0  0  0  0  0  0  0  0
  148.3363  136.6717  162.1629 H   0  0  0  0  0  0  0  0  0  0  0  0
  151.3388  140.5466  155.7305 H   0  0  0  0  0  0  0  0  0  0  0  0
  149.2805  141.5142  157.6294 H   0  0  0  0  0  0  0  0  0  0  0  0
  150.4949  142.4155  156.7138 H   0  0  0  0  0  0  0  0  0  0  0  0
  147.7677  141.7657  156.1371 H   0  0  0  0  0  0  0  0  0  0  0  0
  147.9334  141.4138  153.8827 H   0  0  0  0  0  0  0  0  0  0  0  0
  149.5698  142.0850  153.9032 H   0  0  0  0  0  0  0  0  0  0  0  0
  149.7319  139.8450  152.9042 H   0  0  0  0  0  0  0  0  0  0  0  0
  148.6199  143.1119  155.6947 H   0  0  0  0  0  0  0  0  0  0  0  0
  1  2  1  0  0  0  0
  1 18  1  0  0  0  0
  1 19  1  0  0  0  0
  1 20  1  0  0  0  0
  2  3  1  0  0  0  0
  2 21  1  0  0  0  0
  2 22  1  0  0  0  0
  3  4  1  0  0  0  0
  3 11  1  0  0  0  0
  4  5  1  0  0  0  0
  4 23  1  0  0  0  0
  4 24  1  0  0  0  0
  5 10  1  0  0  0  0
  5  6  2  0  0  0  0
  6  7  1  0  0  0  0
  7  8  2  0  0  0  0
  8  9  1  0  0  0  0
  8 10  1  0  0  0  0
  9 25  1  0  0  0  0
  9 26  1  0  0  0  0
  9 27  1  0  0  0  0
 11 15  1  0  0  0  0
 11 12  1  0  0  0  0
 11 28  1  0  0  0  0
 12 13  1  0  0  0  0
 12 29  1  0  0  0  0
 12 30  1  0  0  0  0
 13 14  1  0  0  0  0
 13 31  1  0  0  0  0
 13 35  1  0  0  0  0
 14 15  1  0  0  0  0
 14 32  1  0  0  0  0
 14 33  1  0  0  0  0
 15 17  1  0  0  0  0
 15 16  1  0  0  0  0
 16 34  1  0  0  0  0
M  CHG  1  13   1
M  END
> <s_m_source_file>
AV-unprocessed.smi

> <i_m_source_file_index>
73

> <i_lp_mmshare_version>
43012

> <i_f3d_flags>
0

> <s_epik_input>
W09IXVtDQEBIXTFbQ0gyXVtOSF1bQ0gyXVtDQEhdMU4oW0NIMl1bQ0gzXSlbQ0gyXWMybm5jKG8yKVtDSDNd

> <s_epik_cmdline>
J2VwaWtfcHl0aG9uJywgJy1waCcsICc3LjAnLCAnLXRuJywgJzgnLCAnLW1hJywgJzIwMCcsICctbWV0YWxfYmluZGluZycsICctaW1hZScsICc8aW5maWxlLm1hZT4nLCAnLW9tYWUnLCAnPG91dGZpbGUubWFlPic=

> <r_lp_tautomer_probability>
1

> <r_epik_Ionization_Penalty>
0.00160433

> <r_epik_Ionization_Penalty_Charging>
0.000122314

> <r_epik_Ionization_Penalty_Neutral>
0.00148202

> <r_epik_State_Penalty>
-0

> <r_epik_Charging_Adjusted_Penalty>
0.000122314

> <i_epik_Tot_Q>
1

> <i_epik_Tot_abs_Q>
1

> <r_epik_Metal_State_Penalty>
-0

> <b_epik_Metal_Only>
0

> <s_lp_Force_Field>
OPLS_2005

> <r_lp_Energy>
42.0904

> <b_lp_Chiralities_Consistent>
1

> <s_lp_Variant>
AV-unprocessed.smi:73-1

> <Gold.Version>
5.8.1

> <Gold.Id.Protein>
6NUR|6NUR_protein|mol2

> <Gold.PLP.Fitness>
38.3479

> <Gold.PLP.PLP>
-23.4307

> <Gold.PLP.part.hbond>
-5.8708

> <Gold.PLP.part.metal>
0.0000

> <Gold.PLP.part.buried>
-2.6469

> <Gold.PLP.part.nonpolar>
-15.2965

> <Gold.PLP.part.repulsive>
0.0983

> <Gold.PLP.ligand.clash>
0.0000

> <Gold.PLP.ligand.torsion>
0.2247

> <Gold.PLP.Chemscore.Hbond>
5.1172

> <Gold.PLP.Chemscore.CHOScore>
0.0000

> <Gold.PLP.Chemscore.Metal>
0.0000

> <Gold.Chemscore.Hbonds>
donor molecule, donor type, donor heavy atom, donor atom, acceptor molecule, acceptor atom, score
      L1  H    13    35       P1  8028  2.00
      L1  H    16    34       P1  7957  1.00
      P1  H  6896  6908       L1     7  0.95
      P1  H  6934  6947       L1    10  0.24
      P1  H  7989  7998       L1    16  0.81

> <Gold.PLP.Chemscore.Internal.Correction>
0.0152

> <Gold.Rescore>
     Score         DG    S(hbond)    S(metal)    S(lipo)     H(rot)  DE(clash)    DE(int)     intcor
     11.53     -14.32       2.99        0.00      44.95       2.51       0.06       2.73       ----

> <Gold.Chemscore.Fitness>
11.5329

> <Gold.Chemscore.DG>
-14.3194

> <Gold.Chemscore.ZeroCoef>
-5.4800

> <Gold.Chemscore.Hbond>
2.9919

> <Gold.Chemscore.Metal>
0.0000

> <Gold.Chemscore.Lipo>
44.9540

> <Gold.Chemscore.Internal_Hbond>
0.0000

> <Gold.Chemscore.DEClash>
0.0576

> <Gold.Chemscore.DEInternal>
2.7289

> <Gold.Chemscore.Rot>
2.5051

> <Gold.Chemscore.Internal.Correction>
   9.000000E+99

> <Gold.Chemscore.Hbonds>
donor molecule, donor type, donor heavy atom, donor atom, acceptor molecule, acceptor atom, score
      L1  H    13    35       P1  8028  0.99
      L1  H    16    34       P1  7957  0.96
      P1  H  6896  6908       L1     7  0.21
      P1  H  6934  6947       L1    10  0.15
      P1  H  7989  7998       L1    16  0.10

> <Gold.Chemscore.Hbond.Weighted>
-9.9929

> <Gold.Chemscore.Metal.Weighted>
-0.0000

> <Gold.Chemscore.Lipo.Weighted>
-5.2596

> <Gold.Chemscore.Internal_Hbond.Weighted>
0.0000

> <Gold.Chemscore.DEClash.Weighted>
0.0576

> <Gold.Chemscore.DEInternal.Weighted>
2.7289

> <Gold.Chemscore.Rot.Weighted>
6.4131

> <Gold.Chemscore.Internal.Correction.Weighted>
   9.000000E+99

> <Gold.Protein.RotatedTorsions>
[ 6907 6896 6895 6894 ] final -164.92 input  -60.11 | X-H torsion
[ 7974 7965 7964 7962 ] final  169.55 input  175.53 | X-H torsion
[ 8008 7997 7996 7995 ] final -146.85 input   59.86 | X-H torsion
[ 10167 10162 10161 10158 ] final   45.51 input  -65.29 | X-H torsion
[ 10718 10713 10712 10709 ] final  -75.90 input   66.30 | X-H torsion
[ 10763 10752 10751 10750 ] final  -51.79 input  -60.55 | X-H torsion
[ 11005 11000 10999 10996 ] final   98.41 input  -57.11 | X-H torsion

> <Gold.Protein.ActiveResidues>
 VAL166  LYS551  ARG553  GLY616  TRP617  ASP618  TYR619  PRO620  LYS621  CYS622 
 ASP623  PHE694  ASN695  SER759  ASP760  ASP761  ALA762  ILE779  LEU786  VAL792 
 PHE793  MET794  SER795  GLU796  ALA797  LYS798  CYS799  TRP800  GLU811  SER814 

> <Gold.Protein.RotatedAtoms>
  151.4194  133.3703  159.2753 H   0  0  0  0  0  0  0  0  0  0  0  0  # atno 6907 bound_to 6896
  150.9304  134.8721  159.7558 H   0  0  0  0  0  0  0  0  0  0  0  0  # atno 6908 bound_to 6896
  152.5025  134.4139  159.9510 H   0  0  0  0  0  0  0  0  0  0  0  0  # atno 6909 bound_to 6896
  144.7351  139.9072  143.6413 H   0  0  0  0  0  0  0  0  0  0  0  0  # atno 7974 bound_to 7965
  155.5661  140.0630  157.2817 H   0  0  0  0  0  0  0  0  0  0  0  0  # atno 8008 bound_to 7997
  154.4375  140.1877  156.0877 H   0  0  0  0  0  0  0  0  0  0  0  0  # atno 8009 bound_to 7997
  156.0411  140.3295  155.7248 H   0  0  0  0  0  0  0  0  0  0  0  0  # atno 8010 bound_to 7997
  140.3234  144.2678  150.6179 H   0  0  0  0  0  0  0  0  0  0  0  0  # atno 10167 bound_to 10162
  156.0192  130.4452  150.3113 H   0  0  0  0  0  0  0  0  0  0  0  0  # atno 10718 bound_to 10713
  154.1323  135.6518  153.4924 H   0  0  0  0  0  0  0  0  0  0  0  0  # atno 10763 bound_to 10752
  153.0191  135.5296  154.6989 H   0  0  0  0  0  0  0  0  0  0  0  0  # atno 10764 bound_to 10752
  154.6227  135.2966  155.0278 H   0  0  0  0  0  0  0  0  0  0  0  0  # atno 10765 bound_to 10752
  139.8772  134.9048  156.4453 H   0  0  0  0  0  0  0  0  0  0  0  0  # atno 11005 bound_to 11000
  146.1028  139.4025  143.0336 LP  0  0  0  0  0  0  0  0  0  0  0  0  # atno 17320 bound_to 7965
  145.7554  140.9956  143.1228 LP  0  0  0  0  0  0  0  0  0  0  0  0  # atno 17321 bound_to 7965
  140.5463  143.2214  151.8001 LP  0  0  0  0  0  0  0  0  0  0  0  0  # atno 17342 bound_to 10162
  139.4870  144.4535  151.9626 LP  0  0  0  0  0  0  0  0  0  0  0  0  # atno 17343 bound_to 10162
  157.1215  131.0248  151.3007 LP  0  0  0  0  0  0  0  0  0  0  0  0  # atno 17370 bound_to 10713
  157.4624  130.7661  149.7248 LP  0  0  0  0  0  0  0  0  0  0  0  0  # atno 17371 bound_to 10713
  140.8971  133.7806  155.9637 LP  0  0  0  0  0  0  0  0  0  0  0  0  # atno 17394 bound_to 11000
  140.8692  134.2747  157.5199 LP  0  0  0  0  0  0  0  0  0  0  0  0  # atno 17395 bound_to 11000

$$$$
