AV-unprocessed.smi:120|AV-procd|sdf|1137|dock4
  -GOLD-   2262018263D 1   1.00000     0.00000
 Structure written by MMmdl.
 45 48  0  0  0  0  0  0  0  0  1 V2000
  153.0282  142.6743  161.0261 C   0  0  0  0  0  0  0  0  0  0  0  0
  152.7147  143.1590  159.7283 O   0  0  0  0  0  0  0  0  0  0  0  0
  152.0042  142.3361  158.8805 C   0  0  0  0  0  0  0  0  0  0  0  0
  151.7066  142.8407  157.6001 C   0  0  0  0  0  0  0  0  0  0  0  0
  150.9908  142.0618  156.6743 C   0  0  0  0  0  0  0  0  0  0  0  0
  150.5649  140.7675  157.0231 C   0  0  0  0  0  0  0  0  0  0  0  0
  150.8432  140.2313  158.3015 C   0  0  0  0  0  0  0  0  0  0  0  0
  150.3948  138.8713  158.6723 C   0  0  0  0  0  0  0  0  0  0  0  0
  151.0111  138.1613  159.6089 N   0  0  0  0  0  0  0  0  0  0  0  0
  150.2630  136.9746  159.6423 O   0  0  0  0  0  0  0  0  0  0  0  0
  149.2851  137.1210  158.7129 C   0  0  0  0  0  0  0  0  0  0  0  0
  148.3102  135.9988  158.5153 C   0  0  0  0  0  0  0  0  0  0  0  0
  148.1796  135.1985  159.7229 N   0  0  0  0  0  0  0  0  0  0  0  0
  147.8036  135.8684  160.9128 C   0  0  0  0  0  0  0  0  0  0  0  0
  147.6231  137.0867  160.9476 O   0  0  0  0  0  0  0  0  0  0  0  0
  147.6342  134.9974  162.0709 C   0  0  0  0  0  0  0  0  0  0  0  0
  147.2748  135.5261  163.2529 F   0  0  0  0  0  0  0  0  0  0  0  0
  147.8239  133.6638  161.9744 C   0  0  0  0  0  0  0  0  0  0  0  0
  148.1885  133.0356  160.7951 N   0  0  0  0  0  0  0  0  0  0  0  0
  148.3642  131.5347  160.7231 C   0  0  2  0  0  0  0  0  0  0  0  0
  148.0745  130.9022  162.0894 C   0  0  0  0  0  0  0  0  0  0  0  0
  149.4589  130.8217  162.6942 C   0  0  0  0  0  0  0  0  0  0  0  0
  150.3126  130.5308  161.4657 C   0  0  0  0  0  0  0  0  0  0  0  0
  149.6933  131.2437  160.3979 O   0  0  0  0  0  0  0  0  0  0  0  0
  148.3639  133.7988  159.6202 C   0  0  0  0  0  0  0  0  0  0  0  0
  148.6472  133.2540  158.5507 O   0  0  0  0  0  0  0  0  0  0  0  0
  149.3231  138.2883  158.0707 N   0  0  0  0  0  0  0  0  0  0  0  0
  151.5647  141.0316  159.2196 C   0  0  0  0  0  0  0  0  0  0  0  0
  153.6015  143.4295  161.5634 H   0  0  0  0  0  0  0  0  0  0  0  0
  153.6379  141.7709  160.9777 H   0  0  0  0  0  0  0  0  0  0  0  0
  152.1264  142.4712  161.6054 H   0  0  0  0  0  0  0  0  0  0  0  0
  152.0317  143.8333  157.3247 H   0  0  0  0  0  0  0  0  0  0  0  0
  150.7677  142.4576  155.6944 H   0  0  0  0  0  0  0  0  0  0  0  0
  150.0137  140.1888  156.2965 H   0  0  0  0  0  0  0  0  0  0  0  0
  147.3307  136.3834  158.2293 H   0  0  0  0  0  0  0  0  0  0  0  0
  148.6268  135.3393  157.7053 H   0  0  0  0  0  0  0  0  0  0  0  0
  147.6732  133.0719  162.8650 H   0  0  0  0  0  0  0  0  0  0  0  0
  147.7061  131.1888  159.9243 H   0  0  0  0  0  0  0  0  0  0  0  0
  147.3640  131.4843  162.6779 H   0  0  0  0  0  0  0  0  0  0  0  0
  147.6678  129.9025  161.9313 H   0  0  0  0  0  0  0  0  0  0  0  0
  149.7366  131.7819  163.1307 H   0  0  0  0  0  0  0  0  0  0  0  0
  149.5464  130.0562  163.4656 H   0  0  0  0  0  0  0  0  0  0  0  0
  151.3533  130.8286  161.5963 H   0  0  0  0  0  0  0  0  0  0  0  0
  150.2903  129.4653  161.2330 H   0  0  0  0  0  0  0  0  0  0  0  0
  151.7819  140.6218  160.1939 H   0  0  0  0  0  0  0  0  0  0  0  0
  1  2  1  0  0  0  0
  1 29  1  0  0  0  0
  1 30  1  0  0  0  0
  1 31  1  0  0  0  0
  2  3  1  0  0  0  0
  3 28  1  0  0  0  0
  3  4  2  0  0  0  0
  4  5  1  0  0  0  0
  4 32  1  0  0  0  0
  5  6  2  0  0  0  0
  5 33  1  0  0  0  0
  6  7  1  0  0  0  0
  6 34  1  0  0  0  0
  7  8  1  0  0  0  0
  7 28  2  0  0  0  0
  8 27  1  0  0  0  0
  8  9  2  0  0  0  0
  9 10  1  0  0  0  0
 10 11  1  0  0  0  0
 11 12  1  0  0  0  0
 11 27  2  0  0  0  0
 12 13  1  0  0  0  0
 12 35  1  0  0  0  0
 12 36  1  0  0  0  0
 13 25  1  0  0  0  0
 13 14  1  0  0  0  0
 14 15  2  0  0  0  0
 14 16  1  0  0  0  0
 16 17  1  0  0  0  0
 16 18  2  0  0  0  0
 18 19  1  0  0  0  0
 18 37  1  0  0  0  0
 19 20  1  0  0  0  0
 19 25  1  0  0  0  0
 20 24  1  0  0  0  0
 20 21  1  0  0  0  0
 20 38  1  0  0  0  0
 21 22  1  0  0  0  0
 21 39  1  0  0  0  0
 21 40  1  0  0  0  0
 22 23  1  0  0  0  0
 22 41  1  0  0  0  0
 22 42  1  0  0  0  0
 23 24  1  0  0  0  0
 23 43  1  0  0  0  0
 23 44  1  0  0  0  0
 25 26  2  0  0  0  0
 28 45  1  0  0  0  0
M  END
> <s_m_source_file>
AV-unprocessed.smi

> <i_m_source_file_index>
120

> <i_lp_mmshare_version>
43012

> <i_f3d_flags>
0

> <s_epik_input>
W0NIM11PYzFbY0hdW2NIXVtjSF1jKFtjSF0xKS1jMm5vYyhuMilbQ0gyXW4zYyg9TyljKEYpW2NIXW4oYzM9TylbQ0BASF00W0NIMl1bQ0gyXVtDSDJdTzQ=

> <s_epik_cmdline>
J2VwaWtfcHl0aG9uJywgJy1waCcsICc3LjAnLCAnLXRuJywgJzgnLCAnLW1hJywgJzIwMCcsICctbWV0YWxfYmluZGluZycsICctaW1hZScsICc8aW5maWxlLm1hZT4nLCAnLW9tYWUnLCAnPG91dGZpbGUubWFlPic=

> <r_lp_tautomer_probability>
1

> <r_epik_Ionization_Penalty>
4.93314e-09

> <r_epik_Ionization_Penalty_Charging>
4.92654e-09

> <r_epik_Ionization_Penalty_Neutral>
6.60436e-12

> <r_epik_State_Penalty>
-0

> <r_epik_Charging_Adjusted_Penalty>
4.92654e-09

> <i_epik_Tot_Q>
0

> <i_epik_Tot_abs_Q>
0

> <r_epik_Metal_State_Penalty>
-0

> <b_epik_Metal_Only>
0

> <s_epik_Chemistry_Notes>
This compound contains an acetal/aminal-like group ( X-CH(R)-Y where X, Y are N, S, or O) that may be acid/base labile, releasing an aldehyde.

> <s_lp_Force_Field>
OPLS_2005

> <r_lp_Energy>
37.1389

> <b_lp_Chiralities_Consistent>
1

> <s_lp_Variant>
AV-unprocessed.smi:120-1

> <Gold.Version>
5.8.1

> <Gold.Id.Protein>
6NUR|6NUR_protein|mol2

> <Gold.PLP.Fitness>
51.5629

> <Gold.PLP.PLP>
-44.9121

> <Gold.PLP.part.hbond>
-3.4176

> <Gold.PLP.part.metal>
0.0000

> <Gold.PLP.part.buried>
-8.0918

> <Gold.PLP.part.nonpolar>
-35.2071

> <Gold.PLP.part.repulsive>
0.0000

> <Gold.PLP.ligand.clash>
0.0000

> <Gold.PLP.ligand.torsion>
0.6729

> <Gold.PLP.Chemscore.Hbond>
2.6361

> <Gold.PLP.Chemscore.CHOScore>
0.0000

> <Gold.PLP.Chemscore.Metal>
0.0000

> <Gold.Chemscore.Hbonds>
donor molecule, donor type, donor heavy atom, donor atom, acceptor molecule, acceptor atom, score
      P1  H  6896  6907       L1    10  0.68
      P1  H  6931  6943       L1    15  0.84
      P1  H  6934  6947       L1    15  0.94

> <Gold.PLP.Chemscore.Internal.Correction>
0.0882

> <Gold.Rescore>
     Score         DG    S(hbond)    S(metal)    S(lipo)     H(rot)  DE(clash)    DE(int)     intcor
     17.18     -19.45       2.58        0.00      89.15       1.99       0.02       2.25       ----

> <Gold.Chemscore.Fitness>
17.1831

> <Gold.Chemscore.DG>
-19.4491

> <Gold.Chemscore.ZeroCoef>
-5.4800

> <Gold.Chemscore.Hbond>
2.5829

> <Gold.Chemscore.Metal>
0.0000

> <Gold.Chemscore.Lipo>
89.1549

> <Gold.Chemscore.Internal_Hbond>
0.0000

> <Gold.Chemscore.DEClash>
0.0174

> <Gold.Chemscore.DEInternal>
2.2485

> <Gold.Chemscore.Rot>
1.9879

> <Gold.Chemscore.Internal.Correction>
   9.000000E+99

> <Gold.Chemscore.Hbonds>
donor molecule, donor type, donor heavy atom, donor atom, acceptor molecule, acceptor atom, score
      P1  H  6896  6907       L1    10  0.48
      P1  H  6931  6943       L1    15  0.76
      P1  H  6934  6947       L1    15  0.90

> <Gold.Chemscore.Hbond.Weighted>
-8.6269

> <Gold.Chemscore.Metal.Weighted>
-0.0000

> <Gold.Chemscore.Lipo.Weighted>
-10.4311

> <Gold.Chemscore.Internal_Hbond.Weighted>
0.0000

> <Gold.Chemscore.DEClash.Weighted>
0.0174

> <Gold.Chemscore.DEInternal.Weighted>
2.2485

> <Gold.Chemscore.Rot.Weighted>
5.0890

> <Gold.Chemscore.Internal.Correction.Weighted>
   9.000000E+99

> <Gold.Protein.RotatedTorsions>
[ 6907 6896 6895 6894 ] final  -47.72 input  -60.11 | X-H torsion
[ 7974 7965 7964 7962 ] final  171.67 input  175.53 | X-H torsion
[ 8008 7997 7996 7995 ] final   96.89 input   59.86 | X-H torsion
[ 10167 10162 10161 10158 ] final  -82.32 input  -65.29 | X-H torsion
[ 10718 10713 10712 10709 ] final -168.99 input   66.30 | X-H torsion
[ 10763 10752 10751 10750 ] final -150.54 input  -60.55 | X-H torsion
[ 11005 11000 10999 10996 ] final  -38.72 input  -57.11 | X-H torsion

> <Gold.Protein.ActiveResidues>
 VAL166  LYS551  ARG553  GLY616  TRP617  ASP618  TYR619  PRO620  LYS621  CYS622 
 ASP623  PHE694  ASN695  SER759  ASP760  ASP761  ALA762  ILE779  LEU786  VAL792 
 PHE793  MET794  SER795  GLU796  ALA797  LYS798  CYS799  TRP800  GLU811  SER814 

> <Gold.Protein.RotatedAtoms>
  150.8978  134.8388  159.7338 H   0  0  0  0  0  0  0  0  0  0  0  0  # atno 6907 bound_to 6896
  152.4875  134.4548  159.9596 H   0  0  0  0  0  0  0  0  0  0  0  0  # atno 6908 bound_to 6896
  151.4603  133.3555  159.2843 H   0  0  0  0  0  0  0  0  0  0  0  0  # atno 6909 bound_to 6896
  144.7288  139.9385  143.6427 H   0  0  0  0  0  0  0  0  0  0  0  0  # atno 7974 bound_to 7965
  156.0844  140.3266  155.7734 H   0  0  0  0  0  0  0  0  0  0  0  0  # atno 8008 bound_to 7997
  155.5100  140.0576  157.2942 H   0  0  0  0  0  0  0  0  0  0  0  0  # atno 8009 bound_to 7997
  154.4600  140.1962  156.0287 H   0  0  0  0  0  0  0  0  0  0  0  0  # atno 8010 bound_to 7997
  140.4331  143.2541  151.8732 H   0  0  0  0  0  0  0  0  0  0  0  0  # atno 10167 bound_to 10162
  156.7050  130.9211  151.3083 H   0  0  0  0  0  0  0  0  0  0  0  0  # atno 10718 bound_to 10713
  154.8112  135.3282  154.7299 H   0  0  0  0  0  0  0  0  0  0  0  0  # atno 10763 bound_to 10752
  153.7948  135.6908  153.4870 H   0  0  0  0  0  0  0  0  0  0  0  0  # atno 10764 bound_to 10752
  153.1893  135.4557  155.0075 H   0  0  0  0  0  0  0  0  0  0  0  0  # atno 10765 bound_to 10752
  141.0048  133.6937  156.2090 H   0  0  0  0  0  0  0  0  0  0  0  0  # atno 11005 bound_to 11000
  146.0803  139.3791  143.0468 LP  0  0  0  0  0  0  0  0  0  0  0  0  # atno 17320 bound_to 7965
  145.7849  140.9840  143.1079 LP  0  0  0  0  0  0  0  0  0  0  0  0  # atno 17321 bound_to 7965
  139.4786  144.5313  151.8662 LP  0  0  0  0  0  0  0  0  0  0  0  0  # atno 17342 bound_to 10162
  140.4405  144.1993  150.5891 LP  0  0  0  0  0  0  0  0  0  0  0  0  # atno 17343 bound_to 10162
  157.6958  130.9281  150.0641 LP  0  0  0  0  0  0  0  0  0  0  0  0  # atno 17370 bound_to 10713
  156.1702  130.3646  149.9176 LP  0  0  0  0  0  0  0  0  0  0  0  0  # atno 17371 bound_to 10713
  140.6830  134.4747  157.5589 LP  0  0  0  0  0  0  0  0  0  0  0  0  # atno 17394 bound_to 11000
  139.9058  134.8453  156.1714 LP  0  0  0  0  0  0  0  0  0  0  0  0  # atno 17395 bound_to 11000

$$$$
