AV-unprocessed.smi:3352|AV-procd|sdf|12951|dock6
  -GOLD-   2272019383D 1   1.00000     0.00000
 Structure written by MMmdl.
 38 39  0  0  0  0  0  0  0  0  1 V2000
  137.4619  136.9381  156.2560 C   0  0  0  0  0  0  0  0  0  0  0  0
  137.5398  137.9385  155.0941 C   0  0  0  0  0  0  0  0  0  0  0  0
  136.4588  137.6905  154.0320 C   0  0  0  0  0  0  0  0  0  0  0  0
  138.9124  137.9867  154.4987 C   0  0  0  0  0  0  0  0  0  0  0  0
  139.8594  137.0844  154.7688 N   0  0  0  0  0  0  0  0  0  0  0  0
  141.0438  137.3094  154.0583 C   0  0  0  0  0  0  0  0  0  0  0  0
  142.1992  136.3609  154.2043 C   0  0  0  0  0  0  0  0  0  0  0  0
  141.8803  135.0573  153.4713 C   0  0  0  0  0  0  0  0  0  0  0  0
  140.8589  134.4271  153.7442 O   0  0  0  0  0  0  0  0  0  0  0  0
  142.7851  134.6486  152.5687 N   0  0  0  0  0  0  0  0  0  0  0  0
  142.7848  133.3512  151.9056 C   0  0  0  0  0  0  0  0  0  0  0  0
  144.2022  132.7537  151.8443 C   0  0  2  0  0  0  0  0  0  0  0  0
  145.3215  133.7749  151.6307 C   0  0  0  0  0  0  0  0  0  0  0  0
  146.4222  132.9666  150.9617 C   0  0  0  0  0  0  0  0  0  0  0  0
  145.7322  131.6641  150.5444 C   0  0  0  0  0  0  0  0  0  0  0  0
  144.3425  131.9050  150.7175 O   0  0  0  0  0  0  0  0  0  0  0  0
  140.9864  138.4196  153.2527 C   0  0  0  0  0  0  0  0  0  0  0  0
  139.4339  139.2047  153.3369 S   0  0  0  0  0  0  0  0  0  0  0  0
  138.1901  137.1801  157.0307 H   0  0  0  0  0  0  0  0  0  0  0  0
  137.6599  135.9204  155.9185 H   0  0  0  0  0  0  0  0  0  0  0  0
  136.4744  136.9488  156.7179 H   0  0  0  0  0  0  0  0  0  0  0  0
  137.3423  138.9252  155.5163 H   0  0  0  0  0  0  0  0  0  0  0  0
  136.4941  138.4513  153.2515 H   0  0  0  0  0  0  0  0  0  0  0  0
  135.4625  137.7177  154.4738 H   0  0  0  0  0  0  0  0  0  0  0  0
  136.5822  136.7174  153.5556 H   0  0  0  0  0  0  0  0  0  0  0  0
  143.1108  136.7964  153.7929 H   0  0  0  0  0  0  0  0  0  0  0  0
  142.4025  136.1478  155.2547 H   0  0  0  0  0  0  0  0  0  0  0  0
  143.5886  135.2392  152.4081 H   0  0  0  0  0  0  0  0  0  0  0  0
  142.1009  132.6656  152.4083 H   0  0  0  0  0  0  0  0  0  0  0  0
  142.3980  133.4917  150.8960 H   0  0  0  0  0  0  0  0  0  0  0  0
  144.4046  132.1704  152.7448 H   0  0  0  0  0  0  0  0  0  0  0  0
  144.9887  134.5658  150.9571 H   0  0  0  0  0  0  0  0  0  0  0  0
  145.6451  134.2420  152.5618 H   0  0  0  0  0  0  0  0  0  0  0  0
  146.8257  133.5015  150.1013 H   0  0  0  0  0  0  0  0  0  0  0  0
  147.2457  132.7647  151.6474 H   0  0  0  0  0  0  0  0  0  0  0  0
  145.9576  131.3813  149.5158 H   0  0  0  0  0  0  0  0  0  0  0  0
  146.0363  130.8440  151.1965 H   0  0  0  0  0  0  0  0  0  0  0  0
  141.7556  138.8109  152.6035 H   0  0  0  0  0  0  0  0  0  0  0  0
  1  2  1  0  0  0  0
  1 19  1  0  0  0  0
  1 20  1  0  0  0  0
  1 21  1  0  0  0  0
  2  3  1  0  0  0  0
  2  4  1  0  0  0  0
  2 22  1  0  0  0  0
  3 23  1  0  0  0  0
  3 24  1  0  0  0  0
  3 25  1  0  0  0  0
  4 18  1  0  0  0  0
  4  5  2  0  0  0  0
  5  6  1  0  0  0  0
  6  7  1  0  0  0  0
  6 17  2  0  0  0  0
  7  8  1  0  0  0  0
  7 26  1  0  0  0  0
  7 27  1  0  0  0  0
  8  9  2  0  0  0  0
  8 10  1  0  0  0  0
 10 11  1  0  0  0  0
 10 28  1  0  0  0  0
 11 12  1  0  0  0  0
 11 29  1  0  0  0  0
 11 30  1  0  0  0  0
 12 16  1  0  0  0  0
 12 13  1  0  0  0  0
 12 31  1  0  0  0  0
 13 14  1  0  0  0  0
 13 32  1  0  0  0  0
 13 33  1  0  0  0  0
 14 15  1  0  0  0  0
 14 34  1  0  0  0  0
 14 35  1  0  0  0  0
 15 16  1  0  0  0  0
 15 36  1  0  0  0  0
 15 37  1  0  0  0  0
 17 18  1  0  0  0  0
 17 38  1  0  0  0  0
M  END
> <s_m_source_file>
AV-unprocessed.smi

> <i_m_source_file_index>
3352

> <i_lp_mmshare_version>
43012

> <i_f3d_flags>
0

> <s_epik_input>
W0NIM11bQ0hdKFtDSDNdKWMxbmMoW2NIXXMxKVtDSDJdQyg9TylbTkhdW0NIMl1bQ0BASF0yW0NIMl1bQ0gyXVtDSDJdTzI=

> <s_epik_cmdline>
J2VwaWtfcHl0aG9uJywgJy1waCcsICc3LjAnLCAnLXRuJywgJzgnLCAnLW1hJywgJzIwMCcsICctbWV0YWxfYmluZGluZycsICctaW1hZScsICc8aW5maWxlLm1hZT4nLCAnLW9tYWUnLCAnPG91dGZpbGUubWFlPic=

> <r_lp_tautomer_probability>
1

> <r_epik_Ionization_Penalty>
4.66014e-05

> <r_epik_Ionization_Penalty_Charging>
0

> <r_epik_Ionization_Penalty_Neutral>
4.66014e-05

> <r_epik_State_Penalty>
-0

> <r_epik_Charging_Adjusted_Penalty>
0

> <i_epik_Tot_Q>
0

> <i_epik_Tot_abs_Q>
0

> <r_epik_Metal_State_Penalty>
-0

> <b_epik_Metal_Only>
0

> <s_lp_Force_Field>
OPLS_2005

> <r_lp_Energy>
7.75536

> <b_lp_Chiralities_Consistent>
1

> <s_lp_Variant>
AV-unprocessed.smi:3352-1

> <Gold.Version>
5.8.1

> <Gold.Id.Protein>
6NUR|6NUR_protein|mol2

> <Gold.PLP.Fitness>
39.5082

> <Gold.PLP.PLP>
-33.7106

> <Gold.PLP.part.hbond>
-2.0000

> <Gold.PLP.part.metal>
0.0000

> <Gold.PLP.part.buried>
-4.2515

> <Gold.PLP.part.nonpolar>
-27.7614

> <Gold.PLP.part.repulsive>
0.4061

> <Gold.PLP.ligand.clash>
0.0000

> <Gold.PLP.ligand.torsion>
0.7523

> <Gold.PLP.Chemscore.Hbond>
0.9809

> <Gold.PLP.Chemscore.CHOScore>
1.4256

> <Gold.PLP.Chemscore.Metal>
0.0000

> <Gold.Chemscore.Hbonds>
donor molecule, donor type, donor heavy atom, donor atom, acceptor molecule, acceptor atom, score
      P1  H 10995 11001       L1     9  0.05
      P1  H 11000 11005       L1     9  1.00
      L1  C    17    38       P1 10160  0.25
      L1  C    17    38       P1 10175  1.00

> <Gold.PLP.Chemscore.Internal.Correction>
0.0828

> <Gold.Rescore>
     Score         DG    S(hbond)    S(metal)    S(lipo)     H(rot)  DE(clash)    DE(int)     intcor
     12.72     -14.55       1.04        0.00      81.88       1.55       0.14       1.70       ----

> <Gold.Chemscore.Fitness>
12.7156

> <Gold.Chemscore.DG>
-14.5523

> <Gold.Chemscore.ZeroCoef>
-5.4800

> <Gold.Chemscore.Hbond>
1.0376

> <Gold.Chemscore.Metal>
0.0000

> <Gold.Chemscore.Lipo>
81.8750

> <Gold.Chemscore.Internal_Hbond>
0.0000

> <Gold.Chemscore.DEClash>
0.1406

> <Gold.Chemscore.DEInternal>
1.6960

> <Gold.Chemscore.Rot>
1.5518

> <Gold.Chemscore.Internal.Correction>
   9.000000E+99

> <Gold.Chemscore.Hbonds>
donor molecule, donor type, donor heavy atom, donor atom, acceptor molecule, acceptor atom, score
      P1  H 10995 11001       L1     9  0.06
      P1  H 11000 11005       L1     9  0.89

> <Gold.Chemscore.Hbond.Weighted>
-3.4655

> <Gold.Chemscore.Metal.Weighted>
-0.0000

> <Gold.Chemscore.Lipo.Weighted>
-9.5794

> <Gold.Chemscore.Internal_Hbond.Weighted>
0.0000

> <Gold.Chemscore.DEClash.Weighted>
0.1406

> <Gold.Chemscore.DEInternal.Weighted>
1.6960

> <Gold.Chemscore.Rot.Weighted>
3.9727

> <Gold.Chemscore.Internal.Correction.Weighted>
   9.000000E+99

> <Gold.Protein.RotatedTorsions>
[ 6907 6896 6895 6894 ] final   51.43 input  -60.11 | X-H torsion
[ 7974 7965 7964 7962 ] final  141.43 input  175.53 | X-H torsion
[ 8008 7997 7996 7995 ] final  142.38 input   59.86 | X-H torsion
[ 10167 10162 10161 10158 ] final -175.99 input  -65.29 | X-H torsion
[ 10718 10713 10712 10709 ] final -120.23 input   66.30 | X-H torsion
[ 10763 10752 10751 10750 ] final    7.42 input  -60.55 | X-H torsion
[ 11005 11000 10999 10996 ] final   15.78 input  -57.11 | X-H torsion

> <Gold.Protein.ActiveResidues>
 VAL166  LYS551  ARG553  GLY616  TRP617  ASP618  TYR619  PRO620  LYS621  CYS622 
 ASP623  PHE694  ASN695  SER759  ASP760  ASP761  ALA762  ILE779  LEU786  VAL792 
 PHE793  MET794  SER795  GLU796  ALA797  LYS798  CYS799  TRP800  GLU811  SER814 

> <Gold.Protein.RotatedAtoms>
  152.3126  134.7479  160.0332 H   0  0  0  0  0  0  0  0  0  0  0  0  # atno 6907 bound_to 6896
  151.7955  133.3358  159.3519 H   0  0  0  0  0  0  0  0  0  0  0  0  # atno 6908 bound_to 6896
  150.7328  134.5733  159.5946 H   0  0  0  0  0  0  0  0  0  0  0  0  # atno 6909 bound_to 6896
  144.9097  139.5310  143.5714 H   0  0  0  0  0  0  0  0  0  0  0  0  # atno 7974 bound_to 7965
  156.2950  140.2290  156.4719 H   0  0  0  0  0  0  0  0  0  0  0  0  # atno 8008 bound_to 7997
  154.7928  140.0453  157.1235 H   0  0  0  0  0  0  0  0  0  0  0  0  # atno 8009 bound_to 7997
  154.9625  140.3056  155.5028 H   0  0  0  0  0  0  0  0  0  0  0  0  # atno 8010 bound_to 7997
  139.5552  144.2006  152.1147 H   0  0  0  0  0  0  0  0  0  0  0  0  # atno 10167 bound_to 10162
  156.1242  130.6346  150.9515 H   0  0  0  0  0  0  0  0  0  0  0  0  # atno 10718 bound_to 10713
  153.2364  135.6898  153.7831 H   0  0  0  0  0  0  0  0  0  0  0  0  # atno 10763 bound_to 10752
  153.6977  135.3302  155.3218 H   0  0  0  0  0  0  0  0  0  0  0  0  # atno 10764 bound_to 10752
  154.8337  135.4560  154.1270 H   0  0  0  0  0  0  0  0  0  0  0  0  # atno 10765 bound_to 10752
  140.4545  134.1190  155.7707 H   0  0  0  0  0  0  0  0  0  0  0  0  # atno 11005 bound_to 11000
  146.3152  139.7893  142.8989 LP  0  0  0  0  0  0  0  0  0  0  0  0  # atno 17320 bound_to 7965
  145.3475  141.0301  143.3357 LP  0  0  0  0  0  0  0  0  0  0  0  0  # atno 17321 bound_to 7965
  140.1509  144.5115  150.6688 LP  0  0  0  0  0  0  0  0  0  0  0  0  # atno 17342 bound_to 10162
  140.6824  143.2333  151.5350 LP  0  0  0  0  0  0  0  0  0  0  0  0  # atno 17343 bound_to 10162
  157.6424  131.0908  150.8223 LP  0  0  0  0  0  0  0  0  0  0  0  0  # atno 17370 bound_to 10713
  156.8316  130.5017  149.5331 LP  0  0  0  0  0  0  0  0  0  0  0  0  # atno 17371 bound_to 10713
  141.1649  133.8722  157.1743 LP  0  0  0  0  0  0  0  0  0  0  0  0  # atno 17394 bound_to 11000
  139.9985  135.0037  157.0137 LP  0  0  0  0  0  0  0  0  0  0  0  0  # atno 17395 bound_to 11000

$$$$
