AV-unprocessed.smi:2677|AV-procd|sdf|10365|dock2
  -GOLD-   2272014393D 1   1.00000     0.00000
 Structure written by MMmdl.
 40 41  0  0  0  0  0  0  0  0  1 V2000
  151.9039  145.0656  158.5524 C   0  0  0  0  0  0  0  0  0  0  0  0
  151.9278  144.9077  160.0765 C   0  0  0  0  0  0  0  0  0  0  0  0
  152.5542  143.6134  160.5040 C   0  0  0  0  0  0  0  0  0  0  0  0
  152.8580  142.6504  159.5381 N   0  0  0  0  0  0  0  0  0  0  0  0
  153.4082  141.5510  160.0581 C   0  0  0  0  0  0  0  0  0  0  0  0
  153.7601  140.3421  159.2508 C   0  0  0  0  0  0  0  0  0  0  0  0
  152.5485  139.4479  158.9232 C   0  0  0  0  0  0  0  0  0  0  0  0
  151.7218  140.0112  157.8607 N   0  0  0  0  0  0  0  0  0  0  0  0
  151.8834  139.7869  156.5462 C   0  0  0  0  0  0  0  0  0  0  0  0
  152.6940  138.9647  156.1175 O   0  0  0  0  0  0  0  0  0  0  0  0
  151.0744  140.5246  155.7440 N   0  0  0  0  0  0  0  0  0  0  0  0
  150.2940  141.7053  156.1497 C   0  0  0  0  0  0  0  0  0  0  0  0
  148.8252  141.2952  156.3404 C   0  0  0  0  0  0  0  0  0  0  0  0
  148.1091  140.7048  154.7748 S   0  0  0  0  0  0  0  0  0  0  0  0
  149.3924  139.5106  154.2825 C   0  0  0  0  0  0  0  0  0  0  0  0
  150.7945  140.1393  154.3557 C   0  0  0  0  0  0  0  0  0  0  0  0
  153.5890  141.6312  161.8041 S   0  0  0  0  0  0  0  0  0  0  0  0
  152.8923  143.2311  161.7815 C   0  0  0  0  0  0  0  0  0  0  0  0
  152.7193  144.0058  163.0458 C   0  0  0  0  0  0  0  0  0  0  0  0
  151.4457  146.0126  158.2666 H   0  0  0  0  0  0  0  0  0  0  0  0
  151.3338  144.2642  158.0816 H   0  0  0  0  0  0  0  0  0  0  0  0
  152.9133  145.0459  158.1407 H   0  0  0  0  0  0  0  0  0  0  0  0
  152.4605  145.7509  160.5171 H   0  0  0  0  0  0  0  0  0  0  0  0
  150.9081  144.9706  160.4586 H   0  0  0  0  0  0  0  0  0  0  0  0
  154.2364  140.6710  158.3263 H   0  0  0  0  0  0  0  0  0  0  0  0
  154.5099  139.7655  159.7928 H   0  0  0  0  0  0  0  0  0  0  0  0
  152.8741  138.4383  158.6680 H   0  0  0  0  0  0  0  0  0  0  0  0
  151.9194  139.3536  159.8087 H   0  0  0  0  0  0  0  0  0  0  0  0
  151.0223  140.6837  158.1393 H   0  0  0  0  0  0  0  0  0  0  0  0
  150.6736  142.1787  157.0558 H   0  0  0  0  0  0  0  0  0  0  0  0
  150.3671  142.4781  155.3832 H   0  0  0  0  0  0  0  0  0  0  0  0
  148.7431  140.5083  157.0908 H   0  0  0  0  0  0  0  0  0  0  0  0
  148.2371  142.1408  156.6970 H   0  0  0  0  0  0  0  0  0  0  0  0
  149.3338  138.6373  154.9333 H   0  0  0  0  0  0  0  0  0  0  0  0
  149.1813  139.1686  153.2692 H   0  0  0  0  0  0  0  0  0  0  0  0
  150.8528  141.0116  153.7032 H   0  0  0  0  0  0  0  0  0  0  0  0
  151.5320  139.4366  153.9653 H   0  0  0  0  0  0  0  0  0  0  0  0
  151.6720  144.0213  163.3474 H   0  0  0  0  0  0  0  0  0  0  0  0
  153.0504  145.0364  162.9184 H   0  0  0  0  0  0  0  0  0  0  0  0
  153.2980  143.5678  163.8592 H   0  0  0  0  0  0  0  0  0  0  0  0
  1  2  1  0  0  0  0
  1 20  1  0  0  0  0
  1 21  1  0  0  0  0
  1 22  1  0  0  0  0
  2  3  1  0  0  0  0
  2 23  1  0  0  0  0
  2 24  1  0  0  0  0
  3 18  2  0  0  0  0
  3  4  1  0  0  0  0
  4  5  2  0  0  0  0
  5  6  1  0  0  0  0
  5 17  1  0  0  0  0
  6  7  1  0  0  0  0
  6 25  1  0  0  0  0
  6 26  1  0  0  0  0
  7  8  1  0  0  0  0
  7 27  1  0  0  0  0
  7 28  1  0  0  0  0
  8  9  1  0  0  0  0
  8 29  1  0  0  0  0
  9 10  2  0  0  0  0
  9 11  1  0  0  0  0
 11 16  1  0  0  0  0
 11 12  1  0  0  0  0
 12 13  1  0  0  0  0
 12 30  1  0  0  0  0
 12 31  1  0  0  0  0
 13 14  1  0  0  0  0
 13 32  1  0  0  0  0
 13 33  1  0  0  0  0
 14 15  1  0  0  0  0
 15 16  1  0  0  0  0
 15 34  1  0  0  0  0
 15 35  1  0  0  0  0
 16 36  1  0  0  0  0
 16 37  1  0  0  0  0
 17 18  1  0  0  0  0
 18 19  1  0  0  0  0
 19 38  1  0  0  0  0
 19 39  1  0  0  0  0
 19 40  1  0  0  0  0
M  END
> <s_m_source_file>
AV-unprocessed.smi

> <i_m_source_file_index>
2677

> <i_lp_mmshare_version>
43012

> <i_f3d_flags>
0

> <s_epik_input>
W0NIM11bQ0gyXWMxbmMoc2MxW0NIM10pW0NIMl1bQ0gyXVtOSF1DKD1PKU4yW0NIMl1bQ0gyXVNbQ0gyXVtDSDJdMg==

> <s_epik_cmdline>
J2VwaWtfcHl0aG9uJywgJy1waCcsICc3LjAnLCAnLXRuJywgJzgnLCAnLW1hJywgJzIwMCcsICctbWV0YWxfYmluZGluZycsICctaW1hZScsICc8aW5maWxlLm1hZT4nLCAnLW9tYWUnLCAnPG91dGZpbGUubWFlPic=

> <r_epik_Ionization_Penalty>
0.00440659

> <r_epik_Ionization_Penalty_Charging>
0

> <r_epik_Ionization_Penalty_Neutral>
0.00440659

> <r_epik_State_Penalty>
0.00314229

> <r_epik_Charging_Adjusted_Penalty>
0.00314229

> <i_epik_Tot_Q>
0

> <i_epik_Tot_abs_Q>
0

> <r_epik_Metal_State_Penalty>
-0

> <b_epik_Metal_Only>
0

> <s_lp_Force_Field>
OPLS_2005

> <r_lp_Energy>
14.3594

> <b_lp_Chiralities_Consistent>
1

> <s_lp_Variant>
AV-unprocessed.smi:2677-1

> <Gold.Version>
5.8.1

> <Gold.Id.Protein>
6NUR|6NUR_protein|mol2

> <Gold.PLP.Fitness>
44.0739

> <Gold.PLP.PLP>
-42.5059

> <Gold.PLP.part.hbond>
-1.0000

> <Gold.PLP.part.metal>
0.0000

> <Gold.PLP.part.buried>
0.1650

> <Gold.PLP.part.nonpolar>
-41.3255

> <Gold.PLP.part.repulsive>
0.0794

> <Gold.PLP.ligand.clash>
0.0000

> <Gold.PLP.ligand.torsion>
0.7401

> <Gold.PLP.Chemscore.Hbond>
1.0000

> <Gold.PLP.Chemscore.CHOScore>
0.0000

> <Gold.PLP.Chemscore.Metal>
0.0000

> <Gold.Chemscore.Hbonds>
donor molecule, donor type, donor heavy atom, donor atom, acceptor molecule, acceptor atom, score
      P1  H  7997  8008       L1    10  0.85

> <Gold.PLP.Chemscore.Internal.Correction>
0.0481

> <Gold.Rescore>
     Score         DG    S(hbond)    S(metal)    S(lipo)     H(rot)  DE(clash)    DE(int)     intcor
     16.41     -19.69       0.82        0.00     128.68       1.40       2.52       0.76       ----

> <Gold.Chemscore.Fitness>
16.4094

> <Gold.Chemscore.DG>
-19.6908

> <Gold.Chemscore.ZeroCoef>
-5.4800

> <Gold.Chemscore.Hbond>
0.8202

> <Gold.Chemscore.Metal>
0.0000

> <Gold.Chemscore.Lipo>
128.6779

> <Gold.Chemscore.Internal_Hbond>
0.0000

> <Gold.Chemscore.DEClash>
2.5199

> <Gold.Chemscore.DEInternal>
0.7616

> <Gold.Chemscore.Rot>
1.4000

> <Gold.Chemscore.Internal.Correction>
   9.000000E+99

> <Gold.Chemscore.Hbonds>
donor molecule, donor type, donor heavy atom, donor atom, acceptor molecule, acceptor atom, score
      P1  H  7997  8008       L1    10  0.14

> <Gold.Chemscore.Hbond.Weighted>
-2.7394

> <Gold.Chemscore.Metal.Weighted>
-0.0000

> <Gold.Chemscore.Lipo.Weighted>
-15.0553

> <Gold.Chemscore.Internal_Hbond.Weighted>
0.0000

> <Gold.Chemscore.DEClash.Weighted>
2.5199

> <Gold.Chemscore.DEInternal.Weighted>
0.7616

> <Gold.Chemscore.Rot.Weighted>
3.5839

> <Gold.Chemscore.Internal.Correction.Weighted>
   9.000000E+99

> <Gold.Protein.RotatedTorsions>
[ 6907 6896 6895 6894 ] final  -21.78 input  -60.11 | X-H torsion
[ 7974 7965 7964 7962 ] final  -12.91 input  175.53 | X-H torsion
[ 8008 7997 7996 7995 ] final  -41.93 input   59.86 | X-H torsion
[ 10167 10162 10161 10158 ] final -174.81 input  -65.29 | X-H torsion
[ 10718 10713 10712 10709 ] final -163.00 input   66.30 | X-H torsion
[ 10763 10752 10751 10750 ] final -140.34 input  -60.55 | X-H torsion
[ 11005 11000 10999 10996 ] final  -50.01 input  -57.11 | X-H torsion

> <Gold.Protein.ActiveResidues>
 VAL166  LYS551  ARG553  GLY616  TRP617  ASP618  TYR619  PRO620  LYS621  CYS622 
 ASP623  PHE694  ASN695  SER759  ASP760  ASP761  ALA762  ILE779  LEU786  VAL792 
 PHE793  MET794  SER795  GLU796  ALA797  LYS798  CYS799  TRP800  GLU811  SER814 

> <Gold.Protein.RotatedAtoms>
  151.2283  135.0544  159.8976 H   0  0  0  0  0  0  0  0  0  0  0  0  # atno 6907 bound_to 6896
  152.5408  134.0565  159.8143 H   0  0  0  0  0  0  0  0  0  0  0  0  # atno 6908 bound_to 6896
  151.0741  133.5394  159.2656 H   0  0  0  0  0  0  0  0  0  0  0  0  # atno 6909 bound_to 6896
  146.2134  140.3127  142.8384 H   0  0  0  0  0  0  0  0  0  0  0  0  # atno 7974 bound_to 7965
  154.4001  140.1486  156.3271 H   0  0  0  0  0  0  0  0  0  0  0  0  # atno 8008 bound_to 7997
  155.8476  140.3459  155.5651 H   0  0  0  0  0  0  0  0  0  0  0  0  # atno 8009 bound_to 7997
  155.8019  140.0871  157.1943 H   0  0  0  0  0  0  0  0  0  0  0  0  # atno 8010 bound_to 7997
  139.5614  144.1860  152.1245 H   0  0  0  0  0  0  0  0  0  0  0  0  # atno 10167 bound_to 10162
  156.6185  130.8880  151.2952 H   0  0  0  0  0  0  0  0  0  0  0  0  # atno 10718 bound_to 10713
  154.8582  135.3556  154.5691 H   0  0  0  0  0  0  0  0  0  0  0  0  # atno 10763 bound_to 10752
  153.6304  135.7002  153.5282 H   0  0  0  0  0  0  0  0  0  0  0  0  # atno 10764 bound_to 10752
  153.3054  135.4194  155.1249 H   0  0  0  0  0  0  0  0  0  0  0  0  # atno 10765 bound_to 10752
  141.0792  133.6658  156.3668 H   0  0  0  0  0  0  0  0  0  0  0  0  # atno 11005 bound_to 11000
  144.8977  140.7603  143.5887 LP  0  0  0  0  0  0  0  0  0  0  0  0  # atno 17320 bound_to 7965
  145.3052  139.1837  143.4668 LP  0  0  0  0  0  0  0  0  0  0  0  0  # atno 17321 bound_to 7965
  140.1375  144.5233  150.6764 LP  0  0  0  0  0  0  0  0  0  0  0  0  # atno 17342 bound_to 10162
  140.6894  143.2367  151.5172 LP  0  0  0  0  0  0  0  0  0  0  0  0  # atno 17343 bound_to 10162
  157.7234  130.9589  150.1533 LP  0  0  0  0  0  0  0  0  0  0  0  0  # atno 17370 bound_to 10713
  156.2331  130.3684  149.8422 LP  0  0  0  0  0  0  0  0  0  0  0  0  # atno 17371 bound_to 10713
  140.5507  134.6030  157.5407 LP  0  0  0  0  0  0  0  0  0  0  0  0  # atno 17394 bound_to 11000
  139.9605  134.7461  156.0248 LP  0  0  0  0  0  0  0  0  0  0  0  0  # atno 17395 bound_to 11000

$$$$
