AV-unprocessed.smi:3350|AV-procd|sdf|12940|dock3
  -GOLD-   2272019373D 1   1.00000     0.00000
 Structure written by MMmdl.
 41 42  0  0  0  0  0  0  0  0  1 V2000
  151.5771  136.1956  155.7055 C   0  0  0  0  0  0  0  0  0  0  0  0
  150.4221  137.0190  155.1141 C   0  0  1  0  0  0  0  0  0  0  0  0
  150.9399  138.2687  154.3758 C   0  0  0  0  0  0  0  0  0  0  0  0
  150.0569  139.4110  154.5357 N   0  0  0  0  0  0  0  0  0  0  0  0
  148.6826  139.4504  154.4304 C   0  0  0  0  0  0  0  0  0  0  0  0
  148.2950  140.7409  154.6517 C   0  0  0  0  0  0  0  0  0  0  0  0
  149.5196  141.4260  154.8871 C   0  0  0  0  0  0  0  0  0  0  0  0
  150.5725  140.6275  154.8180 N   0  0  0  0  0  0  0  0  0  0  0  0
  149.6327  136.1904  154.2055 N   0  0  0  0  0  0  0  0  0  0  0  0
  149.1001  134.9986  154.5061 C   0  0  0  0  0  0  0  0  0  0  0  0
  149.2456  134.4288  155.5877 O   0  0  0  0  0  0  0  0  0  0  0  0
  148.3865  134.5063  153.4846 N   0  0  0  0  0  0  0  0  0  0  0  0
  147.6603  133.2391  153.4908 C   0  0  2  0  0  0  0  0  0  0  0  0
  148.6557  132.0706  153.5689 C   0  0  0  0  0  0  0  0  0  0  0  0
  146.7661  133.1507  152.2399 C   0  0  2  0  0  0  0  0  0  0  0  0
  145.6790  134.2244  152.1532 C   0  0  0  0  0  0  0  0  0  0  0  0
  144.6052  133.5803  151.2897 C   0  0  0  0  0  0  0  0  0  0  0  0
  144.9892  132.0984  151.2574 C   0  0  0  0  0  0  0  0  0  0  0  0
  146.0001  131.9565  152.2451 O   0  0  0  0  0  0  0  0  0  0  0  0
  152.1677  136.7928  156.4007 H   0  0  0  0  0  0  0  0  0  0  0  0
  152.2468  135.8333  154.9248 H   0  0  0  0  0  0  0  0  0  0  0  0
  151.2056  135.3292  156.2538 H   0  0  0  0  0  0  0  0  0  0  0  0
  149.7878  137.3536  155.9374 H   0  0  0  0  0  0  0  0  0  0  0  0
  151.9204  138.5502  154.7618 H   0  0  0  0  0  0  0  0  0  0  0  0
  151.0729  138.0635  153.3121 H   0  0  0  0  0  0  0  0  0  0  0  0
  148.1023  138.5671  154.2073 H   0  0  0  0  0  0  0  0  0  0  0  0
  147.2899  141.1354  154.6455 H   0  0  0  0  0  0  0  0  0  0  0  0
  149.6730  142.4727  155.1047 H   0  0  0  0  0  0  0  0  0  0  0  0
  149.4506  136.5725  153.2888 H   0  0  0  0  0  0  0  0  0  0  0  0
  148.3280  135.0559  152.6400 H   0  0  0  0  0  0  0  0  0  0  0  0
  147.0132  133.2006  154.3693 H   0  0  0  0  0  0  0  0  0  0  0  0
  148.1360  131.1125  153.5953 H   0  0  0  0  0  0  0  0  0  0  0  0
  149.2688  132.1339  154.4685 H   0  0  0  0  0  0  0  0  0  0  0  0
  149.3258  132.0618  152.7085 H   0  0  0  0  0  0  0  0  0  0  0  0
  147.3767  133.1729  151.3348 H   0  0  0  0  0  0  0  0  0  0  0  0
  145.2730  134.4305  153.1448 H   0  0  0  0  0  0  0  0  0  0  0  0
  146.0476  135.1637  151.7406 H   0  0  0  0  0  0  0  0  0  0  0  0
  143.6168  133.7299  151.7255 H   0  0  0  0  0  0  0  0  0  0  0  0
  144.5953  133.9980  150.2823 H   0  0  0  0  0  0  0  0  0  0  0  0
  144.1438  131.4410  151.4616 H   0  0  0  0  0  0  0  0  0  0  0  0
  145.4010  131.8304  150.2833 H   0  0  0  0  0  0  0  0  0  0  0  0
  1  2  1  0  0  0  0
  1 20  1  0  0  0  0
  1 21  1  0  0  0  0
  1 22  1  0  0  0  0
  2  3  1  0  0  0  0
  2  9  1  0  0  0  0
  2 23  1  0  0  0  0
  3  4  1  0  0  0  0
  3 24  1  0  0  0  0
  3 25  1  0  0  0  0
  4  8  1  0  0  0  0
  4  5  1  0  0  0  0
  5  6  2  0  0  0  0
  5 26  1  0  0  0  0
  6  7  1  0  0  0  0
  6 27  1  0  0  0  0
  7  8  2  0  0  0  0
  7 28  1  0  0  0  0
  9 10  1  0  0  0  0
  9 29  1  0  0  0  0
 10 11  2  0  0  0  0
 10 12  1  0  0  0  0
 12 13  1  0  0  0  0
 12 30  1  0  0  0  0
 13 14  1  0  0  0  0
 13 15  1  0  0  0  0
 13 31  1  0  0  0  0
 14 32  1  0  0  0  0
 14 33  1  0  0  0  0
 14 34  1  0  0  0  0
 15 19  1  0  0  0  0
 15 16  1  0  0  0  0
 15 35  1  0  0  0  0
 16 17  1  0  0  0  0
 16 36  1  0  0  0  0
 16 37  1  0  0  0  0
 17 18  1  0  0  0  0
 17 38  1  0  0  0  0
 17 39  1  0  0  0  0
 18 19  1  0  0  0  0
 18 40  1  0  0  0  0
 18 41  1  0  0  0  0
M  END
> <s_m_source_file>
AV-unprocessed.smi

> <i_m_source_file_index>
3350

> <i_lp_mmshare_version>
43012

> <i_f3d_flags>
0

> <s_epik_input>
bjFbY0hdW2NIXVtjSF1uMVtDSDJdW0NAQEhdKFtDSDNdKVtOSF1DKD1PKVtOSF1bQ0BIXShbQ0gzXSlbQ0BASF0yW0NIMl1bQ0gyXVtDSDJdTzI=

> <s_epik_cmdline>
J2VwaWtfcHl0aG9uJywgJy1waCcsICc3LjAnLCAnLXRuJywgJzgnLCAnLW1hJywgJzIwMCcsICctbWV0YWxfYmluZGluZycsICctaW1hZScsICc8aW5maWxlLm1hZT4nLCAnLW9tYWUnLCAnPG91dGZpbGUubWFlPic=

> <r_lp_tautomer_probability>
1

> <r_epik_Ionization_Penalty>
6.42349e-05

> <r_epik_Ionization_Penalty_Charging>
0

> <r_epik_Ionization_Penalty_Neutral>
6.42349e-05

> <r_epik_State_Penalty>
-0

> <r_epik_Charging_Adjusted_Penalty>
0

> <i_epik_Tot_Q>
0

> <i_epik_Tot_abs_Q>
0

> <r_epik_Metal_State_Penalty>
-0

> <b_epik_Metal_Only>
0

> <s_lp_Force_Field>
OPLS_2005

> <r_lp_Energy>
16.0006

> <b_lp_Chiralities_Consistent>
1

> <s_lp_Variant>
AV-unprocessed.smi:3350-2

> <Gold.Version>
5.8.1

> <Gold.Id.Protein>
6NUR|6NUR_protein|mol2

> <Gold.PLP.Fitness>
43.2321

> <Gold.PLP.PLP>
-32.7958

> <Gold.PLP.part.hbond>
-3.0570

> <Gold.PLP.part.metal>
0.0000

> <Gold.PLP.part.buried>
-2.1069

> <Gold.PLP.part.nonpolar>
-27.3586

> <Gold.PLP.part.repulsive>
0.2793

> <Gold.PLP.ligand.clash>
0.0000

> <Gold.PLP.ligand.torsion>
0.7674

> <Gold.PLP.Chemscore.Hbond>
2.9680

> <Gold.PLP.Chemscore.CHOScore>
1.0000

> <Gold.PLP.Chemscore.Metal>
0.0000

> <Gold.Chemscore.Hbonds>
donor molecule, donor type, donor heavy atom, donor atom, acceptor molecule, acceptor atom, score
      L1  H     9    29       P1  7948  0.86
      L1  H    12    30       P1  7948  0.84
      P1  H  7989  7998       L1     8  0.94
      L1  C     7    28       P1  8028  1.00

> <Gold.PLP.Chemscore.Internal.Correction>
0.0671

> <Gold.Rescore>
     Score         DG    S(hbond)    S(metal)    S(lipo)     H(rot)  DE(clash)    DE(int)     intcor
     14.66     -16.76       2.43        0.00      66.92       1.82       0.01       2.08       ----

> <Gold.Chemscore.Fitness>
14.6634

> <Gold.Chemscore.DG>
-16.7556

> <Gold.Chemscore.ZeroCoef>
-5.4800

> <Gold.Chemscore.Hbond>
2.4263

> <Gold.Chemscore.Metal>
0.0000

> <Gold.Chemscore.Lipo>
66.9225

> <Gold.Chemscore.Internal_Hbond>
0.0000

> <Gold.Chemscore.DEClash>
0.0095

> <Gold.Chemscore.DEInternal>
2.0827

> <Gold.Chemscore.Rot>
1.8197

> <Gold.Chemscore.Internal.Correction>
   9.000000E+99

> <Gold.Chemscore.Hbonds>
donor molecule, donor type, donor heavy atom, donor atom, acceptor molecule, acceptor atom, score
      L1  H     9    29       P1  7948  0.59
      L1  H    12    30       P1  7948  0.55
      P1  H  7989  7998       L1     8  0.29

> <Gold.Chemscore.Hbond.Weighted>
-8.1040

> <Gold.Chemscore.Metal.Weighted>
-0.0000

> <Gold.Chemscore.Lipo.Weighted>
-7.8299

> <Gold.Chemscore.Internal_Hbond.Weighted>
0.0000

> <Gold.Chemscore.DEClash.Weighted>
0.0095

> <Gold.Chemscore.DEInternal.Weighted>
2.0827

> <Gold.Chemscore.Rot.Weighted>
4.6583

> <Gold.Chemscore.Internal.Correction.Weighted>
   9.000000E+99

> <Gold.Protein.RotatedTorsions>
[ 6907 6896 6895 6894 ] final  -77.65 input  -60.11 | X-H torsion
[ 7974 7965 7964 7962 ] final -152.74 input  175.53 | X-H torsion
[ 8008 7997 7996 7995 ] final  -42.38 input   59.86 | X-H torsion
[ 10167 10162 10161 10158 ] final   19.63 input  -65.29 | X-H torsion
[ 10718 10713 10712 10709 ] final  -10.20 input   66.30 | X-H torsion
[ 10763 10752 10751 10750 ] final  118.53 input  -60.55 | X-H torsion
[ 11005 11000 10999 10996 ] final  -97.20 input  -57.11 | X-H torsion

> <Gold.Protein.ActiveResidues>
 VAL166  LYS551  ARG553  GLY616  TRP617  ASP618  TYR619  PRO620  LYS621  CYS622 
 ASP623  PHE694  ASN695  SER759  ASP760  ASP761  ALA762  ILE779  LEU786  VAL792 
 PHE793  MET794  SER795  GLU796  ALA797  LYS798  CYS799  TRP800  GLU811  SER814 

> <Gold.Protein.RotatedAtoms>
  150.6993  134.4391  159.5283 H   0  0  0  0  0  0  0  0  0  0  0  0  # atno 6907 bound_to 6896
  152.2104  134.8504  160.0507 H   0  0  0  0  0  0  0  0  0  0  0  0  # atno 6908 bound_to 6896
  151.9391  133.3598  159.3995 H   0  0  0  0  0  0  0  0  0  0  0  0  # atno 6909 bound_to 6896
  144.7778  140.4620  143.5861 H   0  0  0  0  0  0  0  0  0  0  0  0  # atno 7974 bound_to 7965
  154.3999  140.1475  156.3345 H   0  0  0  0  0  0  0  0  0  0  0  0  # atno 8008 bound_to 7997
  155.8413  140.3462  155.5612 H   0  0  0  0  0  0  0  0  0  0  0  0  # atno 8009 bound_to 7997
  155.8084  140.0880  157.1908 H   0  0  0  0  0  0  0  0  0  0  0  0  # atno 8010 bound_to 7997
  140.5565  143.9416  150.6612 H   0  0  0  0  0  0  0  0  0  0  0  0  # atno 10167 bound_to 10162
  156.6769  130.5025  149.5983 H   0  0  0  0  0  0  0  0  0  0  0  0  # atno 10718 bound_to 10713
  153.5690  135.3506  155.2830 H   0  0  0  0  0  0  0  0  0  0  0  0  # atno 10763 bound_to 10752
  154.8684  135.4155  154.2746 H   0  0  0  0  0  0  0  0  0  0  0  0  # atno 10764 bound_to 10752
  153.3508  135.7055  153.6860 H   0  0  0  0  0  0  0  0  0  0  0  0  # atno 10765 bound_to 10752
  141.1386  133.8154  157.0674 H   0  0  0  0  0  0  0  0  0  0  0  0  # atno 11005 bound_to 11000
  145.6137  139.1516  143.3061 LP  0  0  0  0  0  0  0  0  0  0  0  0  # atno 17320 bound_to 7965
  146.1968  140.6252  142.9120 LP  0  0  0  0  0  0  0  0  0  0  0  0  # atno 17321 bound_to 7965
  140.2855  143.3360  152.1111 LP  0  0  0  0  0  0  0  0  0  0  0  0  # atno 17342 bound_to 10162
  139.5050  144.6786  151.6065 LP  0  0  0  0  0  0  0  0  0  0  0  0  # atno 17343 bound_to 10162
  156.1896  130.6551  151.1046 LP  0  0  0  0  0  0  0  0  0  0  0  0  # atno 17370 bound_to 10713
  157.7057  131.0757  150.6673 LP  0  0  0  0  0  0  0  0  0  0  0  0  # atno 17371 bound_to 10713
  140.0532  134.9794  157.1174 LP  0  0  0  0  0  0  0  0  0  0  0  0  # atno 17394 bound_to 11000
  140.3958  134.2136  155.7164 LP  0  0  0  0  0  0  0  0  0  0  0  0  # atno 17395 bound_to 11000

$$$$
