AV-unprocessed.smi:1488|AV-procd|sdf|6023|dock4
  -GOLD-   22720 6123D 1   1.00000     0.00000
 Structure written by MMmdl.
 36 37  0  0  0  0  0  0  0  0  1 V2000
  146.1408  134.8531  159.7190 C   0  0  0  0  0  0  0  0  0  0  0  0
  147.4657  135.1461  159.1030 C   0  0  0  0  0  0  0  0  0  0  0  0
  148.1733  136.3014  158.9233 C   0  0  0  0  0  0  0  0  0  0  0  0
  149.3533  135.8554  158.2707 C   0  0  0  0  0  0  0  0  0  0  0  0
  150.3715  136.7710  157.9018 N   0  0  0  0  0  0  0  0  0  0  0  0
  150.4363  138.0823  158.1896 C   0  0  0  0  0  0  0  0  0  0  0  0
  149.5943  138.7091  158.8332 O   0  0  0  0  0  0  0  0  0  0  0  0
  151.5433  138.6401  157.6774 N   0  0  0  0  0  0  0  0  0  0  0  0
  151.9060  140.0494  157.7944 C   0  0  2  0  0  0  0  0  0  0  0  0
  152.2633  140.3982  159.2527 C   0  0  0  0  0  0  0  0  0  0  0  0
  152.5777  141.8943  159.4121 C   0  0  0  0  0  0  0  0  0  0  0  0
  151.4155  142.7811  158.9167 C   0  0  1  0  0  0  0  0  0  0  0  0
  151.7212  144.2837  159.0869 C   0  0  0  0  0  0  0  0  0  0  0  0
  152.0674  144.5581  160.3450 F   0  0  0  0  0  0  0  0  0  0  0  0
  152.7183  144.6412  158.2777 F   0  0  0  0  0  0  0  0  0  0  0  0
  150.6478  145.0070  158.7680 F   0  0  0  0  0  0  0  0  0  0  0  0
  151.0640  142.4234  157.4569 C   0  0  0  0  0  0  0  0  0  0  0  0
  150.7441  140.9281  157.2982 C   0  0  0  0  0  0  0  0  0  0  0  0
  149.3639  134.5467  158.0682 N   0  0  0  0  0  0  0  0  0  0  0  0
  148.1539  134.0856  158.5999 O   0  0  0  0  0  0  0  0  0  0  0  0
  145.7745  135.7117  160.2819 H   0  0  0  0  0  0  0  0  0  0  0  0
  146.2096  134.0063  160.4021 H   0  0  0  0  0  0  0  0  0  0  0  0
  145.4046  134.6115  158.9525 H   0  0  0  0  0  0  0  0  0  0  0  0
  147.8903  137.3021  159.2148 H   0  0  0  0  0  0  0  0  0  0  0  0
  151.1279  136.3876  157.3549 H   0  0  0  0  0  0  0  0  0  0  0  0
  152.1802  138.0489  157.1638 H   0  0  0  0  0  0  0  0  0  0  0  0
  152.7732  140.2477  157.1614 H   0  0  0  0  0  0  0  0  0  0  0  0
  151.4356  140.1303  159.9112 H   0  0  0  0  0  0  0  0  0  0  0  0
  153.1210  139.8101  159.5810 H   0  0  0  0  0  0  0  0  0  0  0  0
  152.7918  142.1074  160.4597 H   0  0  0  0  0  0  0  0  0  0  0  0
  153.4865  142.1327  158.8582 H   0  0  0  0  0  0  0  0  0  0  0  0
  150.5428  142.5554  159.5315 H   0  0  0  0  0  0  0  0  0  0  0  0
  150.2098  143.0121  157.1215 H   0  0  0  0  0  0  0  0  0  0  0  0
  151.8949  142.6868  156.8014 H   0  0  0  0  0  0  0  0  0  0  0  0
  150.5309  140.7087  156.2511 H   0  0  0  0  0  0  0  0  0  0  0  0
  149.8357  140.6923  157.8546 H   0  0  0  0  0  0  0  0  0  0  0  0
  1  2  1  0  0  0  0
  1 21  1  0  0  0  0
  1 22  1  0  0  0  0
  1 23  1  0  0  0  0
  2 20  1  0  0  0  0
  2  3  2  0  0  0  0
  3  4  1  0  0  0  0
  3 24  1  0  0  0  0
  4  5  1  0  0  0  0
  4 19  2  0  0  0  0
  5  6  1  0  0  0  0
  5 25  1  0  0  0  0
  6  7  2  0  0  0  0
  6  8  1  0  0  0  0
  8  9  1  0  0  0  0
  8 26  1  0  0  0  0
  9 18  1  0  0  0  0
  9 10  1  0  0  0  0
  9 27  1  0  0  0  0
 10 11  1  0  0  0  0
 10 28  1  0  0  0  0
 10 29  1  0  0  0  0
 11 12  1  0  0  0  0
 11 30  1  0  0  0  0
 11 31  1  0  0  0  0
 12 13  1  0  0  0  0
 12 17  1  0  0  0  0
 12 32  1  0  0  0  0
 13 14  1  0  0  0  0
 13 15  1  0  0  0  0
 13 16  1  0  0  0  0
 17 18  1  0  0  0  0
 17 33  1  0  0  0  0
 17 34  1  0  0  0  0
 18 35  1  0  0  0  0
 18 36  1  0  0  0  0
 19 20  1  0  0  0  0
M  END
> <s_m_source_file>
AV-unprocessed.smi

> <i_m_source_file_index>
1488

> <i_lp_mmshare_version>
43012

> <i_f3d_flags>
0

> <s_epik_input>
W0NIM11jMVtjSF1jKG5vMSlbTkhdQyg9TylbTkhdW0NAQEhdMltDSDJdW0NIMl1bQ0BASF0oQyhGKShGKUYpW0NIMl1bQ0gyXTI=

> <s_epik_cmdline>
J2VwaWtfcHl0aG9uJywgJy1waCcsICc3LjAnLCAnLXRuJywgJzgnLCAnLW1hJywgJzIwMCcsICctbWV0YWxfYmluZGluZycsICctaW1hZScsICc8aW5maWxlLm1hZT4nLCAnLW9tYWUnLCAnPG91dGZpbGUubWFlPic=

> <r_lp_tautomer_probability>
1

> <r_epik_Ionization_Penalty>
2.30349e-05

> <r_epik_Ionization_Penalty_Charging>
0

> <r_epik_Ionization_Penalty_Neutral>
2.30349e-05

> <r_epik_State_Penalty>
-0

> <r_epik_Charging_Adjusted_Penalty>
0

> <i_epik_Tot_Q>
0

> <i_epik_Tot_abs_Q>
0

> <r_epik_Metal_State_Penalty>
-0

> <b_epik_Metal_Only>
0

> <s_lp_Force_Field>
OPLS_2005

> <r_lp_Energy>
8.97319

> <b_lp_Chiralities_Consistent>
1

> <s_lp_Variant>
AV-unprocessed.smi:1488-1

> <Gold.Version>
5.8.1

> <Gold.Id.Protein>
6NUR|6NUR_protein|mol2

> <Gold.PLP.Fitness>
37.7041

> <Gold.PLP.PLP>
-34.8790

> <Gold.PLP.part.hbond>
-2.4692

> <Gold.PLP.part.metal>
0.0000

> <Gold.PLP.part.buried>
-4.2902

> <Gold.PLP.part.nonpolar>
-28.8678

> <Gold.PLP.part.repulsive>
0.1291

> <Gold.PLP.ligand.clash>
0.0000

> <Gold.PLP.ligand.torsion>
0.0973

> <Gold.PLP.Chemscore.Hbond>
1.0000

> <Gold.PLP.Chemscore.CHOScore>
0.0000

> <Gold.PLP.Chemscore.Metal>
0.0000

> <Gold.Chemscore.Hbonds>
donor molecule, donor type, donor heavy atom, donor atom, acceptor molecule, acceptor atom, score
      P1  H  6896  6909       L1    19  0.90

> <Gold.PLP.Chemscore.Internal.Correction>
0.0198

> <Gold.Rescore>
     Score         DG    S(hbond)    S(metal)    S(lipo)     H(rot)  DE(clash)    DE(int)     intcor
     10.64     -14.07       0.88        0.00      70.05       1.00       0.81       2.63       ----

> <Gold.Chemscore.Fitness>
10.6357

> <Gold.Chemscore.DG>
-14.0700

> <Gold.Chemscore.ZeroCoef>
-5.4800

> <Gold.Chemscore.Hbond>
0.8845

> <Gold.Chemscore.Metal>
0.0000

> <Gold.Chemscore.Lipo>
70.0507

> <Gold.Chemscore.Internal_Hbond>
0.0000

> <Gold.Chemscore.DEClash>
0.8065

> <Gold.Chemscore.DEInternal>
2.6278

> <Gold.Chemscore.Rot>
1.0000

> <Gold.Chemscore.Internal.Correction>
   9.000000E+99

> <Gold.Chemscore.Hbonds>
donor molecule, donor type, donor heavy atom, donor atom, acceptor molecule, acceptor atom, score
      P1  H  6896  6909       L1    19  0.09

> <Gold.Chemscore.Hbond.Weighted>
-2.9541

> <Gold.Chemscore.Metal.Weighted>
-0.0000

> <Gold.Chemscore.Lipo.Weighted>
-8.1959

> <Gold.Chemscore.Internal_Hbond.Weighted>
0.0000

> <Gold.Chemscore.DEClash.Weighted>
0.8065

> <Gold.Chemscore.DEInternal.Weighted>
2.6278

> <Gold.Chemscore.Rot.Weighted>
2.5600

> <Gold.Chemscore.Internal.Correction.Weighted>
   9.000000E+99

> <Gold.Protein.RotatedTorsions>
[ 6907 6896 6895 6894 ] final   18.25 input  -60.11 | X-H torsion
[ 7974 7965 7964 7962 ] final -143.36 input  175.53 | X-H torsion
[ 8008 7997 7996 7995 ] final  -52.56 input   59.86 | X-H torsion
[ 10167 10162 10161 10158 ] final  -37.96 input  -65.29 | X-H torsion
[ 10718 10713 10712 10709 ] final   84.73 input   66.30 | X-H torsion
[ 10763 10752 10751 10750 ] final -127.78 input  -60.55 | X-H torsion
[ 11005 11000 10999 10996 ] final  -11.32 input  -57.11 | X-H torsion

> <Gold.Protein.ActiveResidues>
 VAL166  LYS551  ARG553  GLY616  TRP617  ASP618  TYR619  PRO620  LYS621  CYS622 
 ASP623  PHE694  ASN695  SER759  ASP760  ASP761  ALA762  ILE779  LEU786  VAL792 
 PHE793  MET794  SER795  GLU796  ALA797  LYS798  CYS799  TRP800  GLU811  SER814 

> <Gold.Protein.RotatedAtoms>
  151.8623  135.0519  160.0470 H   0  0  0  0  0  0  0  0  0  0  0  0  # atno 6907 bound_to 6896
  152.2653  133.5329  159.5414 H   0  0  0  0  0  0  0  0  0  0  0  0  # atno 6908 bound_to 6896
  150.7131  134.0689  159.3900 H   0  0  0  0  0  0  0  0  0  0  0  0  # atno 6909 bound_to 6896
  144.8375  140.5845  143.5474 H   0  0  0  0  0  0  0  0  0  0  0  0  # atno 7974 bound_to 7965
  154.4110  140.1221  156.5011 H   0  0  0  0  0  0  0  0  0  0  0  0  # atno 8008 bound_to 7997
  155.6893  140.3495  155.4868 H   0  0  0  0  0  0  0  0  0  0  0  0  # atno 8009 bound_to 7997
  155.9482  140.1100  157.0988 H   0  0  0  0  0  0  0  0  0  0  0  0  # atno 8010 bound_to 7997
  140.7105  143.3308  151.2574 H   0  0  0  0  0  0  0  0  0  0  0  0  # atno 10167 bound_to 10162
  157.6903  131.0145  150.2717 H   0  0  0  0  0  0  0  0  0  0  0  0  # atno 10718 bound_to 10713
  154.8754  135.3950  154.3649 H   0  0  0  0  0  0  0  0  0  0  0  0  # atno 10763 bound_to 10752
  153.4416  135.7027  153.6170 H   0  0  0  0  0  0  0  0  0  0  0  0  # atno 10764 bound_to 10752
  153.4748  135.3782  155.2380 H   0  0  0  0  0  0  0  0  0  0  0  0  # atno 10765 bound_to 10752
  140.7540  133.8569  155.9069 H   0  0  0  0  0  0  0  0  0  0  0  0  # atno 11005 bound_to 11000
  145.4763  139.1499  143.3786 LP  0  0  0  0  0  0  0  0  0  0  0  0  # atno 17320 bound_to 7965
  146.2672  140.4898  142.8829 LP  0  0  0  0  0  0  0  0  0  0  0  0  # atno 17321 bound_to 7965
  139.6789  143.9889  152.2797 LP  0  0  0  0  0  0  0  0  0  0  0  0  # atno 17342 bound_to 10162
  139.9512  144.6619  150.8170 LP  0  0  0  0  0  0  0  0  0  0  0  0  # atno 17343 bound_to 10162
  156.3278  130.3796  149.7517 LP  0  0  0  0  0  0  0  0  0  0  0  0  # atno 17370 bound_to 10713
  156.5067  130.8153  151.3153 LP  0  0  0  0  0  0  0  0  0  0  0  0  # atno 17371 bound_to 10713
  140.9724  134.1513  157.4564 LP  0  0  0  0  0  0  0  0  0  0  0  0  # atno 17394 bound_to 11000
  139.8782  134.9983  156.5893 LP  0  0  0  0  0  0  0  0  0  0  0  0  # atno 17395 bound_to 11000

$$$$
