AV-unprocessed.smi:496|AV-procd|sdf|2718|dock4
  -GOLD-   2262023163D 1   1.00000     0.00000
 Structure written by MMmdl.
 43 45  0  0  0  0  0  0  0  0  2 V2000
  153.3782  137.9578  157.3347 C   0  0  0  0  0  0  0  0  0  0  0  0
  153.1395  138.9858  156.3901 O   0  0  0  0  0  0  0  0  0  0  0  0
  151.7599  139.2827  156.2479 C   0  0  0  0  0  0  0  0  0  0  0  0
  151.1843  139.7506  157.5918 C   0  0  0  0  0  0  0  0  0  0  0  0
  150.8417  141.1814  157.5833 N   0  0  0  0  0  0  0  0  0  0  0  0
  149.8797  141.8517  156.8850 C   0  0  0  0  0  0  0  0  0  0  0  0
  148.8914  141.2642  155.9200 C   0  0  2  0  0  0  0  0  0  0  0  0
  149.6083  140.7365  154.6705 C   0  0  0  0  0  0  0  0  0  0  0  0
  147.8619  142.2237  155.5304 N   0  0  0  0  0  0  0  0  0  0  0  0
  146.7416  141.9269  154.8519 C   0  0  0  0  0  0  0  0  0  0  0  0
  146.4497  140.7879  154.4883 O   0  0  0  0  0  0  0  0  0  0  0  0
  145.8474  143.0627  154.5611 C   0  0  0  0  0  0  0  0  0  0  0  0
  145.7247  143.8322  153.4355 C   0  0  0  0  0  0  0  0  0  0  0  0
  144.7050  144.7868  153.7041 C   0  0  0  0  0  0  0  0  0  0  0  0
  144.2771  144.5320  154.9752 C   0  0  0  0  0  0  0  0  0  0  0  0
  144.9619  143.4853  155.5116 O   0  0  0  0  0  0  0  0  0  0  0  0
  149.9801  143.1687  157.2261 N   0  3  0  0  0  0  0  0  0  0  0  0
  150.9969  143.3392  158.1650 C   0  0  0  0  0  0  0  0  0  0  0  0
  151.4587  144.4832  158.8086 C   0  0  0  0  0  0  0  0  0  0  0  0
  152.5148  144.3099  159.7268 C   0  0  0  0  0  0  0  0  0  0  0  0
  153.0701  143.0380  159.9748 C   0  0  0  0  0  0  0  0  0  0  0  0
  152.5950  141.8861  159.3138 C   0  0  0  0  0  0  0  0  0  0  0  0
  151.5519  142.0656  158.4049 C   0  0  0  0  0  0  0  0  0  0  0  0
  154.4481  137.7596  157.3977 H   0  0  0  0  0  0  0  0  0  0  0  0
  152.8804  137.0317  157.0451 H   0  0  0  0  0  0  0  0  0  0  0  0
  153.0312  138.2474  158.3274 H   0  0  0  0  0  0  0  0  0  0  0  0
  151.6209  140.0590  155.4944 H   0  0  0  0  0  0  0  0  0  0  0  0
  151.2217  138.3985  155.9039 H   0  0  0  0  0  0  0  0  0  0  0  0
  150.3036  139.1687  157.8623 H   0  0  0  0  0  0  0  0  0  0  0  0
  151.9099  139.5868  158.3888 H   0  0  0  0  0  0  0  0  0  0  0  0
  148.3906  140.4224  156.3997 H   0  0  0  0  0  0  0  0  0  0  0  0
  150.3462  139.9784  154.9351 H   0  0  0  0  0  0  0  0  0  0  0  0
  150.1276  141.5353  154.1397 H   0  0  0  0  0  0  0  0  0  0  0  0
  148.9028  140.2791  153.9760 H   0  0  0  0  0  0  0  0  0  0  0  0
  148.0163  143.1890  155.7831 H   0  0  0  0  0  0  0  0  0  0  0  0
  146.3001  143.7217  152.5279 H   0  0  0  0  0  0  0  0  0  0  0  0
  144.3329  145.5616  153.0504 H   0  0  0  0  0  0  0  0  0  0  0  0
  143.5327  144.9760  155.6195 H   0  0  0  0  0  0  0  0  0  0  0  0
  151.0327  145.4580  158.6222 H   0  0  0  0  0  0  0  0  0  0  0  0
  152.9049  145.1692  160.2528 H   0  0  0  0  0  0  0  0  0  0  0  0
  153.8766  142.9427  160.6875 H   0  0  0  0  0  0  0  0  0  0  0  0
  153.0245  140.9166  159.5181 H   0  0  0  0  0  0  0  0  0  0  0  0
  149.3840  143.8945  156.8496 H   0  0  0  0  0  0  0  0  0  0  0  0
  1  2  1  0  0  0  0
  1 24  1  0  0  0  0
  1 25  1  0  0  0  0
  1 26  1  0  0  0  0
  2  3  1  0  0  0  0
  3  4  1  0  0  0  0
  3 27  1  0  0  0  0
  3 28  1  0  0  0  0
  4  5  1  0  0  0  0
  4 29  1  0  0  0  0
  4 30  1  0  0  0  0
  5 23  1  0  0  0  0
  5  6  1  0  0  0  0
  6  7  1  0  0  0  0
  6 17  2  0  0  0  0
  7  8  1  0  0  0  0
  7  9  1  0  0  0  0
  7 31  1  0  0  0  0
  8 32  1  0  0  0  0
  8 33  1  0  0  0  0
  8 34  1  0  0  0  0
  9 10  1  0  0  0  0
  9 35  1  0  0  0  0
 10 11  2  0  0  0  0
 10 12  1  0  0  0  0
 12 16  1  0  0  0  0
 12 13  2  0  0  0  0
 13 14  1  0  0  0  0
 13 36  1  0  0  0  0
 14 15  2  0  0  0  0
 14 37  1  0  0  0  0
 15 16  1  0  0  0  0
 15 38  1  0  0  0  0
 17 18  1  0  0  0  0
 17 43  1  0  0  0  0
 18 23  2  0  0  0  0
 18 19  1  0  0  0  0
 19 20  2  0  0  0  0
 19 39  1  0  0  0  0
 20 21  1  0  0  0  0
 20 40  1  0  0  0  0
 21 22  2  0  0  0  0
 21 41  1  0  0  0  0
 22 23  1  0  0  0  0
 22 42  1  0  0  0  0
M  CHG  1  17   1
M  END
> <s_m_source_file>
AV-unprocessed.smi

> <i_m_source_file_index>
496

> <i_lp_mmshare_version>
43012

> <i_f3d_flags>
0

> <s_epik_input>
W2NIXTFbY0hdW2NIXVtjSF1jKGMxMiluKFtDSDJdW0NIMl1PW0NIM10pYyhuMilbQ0BIXShbQ0gzXSlbTkhdQyg9TyljM1tjSF1bY0hdW2NIXW8z

> <s_epik_cmdline>
J2VwaWtfcHl0aG9uJywgJy1waCcsICc3LjAnLCAnLXRuJywgJzgnLCAnLW1hJywgJzIwMCcsICctbWV0YWxfYmluZGluZycsICctaW1hZScsICc8aW5maWxlLm1hZT4nLCAnLW9tYWUnLCAnPG91dGZpbGUubWFlPic=

> <r_epik_Ionization_Penalty>
1.02088

> <r_epik_Ionization_Penalty_Charging>
1.02086

> <r_epik_Ionization_Penalty_Neutral>
2.09263e-05

> <r_epik_State_Penalty>
1.07114

> <r_epik_Charging_Adjusted_Penalty>
2.092

> <i_epik_Tot_Q>
1

> <i_epik_Tot_abs_Q>
1

> <r_epik_Metal_State_Penalty>
1.19829

> <b_epik_Metal_Only>
0

> <s_lp_Force_Field>
OPLS_2005

> <r_lp_Energy>
10.7662

> <b_lp_Chiralities_Consistent>
1

> <s_lp_Variant>
AV-unprocessed.smi:496-3

> <Gold.Version>
5.8.1

> <Gold.Id.Protein>
6NUR|6NUR_protein|mol2

> <Gold.PLP.Fitness>
55.4939

> <Gold.PLP.PLP>
-47.5866

> <Gold.PLP.part.hbond>
-2.8075

> <Gold.PLP.part.metal>
0.0000

> <Gold.PLP.part.buried>
-7.1354

> <Gold.PLP.part.nonpolar>
-39.1220

> <Gold.PLP.part.repulsive>
0.3598

> <Gold.PLP.ligand.clash>
0.0000

> <Gold.PLP.ligand.torsion>
2.0954

> <Gold.PLP.Chemscore.Hbond>
4.0000

> <Gold.PLP.Chemscore.CHOScore>
0.0000

> <Gold.PLP.Chemscore.Metal>
0.0000

> <Gold.Chemscore.Hbonds>
donor molecule, donor type, donor heavy atom, donor atom, acceptor molecule, acceptor atom, score
      L1  H     9    35       P1  8028  1.00
      L1  H    17    43       P1  8028  1.95
      P1  H  7997  8009       L1     2  1.00

> <Gold.PLP.Chemscore.Internal.Correction>
0.0981

> <Gold.Rescore>
     Score         DG    S(hbond)    S(metal)    S(lipo)     H(rot)  DE(clash)    DE(int)     intcor
     21.22     -23.84       2.82        0.00     118.01       1.90       0.20       2.42       ----

> <Gold.Chemscore.Fitness>
21.2174

> <Gold.Chemscore.DG>
-23.8401

> <Gold.Chemscore.ZeroCoef>
-5.4800

> <Gold.Chemscore.Hbond>
2.8183

> <Gold.Chemscore.Metal>
0.0000

> <Gold.Chemscore.Lipo>
118.0149

> <Gold.Chemscore.Internal_Hbond>
0.0000

> <Gold.Chemscore.DEClash>
0.2003

> <Gold.Chemscore.DEInternal>
2.4224

> <Gold.Chemscore.Rot>
1.8988

> <Gold.Chemscore.Internal.Correction>
   9.000000E+99

> <Gold.Chemscore.Hbonds>
donor molecule, donor type, donor heavy atom, donor atom, acceptor molecule, acceptor atom, score
      L1  H     9    35       P1  8028  0.58
      L1  H    17    43       P1  8028  0.71
      P1  H  7997  8009       L1     2  0.84

> <Gold.Chemscore.Hbond.Weighted>
-9.4132

> <Gold.Chemscore.Metal.Weighted>
-0.0000

> <Gold.Chemscore.Lipo.Weighted>
-13.8077

> <Gold.Chemscore.Internal_Hbond.Weighted>
0.0000

> <Gold.Chemscore.DEClash.Weighted>
0.2003

> <Gold.Chemscore.DEInternal.Weighted>
2.4224

> <Gold.Chemscore.Rot.Weighted>
4.8608

> <Gold.Chemscore.Internal.Correction.Weighted>
   9.000000E+99

> <Gold.Protein.RotatedTorsions>
[ 6907 6896 6895 6894 ] final  -97.42 input  -60.11 | X-H torsion
[ 7974 7965 7964 7962 ] final  163.20 input  175.53 | X-H torsion
[ 8008 7997 7996 7995 ] final -162.21 input   59.86 | X-H torsion
[ 10167 10162 10161 10158 ] final  164.72 input  -65.29 | X-H torsion
[ 10718 10713 10712 10709 ] final   95.25 input   66.30 | X-H torsion
[ 10763 10752 10751 10750 ] final  -43.03 input  -60.55 | X-H torsion
[ 11005 11000 10999 10996 ] final  -97.44 input  -57.11 | X-H torsion

> <Gold.Protein.ActiveResidues>
 VAL166  LYS551  ARG553  GLY616  TRP617  ASP618  TYR619  PRO620  LYS621  CYS622 
 ASP623  PHE694  ASN695  SER759  ASP760  ASP761  ALA762  ILE779  LEU786  VAL792 
 PHE793  MET794  SER795  GLU796  ALA797  LYS798  CYS799  TRP800  GLU811  SER814 

> <Gold.Protein.RotatedAtoms>
  150.7016  134.1351  159.4084 H   0  0  0  0  0  0  0  0  0  0  0  0  # atno 6907 bound_to 6896
  151.9337  135.0243  160.0540 H   0  0  0  0  0  0  0  0  0  0  0  0  # atno 6908 bound_to 6896
  152.2154  133.4907  159.5169 H   0  0  0  0  0  0  0  0  0  0  0  0  # atno 6909 bound_to 6896
  144.7601  139.8148  143.6336 H   0  0  0  0  0  0  0  0  0  0  0  0  # atno 7974 bound_to 7965
  155.8035  140.0895  157.1944 H   0  0  0  0  0  0  0  0  0  0  0  0  # atno 8008 bound_to 7997
  154.3981  140.1468  156.3361 H   0  0  0  0  0  0  0  0  0  0  0  0  # atno 8009 bound_to 7997
  155.8438  140.3437  155.5652 H   0  0  0  0  0  0  0  0  0  0  0  0  # atno 8010 bound_to 7997
  139.4893  144.4206  151.9190 H   0  0  0  0  0  0  0  0  0  0  0  0  # atno 10167 bound_to 10162
  157.6940  131.0539  150.4310 H   0  0  0  0  0  0  0  0  0  0  0  0  # atno 10718 bound_to 10713
  153.9889  135.6708  153.4753 H   0  0  0  0  0  0  0  0  0  0  0  0  # atno 10763 bound_to 10752
  153.0714  135.4972  154.8309 H   0  0  0  0  0  0  0  0  0  0  0  0  # atno 10764 bound_to 10752
  154.7121  135.3099  154.9143 H   0  0  0  0  0  0  0  0  0  0  0  0  # atno 10765 bound_to 10752
  141.1379  133.8171  157.0707 H   0  0  0  0  0  0  0  0  0  0  0  0  # atno 11005 bound_to 11000
  146.1654  139.4784  142.9961 LP  0  0  0  0  0  0  0  0  0  0  0  0  # atno 17320 bound_to 7965
  145.6649  141.0231  143.1689 LP  0  0  0  0  0  0  0  0  0  0  0  0  # atno 17321 bound_to 7965
  140.3651  144.2925  150.5928 LP  0  0  0  0  0  0  0  0  0  0  0  0  # atno 17342 bound_to 10162
  140.5369  143.2231  151.8148 LP  0  0  0  0  0  0  0  0  0  0  0  0  # atno 17343 bound_to 10162
  156.4677  130.4046  149.6537 LP  0  0  0  0  0  0  0  0  0  0  0  0  # atno 17370 bound_to 10713
  156.3629  130.7491  151.2465 LP  0  0  0  0  0  0  0  0  0  0  0  0  # atno 17371 bound_to 10713
  140.0513  134.9804  157.1142 LP  0  0  0  0  0  0  0  0  0  0  0  0  # atno 17394 bound_to 11000
  140.3985  134.2108  155.7164 LP  0  0  0  0  0  0  0  0  0  0  0  0  # atno 17395 bound_to 11000

$$$$
