AV-unprocessed.smi:637|AV-procd|sdf|3142|dock5
  -GOLD-   22720 0 63D 1   1.00000     0.00000
 Structure written by MMmdl.
 38 40  0  0  0  0  0  0  0  0  1 V2000
  143.2796  145.5116  154.1059 C   0  0  0  0  0  0  0  0  0  0  0  0
  144.2616  144.4733  154.5310 C   0  0  0  0  0  0  0  0  0  0  0  0
  144.3008  143.7932  155.7239 C   0  0  0  0  0  0  0  0  0  0  0  0
  145.3755  142.8588  155.8089 C   0  0  0  0  0  0  0  0  0  0  0  0
  146.1394  142.8525  154.6660 C   0  0  0  0  0  0  0  0  0  0  0  0
  147.2797  141.9625  154.5222 C   0  0  0  0  0  0  0  0  0  0  0  0
  147.2222  140.7842  153.6745 C   0  0  0  0  0  0  0  0  0  0  0  0
  148.2941  139.9651  153.6108 C   0  0  0  0  0  0  0  0  0  0  0  0
  149.5124  140.2294  154.3737 C   0  0  0  0  0  0  0  0  0  0  0  0
  150.4912  139.4836  154.3634 O   0  0  0  0  0  0  0  0  0  0  0  0
  149.4590  141.3746  155.1136 N   0  0  0  0  0  0  0  0  0  0  0  0
  150.5733  141.7658  155.9878 C   0  0  0  0  0  0  0  0  0  0  0  0
  150.4898  141.1066  157.3848 C   0  0  1  0  0  0  0  0  0  0  0  0
  150.8986  139.7590  157.2698 O   0  0  0  0  0  0  0  0  0  0  0  0
  151.2880  141.8625  158.4399 C   0  0  0  0  0  0  0  0  0  0  0  0
  152.1872  141.1761  159.2857 C   0  0  0  0  0  0  0  0  0  0  0  0
  152.9611  141.8855  160.2244 C   0  0  0  0  0  0  0  0  0  0  0  0
  152.8402  143.2849  160.3229 C   0  0  0  0  0  0  0  0  0  0  0  0
  151.9442  143.9743  159.4837 C   0  0  0  0  0  0  0  0  0  0  0  0
  151.8315  145.3205  159.5746 F   0  0  0  0  0  0  0  0  0  0  0  0
  151.1694  143.2653  158.5456 C   0  0  0  0  0  0  0  0  0  0  0  0
  148.3674  142.2236  155.1731 N   0  0  0  0  0  0  0  0  0  0  0  0
  145.5585  143.9786  153.4702 S   0  0  0  0  0  0  0  0  0  0  0  0
  142.4906  145.6347  154.8481 H   0  0  0  0  0  0  0  0  0  0  0  0
  142.8115  145.2369  153.1604 H   0  0  0  0  0  0  0  0  0  0  0  0
  143.7705  146.4758  153.9725 H   0  0  0  0  0  0  0  0  0  0  0  0
  143.5982  143.9310  156.5325 H   0  0  0  0  0  0  0  0  0  0  0  0
  145.5281  142.2474  156.6870 H   0  0  0  0  0  0  0  0  0  0  0  0
  146.3336  140.5635  153.1023 H   0  0  0  0  0  0  0  0  0  0  0  0
  148.2511  139.0885  152.9813 H   0  0  0  0  0  0  0  0  0  0  0  0
  151.5281  141.5277  155.5153 H   0  0  0  0  0  0  0  0  0  0  0  0
  150.5736  142.8521  156.0992 H   0  0  0  0  0  0  0  0  0  0  0  0
  149.4453  141.0855  157.6982 H   0  0  0  0  0  0  0  0  0  0  0  0
  150.2489  139.2919  156.7667 H   0  0  0  0  0  0  0  0  0  0  0  0
  152.2963  140.1043  159.2066 H   0  0  0  0  0  0  0  0  0  0  0  0
  153.6512  141.3568  160.8649 H   0  0  0  0  0  0  0  0  0  0  0  0
  153.4363  143.8291  161.0404 H   0  0  0  0  0  0  0  0  0  0  0  0
  150.4950  143.8043  157.8963 H   0  0  0  0  0  0  0  0  0  0  0  0
  1  2  1  0  0  0  0
  1 24  1  0  0  0  0
  1 25  1  0  0  0  0
  1 26  1  0  0  0  0
  2 23  1  0  0  0  0
  2  3  2  0  0  0  0
  3  4  1  0  0  0  0
  3 27  1  0  0  0  0
  4  5  2  0  0  0  0
  4 28  1  0  0  0  0
  5  6  1  0  0  0  0
  5 23  1  0  0  0  0
  6 22  2  0  0  0  0
  6  7  1  0  0  0  0
  7  8  2  0  0  0  0
  7 29  1  0  0  0  0
  8  9  1  0  0  0  0
  8 30  1  0  0  0  0
  9 10  2  0  0  0  0
  9 11  1  0  0  0  0
 11 12  1  0  0  0  0
 11 22  1  0  0  0  0
 12 13  1  0  0  0  0
 12 31  1  0  0  0  0
 12 32  1  0  0  0  0
 13 14  1  0  0  0  0
 13 15  1  0  0  0  0
 13 33  1  0  0  0  0
 14 34  1  0  0  0  0
 15 21  1  0  0  0  0
 15 16  2  0  0  0  0
 16 17  1  0  0  0  0
 16 35  1  0  0  0  0
 17 18  2  0  0  0  0
 17 36  1  0  0  0  0
 18 19  1  0  0  0  0
 18 37  1  0  0  0  0
 19 20  1  0  0  0  0
 19 21  2  0  0  0  0
 21 38  1  0  0  0  0
M  END
> <s_m_source_file>
AV-unprocessed.smi

> <i_m_source_file_index>
637

> <i_lp_mmshare_version>
43012

> <i_f3d_flags>
0

> <s_epik_input>
W0NIM11jMVtjSF1bY0hdYyhzMSktYzJbY0hdW2NIXWMoPU8pbihuMilbQ0gyXVtDQEhdKFtPSF0pYzNbY0hdW2NIXVtjSF1jKEYpW2NIXTM=

> <s_epik_cmdline>
J2VwaWtfcHl0aG9uJywgJy1waCcsICc3LjAnLCAnLXRuJywgJzgnLCAnLW1hJywgJzIwMCcsICctbWV0YWxfYmluZGluZycsICctaW1hZScsICc8aW5maWxlLm1hZT4nLCAnLW9tYWUnLCAnPG91dGZpbGUubWFlPic=

> <r_lp_tautomer_probability>
1

> <r_epik_Ionization_Penalty>
2.26963e-07

> <r_epik_Ionization_Penalty_Charging>
5.89185e-08

> <r_epik_Ionization_Penalty_Neutral>
1.68044e-07

> <r_epik_State_Penalty>
-0

> <r_epik_Charging_Adjusted_Penalty>
5.89185e-08

> <i_epik_Tot_Q>
0

> <i_epik_Tot_abs_Q>
0

> <r_epik_Metal_State_Penalty>
-0

> <b_epik_Metal_Only>
0

> <s_lp_Force_Field>
OPLS_2005

> <r_lp_Energy>
25.403

> <b_lp_Chiralities_Consistent>
1

> <s_lp_Variant>
AV-unprocessed.smi:637-2

> <Gold.Version>
5.8.1

> <Gold.Id.Protein>
6NUR|6NUR_protein|mol2

> <Gold.PLP.Fitness>
49.6230

> <Gold.PLP.PLP>
-51.8729

> <Gold.PLP.part.hbond>
-1.0000

> <Gold.PLP.part.metal>
0.0000

> <Gold.PLP.part.buried>
-5.4931

> <Gold.PLP.part.nonpolar>
-49.7737

> <Gold.PLP.part.repulsive>
3.8617

> <Gold.PLP.ligand.clash>
0.0000

> <Gold.PLP.ligand.torsion>
2.1188

> <Gold.PLP.Chemscore.Hbond>
0.6500

> <Gold.PLP.Chemscore.CHOScore>
0.0000

> <Gold.PLP.Chemscore.Metal>
0.0000

> <Gold.Chemscore.Hbonds>
donor molecule, donor type, donor heavy atom, donor atom, acceptor molecule, acceptor atom, score
      P1  H  7989  7998       L1    10  0.60

> <Gold.PLP.Chemscore.Internal.Correction>
0.0378

> <Gold.Rescore>
     Score         DG    S(hbond)    S(metal)    S(lipo)     H(rot)  DE(clash)    DE(int)     intcor
     12.70     -16.99       0.53        0.00     123.25       1.82       1.95       2.35       ----

> <Gold.Chemscore.Fitness>
12.6955

> <Gold.Chemscore.DG>
-16.9926

> <Gold.Chemscore.ZeroCoef>
-5.4800

> <Gold.Chemscore.Hbond>
0.5262

> <Gold.Chemscore.Metal>
0.0000

> <Gold.Chemscore.Lipo>
123.2475

> <Gold.Chemscore.Internal_Hbond>
0.0000

> <Gold.Chemscore.DEClash>
1.9455

> <Gold.Chemscore.DEInternal>
2.3516

> <Gold.Chemscore.Rot>
1.8222

> <Gold.Chemscore.Internal.Correction>
   9.000000E+99

> <Gold.Chemscore.Hbonds>
donor molecule, donor type, donor heavy atom, donor atom, acceptor molecule, acceptor atom, score
      P1  H  7989  7998       L1    10  0.04

> <Gold.Chemscore.Hbond.Weighted>
-1.7575

> <Gold.Chemscore.Metal.Weighted>
-0.0000

> <Gold.Chemscore.Lipo.Weighted>
-14.4200

> <Gold.Chemscore.Internal_Hbond.Weighted>
0.0000

> <Gold.Chemscore.DEClash.Weighted>
1.9455

> <Gold.Chemscore.DEInternal.Weighted>
2.3516

> <Gold.Chemscore.Rot.Weighted>
4.6649

> <Gold.Chemscore.Internal.Correction.Weighted>
   9.000000E+99

> <Gold.Protein.RotatedTorsions>
[ 6907 6896 6895 6894 ] final  -99.31 input  -60.11 | X-H torsion
[ 7974 7965 7964 7962 ] final   96.13 input  175.53 | X-H torsion
[ 8008 7997 7996 7995 ] final  164.27 input   59.86 | X-H torsion
[ 10167 10162 10161 10158 ] final  174.36 input  -65.29 | X-H torsion
[ 10718 10713 10712 10709 ] final  178.09 input   66.30 | X-H torsion
[ 10763 10752 10751 10750 ] final -134.70 input  -60.55 | X-H torsion
[ 11005 11000 10999 10996 ] final   -1.71 input  -57.11 | X-H torsion

> <Gold.Protein.ActiveResidues>
 VAL166  LYS551  ARG553  GLY616  TRP617  ASP618  TYR619  PRO620  LYS621  CYS622 
 ASP623  PHE694  ASN695  SER759  ASP760  ASP761  ALA762  ILE779  LEU786  VAL792 
 PHE793  MET794  SER795  GLU796  ALA797  LYS798  CYS799  TRP800  GLU811  SER814 

> <Gold.Protein.RotatedAtoms>
  150.7076  134.1060  159.3982 H   0  0  0  0  0  0  0  0  0  0  0  0  # atno 6907 bound_to 6896
  151.9046  135.0362  160.0518 H   0  0  0  0  0  0  0  0  0  0  0  0  # atno 6908 bound_to 6896
  152.2386  133.5081  159.5293 H   0  0  0  0  0  0  0  0  0  0  0  0  # atno 6909 bound_to 6896
  145.4430  139.2299  143.3082 H   0  0  0  0  0  0  0  0  0  0  0  0  # atno 7974 bound_to 7965
  156.1893  140.1701  156.8124 H   0  0  0  0  0  0  0  0  0  0  0  0  # atno 8008 bound_to 7997
  154.5451  140.0728  156.8608 H   0  0  0  0  0  0  0  0  0  0  0  0  # atno 8009 bound_to 7997
  155.3137  140.3369  155.4245 H   0  0  0  0  0  0  0  0  0  0  0  0  # atno 8010 bound_to 7997
  139.5139  144.3155  152.0251 H   0  0  0  0  0  0  0  0  0  0  0  0  # atno 10167 bound_to 10162
  156.8958  130.9862  151.3043 H   0  0  0  0  0  0  0  0  0  0  0  0  # atno 10718 bound_to 10713
  154.8715  135.3726  154.4778 H   0  0  0  0  0  0  0  0  0  0  0  0  # atno 10763 bound_to 10752
  153.5434  135.7026  153.5631 H   0  0  0  0  0  0  0  0  0  0  0  0  # atno 10764 bound_to 10752
  153.3782  135.4003  155.1802 H   0  0  0  0  0  0  0  0  0  0  0  0  # atno 10765 bound_to 10752
  140.6503  133.9410  155.8376 H   0  0  0  0  0  0  0  0  0  0  0  0  # atno 11005 bound_to 11000
  146.2546  140.5180  142.8879 LP  0  0  0  0  0  0  0  0  0  0  0  0  # atno 17320 bound_to 7965
  144.8110  140.6385  143.6415 LP  0  0  0  0  0  0  0  0  0  0  0  0  # atno 17321 bound_to 7965
  140.2598  144.4079  150.6190 LP  0  0  0  0  0  0  0  0  0  0  0  0  # atno 17342 bound_to 10162
  140.6165  143.2173  151.6781 LP  0  0  0  0  0  0  0  0  0  0  0  0  # atno 17343 bound_to 10162
  157.6056  130.8545  149.8870 LP  0  0  0  0  0  0  0  0  0  0  0  0  # atno 17370 bound_to 10713
  156.0606  130.3700  150.0990 LP  0  0  0  0  0  0  0  0  0  0  0  0  # atno 17371 bound_to 10713
  141.0541  134.0441  157.3745 LP  0  0  0  0  0  0  0  0  0  0  0  0  # atno 17394 bound_to 11000
  139.9048  135.0176  156.7436 LP  0  0  0  0  0  0  0  0  0  0  0  0  # atno 17395 bound_to 11000

$$$$
