AV-unprocessed.smi:1075|AV-procd|sdf|4694|dock6
  -GOLD-   22720 3213D 1   1.00000     0.00000
 Structure written by MMmdl.
 50 51  0  0  0  0  0  0  0  0  1 V2000
  148.8831  132.4360  153.8199 C   0  0  0  0  0  0  0  0  0  0  0  0
  148.8003  133.7577  154.5288 C   0  0  0  0  0  0  0  0  0  0  0  0
  149.8343  134.5799  154.4857 N   0  0  0  0  0  0  0  0  0  0  0  0
  149.4457  135.6584  155.1930 N   0  0  0  0  0  0  0  0  0  0  0  0
  150.3613  136.7728  155.3442 C   0  0  0  0  0  0  0  0  0  0  0  0
  148.1599  135.5208  155.6802 C   0  0  0  0  0  0  0  0  0  0  0  0
  147.5003  136.5964  156.4846 C   0  0  0  0  0  0  0  0  0  0  0  0
  147.7076  134.2899  155.2755 C   0  0  0  0  0  0  0  0  0  0  0  0
  146.3698  133.6186  155.5185 C   0  0  1  0  0  0  0  0  0  0  0  0
  146.1303  133.3433  157.0154 C   0  0  0  0  0  0  0  0  0  0  0  0
  145.2457  134.4382  154.8618 C   0  0  0  0  0  0  0  0  0  0  0  0
  144.2609  134.7888  155.5123 O   0  0  0  0  0  0  0  0  0  0  0  0
  145.4178  134.7250  153.5584 N   0  0  0  0  0  0  0  0  0  0  0  0
  144.5484  135.4917  152.6567 C   0  0  1  0  0  0  0  0  0  0  0  0
  144.2600  136.8828  153.2615 C   0  0  0  0  0  0  0  0  0  0  0  0
  145.3107  135.6752  151.3225 C   0  0  0  0  0  0  0  0  0  0  0  0
  145.5417  134.3476  150.5759 C   0  0  0  0  0  0  0  0  0  0  0  0
  144.2183  133.6054  150.3152 C   0  0  1  0  0  0  0  0  0  0  0  0
  144.4550  132.2722  149.5918 C   0  0  0  0  0  0  0  0  0  0  0  0
  143.4459  133.4036  151.6318 C   0  0  0  0  0  0  0  0  0  0  0  0
  143.2241  134.7381  152.3674 C   0  0  0  0  0  0  0  0  0  0  0  0
  148.1079  132.3553  153.0575 H   0  0  0  0  0  0  0  0  0  0  0  0
  148.7488  131.6105  154.5191 H   0  0  0  0  0  0  0  0  0  0  0  0
  149.8465  132.2991  153.3274 H   0  0  0  0  0  0  0  0  0  0  0  0
  150.0074  137.6187  154.7546 H   0  0  0  0  0  0  0  0  0  0  0  0
  151.3615  136.4989  155.0055 H   0  0  0  0  0  0  0  0  0  0  0  0
  150.4152  137.0658  156.3928 H   0  0  0  0  0  0  0  0  0  0  0  0
  146.4148  136.5106  156.4483 H   0  0  0  0  0  0  0  0  0  0  0  0
  147.7587  137.5861  156.1082 H   0  0  0  0  0  0  0  0  0  0  0  0
  147.8079  136.5391  157.5286 H   0  0  0  0  0  0  0  0  0  0  0  0
  146.3503  132.6486  155.0206 H   0  0  0  0  0  0  0  0  0  0  0  0
  146.1011  134.2609  157.6025 H   0  0  0  0  0  0  0  0  0  0  0  0
  146.9234  132.7165  157.4239 H   0  0  0  0  0  0  0  0  0  0  0  0
  145.1881  132.8178  157.1759 H   0  0  0  0  0  0  0  0  0  0  0  0
  146.2685  134.3782  153.1391 H   0  0  0  0  0  0  0  0  0  0  0  0
  143.7013  137.5076  152.5637 H   0  0  0  0  0  0  0  0  0  0  0  0
  145.1841  137.4089  153.5040 H   0  0  0  0  0  0  0  0  0  0  0  0
  143.6674  136.8190  154.1740 H   0  0  0  0  0  0  0  0  0  0  0  0
  144.7504  136.3477  150.6714 H   0  0  0  0  0  0  0  0  0  0  0  0
  146.2703  136.1627  151.5017 H   0  0  0  0  0  0  0  0  0  0  0  0
  146.0455  134.5481  149.6299 H   0  0  0  0  0  0  0  0  0  0  0  0
  146.2172  133.7115  151.1495 H   0  0  0  0  0  0  0  0  0  0  0  0
  143.6079  134.2300  149.6612 H   0  0  0  0  0  0  0  0  0  0  0  0
  145.0603  131.5952  150.1954 H   0  0  0  0  0  0  0  0  0  0  0  0
  144.9725  132.4267  148.6449 H   0  0  0  0  0  0  0  0  0  0  0  0
  143.5117  131.7709  149.3739 H   0  0  0  0  0  0  0  0  0  0  0  0
  142.4811  132.9393  151.4264 H   0  0  0  0  0  0  0  0  0  0  0  0
  143.9857  132.7102  152.2781 H   0  0  0  0  0  0  0  0  0  0  0  0
  142.6664  134.5600  153.2868 H   0  0  0  0  0  0  0  0  0  0  0  0
  142.5793  135.3694  151.7544 H   0  0  0  0  0  0  0  0  0  0  0  0
  1  2  1  0  0  0  0
  1 22  1  0  0  0  0
  1 23  1  0  0  0  0
  1 24  1  0  0  0  0
  2  8  1  0  0  0  0
  2  3  2  0  0  0  0
  3  4  1  0  0  0  0
  4  5  1  0  0  0  0
  4  6  1  0  0  0  0
  5 25  1  0  0  0  0
  5 26  1  0  0  0  0
  5 27  1  0  0  0  0
  6  7  1  0  0  0  0
  6  8  2  0  0  0  0
  7 28  1  0  0  0  0
  7 29  1  0  0  0  0
  7 30  1  0  0  0  0
  8  9  1  0  0  0  0
  9 10  1  0  0  0  0
  9 11  1  0  0  0  0
  9 31  1  0  0  0  0
 10 32  1  0  0  0  0
 10 33  1  0  0  0  0
 10 34  1  0  0  0  0
 11 12  2  0  0  0  0
 11 13  1  0  0  0  0
 13 14  1  0  0  0  0
 13 35  1  0  0  0  0
 14 21  1  0  0  0  0
 14 15  1  0  0  0  0
 14 16  1  0  0  0  0
 15 36  1  0  0  0  0
 15 37  1  0  0  0  0
 15 38  1  0  0  0  0
 16 17  1  0  0  0  0
 16 39  1  0  0  0  0
 16 40  1  0  0  0  0
 17 18  1  0  0  0  0
 17 41  1  0  0  0  0
 17 42  1  0  0  0  0
 18 19  1  0  0  0  0
 18 20  1  0  0  0  0
 18 43  1  0  0  0  0
 19 44  1  0  0  0  0
 19 45  1  0  0  0  0
 19 46  1  0  0  0  0
 20 21  1  0  0  0  0
 20 47  1  0  0  0  0
 20 48  1  0  0  0  0
 21 49  1  0  0  0  0
 21 50  1  0  0  0  0
M  END
> <s_m_source_file>
AV-unprocessed.smi

> <i_m_source_file_index>
1075

> <i_lp_mmshare_version>
43012

> <i_f3d_flags>
0

> <s_epik_input>
W0NIM11jMW5uKFtDSDNdKWMoW0NIM10pYzFbQ0BIXShbQ0gzXSlDKD1PKVtOSF1bQ0BAXTIoW0NIM10pW0NIMl1bQ0gyXVtDQEBIXShbQ0gzXSlbQ0gyXVtDSDJdMg==

> <s_epik_cmdline>
J2VwaWtfcHl0aG9uJywgJy1waCcsICc3LjAnLCAnLXRuJywgJzgnLCAnLW1hJywgJzIwMCcsICctbWV0YWxfYmluZGluZycsICctaW1hZScsICc8aW5maWxlLm1hZT4nLCAnLW9tYWUnLCAnPG91dGZpbGUubWFlPic=

> <r_lp_tautomer_probability>
1

> <r_epik_Ionization_Penalty>
0.00502928

> <r_epik_Ionization_Penalty_Charging>
0

> <r_epik_Ionization_Penalty_Neutral>
0.00502928

> <r_epik_State_Penalty>
0.0036576

> <r_epik_Charging_Adjusted_Penalty>
0.0036576

> <i_epik_Tot_Q>
0

> <i_epik_Tot_abs_Q>
0

> <r_epik_Metal_State_Penalty>
-0

> <b_epik_Metal_Only>
0

> <s_lp_Force_Field>
OPLS_2005

> <r_lp_Energy>
4.5461

> <b_lp_Chiralities_Consistent>
1

> <s_lp_Variant>
AV-unprocessed.smi:1075-2

> <Gold.Version>
5.8.1

> <Gold.Id.Protein>
6NUR|6NUR_protein|mol2

> <Gold.PLP.Fitness>
27.2236

> <Gold.PLP.PLP>
-27.4379

> <Gold.PLP.part.hbond>
0.0000

> <Gold.PLP.part.metal>
0.0000

> <Gold.PLP.part.buried>
-4.0675

> <Gold.PLP.part.nonpolar>
-24.6368

> <Gold.PLP.part.repulsive>
0.2538

> <Gold.PLP.ligand.clash>
0.0000

> <Gold.PLP.ligand.torsion>
0.1537

> <Gold.PLP.Chemscore.Hbond>
0.0000

> <Gold.PLP.Chemscore.CHOScore>
0.0000

> <Gold.PLP.Chemscore.Metal>
0.0000

> <Gold.PLP.Chemscore.Internal.Correction>
0.0930

> <Gold.Rescore>
     Score         DG    S(hbond)    S(metal)    S(lipo)     H(rot)  DE(clash)    DE(int)     intcor
     10.37     -10.63       0.00        0.00      70.95       1.23       0.12       0.14       ----

> <Gold.Chemscore.Fitness>
10.3652

> <Gold.Chemscore.DG>
-10.6267

> <Gold.Chemscore.ZeroCoef>
-5.4800

> <Gold.Chemscore.Hbond>
0.0000

> <Gold.Chemscore.Metal>
0.0000

> <Gold.Chemscore.Lipo>
70.9467

> <Gold.Chemscore.Internal_Hbond>
0.0000

> <Gold.Chemscore.DEClash>
0.1197

> <Gold.Chemscore.DEInternal>
0.1417

> <Gold.Chemscore.Rot>
1.2321

> <Gold.Chemscore.Internal.Correction>
   9.000000E+99

> <Gold.Chemscore.Hbond.Weighted>
-0.0000

> <Gold.Chemscore.Metal.Weighted>
-0.0000

> <Gold.Chemscore.Lipo.Weighted>
-8.3008

> <Gold.Chemscore.Internal_Hbond.Weighted>
0.0000

> <Gold.Chemscore.DEClash.Weighted>
0.1197

> <Gold.Chemscore.DEInternal.Weighted>
0.1417

> <Gold.Chemscore.Rot.Weighted>
3.1541

> <Gold.Chemscore.Internal.Correction.Weighted>
   9.000000E+99

> <Gold.Protein.RotatedTorsions>
[ 6907 6896 6895 6894 ] final   -3.94 input  -60.11 | X-H torsion
[ 7974 7965 7964 7962 ] final  -68.96 input  175.53 | X-H torsion
[ 8008 7997 7996 7995 ] final   -8.74 input   59.86 | X-H torsion
[ 10167 10162 10161 10158 ] final   15.13 input  -65.29 | X-H torsion
[ 10718 10713 10712 10709 ] final -143.39 input   66.30 | X-H torsion
[ 10763 10752 10751 10750 ] final  136.03 input  -60.55 | X-H torsion
[ 11005 11000 10999 10996 ] final  138.03 input  -57.11 | X-H torsion

> <Gold.Protein.ActiveResidues>
 VAL166  LYS551  ARG553  GLY616  TRP617  ASP618  TYR619  PRO620  LYS621  CYS622 
 ASP623  PHE694  ASN695  SER759  ASP760  ASP761  ALA762  ILE779  LEU786  VAL792 
 PHE793  MET794  SER795  GLU796  ALA797  LYS798  CYS799  TRP800  GLU811  SER814 

> <Gold.Protein.RotatedAtoms>
  151.5057  135.1063  159.9840 H   0  0  0  0  0  0  0  0  0  0  0  0  # atno 6907 bound_to 6896
  152.4683  133.7968  159.6942 H   0  0  0  0  0  0  0  0  0  0  0  0  # atno 6908 bound_to 6896
  150.8678  133.7486  159.2997 H   0  0  0  0  0  0  0  0  0  0  0  0  # atno 6909 bound_to 6896
  145.7099  140.9082  143.0686 H   0  0  0  0  0  0  0  0  0  0  0  0  # atno 7974 bound_to 7965
  154.5712  140.2373  155.8188 H   0  0  0  0  0  0  0  0  0  0  0  0  # atno 8008 bound_to 7997
  156.2108  140.3026  155.9687 H   0  0  0  0  0  0  0  0  0  0  0  0  # atno 8009 bound_to 7997
  155.2708  140.0418  157.2997 H   0  0  0  0  0  0  0  0  0  0  0  0  # atno 8010 bound_to 7997
  140.5888  143.8836  150.6855 H   0  0  0  0  0  0  0  0  0  0  0  0  # atno 10167 bound_to 10162
  156.3574  130.7720  151.1882 H   0  0  0  0  0  0  0  0  0  0  0  0  # atno 10718 bound_to 10713
  153.8498  135.3081  155.3432 H   0  0  0  0  0  0  0  0  0  0  0  0  # atno 10763 bound_to 10752
  154.7896  135.4790  154.0026 H   0  0  0  0  0  0  0  0  0  0  0  0  # atno 10764 bound_to 10752
  153.1525  135.6846  153.8954 H   0  0  0  0  0  0  0  0  0  0  0  0  # atno 10765 bound_to 10752
  140.0155  134.9420  157.0367 H   0  0  0  0  0  0  0  0  0  0  0  0  # atno 11005 bound_to 11000
  144.6945  139.9060  143.7461 LP  0  0  0  0  0  0  0  0  0  0  0  0  # atno 17320 bound_to 7965
  146.0722  139.3711  143.0516 LP  0  0  0  0  0  0  0  0  0  0  0  0  # atno 17321 bound_to 7965
  140.2354  143.3704  152.1531 LP  0  0  0  0  0  0  0  0  0  0  0  0  # atno 17342 bound_to 10162
  139.5214  144.7046  151.5392 LP  0  0  0  0  0  0  0  0  0  0  0  0  # atno 17343 bound_to 10162
  157.7469  131.0410  150.4625 LP  0  0  0  0  0  0  0  0  0  0  0  0  # atno 17370 bound_to 10713
  156.4830  130.4078  149.6451 LP  0  0  0  0  0  0  0  0  0  0  0  0  # atno 17371 bound_to 10713
  140.4478  134.1613  155.7179 LP  0  0  0  0  0  0  0  0  0  0  0  0  # atno 17394 bound_to 11000
  141.1740  133.8552  157.1481 LP  0  0  0  0  0  0  0  0  0  0  0  0  # atno 17395 bound_to 11000

$$$$
