AV-unprocessed.smi:2504|AV-procd|sdf|9849|dock4
  -GOLD-   2272013473D 1   1.00000     0.00000
 Structure written by MMmdl.
 46 48  0  0  0  0  0  0  0  0  1 V2000
  153.3090  140.8078  158.9633 O   0  0  0  0  0  0  0  0  0  0  0  0
  152.2490  141.1870  158.4638 C   0  0  0  0  0  0  0  0  0  0  0  0
  151.9755  142.6862  158.2166 C   0  0  0  0  0  0  0  0  0  0  0  0
  152.9847  143.6308  158.9039 C   0  0  0  0  0  0  0  0  0  0  0  0
  152.1850  144.8844  159.2499 C   0  0  0  0  0  0  0  0  0  0  0  0
  150.8157  144.3410  159.6436 C   0  0  0  0  0  0  0  0  0  0  0  0
  150.5829  143.1481  158.7104 C   0  0  0  0  0  0  0  0  0  0  0  0
  151.3001  140.2702  158.0002 N   0  0  0  0  0  0  0  0  0  0  0  0
  150.5750  140.4772  156.7553 C   0  0  0  0  0  0  0  0  0  0  0  0
  150.4896  138.9463  156.6894 C   0  0  0  0  0  0  0  0  0  0  0  0
  150.8944  138.2194  155.0402 S   0  0  0  0  0  0  0  0  0  0  0  0
  150.8437  139.2709  154.0124 O   0  0  0  0  0  0  0  0  0  0  0  0
  152.0944  137.3791  155.1705 O   0  0  0  0  0  0  0  0  0  0  0  0
  149.5579  137.1667  154.7720 N   0  0  0  0  0  0  0  0  0  0  0  0
  149.4479  135.9680  155.6023 C   0  0  0  0  0  0  0  0  0  0  0  0
  150.5124  134.9336  155.2058 C   0  0  0  0  0  0  0  0  0  0  0  0
  149.9156  133.6044  154.7779 C   0  0  0  0  0  0  0  0  0  0  0  0
  150.3246  132.3996  155.3858 C   0  0  0  0  0  0  0  0  0  0  0  0
  149.7367  131.1921  154.9623 C   0  0  0  0  0  0  0  0  0  0  0  0
  148.7617  131.2412  153.9461 C   0  0  0  0  0  0  0  0  0  0  0  0
  148.3631  132.3887  153.3556 N   0  0  0  0  0  0  0  0  0  0  0  0
  148.9336  133.5417  153.7660 C   0  0  0  0  0  0  0  0  0  0  0  0
  151.6688  138.9020  157.6680 C   0  0  0  0  0  0  0  0  0  0  0  0
  152.0357  142.8669  157.1426 H   0  0  0  0  0  0  0  0  0  0  0  0
  153.3728  143.2013  159.8289 H   0  0  0  0  0  0  0  0  0  0  0  0
  153.8383  143.8582  158.2643 H   0  0  0  0  0  0  0  0  0  0  0  0
  152.6475  145.4736  160.0423 H   0  0  0  0  0  0  0  0  0  0  0  0
  152.0918  145.5207  158.3685 H   0  0  0  0  0  0  0  0  0  0  0  0
  150.8449  143.9961  160.6782 H   0  0  0  0  0  0  0  0  0  0  0  0
  150.0290  145.0924  159.5669 H   0  0  0  0  0  0  0  0  0  0  0  0
  149.9804  143.4587  157.8560 H   0  0  0  0  0  0  0  0  0  0  0  0
  150.0214  142.3677  159.2263 H   0  0  0  0  0  0  0  0  0  0  0  0
  149.6131  140.9753  156.8782 H   0  0  0  0  0  0  0  0  0  0  0  0
  151.1840  140.9311  155.9720 H   0  0  0  0  0  0  0  0  0  0  0  0
  149.5713  138.5274  157.1045 H   0  0  0  0  0  0  0  0  0  0  0  0
  148.6810  137.6875  154.7747 H   0  0  0  0  0  0  0  0  0  0  0  0
  149.5692  136.2467  156.6495 H   0  0  0  0  0  0  0  0  0  0  0  0
  148.4473  135.5478  155.4945 H   0  0  0  0  0  0  0  0  0  0  0  0
  151.1343  135.3284  154.4010 H   0  0  0  0  0  0  0  0  0  0  0  0
  151.1825  134.7588  156.0484 H   0  0  0  0  0  0  0  0  0  0  0  0
  151.0736  132.4002  156.1642 H   0  0  0  0  0  0  0  0  0  0  0  0
  150.0253  130.2507  155.4058 H   0  0  0  0  0  0  0  0  0  0  0  0
  148.2894  130.3344  153.5981 H   0  0  0  0  0  0  0  0  0  0  0  0
  148.5896  134.4416  153.2773 H   0  0  0  0  0  0  0  0  0  0  0  0
  152.6415  138.8197  157.1782 H   0  0  0  0  0  0  0  0  0  0  0  0
  151.5504  138.1966  158.4907 H   0  0  0  0  0  0  0  0  0  0  0  0
  1  2  2  0  0  0  0
  2  3  1  0  0  0  0
  2  8  1  0  0  0  0
  3  7  1  0  0  0  0
  3  4  1  0  0  0  0
  3 24  1  0  0  0  0
  4  5  1  0  0  0  0
  4 25  1  0  0  0  0
  4 26  1  0  0  0  0
  5  6  1  0  0  0  0
  5 27  1  0  0  0  0
  5 28  1  0  0  0  0
  6  7  1  0  0  0  0
  6 29  1  0  0  0  0
  6 30  1  0  0  0  0
  7 31  1  0  0  0  0
  7 32  1  0  0  0  0
  8 23  1  0  0  0  0
  8  9  1  0  0  0  0
  9 10  1  0  0  0  0
  9 33  1  0  0  0  0
  9 34  1  0  0  0  0
 10 11  1  0  0  0  0
 10 23  1  0  0  0  0
 10 35  1  0  0  0  0
 11 12  2  0  0  0  0
 11 13  2  0  0  0  0
 11 14  1  0  0  0  0
 14 15  1  0  0  0  0
 14 36  1  0  0  0  0
 15 16  1  0  0  0  0
 15 37  1  0  0  0  0
 15 38  1  0  0  0  0
 16 17  1  0  0  0  0
 16 39  1  0  0  0  0
 16 40  1  0  0  0  0
 17 22  1  0  0  0  0
 17 18  2  0  0  0  0
 18 19  1  0  0  0  0
 18 41  1  0  0  0  0
 19 20  2  0  0  0  0
 19 42  1  0  0  0  0
 20 21  1  0  0  0  0
 20 43  1  0  0  0  0
 21 22  2  0  0  0  0
 22 44  1  0  0  0  0
 23 45  1  0  0  0  0
 23 46  1  0  0  0  0
M  END
> <s_m_source_file>
AV-unprocessed.smi

> <i_m_source_file_index>
2504

> <i_lp_mmshare_version>
43012

> <i_f3d_flags>
0

> <s_epik_input>
W0NIMl0xW0NIMl1bQ0gyXVtDSDJdW0NIXTFDKD1PKU4yW0NIMl1bQ0hdKFtDSDJdMilTKD1PKSg9TylbTkhdW0NIMl1bQ0gyXWMzW2NIXVtjSF1bY0hdbltjSF0z

> <s_epik_cmdline>
J2VwaWtfcHl0aG9uJywgJy1waCcsICc3LjAnLCAnLXRuJywgJzgnLCAnLW1hJywgJzIwMCcsICctbWV0YWxfYmluZGluZycsICctaW1hZScsICc8aW5maWxlLm1hZT4nLCAnLW9tYWUnLCAnPG91dGZpbGUubWFlPic=

> <r_epik_Ionization_Penalty>
0.0107611

> <r_epik_Ionization_Penalty_Charging>
0

> <r_epik_Ionization_Penalty_Neutral>
0.0107611

> <r_epik_State_Penalty>
0.00821942

> <r_epik_Charging_Adjusted_Penalty>
0.00821942

> <i_epik_Tot_Q>
0

> <i_epik_Tot_abs_Q>
0

> <r_epik_Metal_State_Penalty>
0.0376733

> <b_epik_Metal_Only>
0

> <s_lp_Force_Field>
OPLS_2005

> <r_lp_Energy>
34.3459

> <b_lp_Chiralities_Consistent>
1

> <s_lp_Variant>
AV-unprocessed.smi:2504-1

> <Gold.Version>
5.8.1

> <Gold.Id.Protein>
6NUR|6NUR_protein|mol2

> <Gold.PLP.Fitness>
47.8422

> <Gold.PLP.PLP>
-40.7343

> <Gold.PLP.part.hbond>
-3.2080

> <Gold.PLP.part.metal>
0.0000

> <Gold.PLP.part.buried>
-4.3263

> <Gold.PLP.part.nonpolar>
-33.7796

> <Gold.PLP.part.repulsive>
0.3998

> <Gold.PLP.ligand.clash>
0.0000

> <Gold.PLP.ligand.torsion>
1.5598

> <Gold.PLP.Chemscore.Hbond>
1.8112

> <Gold.PLP.Chemscore.CHOScore>
1.0000

> <Gold.PLP.Chemscore.Metal>
0.0000

> <Gold.Chemscore.Hbonds>
donor molecule, donor type, donor heavy atom, donor atom, acceptor molecule, acceptor atom, score
      P1  H  7989  7998       L1    12  1.00
      P1  H 10752 10764       L1    13  0.78
      L1  C    22    44       P1  7948  1.00

> <Gold.PLP.Chemscore.Internal.Correction>
1.7940

> <Gold.Rescore>
     Score         DG    S(hbond)    S(metal)    S(lipo)     H(rot)  DE(clash)    DE(int)     intcor
     15.53     -18.41       1.84        0.00      98.30       1.85       0.34       2.53       ----

> <Gold.Chemscore.Fitness>
15.5310

> <Gold.Chemscore.DG>
-18.4075

> <Gold.Chemscore.ZeroCoef>
-5.4800

> <Gold.Chemscore.Hbond>
1.8445

> <Gold.Chemscore.Metal>
0.0000

> <Gold.Chemscore.Lipo>
98.3041

> <Gold.Chemscore.Internal_Hbond>
0.0000

> <Gold.Chemscore.DEClash>
0.3442

> <Gold.Chemscore.DEInternal>
2.5323

> <Gold.Chemscore.Rot>
1.8494

> <Gold.Chemscore.Internal.Correction>
   9.000000E+99

> <Gold.Chemscore.Hbonds>
donor molecule, donor type, donor heavy atom, donor atom, acceptor molecule, acceptor atom, score
      P1  H  7989  7998       L1    12  0.99
      P1  H 10752 10764       L1    13  0.74

> <Gold.Chemscore.Hbond.Weighted>
-6.1605

> <Gold.Chemscore.Metal.Weighted>
-0.0000

> <Gold.Chemscore.Lipo.Weighted>
-11.5016

> <Gold.Chemscore.Internal_Hbond.Weighted>
0.0000

> <Gold.Chemscore.DEClash.Weighted>
0.3442

> <Gold.Chemscore.DEInternal.Weighted>
2.5323

> <Gold.Chemscore.Rot.Weighted>
4.7346

> <Gold.Chemscore.Internal.Correction.Weighted>
   9.000000E+99

> <Gold.Protein.RotatedTorsions>
[ 6907 6896 6895 6894 ] final  154.40 input  -60.11 | X-H torsion
[ 7974 7965 7964 7962 ] final  -26.01 input  175.53 | X-H torsion
[ 8008 7997 7996 7995 ] final -143.55 input   59.86 | X-H torsion
[ 10167 10162 10161 10158 ] final   48.32 input  -65.29 | X-H torsion
[ 10718 10713 10712 10709 ] final   40.98 input   66.30 | X-H torsion
[ 10763 10752 10751 10750 ] final  -57.80 input  -60.55 | X-H torsion
[ 11005 11000 10999 10996 ] final -105.13 input  -57.11 | X-H torsion

> <Gold.Protein.ActiveResidues>
 VAL166  LYS551  ARG553  GLY616  TRP617  ASP618  TYR619  PRO620  LYS621  CYS622 
 ASP623  PHE694  ASN695  SER759  ASP760  ASP761  ALA762  ILE779  LEU786  VAL792 
 PHE793  MET794  SER795  GLU796  ALA797  LYS798  CYS799  TRP800  GLU811  SER814 

> <Gold.Protein.RotatedAtoms>
  152.0590  133.4053  159.4409 H   0  0  0  0  0  0  0  0  0  0  0  0  # atno 6907 bound_to 6896
  150.6867  134.3221  159.4800 H   0  0  0  0  0  0  0  0  0  0  0  0  # atno 6908 bound_to 6896
  152.1040  134.9321  160.0619 H   0  0  0  0  0  0  0  0  0  0  0  0  # atno 6909 bound_to 6896
  146.1454  140.4962  142.8634 H   0  0  0  0  0  0  0  0  0  0  0  0  # atno 7974 bound_to 7965
  155.5124  140.0584  157.2921 H   0  0  0  0  0  0  0  0  0  0  0  0  # atno 8008 bound_to 7997
  154.4547  140.1967  156.0363 H   0  0  0  0  0  0  0  0  0  0  0  0  # atno 8009 bound_to 7997
  156.0775  140.3251  155.7656 H   0  0  0  0  0  0  0  0  0  0  0  0  # atno 8010 bound_to 7997
  140.2944  144.3007  150.6233 H   0  0  0  0  0  0  0  0  0  0  0  0  # atno 10167 bound_to 10162
  157.3884  130.7792  149.7249 H   0  0  0  0  0  0  0  0  0  0  0  0  # atno 10718 bound_to 10713
  154.2281  135.6365  153.5166 H   0  0  0  0  0  0  0  0  0  0  0  0  # atno 10763 bound_to 10752
  152.9954  135.5513  154.6042 H   0  0  0  0  0  0  0  0  0  0  0  0  # atno 10764 bound_to 10752
  154.5518  135.2902  155.0975 H   0  0  0  0  0  0  0  0  0  0  0  0  # atno 10765 bound_to 10752
  141.1068  133.8781  157.1696 H   0  0  0  0  0  0  0  0  0  0  0  0  # atno 11005 bound_to 11000
  144.7840  140.5899  143.6586 LP  0  0  0  0  0  0  0  0  0  0  0  0  # atno 17320 bound_to 7965
  145.4950  139.1486  143.3689 LP  0  0  0  0  0  0  0  0  0  0  0  0  # atno 17321 bound_to 7965
  140.5704  143.2181  151.7609 LP  0  0  0  0  0  0  0  0  0  0  0  0  # atno 17342 bound_to 10162
  139.4930  144.4224  151.9963 LP  0  0  0  0  0  0  0  0  0  0  0  0  # atno 17343 bound_to 10162
  155.9792  130.4042  150.3601 LP  0  0  0  0  0  0  0  0  0  0  0  0  # atno 17370 bound_to 10713
  157.1714  131.0369  151.2793 LP  0  0  0  0  0  0  0  0  0  0  0  0  # atno 17371 bound_to 10713
  139.9942  135.0053  157.0045 LP  0  0  0  0  0  0  0  0  0  0  0  0  # atno 17394 bound_to 11000
  140.4881  134.1221  155.7228 LP  0  0  0  0  0  0  0  0  0  0  0  0  # atno 17395 bound_to 11000

$$$$
