AV-unprocessed.smi:1941|AV-procd|sdf|7847|dock7
  -GOLD-   22720 9593D 1   1.00000     0.00000
 Structure written by MMmdl.
 40 41  0  0  0  0  0  0  0  0  1 V2000
  146.6571  131.2239  152.3631 C   0  0  0  0  0  0  0  0  0  0  0  0
  145.8170  132.2090  151.6251 C   0  0  0  0  0  0  0  0  0  0  0  0
  146.0420  133.5255  151.6316 N   0  0  0  0  0  0  0  0  0  0  0  0
  145.1125  134.2342  150.8635 C   0  0  0  0  0  0  0  0  0  0  0  0
  145.2123  135.7254  150.7522 C   0  0  0  0  0  0  0  0  0  0  0  0
  145.1855  136.4141  152.1272 C   0  0  0  0  0  0  0  0  0  0  0  0
  146.4980  136.9331  152.4945 N   0  0  0  0  0  0  0  0  0  0  0  0
  146.7077  137.9640  153.3248 C   0  0  0  0  0  0  0  0  0  0  0  0
  145.8068  138.6045  153.8670 O   0  0  0  0  0  0  0  0  0  0  0  0
  148.0152  138.2014  153.5004 N   0  0  0  0  0  0  0  0  0  0  0  0
  148.5917  139.2307  154.3655 C   0  0  2  0  0  0  0  0  0  0  0  0
  147.9027  140.5758  154.0948 C   0  0  0  0  0  0  0  0  0  0  0  0
  150.1198  139.3139  154.1716 C   0  0  1  0  0  0  0  0  0  0  0  0
  150.8629  140.2256  155.1598 C   0  0  0  0  0  0  0  0  0  0  0  0
  152.1800  139.5058  155.4192 C   0  0  0  0  0  0  0  0  0  0  0  0
  152.1223  138.2796  154.5108 C   0  0  0  0  0  0  0  0  0  0  0  0
  150.7336  138.0446  154.3484 O   0  0  0  0  0  0  0  0  0  0  0  0
  144.1752  133.4272  150.2682 C   0  0  0  0  0  0  0  0  0  0  0  0
  144.4250  131.7468  150.6536 S   0  0  0  0  0  0  0  0  0  0  0  0
  147.4254  131.7335  152.9457 H   0  0  0  0  0  0  0  0  0  0  0  0
  147.1426  130.5476  151.6596 H   0  0  0  0  0  0  0  0  0  0  0  0
  146.0354  130.6388  153.0408 H   0  0  0  0  0  0  0  0  0  0  0  0
  146.1291  135.9921  150.2247 H   0  0  0  0  0  0  0  0  0  0  0  0
  144.3949  136.1071  150.1387 H   0  0  0  0  0  0  0  0  0  0  0  0
  144.4836  137.2482  152.1125 H   0  0  0  0  0  0  0  0  0  0  0  0
  144.8304  135.7231  152.8937 H   0  0  0  0  0  0  0  0  0  0  0  0
  147.3010  136.4688  152.0961 H   0  0  0  0  0  0  0  0  0  0  0  0
  148.6720  137.6101  153.0123 H   0  0  0  0  0  0  0  0  0  0  0  0
  148.4106  138.9843  155.4131 H   0  0  0  0  0  0  0  0  0  0  0  0
  148.2951  141.3555  154.7483 H   0  0  0  0  0  0  0  0  0  0  0  0
  146.8287  140.5093  154.2724 H   0  0  0  0  0  0  0  0  0  0  0  0
  148.0509  140.9001  153.0642 H   0  0  0  0  0  0  0  0  0  0  0  0
  150.3385  139.6518  153.1569 H   0  0  0  0  0  0  0  0  0  0  0  0
  151.0133  141.2209  154.7409 H   0  0  0  0  0  0  0  0  0  0  0  0
  150.3208  140.3462  156.0978 H   0  0  0  0  0  0  0  0  0  0  0  0
  153.0500  140.1289  155.2098 H   0  0  0  0  0  0  0  0  0  0  0  0
  152.2316  139.1969  156.4639 H   0  0  0  0  0  0  0  0  0  0  0  0
  152.5699  138.4945  153.5392 H   0  0  0  0  0  0  0  0  0  0  0  0
  152.6299  137.4146  154.9382 H   0  0  0  0  0  0  0  0  0  0  0  0
  143.3567  133.7193  149.6268 H   0  0  0  0  0  0  0  0  0  0  0  0
  1  2  1  0  0  0  0
  1 20  1  0  0  0  0
  1 21  1  0  0  0  0
  1 22  1  0  0  0  0
  2 19  1  0  0  0  0
  2  3  2  0  0  0  0
  3  4  1  0  0  0  0
  4  5  1  0  0  0  0
  4 18  2  0  0  0  0
  5  6  1  0  0  0  0
  5 23  1  0  0  0  0
  5 24  1  0  0  0  0
  6  7  1  0  0  0  0
  6 25  1  0  0  0  0
  6 26  1  0  0  0  0
  7  8  1  0  0  0  0
  7 27  1  0  0  0  0
  8  9  2  0  0  0  0
  8 10  1  0  0  0  0
 10 11  1  0  0  0  0
 10 28  1  0  0  0  0
 11 12  1  0  0  0  0
 11 13  1  0  0  0  0
 11 29  1  0  0  0  0
 12 30  1  0  0  0  0
 12 31  1  0  0  0  0
 12 32  1  0  0  0  0
 13 17  1  0  0  0  0
 13 14  1  0  0  0  0
 13 33  1  0  0  0  0
 14 15  1  0  0  0  0
 14 34  1  0  0  0  0
 14 35  1  0  0  0  0
 15 16  1  0  0  0  0
 15 36  1  0  0  0  0
 15 37  1  0  0  0  0
 16 17  1  0  0  0  0
 16 38  1  0  0  0  0
 16 39  1  0  0  0  0
 18 19  1  0  0  0  0
 18 40  1  0  0  0  0
M  END
> <s_m_source_file>
AV-unprocessed.smi

> <i_m_source_file_index>
1941

> <i_lp_mmshare_version>
43012

> <i_f3d_flags>
0

> <s_epik_input>
W0NIM11jMW5jKFtjSF1zMSlbQ0gyXVtDSDJdW05IXUMoPU8pW05IXVtDQEhdKFtDSDNdKVtDQEBIXTJbQ0gyXVtDSDJdW0NIMl1PMg==

> <s_epik_cmdline>
J2VwaWtfcHl0aG9uJywgJy1waCcsICc3LjAnLCAnLXRuJywgJzgnLCAnLW1hJywgJzIwMCcsICctbWV0YWxfYmluZGluZycsICctaW1hZScsICc8aW5maWxlLm1hZT4nLCAnLW9tYWUnLCAnPG91dGZpbGUubWFlPic=

> <r_epik_Ionization_Penalty>
0.00195486

> <r_epik_Ionization_Penalty_Charging>
0

> <r_epik_Ionization_Penalty_Neutral>
0.00195486

> <r_epik_State_Penalty>
0.00129472

> <r_epik_Charging_Adjusted_Penalty>
0.00129472

> <i_epik_Tot_Q>
0

> <i_epik_Tot_abs_Q>
0

> <r_epik_Metal_State_Penalty>
-0

> <b_epik_Metal_Only>
0

> <s_lp_Force_Field>
OPLS_2005

> <r_lp_Energy>
12.2091

> <b_lp_Chiralities_Consistent>
1

> <s_lp_Variant>
AV-unprocessed.smi:1941-3

> <Gold.Version>
5.8.1

> <Gold.Id.Protein>
6NUR|6NUR_protein|mol2

> <Gold.PLP.Fitness>
43.3348

> <Gold.PLP.PLP>
-35.6401

> <Gold.PLP.part.hbond>
-2.0000

> <Gold.PLP.part.metal>
0.0000

> <Gold.PLP.part.buried>
-3.9573

> <Gold.PLP.part.nonpolar>
-31.4916

> <Gold.PLP.part.repulsive>
0.5632

> <Gold.PLP.ligand.clash>
0.0000

> <Gold.PLP.ligand.torsion>
0.6444

> <Gold.PLP.Chemscore.Hbond>
1.9760

> <Gold.PLP.Chemscore.CHOScore>
1.0000

> <Gold.PLP.Chemscore.Metal>
0.0000

> <Gold.Chemscore.Hbonds>
donor molecule, donor type, donor heavy atom, donor atom, acceptor molecule, acceptor atom, score
      L1  H     7    27       P1  7948  1.00
      L1  H    10    28       P1  7948  0.99
      L1  C    18    40       P1 10186  1.00

> <Gold.PLP.Chemscore.Internal.Correction>
0.0555

> <Gold.Rescore>
     Score         DG    S(hbond)    S(metal)    S(lipo)     H(rot)  DE(clash)    DE(int)     intcor
     16.07     -18.25       1.92        0.00      91.33       1.69       0.10       2.09       ----

> <Gold.Chemscore.Fitness>
16.0657

> <Gold.Chemscore.DG>
-18.2518

> <Gold.Chemscore.ZeroCoef>
-5.4800

> <Gold.Chemscore.Hbond>
1.9216

> <Gold.Chemscore.Metal>
0.0000

> <Gold.Chemscore.Lipo>
91.3334

> <Gold.Chemscore.Internal_Hbond>
0.0000

> <Gold.Chemscore.DEClash>
0.1006

> <Gold.Chemscore.DEInternal>
2.0855

> <Gold.Chemscore.Rot>
1.6923

> <Gold.Chemscore.Internal.Correction>
   9.000000E+99

> <Gold.Chemscore.Hbonds>
donor molecule, donor type, donor heavy atom, donor atom, acceptor molecule, acceptor atom, score
      L1  H     7    27       P1  7948  0.98
      L1  H    10    28       P1  7948  0.93

> <Gold.Chemscore.Hbond.Weighted>
-6.4181

> <Gold.Chemscore.Metal.Weighted>
-0.0000

> <Gold.Chemscore.Lipo.Weighted>
-10.6860

> <Gold.Chemscore.Internal_Hbond.Weighted>
0.0000

> <Gold.Chemscore.DEClash.Weighted>
0.1006

> <Gold.Chemscore.DEInternal.Weighted>
2.0855

> <Gold.Chemscore.Rot.Weighted>
4.3323

> <Gold.Chemscore.Internal.Correction.Weighted>
   9.000000E+99

> <Gold.Protein.RotatedTorsions>
[ 6907 6896 6895 6894 ] final    5.56 input  -60.11 | X-H torsion
[ 7974 7965 7964 7962 ] final  173.25 input  175.53 | X-H torsion
[ 8008 7997 7996 7995 ] final  -68.02 input   59.86 | X-H torsion
[ 10167 10162 10161 10158 ] final -142.28 input  -65.29 | X-H torsion
[ 10718 10713 10712 10709 ] final  -60.67 input   66.30 | X-H torsion
[ 10763 10752 10751 10750 ] final -143.02 input  -60.55 | X-H torsion
[ 11005 11000 10999 10996 ] final  -20.10 input  -57.11 | X-H torsion

> <Gold.Protein.ActiveResidues>
 VAL166  LYS551  ARG553  GLY616  TRP617  ASP618  TYR619  PRO620  LYS621  CYS622 
 ASP623  PHE694  ASN695  SER759  ASP760  ASP761  ALA762  ILE779  LEU786  VAL792 
 PHE793  MET794  SER795  GLU796  ALA797  LYS798  CYS799  TRP800  GLU811  SER814 

> <Gold.Protein.RotatedAtoms>
  151.6595  135.0991  160.0176 H   0  0  0  0  0  0  0  0  0  0  0  0  # atno 6907 bound_to 6896
  152.3955  133.6736  159.6281 H   0  0  0  0  0  0  0  0  0  0  0  0  # atno 6908 bound_to 6896
  150.7862  133.8799  159.3324 H   0  0  0  0  0  0  0  0  0  0  0  0  # atno 6909 bound_to 6896
  144.7248  139.9620  143.6435 H   0  0  0  0  0  0  0  0  0  0  0  0  # atno 7974 bound_to 7965
  154.4839  140.0881  156.7442 H   0  0  0  0  0  0  0  0  0  0  0  0  # atno 8008 bound_to 7997
  155.4399  140.3453  155.4270 H   0  0  0  0  0  0  0  0  0  0  0  0  # atno 8009 bound_to 7997
  156.1233  140.1480  156.9161 H   0  0  0  0  0  0  0  0  0  0  0  0  # atno 8010 bound_to 7997
  139.8104  143.7710  152.2663 H   0  0  0  0  0  0  0  0  0  0  0  0  # atno 10167 bound_to 10162
  156.0974  130.4191  150.0887 H   0  0  0  0  0  0  0  0  0  0  0  0  # atno 10718 bound_to 10713
  154.8486  135.3479  154.6120 H   0  0  0  0  0  0  0  0  0  0  0  0  # atno 10763 bound_to 10752
  153.6729  135.6984  153.5146 H   0  0  0  0  0  0  0  0  0  0  0  0  # atno 10764 bound_to 10752
  153.2728  135.4287  155.0961 H   0  0  0  0  0  0  0  0  0  0  0  0  # atno 10765 bound_to 10752
  140.8431  133.7912  155.9883 H   0  0  0  0  0  0  0  0  0  0  0  0  # atno 11005 bound_to 11000
  146.0630  139.3622  143.0570 LP  0  0  0  0  0  0  0  0  0  0  0  0  # atno 17320 bound_to 7965
  145.8068  140.9745  143.0970 LP  0  0  0  0  0  0  0  0  0  0  0  0  # atno 17321 bound_to 7965
  139.7858  144.7428  151.0024 LP  0  0  0  0  0  0  0  0  0  0  0  0  # atno 17342 bound_to 10162
  140.7818  143.4494  151.0435 LP  0  0  0  0  0  0  0  0  0  0  0  0  # atno 17343 bound_to 10162
  156.8882  130.9579  151.3591 LP  0  0  0  0  0  0  0  0  0  0  0  0  # atno 17370 bound_to 10713
  157.6138  130.8603  149.8995 LP  0  0  0  0  0  0  0  0  0  0  0  0  # atno 17371 bound_to 10713
  140.8873  134.2538  157.5113 LP  0  0  0  0  0  0  0  0  0  0  0  0  # atno 17394 bound_to 11000
  139.8703  134.9644  156.4495 LP  0  0  0  0  0  0  0  0  0  0  0  0  # atno 17395 bound_to 11000

$$$$
