AV-unprocessed.smi:54|AV-procd|sdf|536|dock5
  -GOLD-   2262016423D 1   1.00000     0.00000
 Structure written by MMmdl.
 44 46  0  0  0  0  0  0  0  0  1 V2000
  150.1574  137.4009  154.7834 C   0  0  0  0  0  0  0  0  0  0  0  0
  148.7908  137.0987  155.4184 C   0  0  0  0  0  0  0  0  0  0  0  0
  148.6970  137.6734  156.8414 C   0  0  0  0  0  0  0  0  0  0  0  0
  148.5228  135.5894  155.4226 C   0  0  0  0  0  0  0  0  0  0  0  0
  148.3239  134.9648  156.4653 O   0  0  0  0  0  0  0  0  0  0  0  0
  148.5283  134.9534  154.1171 N   0  0  0  0  0  0  0  0  0  0  0  0
  148.3288  133.6441  153.8385 C   0  0  0  0  0  0  0  0  0  0  0  0
  147.2957  133.1992  153.1370 N   0  0  0  0  0  0  0  0  0  0  0  0
  147.2715  131.8440  152.9601 C   0  0  0  0  0  0  0  0  0  0  0  0
  148.1968  130.9349  153.4284 C   0  0  0  0  0  0  0  0  0  0  0  0
  147.8336  129.6457  153.0533 N   0  0  0  0  0  0  0  0  0  0  0  0
  146.7251  129.8102  152.3862 C   0  0  0  0  0  0  0  0  0  0  0  0
  146.3169  131.1190  152.2829 N   0  0  0  0  0  0  0  0  0  0  0  0
  145.1114  131.6853  151.6074 C   0  0  1  0  0  0  0  0  0  0  0  0
  145.0393  133.0452  151.8769 O   0  0  0  0  0  0  0  0  0  0  0  0
  144.2667  133.6787  150.8618 C   0  0  1  0  0  0  0  0  0  0  0  0
  144.8903  135.0529  150.5743 C   0  0  0  0  0  0  0  0  0  0  0  0
  144.3481  136.0280  151.4397 O   0  0  0  0  0  0  0  0  0  0  0  0
  144.2791  132.7190  149.6511 C   0  0  2  0  0  0  0  0  0  0  0  0
  142.9668  132.2450  149.4183 O   0  0  0  0  0  0  0  0  0  0  0  0
  145.1756  131.5646  150.0833 C   0  0  1  0  0  0  0  0  0  0  0  0
  146.4875  131.7219  149.5718 O   0  0  0  0  0  0  0  0  0  0  0  0
  149.3245  131.4014  154.1823 C   0  0  0  0  0  0  0  0  0  0  0  0
  150.2405  130.7427  154.6700 O   0  0  0  0  0  0  0  0  0  0  0  0
  149.3129  132.7933  154.3426 N   0  0  0  0  0  0  0  0  0  0  0  0
  144.2556  131.1689  152.0454 H   0  0  0  0  0  0  0  0  0  0  0  0
  143.2551  133.8074  151.2519 H   0  0  0  0  0  0  0  0  0  0  0  0
  144.6364  133.1945  148.7363 H   0  0  0  0  0  0  0  0  0  0  0  0
  144.8008  130.5881  149.7721 H   0  0  0  0  0  0  0  0  0  0  0  0
  150.2230  136.9950  153.7730 H   0  0  0  0  0  0  0  0  0  0  0  0
  150.9747  136.9750  155.3670 H   0  0  0  0  0  0  0  0  0  0  0  0
  150.3257  138.4759  154.7145 H   0  0  0  0  0  0  0  0  0  0  0  0
  148.0219  137.5788  154.8114 H   0  0  0  0  0  0  0  0  0  0  0  0
  147.7297  137.4538  157.2950 H   0  0  0  0  0  0  0  0  0  0  0  0
  148.8149  138.7572  156.8318 H   0  0  0  0  0  0  0  0  0  0  0  0
  149.4707  137.2637  157.4924 H   0  0  0  0  0  0  0  0  0  0  0  0
  148.7272  135.5571  153.3335 H   0  0  0  0  0  0  0  0  0  0  0  0
  146.1782  128.9833  151.9572 H   0  0  0  0  0  0  0  0  0  0  0  0
  145.9683  135.0172  150.7337 H   0  0  0  0  0  0  0  0  0  0  0  0
  144.7266  135.3466  149.5371 H   0  0  0  0  0  0  0  0  0  0  0  0
  144.2395  136.8323  150.9557 H   0  0  0  0  0  0  0  0  0  0  0  0
  142.3715  132.9778  149.4644 H   0  0  0  0  0  0  0  0  0  0  0  0
  147.0636  131.1421  150.0455 H   0  0  0  0  0  0  0  0  0  0  0  0
  150.0777  133.1926  154.8663 H   0  0  0  0  0  0  0  0  0  0  0  0
  1  2  1  0  0  0  0
  1 30  1  0  0  0  0
  1 31  1  0  0  0  0
  1 32  1  0  0  0  0
  2  3  1  0  0  0  0
  2  4  1  0  0  0  0
  2 33  1  0  0  0  0
  3 34  1  0  0  0  0
  3 35  1  0  0  0  0
  3 36  1  0  0  0  0
  4  5  2  0  0  0  0
  4  6  1  0  0  0  0
  6 37  1  0  0  0  0
  6  7  1  0  0  0  0
  7 25  1  0  0  0  0
  7  8  2  0  0  0  0
  8  9  1  0  0  0  0
  9 13  1  0  0  0  0
  9 10  2  0  0  0  0
 10 11  1  0  0  0  0
 10 23  1  0  0  0  0
 11 12  2  0  0  0  0
 12 13  1  0  0  0  0
 12 38  1  0  0  0  0
 13 14  1  0  0  0  0
 14 26  1  0  0  0  0
 14 21  1  0  0  0  0
 14 15  1  0  0  0  0
 15 16  1  0  0  0  0
 16 27  1  0  0  0  0
 16 17  1  0  0  0  0
 16 19  1  0  0  0  0
 17 18  1  0  0  0  0
 17 39  1  0  0  0  0
 17 40  1  0  0  0  0
 18 41  1  0  0  0  0
 19 28  1  0  0  0  0
 19 20  1  0  0  0  0
 19 21  1  0  0  0  0
 20 42  1  0  0  0  0
 21 29  1  0  0  0  0
 21 22  1  0  0  0  0
 22 43  1  0  0  0  0
 23 24  2  0  0  0  0
 23 25  1  0  0  0  0
 25 44  1  0  0  0  0
M  END
> <s_m_source_file>
AV-unprocessed.smi

> <i_m_source_file_index>
54

> <i_lp_mmshare_version>
43012

> <i_f3d_flags>
0

> <s_epik_input>
W0NIM11bQ0hdKFtDSDNdKUMoPU8pW05IXWMobjEpW25IXWMoPU8pYyhjMTIpbltjSF1uMltDQEBIXTNPW0NASF0oW0NIMl1bT0hdKVtDQEBIXShbT0hdKVtDQEhdM1tPSF0=

> <s_epik_cmdline>
J2VwaWtfcHl0aG9uJywgJy1waCcsICc3LjAnLCAnLXRuJywgJzgnLCAnLW1hJywgJzIwMCcsICctbWV0YWxfYmluZGluZycsICctaW1hZScsICc8aW5maWxlLm1hZT4nLCAnLW9tYWUnLCAnPG91dGZpbGUubWFlPic=

> <r_lp_tautomer_probability>
0.85571

> <r_epik_Ionization_Penalty>
0.0316551

> <r_epik_Ionization_Penalty_Charging>
0.0316043

> <r_epik_Ionization_Penalty_Neutral>
5.07097e-05

> <r_epik_State_Penalty>
3.15494e-07

> <r_epik_Charging_Adjusted_Penalty>
0.0316047

> <i_epik_Tot_Q>
0

> <i_epik_Tot_abs_Q>
0

> <r_epik_Metal_State_Penalty>
0.421206

> <b_epik_Metal_Only>
0

> <s_epik_Chemistry_Notes>
This compound contains an acetal/aminal-like group ( X-CH(R)-Y where X, Y are N, S, or O) that may be acid/base labile, releasing an aldehyde.

> <s_lp_Force_Field>
OPLS_2005

> <r_lp_Energy>
42.5501

> <b_lp_Chiralities_Consistent>
1

> <s_lp_Variant>
AV-unprocessed.smi:54-8

> <Gold.Version>
5.8.1

> <Gold.Id.Protein>
6NUR|6NUR_protein|mol2

> <Gold.PLP.Fitness>
48.6845

> <Gold.PLP.PLP>
-37.0331

> <Gold.PLP.part.hbond>
-5.7093

> <Gold.PLP.part.metal>
0.0000

> <Gold.PLP.part.buried>
-6.8953

> <Gold.PLP.part.nonpolar>
-25.0134

> <Gold.PLP.part.repulsive>
0.3269

> <Gold.PLP.ligand.clash>
0.0000

> <Gold.PLP.ligand.torsion>
1.0453

> <Gold.PLP.Chemscore.Hbond>
4.5713

> <Gold.PLP.Chemscore.CHOScore>
0.0000

> <Gold.PLP.Chemscore.Metal>
0.0000

> <Gold.Chemscore.Hbonds>
donor molecule, donor type, donor heavy atom, donor atom, acceptor molecule, acceptor atom, score
      L1  H     6    37       P1  7948  1.00
      L1  H    18    41       P1 10171  0.78
      L1  H    20    42       P1 10186  1.00
      L1  H    22    43       P1 10747  0.77
      P1  H 10785 10796       L1    20  0.52

> <Gold.PLP.Chemscore.Internal.Correction>
0.0281

> <Gold.Rescore>
     Score         DG    S(hbond)    S(metal)    S(lipo)     H(rot)  DE(clash)    DE(int)     intcor
     11.57     -14.53       4.16        0.00      47.28       4.05       0.30       2.66       ----

> <Gold.Chemscore.Fitness>
11.5662

> <Gold.Chemscore.DG>
-14.5333

> <Gold.Chemscore.ZeroCoef>
-5.4800

> <Gold.Chemscore.Hbond>
4.1579

> <Gold.Chemscore.Metal>
0.0000

> <Gold.Chemscore.Lipo>
47.2828

> <Gold.Chemscore.Internal_Hbond>
0.0000

> <Gold.Chemscore.DEClash>
0.3044

> <Gold.Chemscore.DEInternal>
2.6627

> <Gold.Chemscore.Rot>
4.0493

> <Gold.Chemscore.Internal.Correction>
   9.000000E+99

> <Gold.Chemscore.Hbonds>
donor molecule, donor type, donor heavy atom, donor atom, acceptor molecule, acceptor atom, score
      L1  H     6    37       P1  7948  0.93
      L1  H    18    41       P1 10171  0.77
      L1  H    20    42       P1 10186  0.97
      L1  H    22    43       P1 10747  0.75
      P1  H 10785 10796       L1    20  0.29

> <Gold.Chemscore.Hbond.Weighted>
-13.8874

> <Gold.Chemscore.Metal.Weighted>
-0.0000

> <Gold.Chemscore.Lipo.Weighted>
-5.5321

> <Gold.Chemscore.Internal_Hbond.Weighted>
0.0000

> <Gold.Chemscore.DEClash.Weighted>
0.3044

> <Gold.Chemscore.DEInternal.Weighted>
2.6627

> <Gold.Chemscore.Rot.Weighted>
10.3662

> <Gold.Chemscore.Internal.Correction.Weighted>
   9.000000E+99

> <Gold.Protein.RotatedTorsions>
[ 6907 6896 6895 6894 ] final   66.44 input  -60.11 | X-H torsion
[ 7974 7965 7964 7962 ] final  -62.28 input  175.53 | X-H torsion
[ 8008 7997 7996 7995 ] final    0.19 input   59.86 | X-H torsion
[ 10167 10162 10161 10158 ] final  138.54 input  -65.29 | X-H torsion
[ 10718 10713 10712 10709 ] final   30.03 input   66.30 | X-H torsion
[ 10763 10752 10751 10750 ] final -152.89 input  -60.55 | X-H torsion
[ 11005 11000 10999 10996 ] final  -38.05 input  -57.11 | X-H torsion

> <Gold.Protein.ActiveResidues>
 VAL166  LYS551  ARG553  GLY616  TRP617  ASP618  TYR619  PRO620  LYS621  CYS622 
 ASP623  PHE694  ASN695  SER759  ASP760  ASP761  ALA762  ILE779  LEU786  VAL792 
 PHE793  MET794  SER795  GLU796  ALA797  LYS798  CYS799  TRP800  GLU811  SER814 

> <Gold.Protein.RotatedAtoms>
  152.4481  134.5452  159.9850 H   0  0  0  0  0  0  0  0  0  0  0  0  # atno 6907 bound_to 6896
  151.5532  133.3408  159.2965 H   0  0  0  0  0  0  0  0  0  0  0  0  # atno 6908 bound_to 6896
  150.8402  134.7723  159.6989 H   0  0  0  0  0  0  0  0  0  0  0  0  # atno 6909 bound_to 6896
  145.7932  140.8698  143.0270 H   0  0  0  0  0  0  0  0  0  0  0  0  # atno 7974 bound_to 7965
  154.6652  140.2599  155.7065 H   0  0  0  0  0  0  0  0  0  0  0  0  # atno 8008 bound_to 7997
  156.2636  140.2840  156.1062 H   0  0  0  0  0  0  0  0  0  0  0  0  # atno 8009 bound_to 7997
  155.1249  140.0377  157.2750 H   0  0  0  0  0  0  0  0  0  0  0  0  # atno 8010 bound_to 7997
  139.5107  144.6347  151.5727 H   0  0  0  0  0  0  0  0  0  0  0  0  # atno 10167 bound_to 10162
  157.2543  130.7130  149.6421 H   0  0  0  0  0  0  0  0  0  0  0  0  # atno 10718 bound_to 10713
  154.7964  135.3225  154.7655 H   0  0  0  0  0  0  0  0  0  0  0  0  # atno 10763 bound_to 10752
  153.8333  135.6877  153.4816 H   0  0  0  0  0  0  0  0  0  0  0  0  # atno 10764 bound_to 10752
  153.1658  135.4642  154.9777 H   0  0  0  0  0  0  0  0  0  0  0  0  # atno 10765 bound_to 10752
  140.9998  133.6961  156.2002 H   0  0  0  0  0  0  0  0  0  0  0  0  # atno 11005 bound_to 11000
  144.6779  140.0153  143.7484 LP  0  0  0  0  0  0  0  0  0  0  0  0  # atno 17320 bound_to 7965
  145.9955  139.3049  143.0959 LP  0  0  0  0  0  0  0  0  0  0  0  0  # atno 17321 bound_to 7965
  140.6092  143.9467  150.6441 LP  0  0  0  0  0  0  0  0  0  0  0  0  # atno 17342 bound_to 10162
  140.2704  143.3460  152.1243 LP  0  0  0  0  0  0  0  0  0  0  0  0  # atno 17343 bound_to 10162
  155.9665  130.4417  150.5353 LP  0  0  0  0  0  0  0  0  0  0  0  0  # atno 17370 bound_to 10713
  157.3244  131.0688  151.1908 LP  0  0  0  0  0  0  0  0  0  0  0  0  # atno 17371 bound_to 10713
  140.6907  134.4669  157.5588 LP  0  0  0  0  0  0  0  0  0  0  0  0  # atno 17394 bound_to 11000
  139.9033  134.8506  156.1806 LP  0  0  0  0  0  0  0  0  0  0  0  0  # atno 17395 bound_to 11000

$$$$
