AV-unprocessed.smi:1867|AV-procd|sdf|7561|dock7
  -GOLD-   22720 9273D 1   1.00000     0.00000
 Structure written by MMmdl.
 52 55  0  0  0  0  0  0  0  0  2 V2000
  148.1481  138.2349  157.1180 O   0  0  0  0  0  0  0  0  0  0  0  0
  148.7032  138.3252  156.0259 C   0  0  0  0  0  0  0  0  0  0  0  0
  149.6697  139.2150  155.7267 N   0  0  0  0  0  0  0  0  0  0  0  0
  150.2001  140.2544  156.5363 C   0  0  0  0  0  0  0  0  0  0  0  0
  150.6703  141.4167  155.8955 C   0  0  0  0  0  0  0  0  0  0  0  0
  151.1842  142.4720  156.6720 C   0  0  0  0  0  0  0  0  0  0  0  0
  151.2098  142.3391  158.0803 C   0  0  0  0  0  0  0  0  0  0  0  0
  151.7156  143.3708  158.8960 N   0  0  0  0  0  0  0  0  0  0  0  0
  152.2067  143.1060  160.2418 C   0  0  0  0  0  0  0  0  0  0  0  0
  152.0206  144.4151  161.0179 C   0  0  0  0  0  0  0  0  0  0  0  0
  151.9090  145.4839  159.9306 C   0  0  0  0  0  0  0  0  0  0  0  0
  151.2331  144.7385  158.7815 C   0  0  0  0  0  0  0  0  0  0  0  0
  150.7366  141.2311  158.6987 N   0  0  0  0  0  0  0  0  0  0  0  0
  150.2472  140.2207  157.9500 C   0  0  0  0  0  0  0  0  0  0  0  0
  148.3790  137.4991  155.0142 N   0  0  0  0  0  0  0  0  0  0  0  0
  147.3819  136.4242  154.9921 C   0  0  1  0  0  0  0  0  0  0  0  0
  146.3224  136.6211  153.8903 C   0  0  0  0  0  0  0  0  0  0  0  0
  146.0905  135.2194  153.3185 C   0  0  0  0  0  0  0  0  0  0  0  0
  147.4131  134.5962  153.4363 N   0  3  2  0  0  0  0  0  0  0  0  0
  147.5327  133.1429  153.2026 C   0  0  0  0  0  0  0  0  0  0  0  0
  149.0313  132.7725  153.1953 C   0  0  0  0  0  0  0  0  0  0  0  0
  149.7661  133.2813  154.4564 C   0  0  0  0  0  0  0  0  0  0  0  0
  149.4940  134.7791  154.7160 C   0  0  0  0  0  0  0  0  0  0  0  0
  147.9725  135.0157  154.7333 C   0  0  1  0  0  0  0  0  0  0  0  0
  150.1029  139.1111  154.8211 H   0  0  0  0  0  0  0  0  0  0  0  0
  150.6408  141.5022  154.8188 H   0  0  0  0  0  0  0  0  0  0  0  0
  151.5421  143.3650  156.1815 H   0  0  0  0  0  0  0  0  0  0  0  0
  151.6673  142.2899  160.7236 H   0  0  0  0  0  0  0  0  0  0  0  0
  153.2615  142.8356  160.1860 H   0  0  0  0  0  0  0  0  0  0  0  0
  151.0892  144.3733  161.5838 H   0  0  0  0  0  0  0  0  0  0  0  0
  152.8307  144.6075  161.7219 H   0  0  0  0  0  0  0  0  0  0  0  0
  151.3520  146.3647  160.2509 H   0  0  0  0  0  0  0  0  0  0  0  0
  152.9062  145.8056  159.6271 H   0  0  0  0  0  0  0  0  0  0  0  0
  151.4838  145.1751  157.8142 H   0  0  0  0  0  0  0  0  0  0  0  0
  150.1486  144.7537  158.8981 H   0  0  0  0  0  0  0  0  0  0  0  0
  149.8695  139.3841  158.5165 H   0  0  0  0  0  0  0  0  0  0  0  0
  148.8822  137.6434  154.1506 H   0  0  0  0  0  0  0  0  0  0  0  0
  146.8507  136.4051  155.9454 H   0  0  0  0  0  0  0  0  0  0  0  0
  145.4044  137.0751  154.2652 H   0  0  0  0  0  0  0  0  0  0  0  0
  146.7109  137.2690  153.1025 H   0  0  0  0  0  0  0  0  0  0  0  0
  145.3673  134.6709  153.9244 H   0  0  0  0  0  0  0  0  0  0  0  0
  145.7372  135.2378  152.2870 H   0  0  0  0  0  0  0  0  0  0  0  0
  146.9980  132.5913  153.9774 H   0  0  0  0  0  0  0  0  0  0  0  0
  147.0772  132.8840  152.2462 H   0  0  0  0  0  0  0  0  0  0  0  0
  149.1490  131.6924  153.1039 H   0  0  0  0  0  0  0  0  0  0  0  0
  149.5014  133.2066  152.3119 H   0  0  0  0  0  0  0  0  0  0  0  0
  149.4368  132.7020  155.3201 H   0  0  0  0  0  0  0  0  0  0  0  0
  150.8382  133.1061  154.3614 H   0  0  0  0  0  0  0  0  0  0  0  0
  149.9415  135.0707  155.6661 H   0  0  0  0  0  0  0  0  0  0  0  0
  149.9655  135.3856  153.9415 H   0  0  0  0  0  0  0  0  0  0  0  0
  147.5453  134.3637  155.4986 H   0  0  0  0  0  0  0  0  0  0  0  0
  147.9819  135.0449  152.7323 H   0  0  0  0  0  0  0  0  0  0  0  0
  1  2  2  0  0  0  0
  2  3  1  0  0  0  0
  2 15  1  0  0  0  0
  3  4  1  0  0  0  0
  3 25  1  0  0  0  0
  4 14  1  0  0  0  0
  4  5  2  0  0  0  0
  5  6  1  0  0  0  0
  5 26  1  0  0  0  0
  6  7  2  0  0  0  0
  6 27  1  0  0  0  0
  7  8  1  0  0  0  0
  7 13  1  0  0  0  0
  8 12  1  0  0  0  0
  8  9  1  0  0  0  0
  9 10  1  0  0  0  0
  9 28  1  0  0  0  0
  9 29  1  0  0  0  0
 10 11  1  0  0  0  0
 10 30  1  0  0  0  0
 10 31  1  0  0  0  0
 11 12  1  0  0  0  0
 11 32  1  0  0  0  0
 11 33  1  0  0  0  0
 12 34  1  0  0  0  0
 12 35  1  0  0  0  0
 13 14  2  0  0  0  0
 14 36  1  0  0  0  0
 15 16  1  0  0  0  0
 15 37  1  0  0  0  0
 16 24  1  0  0  0  0
 16 17  1  0  0  0  0
 16 38  1  0  0  0  0
 17 18  1  0  0  0  0
 17 39  1  0  0  0  0
 17 40  1  0  0  0  0
 18 19  1  0  0  0  0
 18 41  1  0  0  0  0
 18 42  1  0  0  0  0
 19 24  1  0  0  0  0
 19 20  1  0  0  0  0
 19 52  1  0  0  0  0
 20 21  1  0  0  0  0
 20 43  1  0  0  0  0
 20 44  1  0  0  0  0
 21 22  1  0  0  0  0
 21 45  1  0  0  0  0
 21 46  1  0  0  0  0
 22 23  1  0  0  0  0
 22 47  1  0  0  0  0
 22 48  1  0  0  0  0
 23 24  1  0  0  0  0
 23 49  1  0  0  0  0
 23 50  1  0  0  0  0
 24 51  1  0  0  0  0
M  CHG  1  19   1
M  END
> <s_m_source_file>
AV-unprocessed.smi

> <i_m_source_file_index>
1867

> <i_lp_mmshare_version>
43012

> <i_f3d_flags>
0

> <s_epik_input>
W0NIMl0xW0NIMl1bQ0gyXVtDSDJdW0NASF0oTjEyKVtDQEBIXShbQ0gyXVtDSDJdMilbTkhdQyg9TylbTkhdYzNbY0hdW2NIXWMobltjSF0zKU40W0NIMl1bQ0gyXVtDSDJdW0NIMl00

> <s_epik_cmdline>
J2VwaWtfcHl0aG9uJywgJy1waCcsICc3LjAnLCAnLXRuJywgJzgnLCAnLW1hJywgJzIwMCcsICctbWV0YWxfYmluZGluZycsICctaW1hZScsICc8aW5maWxlLm1hZT4nLCAnLW9tYWUnLCAnPG91dGZpbGUubWFlPic=

> <r_lp_tautomer_probability>
1

> <r_epik_Ionization_Penalty>
0.0751123

> <r_epik_Ionization_Penalty_Charging>
0.000974069

> <r_epik_Ionization_Penalty_Neutral>
0.0741382

> <r_epik_State_Penalty>
0.0647261

> <r_epik_Charging_Adjusted_Penalty>
0.0657002

> <i_epik_Tot_Q>
1

> <i_epik_Tot_abs_Q>
1

> <r_epik_Metal_State_Penalty>
0.0580571

> <b_epik_Metal_Only>
0

> <s_lp_Force_Field>
OPLS_2005

> <r_lp_Energy>
77.0679

> <b_lp_Chiralities_Consistent>
1

> <s_lp_Variant>
AV-unprocessed.smi:1867-2

> <Gold.Version>
5.8.1

> <Gold.Id.Protein>
6NUR|6NUR_protein|mol2

> <Gold.PLP.Fitness>
46.0283

> <Gold.PLP.PLP>
-41.3931

> <Gold.PLP.part.hbond>
-1.0000

> <Gold.PLP.part.metal>
0.0000

> <Gold.PLP.part.buried>
-5.4232

> <Gold.PLP.part.nonpolar>
-34.5151

> <Gold.PLP.part.repulsive>
0.0301

> <Gold.PLP.ligand.clash>
0.0000

> <Gold.PLP.ligand.torsion>
0.7840

> <Gold.PLP.Chemscore.Hbond>
2.0000

> <Gold.PLP.Chemscore.CHOScore>
0.0000

> <Gold.PLP.Chemscore.Metal>
0.0000

> <Gold.Chemscore.Hbonds>
donor molecule, donor type, donor heavy atom, donor atom, acceptor molecule, acceptor atom, score
      L1  H    19    52       P1  7948  2.00

> <Gold.PLP.Chemscore.Internal.Correction>
0.2033

> <Gold.Rescore>
     Score         DG    S(hbond)    S(metal)    S(lipo)     H(rot)  DE(clash)    DE(int)     intcor
     17.06     -18.52       1.01        0.00     104.46       1.00       0.05       1.41       ----

> <Gold.Chemscore.Fitness>
17.0568

> <Gold.Chemscore.DG>
-18.5198

> <Gold.Chemscore.ZeroCoef>
-5.4800

> <Gold.Chemscore.Hbond>
1.0113

> <Gold.Chemscore.Metal>
0.0000

> <Gold.Chemscore.Lipo>
104.4615

> <Gold.Chemscore.Internal_Hbond>
0.0000

> <Gold.Chemscore.DEClash>
0.0497

> <Gold.Chemscore.DEInternal>
1.4133

> <Gold.Chemscore.Rot>
1.0000

> <Gold.Chemscore.Internal.Correction>
   9.000000E+99

> <Gold.Chemscore.Hbonds>
donor molecule, donor type, donor heavy atom, donor atom, acceptor molecule, acceptor atom, score
      L1  H    19    52       P1  7948  0.96

> <Gold.Chemscore.Hbond.Weighted>
-3.3778

> <Gold.Chemscore.Metal.Weighted>
-0.0000

> <Gold.Chemscore.Lipo.Weighted>
-12.2220

> <Gold.Chemscore.Internal_Hbond.Weighted>
0.0000

> <Gold.Chemscore.DEClash.Weighted>
0.0497

> <Gold.Chemscore.DEInternal.Weighted>
1.4133

> <Gold.Chemscore.Rot.Weighted>
2.5600

> <Gold.Chemscore.Internal.Correction.Weighted>
   9.000000E+99

> <Gold.Protein.RotatedTorsions>
[ 6907 6896 6895 6894 ] final  -23.26 input  -60.11 | X-H torsion
[ 7974 7965 7964 7962 ] final  136.09 input  175.53 | X-H torsion
[ 8008 7997 7996 7995 ] final   28.91 input   59.86 | X-H torsion
[ 10167 10162 10161 10158 ] final   24.66 input  -65.29 | X-H torsion
[ 10718 10713 10712 10709 ] final   -8.13 input   66.30 | X-H torsion
[ 10763 10752 10751 10750 ] final  -35.48 input  -60.55 | X-H torsion
[ 11005 11000 10999 10996 ] final   51.06 input  -57.11 | X-H torsion

> <Gold.Protein.ActiveResidues>
 VAL166  LYS551  ARG553  GLY616  TRP617  ASP618  TYR619  PRO620  LYS621  CYS622 
 ASP623  PHE694  ASN695  SER759  ASP760  ASP761  ALA762  ILE779  LEU786  VAL792 
 PHE793  MET794  SER795  GLU796  ALA797  LYS798  CYS799  TRP800  GLU811  SER814 

> <Gold.Protein.RotatedAtoms>
  151.2065  135.0464  159.8893 H   0  0  0  0  0  0  0  0  0  0  0  0  # atno 6907 bound_to 6896
  152.5428  134.0792  159.8238 H   0  0  0  0  0  0  0  0  0  0  0  0  # atno 6908 bound_to 6896
  151.0939  133.5247  159.2645 H   0  0  0  0  0  0  0  0  0  0  0  0  # atno 6909 bound_to 6896
  144.9599  139.4722  143.5484 H   0  0  0  0  0  0  0  0  0  0  0  0  # atno 7974 bound_to 7965
  155.0662  140.3195  155.4645 H   0  0  0  0  0  0  0  0  0  0  0  0  # atno 8008 bound_to 7997
  156.2801  140.2120  156.5734 H   0  0  0  0  0  0  0  0  0  0  0  0  # atno 8009 bound_to 7997
  154.7092  140.0499  157.0521 H   0  0  0  0  0  0  0  0  0  0  0  0  # atno 8010 bound_to 7997
  140.5170  144.0066  150.6398 H   0  0  0  0  0  0  0  0  0  0  0  0  # atno 10167 bound_to 10162
  156.7071  130.5111  149.5902 H   0  0  0  0  0  0  0  0  0  0  0  0  # atno 10718 bound_to 10713
  153.8638  135.6837  153.4780 H   0  0  0  0  0  0  0  0  0  0  0  0  # atno 10763 bound_to 10752
  153.1326  135.4691  154.9371 H   0  0  0  0  0  0  0  0  0  0  0  0  # atno 10764 bound_to 10752
  154.7746  135.3249  154.8068 H   0  0  0  0  0  0  0  0  0  0  0  0  # atno 10765 bound_to 10752
  140.0964  134.5139  155.8803 H   0  0  0  0  0  0  0  0  0  0  0  0  # atno 11005 bound_to 11000
  146.3350  139.8742  142.8835 LP  0  0  0  0  0  0  0  0  0  0  0  0  # atno 17320 bound_to 7965
  145.2715  141.0110  143.3769 LP  0  0  0  0  0  0  0  0  0  0  0  0  # atno 17321 bound_to 7965
  140.3404  143.3023  152.0594 LP  0  0  0  0  0  0  0  0  0  0  0  0  # atno 17342 bound_to 10162
  139.4912  144.6446  151.6805 LP  0  0  0  0  0  0  0  0  0  0  0  0  # atno 17343 bound_to 10162
  156.1687  130.6423  151.0811 LP  0  0  0  0  0  0  0  0  0  0  0  0  # atno 17370 bound_to 10713
  157.6950  131.0797  150.6994 LP  0  0  0  0  0  0  0  0  0  0  0  0  # atno 17371 bound_to 10713
  141.2093  133.6683  156.6431 LP  0  0  0  0  0  0  0  0  0  0  0  0  # atno 17394 bound_to 11000
  140.3280  134.7952  157.4304 LP  0  0  0  0  0  0  0  0  0  0  0  0  # atno 17395 bound_to 11000

$$$$
