AV-unprocessed.smi:1258|AV-procd|sdf|5288|dock8
  -GOLD-   22720 4403D 1   1.00000     0.00000
 Structure written by MMmdl.
 33 34  0  0  0  0  0  0  0  0  1 V2000
  152.1836  144.1366  158.2062 C   0  0  0  0  0  0  0  0  0  0  0  0
  152.8815  143.6350  159.4785 C   0  0  1  0  0  0  0  0  0  0  0  0
  152.1450  144.1047  160.7475 C   0  0  0  0  0  0  0  0  0  0  0  0
  152.8411  143.6012  162.0216 C   0  0  0  0  0  0  0  0  0  0  0  0
  152.9844  142.0716  162.0109 C   0  0  0  0  0  0  0  0  0  0  0  0
  153.7247  141.5879  160.7508 C   0  0  1  0  0  0  0  0  0  0  0  0
  153.7893  140.1299  160.7531 N   0  0  0  0  0  0  0  0  0  0  0  0
  154.4838  139.3809  159.8821 C   0  0  0  0  0  0  0  0  0  0  0  0
  155.1437  139.8504  158.9555 O   0  0  0  0  0  0  0  0  0  0  0  0
  154.4272  137.8676  160.0883 C   0  0  0  0  0  0  0  0  0  0  0  0
  153.8685  137.2067  158.9243 N   0  0  0  0  0  0  0  0  0  0  0  0
  154.3468  137.0572  157.6873 C   0  0  0  0  0  0  0  0  0  0  0  0
  153.5136  136.3694  156.9215 N   0  0  0  0  0  0  0  0  0  0  0  0
  152.4589  136.0904  157.7748 N   0  0  0  0  0  0  0  0  0  0  0  0
  152.6641  136.5842  158.9649 N   0  0  0  0  0  0  0  0  0  0  0  0
  153.0261  142.1006  159.4743 C   0  0  0  0  0  0  0  0  0  0  0  0
  151.1703  143.7418  158.1278 H   0  0  0  0  0  0  0  0  0  0  0  0
  152.7295  143.8324  157.3129 H   0  0  0  0  0  0  0  0  0  0  0  0
  152.1186  145.2251  158.1972 H   0  0  0  0  0  0  0  0  0  0  0  0
  153.8839  144.0654  159.4934 H   0  0  0  0  0  0  0  0  0  0  0  0
  152.0921  145.1939  160.7672 H   0  0  0  0  0  0  0  0  0  0  0  0
  151.1148  143.7463  160.7311 H   0  0  0  0  0  0  0  0  0  0  0  0
  153.8272  144.0598  162.1054 H   0  0  0  0  0  0  0  0  0  0  0  0
  152.2785  143.9153  162.9013 H   0  0  0  0  0  0  0  0  0  0  0  0
  153.5166  141.7466  162.9058 H   0  0  0  0  0  0  0  0  0  0  0  0
  151.9939  141.6162  162.0574 H   0  0  0  0  0  0  0  0  0  0  0  0
  154.7403  141.9874  160.7815 H   0  0  0  0  0  0  0  0  0  0  0  0
  153.2769  139.6545  161.4822 H   0  0  0  0  0  0  0  0  0  0  0  0
  155.4262  137.4758  160.2870 H   0  0  0  0  0  0  0  0  0  0  0  0
  153.8089  137.6312  160.9550 H   0  0  0  0  0  0  0  0  0  0  0  0
  155.2975  137.4459  157.3531 H   0  0  0  0  0  0  0  0  0  0  0  0
  152.0402  141.6414  159.3864 H   0  0  0  0  0  0  0  0  0  0  0  0
  153.5897  141.7899  158.5935 H   0  0  0  0  0  0  0  0  0  0  0  0
  1  2  1  0  0  0  0
  1 17  1  0  0  0  0
  1 18  1  0  0  0  0
  1 19  1  0  0  0  0
  2 16  1  0  0  0  0
  2  3  1  0  0  0  0
  2 20  1  0  0  0  0
  3  4  1  0  0  0  0
  3 21  1  0  0  0  0
  3 22  1  0  0  0  0
  4  5  1  0  0  0  0
  4 23  1  0  0  0  0
  4 24  1  0  0  0  0
  5  6  1  0  0  0  0
  5 25  1  0  0  0  0
  5 26  1  0  0  0  0
  6  7  1  0  0  0  0
  6 16  1  0  0  0  0
  6 27  1  0  0  0  0
  7  8  1  0  0  0  0
  7 28  1  0  0  0  0
  8  9  2  0  0  0  0
  8 10  1  0  0  0  0
 10 11  1  0  0  0  0
 10 29  1  0  0  0  0
 10 30  1  0  0  0  0
 11 15  1  0  0  0  0
 11 12  1  0  0  0  0
 12 13  2  0  0  0  0
 12 31  1  0  0  0  0
 13 14  1  0  0  0  0
 14 15  2  0  0  0  0
 16 32  1  0  0  0  0
 16 33  1  0  0  0  0
M  END
> <s_m_source_file>
AV-unprocessed.smi

> <i_m_source_file_index>
1258

> <i_lp_mmshare_version>
43012

> <i_f3d_flags>
0

> <s_epik_input>
W0NIM11bQ0BASF0xW0NIMl1bQ0gyXVtDSDJdW0NASF0oW0NIMl0xKVtOSF1DKD1PKVtDSDJdbjJbY0hdbm5uMg==

> <s_epik_cmdline>
J2VwaWtfcHl0aG9uJywgJy1waCcsICc3LjAnLCAnLXRuJywgJzgnLCAnLW1hJywgJzIwMCcsICctbWV0YWxfYmluZGluZycsICctaW1hZScsICc8aW5maWxlLm1hZT4nLCAnLW9tYWUnLCAnPG91dGZpbGUubWFlPic=

> <r_lp_tautomer_probability>
1

> <r_epik_Ionization_Penalty>
5.03816e-07

> <r_epik_Ionization_Penalty_Charging>
0

> <r_epik_Ionization_Penalty_Neutral>
5.03816e-07

> <r_epik_State_Penalty>
-0

> <r_epik_Charging_Adjusted_Penalty>
0

> <i_epik_Tot_Q>
0

> <i_epik_Tot_abs_Q>
0

> <r_epik_Metal_State_Penalty>
-0

> <b_epik_Metal_Only>
0

> <s_lp_Force_Field>
OPLS_2005

> <r_lp_Energy>
10.5543

> <b_lp_Chiralities_Consistent>
1

> <s_lp_Variant>
AV-unprocessed.smi:1258-2

> <Gold.Version>
5.8.1

> <Gold.Id.Protein>
6NUR|6NUR_protein|mol2

> <Gold.PLP.Fitness>
42.7826

> <Gold.PLP.PLP>
-34.6230

> <Gold.PLP.part.hbond>
-4.0000

> <Gold.PLP.part.metal>
0.0000

> <Gold.PLP.part.buried>
-3.6751

> <Gold.PLP.part.nonpolar>
-26.9216

> <Gold.PLP.part.repulsive>
0.0546

> <Gold.PLP.ligand.clash>
0.0000

> <Gold.PLP.ligand.torsion>
0.0986

> <Gold.PLP.Chemscore.Hbond>
2.7840

> <Gold.PLP.Chemscore.CHOScore>
0.0000

> <Gold.PLP.Chemscore.Metal>
0.0000

> <Gold.Chemscore.Hbonds>
donor molecule, donor type, donor heavy atom, donor atom, acceptor molecule, acceptor atom, score
      P1  H  6896  6908       L1    15  0.67
      P1  H  7997  8010       L1     9  1.00
      P1  H 10752 10765       L1    13  0.88

> <Gold.PLP.Chemscore.Internal.Correction>
0.0050

> <Gold.Rescore>
     Score         DG    S(hbond)    S(metal)    S(lipo)     H(rot)  DE(clash)    DE(int)     intcor
     19.12     -19.30       2.49        0.00      88.98       1.92       0.15       0.04       ----

> <Gold.Chemscore.Fitness>
19.1153

> <Gold.Chemscore.DG>
-19.2968

> <Gold.Chemscore.ZeroCoef>
-5.4800

> <Gold.Chemscore.Hbond>
2.4892

> <Gold.Chemscore.Metal>
0.0000

> <Gold.Chemscore.Lipo>
88.9756

> <Gold.Chemscore.Internal_Hbond>
0.0000

> <Gold.Chemscore.DEClash>
0.1461

> <Gold.Chemscore.DEInternal>
0.0354

> <Gold.Chemscore.Rot>
1.9169

> <Gold.Chemscore.Internal.Correction>
   9.000000E+99

> <Gold.Chemscore.Hbonds>
donor molecule, donor type, donor heavy atom, donor atom, acceptor molecule, acceptor atom, score
      P1  H  6896  6908       L1    15  0.11
      P1  H  7997  8010       L1     9  0.94
      P1  H 10752 10765       L1    13  0.73

> <Gold.Chemscore.Hbond.Weighted>
-8.3140

> <Gold.Chemscore.Metal.Weighted>
-0.0000

> <Gold.Chemscore.Lipo.Weighted>
-10.4101

> <Gold.Chemscore.Internal_Hbond.Weighted>
0.0000

> <Gold.Chemscore.DEClash.Weighted>
0.1461

> <Gold.Chemscore.DEInternal.Weighted>
0.0354

> <Gold.Chemscore.Rot.Weighted>
4.9073

> <Gold.Chemscore.Internal.Correction.Weighted>
   9.000000E+99

> <Gold.Protein.RotatedTorsions>
[ 6907 6896 6895 6894 ] final -111.34 input  -60.11 | X-H torsion
[ 7974 7965 7964 7962 ] final -147.17 input  175.53 | X-H torsion
[ 8008 7997 7996 7995 ] final  -22.04 input   59.86 | X-H torsion
[ 10167 10162 10161 10158 ] final -158.31 input  -65.29 | X-H torsion
[ 10718 10713 10712 10709 ] final -146.48 input   66.30 | X-H torsion
[ 10763 10752 10751 10750 ] final -134.02 input  -60.55 | X-H torsion
[ 11005 11000 10999 10996 ] final  -42.50 input  -57.11 | X-H torsion

> <Gold.Protein.ActiveResidues>
 VAL166  LYS551  ARG553  GLY616  TRP617  ASP618  TYR619  PRO620  LYS621  CYS622 
 ASP623  PHE694  ASN695  SER759  ASP760  ASP761  ALA762  ILE779  LEU786  VAL792 
 PHE793  MET794  SER795  GLU796  ALA797  LYS798  CYS799  TRP800  GLU811  SER814 

> <Gold.Protein.RotatedAtoms>
  150.7684  133.9250  159.3409 H   0  0  0  0  0  0  0  0  0  0  0  0  # atno 6907 bound_to 6896
  151.7142  135.0905  160.0282 H   0  0  0  0  0  0  0  0  0  0  0  0  # atno 6908 bound_to 6896
  152.3690  133.6356  159.6108 H   0  0  0  0  0  0  0  0  0  0  0  0  # atno 6909 bound_to 6896
  144.8111  140.5362  143.5642 H   0  0  0  0  0  0  0  0  0  0  0  0  # atno 7974 bound_to 7965
  154.4668  140.2018  156.0097 H   0  0  0  0  0  0  0  0  0  0  0  0  # atno 8008 bound_to 7997
  156.0941  140.3253  155.7825 H   0  0  0  0  0  0  0  0  0  0  0  0  # atno 8009 bound_to 7997
  155.4907  140.0546  157.2945 H   0  0  0  0  0  0  0  0  0  0  0  0  # atno 8010 bound_to 7997
  139.6702  143.9758  152.2279 H   0  0  0  0  0  0  0  0  0  0  0  0  # atno 10167 bound_to 10162
  156.3955  130.7907  151.2113 H   0  0  0  0  0  0  0  0  0  0  0  0  # atno 10718 bound_to 10713
  154.8725  135.3748  154.4667 H   0  0  0  0  0  0  0  0  0  0  0  0  # atno 10763 bound_to 10752
  153.5331  135.7027  153.5678 H   0  0  0  0  0  0  0  0  0  0  0  0  # atno 10764 bound_to 10752
  153.3874  135.3981  155.1864 H   0  0  0  0  0  0  0  0  0  0  0  0  # atno 10765 bound_to 10752
  141.0320  133.6816  156.2603 H   0  0  0  0  0  0  0  0  0  0  0  0  # atno 11005 bound_to 11000
  145.5322  139.1475  143.3493 LP  0  0  0  0  0  0  0  0  0  0  0  0  # atno 17320 bound_to 7965
  146.2410  140.5462  142.8934 LP  0  0  0  0  0  0  0  0  0  0  0  0  # atno 17321 bound_to 7965
  139.9520  144.6614  150.8162 LP  0  0  0  0  0  0  0  0  0  0  0  0  # atno 17342 bound_to 10162
  140.7615  143.3176  151.2697 LP  0  0  0  0  0  0  0  0  0  0  0  0  # atno 17343 bound_to 10162
  157.7501  131.0302  150.4129 LP  0  0  0  0  0  0  0  0  0  0  0  0  # atno 17370 bound_to 10713
  156.4399  130.3989  149.6704 LP  0  0  0  0  0  0  0  0  0  0  0  0  # atno 17371 bound_to 10713
  140.6390  134.5185  157.5567 LP  0  0  0  0  0  0  0  0  0  0  0  0  # atno 17394 bound_to 11000
  139.9214  134.8141  156.1200 LP  0  0  0  0  0  0  0  0  0  0  0  0  # atno 17395 bound_to 11000

$$$$
