AV-unprocessed.smi:912|AV-procd|sdf|4145|dock4
  -GOLD-   22720 2 53D 1   1.00000     0.00000
 Structure written by MMmdl.
 27 27  0  0  0  0  0  0  0  0  2 V2000
  148.3656  136.8818  155.0969 C   0  0  0  0  0  0  0  0  0  0  0  0
  147.8389  137.2399  153.7815 N   0  0  0  0  0  0  0  0  0  0  0  0
  146.8292  138.3098  153.6857 C   0  0  2  0  0  0  0  0  0  0  0  0
  145.7654  137.9876  154.7673 C   0  0  0  0  0  0  0  0  0  0  0  0
  146.1938  138.3588  152.2691 C   0  0  0  0  0  0  0  0  0  0  0  0
  144.8884  138.0833  152.1674 N   0  0  0  0  0  0  0  0  0  0  0  0
  146.8669  138.6348  151.2776 O   0  0  0  0  0  0  0  0  0  0  0  0
  147.4327  139.6994  153.9820 C   0  0  0  0  0  0  0  0  0  0  0  0
  148.7972  139.8756  154.3343 C   0  0  0  0  0  0  0  0  0  0  0  0
  149.2920  141.1687  154.6006 C   0  0  0  0  0  0  0  0  0  0  0  0
  148.4703  142.2356  154.5198 N   0  3  0  0  0  0  0  0  0  0  0  0
  147.1667  142.1263  154.1903 C   0  0  0  0  0  0  0  0  0  0  0  0
  146.6169  140.8583  153.9154 C   0  0  0  0  0  0  0  0  0  0  0  0
  149.2026  136.1956  154.9696 H   0  0  0  0  0  0  0  0  0  0  0  0
  147.6230  136.3710  155.7098 H   0  0  0  0  0  0  0  0  0  0  0  0
  148.7341  137.7479  155.6451 H   0  0  0  0  0  0  0  0  0  0  0  0
  147.5409  136.4196  153.2742 H   0  0  0  0  0  0  0  0  0  0  0  0
  144.9752  138.7382  154.8025 H   0  0  0  0  0  0  0  0  0  0  0  0
  146.2144  137.9519  155.7608 H   0  0  0  0  0  0  0  0  0  0  0  0
  145.2729  137.0298  154.6002 H   0  0  0  0  0  0  0  0  0  0  0  0
  144.4380  138.0902  151.2642 H   0  0  0  0  0  0  0  0  0  0  0  0
  144.3603  137.8551  152.9975 H   0  0  0  0  0  0  0  0  0  0  0  0
  149.4787  139.0418  154.4101 H   0  0  0  0  0  0  0  0  0  0  0  0
  150.3155  141.3786  154.8751 H   0  0  0  0  0  0  0  0  0  0  0  0
  146.6061  143.0492  154.1563 H   0  0  0  0  0  0  0  0  0  0  0  0
  145.5722  140.7817  153.6507 H   0  0  0  0  0  0  0  0  0  0  0  0
  148.8497  143.1622  154.7164 H   0  0  0  0  0  0  0  0  0  0  0  0
  1  2  1  0  0  0  0
  1 14  1  0  0  0  0
  1 15  1  0  0  0  0
  1 16  1  0  0  0  0
  2  3  1  0  0  0  0
  2 17  1  0  0  0  0
  3  4  1  0  0  0  0
  3  5  1  0  0  0  0
  3  8  1  0  0  0  0
  4 18  1  0  0  0  0
  4 19  1  0  0  0  0
  4 20  1  0  0  0  0
  5  6  1  0  0  0  0
  5  7  2  0  0  0  0
  6 21  1  0  0  0  0
  6 22  1  0  0  0  0
  8 13  1  0  0  0  0
  8  9  2  0  0  0  0
  9 10  1  0  0  0  0
  9 23  1  0  0  0  0
 10 11  2  0  0  0  0
 10 24  1  0  0  0  0
 11 12  1  0  0  0  0
 11 27  1  0  0  0  0
 12 13  2  0  0  0  0
 12 25  1  0  0  0  0
 13 26  1  0  0  0  0
M  CHG  1  11   1
M  END
> <s_m_source_file>
AV-unprocessed.smi

> <i_m_source_file_index>
912

> <i_lp_mmshare_version>
43012

> <i_f3d_flags>
0

> <s_epik_input>
W0NIM11bTkhdW0NAQF0oW0NIM10pKEMoPU8pW05IMl0pYzFbY0hdW2NIXW5bY0hdW2NIXTE=

> <s_epik_cmdline>
J2VwaWtfcHl0aG9uJywgJy1waCcsICc3LjAnLCAnLXRuJywgJzgnLCAnLW1hJywgJzIwMCcsICctbWV0YWxfYmluZGluZycsICctaW1hZScsICc8aW5maWxlLm1hZT4nLCAnLW9tYWUnLCAnPG91dGZpbGUubWFlPic=

> <r_epik_Ionization_Penalty>
0.562542

> <r_epik_Ionization_Penalty_Charging>
0.554844

> <r_epik_Ionization_Penalty_Neutral>
0.00769834

> <r_epik_State_Penalty>
1.39075

> <r_epik_Charging_Adjusted_Penalty>
1.94559

> <i_epik_Tot_Q>
1

> <i_epik_Tot_abs_Q>
1

> <r_epik_Metal_State_Penalty>
1.55563

> <b_epik_Metal_Only>
0

> <s_lp_Force_Field>
OPLS_2005

> <r_lp_Energy>
18.1992

> <b_lp_Chiralities_Consistent>
1

> <s_lp_Variant>
AV-unprocessed.smi:912-6

> <Gold.Version>
5.8.1

> <Gold.Id.Protein>
6NUR|6NUR_protein|mol2

> <Gold.PLP.Fitness>
32.9154

> <Gold.PLP.PLP>
-21.0871

> <Gold.PLP.part.hbond>
-4.6873

> <Gold.PLP.part.metal>
0.0000

> <Gold.PLP.part.buried>
-4.9648

> <Gold.PLP.part.nonpolar>
-15.3712

> <Gold.PLP.part.repulsive>
1.6323

> <Gold.PLP.ligand.clash>
0.1623

> <Gold.PLP.ligand.torsion>
0.1621

> <Gold.PLP.Chemscore.Hbond>
4.0960

> <Gold.PLP.Chemscore.CHOScore>
0.0000

> <Gold.PLP.Chemscore.Metal>
0.0000

> <Gold.Chemscore.Hbonds>
donor molecule, donor type, donor heavy atom, donor atom, acceptor molecule, acceptor atom, score
      L1  H     2    17       P1  7948  0.06
      L1  H     6    21       P1 10171  1.00
      L1  H    11    27       P1  8028  2.00
      P1  H  7954  7966       L1     7  0.98

> <Gold.PLP.Chemscore.Internal.Correction>
0.0268

> <Gold.Rescore>
     Score         DG    S(hbond)    S(metal)    S(lipo)     H(rot)  DE(clash)    DE(int)     intcor
     15.59     -16.25       3.27        0.00      38.57       1.82       0.34       0.31       ----

> <Gold.Chemscore.Fitness>
15.5881

> <Gold.Chemscore.DG>
-16.2458

> <Gold.Chemscore.ZeroCoef>
-5.4800

> <Gold.Chemscore.Hbond>
3.2692

> <Gold.Chemscore.Metal>
0.0000

> <Gold.Chemscore.Lipo>
38.5683

> <Gold.Chemscore.Internal_Hbond>
0.0000

> <Gold.Chemscore.DEClash>
0.3434

> <Gold.Chemscore.DEInternal>
0.3144

> <Gold.Chemscore.Rot>
1.8226

> <Gold.Chemscore.Internal.Correction>
   9.000000E+99

> <Gold.Chemscore.Hbonds>
donor molecule, donor type, donor heavy atom, donor atom, acceptor molecule, acceptor atom, score
      L1  H     2    17       P1  7948  0.09
      L1  H     6    21       P1 10171  0.99
      L1  H    11    27       P1  8028  0.96
      P1  H  7954  7966       L1     7  0.88

> <Gold.Chemscore.Hbond.Weighted>
-10.9192

> <Gold.Chemscore.Metal.Weighted>
-0.0000

> <Gold.Chemscore.Lipo.Weighted>
-4.5125

> <Gold.Chemscore.Internal_Hbond.Weighted>
0.0000

> <Gold.Chemscore.DEClash.Weighted>
0.3434

> <Gold.Chemscore.DEInternal.Weighted>
0.3144

> <Gold.Chemscore.Rot.Weighted>
4.6659

> <Gold.Chemscore.Internal.Correction.Weighted>
   9.000000E+99

> <Gold.Protein.RotatedTorsions>
[ 6907 6896 6895 6894 ] final   52.70 input  -60.11 | X-H torsion
[ 7974 7965 7964 7962 ] final  107.93 input  175.53 | X-H torsion
[ 8008 7997 7996 7995 ] final  101.56 input   59.86 | X-H torsion
[ 10167 10162 10161 10158 ] final   72.66 input  -65.29 | X-H torsion
[ 10718 10713 10712 10709 ] final -141.07 input   66.30 | X-H torsion
[ 10763 10752 10751 10750 ] final   -8.83 input  -60.55 | X-H torsion
[ 11005 11000 10999 10996 ] final -170.41 input  -57.11 | X-H torsion

> <Gold.Protein.ActiveResidues>
 VAL166  LYS551  ARG553  GLY616  TRP617  ASP618  TYR619  PRO620  LYS621  CYS622 
 ASP623  PHE694  ASN695  SER759  ASP760  ASP761  ALA762  ILE779  LEU786  VAL792 
 PHE793  MET794  SER795  GLU796  ALA797  LYS798  CYS799  TRP800  GLU811  SER814 

> <Gold.Protein.RotatedAtoms>
  152.3260  134.7320  160.0301 H   0  0  0  0  0  0  0  0  0  0  0  0  # atno 6907 bound_to 6896
  151.7753  133.3339  159.3464 H   0  0  0  0  0  0  0  0  0  0  0  0  # atno 6908 bound_to 6896
  150.7396  134.5912  159.6033 H   0  0  0  0  0  0  0  0  0  0  0  0  # atno 6909 bound_to 6896
  145.2872  139.2612  143.3884 H   0  0  0  0  0  0  0  0  0  0  0  0  # atno 7974 bound_to 7965
  156.1310  140.3195  155.8349 H   0  0  0  0  0  0  0  0  0  0  0  0  # atno 8008 bound_to 7997
  155.4331  140.0520  157.3034 H   0  0  0  0  0  0  0  0  0  0  0  0  # atno 8009 bound_to 7997
  154.4899  140.2088  155.9583 H   0  0  0  0  0  0  0  0  0  0  0  0  # atno 8010 bound_to 7997
  140.0328  144.5452  150.7493 H   0  0  0  0  0  0  0  0  0  0  0  0  # atno 10167 bound_to 10162
  156.3297  130.7579  151.1695 H   0  0  0  0  0  0  0  0  0  0  0  0  # atno 10718 bound_to 10713
  153.4461  135.7014  153.6138 H   0  0  0  0  0  0  0  0  0  0  0  0  # atno 10763 bound_to 10752
  153.4492  135.3762  155.2274 H   0  0  0  0  0  0  0  0  0  0  0  0  # atno 10764 bound_to 10752
  154.8728  135.3993  154.3867 H   0  0  0  0  0  0  0  0  0  0  0  0  # atno 10765 bound_to 10752
  140.5198  134.5720  157.5044 H   0  0  0  0  0  0  0  0  0  0  0  0  # atno 11005 bound_to 11000
  146.3197  140.3354  142.8643 LP  0  0  0  0  0  0  0  0  0  0  0  0  # atno 17320 bound_to 7965
  144.9203  140.7860  143.5752 LP  0  0  0  0  0  0  0  0  0  0  0  0  # atno 17321 bound_to 7965
  140.7294  143.2672  151.4005 LP  0  0  0  0  0  0  0  0  0  0  0  0  # atno 17342 bound_to 10162
  139.6064  144.1187  152.2254 LP  0  0  0  0  0  0  0  0  0  0  0  0  # atno 17343 bound_to 10162
  157.7428  131.0484  150.4996 LP  0  0  0  0  0  0  0  0  0  0  0  0  # atno 17370 bound_to 10713
  156.5160  130.4150  149.6275 LP  0  0  0  0  0  0  0  0  0  0  0  0  # atno 17371 bound_to 10713
  139.9612  134.7449  156.0233 LP  0  0  0  0  0  0  0  0  0  0  0  0  # atno 17394 bound_to 11000
  141.1340  133.6579  156.3543 LP  0  0  0  0  0  0  0  0  0  0  0  0  # atno 17395 bound_to 11000

$$$$
