AV-unprocessed.smi:1487|AV-procd|sdf|6014|dock5
  -GOLD-   22720 6113D 1   1.00000     0.00000
 Structure written by MMmdl.
 48 50  0  0  0  0  0  0  0  0  2 V2000
  151.9399  144.3828  159.4218 C   0  0  0  0  0  0  0  0  0  0  0  0
  152.6535  143.2066  160.0647 C   0  0  0  0  0  0  0  0  0  0  0  0
  153.1725  142.1836  159.2393 C   0  0  0  0  0  0  0  0  0  0  0  0
  153.8416  141.0725  159.7974 C   0  0  0  0  0  0  0  0  0  0  0  0
  154.4219  139.9729  159.1884 N   0  0  0  0  0  0  0  0  0  0  0  0
  154.8790  139.2953  160.2370 C   0  0  0  0  0  0  0  0  0  0  0  0
  154.6685  139.8289  161.4555 N   0  0  0  0  0  0  0  0  0  0  0  0
  155.0762  139.2755  162.7349 C   0  0  0  0  0  0  0  0  0  0  0  0
  156.6022  139.0905  162.8406 C   0  0  1  0  0  0  0  0  0  0  0  0
  157.2526  140.1295  162.1339 O   0  0  0  0  0  0  0  0  0  0  0  0
  157.0773  139.1239  164.3066 C   0  0  0  0  0  0  0  0  0  0  0  0
  156.1618  139.8958  165.1859 N   0  3  2  0  0  0  0  0  0  0  0  0
  156.2458  141.3661  164.9742 C   0  0  0  0  0  0  0  0  0  0  0  0
  155.1910  142.1105  165.8104 C   0  0  0  0  0  0  0  0  0  0  0  0
  155.3300  141.7685  167.2994 C   0  0  0  0  0  0  0  0  0  0  0  0
  155.2684  140.2462  167.4908 C   0  0  2  0  0  0  0  0  0  0  0  0
  155.4960  139.9325  168.8479 O   0  0  0  0  0  0  0  0  0  0  0  0
  156.3230  139.5392  166.6194 C   0  0  0  0  0  0  0  0  0  0  0  0
  153.9786  141.0125  161.2152 C   0  0  0  0  0  0  0  0  0  0  0  0
  153.4679  142.0248  162.0468 C   0  0  0  0  0  0  0  0  0  0  0  0
  152.8013  143.1272  161.4728 C   0  0  0  0  0  0  0  0  0  0  0  0
  152.2534  144.2152  162.3795 C   0  0  0  0  0  0  0  0  0  0  0  0
  151.9680  144.3190  158.3336 H   0  0  0  0  0  0  0  0  0  0  0  0
  152.4098  145.3226  159.7125 H   0  0  0  0  0  0  0  0  0  0  0  0
  150.8942  144.4077  159.7292 H   0  0  0  0  0  0  0  0  0  0  0  0
  153.0604  142.2443  158.1668 H   0  0  0  0  0  0  0  0  0  0  0  0
  155.4004  138.3574  160.1124 H   0  0  0  0  0  0  0  0  0  0  0  0
  154.7127  139.9287  163.5290 H   0  0  0  0  0  0  0  0  0  0  0  0
  154.5720  138.3173  162.8668 H   0  0  0  0  0  0  0  0  0  0  0  0
  156.8684  138.1429  162.3729 H   0  0  0  0  0  0  0  0  0  0  0  0
  156.8310  140.2311  161.2933 H   0  0  0  0  0  0  0  0  0  0  0  0
  157.1564  138.0957  164.6640 H   0  0  0  0  0  0  0  0  0  0  0  0
  158.0816  139.5444  164.3757 H   0  0  0  0  0  0  0  0  0  0  0  0
  157.2449  141.7155  165.2391 H   0  0  0  0  0  0  0  0  0  0  0  0
  156.0974  141.6081  163.9225 H   0  0  0  0  0  0  0  0  0  0  0  0
  155.2919  143.1867  165.6660 H   0  0  0  0  0  0  0  0  0  0  0  0
  154.1920  141.8438  165.4632 H   0  0  0  0  0  0  0  0  0  0  0  0
  156.2784  142.1555  167.6756 H   0  0  0  0  0  0  0  0  0  0  0  0
  154.5415  142.2580  167.8723 H   0  0  0  0  0  0  0  0  0  0  0  0
  154.2744  139.8852  167.2227 H   0  0  0  0  0  0  0  0  0  0  0  0
  156.3707  139.5847  168.9363 H   0  0  0  0  0  0  0  0  0  0  0  0
  156.2233  138.4597  166.7415 H   0  0  0  0  0  0  0  0  0  0  0  0
  157.3301  139.8050  166.9462 H   0  0  0  0  0  0  0  0  0  0  0  0
  153.5891  141.9542  163.1177 H   0  0  0  0  0  0  0  0  0  0  0  0
  152.4187  143.9781  163.4309 H   0  0  0  0  0  0  0  0  0  0  0  0
  151.1803  144.3359  162.2289 H   0  0  0  0  0  0  0  0  0  0  0  0
  152.7423  145.1670  162.1702 H   0  0  0  0  0  0  0  0  0  0  0  0
  155.2261  139.6112  164.9321 H   0  0  0  0  0  0  0  0  0  0  0  0
  1  2  1  0  0  0  0
  1 23  1  0  0  0  0
  1 24  1  0  0  0  0
  1 25  1  0  0  0  0
  2 21  1  0  0  0  0
  2  3  2  0  0  0  0
  3  4  1  0  0  0  0
  3 26  1  0  0  0  0
  4 19  2  0  0  0  0
  4  5  1  0  0  0  0
  5  6  2  0  0  0  0
  6  7  1  0  0  0  0
  6 27  1  0  0  0  0
  7  8  1  0  0  0  0
  7 19  1  0  0  0  0
  8  9  1  0  0  0  0
  8 28  1  0  0  0  0
  8 29  1  0  0  0  0
  9 10  1  0  0  0  0
  9 11  1  0  0  0  0
  9 30  1  0  0  0  0
 10 31  1  0  0  0  0
 11 12  1  0  0  0  0
 11 32  1  0  0  0  0
 11 33  1  0  0  0  0
 12 18  1  0  0  0  0
 12 13  1  0  0  0  0
 12 48  1  0  0  0  0
 13 14  1  0  0  0  0
 13 34  1  0  0  0  0
 13 35  1  0  0  0  0
 14 15  1  0  0  0  0
 14 36  1  0  0  0  0
 14 37  1  0  0  0  0
 15 16  1  0  0  0  0
 15 38  1  0  0  0  0
 15 39  1  0  0  0  0
 16 17  1  0  0  0  0
 16 18  1  0  0  0  0
 16 40  1  0  0  0  0
 17 41  1  0  0  0  0
 18 42  1  0  0  0  0
 18 43  1  0  0  0  0
 19 20  1  0  0  0  0
 20 21  2  0  0  0  0
 20 44  1  0  0  0  0
 21 22  1  0  0  0  0
 22 45  1  0  0  0  0
 22 46  1  0  0  0  0
 22 47  1  0  0  0  0
M  CHG  1  12   1
M  END
> <s_m_source_file>
AV-unprocessed.smi

> <i_m_source_file_index>
1487

> <i_lp_mmshare_version>
43012

> <i_f3d_flags>
0

> <s_epik_input>
W0NIM11jKFtjSF0xKWMoW0NIM10pW2NIXWMoYzEyKW4oW2NIXW4yKVtDSDJdW0NASF0oW09IXSlbQ0gyXU4zW0NIMl1bQ0gyXVtDSDJdW0NAQEhdKFtPSF0pW0NIMl0z

> <s_epik_cmdline>
J2VwaWtfcHl0aG9uJywgJy1waCcsICc3LjAnLCAnLXRuJywgJzgnLCAnLW1hJywgJzIwMCcsICctbWV0YWxfYmluZGluZycsICctaW1hZScsICc8aW5maWxlLm1hZT4nLCAnLW9tYWUnLCAnPG91dGZpbGUubWFlPic=

> <r_epik_Ionization_Penalty>
0.0940186

> <r_epik_Ionization_Penalty_Charging>
0.00679686

> <r_epik_Ionization_Penalty_Neutral>
0.0872218

> <r_epik_State_Penalty>
0.0799311

> <r_epik_Charging_Adjusted_Penalty>
0.086728

> <i_epik_Tot_Q>
1

> <i_epik_Tot_abs_Q>
1

> <r_epik_Metal_State_Penalty>
7.95545e-05

> <b_epik_Metal_Only>
0

> <s_lp_Force_Field>
OPLS_2005

> <r_lp_Energy>
21.0759

> <b_lp_Chiralities_Consistent>
1

> <s_lp_Variant>
AV-unprocessed.smi:1487-8

> <Gold.Version>
5.8.1

> <Gold.Id.Protein>
6NUR|6NUR_protein|mol2

> <Gold.PLP.Fitness>
47.9620

> <Gold.PLP.PLP>
-46.6751

> <Gold.PLP.part.hbond>
-3.5152

> <Gold.PLP.part.metal>
0.0000

> <Gold.PLP.part.buried>
-2.2328

> <Gold.PLP.part.nonpolar>
-40.6065

> <Gold.PLP.part.repulsive>
0.0109

> <Gold.PLP.ligand.clash>
0.0000

> <Gold.PLP.ligand.torsion>
0.8927

> <Gold.PLP.Chemscore.Hbond>
1.0000

> <Gold.PLP.Chemscore.CHOScore>
0.0000

> <Gold.PLP.Chemscore.Metal>
0.0000

> <Gold.Chemscore.Hbonds>
donor molecule, donor type, donor heavy atom, donor atom, acceptor molecule, acceptor atom, score
      P1  H  7997  8008       L1     5  0.99

> <Gold.PLP.Chemscore.Internal.Correction>
0.0723

> <Gold.Rescore>
     Score         DG    S(hbond)    S(metal)    S(lipo)     H(rot)  DE(clash)    DE(int)     intcor
     15.01     -17.25       0.91        0.00     132.93       2.67       1.37       0.87       ----

> <Gold.Chemscore.Fitness>
15.0057

> <Gold.Chemscore.DG>
-17.2459

> <Gold.Chemscore.ZeroCoef>
-5.4800

> <Gold.Chemscore.Hbond>
0.9135

> <Gold.Chemscore.Metal>
0.0000

> <Gold.Chemscore.Lipo>
132.9318

> <Gold.Chemscore.Internal_Hbond>
0.0000

> <Gold.Chemscore.DEClash>
1.3670

> <Gold.Chemscore.DEInternal>
0.8733

> <Gold.Chemscore.Rot>
2.6712

> <Gold.Chemscore.Internal.Correction>
   9.000000E+99

> <Gold.Chemscore.Hbonds>
donor molecule, donor type, donor heavy atom, donor atom, acceptor molecule, acceptor atom, score
      P1  H  7997  8008       L1     5  0.90

> <Gold.Chemscore.Hbond.Weighted>
-3.0512

> <Gold.Chemscore.Metal.Weighted>
-0.0000

> <Gold.Chemscore.Lipo.Weighted>
-15.5530

> <Gold.Chemscore.Internal_Hbond.Weighted>
0.0000

> <Gold.Chemscore.DEClash.Weighted>
1.3670

> <Gold.Chemscore.DEInternal.Weighted>
0.8733

> <Gold.Chemscore.Rot.Weighted>
6.8383

> <Gold.Chemscore.Internal.Correction.Weighted>
   9.000000E+99

> <Gold.Protein.RotatedTorsions>
[ 6907 6896 6895 6894 ] final   17.24 input  -60.11 | X-H torsion
[ 7974 7965 7964 7962 ] final  129.50 input  175.53 | X-H torsion
[ 8008 7997 7996 7995 ] final -125.91 input   59.86 | X-H torsion
[ 10167 10162 10161 10158 ] final   85.54 input  -65.29 | X-H torsion
[ 10718 10713 10712 10709 ] final  -35.62 input   66.30 | X-H torsion
[ 10763 10752 10751 10750 ] final  -51.39 input  -60.55 | X-H torsion
[ 11005 11000 10999 10996 ] final  176.37 input  -57.11 | X-H torsion

> <Gold.Protein.ActiveResidues>
 VAL166  LYS551  ARG553  GLY616  TRP617  ASP618  TYR619  PRO620  LYS621  CYS622 
 ASP623  PHE694  ASN695  SER759  ASP760  ASP761  ALA762  ILE779  LEU786  VAL792 
 PHE793  MET794  SER795  GLU796  ALA797  LYS798  CYS799  TRP800  GLU811  SER814 

> <Gold.Protein.RotatedAtoms>
  151.8465  135.0572  160.0453 H   0  0  0  0  0  0  0  0  0  0  0  0  # atno 6907 bound_to 6896
  152.2769  133.5429  159.5482 H   0  0  0  0  0  0  0  0  0  0  0  0  # atno 6908 bound_to 6896
  150.7173  134.0535  159.3849 H   0  0  0  0  0  0  0  0  0  0  0  0  # atno 6909 bound_to 6896
  145.0279  139.4072  143.5164 H   0  0  0  0  0  0  0  0  0  0  0  0  # atno 7974 bound_to 7965
  155.2209  140.0422  157.2948 H   0  0  0  0  0  0  0  0  0  0  0  0  # atno 8008 bound_to 7997
  154.5950  140.2437  155.7840 H   0  0  0  0  0  0  0  0  0  0  0  0  # atno 8009 bound_to 7997
  156.2284  140.2946  156.0134 H   0  0  0  0  0  0  0  0  0  0  0  0  # atno 8010 bound_to 7997
  139.8967  144.6354  150.8681 H   0  0  0  0  0  0  0  0  0  0  0  0  # atno 10167 bound_to 10162
  156.3365  130.4287  149.7825 H   0  0  0  0  0  0  0  0  0  0  0  0  # atno 10718 bound_to 10713
  154.1258  135.6527  153.4912 H   0  0  0  0  0  0  0  0  0  0  0  0  # atno 10763 bound_to 10752
  153.0211  135.5281  154.7051 H   0  0  0  0  0  0  0  0  0  0  0  0  # atno 10764 bound_to 10752
  154.6271  135.2971  155.0229 H   0  0  0  0  0  0  0  0  0  0  0  0  # atno 10765 bound_to 10752
  140.3724  134.7018  157.4400 H   0  0  0  0  0  0  0  0  0  0  0  0  # atno 11005 bound_to 11000
  146.3494  139.9813  142.8695 LP  0  0  0  0  0  0  0  0  0  0  0  0  # atno 17320 bound_to 7965
  145.1809  140.9766  143.4267 LP  0  0  0  0  0  0  0  0  0  0  0  0  # atno 17321 bound_to 7965
  140.7715  143.3468  151.2094 LP  0  0  0  0  0  0  0  0  0  0  0  0  # atno 17342 bound_to 10162
  139.7062  143.9452  152.2927 LP  0  0  0  0  0  0  0  0  0  0  0  0  # atno 17343 bound_to 10162
  156.5078  130.8158  151.3157 LP  0  0  0  0  0  0  0  0  0  0  0  0  # atno 17370 bound_to 10713
  157.7439  130.9924  150.2634 LP  0  0  0  0  0  0  0  0  0  0  0  0  # atno 17371 bound_to 10713
  140.0541  134.6088  155.8826 LP  0  0  0  0  0  0  0  0  0  0  0  0  # atno 17394 bound_to 11000
  141.1950  133.6585  156.5622 LP  0  0  0  0  0  0  0  0  0  0  0  0  # atno 17395 bound_to 11000

$$$$
