AV-unprocessed.smi:812|AV-procd|sdf|3816|dock4
  -GOLD-   22720 1253D 1   1.00000     0.00000
 Structure written by MMmdl.
 38 40  0  0  0  0  0  0  0  0  1 V2000
  155.3540  140.0250  161.2261 C   0  0  0  0  0  0  0  0  0  0  0  0
  154.2565  140.8936  160.7612 N   0  0  0  0  0  0  0  0  0  0  0  0
  153.6621  140.6034  159.5612 C   0  0  0  0  0  0  0  0  0  0  0  0
  153.9763  139.6627  158.8311 O   0  0  0  0  0  0  0  0  0  0  0  0
  152.5854  141.5297  159.1915 C   0  0  0  0  0  0  0  0  0  0  0  0
  152.2164  142.5793  159.9666 C   0  0  0  0  0  0  0  0  0  0  0  0
  151.1801  143.2987  159.3812 N   0  0  0  0  0  0  0  0  0  0  0  0
  150.9753  142.6239  158.2497 C   0  0  0  0  0  0  0  0  0  0  0  0
  151.7730  141.5542  158.0576 N   0  0  0  0  0  0  0  0  0  0  0  0
  151.7491  140.6657  156.9047 C   0  0  0  0  0  0  0  0  0  0  0  0
  150.3334  140.1440  156.5832 C   0  0  1  0  0  0  0  0  0  0  0  0
  149.8341  140.7573  155.4103 O   0  0  0  0  0  0  0  0  0  0  0  0
  150.3139  138.6271  156.4830 C   0  0  0  0  0  0  0  0  0  0  0  0
  151.0158  137.9699  155.4484 C   0  0  0  0  0  0  0  0  0  0  0  0
  150.9983  136.5644  155.3598 C   0  0  0  0  0  0  0  0  0  0  0  0
  150.2809  135.8078  156.3061 C   0  0  0  0  0  0  0  0  0  0  0  0
  150.2644  134.4567  156.2213 F   0  0  0  0  0  0  0  0  0  0  0  0
  149.5821  136.4576  157.3417 C   0  0  0  0  0  0  0  0  0  0  0  0
  149.5993  137.8633  157.4308 C   0  0  0  0  0  0  0  0  0  0  0  0
  152.9010  142.7891  161.1917 N   0  0  0  0  0  0  0  0  0  0  0  0
  152.5167  143.9209  162.0396 C   0  0  0  0  0  0  0  0  0  0  0  0
  153.9168  141.9538  161.5839 C   0  0  0  0  0  0  0  0  0  0  0  0
  154.5104  142.1522  162.6481 O   0  0  0  0  0  0  0  0  0  0  0  0
  155.5603  139.1648  160.5886 H   0  0  0  0  0  0  0  0  0  0  0  0
  155.1336  139.6242  162.2171 H   0  0  0  0  0  0  0  0  0  0  0  0
  156.2823  140.5944  161.2940 H   0  0  0  0  0  0  0  0  0  0  0  0
  150.2214  142.9193  157.5346 H   0  0  0  0  0  0  0  0  0  0  0  0
  152.1869  141.1732  156.0465 H   0  0  0  0  0  0  0  0  0  0  0  0
  152.4084  139.8231  157.1175 H   0  0  0  0  0  0  0  0  0  0  0  0
  149.6649  140.4415  157.3924 H   0  0  0  0  0  0  0  0  0  0  0  0
  148.9064  140.5859  155.3539 H   0  0  0  0  0  0  0  0  0  0  0  0
  151.5710  138.5429  154.7198 H   0  0  0  0  0  0  0  0  0  0  0  0
  151.5361  136.0674  154.5660 H   0  0  0  0  0  0  0  0  0  0  0  0
  149.0326  135.8776  158.0685 H   0  0  0  0  0  0  0  0  0  0  0  0
  149.0611  138.3513  158.2301 H   0  0  0  0  0  0  0  0  0  0  0  0
  152.2098  143.5741  163.0275 H   0  0  0  0  0  0  0  0  0  0  0  0
  151.6878  144.4958  161.6277 H   0  0  0  0  0  0  0  0  0  0  0  0
  153.3561  144.6060  162.1646 H   0  0  0  0  0  0  0  0  0  0  0  0
  1  2  1  0  0  0  0
  1 24  1  0  0  0  0
  1 25  1  0  0  0  0
  1 26  1  0  0  0  0
  2 22  1  0  0  0  0
  2  3  1  0  0  0  0
  3  4  2  0  0  0  0
  3  5  1  0  0  0  0
  5  9  1  0  0  0  0
  5  6  2  0  0  0  0
  6  7  1  0  0  0  0
  6 20  1  0  0  0  0
  7  8  2  0  0  0  0
  8  9  1  0  0  0  0
  8 27  1  0  0  0  0
  9 10  1  0  0  0  0
 10 11  1  0  0  0  0
 10 28  1  0  0  0  0
 10 29  1  0  0  0  0
 11 12  1  0  0  0  0
 11 13  1  0  0  0  0
 11 30  1  0  0  0  0
 12 31  1  0  0  0  0
 13 19  1  0  0  0  0
 13 14  2  0  0  0  0
 14 15  1  0  0  0  0
 14 32  1  0  0  0  0
 15 16  2  0  0  0  0
 15 33  1  0  0  0  0
 16 17  1  0  0  0  0
 16 18  1  0  0  0  0
 18 19  2  0  0  0  0
 18 34  1  0  0  0  0
 19 35  1  0  0  0  0
 20 21  1  0  0  0  0
 20 22  1  0  0  0  0
 21 36  1  0  0  0  0
 21 37  1  0  0  0  0
 21 38  1  0  0  0  0
 22 23  2  0  0  0  0
M  END
> <s_m_source_file>
AV-unprocessed.smi

> <i_m_source_file_index>
812

> <i_lp_mmshare_version>
43012

> <i_f3d_flags>
0

> <s_epik_input>
Tz1jMW4oW0NIM10pYyg9TyluKFtDSDNdKWMoYzEyKW5bY0hdbjJbQ0gyXVtDQEhdKFtPSF0pYzNbY0hdW2NIXWMoRilbY0hdW2NIXTM=

> <s_epik_cmdline>
J2VwaWtfcHl0aG9uJywgJy1waCcsICc3LjAnLCAnLXRuJywgJzgnLCAnLW1hJywgJzIwMCcsICctbWV0YWxfYmluZGluZycsICctaW1hZScsICc8aW5maWxlLm1hZT4nLCAnLW9tYWUnLCAnPG91dGZpbGUubWFlPic=

> <r_lp_tautomer_probability>
1

> <r_epik_Ionization_Penalty>
1.45649e-06

> <r_epik_Ionization_Penalty_Charging>
3.74189e-09

> <r_epik_Ionization_Penalty_Neutral>
1.45275e-06

> <r_epik_State_Penalty>
-0

> <r_epik_Charging_Adjusted_Penalty>
3.74189e-09

> <i_epik_Tot_Q>
0

> <i_epik_Tot_abs_Q>
0

> <r_epik_Metal_State_Penalty>
-0

> <b_epik_Metal_Only>
0

> <s_lp_Force_Field>
OPLS_2005

> <r_lp_Energy>
35.4349

> <b_lp_Chiralities_Consistent>
1

> <s_lp_Variant>
AV-unprocessed.smi:812-2

> <Gold.Version>
5.8.1

> <Gold.Id.Protein>
6NUR|6NUR_protein|mol2

> <Gold.PLP.Fitness>
50.1969

> <Gold.PLP.PLP>
-43.6532

> <Gold.PLP.part.hbond>
-3.0000

> <Gold.PLP.part.metal>
0.0000

> <Gold.PLP.part.buried>
-5.3836

> <Gold.PLP.part.nonpolar>
-35.0524

> <Gold.PLP.part.repulsive>
0.0974

> <Gold.PLP.ligand.clash>
0.0000

> <Gold.PLP.ligand.torsion>
0.8206

> <Gold.PLP.Chemscore.Hbond>
1.7200

> <Gold.PLP.Chemscore.CHOScore>
1.0000

> <Gold.PLP.Chemscore.Metal>
0.0000

> <Gold.Chemscore.Hbonds>
donor molecule, donor type, donor heavy atom, donor atom, acceptor molecule, acceptor atom, score
      P1  H  7997  8009       L1     4  1.00
      L1  C     8    27       P1  8028  0.04

> <Gold.PLP.Chemscore.Internal.Correction>
0.0249

> <Gold.Rescore>
     Score         DG    S(hbond)    S(metal)    S(lipo)     H(rot)  DE(clash)    DE(int)     intcor
     12.02     -12.95       1.81        0.00      61.26       2.24       0.06       0.88       ----

> <Gold.Chemscore.Fitness>
12.0174

> <Gold.Chemscore.DG>
-12.9510

> <Gold.Chemscore.ZeroCoef>
-5.4800

> <Gold.Chemscore.Hbond>
1.8059

> <Gold.Chemscore.Metal>
0.0000

> <Gold.Chemscore.Lipo>
61.2648

> <Gold.Chemscore.Internal_Hbond>
0.0000

> <Gold.Chemscore.DEClash>
0.0563

> <Gold.Chemscore.DEInternal>
0.8773

> <Gold.Chemscore.Rot>
2.2377

> <Gold.Chemscore.Internal.Correction>
   9.000000E+99

> <Gold.Chemscore.Hbonds>
donor molecule, donor type, donor heavy atom, donor atom, acceptor molecule, acceptor atom, score
      P1  H  7997  8009       L1     4  0.95

> <Gold.Chemscore.Hbond.Weighted>
-6.0317

> <Gold.Chemscore.Metal.Weighted>
-0.0000

> <Gold.Chemscore.Lipo.Weighted>
-7.1680

> <Gold.Chemscore.Internal_Hbond.Weighted>
0.0000

> <Gold.Chemscore.DEClash.Weighted>
0.0563

> <Gold.Chemscore.DEInternal.Weighted>
0.8773

> <Gold.Chemscore.Rot.Weighted>
5.7286

> <Gold.Chemscore.Internal.Correction.Weighted>
   9.000000E+99

> <Gold.Protein.RotatedTorsions>
[ 6907 6896 6895 6894 ] final    0.92 input  -60.11 | X-H torsion
[ 7974 7965 7964 7962 ] final  -40.82 input  175.53 | X-H torsion
[ 8008 7997 7996 7995 ] final  129.19 input   59.86 | X-H torsion
[ 10167 10162 10161 10158 ] final  -15.30 input  -65.29 | X-H torsion
[ 10718 10713 10712 10709 ] final -159.18 input   66.30 | X-H torsion
[ 10763 10752 10751 10750 ] final  -80.72 input  -60.55 | X-H torsion
[ 11005 11000 10999 10996 ] final   -2.82 input  -57.11 | X-H torsion

> <Gold.Protein.ActiveResidues>
 VAL166  LYS551  ARG553  GLY616  TRP617  ASP618  TYR619  PRO620  LYS621  CYS622 
 ASP623  PHE694  ASN695  SER759  ASP760  ASP761  ALA762  ILE779  LEU786  VAL792 
 PHE793  MET794  SER795  GLU796  ALA797  LYS798  CYS799  TRP800  GLU811  SER814 

> <Gold.Protein.RotatedAtoms>
  151.5843  135.1057  160.0024 H   0  0  0  0  0  0  0  0  0  0  0  0  # atno 6907 bound_to 6896
  152.4338  133.7321  159.6604 H   0  0  0  0  0  0  0  0  0  0  0  0  # atno 6908 bound_to 6896
  150.8234  133.8144  159.3152 H   0  0  0  0  0  0  0  0  0  0  0  0  # atno 6909 bound_to 6896
  146.0269  140.6780  142.9151 H   0  0  0  0  0  0  0  0  0  0  0  0  # atno 7974 bound_to 7965
  156.2931  140.2626  156.2558 H   0  0  0  0  0  0  0  0  0  0  0  0  # atno 8008 bound_to 7997
  154.9838  140.0389  157.2308 H   0  0  0  0  0  0  0  0  0  0  0  0  # atno 8009 bound_to 7997
  154.7748  140.2784  155.6114 H   0  0  0  0  0  0  0  0  0  0  0  0  # atno 8010 bound_to 7997
  140.7216  143.5233  150.9607 H   0  0  0  0  0  0  0  0  0  0  0  0  # atno 10167 bound_to 10162
  156.5645  130.8661  151.2819 H   0  0  0  0  0  0  0  0  0  0  0  0  # atno 10718 bound_to 10713
  154.5547  135.5651  153.6953 H   0  0  0  0  0  0  0  0  0  0  0  0  # atno 10763 bound_to 10752
  153.0000  135.6259  154.2326 H   0  0  0  0  0  0  0  0  0  0  0  0  # atno 10764 bound_to 10752
  154.2262  135.2867  155.2886 H   0  0  0  0  0  0  0  0  0  0  0  0  # atno 10765 bound_to 10752
  140.6626  133.9307  155.8445 H   0  0  0  0  0  0  0  0  0  0  0  0  # atno 11005 bound_to 11000
  144.7013  140.3666  143.7153 LP  0  0  0  0  0  0  0  0  0  0  0  0  # atno 17320 bound_to 7965
  145.7103  139.1683  143.2542 LP  0  0  0  0  0  0  0  0  0  0  0  0  # atno 17321 bound_to 7965
  139.8951  143.6905  152.3140 LP  0  0  0  0  0  0  0  0  0  0  0  0  # atno 17342 bound_to 10162
  139.7235  144.7598  151.0917 LP  0  0  0  0  0  0  0  0  0  0  0  0  # atno 17343 bound_to 10162
  157.7361  130.9774  150.2121 LP  0  0  0  0  0  0  0  0  0  0  0  0  # atno 17370 bound_to 10713
  156.2770  130.3728  149.7974 LP  0  0  0  0  0  0  0  0  0  0  0  0  # atno 17371 bound_to 10713
  141.0454  134.0562  157.3851 LP  0  0  0  0  0  0  0  0  0  0  0  0  # atno 17394 bound_to 11000
  139.9008  135.0163  156.7258 LP  0  0  0  0  0  0  0  0  0  0  0  0  # atno 17395 bound_to 11000

$$$$
