AV-unprocessed.smi:516|AV-procd|sdf|2785|dock1
  -GOLD-   2262023253D 1   1.00000     0.00000
 Structure written by MMmdl.
 45 47  0  0  0  0  0  0  0  0  2 V2000
  150.6506  132.0998  156.4652 C   0  0  0  0  0  0  0  0  0  0  0  0
  150.6421  133.3042  157.2101 O   0  0  0  0  0  0  0  0  0  0  0  0
  149.4745  134.0771  156.9864 C   0  0  0  0  0  0  0  0  0  0  0  0
  149.2659  134.2812  155.4787 C   0  0  0  0  0  0  0  0  0  0  0  0
  148.9441  135.6667  155.1518 N   0  0  0  0  0  0  0  0  0  0  0  0
  147.7605  136.1600  154.6989 C   0  0  0  0  0  0  0  0  0  0  0  0
  146.5436  135.3128  154.4543 C   0  0  0  0  0  0  0  0  0  0  0  0
  146.4803  135.1571  152.9789 N   0  3  0  0  0  0  0  0  0  0  0  0
  146.1489  133.7707  152.5746 C   0  0  0  0  0  0  0  0  0  0  0  0
  146.1566  133.6393  151.0421 C   0  0  0  0  0  0  0  0  0  0  0  0
  145.2437  134.5731  150.4793 O   0  0  0  0  0  0  0  0  0  0  0  0
  145.6009  135.9152  150.7844 C   0  0  0  0  0  0  0  0  0  0  0  0
  145.5742  136.1239  152.3078 C   0  0  0  0  0  0  0  0  0  0  0  0
  147.7657  137.4790  154.4761 N   0  0  0  0  0  0  0  0  0  0  0  0
  149.0581  137.8523  154.8111 C   0  0  0  0  0  0  0  0  0  0  0  0
  149.7814  136.7809  155.2203 C   0  0  0  0  0  0  0  0  0  0  0  0
  151.1888  136.8922  155.6277 C   0  0  0  0  0  0  0  0  0  0  0  0
  151.8675  135.9361  155.9954 O   0  0  0  0  0  0  0  0  0  0  0  0
  151.6625  138.1599  155.5566 N   0  0  0  0  0  0  0  0  0  0  0  0
  150.9876  139.2807  155.1555 C   0  0  0  0  0  0  0  0  0  0  0  0
  151.5627  140.3683  155.1477 O   0  0  0  0  0  0  0  0  0  0  0  0
  149.6768  139.1320  154.7742 N   0  0  0  0  0  0  0  0  0  0  0  0
  148.8693  140.2643  154.3158 C   0  0  0  0  0  0  0  0  0  0  0  0
  152.6253  138.2933  155.8294 H   0  0  0  0  0  0  0  0  0  0  0  0
  151.5634  131.5437  156.6788 H   0  0  0  0  0  0  0  0  0  0  0  0
  150.6207  132.2990  155.3933 H   0  0  0  0  0  0  0  0  0  0  0  0
  149.8017  131.4673  156.7284 H   0  0  0  0  0  0  0  0  0  0  0  0
  148.6092  133.5726  157.4188 H   0  0  0  0  0  0  0  0  0  0  0  0
  149.5669  135.0456  157.4801 H   0  0  0  0  0  0  0  0  0  0  0  0
  150.1569  133.9785  154.9299 H   0  0  0  0  0  0  0  0  0  0  0  0
  148.4747  133.6284  155.1143 H   0  0  0  0  0  0  0  0  0  0  0  0
  146.6951  134.3481  154.9402 H   0  0  0  0  0  0  0  0  0  0  0  0
  145.6305  135.7469  154.8599 H   0  0  0  0  0  0  0  0  0  0  0  0
  146.8722  133.0770  153.0049 H   0  0  0  0  0  0  0  0  0  0  0  0
  145.1683  133.4989  152.9688 H   0  0  0  0  0  0  0  0  0  0  0  0
  147.1580  133.8032  150.6412 H   0  0  0  0  0  0  0  0  0  0  0  0
  145.8577  132.6327  150.7497 H   0  0  0  0  0  0  0  0  0  0  0  0
  146.5869  136.1451  150.3771 H   0  0  0  0  0  0  0  0  0  0  0  0
  144.8920  136.5874  150.3007 H   0  0  0  0  0  0  0  0  0  0  0  0
  144.5582  135.9952  152.6837 H   0  0  0  0  0  0  0  0  0  0  0  0
  145.8712  137.1482  152.5329 H   0  0  0  0  0  0  0  0  0  0  0  0
  149.4086  141.2115  154.2836 H   0  0  0  0  0  0  0  0  0  0  0  0
  148.0102  140.3990  154.9737 H   0  0  0  0  0  0  0  0  0  0  0  0
  148.4947  140.0706  153.3102 H   0  0  0  0  0  0  0  0  0  0  0  0
  147.4132  135.3378  152.6349 H   0  0  0  0  0  0  0  0  0  0  0  0
  1  2  1  0  0  0  0
  1 25  1  0  0  0  0
  1 26  1  0  0  0  0
  1 27  1  0  0  0  0
  2  3  1  0  0  0  0
  3  4  1  0  0  0  0
  3 28  1  0  0  0  0
  3 29  1  0  0  0  0
  4  5  1  0  0  0  0
  4 30  1  0  0  0  0
  4 31  1  0  0  0  0
  5 16  1  0  0  0  0
  5  6  1  0  0  0  0
  6  7  1  0  0  0  0
  6 14  2  0  0  0  0
  7  8  1  0  0  0  0
  7 32  1  0  0  0  0
  7 33  1  0  0  0  0
  8 13  1  0  0  0  0
  8  9  1  0  0  0  0
  8 45  1  0  0  0  0
  9 10  1  0  0  0  0
  9 34  1  0  0  0  0
  9 35  1  0  0  0  0
 10 11  1  0  0  0  0
 10 36  1  0  0  0  0
 10 37  1  0  0  0  0
 11 12  1  0  0  0  0
 12 13  1  0  0  0  0
 12 38  1  0  0  0  0
 12 39  1  0  0  0  0
 13 40  1  0  0  0  0
 13 41  1  0  0  0  0
 14 15  1  0  0  0  0
 15 22  1  0  0  0  0
 15 16  2  0  0  0  0
 16 17  1  0  0  0  0
 17 18  2  0  0  0  0
 17 19  1  0  0  0  0
 19 24  1  0  0  0  0
 19 20  1  0  0  0  0
 20 21  2  0  0  0  0
 20 22  1  0  0  0  0
 22 23  1  0  0  0  0
 23 42  1  0  0  0  0
 23 43  1  0  0  0  0
 23 44  1  0  0  0  0
M  CHG  1   8   1
M  END
> <s_m_source_file>
AV-unprocessed.smi

> <i_m_source_file_index>
516

> <i_lp_mmshare_version>
43012

> <i_f3d_flags>
0

> <s_epik_input>
W0NIM11uMWMoPU8pW25IXWMoPU8pYyhjMTIpbihbQ0gyXVtDSDJdT1tDSDNdKWMobjIpW0NIMl1OM1tDSDJdW0NIMl1PW0NIMl1bQ0gyXTM=

> <s_epik_cmdline>
J2VwaWtfcHl0aG9uJywgJy1waCcsICc3LjAnLCAnLXRuJywgJzgnLCAnLW1hJywgJzIwMCcsICctbWV0YWxfYmluZGluZycsICctaW1hZScsICc8aW5maWxlLm1hZT4nLCAnLW9tYWUnLCAnPG91dGZpbGUubWFlPic=

> <r_epik_Ionization_Penalty>
1.12077

> <r_epik_Ionization_Penalty_Charging>
1.12077

> <r_epik_Ionization_Penalty_Neutral>
4.43299e-09

> <r_epik_State_Penalty>
1.17893

> <r_epik_Charging_Adjusted_Penalty>
2.29969

> <i_epik_Tot_Q>
1

> <i_epik_Tot_abs_Q>
1

> <r_epik_Metal_State_Penalty>
1.32838

> <b_epik_Metal_Only>
0

> <s_lp_Force_Field>
OPLS_2005

> <r_lp_Energy>
36.1073

> <b_lp_Chiralities_Consistent>
1

> <s_lp_Variant>
AV-unprocessed.smi:516-2

> <Gold.Version>
5.8.1

> <Gold.Id.Protein>
6NUR|6NUR_protein|mol2

> <Gold.PLP.Fitness>
40.6406

> <Gold.PLP.PLP>
-28.4127

> <Gold.PLP.part.hbond>
-4.0000

> <Gold.PLP.part.metal>
0.0000

> <Gold.PLP.part.buried>
-4.1845

> <Gold.PLP.part.nonpolar>
-22.1835

> <Gold.PLP.part.repulsive>
1.2784

> <Gold.PLP.ligand.clash>
0.0000

> <Gold.PLP.ligand.torsion>
1.1893

> <Gold.PLP.Chemscore.Hbond>
4.8400

> <Gold.PLP.Chemscore.CHOScore>
0.0000

> <Gold.PLP.Chemscore.Metal>
0.0000

> <Gold.Chemscore.Hbonds>
donor molecule, donor type, donor heavy atom, donor atom, acceptor molecule, acceptor atom, score
      L1  H     8    45       P1  7948  2.00
      P1  H  6896  6908       L1     2  0.90
      P1  H  7989  7998       L1    21  0.91
      P1  H 10752 10763       L1    18  1.00

> <Gold.PLP.Chemscore.Internal.Correction>
0.0863

> <Gold.Rescore>
     Score         DG    S(hbond)    S(metal)    S(lipo)     H(rot)  DE(clash)    DE(int)     intcor
     15.80     -17.53       3.66        0.00      44.67       2.11       0.36       1.37       ----

> <Gold.Chemscore.Fitness>
15.7988

> <Gold.Chemscore.DG>
-17.5257

> <Gold.Chemscore.ZeroCoef>
-5.4800

> <Gold.Chemscore.Hbond>
3.6566

> <Gold.Chemscore.Metal>
0.0000

> <Gold.Chemscore.Lipo>
44.6691

> <Gold.Chemscore.Internal_Hbond>
0.0000

> <Gold.Chemscore.DEClash>
0.3559

> <Gold.Chemscore.DEInternal>
1.3710

> <Gold.Chemscore.Rot>
2.1069

> <Gold.Chemscore.Internal.Correction>
   9.000000E+99

> <Gold.Chemscore.Hbonds>
donor molecule, donor type, donor heavy atom, donor atom, acceptor molecule, acceptor atom, score
      L1  H     8    45       P1  7948  1.00
      P1  H  6896  6908       L1     2  0.37
      P1  H  7989  7998       L1    21  0.53
      P1  H 10752 10763       L1    18  0.96

> <Gold.Chemscore.Hbond.Weighted>
-12.2130

> <Gold.Chemscore.Metal.Weighted>
-0.0000

> <Gold.Chemscore.Lipo.Weighted>
-5.2263

> <Gold.Chemscore.Internal_Hbond.Weighted>
0.0000

> <Gold.Chemscore.DEClash.Weighted>
0.3559

> <Gold.Chemscore.DEInternal.Weighted>
1.3710

> <Gold.Chemscore.Rot.Weighted>
5.3936

> <Gold.Chemscore.Internal.Correction.Weighted>
   9.000000E+99

> <Gold.Protein.RotatedTorsions>
[ 6907 6896 6895 6894 ] final  100.97 input  -60.11 | X-H torsion
[ 7974 7965 7964 7962 ] final  149.17 input  175.53 | X-H torsion
[ 8008 7997 7996 7995 ] final  146.16 input   59.86 | X-H torsion
[ 10167 10162 10161 10158 ] final -158.06 input  -65.29 | X-H torsion
[ 10718 10713 10712 10709 ] final  106.79 input   66.30 | X-H torsion
[ 10763 10752 10751 10750 ] final  104.06 input  -60.55 | X-H torsion
[ 11005 11000 10999 10996 ] final  145.71 input  -57.11 | X-H torsion

> <Gold.Protein.ActiveResidues>
 VAL166  LYS551  ARG553  GLY616  TRP617  ASP618  TYR619  PRO620  LYS621  CYS622 
 ASP623  PHE694  ASN695  SER759  ASP760  ASP761  ALA762  ILE779  LEU786  VAL792 
 PHE793  MET794  SER795  GLU796  ALA797  LYS798  CYS799  TRP800  GLU811  SER814 

> <Gold.Protein.RotatedAtoms>
  152.5360  134.0196  159.7975 H   0  0  0  0  0  0  0  0  0  0  0  0  # atno 6907 bound_to 6896
  151.0384  133.5720  159.2660 H   0  0  0  0  0  0  0  0  0  0  0  0  # atno 6908 bound_to 6896
  151.2698  135.0688  159.9183 H   0  0  0  0  0  0  0  0  0  0  0  0  # atno 6909 bound_to 6896
  144.8458  139.6246  143.5996 H   0  0  0  0  0  0  0  0  0  0  0  0  # atno 7974 bound_to 7965
  156.2863  140.2190  156.5332 H   0  0  0  0  0  0  0  0  0  0  0  0  # atno 8008 bound_to 7997
  154.7432  140.0486  157.0851 H   0  0  0  0  0  0  0  0  0  0  0  0  # atno 8009 bound_to 7997
  155.0204  140.3123  155.4798 H   0  0  0  0  0  0  0  0  0  0  0  0  # atno 8010 bound_to 7997
  139.6721  143.9726  152.2290 H   0  0  0  0  0  0  0  0  0  0  0  0  # atno 10167 bound_to 10162
  157.6654  131.0858  150.6060 H   0  0  0  0  0  0  0  0  0  0  0  0  # atno 10718 bound_to 10713
  153.3609  135.3956  155.1718 H   0  0  0  0  0  0  0  0  0  0  0  0  # atno 10763 bound_to 10752
  154.8679  135.3679  154.5100 H   0  0  0  0  0  0  0  0  0  0  0  0  # atno 10764 bound_to 10752
  153.5560  135.7082  153.5630 H   0  0  0  0  0  0  0  0  0  0  0  0  # atno 10765 bound_to 10752
  140.0734  134.9139  157.1383 H   0  0  0  0  0  0  0  0  0  0  0  0  # atno 11005 bound_to 11000
  146.2743  139.6713  142.9274 LP  0  0  0  0  0  0  0  0  0  0  0  0  # atno 17320 bound_to 7965
  145.4599  141.0432  143.2757 LP  0  0  0  0  0  0  0  0  0  0  0  0  # atno 17321 bound_to 7965
  139.9494  144.6630  150.8187 LP  0  0  0  0  0  0  0  0  0  0  0  0  # atno 17342 bound_to 10162
  140.7622  143.3192  151.2661 LP  0  0  0  0  0  0  0  0  0  0  0  0  # atno 17343 bound_to 10162
  156.6361  130.4445  149.5769 LP  0  0  0  0  0  0  0  0  0  0  0  0  # atno 17370 bound_to 10713
  156.2245  130.6757  151.1401 LP  0  0  0  0  0  0  0  0  0  0  0  0  # atno 17371 bound_to 10713
  140.3593  134.2511  155.7189 LP  0  0  0  0  0  0  0  0  0  0  0  0  # atno 17394 bound_to 11000
  141.2020  133.7948  157.0411 LP  0  0  0  0  0  0  0  0  0  0  0  0  # atno 17395 bound_to 11000

$$$$
