AV-unprocessed.smi:3183|AV-procd|sdf|12156|dock2
  -GOLD-   2272017593D 1   1.00000     0.00000
 Structure written by MMmdl.
 43 44  0  0  0  0  0  0  0  0  2 V2000
  151.0408  141.4799  156.9771 C   0  0  0  0  0  0  0  0  0  0  0  0
  150.4095  140.9287  155.6880 C   0  0  1  0  0  0  0  0  0  0  0  0
  150.6201  139.4082  155.5523 C   0  0  0  0  0  0  0  0  0  0  0  0
  150.0627  138.8819  154.2207 C   0  0  0  0  0  0  0  0  0  0  0  0
  148.5759  139.2378  154.0421 C   0  0  2  0  0  0  0  0  0  0  0  0
  148.1006  138.7421  152.7311 N   0  3  0  0  0  0  0  0  0  0  0  0
  146.6412  138.8282  152.5127 C   0  0  0  0  0  0  0  0  0  0  0  0
  145.9240  137.6071  153.1068 C   0  0  0  0  0  0  0  0  0  0  0  0
  145.4013  136.6433  152.0852 C   0  0  0  0  0  0  0  0  0  0  0  0
  145.9872  136.1002  150.9741 C   0  0  0  0  0  0  0  0  0  0  0  0
  144.9791  135.2626  150.4224 C   0  0  0  0  0  0  0  0  0  0  0  0
  143.8624  135.2820  151.1282 N   0  0  0  0  0  0  0  0  0  0  0  0
  144.1195  136.1267  152.1491 N   0  0  0  0  0  0  0  0  0  0  0  0
  143.0849  136.3850  153.1321 C   0  0  0  0  0  0  0  0  0  0  0  0
  148.3706  140.7631  154.1850 C   0  0  0  0  0  0  0  0  0  0  0  0
  148.9173  141.3138  155.5197 C   0  0  1  0  0  0  0  0  0  0  0  0
  148.0222  140.9118  156.7097 C   0  0  0  0  0  0  0  0  0  0  0  0
  150.6285  141.0030  157.8666 H   0  0  0  0  0  0  0  0  0  0  0  0
  150.8802  142.5547  157.0665 H   0  0  0  0  0  0  0  0  0  0  0  0
  152.1174  141.3076  156.9862 H   0  0  0  0  0  0  0  0  0  0  0  0
  150.9486  141.3975  154.8629 H   0  0  0  0  0  0  0  0  0  0  0  0
  151.6836  139.1748  155.6148 H   0  0  0  0  0  0  0  0  0  0  0  0
  150.1460  138.8854  156.3836 H   0  0  0  0  0  0  0  0  0  0  0  0
  150.6442  139.3007  153.3979 H   0  0  0  0  0  0  0  0  0  0  0  0
  150.1970  137.8005  154.1729 H   0  0  0  0  0  0  0  0  0  0  0  0
  148.0106  138.7202  154.8184 H   0  0  0  0  0  0  0  0  0  0  0  0
  148.5781  139.2462  151.9976 H   0  0  0  0  0  0  0  0  0  0  0  0
  146.2616  139.7406  152.9748 H   0  0  0  0  0  0  0  0  0  0  0  0
  146.4335  138.8921  151.4446 H   0  0  0  0  0  0  0  0  0  0  0  0
  146.6080  137.0795  153.7728 H   0  0  0  0  0  0  0  0  0  0  0  0
  145.0952  137.9466  153.7294 H   0  0  0  0  0  0  0  0  0  0  0  0
  146.9874  136.2730  150.6052 H   0  0  0  0  0  0  0  0  0  0  0  0
  145.0252  134.6464  149.5366 H   0  0  0  0  0  0  0  0  0  0  0  0
  143.4878  136.2528  154.1364 H   0  0  0  0  0  0  0  0  0  0  0  0
  142.2468  135.6993  152.9987 H   0  0  0  0  0  0  0  0  0  0  0  0
  142.7249  137.4083  153.0232 H   0  0  0  0  0  0  0  0  0  0  0  0
  148.8728  141.2708  153.3601 H   0  0  0  0  0  0  0  0  0  0  0  0
  147.3156  141.0222  154.0973 H   0  0  0  0  0  0  0  0  0  0  0  0
  148.8679  142.4018  155.4560 H   0  0  0  0  0  0  0  0  0  0  0  0
  148.0496  139.8403  156.9043 H   0  0  0  0  0  0  0  0  0  0  0  0
  146.9831  141.1845  156.5238 H   0  0  0  0  0  0  0  0  0  0  0  0
  148.3225  141.4211  157.6252 H   0  0  0  0  0  0  0  0  0  0  0  0
  148.3555  137.7668  152.6664 H   0  0  0  0  0  0  0  0  0  0  0  0
  1  2  1  0  0  0  0
  1 18  1  0  0  0  0
  1 19  1  0  0  0  0
  1 20  1  0  0  0  0
  2 16  1  0  0  0  0
  2  3  1  0  0  0  0
  2 21  1  0  0  0  0
  3  4  1  0  0  0  0
  3 22  1  0  0  0  0
  3 23  1  0  0  0  0
  4  5  1  0  0  0  0
  4 24  1  0  0  0  0
  4 25  1  0  0  0  0
  5  6  1  0  0  0  0
  5 15  1  0  0  0  0
  5 26  1  0  0  0  0
  6  7  1  0  0  0  0
  6 27  1  0  0  0  0
  6 43  1  0  0  0  0
  7  8  1  0  0  0  0
  7 28  1  0  0  0  0
  7 29  1  0  0  0  0
  8  9  1  0  0  0  0
  8 30  1  0  0  0  0
  8 31  1  0  0  0  0
  9 13  1  0  0  0  0
  9 10  2  0  0  0  0
 10 11  1  0  0  0  0
 10 32  1  0  0  0  0
 11 12  2  0  0  0  0
 11 33  1  0  0  0  0
 12 13  1  0  0  0  0
 13 14  1  0  0  0  0
 14 34  1  0  0  0  0
 14 35  1  0  0  0  0
 14 36  1  0  0  0  0
 15 16  1  0  0  0  0
 15 37  1  0  0  0  0
 15 38  1  0  0  0  0
 16 17  1  0  0  0  0
 16 39  1  0  0  0  0
 17 40  1  0  0  0  0
 17 41  1  0  0  0  0
 17 42  1  0  0  0  0
M  CHG  1   6   1
M  END
> <s_m_source_file>
AV-unprocessed.smi

> <i_m_source_file_index>
3183

> <i_lp_mmshare_version>
43012

> <i_f3d_flags>
0

> <s_epik_input>
W0NIM11bQ0BASF0xW0NIMl1bQ0gyXVtDQEhdKFtDSDJdW0NASF0xW0NIM10pW05IXVtDSDJdW0NIMl1jMltjSF1bY0hdbm4yW0NIM10=

> <s_epik_cmdline>
J2VwaWtfcHl0aG9uJywgJy1waCcsICc3LjAnLCAnLXRuJywgJzgnLCAnLW1hJywgJzIwMCcsICctbWV0YWxfYmluZGluZycsICctaW1hZScsICc8aW5maWxlLm1hZT4nLCAnLW9tYWUnLCAnPG91dGZpbGUubWFlPic=

> <r_lp_tautomer_probability>
1

> <r_epik_Ionization_Penalty>
0.000327718

> <r_epik_Ionization_Penalty_Charging>
0.000294043

> <r_epik_Ionization_Penalty_Neutral>
3.36755e-05

> <r_epik_State_Penalty>
-0

> <r_epik_Charging_Adjusted_Penalty>
0.000294043

> <i_epik_Tot_Q>
1

> <i_epik_Tot_abs_Q>
1

> <r_epik_Metal_State_Penalty>
-0

> <b_epik_Metal_Only>
0

> <s_lp_Force_Field>
OPLS_2005

> <r_lp_Energy>
13.9595

> <b_lp_Chiralities_Consistent>
1

> <s_lp_Variant>
AV-unprocessed.smi:3183-4

> <Gold.Version>
5.8.1

> <Gold.Id.Protein>
6NUR|6NUR_protein|mol2

> <Gold.PLP.Fitness>
44.6760

> <Gold.PLP.PLP>
-33.9956

> <Gold.PLP.part.hbond>
-1.9771

> <Gold.PLP.part.metal>
0.0000

> <Gold.PLP.part.buried>
-2.7190

> <Gold.PLP.part.nonpolar>
-30.3537

> <Gold.PLP.part.repulsive>
0.2900

> <Gold.PLP.ligand.clash>
0.0000

> <Gold.PLP.ligand.torsion>
0.6590

> <Gold.PLP.Chemscore.Hbond>
3.0000

> <Gold.PLP.Chemscore.CHOScore>
0.9951

> <Gold.PLP.Chemscore.Metal>
0.0000

> <Gold.Chemscore.Hbonds>
donor molecule, donor type, donor heavy atom, donor atom, acceptor molecule, acceptor atom, score
      L1  H     6    27       P1  7957  0.99
      L1  H     6    43       P1  7948  2.00
      L1  C    11    33       P1  7921  1.00

> <Gold.PLP.Chemscore.Internal.Correction>
0.0130

> <Gold.Rescore>
     Score         DG    S(hbond)    S(metal)    S(lipo)     H(rot)  DE(clash)    DE(int)     intcor
     17.61     -18.46       1.93        0.00      85.94       1.38       0.18       0.66       ----

> <Gold.Chemscore.Fitness>
17.6145

> <Gold.Chemscore.DG>
-18.4602

> <Gold.Chemscore.ZeroCoef>
-5.4800

> <Gold.Chemscore.Hbond>
1.9312

> <Gold.Chemscore.Metal>
0.0000

> <Gold.Chemscore.Lipo>
85.9387

> <Gold.Chemscore.Internal_Hbond>
0.0000

> <Gold.Chemscore.DEClash>
0.1833

> <Gold.Chemscore.DEInternal>
0.6624

> <Gold.Chemscore.Rot>
1.3768

> <Gold.Chemscore.Internal.Correction>
   9.000000E+99

> <Gold.Chemscore.Hbonds>
donor molecule, donor type, donor heavy atom, donor atom, acceptor molecule, acceptor atom, score
      L1  H     6    27       P1  7957  0.92
      L1  H     6    43       P1  7948  0.98

> <Gold.Chemscore.Hbond.Weighted>
-6.4501

> <Gold.Chemscore.Metal.Weighted>
-0.0000

> <Gold.Chemscore.Lipo.Weighted>
-10.0548

> <Gold.Chemscore.Internal_Hbond.Weighted>
0.0000

> <Gold.Chemscore.DEClash.Weighted>
0.1833

> <Gold.Chemscore.DEInternal.Weighted>
0.6624

> <Gold.Chemscore.Rot.Weighted>
3.5247

> <Gold.Chemscore.Internal.Correction.Weighted>
   9.000000E+99

> <Gold.Protein.RotatedTorsions>
[ 6907 6896 6895 6894 ] final -133.75 input  -60.11 | X-H torsion
[ 7974 7965 7964 7962 ] final -134.51 input  175.53 | X-H torsion
[ 8008 7997 7996 7995 ] final  -26.65 input   59.86 | X-H torsion
[ 10167 10162 10161 10158 ] final  -94.96 input  -65.29 | X-H torsion
[ 10718 10713 10712 10709 ] final   19.43 input   66.30 | X-H torsion
[ 10763 10752 10751 10750 ] final -109.95 input  -60.55 | X-H torsion
[ 11005 11000 10999 10996 ] final -138.01 input  -57.11 | X-H torsion

> <Gold.Protein.ActiveResidues>
 VAL166  LYS551  ARG553  GLY616  TRP617  ASP618  TYR619  PRO620  LYS621  CYS622 
 ASP623  PHE694  ASN695  SER759  ASP760  ASP761  ALA762  ILE779  LEU786  VAL792 
 PHE793  MET794  SER795  GLU796  ALA797  LYS798  CYS799  TRP800  GLU811  SER814 

> <Gold.Protein.RotatedAtoms>
  150.9777  133.6278  159.2727 H   0  0  0  0  0  0  0  0  0  0  0  0  # atno 6907 bound_to 6896
  151.3544  135.0890  159.9423 H   0  0  0  0  0  0  0  0  0  0  0  0  # atno 6908 bound_to 6896
  152.5205  133.9363  159.7659 H   0  0  0  0  0  0  0  0  0  0  0  0  # atno 6909 bound_to 6896
  144.9096  140.6878  143.5033 H   0  0  0  0  0  0  0  0  0  0  0  0  # atno 7974 bound_to 7965
  154.4415  140.1893  156.0808 H   0  0  0  0  0  0  0  0  0  0  0  0  # atno 8008 bound_to 7997
  156.0440  140.3316  155.7249 H   0  0  0  0  0  0  0  0  0  0  0  0  # atno 8009 bound_to 7997
  155.5657  140.0608  157.2809 H   0  0  0  0  0  0  0  0  0  0  0  0  # atno 8010 bound_to 7997
  140.3091  143.3116  152.0167 H   0  0  0  0  0  0  0  0  0  0  0  0  # atno 10167 bound_to 10162
  157.1104  130.6506  149.5896 H   0  0  0  0  0  0  0  0  0  0  0  0  # atno 10718 bound_to 10713
  154.8221  135.4582  154.0811 H   0  0  0  0  0  0  0  0  0  0  0  0  # atno 10763 bound_to 10752
  153.2155  135.6887  153.8068 H   0  0  0  0  0  0  0  0  0  0  0  0  # atno 10764 bound_to 10752
  153.7504  135.3299  155.3297 H   0  0  0  0  0  0  0  0  0  0  0  0  # atno 10765 bound_to 10752
  140.8657  134.2114  157.4681 H   0  0  0  0  0  0  0  0  0  0  0  0  # atno 11005 bound_to 11000
  145.3476  139.1715  143.4452 LP  0  0  0  0  0  0  0  0  0  0  0  0  # atno 17320 bound_to 7965
  146.3152  140.3524  142.8657 LP  0  0  0  0  0  0  0  0  0  0  0  0  # atno 17321 bound_to 7965
  139.4898  144.6398  151.6900 LP  0  0  0  0  0  0  0  0  0  0  0  0  # atno 17342 bound_to 10162
  140.5584  144.0310  150.6158 LP  0  0  0  0  0  0  0  0  0  0  0  0  # atno 17343 bound_to 10162
  155.9852  130.4880  150.7019 LP  0  0  0  0  0  0  0  0  0  0  0  0  # atno 17370 bound_to 10713
  157.4564  131.0878  151.0792 LP  0  0  0  0  0  0  0  0  0  0  0  0  # atno 17371 bound_to 10713
  139.8709  134.9750  156.4868 LP  0  0  0  0  0  0  0  0  0  0  0  0  # atno 17394 bound_to 11000
  140.8632  133.8044  155.9286 LP  0  0  0  0  0  0  0  0  0  0  0  0  # atno 17395 bound_to 11000

$$$$
