AV-unprocessed.smi:2772|AV-procd|sdf|10665|dock9
  -GOLD-   2272015113D 1   1.00000     0.00000
 Structure written by MMmdl.
 55 57  0  0  0  0  0  0  0  0  3 V2000
  155.1492  140.3486  161.4127 C   0  0  0  0  0  0  0  0  0  0  0  0
  154.0614  140.8925  160.5105 C   0  0  0  0  0  0  0  0  0  0  0  0
  153.6831  142.2498  160.5680 C   0  0  0  0  0  0  0  0  0  0  0  0
  152.6651  142.7019  159.7064 C   0  0  0  0  0  0  0  0  0  0  0  0
  152.0557  141.7783  158.8232 C   0  0  0  0  0  0  0  0  0  0  0  0
  151.0358  142.1157  157.8933 N   0  0  0  0  0  0  0  0  0  0  0  0
  150.1642  141.2996  157.2766 C   0  0  0  0  0  0  0  0  0  0  0  0
  150.1311  140.0750  157.3937 O   0  0  0  0  0  0  0  0  0  0  0  0
  149.3314  141.9929  156.4867 N   0  0  0  0  0  0  0  0  0  0  0  0
  148.2648  141.4271  155.6646 C   0  0  2  0  0  0  0  0  0  0  0  0
  148.0638  142.2844  154.4008 C   0  0  0  0  0  0  0  0  0  0  0  0
  146.8272  141.8232  153.6046 C   0  0  0  0  0  0  0  0  0  0  0  0
  145.5908  141.8399  154.4390 N   0  3  2  0  0  0  0  0  0  0  0  0
  145.0623  143.2067  154.7791 C   0  0  2  0  0  0  0  0  0  0  0  0
  143.6605  143.1485  155.4384 C   0  0  0  0  0  0  0  0  0  0  0  0
  143.0787  144.5455  155.7146 C   0  0  0  0  0  0  0  0  0  0  0  0
  143.0135  145.3527  154.4750 N   0  3  1  0  0  0  0  0  0  0  0  0
  142.3448  146.6553  154.6837 C   0  0  0  0  0  0  0  0  0  0  0  0
  144.3507  145.4962  153.8558 C   0  0  0  0  0  0  0  0  0  0  0  0
  144.9639  144.1229  153.5326 C   0  0  0  0  0  0  0  0  0  0  0  0
  145.7761  140.9185  155.5971 C   0  0  0  0  0  0  0  0  0  0  0  0
  146.9629  141.3447  156.4827 C   0  0  0  0  0  0  0  0  0  0  0  0
  152.5226  140.4470  158.8398 C   0  0  0  0  0  0  0  0  0  0  0  0
  153.4973  140.0052  159.6630 N   0  0  0  0  0  0  0  0  0  0  0  0
  155.5486  141.1254  162.0653 H   0  0  0  0  0  0  0  0  0  0  0  0
  155.9708  139.9489  160.8177 H   0  0  0  0  0  0  0  0  0  0  0  0
  154.7570  139.5470  162.0392 H   0  0  0  0  0  0  0  0  0  0  0  0
  154.1635  142.9338  161.2521 H   0  0  0  0  0  0  0  0  0  0  0  0
  152.3855  143.7436  159.7302 H   0  0  0  0  0  0  0  0  0  0  0  0
  150.9986  143.0895  157.6294 H   0  0  0  0  0  0  0  0  0  0  0  0
  149.4450  142.9955  156.4547 H   0  0  0  0  0  0  0  0  0  0  0  0
  148.5221  140.4150  155.3465 H   0  0  0  0  0  0  0  0  0  0  0  0
  147.9630  143.3367  154.6685 H   0  0  0  0  0  0  0  0  0  0  0  0
  148.9501  142.2182  153.7688 H   0  0  0  0  0  0  0  0  0  0  0  0
  146.7155  142.3993  152.6887 H   0  0  0  0  0  0  0  0  0  0  0  0
  146.9906  140.7997  153.2634 H   0  0  0  0  0  0  0  0  0  0  0  0
  145.7424  143.6797  155.4877 H   0  0  0  0  0  0  0  0  0  0  0  0
  142.9742  142.5874  154.8024 H   0  0  0  0  0  0  0  0  0  0  0  0
  143.6985  142.6298  156.3950 H   0  0  0  0  0  0  0  0  0  0  0  0
  142.0779  144.4452  156.1369 H   0  0  0  0  0  0  0  0  0  0  0  0
  143.6852  145.0651  156.4585 H   0  0  0  0  0  0  0  0  0  0  0  0
  142.9043  147.2764  155.3846 H   0  0  0  0  0  0  0  0  0  0  0  0
  141.3389  146.5125  155.0802 H   0  0  0  0  0  0  0  0  0  0  0  0
  142.2550  147.1974  153.7418 H   0  0  0  0  0  0  0  0  0  0  0  0
  144.2666  146.0812  152.9388 H   0  0  0  0  0  0  0  0  0  0  0  0
  145.0074  146.0529  154.5267 H   0  0  0  0  0  0  0  0  0  0  0  0
  145.9474  144.3104  153.1045 H   0  0  0  0  0  0  0  0  0  0  0  0
  144.3720  143.6329  152.7581 H   0  0  0  0  0  0  0  0  0  0  0  0
  144.8683  140.8067  156.1860 H   0  0  0  0  0  0  0  0  0  0  0  0
  145.9702  139.9186  155.2063 H   0  0  0  0  0  0  0  0  0  0  0  0
  147.0866  140.6293  157.2965 H   0  0  0  0  0  0  0  0  0  0  0  0
  146.7498  142.3043  156.9549 H   0  0  0  0  0  0  0  0  0  0  0  0
  152.0979  139.7093  158.1746 H   0  0  0  0  0  0  0  0  0  0  0  0
  144.8737  141.4144  153.8686 H   0  0  0  0  0  0  0  0  0  0  0  0
  142.4397  144.8403  153.8203 H   0  0  0  0  0  0  0  0  0  0  0  0
  1  2  1  0  0  0  0
  1 25  1  0  0  0  0
  1 26  1  0  0  0  0
  1 27  1  0  0  0  0
  2 24  1  0  0  0  0
  2  3  2  0  0  0  0
  3  4  1  0  0  0  0
  3 28  1  0  0  0  0
  4  5  2  0  0  0  0
  4 29  1  0  0  0  0
  5  6  1  0  0  0  0
  5 23  1  0  0  0  0
  6  7  1  0  0  0  0
  6 30  1  0  0  0  0
  7  8  2  0  0  0  0
  7  9  1  0  0  0  0
  9 10  1  0  0  0  0
  9 31  1  0  0  0  0
 10 22  1  0  0  0  0
 10 11  1  0  0  0  0
 10 32  1  0  0  0  0
 11 12  1  0  0  0  0
 11 33  1  0  0  0  0
 11 34  1  0  0  0  0
 12 13  1  0  0  0  0
 12 35  1  0  0  0  0
 12 36  1  0  0  0  0
 13 14  1  0  0  0  0
 13 21  1  0  0  0  0
 13 54  1  0  0  0  0
 14 20  1  0  0  0  0
 14 15  1  0  0  0  0
 14 37  1  0  0  0  0
 15 16  1  0  0  0  0
 15 38  1  0  0  0  0
 15 39  1  0  0  0  0
 16 17  1  0  0  0  0
 16 40  1  0  0  0  0
 16 41  1  0  0  0  0
 17 18  1  0  0  0  0
 17 19  1  0  0  0  0
 17 55  1  0  0  0  0
 18 42  1  0  0  0  0
 18 43  1  0  0  0  0
 18 44  1  0  0  0  0
 19 20  1  0  0  0  0
 19 45  1  0  0  0  0
 19 46  1  0  0  0  0
 20 47  1  0  0  0  0
 20 48  1  0  0  0  0
 21 22  1  0  0  0  0
 21 49  1  0  0  0  0
 21 50  1  0  0  0  0
 22 51  1  0  0  0  0
 22 52  1  0  0  0  0
 23 24  2  0  0  0  0
 23 53  1  0  0  0  0
M  CHG  1  13   1
M  CHG  1  17   1
M  END
> <s_m_source_file>
AV-unprocessed.smi

> <i_m_source_file_index>
2772

> <i_lp_mmshare_version>
43012

> <i_f3d_flags>
0

> <s_epik_input>
W0NIM11jMVtjSF1bY0hdYyhbY0hdbjEpW05IXUMoPU8pW05IXVtDSF0yW0NIMl1bQ0gyXU4oW0NIMl1bQ0gyXTIpW0NIXTNbQ0gyXVtDSDJdTihbQ0gzXSlbQ0gyXVtDSDJdMw==

> <s_epik_cmdline>
J2VwaWtfcHl0aG9uJywgJy1waCcsICc3LjAnLCAnLXRuJywgJzgnLCAnLW1hJywgJzIwMCcsICctbWV0YWxfYmluZGluZycsICctaW1hZScsICc8aW5maWxlLm1hZT4nLCAnLW9tYWUnLCAnPG91dGZpbGUubWFlPic=

> <r_epik_Ionization_Penalty>
0.196786

> <r_epik_Ionization_Penalty_Charging>
0.180787

> <r_epik_Ionization_Penalty_Neutral>
0.0159988

> <r_epik_State_Penalty>
0.163322

> <r_epik_Charging_Adjusted_Penalty>
0.344109

> <i_epik_Tot_Q>
2

> <i_epik_Tot_abs_Q>
2

> <r_epik_Metal_State_Penalty>
0.163596

> <b_epik_Metal_Only>
0

> <s_lp_Force_Field>
OPLS_2005

> <r_lp_Energy>
45.3322

> <b_lp_Chiralities_Consistent>
1

> <s_lp_Variant>
AV-unprocessed.smi:2772-2

> <Gold.Version>
5.8.1

> <Gold.Id.Protein>
6NUR|6NUR_protein|mol2

> <Gold.PLP.Fitness>
48.7078

> <Gold.PLP.PLP>
-40.7784

> <Gold.PLP.part.hbond>
-2.0000

> <Gold.PLP.part.metal>
0.0000

> <Gold.PLP.part.buried>
-3.4840

> <Gold.PLP.part.nonpolar>
-35.3048

> <Gold.PLP.part.repulsive>
0.1726

> <Gold.PLP.ligand.clash>
0.0000

> <Gold.PLP.ligand.torsion>
0.5204

> <Gold.PLP.Chemscore.Hbond>
2.9760

> <Gold.PLP.Chemscore.CHOScore>
0.0000

> <Gold.PLP.Chemscore.Metal>
0.0000

> <Gold.Chemscore.Hbonds>
donor molecule, donor type, donor heavy atom, donor atom, acceptor molecule, acceptor atom, score
      L1  H     9    31       P1  8028  0.96
      L1  H    13    54       P1 10175  1.98

> <Gold.PLP.Chemscore.Internal.Correction>
0.0421

> <Gold.Rescore>
     Score         DG    S(hbond)    S(metal)    S(lipo)     H(rot)  DE(clash)    DE(int)     intcor
     19.23     -24.23       2.49        0.00     115.79       1.21       3.01       1.99       ----

> <Gold.Chemscore.Fitness>
19.2281

> <Gold.Chemscore.DG>
-24.2330

> <Gold.Chemscore.ZeroCoef>
-5.4800

> <Gold.Chemscore.Hbond>
2.4855

> <Gold.Chemscore.Metal>
0.0000

> <Gold.Chemscore.Lipo>
115.7859

> <Gold.Chemscore.Internal_Hbond>
0.0000

> <Gold.Chemscore.DEClash>
3.0137

> <Gold.Chemscore.DEInternal>
1.9912

> <Gold.Chemscore.Rot>
1.2092

> <Gold.Chemscore.Internal.Correction>
   9.000000E+99

> <Gold.Chemscore.Hbonds>
donor molecule, donor type, donor heavy atom, donor atom, acceptor molecule, acceptor atom, score
      L1  H     9    31       P1  8028  0.90
      L1  H    13    54       P1 10175  0.28

> <Gold.Chemscore.Hbond.Weighted>
-8.3016

> <Gold.Chemscore.Metal.Weighted>
-0.0000

> <Gold.Chemscore.Lipo.Weighted>
-13.5470

> <Gold.Chemscore.Internal_Hbond.Weighted>
0.0000

> <Gold.Chemscore.DEClash.Weighted>
3.0137

> <Gold.Chemscore.DEInternal.Weighted>
1.9912

> <Gold.Chemscore.Rot.Weighted>
3.0955

> <Gold.Chemscore.Internal.Correction.Weighted>
   9.000000E+99

> <Gold.Protein.RotatedTorsions>
[ 6907 6896 6895 6894 ] final  -53.26 input  -60.11 | X-H torsion
[ 7974 7965 7964 7962 ] final  -96.93 input  175.53 | X-H torsion
[ 8008 7997 7996 7995 ] final   57.96 input   59.86 | X-H torsion
[ 10167 10162 10161 10158 ] final  155.00 input  -65.29 | X-H torsion
[ 10718 10713 10712 10709 ] final   92.70 input   66.30 | X-H torsion
[ 10763 10752 10751 10750 ] final -138.21 input  -60.55 | X-H torsion
[ 11005 11000 10999 10996 ] final -116.26 input  -57.11 | X-H torsion

> <Gold.Protein.ActiveResidues>
 VAL166  LYS551  ARG553  GLY616  TRP617  ASP618  TYR619  PRO620  LYS621  CYS622 
 ASP623  PHE694  ASN695  SER759  ASP760  ASP761  ALA762  ILE779  LEU786  VAL792 
 PHE793  MET794  SER795  GLU796  ALA797  LYS798  CYS799  TRP800  GLU811  SER814 

> <Gold.Protein.RotatedAtoms>
  150.8443  134.7746  159.6957 H   0  0  0  0  0  0  0  0  0  0  0  0  # atno 6907 bound_to 6896
  152.4523  134.5364  159.9836 H   0  0  0  0  0  0  0  0  0  0  0  0  # atno 6908 bound_to 6896
  151.5497  133.3381  159.2986 H   0  0  0  0  0  0  0  0  0  0  0  0  # atno 6909 bound_to 6896
  145.3404  140.9458  143.2611 H   0  0  0  0  0  0  0  0  0  0  0  0  # atno 7974 bound_to 7965
  155.5422  140.3484  155.4449 H   0  0  0  0  0  0  0  0  0  0  0  0  # atno 8008 bound_to 7997
  156.0643  140.1347  156.9930 H   0  0  0  0  0  0  0  0  0  0  0  0  # atno 8009 bound_to 7997
  154.4495  140.0979  156.6549 H   0  0  0  0  0  0  0  0  0  0  0  0  # atno 8010 bound_to 7997
  139.4822  144.5137  151.7984 H   0  0  0  0  0  0  0  0  0  0  0  0  # atno 10167 bound_to 10162
  157.6958  131.0452  150.3921 H   0  0  0  0  0  0  0  0  0  0  0  0  # atno 10718 bound_to 10713
  154.8643  135.3619  154.5347 H   0  0  0  0  0  0  0  0  0  0  0  0  # atno 10763 bound_to 10752
  153.5972  135.7014  153.5404 H   0  0  0  0  0  0  0  0  0  0  0  0  # atno 10764 bound_to 10752
  153.3322  135.4121  155.1466 H   0  0  0  0  0  0  0  0  0  0  0  0  # atno 10765 bound_to 10752
  141.0433  133.9801  157.2958 H   0  0  0  0  0  0  0  0  0  0  0  0  # atno 11005 bound_to 11000
  144.8795  139.4924  143.6730 LP  0  0  0  0  0  0  0  0  0  0  0  0  # atno 17320 bound_to 7965
  146.3010  139.7426  142.9091 LP  0  0  0  0  0  0  0  0  0  0  0  0  # atno 17321 bound_to 7965
  140.4643  144.1677  150.5910 LP  0  0  0  0  0  0  0  0  0  0  0  0  # atno 17342 bound_to 10162
  140.4451  143.2510  151.9422 LP  0  0  0  0  0  0  0  0  0  0  0  0  # atno 17343 bound_to 10162
  156.4324  130.3974  149.6752 LP  0  0  0  0  0  0  0  0  0  0  0  0  # atno 17370 bound_to 10713
  156.3964  130.7653  151.2658 LP  0  0  0  0  0  0  0  0  0  0  0  0  # atno 17371 bound_to 10713
  139.9293  135.0200  156.8343 LP  0  0  0  0  0  0  0  0  0  0  0  0  # atno 17394 bound_to 11000
  140.6193  134.0009  155.7611 LP  0  0  0  0  0  0  0  0  0  0  0  0  # atno 17395 bound_to 11000

$$$$
