AV-unprocessed.smi:2069|AV-procd|sdf|8432|dock2
  -GOLD-   2272011123D 1   1.00000     0.00000
 Structure written by MMmdl.
 38 39  0  0  0  0  0  0  0  0  1 V2000
  143.5016  132.4122  150.7150 C   0  0  0  0  0  0  0  0  0  0  0  0
  144.1502  133.5529  151.4224 C   0  0  0  0  0  0  0  0  0  0  0  0
  143.4622  134.4393  152.1523 N   0  0  0  0  0  0  0  0  0  0  0  0
  144.2823  135.4082  152.7138 N   0  0  0  0  0  0  0  0  0  0  0  0
  145.5695  135.2220  152.3909 C   0  0  0  0  0  0  0  0  0  0  0  0
  146.6238  136.0659  152.8302 N   0  0  0  0  0  0  0  0  0  0  0  0
  146.5601  137.1067  153.6793 C   0  0  0  0  0  0  0  0  0  0  0  0
  145.5370  137.5128  154.2309 O   0  0  0  0  0  0  0  0  0  0  0  0
  147.7683  137.6635  153.8520 N   0  0  0  0  0  0  0  0  0  0  0  0
  148.0637  138.8100  154.7090 C   0  0  0  0  0  0  0  0  0  0  0  0
  148.8619  139.9264  153.9776 C   0  0  1  0  0  0  0  0  0  0  0  0
  148.0839  141.2620  154.0915 C   0  0  0  0  0  0  0  0  0  0  0  0
  150.2641  140.0406  154.4445 N   0  0  0  0  0  0  0  0  0  0  0  0
  150.3845  140.7673  155.7142 C   0  0  0  0  0  0  0  0  0  0  0  0
  151.8366  140.8616  156.2143 C   0  0  0  0  0  0  0  0  0  0  0  0
  152.3850  139.5577  156.3445 O   0  0  0  0  0  0  0  0  0  0  0  0
  152.3629  138.8469  155.1146 C   0  0  0  0  0  0  0  0  0  0  0  0
  150.9146  138.7348  154.6078 C   0  0  0  0  0  0  0  0  0  0  0  0
  145.8862  133.8333  151.3643 S   0  0  0  0  0  0  0  0  0  0  0  0
  142.4243  132.5660  150.6452 H   0  0  0  0  0  0  0  0  0  0  0  0
  143.6888  131.4844  151.2556 H   0  0  0  0  0  0  0  0  0  0  0  0
  143.9054  132.3186  149.7068 H   0  0  0  0  0  0  0  0  0  0  0  0
  147.5349  135.8509  152.4532 H   0  0  0  0  0  0  0  0  0  0  0  0
  148.5491  137.2627  153.3533 H   0  0  0  0  0  0  0  0  0  0  0  0
  147.1561  139.2284  155.1474 H   0  0  0  0  0  0  0  0  0  0  0  0
  148.6363  138.3910  155.5342 H   0  0  0  0  0  0  0  0  0  0  0  0
  148.8820  139.6615  152.9193 H   0  0  0  0  0  0  0  0  0  0  0  0
  147.0448  141.1664  153.7798 H   0  0  0  0  0  0  0  0  0  0  0  0
  148.4969  142.0393  153.4504 H   0  0  0  0  0  0  0  0  0  0  0  0
  148.0857  141.6322  155.1172 H   0  0  0  0  0  0  0  0  0  0  0  0
  150.0223  141.7880  155.6106 H   0  0  0  0  0  0  0  0  0  0  0  0
  149.7691  140.2863  156.4760 H   0  0  0  0  0  0  0  0  0  0  0  0
  152.4436  141.4536  155.5276 H   0  0  0  0  0  0  0  0  0  0  0  0
  151.8716  141.3602  157.1831 H   0  0  0  0  0  0  0  0  0  0  0  0
  152.9915  139.3531  154.3805 H   0  0  0  0  0  0  0  0  0  0  0  0
  152.7874  137.8549  155.2690 H   0  0  0  0  0  0  0  0  0  0  0  0
  150.3374  138.1168  155.2973 H   0  0  0  0  0  0  0  0  0  0  0  0
  150.9517  138.2022  153.6595 H   0  0  0  0  0  0  0  0  0  0  0  0
  1  2  1  0  0  0  0
  1 20  1  0  0  0  0
  1 21  1  0  0  0  0
  1 22  1  0  0  0  0
  2 19  1  0  0  0  0
  2  3  2  0  0  0  0
  3  4  1  0  0  0  0
  4  5  2  0  0  0  0
  5  6  1  0  0  0  0
  5 19  1  0  0  0  0
  6  7  1  0  0  0  0
  6 23  1  0  0  0  0
  7  8  2  0  0  0  0
  7  9  1  0  0  0  0
  9 10  1  0  0  0  0
  9 24  1  0  0  0  0
 10 11  1  0  0  0  0
 10 25  1  0  0  0  0
 10 26  1  0  0  0  0
 11 12  1  0  0  0  0
 11 13  1  0  0  0  0
 11 27  1  0  0  0  0
 12 28  1  0  0  0  0
 12 29  1  0  0  0  0
 12 30  1  0  0  0  0
 13 18  1  0  0  0  0
 13 14  1  0  0  0  0
 14 15  1  0  0  0  0
 14 31  1  0  0  0  0
 14 32  1  0  0  0  0
 15 16  1  0  0  0  0
 15 33  1  0  0  0  0
 15 34  1  0  0  0  0
 16 17  1  0  0  0  0
 17 18  1  0  0  0  0
 17 35  1  0  0  0  0
 17 36  1  0  0  0  0
 18 37  1  0  0  0  0
 18 38  1  0  0  0  0
M  END
> <s_m_source_file>
AV-unprocessed.smi

> <i_m_source_file_index>
2069

> <i_lp_mmshare_version>
43012

> <i_f3d_flags>
0

> <s_epik_input>
W0NIM11jMW5uYyhzMSlbTkhdQyg9TylbTkhdW0NIMl1bQ0BIXShbQ0gzXSlOMltDSDJdW0NIMl1PW0NIMl1bQ0gyXTI=

> <s_epik_cmdline>
J2VwaWtfcHl0aG9uJywgJy1waCcsICc3LjAnLCAnLXRuJywgJzgnLCAnLW1hJywgJzIwMCcsICctbWV0YWxfYmluZGluZycsICctaW1hZScsICc8aW5maWxlLm1hZT4nLCAnLW9tYWUnLCAnPG91dGZpbGUubWFlPic=

> <r_lp_tautomer_probability>
1

> <r_epik_Ionization_Penalty>
0.221104

> <r_epik_Ionization_Penalty_Charging>
0

> <r_epik_Ionization_Penalty_Neutral>
0.221104

> <r_epik_State_Penalty>
0.209349

> <r_epik_Charging_Adjusted_Penalty>
0.209349

> <i_epik_Tot_Q>
0

> <i_epik_Tot_abs_Q>
0

> <r_epik_Metal_State_Penalty>
0.561068

> <b_epik_Metal_Only>
0

> <s_lp_Force_Field>
OPLS_2005

> <r_lp_Energy>
28.2693

> <b_lp_Chiralities_Consistent>
1

> <s_lp_Variant>
AV-unprocessed.smi:2069-2

> <Gold.Version>
5.8.1

> <Gold.Id.Protein>
6NUR|6NUR_protein|mol2

> <Gold.PLP.Fitness>
38.3557

> <Gold.PLP.PLP>
-29.4701

> <Gold.PLP.part.hbond>
-3.9729

> <Gold.PLP.part.metal>
0.0000

> <Gold.PLP.part.buried>
-3.6327

> <Gold.PLP.part.nonpolar>
-22.6230

> <Gold.PLP.part.repulsive>
0.4539

> <Gold.PLP.ligand.clash>
0.0000

> <Gold.PLP.ligand.torsion>
1.0036

> <Gold.PLP.Chemscore.Hbond>
3.6215

> <Gold.PLP.Chemscore.CHOScore>
0.0000

> <Gold.PLP.Chemscore.Metal>
0.0000

> <Gold.Chemscore.Hbonds>
donor molecule, donor type, donor heavy atom, donor atom, acceptor molecule, acceptor atom, score
      L1  H     6    23       P1  7948  1.00
      L1  H     9    24       P1  7948  0.85
      P1  H  7989  7998       L1    13  0.90
      P1  H  7997  8010       L1    16  0.88

> <Gold.PLP.Chemscore.Internal.Correction>
0.0284

> <Gold.Rescore>
     Score         DG    S(hbond)    S(metal)    S(lipo)     H(rot)  DE(clash)    DE(int)     intcor
     13.81     -16.30       2.06        0.00      68.66       1.60       0.25       2.25       ----

> <Gold.Chemscore.Fitness>
13.8077

> <Gold.Chemscore.DG>
-16.3036

> <Gold.Chemscore.ZeroCoef>
-5.4800

> <Gold.Chemscore.Hbond>
2.0630

> <Gold.Chemscore.Metal>
0.0000

> <Gold.Chemscore.Lipo>
68.6620

> <Gold.Chemscore.Internal_Hbond>
0.0000

> <Gold.Chemscore.DEClash>
0.2471

> <Gold.Chemscore.DEInternal>
2.2489

> <Gold.Chemscore.Rot>
1.6016

> <Gold.Chemscore.Internal.Correction>
   9.000000E+99

> <Gold.Chemscore.Hbonds>
donor molecule, donor type, donor heavy atom, donor atom, acceptor molecule, acceptor atom, score
      L1  H     6    23       P1  7948  0.95
      L1  H     9    24       P1  7948  0.85
      P1  H  7989  7998       L1    13  0.05
      P1  H  7997  8010       L1    16  0.06

> <Gold.Chemscore.Hbond.Weighted>
-6.8903

> <Gold.Chemscore.Metal.Weighted>
-0.0000

> <Gold.Chemscore.Lipo.Weighted>
-8.0335

> <Gold.Chemscore.Internal_Hbond.Weighted>
0.0000

> <Gold.Chemscore.DEClash.Weighted>
0.2471

> <Gold.Chemscore.DEInternal.Weighted>
2.2489

> <Gold.Chemscore.Rot.Weighted>
4.1001

> <Gold.Chemscore.Internal.Correction.Weighted>
   9.000000E+99

> <Gold.Protein.RotatedTorsions>
[ 6907 6896 6895 6894 ] final  -75.71 input  -60.11 | X-H torsion
[ 7974 7965 7964 7962 ] final  167.18 input  175.53 | X-H torsion
[ 8008 7997 7996 7995 ] final   68.35 input   59.86 | X-H torsion
[ 10167 10162 10161 10158 ] final   35.22 input  -65.29 | X-H torsion
[ 10718 10713 10712 10709 ] final -123.73 input   66.30 | X-H torsion
[ 10763 10752 10751 10750 ] final  146.89 input  -60.55 | X-H torsion
[ 11005 11000 10999 10996 ] final  -80.43 input  -57.11 | X-H torsion

> <Gold.Protein.ActiveResidues>
 VAL166  LYS551  ARG553  GLY616  TRP617  ASP618  TYR619  PRO620  LYS621  CYS622 
 ASP623  PHE694  ASN695  SER759  ASP760  ASP761  ALA762  ILE779  LEU786  VAL792 
 PHE793  MET794  SER795  GLU796  ALA797  LYS798  CYS799  TRP800  GLU811  SER814 

> <Gold.Protein.RotatedAtoms>
  150.7050  134.4680  159.5411 H   0  0  0  0  0  0  0  0  0  0  0  0  # atno 6907 bound_to 6896
  152.2342  134.8290  160.0478 H   0  0  0  0  0  0  0  0  0  0  0  0  # atno 6908 bound_to 6896
  151.9095  133.3522  159.3895 H   0  0  0  0  0  0  0  0  0  0  0  0  # atno 6909 bound_to 6896
  144.7434  139.8723  143.6390 H   0  0  0  0  0  0  0  0  0  0  0  0  # atno 7974 bound_to 7965
  155.7070  140.3495  155.4957 H   0  0  0  0  0  0  0  0  0  0  0  0  # atno 8008 bound_to 7997
  155.9390  140.1098  157.1093 H   0  0  0  0  0  0  0  0  0  0  0  0  # atno 8009 bound_to 7997
  154.4099  140.1216  156.4888 H   0  0  0  0  0  0  0  0  0  0  0  0  # atno 8010 bound_to 7997
  140.4242  144.1416  150.6151 H   0  0  0  0  0  0  0  0  0  0  0  0  # atno 10167 bound_to 10162
  156.1527  130.6546  150.9936 H   0  0  0  0  0  0  0  0  0  0  0  0  # atno 10718 bound_to 10713
  154.0293  135.2899  155.3370 H   0  0  0  0  0  0  0  0  0  0  0  0  # atno 10763 bound_to 10752
  154.6998  135.5193  153.8513 H   0  0  0  0  0  0  0  0  0  0  0  0  # atno 10764 bound_to 10752
  153.0647  135.6626  154.0507 H   0  0  0  0  0  0  0  0  0  0  0  0  # atno 10765 bound_to 10752
  141.1668  133.7150  156.8271 H   0  0  0  0  0  0  0  0  0  0  0  0  # atno 11005 bound_to 11000
  146.1271  139.4299  143.0192 LP  0  0  0  0  0  0  0  0  0  0  0  0  # atno 17320 bound_to 7965
  145.7218  141.0072  143.1398 LP  0  0  0  0  0  0  0  0  0  0  0  0  # atno 17321 bound_to 7965
  140.4499  143.2491  151.9361 LP  0  0  0  0  0  0  0  0  0  0  0  0  # atno 17342 bound_to 10162
  139.4783  144.5572  151.8295 LP  0  0  0  0  0  0  0  0  0  0  0  0  # atno 17343 bound_to 10162
  157.6670  131.0869  150.7705 LP  0  0  0  0  0  0  0  0  0  0  0  0  # atno 17370 bound_to 10713
  156.7772  130.4847  149.5407 LP  0  0  0  0  0  0  0  0  0  0  0  0  # atno 17371 bound_to 10713
  140.2077  134.8850  157.3240 LP  0  0  0  0  0  0  0  0  0  0  0  0  # atno 17394 bound_to 11000
  140.2119  134.4128  155.7608 LP  0  0  0  0  0  0  0  0  0  0  0  0  # atno 17395 bound_to 11000

$$$$
