AV-unprocessed.smi:2881|AV-procd|sdf|11062|dock4
  -GOLD-   2272015533D 1   1.00000     0.00000
 Structure written by MMmdl.
 40 42  0  0  0  0  0  0  0  0  1 V2000
  152.4642  142.5451  162.9244 C   0  0  0  0  0  0  0  0  0  0  0  0
  151.8714  143.1217  161.6839 C   0  0  0  0  0  0  0  0  0  0  0  0
  151.9694  142.7443  160.3745 C   0  0  0  0  0  0  0  0  0  0  0  0
  151.1694  143.6935  159.6719 C   0  0  0  0  0  0  0  0  0  0  0  0
  150.9021  143.7630  158.1925 C   0  0  0  0  0  0  0  0  0  0  0  0
  150.4090  142.4077  157.6857 C   0  0  0  0  0  0  0  0  0  0  0  0
  150.9157  141.3694  158.1102 O   0  0  0  0  0  0  0  0  0  0  0  0
  149.4192  142.4321  156.7800 N   0  0  0  0  0  0  0  0  0  0  0  0
  148.7941  141.2536  156.1859 C   0  0  1  0  0  0  0  0  0  0  0  0
  147.2963  141.5144  155.9135 C   0  0  2  0  0  0  0  0  0  0  0  0
  146.5933  140.1644  155.6836 C   0  0  0  0  0  0  0  0  0  0  0  0
  147.1087  139.7541  154.2915 C   0  0  0  0  0  0  0  0  0  0  0  0
  148.0522  140.9167  153.9140 C   0  0  1  0  0  0  0  0  0  0  0  0
  147.3011  142.1030  154.5054 C   0  0  0  0  0  0  0  0  0  0  0  0
  149.3416  140.9248  154.7729 C   0  0  2  0  0  0  0  0  0  0  0  0
  150.2054  139.6494  154.7148 C   0  0  0  0  0  0  0  0  0  0  0  0
  151.5718  139.9709  154.8658 O   0  0  0  0  0  0  0  0  0  0  0  0
  150.6258  144.5924  160.4815 N   0  0  0  0  0  0  0  0  0  0  0  0
  151.0591  144.2319  161.7036 N   0  0  0  0  0  0  0  0  0  0  0  0
  150.7959  144.7460  162.5324 H   0  0  0  0  0  0  0  0  0  0  0  0
  152.9172  141.5738  162.7245 H   0  0  0  0  0  0  0  0  0  0  0  0
  151.7028  142.4086  163.6926 H   0  0  0  0  0  0  0  0  0  0  0  0
  153.2369  143.2014  163.3251 H   0  0  0  0  0  0  0  0  0  0  0  0
  152.5257  141.9096  159.9743 H   0  0  0  0  0  0  0  0  0  0  0  0
  150.1628  144.5316  157.9611 H   0  0  0  0  0  0  0  0  0  0  0  0
  151.8115  144.0384  157.6572 H   0  0  0  0  0  0  0  0  0  0  0  0
  149.0619  143.3320  156.4930 H   0  0  0  0  0  0  0  0  0  0  0  0
  148.9074  140.4108  156.8707 H   0  0  0  0  0  0  0  0  0  0  0  0
  146.8066  142.1290  156.6701 H   0  0  0  0  0  0  0  0  0  0  0  0
  146.8365  139.4302  156.4523 H   0  0  0  0  0  0  0  0  0  0  0  0
  145.5096  140.2865  155.6693 H   0  0  0  0  0  0  0  0  0  0  0  0
  147.5970  138.7808  154.2904 H   0  0  0  0  0  0  0  0  0  0  0  0
  146.2784  139.6964  153.5865 H   0  0  0  0  0  0  0  0  0  0  0  0
  148.2431  140.9919  152.8432 H   0  0  0  0  0  0  0  0  0  0  0  0
  146.3012  142.2362  154.0882 H   0  0  0  0  0  0  0  0  0  0  0  0
  147.8466  143.0454  154.4293 H   0  0  0  0  0  0  0  0  0  0  0  0
  149.9598  141.7553  154.4253 H   0  0  0  0  0  0  0  0  0  0  0  0
  149.9243  138.9745  155.5230 H   0  0  0  0  0  0  0  0  0  0  0  0
  150.0591  139.0978  153.7868 H   0  0  0  0  0  0  0  0  0  0  0  0
  152.0453  139.1790  155.0702 H   0  0  0  0  0  0  0  0  0  0  0  0
  1  2  1  0  0  0  0
  1 21  1  0  0  0  0
  1 22  1  0  0  0  0
  1 23  1  0  0  0  0
  2 19  1  0  0  0  0
  2  3  2  0  0  0  0
  3  4  1  0  0  0  0
  3 24  1  0  0  0  0
  4  5  1  0  0  0  0
  4 18  2  0  0  0  0
  5  6  1  0  0  0  0
  5 25  1  0  0  0  0
  5 26  1  0  0  0  0
  6  7  2  0  0  0  0
  6  8  1  0  0  0  0
  8  9  1  0  0  0  0
  8 27  1  0  0  0  0
  9 15  1  0  0  0  0
  9 10  1  0  0  0  0
  9 28  1  0  0  0  0
 10 14  1  0  0  0  0
 10 11  1  0  0  0  0
 10 29  1  0  0  0  0
 11 12  1  0  0  0  0
 11 30  1  0  0  0  0
 11 31  1  0  0  0  0
 12 13  1  0  0  0  0
 12 32  1  0  0  0  0
 12 33  1  0  0  0  0
 13 14  1  0  0  0  0
 13 15  1  0  0  0  0
 13 34  1  0  0  0  0
 14 35  1  0  0  0  0
 14 36  1  0  0  0  0
 15 16  1  0  0  0  0
 15 37  1  0  0  0  0
 16 17  1  0  0  0  0
 16 38  1  0  0  0  0
 16 39  1  0  0  0  0
 17 40  1  0  0  0  0
 18 19  1  0  0  0  0
 19 20  1  0  0  0  0
M  END
> <s_m_source_file>
AV-unprocessed.smi

> <i_m_source_file_index>
2881

> <i_lp_mmshare_version>
43012

> <i_f3d_flags>
0

> <s_epik_input>
W0NIM11jMVtjSF1jKG5bbkhdMSlbQ0gyXUMoPU8pW05IXVtDQEhdKFtDQEBIXTIzKVtDQEhdKFtDSDJdW09IXSlbQ0BASF0oW0NIMl0zKVtDSDJdW0NIMl0y

> <s_epik_cmdline>
J2VwaWtfcHl0aG9uJywgJy1waCcsICc3LjAnLCAnLXRuJywgJzgnLCAnLW1hJywgJzIwMCcsICctbWV0YWxfYmluZGluZycsICctaW1hZScsICc8aW5maWxlLm1hZT4nLCAnLW9tYWUnLCAnPG91dGZpbGUubWFlPic=

> <r_lp_tautomer_probability>
0.5

> <r_epik_Ionization_Penalty>
9.4349e-05

> <r_epik_Ionization_Penalty_Charging>
0

> <r_epik_Ionization_Penalty_Neutral>
9.4349e-05

> <r_epik_State_Penalty>
0.41068

> <r_epik_Charging_Adjusted_Penalty>
0.41068

> <i_epik_Tot_Q>
0

> <i_epik_Tot_abs_Q>
0

> <r_epik_Metal_State_Penalty>
0.4107

> <b_epik_Metal_Only>
0

> <s_lp_Force_Field>
OPLS_2005

> <r_lp_Energy>
47.6032

> <b_lp_Chiralities_Consistent>
1

> <s_lp_Variant>
AV-unprocessed.smi:2881-8

> <Gold.Version>
5.8.1

> <Gold.Id.Protein>
6NUR|6NUR_protein|mol2

> <Gold.PLP.Fitness>
44.5529

> <Gold.PLP.PLP>
-40.8588

> <Gold.PLP.part.hbond>
-2.8979

> <Gold.PLP.part.metal>
0.0000

> <Gold.PLP.part.buried>
-6.7078

> <Gold.PLP.part.nonpolar>
-33.2921

> <Gold.PLP.part.repulsive>
0.2529

> <Gold.PLP.ligand.clash>
0.0000

> <Gold.PLP.ligand.torsion>
1.0963

> <Gold.PLP.Chemscore.Hbond>
1.9500

> <Gold.PLP.Chemscore.CHOScore>
0.0000

> <Gold.PLP.Chemscore.Metal>
0.0000

> <Gold.Chemscore.Hbonds>
donor molecule, donor type, donor heavy atom, donor atom, acceptor molecule, acceptor atom, score
      L1  H     8    27       P1  8028  1.00
      P1  H  7989  7998       L1    17  0.75

> <Gold.PLP.Chemscore.Internal.Correction>
0.0367

> <Gold.Rescore>
     Score         DG    S(hbond)    S(metal)    S(lipo)     H(rot)  DE(clash)    DE(int)     intcor
     14.84     -17.33       1.96        0.00      95.02       2.28       0.00       2.49       ----

> <Gold.Chemscore.Fitness>
14.8362

> <Gold.Chemscore.DG>
-17.3341

> <Gold.Chemscore.ZeroCoef>
-5.4800

> <Gold.Chemscore.Hbond>
1.9648

> <Gold.Chemscore.Metal>
0.0000

> <Gold.Chemscore.Lipo>
95.0172

> <Gold.Chemscore.Internal_Hbond>
0.0000

> <Gold.Chemscore.DEClash>
0.0029

> <Gold.Chemscore.DEInternal>
2.4950

> <Gold.Chemscore.Rot>
2.2755

> <Gold.Chemscore.Internal.Correction>
   9.000000E+99

> <Gold.Chemscore.Hbonds>
donor molecule, donor type, donor heavy atom, donor atom, acceptor molecule, acceptor atom, score
      L1  H     8    27       P1  8028  0.97
      P1  H  7989  7998       L1    17  0.09

> <Gold.Chemscore.Hbond.Weighted>
-6.5623

> <Gold.Chemscore.Metal.Weighted>
-0.0000

> <Gold.Chemscore.Lipo.Weighted>
-11.1170

> <Gold.Chemscore.Internal_Hbond.Weighted>
0.0000

> <Gold.Chemscore.DEClash.Weighted>
0.0029

> <Gold.Chemscore.DEInternal.Weighted>
2.4950

> <Gold.Chemscore.Rot.Weighted>
5.8252

> <Gold.Chemscore.Internal.Correction.Weighted>
   9.000000E+99

> <Gold.Protein.RotatedTorsions>
[ 6907 6896 6895 6894 ] final  174.30 input  -60.11 | X-H torsion
[ 7974 7965 7964 7962 ] final   84.51 input  175.53 | X-H torsion
[ 8008 7997 7996 7995 ] final   79.53 input   59.86 | X-H torsion
[ 10167 10162 10161 10158 ] final  -83.56 input  -65.29 | X-H torsion
[ 10718 10713 10712 10709 ] final  -74.86 input   66.30 | X-H torsion
[ 10763 10752 10751 10750 ] final -169.25 input  -60.55 | X-H torsion
[ 11005 11000 10999 10996 ] final  -39.19 input  -57.11 | X-H torsion

> <Gold.Protein.ActiveResidues>
 VAL166  LYS551  ARG553  GLY616  TRP617  ASP618  TYR619  PRO620  LYS621  CYS622 
 ASP623  PHE694  ASN695  SER759  ASP760  ASP761  ALA762  ILE779  LEU786  VAL792 
 PHE793  MET794  SER795  GLU796  ALA797  LYS798  CYS799  TRP800  GLU811  SER814 

> <Gold.Protein.RotatedAtoms>
  151.7545  133.3329  159.3400 H   0  0  0  0  0  0  0  0  0  0  0  0  # atno 6907 bound_to 6896
  150.7522  134.6162  159.6121 H   0  0  0  0  0  0  0  0  0  0  0  0  # atno 6908 bound_to 6896
  152.3446  134.7090  160.0305 H   0  0  0  0  0  0  0  0  0  0  0  0  # atno 6909 bound_to 6896
  145.5978  139.2347  143.2263 H   0  0  0  0  0  0  0  0  0  0  0  0  # atno 7974 bound_to 7965
  155.8710  140.3449  155.5821 H   0  0  0  0  0  0  0  0  0  0  0  0  # atno 8008 bound_to 7997
  155.7827  140.0860  157.2070 H   0  0  0  0  0  0  0  0  0  0  0  0  # atno 8009 bound_to 7997
  154.4017  140.1498  156.3058 H   0  0  0  0  0  0  0  0  0  0  0  0  # atno 8010 bound_to 7997
  140.4215  143.2583  151.8883 H   0  0  0  0  0  0  0  0  0  0  0  0  # atno 10167 bound_to 10162
  156.0228  130.4427  150.2956 H   0  0  0  0  0  0  0  0  0  0  0  0  # atno 10718 bound_to 10713
  154.6543  135.2916  154.9948 H   0  0  0  0  0  0  0  0  0  0  0  0  # atno 10763 bound_to 10752
  154.1030  135.6574  153.4875 H   0  0  0  0  0  0  0  0  0  0  0  0  # atno 10764 bound_to 10752
  153.0393  135.5247  154.7465 H   0  0  0  0  0  0  0  0  0  0  0  0  # atno 10765 bound_to 10752
  141.0084  133.6920  156.2154 H   0  0  0  0  0  0  0  0  0  0  0  0  # atno 11005 bound_to 11000
  146.1599  140.6803  142.9282 LP  0  0  0  0  0  0  0  0  0  0  0  0  # atno 17320 bound_to 7965
  144.7323  140.4708  143.6929 LP  0  0  0  0  0  0  0  0  0  0  0  0  # atno 17321 bound_to 7965
  139.4783  144.5432  151.8497 LP  0  0  0  0  0  0  0  0  0  0  0  0  # atno 17342 bound_to 10162
  140.4528  144.1831  150.5899 LP  0  0  0  0  0  0  0  0  0  0  0  0  # atno 17343 bound_to 10162
  157.1059  131.0208  151.3067 LP  0  0  0  0  0  0  0  0  0  0  0  0  # atno 17370 bound_to 10713
  157.4743  130.7727  149.7353 LP  0  0  0  0  0  0  0  0  0  0  0  0  # atno 17371 bound_to 10713
  140.6775  134.4803  157.5588 LP  0  0  0  0  0  0  0  0  0  0  0  0  # atno 17394 bound_to 11000
  139.9076  134.8415  156.1648 LP  0  0  0  0  0  0  0  0  0  0  0  0  # atno 17395 bound_to 11000

$$$$
