AV-unprocessed.smi:229|AV-procd|sdf|1756|dock10
  -GOLD-   2262020283D 1   1.00000     0.00000
 Structure written by MMmdl.
 58 62  0  0  0  0  0  0  0  0  1 V2000
  152.7951  131.2157  157.3137 C   0  0  0  0  0  0  0  0  0  0  0  0
  151.6203  131.3974  156.3445 C   0  0  0  0  0  0  0  0  0  0  0  0
  150.9046  132.7451  156.5193 C   0  0  1  0  0  0  0  0  0  0  0  0
  151.8940  133.9228  156.5236 C   0  0  0  0  0  0  0  0  0  0  0  0
  151.1627  135.1833  156.5847 N   0  0  0  0  0  0  0  0  0  0  0  0
  151.8422  136.3105  156.9154 C   0  0  0  0  0  0  0  0  0  0  0  0
  153.1863  136.2591  157.1188 N   0  0  0  0  0  0  0  0  0  0  0  0
  153.8634  137.3631  157.4478 C   0  0  0  0  0  0  0  0  0  0  0  0
  153.4023  138.6021  157.6289 N   0  0  0  0  0  0  0  0  0  0  0  0
  152.0545  138.6594  157.4322 C   0  0  0  0  0  0  0  0  0  0  0  0
  151.2055  137.5740  157.0746 C   0  0  0  0  0  0  0  0  0  0  0  0
  149.8907  138.0166  156.9763 N   0  0  0  0  0  0  0  0  0  0  0  0
  149.9603  139.2906  157.2510 C   0  0  0  0  0  0  0  0  0  0  0  0
  151.2214  139.7575  157.5446 N   0  0  0  0  0  0  0  0  0  0  0  0
  151.5882  141.1162  157.9041 C   0  0  0  0  0  0  0  0  0  0  0  0
  150.3686  142.0627  157.9390 C   0  0  2  0  0  0  0  0  0  0  0  0
  149.9302  142.2613  156.6084 O   0  0  0  0  0  0  0  0  0  0  0  0
  150.6902  143.4453  158.5406 C   0  0  2  0  0  0  0  0  0  0  0  0
  151.6023  144.3241  157.6808 C   0  0  0  0  0  0  0  0  0  0  0  0
  152.2739  145.2466  158.6861 C   0  0  0  0  0  0  0  0  0  0  0  0
  152.0211  144.5680  160.0339 C   0  0  0  0  0  0  0  0  0  0  0  0
  151.4866  143.2937  159.7068 O   0  0  0  0  0  0  0  0  0  0  0  0
  150.1945  135.3287  155.5043 C   0  0  0  0  0  0  0  0  0  0  0  0
  149.2267  134.1239  155.4725 C   0  0  2  0  0  0  0  0  0  0  0  0
  148.3494  134.1589  154.2251 C   0  0  0  0  0  0  0  0  0  0  0  0
  147.0760  134.8333  154.7126 C   0  0  0  0  0  0  0  0  0  0  0  0
  146.9023  134.2606  155.9948 O   0  0  0  0  0  0  0  0  0  0  0  0
  148.1804  134.1562  156.6117 C   0  0  0  0  0  0  0  0  0  0  0  0
  149.9813  132.9086  155.4404 O   0  0  0  0  0  0  0  0  0  0  0  0
  153.2819  130.2533  157.1561 H   0  0  0  0  0  0  0  0  0  0  0  0
  152.4622  131.2535  158.3512 H   0  0  0  0  0  0  0  0  0  0  0  0
  153.5453  131.9944  157.1738 H   0  0  0  0  0  0  0  0  0  0  0  0
  151.9945  131.3170  155.3233 H   0  0  0  0  0  0  0  0  0  0  0  0
  150.9083  130.5815  156.4754 H   0  0  0  0  0  0  0  0  0  0  0  0
  150.3705  132.7311  157.4698 H   0  0  0  0  0  0  0  0  0  0  0  0
  152.5647  133.8336  157.3794 H   0  0  0  0  0  0  0  0  0  0  0  0
  152.5087  133.9044  155.6224 H   0  0  0  0  0  0  0  0  0  0  0  0
  154.9265  137.2347  157.5874 H   0  0  0  0  0  0  0  0  0  0  0  0
  149.0864  139.9258  157.2589 H   0  0  0  0  0  0  0  0  0  0  0  0
  152.0781  141.0824  158.8774 H   0  0  0  0  0  0  0  0  0  0  0  0
  152.3326  141.4772  157.1931 H   0  0  0  0  0  0  0  0  0  0  0  0
  149.5636  141.5945  158.5072 H   0  0  0  0  0  0  0  0  0  0  0  0
  149.6089  143.1466  156.5289 H   0  0  0  0  0  0  0  0  0  0  0  0
  149.7758  143.9907  158.7846 H   0  0  0  0  0  0  0  0  0  0  0  0
  152.3600  143.7114  157.1899 H   0  0  0  0  0  0  0  0  0  0  0  0
  151.0581  144.8685  156.9086 H   0  0  0  0  0  0  0  0  0  0  0  0
  153.3393  145.3447  158.4747 H   0  0  0  0  0  0  0  0  0  0  0  0
  151.8339  146.2443  158.6709 H   0  0  0  0  0  0  0  0  0  0  0  0
  152.9272  144.4716  160.6328 H   0  0  0  0  0  0  0  0  0  0  0  0
  151.2863  145.1274  160.6147 H   0  0  0  0  0  0  0  0  0  0  0  0
  149.6304  136.2571  155.5842 H   0  0  0  0  0  0  0  0  0  0  0  0
  150.7473  135.3842  154.5654 H   0  0  0  0  0  0  0  0  0  0  0  0
  148.8070  134.6736  153.3796 H   0  0  0  0  0  0  0  0  0  0  0  0
  148.1113  133.1437  153.9037 H   0  0  0  0  0  0  0  0  0  0  0  0
  147.2098  135.9125  154.8028 H   0  0  0  0  0  0  0  0  0  0  0  0
  146.2201  134.6403  154.0657 H   0  0  0  0  0  0  0  0  0  0  0  0
  148.1954  133.2583  157.2291 H   0  0  0  0  0  0  0  0  0  0  0  0
  148.3335  135.0127  157.2698 H   0  0  0  0  0  0  0  0  0  0  0  0
  1  2  1  0  0  0  0
  1 30  1  0  0  0  0
  1 31  1  0  0  0  0
  1 32  1  0  0  0  0
  2  3  1  0  0  0  0
  2 33  1  0  0  0  0
  2 34  1  0  0  0  0
  3 29  1  0  0  0  0
  3  4  1  0  0  0  0
  3 35  1  0  0  0  0
  4  5  1  0  0  0  0
  4 36  1  0  0  0  0
  4 37  1  0  0  0  0
  5  6  1  0  0  0  0
  5 23  1  0  0  0  0
  6 11  1  0  0  0  0
  6  7  2  0  0  0  0
  7  8  1  0  0  0  0
  8  9  2  0  0  0  0
  8 38  1  0  0  0  0
  9 10  1  0  0  0  0
 10 14  1  0  0  0  0
 10 11  2  0  0  0  0
 11 12  1  0  0  0  0
 12 13  2  0  0  0  0
 13 14  1  0  0  0  0
 13 39  1  0  0  0  0
 14 15  1  0  0  0  0
 15 16  1  0  0  0  0
 15 40  1  0  0  0  0
 15 41  1  0  0  0  0
 16 17  1  0  0  0  0
 16 18  1  0  0  0  0
 16 42  1  0  0  0  0
 17 43  1  0  0  0  0
 18 22  1  0  0  0  0
 18 19  1  0  0  0  0
 18 44  1  0  0  0  0
 19 20  1  0  0  0  0
 19 45  1  0  0  0  0
 19 46  1  0  0  0  0
 20 21  1  0  0  0  0
 20 47  1  0  0  0  0
 20 48  1  0  0  0  0
 21 22  1  0  0  0  0
 21 49  1  0  0  0  0
 21 50  1  0  0  0  0
 23 24  1  0  0  0  0
 23 51  1  0  0  0  0
 23 52  1  0  0  0  0
 24 28  1  0  0  0  0
 24 25  1  0  0  0  0
 24 29  1  0  0  0  0
 25 26  1  0  0  0  0
 25 53  1  0  0  0  0
 25 54  1  0  0  0  0
 26 27  1  0  0  0  0
 26 55  1  0  0  0  0
 26 56  1  0  0  0  0
 27 28  1  0  0  0  0
 28 57  1  0  0  0  0
 28 58  1  0  0  0  0
M  END
> <s_m_source_file>
AV-unprocessed.smi

> <i_m_source_file_index>
229

> <i_lp_mmshare_version>
43012

> <i_f3d_flags>
0

> <s_epik_input>
W0NIMl0xT1tDSDJdW0NIMl1bQ0BdMTJbQ0gyXU4oW0NIMl1bQ0BIXShPMilbQ0gyXVtDSDNdKWMobltjSF1uMyljKGMzNCluW2NIXW40W0NIMl1bQ0BIXShbT0hdKVtDQEBIXTVbQ0gyXVtDSDJdW0NIMl1PNQ==

> <s_epik_cmdline>
J2VwaWtfcHl0aG9uJywgJy1waCcsICc3LjAnLCAnLXRuJywgJzgnLCAnLW1hJywgJzIwMCcsICctbWV0YWxfYmluZGluZycsICctaW1hZScsICc8aW5maWxlLm1hZT4nLCAnLW9tYWUnLCAnPG91dGZpbGUubWFlPic=

> <r_lp_tautomer_probability>
1

> <r_epik_Ionization_Penalty>
0.00318402

> <r_epik_Ionization_Penalty_Charging>
0

> <r_epik_Ionization_Penalty_Neutral>
0.00318402

> <r_epik_State_Penalty>
0.00215642

> <r_epik_Charging_Adjusted_Penalty>
0.00215642

> <i_epik_Tot_Q>
0

> <i_epik_Tot_abs_Q>
0

> <r_epik_Metal_State_Penalty>
-0

> <b_epik_Metal_Only>
0

> <s_lp_Force_Field>
OPLS_2005

> <r_lp_Energy>
55.2871

> <b_lp_Chiralities_Consistent>
1

> <s_lp_Variant>
AV-unprocessed.smi:229-10

> <Gold.Version>
5.8.1

> <Gold.Id.Protein>
6NUR|6NUR_protein|mol2

> <Gold.PLP.Fitness>
45.4389

> <Gold.PLP.PLP>
-36.9913

> <Gold.PLP.part.hbond>
-3.0000

> <Gold.PLP.part.metal>
0.0000

> <Gold.PLP.part.buried>
-5.2743

> <Gold.PLP.part.nonpolar>
-27.7253

> <Gold.PLP.part.repulsive>
0.0068

> <Gold.PLP.ligand.clash>
0.0000

> <Gold.PLP.ligand.torsion>
0.4725

> <Gold.PLP.Chemscore.Hbond>
3.0000

> <Gold.PLP.Chemscore.CHOScore>
0.0000

> <Gold.PLP.Chemscore.Metal>
0.0000

> <Gold.Chemscore.Hbonds>
donor molecule, donor type, donor heavy atom, donor atom, acceptor molecule, acceptor atom, score
      L1  H    17    43       P1  8028  1.00
      P1  H  7997  8010       L1     9  1.00
      P1  H 10752 10764       L1     7  0.99

> <Gold.PLP.Chemscore.Internal.Correction>
0.3927

> <Gold.Rescore>
     Score         DG    S(hbond)    S(metal)    S(lipo)     H(rot)  DE(clash)    DE(int)     intcor
     17.05     -19.32       2.48        0.00     101.28       2.46       0.36       1.90       ----

> <Gold.Chemscore.Fitness>
17.0539

> <Gold.Chemscore.DG>
-19.3198

> <Gold.Chemscore.ZeroCoef>
-5.4800

> <Gold.Chemscore.Hbond>
2.4807

> <Gold.Chemscore.Metal>
0.0000

> <Gold.Chemscore.Lipo>
101.2777

> <Gold.Chemscore.Internal_Hbond>
0.0000

> <Gold.Chemscore.DEClash>
0.3619

> <Gold.Chemscore.DEInternal>
1.9039

> <Gold.Chemscore.Rot>
2.4591

> <Gold.Chemscore.Internal.Correction>
   9.000000E+99

> <Gold.Chemscore.Hbonds>
donor molecule, donor type, donor heavy atom, donor atom, acceptor molecule, acceptor atom, score
      L1  H    17    43       P1  8028  0.99
      P1  H  7997  8010       L1     9  0.88
      P1  H 10752 10764       L1     7  0.22

> <Gold.Chemscore.Hbond.Weighted>
-8.2856

> <Gold.Chemscore.Metal.Weighted>
-0.0000

> <Gold.Chemscore.Lipo.Weighted>
-11.8495

> <Gold.Chemscore.Internal_Hbond.Weighted>
0.0000

> <Gold.Chemscore.DEClash.Weighted>
0.3619

> <Gold.Chemscore.DEInternal.Weighted>
1.9039

> <Gold.Chemscore.Rot.Weighted>
6.2953

> <Gold.Chemscore.Internal.Correction.Weighted>
   9.000000E+99

> <Gold.Protein.RotatedTorsions>
[ 6907 6896 6895 6894 ] final -168.91 input  -60.11 | X-H torsion
[ 7974 7965 7964 7962 ] final   78.54 input  175.53 | X-H torsion
[ 8008 7997 7996 7995 ] final   37.35 input   59.86 | X-H torsion
[ 10167 10162 10161 10158 ] final  155.37 input  -65.29 | X-H torsion
[ 10718 10713 10712 10709 ] final    3.18 input   66.30 | X-H torsion
[ 10763 10752 10751 10750 ] final   13.64 input  -60.55 | X-H torsion
[ 11005 11000 10999 10996 ] final  131.24 input  -57.11 | X-H torsion

> <Gold.Protein.ActiveResidues>
 VAL166  LYS551  ARG553  GLY616  TRP617  ASP618  TYR619  PRO620  LYS621  CYS622 
 ASP623  PHE694  ASN695  SER759  ASP760  ASP761  ALA762  ILE779  LEU786  VAL792 
 PHE793  MET794  SER795  GLU796  ALA797  LYS798  CYS799  TRP800  GLU811  SER814 

> <Gold.Protein.RotatedAtoms>
  151.4832  133.3541  159.2841 H   0  0  0  0  0  0  0  0  0  0  0  0  # atno 6907 bound_to 6896
  150.8883  134.8286  159.7286 H   0  0  0  0  0  0  0  0  0  0  0  0  # atno 6908 bound_to 6896
  152.4807  134.4739  159.9696 H   0  0  0  0  0  0  0  0  0  0  0  0  # atno 6909 bound_to 6896
  145.6758  139.2509  143.1842 H   0  0  0  0  0  0  0  0  0  0  0  0  # atno 7974 bound_to 7965
  155.2023  140.3317  155.4341 H   0  0  0  0  0  0  0  0  0  0  0  0  # atno 8008 bound_to 7997
  156.2402  140.1891  156.7059 H   0  0  0  0  0  0  0  0  0  0  0  0  # atno 8009 bound_to 7997
  154.6133  140.0606  156.9507 H   0  0  0  0  0  0  0  0  0  0  0  0  # atno 8010 bound_to 7997
  139.4821  144.5105  151.8032 H   0  0  0  0  0  0  0  0  0  0  0  0  # atno 10167 bound_to 10162
  156.8741  130.5630  149.5656 H   0  0  0  0  0  0  0  0  0  0  0  0  # atno 10718 bound_to 10713
  153.1701  135.6811  153.8620 H   0  0  0  0  0  0  0  0  0  0  0  0  # atno 10763 bound_to 10752
  153.7986  135.3159  155.3388 H   0  0  0  0  0  0  0  0  0  0  0  0  # atno 10764 bound_to 10752
  154.7992  135.4788  154.0326 H   0  0  0  0  0  0  0  0  0  0  0  0  # atno 10765 bound_to 10752
  139.9718  134.9575  156.9409 H   0  0  0  0  0  0  0  0  0  0  0  0  # atno 11005 bound_to 11000
  146.1007  140.7548  142.9551 LP  0  0  0  0  0  0  0  0  0  0  0  0  # atno 17320 bound_to 7965
  144.7042  140.3782  143.7131 LP  0  0  0  0  0  0  0  0  0  0  0  0  # atno 17321 bound_to 7965
  140.4607  144.1726  150.5906 LP  0  0  0  0  0  0  0  0  0  0  0  0  # atno 17342 bound_to 10162
  140.4487  143.2495  151.9376 LP  0  0  0  0  0  0  0  0  0  0  0  0  # atno 17343 bound_to 10162
  156.0711  130.5744  150.9385 LP  0  0  0  0  0  0  0  0  0  0  0  0  # atno 17370 bound_to 10713
  157.6179  131.0932  150.8677 LP  0  0  0  0  0  0  0  0  0  0  0  0  # atno 17371 bound_to 10713
  140.5277  134.0845  155.7307 LP  0  0  0  0  0  0  0  0  0  0  0  0  # atno 17394 bound_to 11000
  141.1398  133.9159  157.2353 LP  0  0  0  0  0  0  0  0  0  0  0  0  # atno 17395 bound_to 11000

$$$$
