AV-unprocessed.smi:35|AV-procd|sdf|268|dock2
  -GOLD-   2262016 33D 1   1.00000     0.00000
 Structure written by MMmdl.
 28 29  0  0  0  0  0  0  0  0  2 V2000
  153.0938  141.7829  159.0529 O   0  0  0  0  0  0  0  0  0  0  0  0
  152.1122  141.4570  158.3878 C   0  0  0  0  0  0  0  0  0  0  0  0
  151.6691  140.1690  158.3031 N   0  5  0  0  0  0  0  0  0  0  0  0
  150.5766  139.8121  157.5652 C   0  0  0  0  0  0  0  0  0  0  0  0
  150.1886  138.6489  157.4564 O   0  0  0  0  0  0  0  0  0  0  0  0
  149.8567  140.8231  156.8724 N   0  0  0  0  0  0  0  0  0  0  0  0
  148.6451  140.4475  156.0468 C   0  0  1  0  0  0  0  0  0  0  0  0
  147.8149  141.5614  155.9394 O   0  0  0  0  0  0  0  0  0  0  0  0
  147.1308  141.4980  154.6978 C   0  0  1  0  0  0  0  0  0  0  0  0
  146.6019  142.8896  154.3173 C   0  0  0  0  0  0  0  0  0  0  0  0
  145.5994  143.2957  155.2247 O   0  0  0  0  0  0  0  0  0  0  0  0
  148.2150  140.9756  153.7497 C   0  0  2  0  0  0  0  0  0  0  0  0
  147.6300  140.3162  152.6446 O   0  0  0  0  0  0  0  0  0  0  0  0
  148.9962  139.9894  154.6126 C   0  0  1  0  0  0  0  0  0  0  0  0
  150.3763  140.0423  154.2972 O   0  0  0  0  0  0  0  0  0  0  0  0
  150.2934  142.1358  156.9224 C   0  0  0  0  0  0  0  0  0  0  0  0
  151.3782  142.4793  157.6457 C   0  0  0  0  0  0  0  0  0  0  0  0
  151.8931  144.3927  157.6242 Br  0  0  0  0  0  0  0  0  0  0  0  0
  148.1027  139.6877  156.6121 H   0  0  0  0  0  0  0  0  0  0  0  0
  146.3195  140.7703  154.7733 H   0  0  0  0  0  0  0  0  0  0  0  0
  147.4069  143.6245  154.2840 H   0  0  0  0  0  0  0  0  0  0  0  0
  146.1501  142.8596  153.3255 H   0  0  0  0  0  0  0  0  0  0  0  0
  145.9687  143.9350  155.8146 H   0  0  0  0  0  0  0  0  0  0  0  0
  148.8534  141.7962  153.4175 H   0  0  0  0  0  0  0  0  0  0  0  0
  148.2143  140.4006  151.9064 H   0  0  0  0  0  0  0  0  0  0  0  0
  148.6323  138.9676  154.4937 H   0  0  0  0  0  0  0  0  0  0  0  0
  150.7257  139.1654  154.3515 H   0  0  0  0  0  0  0  0  0  0  0  0
  149.7671  142.9001  156.3699 H   0  0  0  0  0  0  0  0  0  0  0  0
  1  2  2  0  0  0  0
  2 17  1  0  0  0  0
  2  3  1  0  0  0  0
  3  4  1  0  0  0  0
  4  5  2  0  0  0  0
  4  6  1  0  0  0  0
  6  7  1  0  0  0  0
  6 16  1  0  0  0  0
  7 14  1  0  0  0  0
  7  8  1  0  0  0  0
  7 19  1  0  0  0  0
  8  9  1  0  0  0  0
  9 10  1  0  0  0  0
  9 12  1  0  0  0  0
  9 20  1  0  0  0  0
 10 11  1  0  0  0  0
 10 21  1  0  0  0  0
 10 22  1  0  0  0  0
 11 23  1  0  0  0  0
 12 13  1  0  0  0  0
 12 14  1  0  0  0  0
 12 24  1  0  0  0  0
 13 25  1  0  0  0  0
 14 15  1  0  0  0  0
 14 26  1  0  0  0  0
 15 27  1  0  0  0  0
 16 17  2  0  0  0  0
 16 28  1  0  0  0  0
 17 18  1  0  0  0  0
M  CHG  1   3  -1
M  END
> <s_m_source_file>
AV-unprocessed.smi

> <i_m_source_file_index>
35

> <i_lp_mmshare_version>
43012

> <i_f3d_flags>
0

> <s_epik_input>
Tz1jMVtuSF1jKD1PKW4oW2NIXWMxQnIpW0NAQEhdMk9bQ0BASF0oW0NIMl1bT0hdKVtDQEBIXShbT0hdKVtDQEhdMltPSF0=

> <s_epik_cmdline>
J2VwaWtfcHl0aG9uJywgJy1waCcsICc3LjAnLCAnLXRuJywgJzgnLCAnLW1hJywgJzIwMCcsICctbWV0YWxfYmluZGluZycsICctaW1hZScsICc8aW5maWxlLm1hZT4nLCAnLW9tYWUnLCAnPG91dGZpbGUubWFlPic=

> <r_epik_Ionization_Penalty>
1.06112

> <r_epik_Ionization_Penalty_Charging>
2.1796e-09

> <r_epik_Ionization_Penalty_Neutral>
1.06112

> <r_epik_State_Penalty>
1.11484

> <r_epik_Charging_Adjusted_Penalty>
1.11484

> <i_epik_Tot_Q>
-1

> <i_epik_Tot_abs_Q>
1

> <r_epik_Metal_State_Penalty>
0.0032876

> <b_epik_Metal_Only>
0

> <s_epik_Chemistry_Notes>
This compound contains an acetal/aminal-like group ( X-CH(R)-Y where X, Y are N, S, or O) that may be acid/base labile, releasing an aldehyde.

> <s_lp_Force_Field>
OPLS_2005

> <r_lp_Energy>
42.419

> <b_lp_Chiralities_Consistent>
1

> <s_lp_Variant>
AV-unprocessed.smi:35-22

> <Gold.Version>
5.8.1

> <Gold.Id.Protein>
6NUR|6NUR_protein|mol2

> <Gold.PLP.Fitness>
36.2248

> <Gold.PLP.PLP>
-28.3423

> <Gold.PLP.part.hbond>
-2.0073

> <Gold.PLP.part.metal>
0.0000

> <Gold.PLP.part.buried>
-4.0591

> <Gold.PLP.part.nonpolar>
-22.4036

> <Gold.PLP.part.repulsive>
0.1078

> <Gold.PLP.ligand.clash>
0.0000

> <Gold.PLP.ligand.torsion>
0.7206

> <Gold.PLP.Chemscore.Hbond>
2.0000

> <Gold.PLP.Chemscore.CHOScore>
1.0000

> <Gold.PLP.Chemscore.Metal>
0.0000

> <Gold.Chemscore.Hbonds>
donor molecule, donor type, donor heavy atom, donor atom, acceptor molecule, acceptor atom, score
      L1  H    13    25       P1  7957  1.00
      P1  H  7989  7998       L1    15  1.00
      L1  C    16    28       P1  8028  1.00

> <Gold.PLP.Chemscore.Internal.Correction>
0.3237

> <Gold.Rescore>
     Score         DG    S(hbond)    S(metal)    S(lipo)     H(rot)  DE(clash)    DE(int)     intcor
      8.01      -8.84       1.88        0.00      54.36       3.63       0.09       0.74       ----

> <Gold.Chemscore.Fitness>
8.0106

> <Gold.Chemscore.DG>
-8.8361

> <Gold.Chemscore.ZeroCoef>
-5.4800

> <Gold.Chemscore.Hbond>
1.8800

> <Gold.Chemscore.Metal>
0.0000

> <Gold.Chemscore.Lipo>
54.3562

> <Gold.Chemscore.Internal_Hbond>
0.0000

> <Gold.Chemscore.DEClash>
0.0865

> <Gold.Chemscore.DEInternal>
0.7390

> <Gold.Chemscore.Rot>
3.6261

> <Gold.Chemscore.Internal.Correction>
   9.000000E+99

> <Gold.Chemscore.Hbonds>
donor molecule, donor type, donor heavy atom, donor atom, acceptor molecule, acceptor atom, score
      L1  H    13    25       P1  7957  0.95
      P1  H  7989  7998       L1    15  0.34

> <Gold.Chemscore.Hbond.Weighted>
-6.2792

> <Gold.Chemscore.Metal.Weighted>
-0.0000

> <Gold.Chemscore.Lipo.Weighted>
-6.3597

> <Gold.Chemscore.Internal_Hbond.Weighted>
0.0000

> <Gold.Chemscore.DEClash.Weighted>
0.0865

> <Gold.Chemscore.DEInternal.Weighted>
0.7390

> <Gold.Chemscore.Rot.Weighted>
9.2828

> <Gold.Chemscore.Internal.Correction.Weighted>
   9.000000E+99

> <Gold.Protein.RotatedTorsions>
[ 6907 6896 6895 6894 ] final  -98.42 input  -60.11 | X-H torsion
[ 7974 7965 7964 7962 ] final  135.28 input  175.53 | X-H torsion
[ 8008 7997 7996 7995 ] final   90.95 input   59.86 | X-H torsion
[ 10167 10162 10161 10158 ] final   90.50 input  -65.29 | X-H torsion
[ 10718 10713 10712 10709 ] final  -48.54 input   66.30 | X-H torsion
[ 10763 10752 10751 10750 ] final   11.68 input  -60.55 | X-H torsion
[ 11005 11000 10999 10996 ] final  -99.82 input  -57.11 | X-H torsion

> <Gold.Protein.ActiveResidues>
 VAL166  LYS551  ARG553  GLY616  TRP617  ASP618  TYR619  PRO620  LYS621  CYS622 
 ASP623  PHE694  ASN695  SER759  ASP760  ASP761  ALA762  ILE779  LEU786  VAL792 
 PHE793  MET794  SER795  GLU796  ALA797  LYS798  CYS799  TRP800  GLU811  SER814 

> <Gold.Protein.RotatedAtoms>
  150.7046  134.1197  159.4029 H   0  0  0  0  0  0  0  0  0  0  0  0  # atno 6907 bound_to 6896
  151.9183  135.0307  160.0529 H   0  0  0  0  0  0  0  0  0  0  0  0  # atno 6908 bound_to 6896
  152.2277  133.4998  159.5235 H   0  0  0  0  0  0  0  0  0  0  0  0  # atno 6909 bound_to 6896
  144.9679  139.4638  143.5447 H   0  0  0  0  0  0  0  0  0  0  0  0  # atno 7974 bound_to 7965
  156.0180  140.3343  155.7009 H   0  0  0  0  0  0  0  0  0  0  0  0  # atno 8008 bound_to 7997
  155.6063  140.0661  157.2736 H   0  0  0  0  0  0  0  0  0  0  0  0  # atno 8009 bound_to 7997
  154.4305  140.1801  156.1214 H   0  0  0  0  0  0  0  0  0  0  0  0  # atno 8010 bound_to 7997
  139.8467  144.6614  150.9218 H   0  0  0  0  0  0  0  0  0  0  0  0  # atno 10167 bound_to 10162
  156.1978  130.4155  149.9282 H   0  0  0  0  0  0  0  0  0  0  0  0  # atno 10718 bound_to 10713
  153.1901  135.6841  153.8364 H   0  0  0  0  0  0  0  0  0  0  0  0  # atno 10763 bound_to 10752
  153.7666  135.3202  155.3346 H   0  0  0  0  0  0  0  0  0  0  0  0  # atno 10764 bound_to 10752
  154.8112  135.4716  154.0620 H   0  0  0  0  0  0  0  0  0  0  0  0  # atno 10765 bound_to 10752
  141.1294  133.8351  157.1022 H   0  0  0  0  0  0  0  0  0  0  0  0  # atno 11005 bound_to 11000
  146.3373  139.8872  142.8815 LP  0  0  0  0  0  0  0  0  0  0  0  0  # atno 17320 bound_to 7965
  145.2603  141.0074  143.3830 LP  0  0  0  0  0  0  0  0  0  0  0  0  # atno 17321 bound_to 7965
  140.7792  143.3864  151.1387 LP  0  0  0  0  0  0  0  0  0  0  0  0  # atno 17342 bound_to 10162
  139.7505  143.8785  152.3075 LP  0  0  0  0  0  0  0  0  0  0  0  0  # atno 17343 bound_to 10162
  156.7002  130.8930  151.3598 LP  0  0  0  0  0  0  0  0  0  0  0  0  # atno 17370 bound_to 10713
  157.6968  130.9290  150.0667 LP  0  0  0  0  0  0  0  0  0  0  0  0  # atno 17371 bound_to 10713
  140.0327  134.9893  157.0810 LP  0  0  0  0  0  0  0  0  0  0  0  0  # atno 17394 bound_to 11000
  140.4260  134.1830  155.7166 LP  0  0  0  0  0  0  0  0  0  0  0  0  # atno 17395 bound_to 11000

$$$$
