AV-unprocessed.smi:1809|AV-procd|sdf|7330|dock6
  -GOLD-   22720 8583D 1   1.00000     0.00000
 Structure written by MMmdl.
 38 40  0  0  0  0  0  0  0  0  2 V2000
  149.7511  128.9976  153.6774 C   0  0  0  0  0  0  0  0  0  0  0  0
  149.8877  130.4516  153.9740 C   0  0  0  0  0  0  0  0  0  0  0  0
  150.7843  130.9317  154.8390 N   0  0  0  0  0  0  0  0  0  0  0  0
  150.7182  132.3133  154.9471 N   0  0  0  0  0  0  0  0  0  0  0  0
  149.7665  132.8566  154.1748 C   0  0  0  0  0  0  0  0  0  0  0  0
  149.5419  134.1804  154.1324 N   0  5  0  0  0  0  0  0  0  0  0  0
  150.2332  135.0100  154.9467 C   0  0  0  0  0  0  0  0  0  0  0  0
  150.8200  134.6948  155.9846 O   0  0  0  0  0  0  0  0  0  0  0  0
  150.2455  136.2846  154.5358 N   0  0  0  0  0  0  0  0  0  0  0  0
  150.9170  137.3803  155.2225 C   0  0  0  0  0  0  0  0  0  0  0  0
  150.8673  138.6679  154.3777 C   0  0  1  0  0  0  0  0  0  0  0  0
  149.5407  139.4459  154.5485 C   0  0  0  0  0  0  0  0  0  0  0  0
  149.5102  140.1349  155.8253 N   0  0  0  0  0  0  0  0  0  0  0  0
  148.3679  140.9806  156.0815 C   0  0  0  0  0  0  0  0  0  0  0  0
  148.8043  141.8608  157.2654 C   0  0  0  0  0  0  0  0  0  0  0  0
  150.3474  141.7932  157.2470 C   0  0  0  0  0  0  0  0  0  0  0  0
  150.6384  141.0151  155.9624 C   0  0  1  0  0  0  0  0  0  0  0  0
  151.9538  140.2276  155.8952 C   0  0  0  0  0  0  0  0  0  0  0  0
  151.9905  139.5220  154.6507 O   0  0  0  0  0  0  0  0  0  0  0  0
  148.8770  131.6718  153.2182 S   0  0  0  0  0  0  0  0  0  0  0  0
  149.1332  128.5198  154.4375 H   0  0  0  0  0  0  0  0  0  0  0  0
  150.7307  128.5190  153.6677 H   0  0  0  0  0  0  0  0  0  0  0  0
  149.2836  128.8531  152.7033 H   0  0  0  0  0  0  0  0  0  0  0  0
  149.7602  136.5073  153.6789 H   0  0  0  0  0  0  0  0  0  0  0  0
  150.4235  137.5519  156.1803 H   0  0  0  0  0  0  0  0  0  0  0  0
  151.9455  137.0951  155.4464 H   0  0  0  0  0  0  0  0  0  0  0  0
  150.9458  138.3728  153.3307 H   0  0  0  0  0  0  0  0  0  0  0  0
  149.4458  140.1720  153.7400 H   0  0  0  0  0  0  0  0  0  0  0  0
  148.6882  138.7713  154.4638 H   0  0  0  0  0  0  0  0  0  0  0  0
  148.1603  141.6063  155.2119 H   0  0  0  0  0  0  0  0  0  0  0  0
  147.4743  140.3952  156.2989 H   0  0  0  0  0  0  0  0  0  0  0  0
  148.4375  142.8814  157.1526 H   0  0  0  0  0  0  0  0  0  0  0  0
  148.4190  141.4677  158.2069 H   0  0  0  0  0  0  0  0  0  0  0  0
  150.8124  142.7793  157.2452 H   0  0  0  0  0  0  0  0  0  0  0  0
  150.7098  141.2477  158.1196 H   0  0  0  0  0  0  0  0  0  0  0  0
  150.6305  141.7279  155.1349 H   0  0  0  0  0  0  0  0  0  0  0  0
  152.8081  140.9025  155.9488 H   0  0  0  0  0  0  0  0  0  0  0  0
  152.0427  139.5323  156.7304 H   0  0  0  0  0  0  0  0  0  0  0  0
  1  2  1  0  0  0  0
  1 21  1  0  0  0  0
  1 22  1  0  0  0  0
  1 23  1  0  0  0  0
  2 20  1  0  0  0  0
  2  3  2  0  0  0  0
  3  4  1  0  0  0  0
  4  5  2  0  0  0  0
  5  6  1  0  0  0  0
  5 20  1  0  0  0  0
  6  7  1  0  0  0  0
  7  8  2  0  0  0  0
  7  9  1  0  0  0  0
  9 10  1  0  0  0  0
  9 24  1  0  0  0  0
 10 11  1  0  0  0  0
 10 25  1  0  0  0  0
 10 26  1  0  0  0  0
 11 19  1  0  0  0  0
 11 12  1  0  0  0  0
 11 27  1  0  0  0  0
 12 13  1  0  0  0  0
 12 28  1  0  0  0  0
 12 29  1  0  0  0  0
 13 17  1  0  0  0  0
 13 14  1  0  0  0  0
 14 15  1  0  0  0  0
 14 30  1  0  0  0  0
 14 31  1  0  0  0  0
 15 16  1  0  0  0  0
 15 32  1  0  0  0  0
 15 33  1  0  0  0  0
 16 17  1  0  0  0  0
 16 34  1  0  0  0  0
 16 35  1  0  0  0  0
 17 18  1  0  0  0  0
 17 36  1  0  0  0  0
 18 19  1  0  0  0  0
 18 37  1  0  0  0  0
 18 38  1  0  0  0  0
M  CHG  1   6  -1
M  END
> <s_m_source_file>
AV-unprocessed.smi

> <i_m_source_file_index>
1809

> <i_lp_mmshare_version>
43012

> <i_f3d_flags>
0

> <s_epik_input>
W0NIM11jMW5uYyhzMSlbTkhdQyg9TylbTkhdW0NIMl1bQ0BIXShbQ0gyXTIpT1tDSDJdW0NAQEhdKE4yMylbQ0gyXVtDSDJdW0NIMl0z

> <s_epik_cmdline>
J2VwaWtfcHl0aG9uJywgJy1waCcsICc3LjAnLCAnLXRuJywgJzgnLCAnLW1hJywgJzIwMCcsICctbWV0YWxfYmluZGluZycsICctaW1hZScsICc8aW5maWxlLm1hZT4nLCAnLW9tYWUnLCAnPG91dGZpbGUubWFlPic=

> <r_lp_tautomer_probability>
1

> <r_epik_Ionization_Penalty>
4.48809

> <r_epik_Ionization_Penalty_Charging>
3.27284

> <r_epik_Ionization_Penalty_Neutral>
1.21525

> <r_epik_State_Penalty>
4.69427

> <r_epik_Charging_Adjusted_Penalty>
7.96711

> <i_epik_Tot_Q>
-1

> <i_epik_Tot_abs_Q>
1

> <r_epik_Metal_State_Penalty>
1.91976

> <b_epik_Metal_Only>
1

> <s_lp_Force_Field>
OPLS_2005

> <r_lp_Energy>
48.8238

> <b_lp_Chiralities_Consistent>
1

> <s_lp_Variant>
AV-unprocessed.smi:1809-22

> <Gold.Version>
5.8.1

> <Gold.Id.Protein>
6NUR|6NUR_protein|mol2

> <Gold.PLP.Fitness>
37.0835

> <Gold.PLP.PLP>
-31.9526

> <Gold.PLP.part.hbond>
-2.0472

> <Gold.PLP.part.metal>
0.0000

> <Gold.PLP.part.buried>
-4.9042

> <Gold.PLP.part.nonpolar>
-25.4953

> <Gold.PLP.part.repulsive>
0.5627

> <Gold.PLP.ligand.clash>
0.0000

> <Gold.PLP.ligand.torsion>
0.4076

> <Gold.PLP.Chemscore.Hbond>
1.9760

> <Gold.PLP.Chemscore.CHOScore>
0.0000

> <Gold.PLP.Chemscore.Metal>
0.0000

> <Gold.Chemscore.Hbonds>
donor molecule, donor type, donor heavy atom, donor atom, acceptor molecule, acceptor atom, score
      L1  H     9    24       P1  7948  1.00
      P1  H  7989  7998       L1    19  0.91

> <Gold.PLP.Chemscore.Internal.Correction>
0.0182

> <Gold.Rescore>
     Score         DG    S(hbond)    S(metal)    S(lipo)     H(rot)  DE(clash)    DE(int)     intcor
     10.91     -12.98       1.21        0.00      58.05       1.31       0.01       2.06       ----

> <Gold.Chemscore.Fitness>
10.9098

> <Gold.Chemscore.DG>
-12.9789

> <Gold.Chemscore.ZeroCoef>
-5.4800

> <Gold.Chemscore.Hbond>
1.2120

> <Gold.Chemscore.Metal>
0.0000

> <Gold.Chemscore.Lipo>
58.0500

> <Gold.Chemscore.Internal_Hbond>
0.0000

> <Gold.Chemscore.DEClash>
0.0059

> <Gold.Chemscore.DEInternal>
2.0631

> <Gold.Chemscore.Rot>
1.3051

> <Gold.Chemscore.Internal.Correction>
   9.000000E+99

> <Gold.Chemscore.Hbonds>
donor molecule, donor type, donor heavy atom, donor atom, acceptor molecule, acceptor atom, score
      L1  H     9    24       P1  7948  0.44
      P1  H  7989  7998       L1    19  0.07

> <Gold.Chemscore.Hbond.Weighted>
-4.0482

> <Gold.Chemscore.Metal.Weighted>
-0.0000

> <Gold.Chemscore.Lipo.Weighted>
-6.7919

> <Gold.Chemscore.Internal_Hbond.Weighted>
0.0000

> <Gold.Chemscore.DEClash.Weighted>
0.0059

> <Gold.Chemscore.DEInternal.Weighted>
2.0631

> <Gold.Chemscore.Rot.Weighted>
3.3412

> <Gold.Chemscore.Internal.Correction.Weighted>
   9.000000E+99

> <Gold.Protein.RotatedTorsions>
[ 6907 6896 6895 6894 ] final  124.12 input  -60.11 | X-H torsion
[ 7974 7965 7964 7962 ] final -128.42 input  175.53 | X-H torsion
[ 8008 7997 7996 7995 ] final  162.41 input   59.86 | X-H torsion
[ 10167 10162 10161 10158 ] final   -5.39 input  -65.29 | X-H torsion
[ 10718 10713 10712 10709 ] final  137.23 input   66.30 | X-H torsion
[ 10763 10752 10751 10750 ] final   24.53 input  -60.55 | X-H torsion
[ 11005 11000 10999 10996 ] final  -61.22 input  -57.11 | X-H torsion

> <Gold.Protein.ActiveResidues>
 VAL166  LYS551  ARG553  GLY616  TRP617  ASP618  TYR619  PRO620  LYS621  CYS622 
 ASP623  PHE694  ASN695  SER759  ASP760  ASP761  ALA762  ILE779  LEU786  VAL792 
 PHE793  MET794  SER795  GLU796  ALA797  LYS798  CYS799  TRP800  GLU811  SER814 

> <Gold.Protein.RotatedAtoms>
  152.4104  133.6955  159.6392 H   0  0  0  0  0  0  0  0  0  0  0  0  # atno 6907 bound_to 6896
  150.7985  133.8633  159.3247 H   0  0  0  0  0  0  0  0  0  0  0  0  # atno 6908 bound_to 6896
  151.6377  135.1018  160.0186 H   0  0  0  0  0  0  0  0  0  0  0  0  # atno 6909 bound_to 6896
  144.9672  140.7508  143.4693 H   0  0  0  0  0  0  0  0  0  0  0  0  # atno 7974 bound_to 7965
  156.2033  140.1751  156.7852 H   0  0  0  0  0  0  0  0  0  0  0  0  # atno 8008 bound_to 7997
  154.5621  140.0697  156.8866 H   0  0  0  0  0  0  0  0  0  0  0  0  # atno 8009 bound_to 7997
  155.2828  140.3350  155.4259 H   0  0  0  0  0  0  0  0  0  0  0  0  # atno 8010 bound_to 7997
  140.6961  143.6313  150.8520 H   0  0  0  0  0  0  0  0  0  0  0  0  # atno 10167 bound_to 10162
  157.4383  131.1055  151.0173 H   0  0  0  0  0  0  0  0  0  0  0  0  # atno 10718 bound_to 10713
  153.0757  135.6603  154.0152 H   0  0  0  0  0  0  0  0  0  0  0  0  # atno 10763 bound_to 10752
  153.9786  135.2957  155.3423 H   0  0  0  0  0  0  0  0  0  0  0  0  # atno 10764 bound_to 10752
  154.7144  135.5191  153.8786 H   0  0  0  0  0  0  0  0  0  0  0  0  # atno 10765 bound_to 10752
  141.1316  133.6628  156.5342 H   0  0  0  0  0  0  0  0  0  0  0  0  # atno 11005 bound_to 11000
  145.2612  139.1991  143.4891 LP  0  0  0  0  0  0  0  0  0  0  0  0  # atno 17320 bound_to 7965
  146.3371  140.2543  142.8599 LP  0  0  0  0  0  0  0  0  0  0  0  0  # atno 17321 bound_to 7965
  140.0031  143.5722  152.2868 LP  0  0  0  0  0  0  0  0  0  0  0  0  # atno 17342 bound_to 10162
  139.6419  144.7655  151.2322 LP  0  0  0  0  0  0  0  0  0  0  0  0  # atno 17343 bound_to 10162
  157.1045  130.5995  149.5467 LP  0  0  0  0  0  0  0  0  0  0  0  0  # atno 17370 bound_to 10713
  155.9939  130.5001  150.7398 LP  0  0  0  0  0  0  0  0  0  0  0  0  # atno 17371 bound_to 10713
  140.4191  134.7203  157.4880 LP  0  0  0  0  0  0  0  0  0  0  0  0  # atno 17394 bound_to 11000
  140.0372  134.6319  155.9027 LP  0  0  0  0  0  0  0  0  0  0  0  0  # atno 17395 bound_to 11000

$$$$
