AV-unprocessed.smi:3056|AV-procd|sdf|11646|dock2
  -GOLD-   2272017 43D 1   1.00000     0.00000
 Structure written by MMmdl.
 48 49  0  0  0  0  0  0  0  0  2 V2000
  150.6771  143.5430  157.7972 C   0  0  0  0  0  0  0  0  0  0  0  0
  150.7691  142.2354  157.0658 C   0  0  0  0  0  0  0  0  0  0  0  0
  151.5495  141.0952  157.4076 C   0  0  0  0  0  0  0  0  0  0  0  0
  151.4204  140.1057  156.5392 N   0  0  0  0  0  0  0  0  0  0  0  0
  150.5438  140.5682  155.6215 N   0  0  0  0  0  0  0  0  0  0  0  0
  150.2014  139.7387  154.4711 C   0  0  1  0  0  0  0  0  0  0  0  0
  151.0791  138.4721  154.4593 C   0  0  0  0  0  0  0  0  0  0  0  0
  148.6786  139.4404  154.4443 C   0  0  2  0  0  0  0  0  0  0  0  0
  148.2590  138.4155  155.5157 C   0  0  0  0  0  0  0  0  0  0  0  0
  148.2849  138.9471  153.1003 N   0  3  0  0  0  0  0  0  0  0  0  0
  146.8331  138.9589  152.8026 C   0  0  0  0  0  0  0  0  0  0  0  0
  146.4237  137.9607  151.7055 C   0  0  0  0  0  0  0  0  0  0  0  0
  146.7962  138.1631  150.5492 O   0  0  0  0  0  0  0  0  0  0  0  0
  145.6707  136.8861  152.0415 N   0  0  0  0  0  0  0  0  0  0  0  0
  145.2498  136.5148  153.3965 C   0  0  0  0  0  0  0  0  0  0  0  0
  145.8727  135.1511  153.7433 C   0  0  0  0  0  0  0  0  0  0  0  0
  145.4785  134.1820  152.7755 O   0  0  0  0  0  0  0  0  0  0  0  0
  145.8655  134.5229  151.4458 C   0  0  1  0  0  0  0  0  0  0  0  0
  145.4146  133.3954  150.5109 C   0  0  0  0  0  0  0  0  0  0  0  0
  145.2339  135.8783  151.0704 C   0  0  0  0  0  0  0  0  0  0  0  0
  150.1415  141.8567  155.9134 C   0  0  0  0  0  0  0  0  0  0  0  0
  150.9599  143.4415  158.8451 H   0  0  0  0  0  0  0  0  0  0  0  0
  149.6653  143.9479  157.7757 H   0  0  0  0  0  0  0  0  0  0  0  0
  151.3342  144.2940  157.3580 H   0  0  0  0  0  0  0  0  0  0  0  0
  152.2099  140.9622  158.2520 H   0  0  0  0  0  0  0  0  0  0  0  0
  150.4531  140.3065  153.5730 H   0  0  0  0  0  0  0  0  0  0  0  0
  150.9890  137.9289  153.5190 H   0  0  0  0  0  0  0  0  0  0  0  0
  150.8113  137.7890  155.2659 H   0  0  0  0  0  0  0  0  0  0  0  0
  152.1332  138.7269  154.5756 H   0  0  0  0  0  0  0  0  0  0  0  0
  148.1516  140.3759  154.6387 H   0  0  0  0  0  0  0  0  0  0  0  0
  148.4371  138.7908  156.5230 H   0  0  0  0  0  0  0  0  0  0  0  0
  148.8091  137.4804  155.4058 H   0  0  0  0  0  0  0  0  0  0  0  0
  147.1966  138.1803  155.4580 H   0  0  0  0  0  0  0  0  0  0  0  0
  148.7365  139.5293  152.4082 H   0  0  0  0  0  0  0  0  0  0  0  0
  146.3097  138.6839  153.7187 H   0  0  0  0  0  0  0  0  0  0  0  0
  146.5156  139.9671  152.5377 H   0  0  0  0  0  0  0  0  0  0  0  0
  145.5268  137.2382  154.1610 H   0  0  0  0  0  0  0  0  0  0  0  0
  144.1613  136.4475  153.4274 H   0  0  0  0  0  0  0  0  0  0  0  0
  146.9612  135.2184  153.7815 H   0  0  0  0  0  0  0  0  0  0  0  0
  145.5382  134.8222  154.7273 H   0  0  0  0  0  0  0  0  0  0  0  0
  146.9535  134.5992  151.4011 H   0  0  0  0  0  0  0  0  0  0  0  0
  145.7039  133.6014  149.4800 H   0  0  0  0  0  0  0  0  0  0  0  0
  144.3318  133.2698  150.5368 H   0  0  0  0  0  0  0  0  0  0  0  0
  145.8671  132.4462  150.7987 H   0  0  0  0  0  0  0  0  0  0  0  0
  144.1451  135.8092  151.0922 H   0  0  0  0  0  0  0  0  0  0  0  0
  145.4983  136.1365  150.0441 H   0  0  0  0  0  0  0  0  0  0  0  0
  149.4563  142.3993  155.2789 H   0  0  0  0  0  0  0  0  0  0  0  0
  148.6349  138.0052  152.9995 H   0  0  0  0  0  0  0  0  0  0  0  0
  1  2  1  0  0  0  0
  1 22  1  0  0  0  0
  1 23  1  0  0  0  0
  1 24  1  0  0  0  0
  2 21  2  0  0  0  0
  2  3  1  0  0  0  0
  3  4  2  0  0  0  0
  3 25  1  0  0  0  0
  4  5  1  0  0  0  0
  5  6  1  0  0  0  0
  5 21  1  0  0  0  0
  6  7  1  0  0  0  0
  6  8  1  0  0  0  0
  6 26  1  0  0  0  0
  7 27  1  0  0  0  0
  7 28  1  0  0  0  0
  7 29  1  0  0  0  0
  8  9  1  0  0  0  0
  8 10  1  0  0  0  0
  8 30  1  0  0  0  0
  9 31  1  0  0  0  0
  9 32  1  0  0  0  0
  9 33  1  0  0  0  0
 10 11  1  0  0  0  0
 10 34  1  0  0  0  0
 10 48  1  0  0  0  0
 11 12  1  0  0  0  0
 11 35  1  0  0  0  0
 11 36  1  0  0  0  0
 12 13  2  0  0  0  0
 12 14  1  0  0  0  0
 14 20  1  0  0  0  0
 14 15  1  0  0  0  0
 15 16  1  0  0  0  0
 15 37  1  0  0  0  0
 15 38  1  0  0  0  0
 16 17  1  0  0  0  0
 16 39  1  0  0  0  0
 16 40  1  0  0  0  0
 17 18  1  0  0  0  0
 18 19  1  0  0  0  0
 18 20  1  0  0  0  0
 18 41  1  0  0  0  0
 19 42  1  0  0  0  0
 19 43  1  0  0  0  0
 19 44  1  0  0  0  0
 20 45  1  0  0  0  0
 20 46  1  0  0  0  0
 21 47  1  0  0  0  0
M  CHG  1  10   1
M  END
> <s_m_source_file>
AV-unprocessed.smi

> <i_m_source_file_index>
3056

> <i_lp_mmshare_version>
43012

> <i_f3d_flags>
0

> <s_epik_input>
W0NIM11jMVtjSF1ubihbY0hdMSlbQ0BIXShbQ0gzXSlbQ0BIXShbQ0gzXSlbTkhdW0NIMl1DKD1PKU4yW0NIMl1bQ0gyXU9bQ0BASF0oW0NIM10pW0NIMl0y

> <s_epik_cmdline>
J2VwaWtfcHl0aG9uJywgJy1waCcsICc3LjAnLCAnLXRuJywgJzgnLCAnLW1hJywgJzIwMCcsICctbWV0YWxfYmluZGluZycsICctaW1hZScsICc8aW5maWxlLm1hZT4nLCAnLW9tYWUnLCAnPG91dGZpbGUubWFlPic=

> <r_lp_tautomer_probability>
1

> <r_epik_Ionization_Penalty>
0.233715

> <r_epik_Ionization_Penalty_Charging>
0.233698

> <r_epik_Ionization_Penalty_Neutral>
1.68157e-05

> <r_epik_State_Penalty>
0.225221

> <r_epik_Charging_Adjusted_Penalty>
0.458919

> <i_epik_Tot_Q>
1

> <i_epik_Tot_abs_Q>
1

> <r_epik_Metal_State_Penalty>
0.225535

> <b_epik_Metal_Only>
0

> <s_lp_Force_Field>
OPLS_2005

> <r_lp_Energy>
27.0437

> <b_lp_Chiralities_Consistent>
1

> <s_lp_Variant>
AV-unprocessed.smi:3056-2

> <Gold.Version>
5.8.1

> <Gold.Id.Protein>
6NUR|6NUR_protein|mol2

> <Gold.PLP.Fitness>
51.3256

> <Gold.PLP.PLP>
-37.8431

> <Gold.PLP.part.hbond>
-2.7894

> <Gold.PLP.part.metal>
0.0000

> <Gold.PLP.part.buried>
-2.4563

> <Gold.PLP.part.nonpolar>
-34.0614

> <Gold.PLP.part.repulsive>
1.1891

> <Gold.PLP.ligand.clash>
0.0000

> <Gold.PLP.ligand.torsion>
0.5244

> <Gold.PLP.Chemscore.Hbond>
3.9920

> <Gold.PLP.Chemscore.CHOScore>
0.7797

> <Gold.PLP.Chemscore.Metal>
0.0000

> <Gold.Chemscore.Hbonds>
donor molecule, donor type, donor heavy atom, donor atom, acceptor molecule, acceptor atom, score
      L1  H    10    34       P1  7957  1.00
      L1  H    10    48       P1  7948  1.59
      P1  H  7954  7966       L1    13  0.98
      L1  C    21    47       P1  8028  0.86

> <Gold.PLP.Chemscore.Internal.Correction>
0.2163

> <Gold.Rescore>
     Score         DG    S(hbond)    S(metal)    S(lipo)     H(rot)  DE(clash)    DE(int)     intcor
     18.68     -20.19       2.89        0.00      81.34       1.74       0.51       1.01       ----

> <Gold.Chemscore.Fitness>
18.6772

> <Gold.Chemscore.DG>
-20.1926

> <Gold.Chemscore.ZeroCoef>
-5.4800

> <Gold.Chemscore.Hbond>
2.8856

> <Gold.Chemscore.Metal>
0.0000

> <Gold.Chemscore.Lipo>
81.3441

> <Gold.Chemscore.Internal_Hbond>
0.0000

> <Gold.Chemscore.DEClash>
0.5095

> <Gold.Chemscore.DEInternal>
1.0059

> <Gold.Chemscore.Rot>
1.7354

> <Gold.Chemscore.Internal.Correction>
   9.000000E+99

> <Gold.Chemscore.Hbonds>
donor molecule, donor type, donor heavy atom, donor atom, acceptor molecule, acceptor atom, score
      L1  H    10    34       P1  7957  0.98
      L1  H    10    48       P1  7948  0.75
      P1  H  7954  7966       L1    13  0.88

> <Gold.Chemscore.Hbond.Weighted>
-9.6379

> <Gold.Chemscore.Metal.Weighted>
-0.0000

> <Gold.Chemscore.Lipo.Weighted>
-9.5173

> <Gold.Chemscore.Internal_Hbond.Weighted>
0.0000

> <Gold.Chemscore.DEClash.Weighted>
0.5095

> <Gold.Chemscore.DEInternal.Weighted>
1.0059

> <Gold.Chemscore.Rot.Weighted>
4.4426

> <Gold.Chemscore.Internal.Correction.Weighted>
   9.000000E+99

> <Gold.Protein.RotatedTorsions>
[ 6907 6896 6895 6894 ] final   91.27 input  -60.11 | X-H torsion
[ 7974 7965 7964 7962 ] final   97.72 input  175.53 | X-H torsion
[ 8008 7997 7996 7995 ] final -177.47 input   59.86 | X-H torsion
[ 10167 10162 10161 10158 ] final  -71.62 input  -65.29 | X-H torsion
[ 10718 10713 10712 10709 ] final -131.13 input   66.30 | X-H torsion
[ 10763 10752 10751 10750 ] final -108.07 input  -60.55 | X-H torsion
[ 11005 11000 10999 10996 ] final  -79.02 input  -57.11 | X-H torsion

> <Gold.Protein.ActiveResidues>
 VAL166  LYS551  ARG553  GLY616  TRP617  ASP618  TYR619  PRO620  LYS621  CYS622 
 ASP623  PHE694  ASN695  SER759  ASP760  ASP761  ALA762  ILE779  LEU786  VAL792 
 PHE793  MET794  SER795  GLU796  ALA797  LYS798  CYS799  TRP800  GLU811  SER814 

> <Gold.Protein.RotatedAtoms>
  152.5449  134.1682  159.8585 H   0  0  0  0  0  0  0  0  0  0  0  0  # atno 6907 bound_to 6896
  151.1694  133.4786  159.2601 H   0  0  0  0  0  0  0  0  0  0  0  0  # atno 6908 bound_to 6896
  151.1290  135.0131  159.8629 H   0  0  0  0  0  0  0  0  0  0  0  0  # atno 6909 bound_to 6896
  145.4217  139.2320  143.3192 H   0  0  0  0  0  0  0  0  0  0  0  0  # atno 7974 bound_to 7965
  156.0073  140.1233  157.0489 H   0  0  0  0  0  0  0  0  0  0  0  0  # atno 8008 bound_to 7997
  154.4263  140.1095  156.5849 H   0  0  0  0  0  0  0  0  0  0  0  0  # atno 8009 bound_to 7997
  155.6129  140.3471  155.4630 H   0  0  0  0  0  0  0  0  0  0  0  0  # atno 8010 bound_to 7997
  140.5258  143.2326  151.7349 H   0  0  0  0  0  0  0  0  0  0  0  0  # atno 10167 bound_to 10162
  156.2213  130.6980  151.0759 H   0  0  0  0  0  0  0  0  0  0  0  0  # atno 10718 bound_to 10713
  154.8113  135.4651  154.0525 H   0  0  0  0  0  0  0  0  0  0  0  0  # atno 10763 bound_to 10752
  153.1953  135.6861  153.8307 H   0  0  0  0  0  0  0  0  0  0  0  0  # atno 10764 bound_to 10752
  153.7810  135.3256  155.3343 H   0  0  0  0  0  0  0  0  0  0  0  0  # atno 10765 bound_to 10752
  141.1666  133.7088  156.8059 H   0  0  0  0  0  0  0  0  0  0  0  0  # atno 11005 bound_to 11000
  146.2653  140.4942  142.8836 LP  0  0  0  0  0  0  0  0  0  0  0  0  # atno 17320 bound_to 7965
  144.8241  140.6599  143.6334 LP  0  0  0  0  0  0  0  0  0  0  0  0  # atno 17321 bound_to 7965
  139.4938  144.4187  152.0001 LP  0  0  0  0  0  0  0  0  0  0  0  0  # atno 17342 bound_to 10162
  140.3286  144.3343  150.5992 LP  0  0  0  0  0  0  0  0  0  0  0  0  # atno 17343 bound_to 10162
  157.7089  131.0744  150.6572 LP  0  0  0  0  0  0  0  0  0  0  0  0  # atno 17370 bound_to 10713
  156.6635  130.4519  149.5680 LP  0  0  0  0  0  0  0  0  0  0  0  0  # atno 17371 bound_to 10713
  140.2222  134.8748  157.3389 LP  0  0  0  0  0  0  0  0  0  0  0  0  # atno 17394 bound_to 11000
  140.1976  134.4295  155.7681 LP  0  0  0  0  0  0  0  0  0  0  0  0  # atno 17395 bound_to 11000

$$$$
