AV-unprocessed.smi:862|AV-procd|sdf|3981|dock4
  -GOLD-   22720 1453D 1   1.00000     0.00000
 Structure written by MMmdl.
 45 47  0  0  0  0  0  0  0  0  3 V2000
  149.3674  130.8597  156.4972 N   0  0  0  0  0  0  0  0  0  0  0  0
  150.2113  131.8066  156.9185 C   0  0  0  0  0  0  0  0  0  0  0  0
  150.5183  131.8989  158.1056 O   0  0  0  0  0  0  0  0  0  0  0  0
  150.7221  132.6013  155.9445 N   0  0  0  0  0  0  0  0  0  0  0  0
  150.2453  132.6835  154.5543 C   0  0  0  0  0  0  0  0  0  0  0  0
  149.4409  133.9853  154.3853 C   0  0  0  0  0  0  0  0  0  0  0  0
  150.2854  135.2205  154.7645 C   0  0  0  0  0  0  0  0  0  0  0  0
  149.4426  136.4372  154.7131 N   0  3  0  0  0  0  0  0  0  0  0  0
  149.9400  137.6141  155.4664 C   0  0  1  0  0  0  0  0  0  0  0  0
  150.9904  138.4354  154.7106 C   0  0  0  0  0  0  0  0  0  0  0  0
  150.9523  139.8254  155.3605 C   0  0  0  0  0  0  0  0  0  0  0  0
  149.6316  139.9116  156.1458 C   0  0  0  0  0  0  0  0  0  0  0  0
  148.8402  138.6322  155.8246 C   0  0  1  0  0  0  0  0  0  0  0  0
  147.8479  138.8494  154.7496 N   0  0  0  0  0  0  0  0  0  0  0  0
  148.0261  138.7757  153.3883 C   0  0  0  0  0  0  0  0  0  0  0  0
  146.8094  139.0404  152.8150 C   0  0  0  0  0  0  0  0  0  0  0  0
  145.9361  139.2600  153.8450 N   0  3  0  0  0  0  0  0  0  0  0  0
  146.5666  139.1408  155.0177 C   0  0  0  0  0  0  0  0  0  0  0  0
  150.9385  135.0325  156.1540 C   0  0  0  0  0  0  0  0  0  0  0  0
  151.6698  133.6809  156.2452 C   0  0  0  0  0  0  0  0  0  0  0  0
  148.9580  130.2234  157.1660 H   0  0  0  0  0  0  0  0  0  0  0  0
  149.1509  130.7744  155.5150 H   0  0  0  0  0  0  0  0  0  0  0  0
  151.1034  132.6844  153.8806 H   0  0  0  0  0  0  0  0  0  0  0  0
  149.6370  131.8331  154.2460 H   0  0  0  0  0  0  0  0  0  0  0  0
  149.0928  134.0728  153.3554 H   0  0  0  0  0  0  0  0  0  0  0  0
  148.5479  133.9380  155.0107 H   0  0  0  0  0  0  0  0  0  0  0  0
  151.0764  135.3103  154.0191 H   0  0  0  0  0  0  0  0  0  0  0  0
  149.3519  136.7109  153.7453 H   0  0  0  0  0  0  0  0  0  0  0  0
  150.3794  137.2753  156.4051 H   0  0  0  0  0  0  0  0  0  0  0  0
  151.9846  137.9901  154.7631 H   0  0  0  0  0  0  0  0  0  0  0  0
  150.7250  138.5138  153.6556 H   0  0  0  0  0  0  0  0  0  0  0  0
  151.7974  139.9562  156.0378 H   0  0  0  0  0  0  0  0  0  0  0  0
  151.0216  140.6092  154.6052 H   0  0  0  0  0  0  0  0  0  0  0  0
  149.8552  139.9377  157.2132 H   0  0  0  0  0  0  0  0  0  0  0  0
  149.0750  140.8225  155.9210 H   0  0  0  0  0  0  0  0  0  0  0  0
  148.2914  138.3025  156.7088 H   0  0  0  0  0  0  0  0  0  0  0  0
  148.9799  138.5542  152.9321 H   0  0  0  0  0  0  0  0  0  0  0  0
  146.5080  139.0891  151.7785 H   0  0  0  0  0  0  0  0  0  0  0  0
  146.1243  139.2623  155.9908 H   0  0  0  0  0  0  0  0  0  0  0  0
  151.6474  135.8341  156.3598 H   0  0  0  0  0  0  0  0  0  0  0  0
  150.1767  135.0836  156.9334 H   0  0  0  0  0  0  0  0  0  0  0  0
  152.1313  133.5707  157.2277 H   0  0  0  0  0  0  0  0  0  0  0  0
  152.4924  133.6492  155.5295 H   0  0  0  0  0  0  0  0  0  0  0  0
  148.5277  136.1913  155.0628 H   0  0  0  0  0  0  0  0  0  0  0  0
  144.9553  139.4879  153.7364 H   0  0  0  0  0  0  0  0  0  0  0  0
  1  2  1  0  0  0  0
  1 21  1  0  0  0  0
  1 22  1  0  0  0  0
  2  3  2  0  0  0  0
  2  4  1  0  0  0  0
  4 20  1  0  0  0  0
  4  5  1  0  0  0  0
  5  6  1  0  0  0  0
  5 23  1  0  0  0  0
  5 24  1  0  0  0  0
  6  7  1  0  0  0  0
  6 25  1  0  0  0  0
  6 26  1  0  0  0  0
  7  8  1  0  0  0  0
  7 19  1  0  0  0  0
  7 27  1  0  0  0  0
  8  9  1  0  0  0  0
  8 28  1  0  0  0  0
  8 44  1  0  0  0  0
  9 13  1  0  0  0  0
  9 10  1  0  0  0  0
  9 29  1  0  0  0  0
 10 11  1  0  0  0  0
 10 30  1  0  0  0  0
 10 31  1  0  0  0  0
 11 12  1  0  0  0  0
 11 32  1  0  0  0  0
 11 33  1  0  0  0  0
 12 13  1  0  0  0  0
 12 34  1  0  0  0  0
 12 35  1  0  0  0  0
 13 14  1  0  0  0  0
 13 36  1  0  0  0  0
 14 18  1  0  0  0  0
 14 15  1  0  0  0  0
 15 16  2  0  0  0  0
 15 37  1  0  0  0  0
 16 17  1  0  0  0  0
 16 38  1  0  0  0  0
 17 18  2  0  0  0  0
 17 45  1  0  0  0  0
 18 39  1  0  0  0  0
 19 20  1  0  0  0  0
 19 40  1  0  0  0  0
 19 41  1  0  0  0  0
 20 42  1  0  0  0  0
 20 43  1  0  0  0  0
M  CHG  1   8   1
M  CHG  1  17   1
M  END
> <s_m_source_file>
AV-unprocessed.smi

> <i_m_source_file_index>
862

> <i_lp_mmshare_version>
43012

> <i_f3d_flags>
0

> <s_epik_input>
W05IMl1DKD1PKU4xW0NIMl1bQ0gyXVtDSF0oW0NIMl1bQ0gyXTEpW05IXVtDQEBIXTJbQ0gyXVtDSDJdW0NIMl1bQ0BIXTJuM1tjSF1bY0hdbltjSF0z

> <s_epik_cmdline>
J2VwaWtfcHl0aG9uJywgJy1waCcsICc3LjAnLCAnLXRuJywgJzgnLCAnLW1hJywgJzIwMCcsICctbWV0YWxfYmluZGluZycsICctaW1hZScsICc8aW5maWxlLm1hZT4nLCAnLW9tYWUnLCAnPG91dGZpbGUubWFlPic=

> <r_lp_tautomer_probability>
1

> <r_epik_Ionization_Penalty>
1.30217

> <r_epik_Ionization_Penalty_Charging>
0.00439521

> <r_epik_Ionization_Penalty_Neutral>
1.29777

> <r_epik_State_Penalty>
0.977606

> <r_epik_Charging_Adjusted_Penalty>
0.982001

> <i_epik_Tot_Q>
2

> <i_epik_Tot_abs_Q>
2

> <r_epik_Metal_State_Penalty>
1.03289

> <b_epik_Metal_Only>
0

> <s_lp_Force_Field>
OPLS_2005

> <r_lp_Energy>
67.0187

> <b_lp_Chiralities_Consistent>
1

> <s_lp_Variant>
AV-unprocessed.smi:862-6

> <Gold.Version>
5.8.1

> <Gold.Id.Protein>
6NUR|6NUR_protein|mol2

> <Gold.PLP.Fitness>
41.7085

> <Gold.PLP.PLP>
-24.9266

> <Gold.PLP.part.hbond>
-3.0000

> <Gold.PLP.part.metal>
0.0000

> <Gold.PLP.part.buried>
0.9167

> <Gold.PLP.part.nonpolar>
-22.9260

> <Gold.PLP.part.repulsive>
0.0077

> <Gold.PLP.ligand.clash>
0.0000

> <Gold.PLP.ligand.torsion>
1.1895

> <Gold.PLP.Chemscore.Hbond>
5.0000

> <Gold.PLP.Chemscore.CHOScore>
1.3566

> <Gold.PLP.Chemscore.Metal>
0.0000

> <Gold.Chemscore.Hbonds>
donor molecule, donor type, donor heavy atom, donor atom, acceptor molecule, acceptor atom, score
      L1  H     8    28       P1  7948  1.98
      L1  H    17    45       P1 10175  1.60
      P1  H  6896  6907       L1     3  1.00
      L1  C    15    37       P1  7948  0.64
      L1  C    15    37       P1  7957  0.70

> <Gold.PLP.Chemscore.Internal.Correction>
0.0909

> <Gold.Rescore>
     Score         DG    S(hbond)    S(metal)    S(lipo)     H(rot)  DE(clash)    DE(int)     intcor
     16.15     -17.67       2.73        0.00      63.04       1.68       0.41       1.11       ----

> <Gold.Chemscore.Fitness>
16.1513

> <Gold.Chemscore.DG>
-17.6718

> <Gold.Chemscore.ZeroCoef>
-5.4800

> <Gold.Chemscore.Hbond>
2.7305

> <Gold.Chemscore.Metal>
0.0000

> <Gold.Chemscore.Lipo>
63.0442

> <Gold.Chemscore.Internal_Hbond>
0.0000

> <Gold.Chemscore.DEClash>
0.4067

> <Gold.Chemscore.DEInternal>
1.1138

> <Gold.Chemscore.Rot>
1.6814

> <Gold.Chemscore.Internal.Correction>
   9.000000E+99

> <Gold.Chemscore.Hbonds>
donor molecule, donor type, donor heavy atom, donor atom, acceptor molecule, acceptor atom, score
      L1  H     8    28       P1  7948  0.88
      L1  H    17    45       P1 10175  0.76
      P1  H  6896  6907       L1     3  0.97

> <Gold.Chemscore.Hbond.Weighted>
-9.1200

> <Gold.Chemscore.Metal.Weighted>
-0.0000

> <Gold.Chemscore.Lipo.Weighted>
-7.3762

> <Gold.Chemscore.Internal_Hbond.Weighted>
0.0000

> <Gold.Chemscore.DEClash.Weighted>
0.4067

> <Gold.Chemscore.DEInternal.Weighted>
1.1138

> <Gold.Chemscore.Rot.Weighted>
4.3043

> <Gold.Chemscore.Internal.Correction.Weighted>
   9.000000E+99

> <Gold.Protein.RotatedTorsions>
[ 6907 6896 6895 6894 ] final -147.98 input  -60.11 | X-H torsion
[ 7974 7965 7964 7962 ] final -132.34 input  175.53 | X-H torsion
[ 8008 7997 7996 7995 ] final  147.64 input   59.86 | X-H torsion
[ 10167 10162 10161 10158 ] final  156.48 input  -65.29 | X-H torsion
[ 10718 10713 10712 10709 ] final   10.89 input   66.30 | X-H torsion
[ 10763 10752 10751 10750 ] final   64.75 input  -60.55 | X-H torsion
[ 11005 11000 10999 10996 ] final    8.48 input  -57.11 | X-H torsion

> <Gold.Protein.ActiveResidues>
 VAL166  LYS551  ARG553  GLY616  TRP617  ASP618  TYR619  PRO620  LYS621  CYS622 
 ASP623  PHE694  ASN695  SER759  ASP760  ASP761  ALA762  ILE779  LEU786  VAL792 
 PHE793  MET794  SER795  GLU796  ALA797  LYS798  CYS799  TRP800  GLU811  SER814 

> <Gold.Protein.RotatedAtoms>
  151.1633  133.4831  159.2593 H   0  0  0  0  0  0  0  0  0  0  0  0  # atno 6907 bound_to 6896
  151.1431  135.0189  159.8645 H   0  0  0  0  0  0  0  0  0  0  0  0  # atno 6908 bound_to 6896
  152.5462  134.1525  159.8577 H   0  0  0  0  0  0  0  0  0  0  0  0  # atno 6909 bound_to 6896
  144.9294  140.7111  143.4915 H   0  0  0  0  0  0  0  0  0  0  0  0  # atno 7974 bound_to 7965
  156.2818  140.2150  156.5569 H   0  0  0  0  0  0  0  0  0  0  0  0  # atno 8008 bound_to 7997
  154.7245  140.0501  157.0692 H   0  0  0  0  0  0  0  0  0  0  0  0  # atno 8009 bound_to 7997
  155.0435  140.3148  155.4719 H   0  0  0  0  0  0  0  0  0  0  0  0  # atno 8010 bound_to 7997
  139.4821  144.5005  151.8175 H   0  0  0  0  0  0  0  0  0  0  0  0  # atno 10167 bound_to 10162
  156.9876  130.6030  149.5682 H   0  0  0  0  0  0  0  0  0  0  0  0  # atno 10718 bound_to 10713
  153.0068  135.5382  154.6559 H   0  0  0  0  0  0  0  0  0  0  0  0  # atno 10763 bound_to 10752
  154.5779  135.2847  155.0764 H   0  0  0  0  0  0  0  0  0  0  0  0  # atno 10764 bound_to 10752
  154.1904  135.6501  153.5111 H   0  0  0  0  0  0  0  0  0  0  0  0  # atno 10765 bound_to 10752
  140.5365  134.0415  155.7890 H   0  0  0  0  0  0  0  0  0  0  0  0  # atno 11005 bound_to 11000
  145.3166  139.1801  143.4610 LP  0  0  0  0  0  0  0  0  0  0  0  0  # atno 17320 bound_to 7965
  146.3240  140.3178  142.8631 LP  0  0  0  0  0  0  0  0  0  0  0  0  # atno 17321 bound_to 7965
  140.4498  144.1871  150.5896 LP  0  0  0  0  0  0  0  0  0  0  0  0  # atno 17342 bound_to 10162
  140.4597  143.2454  151.9237 LP  0  0  0  0  0  0  0  0  0  0  0  0  # atno 17343 bound_to 10162
  156.0220  130.5314  150.8301 LP  0  0  0  0  0  0  0  0  0  0  0  0  # atno 17370 bound_to 10713
  157.5482  131.0943  150.9733 LP  0  0  0  0  0  0  0  0  0  0  0  0  # atno 17371 bound_to 10713
  141.1251  133.9396  157.2651 LP  0  0  0  0  0  0  0  0  0  0  0  0  # atno 17394 bound_to 11000
  139.9526  135.0172  156.9038 LP  0  0  0  0  0  0  0  0  0  0  0  0  # atno 17395 bound_to 11000

$$$$
