AV-unprocessed.smi:55|AV-procd|sdf|567|dock1
  -GOLD-   2262016473D 1   1.00000     0.00000
 Structure written by MMmdl.
 31 32  0  0  0  0  0  0  0  0  1 V2000
  142.9232  132.3862  149.2323 C   0  0  0  0  0  0  0  0  0  0  0  0
  144.1563  132.6472  150.0814 C   0  0  0  0  0  0  0  0  0  0  0  0
  144.1972  133.6223  151.0251 C   0  0  0  0  0  0  0  0  0  0  0  0
  145.3057  133.8811  151.8193 N   0  0  0  0  0  0  0  0  0  0  0  0
  145.2829  134.9783  152.8591 C   0  0  2  0  0  0  0  0  0  0  0  0
  143.8999  135.6281  152.9314 C   0  0  0  0  0  0  0  0  0  0  0  0
  144.2588  137.0838  153.1441 C   0  0  2  0  0  0  0  0  0  0  0  0
  143.2233  137.9254  152.6799 O   0  0  0  0  0  0  0  0  0  0  0  0
  145.5416  137.2179  152.3176 C   0  0  1  0  0  0  0  0  0  0  0  0
  146.4758  138.3556  152.7581 C   0  0  0  0  0  0  0  0  0  0  0  0
  147.6573  138.3548  151.9855 O   0  0  0  0  0  0  0  0  0  0  0  0
  146.2031  135.9670  152.4977 O   0  0  0  0  0  0  0  0  0  0  0  0
  146.4609  133.0850  151.6735 C   0  0  0  0  0  0  0  0  0  0  0  0
  147.4702  133.2324  152.3613 O   0  0  0  0  0  0  0  0  0  0  0  0
  146.4217  132.0870  150.7014 N   0  0  0  0  0  0  0  0  0  0  0  0
  145.3352  131.8026  149.8705 C   0  0  0  0  0  0  0  0  0  0  0  0
  145.4233  130.8954  149.0449 O   0  0  0  0  0  0  0  0  0  0  0  0
  145.6137  134.5552  153.8087 H   0  0  0  0  0  0  0  0  0  0  0  0
  144.4558  137.2712  154.2006 H   0  0  0  0  0  0  0  0  0  0  0  0
  145.2997  137.3139  151.2577 H   0  0  0  0  0  0  0  0  0  0  0  0
  147.2476  131.5168  150.5915 H   0  0  0  0  0  0  0  0  0  0  0  0
  142.1173  133.0828  149.4646 H   0  0  0  0  0  0  0  0  0  0  0  0
  142.5511  131.3754  149.4030 H   0  0  0  0  0  0  0  0  0  0  0  0
  143.1596  132.4901  148.1728 H   0  0  0  0  0  0  0  0  0  0  0  0
  143.3125  134.2238  151.1678 H   0  0  0  0  0  0  0  0  0  0  0  0
  143.3787  135.4913  151.9819 H   0  0  0  0  0  0  0  0  0  0  0  0
  143.2996  135.1966  153.7329 H   0  0  0  0  0  0  0  0  0  0  0  0
  143.5776  138.7926  152.5523 H   0  0  0  0  0  0  0  0  0  0  0  0
  145.9821  139.3241  152.6737 H   0  0  0  0  0  0  0  0  0  0  0  0
  146.7539  138.2263  153.8042 H   0  0  0  0  0  0  0  0  0  0  0  0
  148.1451  137.5699  152.1835 H   0  0  0  0  0  0  0  0  0  0  0  0
  1  2  1  0  0  0  0
  1 22  1  0  0  0  0
  1 23  1  0  0  0  0
  1 24  1  0  0  0  0
  2 16  1  0  0  0  0
  2  3  2  0  0  0  0
  3  4  1  0  0  0  0
  3 25  1  0  0  0  0
  4  5  1  0  0  0  0
  4 13  1  0  0  0  0
  5 18  1  0  0  0  0
  5 12  1  0  0  0  0
  5  6  1  0  0  0  0
  6  7  1  0  0  0  0
  6 26  1  0  0  0  0
  6 27  1  0  0  0  0
  7 19  1  0  0  0  0
  7  8  1  0  0  0  0
  7  9  1  0  0  0  0
  8 28  1  0  0  0  0
  9 20  1  0  0  0  0
  9 10  1  0  0  0  0
  9 12  1  0  0  0  0
 10 11  1  0  0  0  0
 10 29  1  0  0  0  0
 10 30  1  0  0  0  0
 11 31  1  0  0  0  0
 13 14  2  0  0  0  0
 13 15  1  0  0  0  0
 15 21  1  0  0  0  0
 15 16  1  0  0  0  0
 16 17  2  0  0  0  0
M  END
> <s_m_source_file>
AV-unprocessed.smi

> <i_m_source_file_index>
55

> <i_lp_mmshare_version>
43012

> <i_f3d_flags>
0

> <s_epik_input>
Tz1jMVtuSF1jKD1PKW4oW2NIXWMxW0NIM10pW0NAQEhdMltDSDJdW0NAQEhdKFtPSF0pW0NAQEhdKE8yKVtDSDJdW09IXQ==

> <s_epik_cmdline>
J2VwaWtfcHl0aG9uJywgJy1waCcsICc3LjAnLCAnLXRuJywgJzgnLCAnLW1hJywgJzIwMCcsICctbWV0YWxfYmluZGluZycsICctaW1hZScsICc8aW5maWxlLm1hZT4nLCAnLW9tYWUnLCAnPG91dGZpbGUubWFlPic=

> <r_lp_tautomer_probability>
0.999537

> <r_epik_Ionization_Penalty>
0.00121888

> <r_epik_Ionization_Penalty_Charging>
0.00121876

> <r_epik_Ionization_Penalty_Neutral>
1.19946e-07

> <r_epik_State_Penalty>
0.000805124

> <r_epik_Charging_Adjusted_Penalty>
0.00202389

> <i_epik_Tot_Q>
0

> <i_epik_Tot_abs_Q>
0

> <r_epik_Metal_State_Penalty>
0.662472

> <b_epik_Metal_Only>
0

> <s_epik_Chemistry_Notes>
This compound contains an acetal/aminal-like group ( X-CH(R)-Y where X, Y are N, S, or O) that may be acid/base labile, releasing an aldehyde.

> <s_lp_Force_Field>
OPLS_2005

> <r_lp_Energy>
24.0727

> <b_lp_Chiralities_Consistent>
1

> <s_lp_Variant>
AV-unprocessed.smi:55-7

> <Gold.Version>
5.8.1

> <Gold.Id.Protein>
6NUR|6NUR_protein|mol2

> <Gold.PLP.Fitness>
40.0560

> <Gold.PLP.PLP>
-28.9846

> <Gold.PLP.part.hbond>
-7.1790

> <Gold.PLP.part.metal>
0.0000

> <Gold.PLP.part.buried>
0.7750

> <Gold.PLP.part.nonpolar>
-24.6318

> <Gold.PLP.part.repulsive>
2.8683

> <Gold.PLP.ligand.clash>
0.0000

> <Gold.PLP.ligand.torsion>
0.0571

> <Gold.PLP.Chemscore.Hbond>
3.0244

> <Gold.PLP.Chemscore.CHOScore>
0.7015

> <Gold.PLP.Chemscore.Metal>
0.0000

> <Gold.Chemscore.Hbonds>
donor molecule, donor type, donor heavy atom, donor atom, acceptor molecule, acceptor atom, score
      L1  H     8    28       P1 10175  1.00
      L1  H    11    31       P1  7948  1.00
      L1  H    15    21       P1 10747  1.00
      P1  H  7954  7966       L1    11  0.12
      L1  C     3    25       P1 10186  0.29

> <Gold.PLP.Chemscore.Internal.Correction>
0.0079

> <Gold.Rescore>
     Score         DG    S(hbond)    S(metal)    S(lipo)     H(rot)  DE(clash)    DE(int)     intcor
     11.42     -14.31       2.98        0.00      50.15       2.73       2.50       0.38       ----

> <Gold.Chemscore.Fitness>
11.4241

> <Gold.Chemscore.DG>
-14.3098

> <Gold.Chemscore.ZeroCoef>
-5.4800

> <Gold.Chemscore.Hbond>
2.9757

> <Gold.Chemscore.Metal>
0.0000

> <Gold.Chemscore.Lipo>
50.1527

> <Gold.Chemscore.Internal_Hbond>
0.0000

> <Gold.Chemscore.DEClash>
2.5037

> <Gold.Chemscore.DEInternal>
0.3819

> <Gold.Chemscore.Rot>
2.7253

> <Gold.Chemscore.Internal.Correction>
   9.000000E+99

> <Gold.Chemscore.Hbonds>
donor molecule, donor type, donor heavy atom, donor atom, acceptor molecule, acceptor atom, score
      L1  H     8    28       P1 10175  0.99
      L1  H    11    31       P1  7948  0.95
      L1  H    15    21       P1 10747  1.00

> <Gold.Chemscore.Hbond.Weighted>
-9.9387

> <Gold.Chemscore.Metal.Weighted>
-0.0000

> <Gold.Chemscore.Lipo.Weighted>
-5.8679

> <Gold.Chemscore.Internal_Hbond.Weighted>
0.0000

> <Gold.Chemscore.DEClash.Weighted>
2.5037

> <Gold.Chemscore.DEInternal.Weighted>
0.3819

> <Gold.Chemscore.Rot.Weighted>
6.9769

> <Gold.Chemscore.Internal.Correction.Weighted>
   9.000000E+99

> <Gold.Protein.RotatedTorsions>
[ 6907 6896 6895 6894 ] final -176.18 input  -60.11 | X-H torsion
[ 7974 7965 7964 7962 ] final   99.87 input  175.53 | X-H torsion
[ 8008 7997 7996 7995 ] final  -89.69 input   59.86 | X-H torsion
[ 10167 10162 10161 10158 ] final  106.89 input  -65.29 | X-H torsion
[ 10718 10713 10712 10709 ] final  -49.36 input   66.30 | X-H torsion
[ 10763 10752 10751 10750 ] final -159.72 input  -60.55 | X-H torsion
[ 11005 11000 10999 10996 ] final -163.86 input  -57.11 | X-H torsion

> <Gold.Protein.ActiveResidues>
 VAL166  LYS551  ARG553  GLY616  TRP617  ASP618  TYR619  PRO620  LYS621  CYS622 
 ASP623  PHE694  ASN695  SER759  ASP760  ASP761  ALA762  ILE779  LEU786  VAL792 
 PHE793  MET794  SER795  GLU796  ALA797  LYS798  CYS799  TRP800  GLU811  SER814 

> <Gold.Protein.RotatedAtoms>
  151.6005  133.3357  159.3046 H   0  0  0  0  0  0  0  0  0  0  0  0  # atno 6907 bound_to 6896
  150.8210  134.7421  159.6784 H   0  0  0  0  0  0  0  0  0  0  0  0  # atno 6908 bound_to 6896
  152.4303  134.5795  159.9995 H   0  0  0  0  0  0  0  0  0  0  0  0  # atno 6909 bound_to 6896
  145.3931  139.2359  143.3341 H   0  0  0  0  0  0  0  0  0  0  0  0  # atno 7974 bound_to 7965
  154.6896  140.0539  157.0350 H   0  0  0  0  0  0  0  0  0  0  0  0  # atno 8008 bound_to 7997
  155.0836  140.3212  155.4575 H   0  0  0  0  0  0  0  0  0  0  0  0  # atno 8009 bound_to 7997
  156.2723  140.2060  156.5963 H   0  0  0  0  0  0  0  0  0  0  0  0  # atno 8010 bound_to 7997
  139.6972  144.7099  151.1246 H   0  0  0  0  0  0  0  0  0  0  0  0  # atno 10167 bound_to 10162
  156.1901  130.4152  149.9384 H   0  0  0  0  0  0  0  0  0  0  0  0  # atno 10718 bound_to 10713
  154.7451  135.3078  154.8659 H   0  0  0  0  0  0  0  0  0  0  0  0  # atno 10763 bound_to 10752
  153.9462  135.6769  153.4748 H   0  0  0  0  0  0  0  0  0  0  0  0  # atno 10764 bound_to 10752
  153.1048  135.4894  154.8858 H   0  0  0  0  0  0  0  0  0  0  0  0  # atno 10765 bound_to 10752
  140.5934  134.5021  157.5196 H   0  0  0  0  0  0  0  0  0  0  0  0  # atno 11005 bound_to 11000
  146.2788  140.4617  142.8785 LP  0  0  0  0  0  0  0  0  0  0  0  0  # atno 17320 bound_to 7965
  144.8426  140.6880  143.6219 LP  0  0  0  0  0  0  0  0  0  0  0  0  # atno 17321 bound_to 7965
  140.7700  143.5475  150.9243 LP  0  0  0  0  0  0  0  0  0  0  0  0  # atno 17342 bound_to 10162
  139.9155  143.6669  152.3107 LP  0  0  0  0  0  0  0  0  0  0  0  0  # atno 17343 bound_to 10162
  156.7127  130.8976  151.3611 LP  0  0  0  0  0  0  0  0  0  0  0  0  # atno 17370 bound_to 10713
  157.6923  130.9246  150.0548 LP  0  0  0  0  0  0  0  0  0  0  0  0  # atno 17371 bound_to 10713
  139.9264  134.8048  156.1057 LP  0  0  0  0  0  0  0  0  0  0  0  0  # atno 17394 bound_to 11000
  141.0920  133.6710  156.2561 LP  0  0  0  0  0  0  0  0  0  0  0  0  # atno 17395 bound_to 11000

$$$$
