AV-unprocessed.smi:222|AV-procd|sdf|1702|dock8
  -GOLD-   2262020163D 1   1.00000     0.00000
 Structure written by MMmdl.
 59 61  0  0  0  0  0  0  0  0  1 V2000
  151.9308  145.3282  160.3016 C   0  0  0  0  0  0  0  0  0  0  0  0
  151.6644  144.3565  161.3002 O   0  0  0  0  0  0  0  0  0  0  0  0
  152.7254  143.4377  161.5285 C   0  0  0  0  0  0  0  0  0  0  0  0
  153.2728  142.8151  160.2275 C   0  0  0  0  0  0  0  0  0  0  0  0
  153.4061  141.3549  160.3032 N   0  0  0  0  0  0  0  0  0  0  0  0
  154.4138  140.7957  161.2194 C   0  0  0  0  0  0  0  0  0  0  0  0
  155.6657  140.2160  160.5242 C   0  0  0  0  0  0  0  0  0  0  0  0
  155.6654  140.0675  159.3005 O   0  0  0  0  0  0  0  0  0  0  0  0
  156.7365  139.8910  161.2842 N   0  0  0  0  0  0  0  0  0  0  0  0
  156.7782  140.0841  162.7360 C   0  0  0  0  0  0  0  0  0  0  0  0
  157.9375  139.3170  160.6729 C   0  0  0  0  0  0  0  0  0  0  0  0
  152.7192  140.5524  159.4327 C   0  0  0  0  0  0  0  0  0  0  0  0
  153.2165  139.3146  159.1632 N   0  0  0  0  0  0  0  0  0  0  0  0
  152.5778  138.4775  158.3432 C   0  0  0  0  0  0  0  0  0  0  0  0
  151.4362  138.6686  157.6837 N   0  0  0  0  0  0  0  0  0  0  0  0
  150.9267  139.9079  157.9318 C   0  0  0  0  0  0  0  0  0  0  0  0
  151.4934  140.9028  158.7828 C   0  0  0  0  0  0  0  0  0  0  0  0
  150.6766  142.0296  158.7720 N   0  0  0  0  0  0  0  0  0  0  0  0
  149.6888  141.7156  157.9820 C   0  0  0  0  0  0  0  0  0  0  0  0
  149.7668  140.4640  157.4182 N   0  0  0  0  0  0  0  0  0  0  0  0
  148.8050  139.8566  156.5086 C   0  0  0  0  0  0  0  0  0  0  0  0
  149.2228  139.8531  155.0037 C   0  0  0  0  0  0  0  0  0  0  0  0
  150.5168  139.0059  154.8528 C   0  0  0  0  0  0  0  0  0  0  0  0
  150.7207  138.5174  153.5413 O   0  0  0  0  0  0  0  0  0  0  0  0
  148.0757  139.2327  154.1645 C   0  0  0  0  0  0  0  0  0  0  0  0
  146.8466  140.1568  154.0617 C   0  0  0  0  0  0  0  0  0  0  0  0
  147.2280  141.4264  153.5453 O   0  0  0  0  0  0  0  0  0  0  0  0
  148.1671  142.1053  154.3701 C   0  0  0  0  0  0  0  0  0  0  0  0
  149.4667  141.2863  154.4637 C   0  0  0  0  0  0  0  0  0  0  0  0
  151.0877  146.0158  160.2356 H   0  0  0  0  0  0  0  0  0  0  0  0
  152.0646  144.8780  159.3186 H   0  0  0  0  0  0  0  0  0  0  0  0
  152.8193  145.9121  160.5445 H   0  0  0  0  0  0  0  0  0  0  0  0
  153.5283  143.9311  162.0778 H   0  0  0  0  0  0  0  0  0  0  0  0
  152.3532  142.6502  162.1839 H   0  0  0  0  0  0  0  0  0  0  0  0
  152.6405  143.0750  159.3795 H   0  0  0  0  0  0  0  0  0  0  0  0
  154.2339  143.2702  159.9849 H   0  0  0  0  0  0  0  0  0  0  0  0
  154.7583  141.5826  161.8908 H   0  0  0  0  0  0  0  0  0  0  0  0
  153.9403  140.0597  161.8668 H   0  0  0  0  0  0  0  0  0  0  0  0
  156.4593  141.0901  163.0116 H   0  0  0  0  0  0  0  0  0  0  0  0
  157.7806  139.9535  163.1443 H   0  0  0  0  0  0  0  0  0  0  0  0
  156.1247  139.3665  163.2331 H   0  0  0  0  0  0  0  0  0  0  0  0
  157.6816  138.4882  160.0108 H   0  0  0  0  0  0  0  0  0  0  0  0
  158.6392  138.9266  161.4101 H   0  0  0  0  0  0  0  0  0  0  0  0
  158.4585  140.0730  160.0842 H   0  0  0  0  0  0  0  0  0  0  0  0
  153.0485  137.5168  158.1965 H   0  0  0  0  0  0  0  0  0  0  0  0
  148.8747  142.3970  157.7831 H   0  0  0  0  0  0  0  0  0  0  0  0
  148.6297  138.8333  156.8435 H   0  0  0  0  0  0  0  0  0  0  0  0
  147.8571  140.3709  156.6573 H   0  0  0  0  0  0  0  0  0  0  0  0
  151.3966  139.5924  155.1169 H   0  0  0  0  0  0  0  0  0  0  0  0
  150.4910  138.1510  155.5293 H   0  0  0  0  0  0  0  0  0  0  0  0
  150.2123  139.0431  152.9427 H   0  0  0  0  0  0  0  0  0  0  0  0
  148.4163  139.0344  153.1480 H   0  0  0  0  0  0  0  0  0  0  0  0
  147.7823  138.2659  154.5750 H   0  0  0  0  0  0  0  0  0  0  0  0
  146.1118  139.7174  153.3870 H   0  0  0  0  0  0  0  0  0  0  0  0
  146.3472  140.2764  155.0232 H   0  0  0  0  0  0  0  0  0  0  0  0
  148.3752  143.0796  153.9279 H   0  0  0  0  0  0  0  0  0  0  0  0
  147.7377  142.2957  155.3540 H   0  0  0  0  0  0  0  0  0  0  0  0
  150.2066  141.8148  155.0635 H   0  0  0  0  0  0  0  0  0  0  0  0
  149.8913  141.2358  153.4607 H   0  0  0  0  0  0  0  0  0  0  0  0
  1  2  1  0  0  0  0
  1 30  1  0  0  0  0
  1 31  1  0  0  0  0
  1 32  1  0  0  0  0
  2  3  1  0  0  0  0
  3  4  1  0  0  0  0
  3 33  1  0  0  0  0
  3 34  1  0  0  0  0
  4  5  1  0  0  0  0
  4 35  1  0  0  0  0
  4 36  1  0  0  0  0
  5  6  1  0  0  0  0
  5 12  1  0  0  0  0
  6  7  1  0  0  0  0
  6 37  1  0  0  0  0
  6 38  1  0  0  0  0
  7  8  2  0  0  0  0
  7  9  1  0  0  0  0
  9 10  1  0  0  0  0
  9 11  1  0  0  0  0
 10 39  1  0  0  0  0
 10 40  1  0  0  0  0
 10 41  1  0  0  0  0
 11 42  1  0  0  0  0
 11 43  1  0  0  0  0
 11 44  1  0  0  0  0
 12 17  1  0  0  0  0
 12 13  2  0  0  0  0
 13 14  1  0  0  0  0
 14 15  2  0  0  0  0
 14 45  1  0  0  0  0
 15 16  1  0  0  0  0
 16 20  1  0  0  0  0
 16 17  2  0  0  0  0
 17 18  1  0  0  0  0
 18 19  2  0  0  0  0
 19 20  1  0  0  0  0
 19 46  1  0  0  0  0
 20 21  1  0  0  0  0
 21 22  1  0  0  0  0
 21 47  1  0  0  0  0
 21 48  1  0  0  0  0
 22 29  1  0  0  0  0
 22 23  1  0  0  0  0
 22 25  1  0  0  0  0
 23 24  1  0  0  0  0
 23 49  1  0  0  0  0
 23 50  1  0  0  0  0
 24 51  1  0  0  0  0
 25 26  1  0  0  0  0
 25 52  1  0  0  0  0
 25 53  1  0  0  0  0
 26 27  1  0  0  0  0
 26 54  1  0  0  0  0
 26 55  1  0  0  0  0
 27 28  1  0  0  0  0
 28 29  1  0  0  0  0
 28 56  1  0  0  0  0
 28 57  1  0  0  0  0
 29 58  1  0  0  0  0
 29 59  1  0  0  0  0
M  END
> <s_m_source_file>
AV-unprocessed.smi

> <i_m_source_file_index>
222

> <i_lp_mmshare_version>
43012

> <i_f3d_flags>
0

> <s_epik_input>
W0NIM11PW0NIMl1bQ0gyXU4oW0NIMl1DKD1PKU4oW0NIM10pW0NIM10pYyhuW2NIXW4xKWMoYzEyKW5bY0hdbjJbQ0gyXUMzKFtDSDJdW09IXSlbQ0gyXVtDSDJdT1tDSDJdW0NIMl0z

> <s_epik_cmdline>
J2VwaWtfcHl0aG9uJywgJy1waCcsICc3LjAnLCAnLXRuJywgJzgnLCAnLW1hJywgJzIwMCcsICctbWV0YWxfYmluZGluZycsICctaW1hZScsICc8aW5maWxlLm1hZT4nLCAnLW9tYWUnLCAnPG91dGZpbGUubWFlPic=

> <r_lp_tautomer_probability>
1

> <r_epik_Ionization_Penalty>
0.000796957

> <r_epik_Ionization_Penalty_Charging>
0

> <r_epik_Ionization_Penalty_Neutral>
0.000796957

> <r_epik_State_Penalty>
0.000428513

> <r_epik_Charging_Adjusted_Penalty>
0.000428513

> <i_epik_Tot_Q>
0

> <i_epik_Tot_abs_Q>
0

> <r_epik_Metal_State_Penalty>
-0

> <b_epik_Metal_Only>
0

> <s_lp_Force_Field>
OPLS_2005

> <r_lp_Energy>
34.6666

> <b_lp_Chiralities_Consistent>
1

> <s_lp_Variant>
AV-unprocessed.smi:222-1

> <Gold.Version>
5.8.1

> <Gold.Id.Protein>
6NUR|6NUR_protein|mol2

> <Gold.PLP.Fitness>
51.3097

> <Gold.PLP.PLP>
-47.5189

> <Gold.PLP.part.hbond>
-3.7784

> <Gold.PLP.part.metal>
0.0000

> <Gold.PLP.part.buried>
-4.8394

> <Gold.PLP.part.nonpolar>
-38.9357

> <Gold.PLP.part.repulsive>
0.3964

> <Gold.PLP.ligand.clash>
0.0000

> <Gold.PLP.ligand.torsion>
1.3759

> <Gold.PLP.Chemscore.Hbond>
2.0000

> <Gold.PLP.Chemscore.CHOScore>
0.0000

> <Gold.PLP.Chemscore.Metal>
0.0000

> <Gold.Chemscore.Hbonds>
donor molecule, donor type, donor heavy atom, donor atom, acceptor molecule, acceptor atom, score
      L1  H    24    51       P1  7957  0.80
      P1  H  7997  8008       L1     8  1.00

> <Gold.PLP.Chemscore.Internal.Correction>
0.5425

> <Gold.Rescore>
     Score         DG    S(hbond)    S(metal)    S(lipo)     H(rot)  DE(clash)    DE(int)     intcor
     11.39     -13.28       1.82        0.00      90.95       3.49       0.14       1.75       ----

> <Gold.Chemscore.Fitness>
11.3899

> <Gold.Chemscore.DG>
-13.2764

> <Gold.Chemscore.ZeroCoef>
-5.4800

> <Gold.Chemscore.Hbond>
1.8235

> <Gold.Chemscore.Metal>
0.0000

> <Gold.Chemscore.Lipo>
90.9465

> <Gold.Chemscore.Internal_Hbond>
0.0000

> <Gold.Chemscore.DEClash>
0.1355

> <Gold.Chemscore.DEInternal>
1.7510

> <Gold.Chemscore.Rot>
3.4901

> <Gold.Chemscore.Internal.Correction>
   9.000000E+99

> <Gold.Chemscore.Hbonds>
donor molecule, donor type, donor heavy atom, donor atom, acceptor molecule, acceptor atom, score
      L1  H    24    51       P1  7957  0.58
      P1  H  7997  8008       L1     8  0.94

> <Gold.Chemscore.Hbond.Weighted>
-6.0903

> <Gold.Chemscore.Metal.Weighted>
-0.0000

> <Gold.Chemscore.Lipo.Weighted>
-10.6407

> <Gold.Chemscore.Internal_Hbond.Weighted>
0.0000

> <Gold.Chemscore.DEClash.Weighted>
0.1355

> <Gold.Chemscore.DEInternal.Weighted>
1.7510

> <Gold.Chemscore.Rot.Weighted>
8.9347

> <Gold.Chemscore.Internal.Correction.Weighted>
   9.000000E+99

> <Gold.Protein.RotatedTorsions>
[ 6907 6896 6895 6894 ] final -151.64 input  -60.11 | X-H torsion
[ 7974 7965 7964 7962 ] final   77.19 input  175.53 | X-H torsion
[ 8008 7997 7996 7995 ] final -145.23 input   59.86 | X-H torsion
[ 10167 10162 10161 10158 ] final  -13.91 input  -65.29 | X-H torsion
[ 10718 10713 10712 10709 ] final   52.69 input   66.30 | X-H torsion
[ 10763 10752 10751 10750 ] final   56.77 input  -60.55 | X-H torsion
[ 11005 11000 10999 10996 ] final   49.19 input  -57.11 | X-H torsion

> <Gold.Protein.ActiveResidues>
 VAL166  LYS551  ARG553  GLY616  TRP617  ASP618  TYR619  PRO620  LYS621  CYS622 
 ASP623  PHE694  ASN695  SER759  ASP760  ASP761  ALA762  ILE779  LEU786  VAL792 
 PHE793  MET794  SER795  GLU796  ALA797  LYS798  CYS799  TRP800  GLU811  SER814 

> <Gold.Protein.RotatedAtoms>
  151.2160  133.4529  159.2599 H   0  0  0  0  0  0  0  0  0  0  0  0  # atno 6907 bound_to 6896
  151.0930  134.9927  159.8422 H   0  0  0  0  0  0  0  0  0  0  0  0  # atno 6908 bound_to 6896
  152.5436  134.2093  159.8796 H   0  0  0  0  0  0  0  0  0  0  0  0  # atno 6909 bound_to 6896
  145.6932  139.2559  143.1747 H   0  0  0  0  0  0  0  0  0  0  0  0  # atno 7974 bound_to 7965
  155.5397  140.0607  157.2872 H   0  0  0  0  0  0  0  0  0  0  0  0  # atno 8008 bound_to 7997
  154.4456  140.1921  156.0623 H   0  0  0  0  0  0  0  0  0  0  0  0  # atno 8009 bound_to 7997
  156.0593  140.3274  155.7447 H   0  0  0  0  0  0  0  0  0  0  0  0  # atno 8010 bound_to 7997
  140.7191  143.5377  150.9446 H   0  0  0  0  0  0  0  0  0  0  0  0  # atno 10167 bound_to 10162
  157.5098  130.8493  149.8421 H   0  0  0  0  0  0  0  0  0  0  0  0  # atno 10718 bound_to 10713
  152.9838  135.5664  154.5283 H   0  0  0  0  0  0  0  0  0  0  0  0  # atno 10763 bound_to 10752
  154.4759  135.2786  155.1609 H   0  0  0  0  0  0  0  0  0  0  0  0  # atno 10764 bound_to 10752
  154.3138  135.6283  153.5530 H   0  0  0  0  0  0  0  0  0  0  0  0  # atno 10765 bound_to 10752
  140.1125  134.4936  155.8665 H   0  0  0  0  0  0  0  0  0  0  0  0  # atno 11005 bound_to 11000
  146.0863  140.7707  142.9617 LP  0  0  0  0  0  0  0  0  0  0  0  0  # atno 17320 bound_to 7965
  144.6990  140.3567  143.7171 LP  0  0  0  0  0  0  0  0  0  0  0  0  # atno 17321 bound_to 7965
  139.9098  143.6733  152.3117 LP  0  0  0  0  0  0  0  0  0  0  0  0  # atno 17342 bound_to 10162
  139.7113  144.7620  151.1108 LP  0  0  0  0  0  0  0  0  0  0  0  0  # atno 17343 bound_to 10162
  156.0282  130.3773  150.1763 LP  0  0  0  0  0  0  0  0  0  0  0  0  # atno 17370 bound_to 10713
  156.9952  130.9905  151.3405 LP  0  0  0  0  0  0  0  0  0  0  0  0  # atno 17371 bound_to 10713
  141.2133  133.6732  156.6732 LP  0  0  0  0  0  0  0  0  0  0  0  0  # atno 17394 bound_to 11000
  140.3072  134.8116  157.4146 LP  0  0  0  0  0  0  0  0  0  0  0  0  # atno 17395 bound_to 11000

$$$$
