AV-unprocessed.smi:2970|AV-procd|sdf|11331|dock7
  -GOLD-   2272016243D 1   1.00000     0.00000
 Structure written by MMmdl.
 38 39  0  0  0  0  0  0  0  0  1 V2000
  146.9642  142.4178  153.7899 C   0  0  0  0  0  0  0  0  0  0  0  0
  146.8769  141.8608  155.2004 C   0  0  0  0  0  0  0  0  0  0  0  0
  145.7761  141.8312  155.9588 C   0  0  0  0  0  0  0  0  0  0  0  0
  146.0640  141.1504  157.5413 S   0  0  0  0  0  0  0  0  0  0  0  0
  147.7985  140.9014  157.1282 C   0  0  0  0  0  0  0  0  0  0  0  0
  148.6073  140.4104  157.9140 O   0  0  0  0  0  0  0  0  0  0  0  0
  148.0213  141.3444  155.8248 N   0  0  0  0  0  0  0  0  0  0  0  0
  149.3362  141.2704  155.1741 C   0  0  0  0  0  0  0  0  0  0  0  0
  150.5038  141.5621  156.1263 C   0  0  0  0  0  0  0  0  0  0  0  0
  151.4236  140.7554  156.2715 O   0  0  0  0  0  0  0  0  0  0  0  0
  150.4416  142.7312  156.7823 N   0  0  0  0  0  0  0  0  0  0  0  0
  151.4312  143.2229  157.7384 C   0  0  0  0  0  0  0  0  0  0  0  0
  151.8018  142.0900  158.7189 C   0  0  0  0  0  0  0  0  0  0  0  0
  152.8118  142.4737  159.8141 C   0  0  0  0  0  0  0  0  0  0  0  0
  152.1919  143.3467  160.9165 C   0  0  0  0  0  0  0  0  0  0  0  0
  152.1880  144.8599  160.6371 C   0  0  0  0  0  0  0  0  0  0  0  0
  151.9438  145.2910  159.1804 C   0  0  0  0  0  0  0  0  0  0  0  0
  150.8734  144.4897  158.4202 C   0  0  0  0  0  0  0  0  0  0  0  0
  146.1026  143.0520  153.5796 H   0  0  0  0  0  0  0  0  0  0  0  0
  146.9734  141.6065  153.0619 H   0  0  0  0  0  0  0  0  0  0  0  0
  147.8578  143.0261  153.6504 H   0  0  0  0  0  0  0  0  0  0  0  0
  144.7957  142.1865  155.6780 H   0  0  0  0  0  0  0  0  0  0  0  0
  149.4782  140.2725  154.7561 H   0  0  0  0  0  0  0  0  0  0  0  0
  149.3844  141.9481  154.3216 H   0  0  0  0  0  0  0  0  0  0  0  0
  149.6488  143.3304  156.6032 H   0  0  0  0  0  0  0  0  0  0  0  0
  152.3262  143.5090  157.1827 H   0  0  0  0  0  0  0  0  0  0  0  0
  150.8992  141.6885  159.1815 H   0  0  0  0  0  0  0  0  0  0  0  0
  152.2276  141.2642  158.1474 H   0  0  0  0  0  0  0  0  0  0  0  0
  153.1603  141.5495  160.2767 H   0  0  0  0  0  0  0  0  0  0  0  0
  153.6986  142.9442  159.3877 H   0  0  0  0  0  0  0  0  0  0  0  0
  151.1738  143.0092  161.1148 H   0  0  0  0  0  0  0  0  0  0  0  0
  152.7338  143.1798  161.8481 H   0  0  0  0  0  0  0  0  0  0  0  0
  151.4362  145.3217  161.2782 H   0  0  0  0  0  0  0  0  0  0  0  0
  153.1414  145.2824  160.9564 H   0  0  0  0  0  0  0  0  0  0  0  0
  151.6556  146.3428  159.1900 H   0  0  0  0  0  0  0  0  0  0  0  0
  152.8828  145.2594  158.6266 H   0  0  0  0  0  0  0  0  0  0  0  0
  150.4704  145.1421  157.6439 H   0  0  0  0  0  0  0  0  0  0  0  0
  150.0323  144.2497  159.0723 H   0  0  0  0  0  0  0  0  0  0  0  0
  1  2  1  0  0  0  0
  1 19  1  0  0  0  0
  1 20  1  0  0  0  0
  1 21  1  0  0  0  0
  2  7  1  0  0  0  0
  2  3  2  0  0  0  0
  3  4  1  0  0  0  0
  3 22  1  0  0  0  0
  4  5  1  0  0  0  0
  5  6  2  0  0  0  0
  5  7  1  0  0  0  0
  7  8  1  0  0  0  0
  8  9  1  0  0  0  0
  8 23  1  0  0  0  0
  8 24  1  0  0  0  0
  9 10  2  0  0  0  0
  9 11  1  0  0  0  0
 11 12  1  0  0  0  0
 11 25  1  0  0  0  0
 12 18  1  0  0  0  0
 12 13  1  0  0  0  0
 12 26  1  0  0  0  0
 13 14  1  0  0  0  0
 13 27  1  0  0  0  0
 13 28  1  0  0  0  0
 14 15  1  0  0  0  0
 14 29  1  0  0  0  0
 14 30  1  0  0  0  0
 15 16  1  0  0  0  0
 15 31  1  0  0  0  0
 15 32  1  0  0  0  0
 16 17  1  0  0  0  0
 16 33  1  0  0  0  0
 16 34  1  0  0  0  0
 17 18  1  0  0  0  0
 17 35  1  0  0  0  0
 17 36  1  0  0  0  0
 18 37  1  0  0  0  0
 18 38  1  0  0  0  0
M  END
> <s_m_source_file>
AV-unprocessed.smi

> <i_m_source_file_index>
2970

> <i_lp_mmshare_version>
43012

> <i_f3d_flags>
0

> <s_epik_input>
W0NIM11jMVtjSF1zYyg9TyluMVtDSDJdQyg9TylbTkhdW0NIXTJbQ0gyXVtDSDJdW0NIMl1bQ0gyXVtDSDJdW0NIMl0y

> <s_epik_cmdline>
J2VwaWtfcHl0aG9uJywgJy1waCcsICc3LjAnLCAnLXRuJywgJzgnLCAnLW1hJywgJzIwMCcsICctbWV0YWxfYmluZGluZycsICctaW1hZScsICc8aW5maWxlLm1hZT4nLCAnLW9tYWUnLCAnPG91dGZpbGUubWFlPic=

> <r_lp_tautomer_probability>
1

> <r_epik_Ionization_Penalty>
1.32564e-06

> <r_epik_Ionization_Penalty_Charging>
1.22505e-06

> <r_epik_Ionization_Penalty_Neutral>
1.00582e-07

> <r_epik_State_Penalty>
-0

> <r_epik_Charging_Adjusted_Penalty>
1.22505e-06

> <i_epik_Tot_Q>
0

> <i_epik_Tot_abs_Q>
0

> <r_epik_Metal_State_Penalty>
-0

> <b_epik_Metal_Only>
0

> <s_lp_Force_Field>
OPLS_2005

> <r_lp_Energy>
18.3304

> <b_lp_Chiralities_Consistent>
1

> <s_lp_Variant>
AV-unprocessed.smi:2970-1

> <Gold.Version>
5.8.1

> <Gold.Id.Protein>
6NUR|6NUR_protein|mol2

> <Gold.PLP.Fitness>
41.9036

> <Gold.PLP.PLP>
-39.8133

> <Gold.PLP.part.hbond>
-1.0000

> <Gold.PLP.part.metal>
0.0000

> <Gold.PLP.part.buried>
-7.2664

> <Gold.PLP.part.nonpolar>
-31.9800

> <Gold.PLP.part.repulsive>
0.0634

> <Gold.PLP.ligand.clash>
0.0000

> <Gold.PLP.ligand.torsion>
0.4629

> <Gold.PLP.Chemscore.Hbond>
1.0000

> <Gold.PLP.Chemscore.CHOScore>
0.0000

> <Gold.PLP.Chemscore.Metal>
0.0000

> <Gold.Chemscore.Hbonds>
donor molecule, donor type, donor heavy atom, donor atom, acceptor molecule, acceptor atom, score
      L1  H    11    25       P1  8028  0.99

> <Gold.PLP.Chemscore.Internal.Correction>
0.0161

> <Gold.Rescore>
     Score         DG    S(hbond)    S(metal)    S(lipo)     H(rot)  DE(clash)    DE(int)     intcor
     13.97     -16.70       0.93        0.00      99.82       1.40       0.03       2.70       ----

> <Gold.Chemscore.Fitness>
13.9700

> <Gold.Chemscore.DG>
-16.7015

> <Gold.Chemscore.ZeroCoef>
-5.4800

> <Gold.Chemscore.Hbond>
0.9338

> <Gold.Chemscore.Metal>
0.0000

> <Gold.Chemscore.Lipo>
99.8164

> <Gold.Chemscore.Internal_Hbond>
0.0000

> <Gold.Chemscore.DEClash>
0.0339

> <Gold.Chemscore.DEInternal>
2.6976

> <Gold.Chemscore.Rot>
1.3969

> <Gold.Chemscore.Internal.Correction>
   9.000000E+99

> <Gold.Chemscore.Hbonds>
donor molecule, donor type, donor heavy atom, donor atom, acceptor molecule, acceptor atom, score
      L1  H    11    25       P1  8028  0.94

> <Gold.Chemscore.Hbond.Weighted>
-3.1190

> <Gold.Chemscore.Metal.Weighted>
-0.0000

> <Gold.Chemscore.Lipo.Weighted>
-11.6785

> <Gold.Chemscore.Internal_Hbond.Weighted>
0.0000

> <Gold.Chemscore.DEClash.Weighted>
0.0339

> <Gold.Chemscore.DEInternal.Weighted>
2.6976

> <Gold.Chemscore.Rot.Weighted>
3.5761

> <Gold.Chemscore.Internal.Correction.Weighted>
   9.000000E+99

> <Gold.Protein.RotatedTorsions>
[ 6907 6896 6895 6894 ] final -147.84 input  -60.11 | X-H torsion
[ 7974 7965 7964 7962 ] final -112.69 input  175.53 | X-H torsion
[ 8008 7997 7996 7995 ] final   44.96 input   59.86 | X-H torsion
[ 10167 10162 10161 10158 ] final  133.66 input  -65.29 | X-H torsion
[ 10718 10713 10712 10709 ] final -117.42 input   66.30 | X-H torsion
[ 10763 10752 10751 10750 ] final -109.16 input  -60.55 | X-H torsion
[ 11005 11000 10999 10996 ] final -177.50 input  -57.11 | X-H torsion

> <Gold.Protein.ActiveResidues>
 VAL166  LYS551  ARG553  GLY616  TRP617  ASP618  TYR619  PRO620  LYS621  CYS622 
 ASP623  PHE694  ASN695  SER759  ASP760  ASP761  ALA762  ILE779  LEU786  VAL792 
 PHE793  MET794  SER795  GLU796  ALA797  LYS798  CYS799  TRP800  GLU811  SER814 

> <Gold.Protein.RotatedAtoms>
  151.1614  133.4843  159.2594 H   0  0  0  0  0  0  0  0  0  0  0  0  # atno 6907 bound_to 6896
  151.1450  135.0199  159.8653 H   0  0  0  0  0  0  0  0  0  0  0  0  # atno 6908 bound_to 6896
  152.5463  134.1504  159.8569 H   0  0  0  0  0  0  0  0  0  0  0  0  # atno 6909 bound_to 6896
  145.1409  140.8777  143.3702 H   0  0  0  0  0  0  0  0  0  0  0  0  # atno 7974 bound_to 7965
  155.3280  140.3401  155.4240 H   0  0  0  0  0  0  0  0  0  0  0  0  # atno 8008 bound_to 7997
  156.1876  140.1686  156.8192 H   0  0  0  0  0  0  0  0  0  0  0  0  # atno 8009 bound_to 7997
  154.5404  140.0726  156.8483 H   0  0  0  0  0  0  0  0  0  0  0  0  # atno 8010 bound_to 7997
  139.5288  144.6605  151.5028 H   0  0  0  0  0  0  0  0  0  0  0  0  # atno 10167 bound_to 10162
  156.1032  130.6189  150.9161 H   0  0  0  0  0  0  0  0  0  0  0  0  # atno 10718 bound_to 10713
  154.8177  135.4611  154.0690 H   0  0  0  0  0  0  0  0  0  0  0  0  # atno 10763 bound_to 10752
  153.2070  135.6876  153.8168 H   0  0  0  0  0  0  0  0  0  0  0  0  # atno 10764 bound_to 10752
  153.7632  135.3281  155.3317 H   0  0  0  0  0  0  0  0  0  0  0  0  # atno 10765 bound_to 10752
  140.4403  134.6438  157.4754 H   0  0  0  0  0  0  0  0  0  0  0  0  # atno 11005 bound_to 11000
  145.0533  139.3164  143.5917 LP  0  0  0  0  0  0  0  0  0  0  0  0  # atno 17320 bound_to 7965
  146.3505  139.9949  142.8682 LP  0  0  0  0  0  0  0  0  0  0  0  0  # atno 17321 bound_to 7965
  140.6451  143.8811  150.6729 LP  0  0  0  0  0  0  0  0  0  0  0  0  # atno 17342 bound_to 10162
  140.2158  143.3847  152.1682 LP  0  0  0  0  0  0  0  0  0  0  0  0  # atno 17343 bound_to 10162
  157.6206  131.0930  150.8630 LP  0  0  0  0  0  0  0  0  0  0  0  0  # atno 17370 bound_to 10713
  156.8754  130.5160  149.5294 LP  0  0  0  0  0  0  0  0  0  0  0  0  # atno 17371 bound_to 10713
  140.0075  134.6742  155.9433 LP  0  0  0  0  0  0  0  0  0  0  0  0  # atno 17394 bound_to 11000
  141.1708  133.6537  156.4646 LP  0  0  0  0  0  0  0  0  0  0  0  0  # atno 17395 bound_to 11000

$$$$
