AV-unprocessed.smi:2160|AV-procd|sdf|8797|dock9
  -GOLD-   2272011583D 1   1.00000     0.00000
 Structure written by MMmdl.
 43 45  0  0  0  0  0  0  0  0  1 V2000
  150.9911  131.9129  157.2915 C   0  0  0  0  0  0  0  0  0  0  0  0
  151.4155  133.2320  157.6021 O   0  0  0  0  0  0  0  0  0  0  0  0
  150.8702  134.2747  156.8840 C   0  0  0  0  0  0  0  0  0  0  0  0
  149.9076  134.1162  155.8554 C   0  0  0  0  0  0  0  0  0  0  0  0
  149.4029  135.2393  155.1712 C   0  0  0  0  0  0  0  0  0  0  0  0
  149.8434  136.5355  155.5054 C   0  0  0  0  0  0  0  0  0  0  0  0
  149.3081  137.7370  154.7487 C   0  0  0  0  0  0  0  0  0  0  0  0
  149.5184  138.9494  155.4538 O   0  0  0  0  0  0  0  0  0  0  0  0
  149.1290  140.0955  154.7158 C   0  0  0  0  0  0  0  0  0  0  0  0
  149.5138  141.3505  155.5120 C   0  0  2  0  0  0  0  0  0  0  0  0
  149.2820  142.4884  154.7053 O   0  0  0  0  0  0  0  0  0  0  0  0
  150.9844  141.3283  155.9723 C   0  0  0  0  0  0  0  0  0  0  0  0
  151.1215  141.6012  157.3911 N   0  0  0  0  0  0  0  0  0  0  0  0
  150.9403  140.7404  158.4112 C   0  0  0  0  0  0  0  0  0  0  0  0
  151.1209  141.2091  159.6432 N   0  0  0  0  0  0  0  0  0  0  0  0
  151.4593  142.5282  159.3933 C   0  0  0  0  0  0  0  0  0  0  0  0
  151.7790  143.5788  160.2831 C   0  0  0  0  0  0  0  0  0  0  0  0
  152.0959  144.8618  159.7896 C   0  0  0  0  0  0  0  0  0  0  0  0
  152.0980  145.1142  158.4022 C   0  0  0  0  0  0  0  0  0  0  0  0
  151.7828  144.0835  157.4962 C   0  0  0  0  0  0  0  0  0  0  0  0
  151.4675  142.8053  157.9930 C   0  0  0  0  0  0  0  0  0  0  0  0
  150.8077  136.6977  156.5214 C   0  0  0  0  0  0  0  0  0  0  0  0
  151.3119  135.5746  157.2048 C   0  0  0  0  0  0  0  0  0  0  0  0
  151.5071  131.2065  157.9416 H   0  0  0  0  0  0  0  0  0  0  0  0
  151.2322  131.6483  156.2610 H   0  0  0  0  0  0  0  0  0  0  0  0
  149.9199  131.7892  157.4559 H   0  0  0  0  0  0  0  0  0  0  0  0
  149.5408  133.1420  155.5702 H   0  0  0  0  0  0  0  0  0  0  0  0
  148.6734  135.1006  154.3869 H   0  0  0  0  0  0  0  0  0  0  0  0
  149.8050  137.7787  153.7783 H   0  0  0  0  0  0  0  0  0  0  0  0
  148.2409  137.6021  154.5648 H   0  0  0  0  0  0  0  0  0  0  0  0
  149.6082  140.1026  153.7353 H   0  0  0  0  0  0  0  0  0  0  0  0
  148.0497  140.0691  154.5553 H   0  0  0  0  0  0  0  0  0  0  0  0
  148.8600  141.4282  156.3818 H   0  0  0  0  0  0  0  0  0  0  0  0
  149.2238  143.2472  155.2654 H   0  0  0  0  0  0  0  0  0  0  0  0
  151.4278  140.3515  155.7746 H   0  0  0  0  0  0  0  0  0  0  0  0
  151.5749  142.0561  155.4138 H   0  0  0  0  0  0  0  0  0  0  0  0
  150.6619  139.7109  158.2393 H   0  0  0  0  0  0  0  0  0  0  0  0
  151.7809  143.3971  161.3475 H   0  0  0  0  0  0  0  0  0  0  0  0
  152.3388  145.6565  160.4796 H   0  0  0  0  0  0  0  0  0  0  0  0
  152.3421  146.0998  158.0332 H   0  0  0  0  0  0  0  0  0  0  0  0
  151.7840  144.2711  156.4328 H   0  0  0  0  0  0  0  0  0  0  0  0
  151.1661  137.6826  156.7826 H   0  0  0  0  0  0  0  0  0  0  0  0
  152.0480  135.7125  157.9832 H   0  0  0  0  0  0  0  0  0  0  0  0
  1  2  1  0  0  0  0
  1 24  1  0  0  0  0
  1 25  1  0  0  0  0
  1 26  1  0  0  0  0
  2  3  1  0  0  0  0
  3 23  1  0  0  0  0
  3  4  2  0  0  0  0
  4  5  1  0  0  0  0
  4 27  1  0  0  0  0
  5  6  2  0  0  0  0
  5 28  1  0  0  0  0
  6  7  1  0  0  0  0
  6 22  1  0  0  0  0
  7  8  1  0  0  0  0
  7 29  1  0  0  0  0
  7 30  1  0  0  0  0
  8  9  1  0  0  0  0
  9 10  1  0  0  0  0
  9 31  1  0  0  0  0
  9 32  1  0  0  0  0
 10 11  1  0  0  0  0
 10 12  1  0  0  0  0
 10 33  1  0  0  0  0
 11 34  1  0  0  0  0
 12 13  1  0  0  0  0
 12 35  1  0  0  0  0
 12 36  1  0  0  0  0
 13 21  1  0  0  0  0
 13 14  1  0  0  0  0
 14 15  2  0  0  0  0
 14 37  1  0  0  0  0
 15 16  1  0  0  0  0
 16 21  2  0  0  0  0
 16 17  1  0  0  0  0
 17 18  2  0  0  0  0
 17 38  1  0  0  0  0
 18 19  1  0  0  0  0
 18 39  1  0  0  0  0
 19 20  2  0  0  0  0
 19 40  1  0  0  0  0
 20 21  1  0  0  0  0
 20 41  1  0  0  0  0
 22 23  2  0  0  0  0
 22 42  1  0  0  0  0
 23 43  1  0  0  0  0
M  END
> <s_m_source_file>
AV-unprocessed.smi

> <i_m_source_file_index>
2160

> <i_lp_mmshare_version>
43012

> <i_f3d_flags>
0

> <s_epik_input>
W0NIM11PYzFbY0hdW2NIXWMoW2NIXVtjSF0xKVtDSDJdT1tDSDJdW0NASF0oW09IXSlbQ0gyXW4oW2NIXW4yKWMoYzIzKVtjSF1bY0hdW2NIXVtjSF0z

> <s_epik_cmdline>
J2VwaWtfcHl0aG9uJywgJy1waCcsICc3LjAnLCAnLXRuJywgJzgnLCAnLW1hJywgJzIwMCcsICctbWV0YWxfYmluZGluZycsICctaW1hZScsICc8aW5maWxlLm1hZT4nLCAnLW9tYWUnLCAnPG91dGZpbGUubWFlPic=

> <r_lp_tautomer_probability>
1

> <r_epik_Ionization_Penalty>
0.0713119

> <r_epik_Ionization_Penalty_Charging>
0

> <r_epik_Ionization_Penalty_Neutral>
0.0713119

> <r_epik_State_Penalty>
0.06259

> <r_epik_Charging_Adjusted_Penalty>
0.06259

> <i_epik_Tot_Q>
0

> <i_epik_Tot_abs_Q>
0

> <r_epik_Metal_State_Penalty>
6.60119e-05

> <b_epik_Metal_Only>
0

> <s_lp_Force_Field>
OPLS_2005

> <r_lp_Energy>
16.653

> <b_lp_Chiralities_Consistent>
1

> <s_lp_Variant>
AV-unprocessed.smi:2160-1

> <Gold.Version>
5.8.1

> <Gold.Id.Protein>
6NUR|6NUR_protein|mol2

> <Gold.PLP.Fitness>
46.7547

> <Gold.PLP.PLP>
-44.6752

> <Gold.PLP.part.hbond>
-3.1258

> <Gold.PLP.part.metal>
0.0000

> <Gold.PLP.part.buried>
-4.3809

> <Gold.PLP.part.nonpolar>
-36.4747

> <Gold.PLP.part.repulsive>
0.0618

> <Gold.PLP.ligand.clash>
0.0000

> <Gold.PLP.ligand.torsion>
1.2973

> <Gold.PLP.Chemscore.Hbond>
1.5263

> <Gold.PLP.Chemscore.CHOScore>
0.0000

> <Gold.PLP.Chemscore.Metal>
0.0000

> <Gold.Chemscore.Hbonds>
donor molecule, donor type, donor heavy atom, donor atom, acceptor molecule, acceptor atom, score
      L1  H    11    34       P1  8028  1.00
      P1  H  6896  6909       L1     2  0.69

> <Gold.PLP.Chemscore.Internal.Correction>
0.0951

> <Gold.Rescore>
     Score         DG    S(hbond)    S(metal)    S(lipo)     H(rot)  DE(clash)    DE(int)     intcor
     17.00     -18.70       1.57        0.00     125.81       2.63       0.28       1.43       ----

> <Gold.Chemscore.Fitness>
17.0011

> <Gold.Chemscore.DG>
-18.7045

> <Gold.Chemscore.ZeroCoef>
-5.4800

> <Gold.Chemscore.Hbond>
1.5687

> <Gold.Chemscore.Metal>
0.0000

> <Gold.Chemscore.Lipo>
125.8100

> <Gold.Chemscore.Internal_Hbond>
0.0000

> <Gold.Chemscore.DEClash>
0.2762

> <Gold.Chemscore.DEInternal>
1.4272

> <Gold.Chemscore.Rot>
2.6308

> <Gold.Chemscore.Internal.Correction>
   9.000000E+99

> <Gold.Chemscore.Hbonds>
donor molecule, donor type, donor heavy atom, donor atom, acceptor molecule, acceptor atom, score
      L1  H    11    34       P1  8028  0.94
      P1  H  6896  6909       L1     2  0.40
      P1  H  8011  8017       L1    11  0.01

> <Gold.Chemscore.Hbond.Weighted>
-5.2395

> <Gold.Chemscore.Metal.Weighted>
-0.0000

> <Gold.Chemscore.Lipo.Weighted>
-14.7198

> <Gold.Chemscore.Internal_Hbond.Weighted>
0.0000

> <Gold.Chemscore.DEClash.Weighted>
0.2762

> <Gold.Chemscore.DEInternal.Weighted>
1.4272

> <Gold.Chemscore.Rot.Weighted>
6.7347

> <Gold.Chemscore.Internal.Correction.Weighted>
   9.000000E+99

> <Gold.Protein.RotatedTorsions>
[ 6907 6896 6895 6894 ] final  -54.60 input  -60.11 | X-H torsion
[ 7974 7965 7964 7962 ] final  135.69 input  175.53 | X-H torsion
[ 8008 7997 7996 7995 ] final  -72.86 input   59.86 | X-H torsion
[ 10167 10162 10161 10158 ] final   37.02 input  -65.29 | X-H torsion
[ 10718 10713 10712 10709 ] final  116.38 input   66.30 | X-H torsion
[ 10763 10752 10751 10750 ] final   35.92 input  -60.55 | X-H torsion
[ 11005 11000 10999 10996 ] final   14.69 input  -57.11 | X-H torsion

> <Gold.Protein.ActiveResidues>
 VAL166  LYS551  ARG553  GLY616  TRP617  ASP618  TYR619  PRO620  LYS621  CYS622 
 ASP623  PHE694  ASN695  SER759  ASP760  ASP761  ALA762  ILE779  LEU786  VAL792 
 PHE793  MET794  SER795  GLU796  ALA797  LYS798  CYS799  TRP800  GLU811  SER814 

> <Gold.Protein.RotatedAtoms>
  150.8323  134.7582  159.6863 H   0  0  0  0  0  0  0  0  0  0  0  0  # atno 6907 bound_to 6896
  152.4426  134.5557  159.9889 H   0  0  0  0  0  0  0  0  0  0  0  0  # atno 6908 bound_to 6896
  151.5715  133.3352  159.3026 H   0  0  0  0  0  0  0  0  0  0  0  0  # atno 6909 bound_to 6896
  144.9638  139.4680  143.5466 H   0  0  0  0  0  0  0  0  0  0  0  0  # atno 7974 bound_to 7965
  154.5200  140.0789  156.8154 H   0  0  0  0  0  0  0  0  0  0  0  0  # atno 8008 bound_to 7997
  155.3596  140.3417  155.4222 H   0  0  0  0  0  0  0  0  0  0  0  0  # atno 8009 bound_to 7997
  156.1671  140.1607  156.8500 H   0  0  0  0  0  0  0  0  0  0  0  0  # atno 8010 bound_to 7997
  140.4072  144.1642  150.6137 H   0  0  0  0  0  0  0  0  0  0  0  0  # atno 10167 bound_to 10162
  157.6163  131.1024  150.7465 H   0  0  0  0  0  0  0  0  0  0  0  0  # atno 10718 bound_to 10713
  153.0099  135.6320  154.1903 H   0  0  0  0  0  0  0  0  0  0  0  0  # atno 10763 bound_to 10752
  154.1645  135.2821  155.3101 H   0  0  0  0  0  0  0  0  0  0  0  0  # atno 10764 bound_to 10752
  154.5956  135.5604  153.7382 H   0  0  0  0  0  0  0  0  0  0  0  0  # atno 10765 bound_to 10752
  140.4667  134.1073  155.7725 H   0  0  0  0  0  0  0  0  0  0  0  0  # atno 11005 bound_to 11000
  146.3361  139.8806  142.8825 LP  0  0  0  0  0  0  0  0  0  0  0  0  # atno 17320 bound_to 7965
  145.2660  141.0093  143.3799 LP  0  0  0  0  0  0  0  0  0  0  0  0  # atno 17321 bound_to 7965
  140.4677  143.2425  151.9133 LP  0  0  0  0  0  0  0  0  0  0  0  0  # atno 17342 bound_to 10162
  139.4783  144.5403  151.8538 LP  0  0  0  0  0  0  0  0  0  0  0  0  # atno 17343 bound_to 10162
  156.7832  130.4866  149.5397 LP  0  0  0  0  0  0  0  0  0  0  0  0  # atno 17370 bound_to 10713
  156.1287  130.6163  151.0302 LP  0  0  0  0  0  0  0  0  0  0  0  0  # atno 17371 bound_to 10713
  141.1596  133.8817  157.1884 LP  0  0  0  0  0  0  0  0  0  0  0  0  # atno 17394 bound_to 11000
  139.9911  135.0064  156.9977 LP  0  0  0  0  0  0  0  0  0  0  0  0  # atno 17395 bound_to 11000

$$$$
