AV-unprocessed.smi:544|AV-procd|sdf|2878|dock9
  -GOLD-   2262023373D 1   1.00000     0.00000
 Structure written by MMmdl.
 49 51  0  0  0  0  0  0  0  0  1 V2000
  153.4841  137.6661  160.4075 C   0  0  0  0  0  0  0  0  0  0  0  0
  153.4590  137.8219  158.8854 C   0  0  0  0  0  0  0  0  0  0  0  0
  152.1101  137.8240  158.4540 O   0  0  0  0  0  0  0  0  0  0  0  0
  151.9752  137.8374  157.0429 C   0  0  0  0  0  0  0  0  0  0  0  0
  152.2149  139.2514  156.4810 C   0  0  0  0  0  0  0  0  0  0  0  0
  150.9886  140.0042  156.2193 N   0  0  0  0  0  0  0  0  0  0  0  0
  150.5248  141.1215  156.8442 C   0  0  0  0  0  0  0  0  0  0  0  0
  151.2010  141.7144  157.9102 N   0  0  0  0  0  0  0  0  0  0  0  0
  151.9525  141.0024  158.9418 C   0  0  0  0  0  0  0  0  0  0  0  0
  153.3306  141.6385  159.1888 C   0  0  0  0  0  0  0  0  0  0  0  0
  153.1765  143.1152  159.5769 C   0  0  0  0  0  0  0  0  0  0  0  0
  152.3046  143.8508  158.5440 C   0  0  2  0  0  0  0  0  0  0  0  0
  152.0611  145.3107  158.9490 C   0  0  0  0  0  0  0  0  0  0  0  0
  150.9765  143.0937  158.3387 C   0  0  0  0  0  0  0  0  0  0  0  0
  149.4024  141.6262  156.3250 N   0  0  0  0  0  0  0  0  0  0  0  0
  149.1128  140.7498  155.2914 C   0  0  0  0  0  0  0  0  0  0  0  0
  150.0572  139.7791  155.2017 C   0  0  0  0  0  0  0  0  0  0  0  0
  150.0180  138.7401  154.1618 C   0  0  0  0  0  0  0  0  0  0  0  0
  150.8804  137.8741  154.0317 O   0  0  0  0  0  0  0  0  0  0  0  0
  148.9333  138.8349  153.3554 N   0  0  0  0  0  0  0  0  0  0  0  0
  147.9408  139.7747  153.4034 C   0  0  0  0  0  0  0  0  0  0  0  0
  147.0067  139.7237  152.6034 O   0  0  0  0  0  0  0  0  0  0  0  0
  148.0355  140.7524  154.3602 N   0  0  0  0  0  0  0  0  0  0  0  0
  147.0130  141.7966  154.4490 C   0  0  0  0  0  0  0  0  0  0  0  0
  148.8504  138.1343  152.6333 H   0  0  0  0  0  0  0  0  0  0  0  0
  154.5078  137.6598  160.7820 H   0  0  0  0  0  0  0  0  0  0  0  0
  153.0092  136.7333  160.7131 H   0  0  0  0  0  0  0  0  0  0  0  0
  152.9542  138.4862  160.8930 H   0  0  0  0  0  0  0  0  0  0  0  0
  153.9493  138.7531  158.5981 H   0  0  0  0  0  0  0  0  0  0  0  0
  154.0033  137.0008  158.4166 H   0  0  0  0  0  0  0  0  0  0  0  0
  152.6733  137.1250  156.6083 H   0  0  0  0  0  0  0  0  0  0  0  0
  150.9753  137.5040  156.7619 H   0  0  0  0  0  0  0  0  0  0  0  0
  152.8542  139.8223  157.1525 H   0  0  0  0  0  0  0  0  0  0  0  0
  152.7764  139.1832  155.5501 H   0  0  0  0  0  0  0  0  0  0  0  0
  151.3725  141.0166  159.8657 H   0  0  0  0  0  0  0  0  0  0  0  0
  152.0510  139.9533  158.6761 H   0  0  0  0  0  0  0  0  0  0  0  0
  153.8548  141.0989  159.9776 H   0  0  0  0  0  0  0  0  0  0  0  0
  153.9479  141.5546  158.2947 H   0  0  0  0  0  0  0  0  0  0  0  0
  152.7162  143.1835  160.5636 H   0  0  0  0  0  0  0  0  0  0  0  0
  154.1568  143.5862  159.6555 H   0  0  0  0  0  0  0  0  0  0  0  0
  152.8388  143.8564  157.5924 H   0  0  0  0  0  0  0  0  0  0  0  0
  151.5226  145.3749  159.8951 H   0  0  0  0  0  0  0  0  0  0  0  0
  151.4724  145.8331  158.1947 H   0  0  0  0  0  0  0  0  0  0  0  0
  153.0025  145.8488  159.0638 H   0  0  0  0  0  0  0  0  0  0  0  0
  150.3759  143.6075  157.5871 H   0  0  0  0  0  0  0  0  0  0  0  0
  150.3894  143.0943  159.2581 H   0  0  0  0  0  0  0  0  0  0  0  0
  146.8017  142.2247  153.4679 H   0  0  0  0  0  0  0  0  0  0  0  0
  147.3156  142.6206  155.0953 H   0  0  0  0  0  0  0  0  0  0  0  0
  146.0862  141.3837  154.8485 H   0  0  0  0  0  0  0  0  0  0  0  0
  1  2  1  0  0  0  0
  1 26  1  0  0  0  0
  1 27  1  0  0  0  0
  1 28  1  0  0  0  0
  2  3  1  0  0  0  0
  2 29  1  0  0  0  0
  2 30  1  0  0  0  0
  3  4  1  0  0  0  0
  4  5  1  0  0  0  0
  4 31  1  0  0  0  0
  4 32  1  0  0  0  0
  5  6  1  0  0  0  0
  5 33  1  0  0  0  0
  5 34  1  0  0  0  0
  6 17  1  0  0  0  0
  6  7  1  0  0  0  0
  7  8  1  0  0  0  0
  7 15  2  0  0  0  0
  8 14  1  0  0  0  0
  8  9  1  0  0  0  0
  9 10  1  0  0  0  0
  9 35  1  0  0  0  0
  9 36  1  0  0  0  0
 10 11  1  0  0  0  0
 10 37  1  0  0  0  0
 10 38  1  0  0  0  0
 11 12  1  0  0  0  0
 11 39  1  0  0  0  0
 11 40  1  0  0  0  0
 12 13  1  0  0  0  0
 12 14  1  0  0  0  0
 12 41  1  0  0  0  0
 13 42  1  0  0  0  0
 13 43  1  0  0  0  0
 13 44  1  0  0  0  0
 14 45  1  0  0  0  0
 14 46  1  0  0  0  0
 15 16  1  0  0  0  0
 16 23  1  0  0  0  0
 16 17  2  0  0  0  0
 17 18  1  0  0  0  0
 18 19  2  0  0  0  0
 18 20  1  0  0  0  0
 20 25  1  0  0  0  0
 20 21  1  0  0  0  0
 21 22  2  0  0  0  0
 21 23  1  0  0  0  0
 23 24  1  0  0  0  0
 24 47  1  0  0  0  0
 24 48  1  0  0  0  0
 24 49  1  0  0  0  0
M  END
> <s_m_source_file>
AV-unprocessed.smi

> <i_m_source_file_index>
544

> <i_lp_mmshare_version>
43012

> <i_f3d_flags>
0

> <s_epik_input>
W0NIM11uMWMoPU8pW25IXWMoPU8pYyhjMTIpbihbQ0gyXVtDSDJdT1tDSDJdW0NIM10pYyhuMilOM1tDSDJdW0NIMl1bQ0gyXVtDQEBIXShbQ0gzXSlbQ0gyXTM=

> <s_epik_cmdline>
J2VwaWtfcHl0aG9uJywgJy1waCcsICc3LjAnLCAnLXRuJywgJzgnLCAnLW1hJywgJzIwMCcsICctbWV0YWxfYmluZGluZycsICctaW1hZScsICc8aW5maWxlLm1hZT4nLCAnLW9tYWUnLCAnPG91dGZpbGUubWFlPic=

> <r_lp_tautomer_probability>
1

> <r_epik_Ionization_Penalty>
0.000382477

> <r_epik_Ionization_Penalty_Charging>
0.000119472

> <r_epik_Ionization_Penalty_Neutral>
0.000263005

> <r_epik_State_Penalty>
-0

> <r_epik_Charging_Adjusted_Penalty>
0.000119472

> <i_epik_Tot_Q>
0

> <i_epik_Tot_abs_Q>
0

> <r_epik_Metal_State_Penalty>
0.0919313

> <b_epik_Metal_Only>
0

> <s_lp_Force_Field>
OPLS_2005

> <r_lp_Energy>
37.0872

> <b_lp_Chiralities_Consistent>
1

> <s_lp_Variant>
AV-unprocessed.smi:544-2

> <Gold.Version>
5.8.1

> <Gold.Id.Protein>
6NUR|6NUR_protein|mol2

> <Gold.PLP.Fitness>
47.5734

> <Gold.PLP.PLP>
-45.4915

> <Gold.PLP.part.hbond>
-2.0000

> <Gold.PLP.part.metal>
0.0000

> <Gold.PLP.part.buried>
-5.6781

> <Gold.PLP.part.nonpolar>
-40.9554

> <Gold.PLP.part.repulsive>
2.5716

> <Gold.PLP.ligand.clash>
0.0000

> <Gold.PLP.ligand.torsion>
0.7375

> <Gold.PLP.Chemscore.Hbond>
1.0000

> <Gold.PLP.Chemscore.CHOScore>
0.0000

> <Gold.PLP.Chemscore.Metal>
0.0000

> <Gold.Chemscore.Hbonds>
donor molecule, donor type, donor heavy atom, donor atom, acceptor molecule, acceptor atom, score
      L1  H    20    25       P1  7948  1.00

> <Gold.PLP.Chemscore.Internal.Correction>
0.5570

> <Gold.Rescore>
     Score         DG    S(hbond)    S(metal)    S(lipo)     H(rot)  DE(clash)    DE(int)     intcor
     14.59     -16.30       0.99        0.00      98.84       1.58       0.02       1.69       ----

> <Gold.Chemscore.Fitness>
14.5891

> <Gold.Chemscore.DG>
-16.2952

> <Gold.Chemscore.ZeroCoef>
-5.4800

> <Gold.Chemscore.Hbond>
0.9872

> <Gold.Chemscore.Metal>
0.0000

> <Gold.Chemscore.Lipo>
98.8402

> <Gold.Chemscore.Internal_Hbond>
0.0000

> <Gold.Chemscore.DEClash>
0.0180

> <Gold.Chemscore.DEInternal>
1.6882

> <Gold.Chemscore.Rot>
1.5806

> <Gold.Chemscore.Internal.Correction>
   9.000000E+99

> <Gold.Chemscore.Hbonds>
donor molecule, donor type, donor heavy atom, donor atom, acceptor molecule, acceptor atom, score
      L1  H    20    25       P1  7948  0.92

> <Gold.Chemscore.Hbond.Weighted>
-3.2972

> <Gold.Chemscore.Metal.Weighted>
-0.0000

> <Gold.Chemscore.Lipo.Weighted>
-11.5643

> <Gold.Chemscore.Internal_Hbond.Weighted>
0.0000

> <Gold.Chemscore.DEClash.Weighted>
0.0180

> <Gold.Chemscore.DEInternal.Weighted>
1.6882

> <Gold.Chemscore.Rot.Weighted>
4.0463

> <Gold.Chemscore.Internal.Correction.Weighted>
   9.000000E+99

> <Gold.Protein.RotatedTorsions>
[ 6907 6896 6895 6894 ] final   -3.65 input  -60.11 | X-H torsion
[ 7974 7965 7964 7962 ] final   68.97 input  175.53 | X-H torsion
[ 8008 7997 7996 7995 ] final  -86.97 input   59.86 | X-H torsion
[ 10167 10162 10161 10158 ] final   -2.88 input  -65.29 | X-H torsion
[ 10718 10713 10712 10709 ] final  123.02 input   66.30 | X-H torsion
[ 10763 10752 10751 10750 ] final  -29.53 input  -60.55 | X-H torsion
[ 11005 11000 10999 10996 ] final   71.75 input  -57.11 | X-H torsion

> <Gold.Protein.ActiveResidues>
 VAL166  LYS551  ARG553  GLY616  TRP617  ASP618  TYR619  PRO620  LYS621  CYS622 
 ASP623  PHE694  ASN695  SER759  ASP760  ASP761  ALA762  ILE779  LEU786  VAL792 
 PHE793  MET794  SER795  GLU796  ALA797  LYS798  CYS799  TRP800  GLU811  SER814 

> <Gold.Protein.RotatedAtoms>
  151.5103  135.1065  159.9851 H   0  0  0  0  0  0  0  0  0  0  0  0  # atno 6907 bound_to 6896
  152.4664  133.7929  159.6922 H   0  0  0  0  0  0  0  0  0  0  0  0  # atno 6908 bound_to 6896
  150.8650  133.7524  159.3005 H   0  0  0  0  0  0  0  0  0  0  0  0  # atno 6909 bound_to 6896
  145.7961  139.2958  143.1182 H   0  0  0  0  0  0  0  0  0  0  0  0  # atno 7974 bound_to 7965
  154.6579  140.0571  157.0030 H   0  0  0  0  0  0  0  0  0  0  0  0  # atno 8008 bound_to 7997
  155.1272  140.3253  155.4464 H   0  0  0  0  0  0  0  0  0  0  0  0  # atno 8009 bound_to 7997
  156.2605  140.1987  156.6392 H   0  0  0  0  0  0  0  0  0  0  0  0  # atno 8010 bound_to 7997
  140.6868  143.6605  150.8271 H   0  0  0  0  0  0  0  0  0  0  0  0  # atno 10167 bound_to 10162
  157.5697  131.1084  150.8389 H   0  0  0  0  0  0  0  0  0  0  0  0  # atno 10718 bound_to 10713
  153.7662  135.6915  153.4915 H   0  0  0  0  0  0  0  0  0  0  0  0  # atno 10763 bound_to 10752
  153.1905  135.4473  155.0142 H   0  0  0  0  0  0  0  0  0  0  0  0  # atno 10764 bound_to 10752
  154.8135  135.3388  154.7174 H   0  0  0  0  0  0  0  0  0  0  0  0  # atno 10765 bound_to 10752
  139.9527  134.7199  156.0825 H   0  0  0  0  0  0  0  0  0  0  0  0  # atno 11005 bound_to 11000
  145.9927  140.8589  143.0058 LP  0  0  0  0  0  0  0  0  0  0  0  0  # atno 17320 bound_to 7965
  144.6775  140.2238  143.7363 LP  0  0  0  0  0  0  0  0  0  0  0  0  # atno 17321 bound_to 7965
  140.0313  143.5441  152.2759 LP  0  0  0  0  0  0  0  0  0  0  0  0  # atno 17342 bound_to 10162
  139.6235  144.7633  151.2690 LP  0  0  0  0  0  0  0  0  0  0  0  0  # atno 17343 bound_to 10162
  156.8864  130.5197  149.5288 LP  0  0  0  0  0  0  0  0  0  0  0  0  # atno 17370 bound_to 10713
  156.0743  130.5769  150.9444 LP  0  0  0  0  0  0  0  0  0  0  0  0  # atno 17371 bound_to 10713
  141.1193  133.6618  156.3173 LP  0  0  0  0  0  0  0  0  0  0  0  0  # atno 17394 bound_to 11000
  140.5682  134.5867  157.5451 LP  0  0  0  0  0  0  0  0  0  0  0  0  # atno 17395 bound_to 11000

$$$$
