AV-unprocessed.smi:243|AV-procd|sdf|1857|dock10
  -GOLD-   2262020483D 1   1.00000     0.00000
 Structure written by MMmdl.
 58 61  0  0  0  0  0  0  0  0  2 V2000
  147.4785  142.4703  157.9899 C   0  0  0  0  0  0  0  0  0  0  0  0
  148.9396  142.1061  157.6916 C   0  0  0  0  0  0  0  0  0  0  0  0
  149.3043  142.3225  156.2655 N   0  3  1  0  0  0  0  0  0  0  0  0
  150.7541  142.1513  155.9950 C   0  0  0  0  0  0  0  0  0  0  0  0
  151.1664  140.6705  156.0240 C   0  0  0  0  0  0  0  0  0  0  0  0
  150.3229  139.8377  155.0323 C   0  0  1  0  0  0  0  0  0  0  0  0
  150.7324  138.4255  154.9829 N   0  0  0  0  0  0  0  0  0  0  0  0
  151.9501  138.0895  154.2524 C   0  0  0  0  0  0  0  0  0  0  0  0
  150.4013  137.5321  155.9535 C   0  0  0  0  0  0  0  0  0  0  0  0
  150.0165  137.9648  157.1828 N   0  0  0  0  0  0  0  0  0  0  0  0
  149.7023  137.0903  158.1425 C   0  0  0  0  0  0  0  0  0  0  0  0
  149.7032  135.7578  158.0883 N   0  0  0  0  0  0  0  0  0  0  0  0
  150.0860  135.3133  156.8572 C   0  0  0  0  0  0  0  0  0  0  0  0
  150.4544  136.1241  155.7462 C   0  0  0  0  0  0  0  0  0  0  0  0
  150.7829  135.3178  154.6629 N   0  0  0  0  0  0  0  0  0  0  0  0
  150.6235  134.1020  155.1092 C   0  0  0  0  0  0  0  0  0  0  0  0
  150.1953  134.0067  156.4141 N   0  0  0  0  0  0  0  0  0  0  0  0
  149.9319  132.7829  157.1563 C   0  0  0  0  0  0  0  0  0  0  0  0
  151.1751  131.8750  157.3122 C   0  0  1  0  0  0  0  0  0  0  0  0
  152.2155  132.6215  157.9204 O   0  0  0  0  0  0  0  0  0  0  0  0
  150.9088  130.6428  158.1669 C   0  0  0  0  0  0  0  0  0  0  0  0
  151.9098  129.6337  157.6199 C   0  0  0  0  0  0  0  0  0  0  0  0
  151.8752  129.8750  156.2233 O   0  0  0  0  0  0  0  0  0  0  0  0
  151.7096  131.2722  155.9961 C   0  0  0  0  0  0  0  0  0  0  0  0
  148.8006  140.0590  155.2555 C   0  0  2  0  0  0  0  0  0  0  0  0
  147.9527  139.3601  154.1780 C   0  0  0  0  0  0  0  0  0  0  0  0
  148.4785  141.5708  155.2818 C   0  0  0  0  0  0  0  0  0  0  0  0
  147.2805  142.4079  159.0603 H   0  0  0  0  0  0  0  0  0  0  0  0
  146.7792  141.7973  157.4949 H   0  0  0  0  0  0  0  0  0  0  0  0
  147.2521  143.4887  157.6724 H   0  0  0  0  0  0  0  0  0  0  0  0
  149.5708  142.7412  158.3142 H   0  0  0  0  0  0  0  0  0  0  0  0
  149.1454  141.0812  157.9996 H   0  0  0  0  0  0  0  0  0  0  0  0
  150.9756  142.5719  155.0132 H   0  0  0  0  0  0  0  0  0  0  0  0
  151.3428  142.7265  156.7105 H   0  0  0  0  0  0  0  0  0  0  0  0
  152.2249  140.5903  155.7755 H   0  0  0  0  0  0  0  0  0  0  0  0
  151.0687  140.2929  157.0406 H   0  0  0  0  0  0  0  0  0  0  0  0
  150.5406  140.2323  154.0385 H   0  0  0  0  0  0  0  0  0  0  0  0
  152.6853  137.6162  154.9047 H   0  0  0  0  0  0  0  0  0  0  0  0
  152.4119  138.9782  153.8219 H   0  0  0  0  0  0  0  0  0  0  0  0
  151.7251  137.4063  153.4334 H   0  0  0  0  0  0  0  0  0  0  0  0
  149.4089  137.5192  159.0892 H   0  0  0  0  0  0  0  0  0  0  0  0
  150.8077  133.2346  154.4917 H   0  0  0  0  0  0  0  0  0  0  0  0
  149.5382  133.0555  158.1365 H   0  0  0  0  0  0  0  0  0  0  0  0
  149.1332  132.2411  156.6479 H   0  0  0  0  0  0  0  0  0  0  0  0
  152.8540  132.8384  157.2580 H   0  0  0  0  0  0  0  0  0  0  0  0
  151.0162  130.8179  159.2382 H   0  0  0  0  0  0  0  0  0  0  0  0
  149.8986  130.2707  157.9906 H   0  0  0  0  0  0  0  0  0  0  0  0
  152.9132  129.8298  158.0008 H   0  0  0  0  0  0  0  0  0  0  0  0
  151.6449  128.6032  157.8575 H   0  0  0  0  0  0  0  0  0  0  0  0
  151.0074  131.3925  155.1723 H   0  0  0  0  0  0  0  0  0  0  0  0
  152.6546  131.7216  155.6870 H   0  0  0  0  0  0  0  0  0  0  0  0
  148.4988  139.6451  156.2157 H   0  0  0  0  0  0  0  0  0  0  0  0
  148.2086  139.7144  153.1791 H   0  0  0  0  0  0  0  0  0  0  0  0
  146.8896  139.5453  154.3342 H   0  0  0  0  0  0  0  0  0  0  0  0
  148.0954  138.2794  154.1928 H   0  0  0  0  0  0  0  0  0  0  0  0
  147.4181  141.7319  155.4729 H   0  0  0  0  0  0  0  0  0  0  0  0
  148.6667  141.9964  154.2948 H   0  0  0  0  0  0  0  0  0  0  0  0
  149.1157  143.3005  156.0963 H   0  0  0  0  0  0  0  0  0  0  0  0
  1  2  1  0  0  0  0
  1 28  1  0  0  0  0
  1 29  1  0  0  0  0
  1 30  1  0  0  0  0
  2  3  1  0  0  0  0
  2 31  1  0  0  0  0
  2 32  1  0  0  0  0
  3 27  1  0  0  0  0
  3  4  1  0  0  0  0
  3 58  1  0  0  0  0
  4  5  1  0  0  0  0
  4 33  1  0  0  0  0
  4 34  1  0  0  0  0
  5  6  1  0  0  0  0
  5 35  1  0  0  0  0
  5 36  1  0  0  0  0
  6  7  1  0  0  0  0
  6 25  1  0  0  0  0
  6 37  1  0  0  0  0
  7  8  1  0  0  0  0
  7  9  1  0  0  0  0
  8 38  1  0  0  0  0
  8 39  1  0  0  0  0
  8 40  1  0  0  0  0
  9 14  1  0  0  0  0
  9 10  2  0  0  0  0
 10 11  1  0  0  0  0
 11 12  2  0  0  0  0
 11 41  1  0  0  0  0
 12 13  1  0  0  0  0
 13 17  1  0  0  0  0
 13 14  2  0  0  0  0
 14 15  1  0  0  0  0
 15 16  2  0  0  0  0
 16 17  1  0  0  0  0
 16 42  1  0  0  0  0
 17 18  1  0  0  0  0
 18 19  1  0  0  0  0
 18 43  1  0  0  0  0
 18 44  1  0  0  0  0
 19 24  1  0  0  0  0
 19 20  1  0  0  0  0
 19 21  1  0  0  0  0
 20 45  1  0  0  0  0
 21 22  1  0  0  0  0
 21 46  1  0  0  0  0
 21 47  1  0  0  0  0
 22 23  1  0  0  0  0
 22 48  1  0  0  0  0
 22 49  1  0  0  0  0
 23 24  1  0  0  0  0
 24 50  1  0  0  0  0
 24 51  1  0  0  0  0
 25 26  1  0  0  0  0
 25 27  1  0  0  0  0
 25 52  1  0  0  0  0
 26 53  1  0  0  0  0
 26 54  1  0  0  0  0
 26 55  1  0  0  0  0
 27 56  1  0  0  0  0
 27 57  1  0  0  0  0
M  CHG  1   3   1
M  END
> <s_m_source_file>
AV-unprocessed.smi

> <i_m_source_file_index>
243

> <i_lp_mmshare_version>
43012

> <i_f3d_flags>
0

> <s_epik_input>
W0NIM11bQ0gyXU4xW0NIMl1bQ0gyXVtDQEhdKFtDQEBIXShbQ0gzXSlbQ0gyXTEpTihbQ0gzXSljKG5bY0hdbjIpYyhjMjMpbltjSF1uM1tDSDJdW0NAQF00KFtPSF0pW0NIMl1bQ0gyXU9bQ0gyXTQ=

> <s_epik_cmdline>
J2VwaWtfcHl0aG9uJywgJy1waCcsICc3LjAnLCAnLXRuJywgJzgnLCAnLW1hJywgJzIwMCcsICctbWV0YWxfYmluZGluZycsICctaW1hZScsICc8aW5maWxlLm1hZT4nLCAnLW9tYWUnLCAnPG91dGZpbGUubWFlPic=

> <r_lp_tautomer_probability>
1

> <r_epik_Ionization_Penalty>
0.00253099

> <r_epik_Ionization_Penalty_Charging>
0.00137877

> <r_epik_Ionization_Penalty_Neutral>
0.00115221

> <r_epik_State_Penalty>
-0

> <r_epik_Charging_Adjusted_Penalty>
0.00137877

> <i_epik_Tot_Q>
1

> <i_epik_Tot_abs_Q>
1

> <r_epik_Metal_State_Penalty>
-0

> <b_epik_Metal_Only>
0

> <s_lp_Force_Field>
OPLS_2005

> <r_lp_Energy>
46.501

> <b_lp_Chiralities_Consistent>
1

> <s_lp_Variant>
AV-unprocessed.smi:243-10

> <Gold.Version>
5.8.1

> <Gold.Id.Protein>
6NUR|6NUR_protein|mol2

> <Gold.PLP.Fitness>
41.3296

> <Gold.PLP.PLP>
-31.7580

> <Gold.PLP.part.hbond>
-2.6879

> <Gold.PLP.part.metal>
0.0000

> <Gold.PLP.part.buried>
-2.9061

> <Gold.PLP.part.nonpolar>
-26.0889

> <Gold.PLP.part.repulsive>
0.8346

> <Gold.PLP.ligand.clash>
0.0000

> <Gold.PLP.ligand.torsion>
0.9046

> <Gold.PLP.Chemscore.Hbond>
3.4992

> <Gold.PLP.Chemscore.CHOScore>
0.0000

> <Gold.PLP.Chemscore.Metal>
0.0000

> <Gold.Chemscore.Hbonds>
donor molecule, donor type, donor heavy atom, donor atom, acceptor molecule, acceptor atom, score
      L1  H     3    58       P1  8028  1.85
      P1  H  6896  6907       L1    20  1.00
      P1  H  6896  6908       L1    12  0.81
      P1  H 10752 10765       L1    15  0.66

> <Gold.PLP.Chemscore.Internal.Correction>
0.8833

> <Gold.Rescore>
     Score         DG    S(hbond)    S(metal)    S(lipo)     H(rot)  DE(clash)    DE(int)     intcor
     14.02     -15.65       2.29        0.00      70.48       2.24       0.27       1.35       ----

> <Gold.Chemscore.Fitness>
14.0243

> <Gold.Chemscore.DG>
-15.6473

> <Gold.Chemscore.ZeroCoef>
-5.4800

> <Gold.Chemscore.Hbond>
2.2904

> <Gold.Chemscore.Metal>
0.0000

> <Gold.Chemscore.Lipo>
70.4829

> <Gold.Chemscore.Internal_Hbond>
0.0000

> <Gold.Chemscore.DEClash>
0.2686

> <Gold.Chemscore.DEInternal>
1.3544

> <Gold.Chemscore.Rot>
2.2379

> <Gold.Chemscore.Internal.Correction>
   9.000000E+99

> <Gold.Chemscore.Hbonds>
donor molecule, donor type, donor heavy atom, donor atom, acceptor molecule, acceptor atom, score
      L1  H     3    58       P1  8028  0.89
      P1  H  6896  6907       L1    20  0.85
      P1  H  6896  6908       L1    12  0.53
      P1  H 10752 10765       L1    15  0.16

> <Gold.Chemscore.Hbond.Weighted>
-7.6499

> <Gold.Chemscore.Metal.Weighted>
-0.0000

> <Gold.Chemscore.Lipo.Weighted>
-8.2465

> <Gold.Chemscore.Internal_Hbond.Weighted>
0.0000

> <Gold.Chemscore.DEClash.Weighted>
0.2686

> <Gold.Chemscore.DEInternal.Weighted>
1.3544

> <Gold.Chemscore.Rot.Weighted>
5.7291

> <Gold.Chemscore.Internal.Correction.Weighted>
   9.000000E+99

> <Gold.Protein.RotatedTorsions>
[ 6907 6896 6895 6894 ] final  173.01 input  -60.11 | X-H torsion
[ 7974 7965 7964 7962 ] final  -39.96 input  175.53 | X-H torsion
[ 8008 7997 7996 7995 ] final  145.12 input   59.86 | X-H torsion
[ 10167 10162 10161 10158 ] final  -61.40 input  -65.29 | X-H torsion
[ 10718 10713 10712 10709 ] final   54.87 input   66.30 | X-H torsion
[ 10763 10752 10751 10750 ] final  171.98 input  -60.55 | X-H torsion
[ 11005 11000 10999 10996 ] final  126.67 input  -57.11 | X-H torsion

> <Gold.Protein.ActiveResidues>
 VAL166  LYS551  ARG553  GLY616  TRP617  ASP618  TYR619  PRO620  LYS621  CYS622 
 ASP623  PHE694  ASN695  SER759  ASP760  ASP761  ALA762  ILE779  LEU786  VAL792 
 PHE793  MET794  SER795  GLU796  ALA797  LYS798  CYS799  TRP800  GLU811  SER814 

> <Gold.Protein.RotatedAtoms>
  151.7751  133.3344  159.3455 H   0  0  0  0  0  0  0  0  0  0  0  0  # atno 6907 bound_to 6896
  150.7447  134.5983  159.6032 H   0  0  0  0  0  0  0  0  0  0  0  0  # atno 6908 bound_to 6896
  152.3315  134.7255  160.0340 H   0  0  0  0  0  0  0  0  0  0  0  0  # atno 6909 bound_to 6896
  146.0348  140.6685  142.9115 H   0  0  0  0  0  0  0  0  0  0  0  0  # atno 7974 bound_to 7965
  156.2891  140.2217  156.5164 H   0  0  0  0  0  0  0  0  0  0  0  0  # atno 8008 bound_to 7997
  154.7566  140.0476  157.0960 H   0  0  0  0  0  0  0  0  0  0  0  0  # atno 8009 bound_to 7997
  155.0043  140.3105  155.4858 H   0  0  0  0  0  0  0  0  0  0  0  0  # atno 8010 bound_to 7997
  140.6008  143.2361  151.5932 H   0  0  0  0  0  0  0  0  0  0  0  0  # atno 10167 bound_to 10162
  157.5295  130.8620  149.8667 H   0  0  0  0  0  0  0  0  0  0  0  0  # atno 10718 bound_to 10713
  154.4195  135.2757  155.1984 H   0  0  0  0  0  0  0  0  0  0  0  0  # atno 10763 bound_to 10752
  154.3936  135.6060  153.5860 H   0  0  0  0  0  0  0  0  0  0  0  0  # atno 10764 bound_to 10752
  152.9832  135.5909  154.4489 H   0  0  0  0  0  0  0  0  0  0  0  0  # atno 10765 bound_to 10752
  139.9468  134.9628  156.8740 H   0  0  0  0  0  0  0  0  0  0  0  0  # atno 11005 bound_to 11000
  144.7047  140.3802  143.7128 LP  0  0  0  0  0  0  0  0  0  0  0  0  # atno 17320 bound_to 7965
  145.6981  139.1654  143.2608 LP  0  0  0  0  0  0  0  0  0  0  0  0  # atno 17321 bound_to 7965
  139.5290  144.2973  152.1103 LP  0  0  0  0  0  0  0  0  0  0  0  0  # atno 17342 bound_to 10162
  140.2153  144.4521  150.6367 LP  0  0  0  0  0  0  0  0  0  0  0  0  # atno 17343 bound_to 10162
  156.0412  130.3738  150.1432 LP  0  0  0  0  0  0  0  0  0  0  0  0  # atno 17370 bound_to 10713
  156.9617  130.9807  151.3477 LP  0  0  0  0  0  0  0  0  0  0  0  0  # atno 17371 bound_to 10713
  140.5816  134.0347  155.7466 LP  0  0  0  0  0  0  0  0  0  0  0  0  # atno 17394 bound_to 11000
  141.1120  133.9601  157.2892 LP  0  0  0  0  0  0  0  0  0  0  0  0  # atno 17395 bound_to 11000

$$$$
