AV-unprocessed.smi:765|AV-procd|sdf|3648|dock3
  -GOLD-   22720 1 53D 1   1.00000     0.00000
 Structure written by MMmdl.
 39 40  0  0  0  0  0  0  0  0  1 V2000
  148.0479  141.2264  154.2039 C   0  0  0  0  0  0  0  0  0  0  0  0
  149.1044  140.4680  155.0201 C   0  0  1  0  0  0  0  0  0  0  0  0
  150.0707  139.6950  154.1049 C   0  0  0  0  0  0  0  0  0  0  0  0
  151.1415  138.9504  154.9144 C   0  0  0  0  0  0  0  0  0  0  0  0
  151.9064  139.9123  155.8377 C   0  0  0  0  0  0  0  0  0  0  0  0
  150.9609  140.6867  156.7888 C   0  0  1  0  0  0  0  0  0  0  0  0
  150.2929  139.7616  157.7266 C   0  0  0  0  0  0  0  0  0  0  0  0
  149.7692  139.0358  158.4602 N   0  0  0  0  0  0  0  0  0  0  0  0
  151.7177  141.7122  157.5098 N   0  0  0  0  0  0  0  0  0  0  0  0
  151.2676  142.5079  158.4951 C   0  0  0  0  0  0  0  0  0  0  0  0
  150.1081  142.4808  158.9080 O   0  0  0  0  0  0  0  0  0  0  0  0
  152.2962  143.4739  159.1045 C   0  0  1  0  0  0  0  0  0  0  0  0
  151.8035  144.9353  159.1332 C   0  0  0  0  0  0  0  0  0  0  0  0
  152.7083  143.0056  160.4229 N   0  0  0  0  0  0  0  0  0  0  0  0
  152.5434  143.6394  161.6379 C   0  0  0  0  0  0  0  0  0  0  0  0
  153.1203  142.8533  162.5937 C   0  0  0  0  0  0  0  0  0  0  0  0
  153.6304  141.7476  161.8586 C   0  0  0  0  0  0  0  0  0  0  0  0
  153.3905  141.8448  160.5615 N   0  0  0  0  0  0  0  0  0  0  0  0
  149.8927  141.4189  155.9442 C   0  0  0  0  0  0  0  0  0  0  0  0
  148.5079  141.9691  153.5512 H   0  0  0  0  0  0  0  0  0  0  0  0
  147.3457  141.7462  154.8562 H   0  0  0  0  0  0  0  0  0  0  0  0
  147.4721  140.5445  153.5776 H   0  0  0  0  0  0  0  0  0  0  0  0
  148.5754  139.7443  155.6418 H   0  0  0  0  0  0  0  0  0  0  0  0
  149.5166  138.9839  153.4912 H   0  0  0  0  0  0  0  0  0  0  0  0
  150.5556  140.3859  153.4139 H   0  0  0  0  0  0  0  0  0  0  0  0
  150.6745  138.1615  155.5051 H   0  0  0  0  0  0  0  0  0  0  0  0
  151.8385  138.4554  154.2376 H   0  0  0  0  0  0  0  0  0  0  0  0
  152.6435  139.3461  156.4080 H   0  0  0  0  0  0  0  0  0  0  0  0
  152.4719  140.6174  155.2263 H   0  0  0  0  0  0  0  0  0  0  0  0
  152.6862  141.8144  157.2438 H   0  0  0  0  0  0  0  0  0  0  0  0
  153.1797  143.4475  158.4644 H   0  0  0  0  0  0  0  0  0  0  0  0
  151.5512  145.2843  158.1314 H   0  0  0  0  0  0  0  0  0  0  0  0
  152.5768  145.5975  159.5235 H   0  0  0  0  0  0  0  0  0  0  0  0
  150.9180  145.0586  159.7580 H   0  0  0  0  0  0  0  0  0  0  0  0
  152.0346  144.5884  161.7206 H   0  0  0  0  0  0  0  0  0  0  0  0
  153.1736  143.0415  163.6557 H   0  0  0  0  0  0  0  0  0  0  0  0
  154.1679  140.8855  162.2251 H   0  0  0  0  0  0  0  0  0  0  0  0
  150.3708  142.1894  155.3364 H   0  0  0  0  0  0  0  0  0  0  0  0
  149.1996  141.9422  156.6050 H   0  0  0  0  0  0  0  0  0  0  0  0
  1  2  1  0  0  0  0
  1 20  1  0  0  0  0
  1 21  1  0  0  0  0
  1 22  1  0  0  0  0
  2 19  1  0  0  0  0
  2  3  1  0  0  0  0
  2 23  1  0  0  0  0
  3  4  1  0  0  0  0
  3 24  1  0  0  0  0
  3 25  1  0  0  0  0
  4  5  1  0  0  0  0
  4 26  1  0  0  0  0
  4 27  1  0  0  0  0
  5  6  1  0  0  0  0
  5 28  1  0  0  0  0
  5 29  1  0  0  0  0
  6  7  1  0  0  0  0
  6  9  1  0  0  0  0
  6 19  1  0  0  0  0
  7  8  3  0  0  0  0
  9 10  1  0  0  0  0
  9 30  1  0  0  0  0
 10 11  2  0  0  0  0
 10 12  1  0  0  0  0
 12 13  1  0  0  0  0
 12 14  1  0  0  0  0
 12 31  1  0  0  0  0
 13 32  1  0  0  0  0
 13 33  1  0  0  0  0
 13 34  1  0  0  0  0
 14 18  1  0  0  0  0
 14 15  1  0  0  0  0
 15 16  2  0  0  0  0
 15 35  1  0  0  0  0
 16 17  1  0  0  0  0
 16 36  1  0  0  0  0
 17 18  2  0  0  0  0
 17 37  1  0  0  0  0
 19 38  1  0  0  0  0
 19 39  1  0  0  0  0
M  END
> <s_m_source_file>
AV-unprocessed.smi

> <i_m_source_file_index>
765

> <i_lp_mmshare_version>
43012

> <i_f3d_flags>
0

> <s_epik_input>
W0NIM11bQ0BASF0oW0NIMl0xKVtDSDJdW0NIMl1bQ0gyXVtDQEBdMShDI04pW05IXUMoPU8pW0NASF0oW0NIM10pbjJbY0hdW2NIXVtjSF1uMg==

> <s_epik_cmdline>
J2VwaWtfcHl0aG9uJywgJy1waCcsICc3LjAnLCAnLXRuJywgJzgnLCAnLW1hJywgJzIwMCcsICctbWV0YWxfYmluZGluZycsICctaW1hZScsICc8aW5maWxlLm1hZT4nLCAnLW9tYWUnLCAnPG91dGZpbGUubWFlPic=

> <r_lp_tautomer_probability>
1

> <r_epik_Ionization_Penalty>
2.71142e-05

> <r_epik_Ionization_Penalty_Charging>
0

> <r_epik_Ionization_Penalty_Neutral>
2.71142e-05

> <r_epik_State_Penalty>
-0

> <r_epik_Charging_Adjusted_Penalty>
0

> <i_epik_Tot_Q>
0

> <i_epik_Tot_abs_Q>
0

> <r_epik_Metal_State_Penalty>
-0

> <b_epik_Metal_Only>
0

> <s_lp_Force_Field>
OPLS_2005

> <r_lp_Energy>
11.5189

> <b_lp_Chiralities_Consistent>
1

> <s_lp_Variant>
AV-unprocessed.smi:765-6

> <Gold.Version>
5.8.1

> <Gold.Id.Protein>
6NUR|6NUR_protein|mol2

> <Gold.PLP.Fitness>
44.9634

> <Gold.PLP.PLP>
-45.7210

> <Gold.PLP.part.hbond>
-0.6598

> <Gold.PLP.part.metal>
0.0000

> <Gold.PLP.part.buried>
-2.9623

> <Gold.PLP.part.nonpolar>
-41.2784

> <Gold.PLP.part.repulsive>
0.1493

> <Gold.PLP.ligand.clash>
0.0000

> <Gold.PLP.ligand.torsion>
0.4292

> <Gold.PLP.Chemscore.Hbond>
0.0000

> <Gold.PLP.Chemscore.CHOScore>
0.0000

> <Gold.PLP.Chemscore.Metal>
0.0000

> <Gold.PLP.Chemscore.Internal.Correction>
0.1008

> <Gold.Rescore>
     Score         DG    S(hbond)    S(metal)    S(lipo)     H(rot)  DE(clash)    DE(int)     intcor
     12.83     -14.64       0.00        0.00     109.36       1.42       0.14       1.68       ----

> <Gold.Chemscore.Fitness>
12.8290

> <Gold.Chemscore.DG>
-14.6445

> <Gold.Chemscore.ZeroCoef>
-5.4800

> <Gold.Chemscore.Hbond>
0.0000

> <Gold.Chemscore.Metal>
0.0000

> <Gold.Chemscore.Lipo>
109.3626

> <Gold.Chemscore.Internal_Hbond>
0.0000

> <Gold.Chemscore.DEClash>
0.1352

> <Gold.Chemscore.DEInternal>
1.6804

> <Gold.Chemscore.Rot>
1.4183

> <Gold.Chemscore.Internal.Correction>
   9.000000E+99

> <Gold.Chemscore.Hbond.Weighted>
-0.0000

> <Gold.Chemscore.Metal.Weighted>
-0.0000

> <Gold.Chemscore.Lipo.Weighted>
-12.7954

> <Gold.Chemscore.Internal_Hbond.Weighted>
0.0000

> <Gold.Chemscore.DEClash.Weighted>
0.1352

> <Gold.Chemscore.DEInternal.Weighted>
1.6804

> <Gold.Chemscore.Rot.Weighted>
3.6309

> <Gold.Chemscore.Internal.Correction.Weighted>
   9.000000E+99

> <Gold.Protein.RotatedTorsions>
[ 6907 6896 6895 6894 ] final -118.55 input  -60.11 | X-H torsion
[ 7974 7965 7964 7962 ] final  104.07 input  175.53 | X-H torsion
[ 8008 7997 7996 7995 ] final -135.13 input   59.86 | X-H torsion
[ 10167 10162 10161 10158 ] final -178.41 input  -65.29 | X-H torsion
[ 10718 10713 10712 10709 ] final    0.29 input   66.30 | X-H torsion
[ 10763 10752 10751 10750 ] final   32.34 input  -60.55 | X-H torsion
[ 11005 11000 10999 10996 ] final  -93.72 input  -57.11 | X-H torsion

> <Gold.Protein.ActiveResidues>
 VAL166  LYS551  ARG553  GLY616  TRP617  ASP618  TYR619  PRO620  LYS621  CYS622 
 ASP623  PHE694  ASN695  SER759  ASP760  ASP761  ALA762  ILE779  LEU786  VAL792 
 PHE793  MET794  SER795  GLU796  ALA797  LYS798  CYS799  TRP800  GLU811  SER814 

> <Gold.Protein.RotatedAtoms>
  150.8229  133.8222  159.3131 H   0  0  0  0  0  0  0  0  0  0  0  0  # atno 6907 bound_to 6896
  151.5975  135.1048  160.0062 H   0  0  0  0  0  0  0  0  0  0  0  0  # atno 6908 bound_to 6896
  152.4316  133.7247  159.6610 H   0  0  0  0  0  0  0  0  0  0  0  0  # atno 6909 bound_to 6896
  145.3375  139.2470  143.3627 H   0  0  0  0  0  0  0  0  0  0  0  0  # atno 7974 bound_to 7965
  155.3735  140.0489  157.3045 H   0  0  0  0  0  0  0  0  0  0  0  0  # atno 8008 bound_to 7997
  154.5118  140.2194  155.9104 H   0  0  0  0  0  0  0  0  0  0  0  0  # atno 8009 bound_to 7997
  156.1591  140.3120  155.8782 H   0  0  0  0  0  0  0  0  0  0  0  0  # atno 8010 bound_to 7997
  139.5434  144.2302  152.0940 H   0  0  0  0  0  0  0  0  0  0  0  0  # atno 10167 bound_to 10162
  156.8312  130.5489  149.5686 H   0  0  0  0  0  0  0  0  0  0  0  0  # atno 10718 bound_to 10713
  153.0267  135.6415  154.1340 H   0  0  0  0  0  0  0  0  0  0  0  0  # atno 10763 bound_to 10752
  154.1068  135.2855  155.3241 H   0  0  0  0  0  0  0  0  0  0  0  0  # atno 10764 bound_to 10752
  154.6359  135.5476  153.7797 H   0  0  0  0  0  0  0  0  0  0  0  0  # atno 10765 bound_to 10752
  141.1489  133.7907  157.0199 H   0  0  0  0  0  0  0  0  0  0  0  0  # atno 11005 bound_to 11000
  146.3021  140.3966  142.8700 LP  0  0  0  0  0  0  0  0  0  0  0  0  # atno 17320 bound_to 7965
  144.8816  140.7407  143.5983 LP  0  0  0  0  0  0  0  0  0  0  0  0  # atno 17321 bound_to 7965
  140.1784  144.4868  150.6541 LP  0  0  0  0  0  0  0  0  0  0  0  0  # atno 17342 bound_to 10162
  140.6673  143.2272  151.5713 LP  0  0  0  0  0  0  0  0  0  0  0  0  # atno 17343 bound_to 10162
  156.0933  130.5912  150.9770 LP  0  0  0  0  0  0  0  0  0  0  0  0  # atno 17370 bound_to 10713
  157.6405  131.0911  150.8260 LP  0  0  0  0  0  0  0  0  0  0  0  0  # atno 17371 bound_to 10713
  140.0822  134.9641  157.1643 LP  0  0  0  0  0  0  0  0  0  0  0  0  # atno 17394 bound_to 11000
  140.3560  134.2546  155.7192 LP  0  0  0  0  0  0  0  0  0  0  0  0  # atno 17395 bound_to 11000

$$$$
