AV-unprocessed.smi:3085|AV-procd|sdf|11762|dock4
  -GOLD-   2272017143D 1   1.00000     0.00000
 Structure written by MMmdl.
 26 27  0  0  0  0  0  0  0  0  2 V2000
  152.4092  144.0797  159.9525 C   0  0  0  0  0  0  0  0  0  0  0  0
  152.2191  142.6557  160.4852 C   0  0  0  0  0  0  0  0  0  0  0  0
  152.4381  141.6121  159.4121 C   0  0  0  0  0  0  0  0  0  0  0  0
  151.7885  141.5391  158.2550 N   0  0  0  0  0  0  0  0  0  0  0  0
  152.3138  140.4892  157.6060 C   0  0  0  0  0  0  0  0  0  0  0  0
  151.9018  140.0311  156.2209 C   0  0  2  0  0  0  0  0  0  0  0  0
  150.6750  140.8191  155.7179 C   0  0  0  0  0  0  0  0  0  0  0  0
  150.2798  140.3645  154.3847 N   0  0  0  0  0  0  0  0  0  0  0  0
  150.0518  138.9215  154.3630 C   0  0  0  0  0  0  0  0  0  0  0  0
  151.2893  138.1780  154.8939 C   0  0  0  0  0  0  0  0  0  0  0  0
  151.5925  138.6387  156.2055 O   0  0  0  0  0  0  0  0  0  0  0  0
  153.2965  139.9295  158.3288 N   0  0  0  0  0  0  0  0  0  0  0  0
  153.3604  140.6338  159.4405 N   0  5  0  0  0  0  0  0  0  0  0  0
  152.2407  144.8154  160.7388 H   0  0  0  0  0  0  0  0  0  0  0  0
  151.7107  144.2901  159.1422 H   0  0  0  0  0  0  0  0  0  0  0  0
  153.4199  144.2236  159.5700 H   0  0  0  0  0  0  0  0  0  0  0  0
  152.9119  142.4679  161.3062 H   0  0  0  0  0  0  0  0  0  0  0  0
  151.2128  142.5396  160.8893 H   0  0  0  0  0  0  0  0  0  0  0  0
  152.7504  140.2095  155.5573 H   0  0  0  0  0  0  0  0  0  0  0  0
  149.8455  140.6899  156.4145 H   0  0  0  0  0  0  0  0  0  0  0  0
  150.8995  141.8857  155.6938 H   0  0  0  0  0  0  0  0  0  0  0  0
  149.4334  140.8469  154.1005 H   0  0  0  0  0  0  0  0  0  0  0  0
  149.1848  138.6736  154.9762 H   0  0  0  0  0  0  0  0  0  0  0  0
  149.8236  138.5938  153.3487 H   0  0  0  0  0  0  0  0  0  0  0  0
  151.0940  137.1064  154.9335 H   0  0  0  0  0  0  0  0  0  0  0  0
  152.1470  138.3212  154.2346 H   0  0  0  0  0  0  0  0  0  0  0  0
  1  2  1  0  0  0  0
  1 14  1  0  0  0  0
  1 15  1  0  0  0  0
  1 16  1  0  0  0  0
  2  3  1  0  0  0  0
  2 17  1  0  0  0  0
  2 18  1  0  0  0  0
  3 13  1  0  0  0  0
  3  4  2  0  0  0  0
  4  5  1  0  0  0  0
  5  6  1  0  0  0  0
  5 12  2  0  0  0  0
  6 11  1  0  0  0  0
  6  7  1  0  0  0  0
  6 19  1  0  0  0  0
  7  8  1  0  0  0  0
  7 20  1  0  0  0  0
  7 21  1  0  0  0  0
  8  9  1  0  0  0  0
  8 22  1  0  0  0  0
  9 10  1  0  0  0  0
  9 23  1  0  0  0  0
  9 24  1  0  0  0  0
 10 11  1  0  0  0  0
 10 25  1  0  0  0  0
 10 26  1  0  0  0  0
 12 13  1  0  0  0  0
M  CHG  1  13  -1
M  END
> <s_m_source_file>
AV-unprocessed.smi

> <i_m_source_file_index>
3085

> <i_lp_mmshare_version>
43012

> <i_f3d_flags>
0

> <s_epik_input>
W0NIM11bQ0gyXWMxbmMobltuSF0xKVtDQEBIXTJbQ0gyXVtOSF1bQ0gyXVtDSDJdTzI=

> <s_epik_cmdline>
J2VwaWtfcHl0aG9uJywgJy1waCcsICc3LjAnLCAnLXRuJywgJzgnLCAnLW1hJywgJzIwMCcsICctbWV0YWxfYmluZGluZycsICctaW1hZScsICc8aW5maWxlLm1hZT4nLCAnLW9tYWUnLCAnPG91dGZpbGUubWFlPic=

> <r_lp_tautomer_probability>
0.948284

> <r_epik_Ionization_Penalty>
17.858

> <r_epik_Ionization_Penalty_Charging>
16.2847

> <r_epik_Ionization_Penalty_Neutral>
1.5733

> <r_epik_State_Penalty>
7.01418

> <r_epik_Charging_Adjusted_Penalty>
23.2989

> <i_epik_Tot_Q>
-1

> <i_epik_Tot_abs_Q>
1

> <r_epik_Metal_State_Penalty>
3.17281

> <b_epik_Metal_Only>
1

> <s_lp_Force_Field>
OPLS_2005

> <r_lp_Energy>
10.8419

> <b_lp_Chiralities_Consistent>
1

> <s_lp_Variant>
AV-unprocessed.smi:3085-13

> <Gold.Version>
5.8.1

> <Gold.Id.Protein>
6NUR|6NUR_protein|mol2

> <Gold.PLP.Fitness>
31.0039

> <Gold.PLP.PLP>
-25.2395

> <Gold.PLP.part.hbond>
-2.1641

> <Gold.PLP.part.metal>
0.0000

> <Gold.PLP.part.buried>
-2.6248

> <Gold.PLP.part.nonpolar>
-20.0817

> <Gold.PLP.part.repulsive>
0.0000

> <Gold.PLP.ligand.clash>
0.0000

> <Gold.PLP.ligand.torsion>
0.0895

> <Gold.PLP.Chemscore.Hbond>
1.9760

> <Gold.PLP.Chemscore.CHOScore>
0.0000

> <Gold.PLP.Chemscore.Metal>
0.0000

> <Gold.Chemscore.Hbonds>
donor molecule, donor type, donor heavy atom, donor atom, acceptor molecule, acceptor atom, score
      P1  H  7989  7998       L1     8  0.99
      P1  H  7997  8008       L1    12  1.00

> <Gold.PLP.Chemscore.Internal.Correction>
0.0154

> <Gold.Rescore>
     Score         DG    S(hbond)    S(metal)    S(lipo)     H(rot)  DE(clash)    DE(int)     intcor
     10.77     -10.81       0.77        0.00      51.19       1.26       0.03       0.01       ----

> <Gold.Chemscore.Fitness>
10.7694

> <Gold.Chemscore.DG>
-10.8076

> <Gold.Chemscore.ZeroCoef>
-5.4800

> <Gold.Chemscore.Hbond>
0.7698

> <Gold.Chemscore.Metal>
0.0000

> <Gold.Chemscore.Lipo>
51.1929

> <Gold.Chemscore.Internal_Hbond>
0.0000

> <Gold.Chemscore.DEClash>
0.0300

> <Gold.Chemscore.DEInternal>
0.0081

> <Gold.Chemscore.Rot>
1.2630

> <Gold.Chemscore.Internal.Correction>
   9.000000E+99

> <Gold.Chemscore.Hbonds>
donor molecule, donor type, donor heavy atom, donor atom, acceptor molecule, acceptor atom, score
      P1  H  7989  7998       L1     8  0.17
      P1  H  7997  8008       L1    12  0.32

> <Gold.Chemscore.Hbond.Weighted>
-2.5713

> <Gold.Chemscore.Metal.Weighted>
-0.0000

> <Gold.Chemscore.Lipo.Weighted>
-5.9896

> <Gold.Chemscore.Internal_Hbond.Weighted>
0.0000

> <Gold.Chemscore.DEClash.Weighted>
0.0300

> <Gold.Chemscore.DEInternal.Weighted>
0.0081

> <Gold.Chemscore.Rot.Weighted>
3.2333

> <Gold.Chemscore.Internal.Correction.Weighted>
   9.000000E+99

> <Gold.Protein.RotatedTorsions>
[ 6907 6896 6895 6894 ] final -116.40 input  -60.11 | X-H torsion
[ 7974 7965 7964 7962 ] final   92.45 input  175.53 | X-H torsion
[ 8008 7997 7996 7995 ] final  -97.11 input   59.86 | X-H torsion
[ 10167 10162 10161 10158 ] final  -18.98 input  -65.29 | X-H torsion
[ 10718 10713 10712 10709 ] final  -10.42 input   66.30 | X-H torsion
[ 10763 10752 10751 10750 ] final   43.52 input  -60.55 | X-H torsion
[ 11005 11000 10999 10996 ] final   82.16 input  -57.11 | X-H torsion

> <Gold.Protein.ActiveResidues>
 VAL166  LYS551  ARG553  GLY616  TRP617  ASP618  TYR619  PRO620  LYS621  CYS622 
 ASP623  PHE694  ASN695  SER759  ASP760  ASP761  ALA762  ILE779  LEU786  VAL792 
 PHE793  MET794  SER795  GLU796  ALA797  LYS798  CYS799  TRP800  GLU811  SER814 

> <Gold.Protein.RotatedAtoms>
  150.8053  133.8521  159.3208 H   0  0  0  0  0  0  0  0  0  0  0  0  # atno 6907 bound_to 6896
  151.6322  135.1020  160.0133 H   0  0  0  0  0  0  0  0  0  0  0  0  # atno 6908 bound_to 6896
  152.4143  133.6974  159.6460 H   0  0  0  0  0  0  0  0  0  0  0  0  # atno 6909 bound_to 6896
  145.4921  139.2276  143.2824 H   0  0  0  0  0  0  0  0  0  0  0  0  # atno 7974 bound_to 7965
  154.7833  140.0466  157.1144 H   0  0  0  0  0  0  0  0  0  0  0  0  # atno 8008 bound_to 7997
  154.9678  140.3085  155.4982 H   0  0  0  0  0  0  0  0  0  0  0  0  # atno 8009 bound_to 7997
  156.2939  140.2259  156.4769 H   0  0  0  0  0  0  0  0  0  0  0  0  # atno 8010 bound_to 7997
  140.7264  143.4863  151.0050 H   0  0  0  0  0  0  0  0  0  0  0  0  # atno 10167 bound_to 10162
  156.6737  130.5017  149.5992 H   0  0  0  0  0  0  0  0  0  0  0  0  # atno 10718 bound_to 10713
  152.9859  135.6099  154.3126 H   0  0  0  0  0  0  0  0  0  0  0  0  # atno 10763 bound_to 10752
  154.2840  135.2776  155.2686 H   0  0  0  0  0  0  0  0  0  0  0  0  # atno 10764 bound_to 10752
  154.5012  135.5866  153.6589 H   0  0  0  0  0  0  0  0  0  0  0  0  # atno 10765 bound_to 10752
  139.9073  134.8051  156.2138 H   0  0  0  0  0  0  0  0  0  0  0  0  # atno 11005 bound_to 11000
  146.2278  140.5716  142.8989 LP  0  0  0  0  0  0  0  0  0  0  0  0  # atno 17320 bound_to 7965
  144.7828  140.5875  143.6594 LP  0  0  0  0  0  0  0  0  0  0  0  0  # atno 17321 bound_to 7965
  139.8565  143.7370  152.3175 LP  0  0  0  0  0  0  0  0  0  0  0  0  # atno 17342 bound_to 10162
  139.7571  144.7517  151.0420 LP  0  0  0  0  0  0  0  0  0  0  0  0  # atno 17343 bound_to 10162
  156.1919  130.6565  151.1071 LP  0  0  0  0  0  0  0  0  0  0  0  0  # atno 17370 bound_to 10713
  157.7068  131.0753  150.6639 LP  0  0  0  0  0  0  0  0  0  0  0  0  # atno 17371 bound_to 10713
  141.0449  133.6918  156.1664 LP  0  0  0  0  0  0  0  0  0  0  0  0  # atno 17394 bound_to 11000
  140.6900  134.4676  157.5588 LP  0  0  0  0  0  0  0  0  0  0  0  0  # atno 17395 bound_to 11000

$$$$
