AV-unprocessed.smi:2134|AV-procd|sdf|8695|dock10
  -GOLD-   2272011453D 1   1.00000     0.00000
 Structure written by MMmdl.
 36 37  0  0  0  0  0  0  0  0  2 V2000
  154.6557  136.6913  164.2913 C   0  0  0  0  0  0  0  0  0  0  0  0
  154.9987  136.4931  162.8845 N   0  0  0  0  0  0  0  0  0  0  0  0
  154.8727  137.6168  162.0937 N   0  0  0  0  0  0  0  0  0  0  0  0
  154.9199  137.5564  160.7997 C   0  0  0  0  0  0  0  0  0  0  0  0
  154.7555  138.7934  159.9914 C   0  0  0  0  0  0  0  0  0  0  0  0
  155.1270  138.8383  158.8181 O   0  0  0  0  0  0  0  0  0  0  0  0
  154.1671  139.8313  160.6154 N   0  0  0  0  0  0  0  0  0  0  0  0
  153.8598  141.1263  160.0128 C   0  0  0  0  0  0  0  0  0  0  0  0
  152.3471  141.3271  159.7977 C   0  0  0  0  0  0  0  0  0  0  0  0
  151.9661  142.7559  159.4493 C   0  0  0  0  0  0  0  0  0  0  0  0
  152.3159  143.8256  160.3036 C   0  0  0  0  0  0  0  0  0  0  0  0
  151.9198  145.1367  159.9677 C   0  0  0  0  0  0  0  0  0  0  0  0
  151.1836  145.3493  158.7843 C   0  0  0  0  0  0  0  0  0  0  0  0
  150.8700  144.3023  157.9902 N   0  3  0  0  0  0  0  0  0  0  0  0
  151.2318  143.0324  158.2757 C   0  0  0  0  0  0  0  0  0  0  0  0
  155.1046  136.2269  160.0958 C   0  0  0  0  0  0  0  0  0  0  0  0
  155.8520  135.2043  160.9745 C   0  0  0  0  0  0  0  0  0  0  0  0
  155.4311  135.2850  162.4447 C   0  0  0  0  0  0  0  0  0  0  0  0
  155.5200  134.2881  163.1612 O   0  0  0  0  0  0  0  0  0  0  0  0
  155.5175  136.4898  164.9289 H   0  0  0  0  0  0  0  0  0  0  0  0
  153.8476  136.0213  164.5883 H   0  0  0  0  0  0  0  0  0  0  0  0
  154.3284  137.7123  164.4937 H   0  0  0  0  0  0  0  0  0  0  0  0
  153.9008  139.7058  161.5818 H   0  0  0  0  0  0  0  0  0  0  0  0
  154.2395  141.9052  160.6743 H   0  0  0  0  0  0  0  0  0  0  0  0
  154.3937  141.2465  159.0687 H   0  0  0  0  0  0  0  0  0  0  0  0
  151.9987  140.6608  159.0074 H   0  0  0  0  0  0  0  0  0  0  0  0
  151.8078  141.0336  160.6991 H   0  0  0  0  0  0  0  0  0  0  0  0
  152.8718  143.6446  161.2119 H   0  0  0  0  0  0  0  0  0  0  0  0
  152.1742  145.9666  160.6106 H   0  0  0  0  0  0  0  0  0  0  0  0
  150.8379  146.3173  158.4523 H   0  0  0  0  0  0  0  0  0  0  0  0
  150.9135  142.2799  157.5689 H   0  0  0  0  0  0  0  0  0  0  0  0
  154.1284  135.8314  159.8132 H   0  0  0  0  0  0  0  0  0  0  0  0
  155.6634  136.3578  159.1681 H   0  0  0  0  0  0  0  0  0  0  0  0
  155.6987  134.1935  160.5949 H   0  0  0  0  0  0  0  0  0  0  0  0
  156.9245  135.3972  160.9300 H   0  0  0  0  0  0  0  0  0  0  0  0
  150.3340  144.4771  157.1397 H   0  0  0  0  0  0  0  0  0  0  0  0
  1  2  1  0  0  0  0
  1 20  1  0  0  0  0
  1 21  1  0  0  0  0
  1 22  1  0  0  0  0
  2 18  1  0  0  0  0
  2  3  1  0  0  0  0
  3  4  2  0  0  0  0
  4  5  1  0  0  0  0
  4 16  1  0  0  0  0
  5  6  2  0  0  0  0
  5  7  1  0  0  0  0
  7  8  1  0  0  0  0
  7 23  1  0  0  0  0
  8  9  1  0  0  0  0
  8 24  1  0  0  0  0
  8 25  1  0  0  0  0
  9 10  1  0  0  0  0
  9 26  1  0  0  0  0
  9 27  1  0  0  0  0
 10 15  1  0  0  0  0
 10 11  2  0  0  0  0
 11 12  1  0  0  0  0
 11 28  1  0  0  0  0
 12 13  2  0  0  0  0
 12 29  1  0  0  0  0
 13 14  1  0  0  0  0
 13 30  1  0  0  0  0
 14 15  2  0  0  0  0
 14 36  1  0  0  0  0
 15 31  1  0  0  0  0
 16 17  1  0  0  0  0
 16 32  1  0  0  0  0
 16 33  1  0  0  0  0
 17 18  1  0  0  0  0
 17 34  1  0  0  0  0
 17 35  1  0  0  0  0
 18 19  2  0  0  0  0
M  CHG  1  14   1
M  END
> <s_m_source_file>
AV-unprocessed.smi

> <i_m_source_file_index>
2134

> <i_lp_mmshare_version>
43012

> <i_f3d_flags>
0

> <s_epik_input>
Tz1DMVtDSDJdW0NIMl1DKD1OTjFbQ0gzXSlDKD1PKVtOSF1bQ0gyXVtDSDJdYzJbY0hdW2NIXVtjSF1uW2NIXTI=

> <s_epik_cmdline>
J2VwaWtfcHl0aG9uJywgJy1waCcsICc3LjAnLCAnLXRuJywgJzgnLCAnLW1hJywgJzIwMCcsICctbWV0YWxfYmluZGluZycsICctaW1hZScsICc8aW5maWxlLm1hZT4nLCAnLW9tYWUnLCAnPG91dGZpbGUubWFlPic=

> <r_epik_Ionization_Penalty>
2.46483

> <r_epik_Ionization_Penalty_Charging>
2.46471

> <r_epik_Ionization_Penalty_Neutral>
0.00011851

> <r_epik_State_Penalty>
2.62717

> <r_epik_Charging_Adjusted_Penalty>
5.09187

> <i_epik_Tot_Q>
1

> <i_epik_Tot_abs_Q>
1

> <r_epik_Metal_State_Penalty>
2.80118

> <b_epik_Metal_Only>
0

> <s_epik_Chemistry_Notes>
This compound has an imine and may undergo hydrolysis.

> <s_lp_Force_Field>
OPLS_2005

> <r_lp_Energy>
23.6794

> <b_lp_Chiralities_Consistent>
1

> <s_lp_Variant>
AV-unprocessed.smi:2134-2

> <Gold.Version>
5.8.1

> <Gold.Id.Protein>
6NUR|6NUR_protein|mol2

> <Gold.PLP.Fitness>
46.6857

> <Gold.PLP.PLP>
-38.2532

> <Gold.PLP.part.hbond>
-2.0000

> <Gold.PLP.part.metal>
0.0000

> <Gold.PLP.part.buried>
-5.2897

> <Gold.PLP.part.nonpolar>
-30.3824

> <Gold.PLP.part.repulsive>
0.0872

> <Gold.PLP.ligand.clash>
0.0000

> <Gold.PLP.ligand.torsion>
0.2858

> <Gold.PLP.Chemscore.Hbond>
3.0000

> <Gold.PLP.Chemscore.CHOScore>
0.0000

> <Gold.PLP.Chemscore.Metal>
0.0000

> <Gold.Chemscore.Hbonds>
donor molecule, donor type, donor heavy atom, donor atom, acceptor molecule, acceptor atom, score
      L1  H    14    36       P1  8028  1.89
      P1  H  7997  8009       L1     6  1.00

> <Gold.PLP.Chemscore.Internal.Correction>
0.0041

> <Gold.Rescore>
     Score         DG    S(hbond)    S(metal)    S(lipo)     H(rot)  DE(clash)    DE(int)     intcor
     18.68     -19.13       1.96        0.00      93.93       1.52       0.20       0.24       ----

> <Gold.Chemscore.Fitness>
18.6761

> <Gold.Chemscore.DG>
-19.1255

> <Gold.Chemscore.ZeroCoef>
-5.4800

> <Gold.Chemscore.Hbond>
1.9568

> <Gold.Chemscore.Metal>
0.0000

> <Gold.Chemscore.Lipo>
93.9305

> <Gold.Chemscore.Internal_Hbond>
0.0000

> <Gold.Chemscore.DEClash>
0.2047

> <Gold.Chemscore.DEInternal>
0.2447

> <Gold.Chemscore.Rot>
1.5157

> <Gold.Chemscore.Internal.Correction>
   9.000000E+99

> <Gold.Chemscore.Hbonds>
donor molecule, donor type, donor heavy atom, donor atom, acceptor molecule, acceptor atom, score
      L1  H    14    36       P1  8028  0.63
      P1  H  7997  8009       L1     6  1.00

> <Gold.Chemscore.Hbond.Weighted>
-6.5358

> <Gold.Chemscore.Metal.Weighted>
-0.0000

> <Gold.Chemscore.Lipo.Weighted>
-10.9899

> <Gold.Chemscore.Internal_Hbond.Weighted>
0.0000

> <Gold.Chemscore.DEClash.Weighted>
0.2047

> <Gold.Chemscore.DEInternal.Weighted>
0.2447

> <Gold.Chemscore.Rot.Weighted>
3.8801

> <Gold.Chemscore.Internal.Correction.Weighted>
   9.000000E+99

> <Gold.Protein.RotatedTorsions>
[ 6907 6896 6895 6894 ] final  111.43 input  -60.11 | X-H torsion
[ 7974 7965 7964 7962 ] final   81.28 input  175.53 | X-H torsion
[ 8008 7997 7996 7995 ] final  120.63 input   59.86 | X-H torsion
[ 10167 10162 10161 10158 ] final -151.25 input  -65.29 | X-H torsion
[ 10718 10713 10712 10709 ] final  -71.41 input   66.30 | X-H torsion
[ 10763 10752 10751 10750 ] final  -43.27 input  -60.55 | X-H torsion
[ 11005 11000 10999 10996 ] final -143.56 input  -57.11 | X-H torsion

> <Gold.Protein.ActiveResidues>
 VAL166  LYS551  ARG553  GLY616  TRP617  ASP618  TYR619  PRO620  LYS621  CYS622 
 ASP623  PHE694  ASN695  SER759  ASP760  ASP761  ALA762  ILE779  LEU786  VAL792 
 PHE793  MET794  SER795  GLU796  ALA797  LYS798  CYS799  TRP800  GLU811  SER814 

> <Gold.Protein.RotatedAtoms>
  152.4970  133.8659  159.7273 H   0  0  0  0  0  0  0  0  0  0  0  0  # atno 6907 bound_to 6896
  150.9158  133.6931  159.2850 H   0  0  0  0  0  0  0  0  0  0  0  0  # atno 6908 bound_to 6896
  151.4325  135.1015  159.9699 H   0  0  0  0  0  0  0  0  0  0  0  0  # atno 6909 bound_to 6896
  145.6402  139.2424  143.2035 H   0  0  0  0  0  0  0  0  0  0  0  0  # atno 7974 bound_to 7965
  156.2651  140.2826  156.1179 H   0  0  0  0  0  0  0  0  0  0  0  0  # atno 8008 bound_to 7997
  155.1187  140.0392  157.2761 H   0  0  0  0  0  0  0  0  0  0  0  0  # atno 8009 bound_to 7997
  154.6687  140.2583  155.7036 H   0  0  0  0  0  0  0  0  0  0  0  0  # atno 8010 bound_to 7997
  139.7283  143.8848  152.2526 H   0  0  0  0  0  0  0  0  0  0  0  0  # atno 10167 bound_to 10162
  156.0364  130.4351  150.2439 H   0  0  0  0  0  0  0  0  0  0  0  0  # atno 10718 bound_to 10713
  153.9927  135.6703  153.4755 H   0  0  0  0  0  0  0  0  0  0  0  0  # atno 10763 bound_to 10752
  153.0697  135.4981  154.8275 H   0  0  0  0  0  0  0  0  0  0  0  0  # atno 10764 bound_to 10752
  154.7099  135.3095  154.9175 H   0  0  0  0  0  0  0  0  0  0  0  0  # atno 10765 bound_to 10752
  140.8113  134.2741  157.4940 H   0  0  0  0  0  0  0  0  0  0  0  0  # atno 11005 bound_to 11000
  146.1287  140.7214  142.9422 LP  0  0  0  0  0  0  0  0  0  0  0  0  # atno 17320 bound_to 7965
  144.7160  140.4212  143.7044 LP  0  0  0  0  0  0  0  0  0  0  0  0  # atno 17321 bound_to 7965
  139.8763  144.7041  150.8929 LP  0  0  0  0  0  0  0  0  0  0  0  0  # atno 17342 bound_to 10162
  140.7767  143.3697  151.1673 LP  0  0  0  0  0  0  0  0  0  0  0  0  # atno 17343 bound_to 10162
  157.0538  131.0070  151.3245 LP  0  0  0  0  0  0  0  0  0  0  0  0  # atno 17370 bound_to 10713
  157.5121  130.7945  149.7716 LP  0  0  0  0  0  0  0  0  0  0  0  0  # atno 17371 bound_to 10713
  139.8714  134.9484  156.3996 LP  0  0  0  0  0  0  0  0  0  0  0  0  # atno 17394 bound_to 11000
  140.9195  133.7655  155.9889 LP  0  0  0  0  0  0  0  0  0  0  0  0  # atno 17395 bound_to 11000

$$$$
