AV-unprocessed.smi:109|AV-procd|sdf|1045|dock8
  -GOLD-   2262018 83D 1   1.00000     0.00000
 Structure written by MMmdl.
 58 61  0  0  0  0  0  0  0  0  1 V2000
  153.0031  136.7117  159.6080 O   0  0  0  0  0  0  0  0  0  0  0  0
  152.3095  137.7740  158.9898 C   0  0  0  0  0  0  0  0  0  0  0  0
  152.8388  139.1197  159.5148 C   0  0  0  0  0  0  0  0  0  0  0  0
  152.1865  140.3606  158.8563 C   0  0  2  0  0  0  0  0  0  0  0  0
  152.4360  140.3359  157.4129 N   0  0  0  0  0  0  0  0  0  0  0  0
  151.4350  140.3488  156.5041 C   0  0  0  0  0  0  0  0  0  0  0  0
  151.6066  139.8588  155.2485 N   0  0  0  0  0  0  0  0  0  0  0  0
  150.5982  139.8925  154.3719 C   0  0  0  0  0  0  0  0  0  0  0  0
  149.3599  140.3618  154.5413 N   0  0  0  0  0  0  0  0  0  0  0  0
  149.1835  140.8517  155.8023 C   0  0  0  0  0  0  0  0  0  0  0  0
  150.1627  140.8829  156.8332 C   0  0  0  0  0  0  0  0  0  0  0  0
  149.6231  141.4579  157.9771 N   0  0  0  0  0  0  0  0  0  0  0  0
  148.3952  141.7466  157.6367 C   0  0  0  0  0  0  0  0  0  0  0  0
  148.0501  141.4146  156.3442 N   0  0  0  0  0  0  0  0  0  0  0  0
  146.7465  141.6118  155.6407 C   0  0  1  0  0  0  0  0  0  0  0  0
  145.8662  142.2091  156.5331 O   0  0  0  0  0  0  0  0  0  0  0  0
  144.8749  142.8838  155.7766 C   0  0  1  0  0  0  0  0  0  0  0  0
  144.1406  143.9006  156.6635 C   0  0  0  0  0  0  0  0  0  0  0  0
  145.0711  144.7670  157.2757 O   0  0  0  0  0  0  0  0  0  0  0  0
  145.6941  143.5294  154.6506 C   0  0  2  0  0  0  0  0  0  0  0  0
  144.9024  143.6542  153.4858 O   0  0  0  0  0  0  0  0  0  0  0  0
  146.8464  142.5502  154.4190 C   0  0  1  0  0  0  0  0  0  0  0  0
  148.0813  143.2372  154.3129 O   0  0  0  0  0  0  0  0  0  0  0  0
  152.6880  141.7125  159.4412 C   0  0  0  0  0  0  0  0  0  0  0  0
  152.4489  141.8486  160.9661 C   0  0  0  0  0  0  0  0  0  0  0  0
  152.9129  143.2080  161.5153 C   0  0  0  0  0  0  0  0  0  0  0  0
  152.2432  144.3717  160.7751 C   0  0  0  0  0  0  0  0  0  0  0  0
  152.4960  144.2673  159.2665 C   0  0  0  0  0  0  0  0  0  0  0  0
  152.0233  142.9122  158.7176 C   0  0  0  0  0  0  0  0  0  0  0  0
  146.3959  140.6107  155.3848 H   0  0  0  0  0  0  0  0  0  0  0  0
  144.1825  142.1470  155.3625 H   0  0  0  0  0  0  0  0  0  0  0  0
  146.0675  144.5061  154.9636 H   0  0  0  0  0  0  0  0  0  0  0  0
  146.6988  141.9469  153.5219 H   0  0  0  0  0  0  0  0  0  0  0  0
  153.7719  136.5154  159.0949 H   0  0  0  0  0  0  0  0  0  0  0  0
  152.4411  137.6899  157.9110 H   0  0  0  0  0  0  0  0  0  0  0  0
  151.2447  137.6712  159.2003 H   0  0  0  0  0  0  0  0  0  0  0  0
  152.6518  139.1303  160.5871 H   0  0  0  0  0  0  0  0  0  0  0  0
  153.9217  139.1634  159.3902 H   0  0  0  0  0  0  0  0  0  0  0  0
  151.1172  140.3159  159.0616 H   0  0  0  0  0  0  0  0  0  0  0  0
  153.4093  140.3104  157.1442 H   0  0  0  0  0  0  0  0  0  0  0  0
  150.8152  139.4853  153.3955 H   0  0  0  0  0  0  0  0  0  0  0  0
  147.7049  142.2162  158.3224 H   0  0  0  0  0  0  0  0  0  0  0  0
  143.4072  144.4703  156.0920 H   0  0  0  0  0  0  0  0  0  0  0  0
  143.6028  143.3849  157.4595 H   0  0  0  0  0  0  0  0  0  0  0  0
  144.9059  145.6478  156.9757 H   0  0  0  0  0  0  0  0  0  0  0  0
  144.0495  143.2862  153.6597 H   0  0  0  0  0  0  0  0  0  0  0  0
  148.5509  143.1360  155.1265 H   0  0  0  0  0  0  0  0  0  0  0  0
  153.7644  141.7728  159.2713 H   0  0  0  0  0  0  0  0  0  0  0  0
  151.3901  141.7078  161.1876 H   0  0  0  0  0  0  0  0  0  0  0  0
  152.9877  141.0774  161.5141 H   0  0  0  0  0  0  0  0  0  0  0  0
  152.6933  143.2717  162.5812 H   0  0  0  0  0  0  0  0  0  0  0  0
  153.9963  143.2894  161.4186 H   0  0  0  0  0  0  0  0  0  0  0  0
  151.1702  144.3631  160.9707 H   0  0  0  0  0  0  0  0  0  0  0  0
  152.6213  145.3223  161.1525 H   0  0  0  0  0  0  0  0  0  0  0  0
  151.9822  145.0773  158.7479 H   0  0  0  0  0  0  0  0  0  0  0  0
  153.5598  144.3945  159.0618 H   0  0  0  0  0  0  0  0  0  0  0  0
  152.2342  142.8849  157.6486 H   0  0  0  0  0  0  0  0  0  0  0  0
  150.9389  142.8417  158.8146 H   0  0  0  0  0  0  0  0  0  0  0  0
  1  2  1  0  0  0  0
  1 34  1  0  0  0  0
  2  3  1  0  0  0  0
  2 35  1  0  0  0  0
  2 36  1  0  0  0  0
  3  4  1  0  0  0  0
  3 37  1  0  0  0  0
  3 38  1  0  0  0  0
  4  5  1  0  0  0  0
  4 24  1  0  0  0  0
  4 39  1  0  0  0  0
  5  6  1  0  0  0  0
  5 40  1  0  0  0  0
  6 11  1  0  0  0  0
  6  7  2  0  0  0  0
  7  8  1  0  0  0  0
  8  9  2  0  0  0  0
  8 41  1  0  0  0  0
  9 10  1  0  0  0  0
 10 14  1  0  0  0  0
 10 11  2  0  0  0  0
 11 12  1  0  0  0  0
 12 13  2  0  0  0  0
 13 14  1  0  0  0  0
 13 42  1  0  0  0  0
 14 15  1  0  0  0  0
 15 30  1  0  0  0  0
 15 22  1  0  0  0  0
 15 16  1  0  0  0  0
 16 17  1  0  0  0  0
 17 31  1  0  0  0  0
 17 18  1  0  0  0  0
 17 20  1  0  0  0  0
 18 19  1  0  0  0  0
 18 43  1  0  0  0  0
 18 44  1  0  0  0  0
 19 45  1  0  0  0  0
 20 32  1  0  0  0  0
 20 21  1  0  0  0  0
 20 22  1  0  0  0  0
 21 46  1  0  0  0  0
 22 33  1  0  0  0  0
 22 23  1  0  0  0  0
 23 47  1  0  0  0  0
 24 29  1  0  0  0  0
 24 25  1  0  0  0  0
 24 48  1  0  0  0  0
 25 26  1  0  0  0  0
 25 49  1  0  0  0  0
 25 50  1  0  0  0  0
 26 27  1  0  0  0  0
 26 51  1  0  0  0  0
 26 52  1  0  0  0  0
 27 28  1  0  0  0  0
 27 53  1  0  0  0  0
 27 54  1  0  0  0  0
 28 29  1  0  0  0  0
 28 55  1  0  0  0  0
 28 56  1  0  0  0  0
 29 57  1  0  0  0  0
 29 58  1  0  0  0  0
M  END
> <s_m_source_file>
AV-unprocessed.smi

> <i_m_source_file_index>
109

> <i_lp_mmshare_version>
43012

> <i_f3d_flags>
0

> <s_epik_input>
W0NIMl0xW0NIMl1bQ0gyXVtDSDJdW0NIMl1bQ0hdMVtDQEhdKFtDSDJdW0NIMl1bT0hdKVtOSF1jKG5bY0hdbjIpYyhjMjMpbltjSF1uM1tDQEBIXTRPW0NASF0oW0NIMl1bT0hdKVtDQEBIXShbT0hdKVtDQEhdNFtPSF0=

> <s_epik_cmdline>
J2VwaWtfcHl0aG9uJywgJy1waCcsICc3LjAnLCAnLXRuJywgJzgnLCAnLW1hJywgJzIwMCcsICctbWV0YWxfYmluZGluZycsICctaW1hZScsICc8aW5maWxlLm1hZT4nLCAnLW9tYWUnLCAnPG91dGZpbGUubWFlPic=

> <r_lp_tautomer_probability>
1

> <r_epik_Ionization_Penalty>
0.000793976

> <r_epik_Ionization_Penalty_Charging>
0

> <r_epik_Ionization_Penalty_Neutral>
0.000793976

> <r_epik_State_Penalty>
-0

> <r_epik_Charging_Adjusted_Penalty>
0

> <i_epik_Tot_Q>
0

> <i_epik_Tot_abs_Q>
0

> <r_epik_Metal_State_Penalty>
-0

> <b_epik_Metal_Only>
0

> <s_epik_Chemistry_Notes>
This compound contains an acetal/aminal-like group ( X-CH(R)-Y where X, Y are N, S, or O) that may be acid/base labile, releasing an aldehyde.

> <s_lp_Force_Field>
OPLS_2005

> <r_lp_Energy>
53.6553

> <b_lp_Chiralities_Consistent>
1

> <s_lp_Variant>
AV-unprocessed.smi:109-15

> <Gold.Version>
5.8.1

> <Gold.Id.Protein>
6NUR|6NUR_protein|mol2

> <Gold.PLP.Fitness>
56.0194

> <Gold.PLP.PLP>
-45.5829

> <Gold.PLP.part.hbond>
-6.2021

> <Gold.PLP.part.metal>
0.0000

> <Gold.PLP.part.buried>
-0.2039

> <Gold.PLP.part.nonpolar>
-39.4143

> <Gold.PLP.part.repulsive>
0.7140

> <Gold.PLP.ligand.clash>
0.0000

> <Gold.PLP.ligand.torsion>
0.1776

> <Gold.PLP.Chemscore.Hbond>
2.6272

> <Gold.PLP.Chemscore.CHOScore>
0.9135

> <Gold.PLP.Chemscore.Metal>
0.0000

> <Gold.Chemscore.Hbonds>
donor molecule, donor type, donor heavy atom, donor atom, acceptor molecule, acceptor atom, score
      L1  H    21    46       P1 10174  0.27
      L1  H    23    47       P1  8028  0.08
      P1  H  6896  6908       L1     1  1.00
      P1  H  8022  8030       L1    23  1.00
      L1  C     8    41       P1  7957  0.83

> <Gold.PLP.Chemscore.Internal.Correction>
0.1695

> <Gold.Rescore>
     Score         DG    S(hbond)    S(metal)    S(lipo)     H(rot)  DE(clash)    DE(int)     intcor
      4.15      -8.99       1.55        0.00     105.46       5.47       2.34       2.49       ----

> <Gold.Chemscore.Fitness>
4.1518

> <Gold.Chemscore.DG>
-8.9853

> <Gold.Chemscore.ZeroCoef>
-5.4800

> <Gold.Chemscore.Hbond>
1.5451

> <Gold.Chemscore.Metal>
0.0000

> <Gold.Chemscore.Lipo>
105.4551

> <Gold.Chemscore.Internal_Hbond>
0.0000

> <Gold.Chemscore.DEClash>
2.3424

> <Gold.Chemscore.DEInternal>
2.4911

> <Gold.Chemscore.Rot>
5.4662

> <Gold.Chemscore.Internal.Correction>
   9.000000E+99

> <Gold.Chemscore.Hbonds>
donor molecule, donor type, donor heavy atom, donor atom, acceptor molecule, acceptor atom, score
      L1  H    21    46       P1 10174  0.06
      L1  H    23    47       P1  8028  0.10
      P1  H  6896  6908       L1     1  0.77
      P1  H  8022  8030       L1    23  0.58

> <Gold.Chemscore.Hbond.Weighted>
-5.1606

> <Gold.Chemscore.Metal.Weighted>
-0.0000

> <Gold.Chemscore.Lipo.Weighted>
-12.3382

> <Gold.Chemscore.Internal_Hbond.Weighted>
0.0000

> <Gold.Chemscore.DEClash.Weighted>
2.3424

> <Gold.Chemscore.DEInternal.Weighted>
2.4911

> <Gold.Chemscore.Rot.Weighted>
13.9935

> <Gold.Chemscore.Internal.Correction.Weighted>
   9.000000E+99

> <Gold.Protein.RotatedTorsions>
[ 6907 6896 6895 6894 ] final  -96.71 input  -60.11 | X-H torsion
[ 7974 7965 7964 7962 ] final -128.76 input  175.53 | X-H torsion
[ 8008 7997 7996 7995 ] final -153.44 input   59.86 | X-H torsion
[ 10167 10162 10161 10158 ] final   60.72 input  -65.29 | X-H torsion
[ 10718 10713 10712 10709 ] final   72.09 input   66.30 | X-H torsion
[ 10763 10752 10751 10750 ] final   33.76 input  -60.55 | X-H torsion
[ 11005 11000 10999 10996 ] final    9.46 input  -57.11 | X-H torsion

> <Gold.Protein.ActiveResidues>
 VAL166  LYS551  ARG553  GLY616  TRP617  ASP618  TYR619  PRO620  LYS621  CYS622 
 ASP623  PHE694  ASN695  SER759  ASP760  ASP761  ALA762  ILE779  LEU786  VAL792 
 PHE793  MET794  SER795  GLU796  ALA797  LYS798  CYS799  TRP800  GLU811  SER814 

> <Gold.Protein.RotatedAtoms>
  150.6996  134.1461  159.4122 H   0  0  0  0  0  0  0  0  0  0  0  0  # atno 6907 bound_to 6896
  151.9445  135.0195  160.0547 H   0  0  0  0  0  0  0  0  0  0  0  0  # atno 6908 bound_to 6896
  152.2065  133.4844  159.5123 H   0  0  0  0  0  0  0  0  0  0  0  0  # atno 6909 bound_to 6896
  144.9639  140.7475  143.4712 H   0  0  0  0  0  0  0  0  0  0  0  0  # atno 7974 bound_to 7965
  155.6709  140.0733  157.2520 H   0  0  0  0  0  0  0  0  0  0  0  0  # atno 8008 bound_to 7997
  154.4123  140.1699  156.1929 H   0  0  0  0  0  0  0  0  0  0  0  0  # atno 8009 bound_to 7997
  155.9617  140.3369  155.6500 H   0  0  0  0  0  0  0  0  0  0  0  0  # atno 8010 bound_to 7997
  140.1625  144.4356  150.6702 H   0  0  0  0  0  0  0  0  0  0  0  0  # atno 10167 bound_to 10162
  157.6484  130.9561  150.0881 H   0  0  0  0  0  0  0  0  0  0  0  0  # atno 10718 bound_to 10713
  153.0196  135.6378  154.1562 H   0  0  0  0  0  0  0  0  0  0  0  0  # atno 10763 bound_to 10752
  154.1298  135.2841  155.3189 H   0  0  0  0  0  0  0  0  0  0  0  0  # atno 10764 bound_to 10752
  154.6203  135.5527  153.7630 H   0  0  0  0  0  0  0  0  0  0  0  0  # atno 10765 bound_to 10752
  140.5255  134.0517  155.7857 H   0  0  0  0  0  0  0  0  0  0  0  0  # atno 11005 bound_to 11000
  145.2659  139.1974  143.4867 LP  0  0  0  0  0  0  0  0  0  0  0  0  # atno 17320 bound_to 7965
  146.3361  140.2597  142.8601 LP  0  0  0  0  0  0  0  0  0  0  0  0  # atno 17321 bound_to 7965
  140.6634  143.2259  151.5801 LP  0  0  0  0  0  0  0  0  0  0  0  0  # atno 17342 bound_to 10162
  139.5375  144.2741  152.1281 LP  0  0  0  0  0  0  0  0  0  0  0  0  # atno 17343 bound_to 10162
  156.1838  130.3651  149.9000 LP  0  0  0  0  0  0  0  0  0  0  0  0  # atno 17370 bound_to 10713
  156.6946  130.8909  151.3592 LP  0  0  0  0  0  0  0  0  0  0  0  0  # atno 17371 bound_to 10713
  141.1311  133.9301  157.2534 LP  0  0  0  0  0  0  0  0  0  0  0  0  # atno 17394 bound_to 11000
  139.9583  135.0160  156.9189 LP  0  0  0  0  0  0  0  0  0  0  0  0  # atno 17395 bound_to 11000

$$$$
