AV-unprocessed.smi:3252|AV-procd|sdf|12440|dock7
  -GOLD-   2272018333D 1   1.00000     0.00000
 Structure written by MMmdl.
 37 38  0  0  0  0  0  0  0  0  2 V2000
  143.4399  133.0558  148.5299 C   0  0  0  0  0  0  0  0  0  0  0  0
  144.4665  132.4115  149.4716 C   0  0  0  0  0  0  0  0  0  0  0  0
  145.4531  133.3947  149.9924 N   0  3  2  0  0  0  0  0  0  0  0  0
  146.6883  132.7691  150.5232 C   0  0  0  0  0  0  0  0  0  0  0  0
  146.4553  132.1877  151.9283 C   0  0  0  0  0  0  0  0  0  0  0  0
  145.9834  133.2176  152.7864 O   0  0  0  0  0  0  0  0  0  0  0  0
  144.7288  133.7492  152.3717 C   0  0  1  0  0  0  0  0  0  0  0  0
  144.2686  134.8014  153.3962 C   0  0  0  0  0  0  0  0  0  0  0  0
  142.8960  134.5875  153.8408 N   0  0  0  0  0  0  0  0  0  0  0  0
  141.9528  135.6258  153.8555 C   0  0  0  0  0  0  0  0  0  0  0  0
  142.3644  136.9141  153.4539 C   0  0  0  0  0  0  0  0  0  0  0  0
  141.4245  137.9634  153.4655 C   0  0  0  0  0  0  0  0  0  0  0  0
  140.1060  137.6879  153.8784 C   0  0  0  0  0  0  0  0  0  0  0  0
  139.0994  138.7349  153.9061 C   0  0  0  0  0  0  0  0  0  0  0  0
  138.2977  139.5688  153.9284 N   0  0  0  0  0  0  0  0  0  0  0  0
  139.7884  136.3703  154.2645 C   0  0  0  0  0  0  0  0  0  0  0  0
  140.6863  135.3614  154.2564 N   0  0  0  0  0  0  0  0  0  0  0  0
  144.9056  134.3724  150.9688 C   0  0  0  0  0  0  0  0  0  0  0  0
  142.7950  132.2952  148.0889 H   0  0  0  0  0  0  0  0  0  0  0  0
  143.9320  133.5839  147.7125 H   0  0  0  0  0  0  0  0  0  0  0  0
  142.7944  133.7637  149.0489 H   0  0  0  0  0  0  0  0  0  0  0  0
  143.9626  131.8923  150.2864 H   0  0  0  0  0  0  0  0  0  0  0  0
  144.9960  131.6452  148.9042 H   0  0  0  0  0  0  0  0  0  0  0  0
  147.0598  132.0034  149.8414 H   0  0  0  0  0  0  0  0  0  0  0  0
  147.4643  133.5337  150.5757 H   0  0  0  0  0  0  0  0  0  0  0  0
  145.7479  131.3575  151.9053 H   0  0  0  0  0  0  0  0  0  0  0  0
  147.3897  131.7965  152.3309 H   0  0  0  0  0  0  0  0  0  0  0  0
  143.9861  132.9507  152.3337 H   0  0  0  0  0  0  0  0  0  0  0  0
  144.9562  134.8517  154.2410 H   0  0  0  0  0  0  0  0  0  0  0  0
  144.2950  135.7868  152.9304 H   0  0  0  0  0  0  0  0  0  0  0  0
  142.6638  133.7065  154.2766 H   0  0  0  0  0  0  0  0  0  0  0  0
  143.3815  137.1000  153.1405 H   0  0  0  0  0  0  0  0  0  0  0  0
  141.7158  138.9586  153.1615 H   0  0  0  0  0  0  0  0  0  0  0  0
  138.7903  136.1124  154.5886 H   0  0  0  0  0  0  0  0  0  0  0  0
  145.6048  135.2076  151.0331 H   0  0  0  0  0  0  0  0  0  0  0  0
  143.9665  134.7948  150.6134 H   0  0  0  0  0  0  0  0  0  0  0  0
  145.7420  133.9272  149.1842 H   0  0  0  0  0  0  0  0  0  0  0  0
  1  2  1  0  0  0  0
  1 19  1  0  0  0  0
  1 20  1  0  0  0  0
  1 21  1  0  0  0  0
  2  3  1  0  0  0  0
  2 22  1  0  0  0  0
  2 23  1  0  0  0  0
  3 18  1  0  0  0  0
  3  4  1  0  0  0  0
  3 37  1  0  0  0  0
  4  5  1  0  0  0  0
  4 24  1  0  0  0  0
  4 25  1  0  0  0  0
  5  6  1  0  0  0  0
  5 26  1  0  0  0  0
  5 27  1  0  0  0  0
  6  7  1  0  0  0  0
  7  8  1  0  0  0  0
  7 18  1  0  0  0  0
  7 28  1  0  0  0  0
  8  9  1  0  0  0  0
  8 29  1  0  0  0  0
  8 30  1  0  0  0  0
  9 10  1  0  0  0  0
  9 31  1  0  0  0  0
 10 17  1  0  0  0  0
 10 11  2  0  0  0  0
 11 12  1  0  0  0  0
 11 32  1  0  0  0  0
 12 13  2  0  0  0  0
 12 33  1  0  0  0  0
 13 14  1  0  0  0  0
 13 16  1  0  0  0  0
 14 15  3  0  0  0  0
 16 17  2  0  0  0  0
 16 34  1  0  0  0  0
 18 35  1  0  0  0  0
 18 36  1  0  0  0  0
M  CHG  1   3   1
M  END
> <s_m_source_file>
AV-unprocessed.smi

> <i_m_source_file_index>
3252

> <i_lp_mmshare_version>
43012

> <i_f3d_flags>
0

> <s_epik_input>
W0NIM11bQ0gyXU4xW0NIMl1bQ0gyXU9bQ0BIXShbQ0gyXTEpW0NIMl1bTkhdYzJbY0hdW2NIXWMoQyNOKVtjSF1uMg==

> <s_epik_cmdline>
J2VwaWtfcHl0aG9uJywgJy1waCcsICc3LjAnLCAnLXRuJywgJzgnLCAnLW1hJywgJzIwMCcsICctbWV0YWxfYmluZGluZycsICctaW1hZScsICc8aW5maWxlLm1hZT4nLCAnLW9tYWUnLCAnPG91dGZpbGUubWFlPic=

> <r_epik_Ionization_Penalty>
0.178512

> <r_epik_Ionization_Penalty_Charging>
0.178504

> <r_epik_Ionization_Penalty_Neutral>
8.15545e-06

> <r_epik_State_Penalty>
0.167974

> <r_epik_Charging_Adjusted_Penalty>
0.346478

> <i_epik_Tot_Q>
1

> <i_epik_Tot_abs_Q>
1

> <r_epik_Metal_State_Penalty>
0.167974

> <b_epik_Metal_Only>
0

> <s_lp_Force_Field>
OPLS_2005

> <r_lp_Energy>
19.5584

> <b_lp_Chiralities_Consistent>
1

> <s_lp_Variant>
AV-unprocessed.smi:3252-2

> <Gold.Version>
5.8.1

> <Gold.Id.Protein>
6NUR|6NUR_protein|mol2

> <Gold.PLP.Fitness>
43.3700

> <Gold.PLP.PLP>
-36.1675

> <Gold.PLP.part.hbond>
-3.5751

> <Gold.PLP.part.metal>
0.0000

> <Gold.PLP.part.buried>
-4.0437

> <Gold.PLP.part.nonpolar>
-29.2556

> <Gold.PLP.part.repulsive>
0.4725

> <Gold.PLP.ligand.clash>
0.0000

> <Gold.PLP.ligand.torsion>
0.8711

> <Gold.PLP.Chemscore.Hbond>
2.9750

> <Gold.PLP.Chemscore.CHOScore>
0.0000

> <Gold.PLP.Chemscore.Metal>
0.0000

> <Gold.Chemscore.Hbonds>
donor molecule, donor type, donor heavy atom, donor atom, acceptor molecule, acceptor atom, score
      L1  H     3    37       P1  7921  1.00
      L1  H     9    31       P1 10957  1.00
      P1  H 11000 11005       L1    17  1.00

> <Gold.PLP.Chemscore.Internal.Correction>
0.0198

> <Gold.Rescore>
     Score         DG    S(hbond)    S(metal)    S(lipo)     H(rot)  DE(clash)    DE(int)     intcor
     17.87     -21.00       2.72        0.00      87.18       1.47       2.39       0.73       ----

> <Gold.Chemscore.Fitness>
17.8717

> <Gold.Chemscore.DG>
-20.9981

> <Gold.Chemscore.ZeroCoef>
-5.4800

> <Gold.Chemscore.Hbond>
2.7174

> <Gold.Chemscore.Metal>
0.0000

> <Gold.Chemscore.Lipo>
87.1833

> <Gold.Chemscore.Internal_Hbond>
0.0000

> <Gold.Chemscore.DEClash>
2.3942

> <Gold.Chemscore.DEInternal>
0.7322

> <Gold.Chemscore.Rot>
1.4681

> <Gold.Chemscore.Internal.Correction>
   9.000000E+99

> <Gold.Chemscore.Hbonds>
donor molecule, donor type, donor heavy atom, donor atom, acceptor molecule, acceptor atom, score
      L1  H     3    37       P1  7921  0.40
      L1  H     9    31       P1 10957  0.96
      P1  H 11000 11005       L1    17  0.57

> <Gold.Chemscore.Hbond.Weighted>
-9.0761

> <Gold.Chemscore.Metal.Weighted>
-0.0000

> <Gold.Chemscore.Lipo.Weighted>
-10.2004

> <Gold.Chemscore.Internal_Hbond.Weighted>
0.0000

> <Gold.Chemscore.DEClash.Weighted>
2.3942

> <Gold.Chemscore.DEInternal.Weighted>
0.7322

> <Gold.Chemscore.Rot.Weighted>
3.7584

> <Gold.Chemscore.Internal.Correction.Weighted>
   9.000000E+99

> <Gold.Protein.RotatedTorsions>
[ 6907 6896 6895 6894 ] final -114.52 input  -60.11 | X-H torsion
[ 7974 7965 7964 7962 ] final  -92.05 input  175.53 | X-H torsion
[ 8008 7997 7996 7995 ] final  -31.92 input   59.86 | X-H torsion
[ 10167 10162 10161 10158 ] final   95.55 input  -65.29 | X-H torsion
[ 10718 10713 10712 10709 ] final  159.15 input   66.30 | X-H torsion
[ 10763 10752 10751 10750 ] final   43.11 input  -60.55 | X-H torsion
[ 11005 11000 10999 10996 ] final   28.40 input  -57.11 | X-H torsion

> <Gold.Protein.ActiveResidues>
 VAL166  LYS551  ARG553  GLY616  TRP617  ASP618  TYR619  PRO620  LYS621  CYS622 
 ASP623  PHE694  ASN695  SER759  ASP760  ASP761  ALA762  ILE779  LEU786  VAL792 
 PHE793  MET794  SER795  GLU796  ALA797  LYS798  CYS799  TRP800  GLU811  SER814 

> <Gold.Protein.RotatedAtoms>
  150.7908  133.8789  159.3279 H   0  0  0  0  0  0  0  0  0  0  0  0  # atno 6907 bound_to 6896
  151.6628  135.0985  160.0192 H   0  0  0  0  0  0  0  0  0  0  0  0  # atno 6908 bound_to 6896
  152.3982  133.6739  159.6329 H   0  0  0  0  0  0  0  0  0  0  0  0  # atno 6909 bound_to 6896
  145.4049  140.9540  143.2266 H   0  0  0  0  0  0  0  0  0  0  0  0  # atno 7974 bound_to 7965
  154.4197  140.1751  156.1644 H   0  0  0  0  0  0  0  0  0  0  0  0  # atno 8008 bound_to 7997
  155.9812  140.3377  155.6640 H   0  0  0  0  0  0  0  0  0  0  0  0  # atno 8009 bound_to 7997
  155.6497  140.0689  157.2581 H   0  0  0  0  0  0  0  0  0  0  0  0  # atno 8010 bound_to 7997
  139.7977  144.6826  150.9806 H   0  0  0  0  0  0  0  0  0  0  0  0  # atno 10167 bound_to 10162
  157.1681  131.0603  151.2197 H   0  0  0  0  0  0  0  0  0  0  0  0  # atno 10718 bound_to 10713
  152.9868  135.6111  154.3058 H   0  0  0  0  0  0  0  0  0  0  0  0  # atno 10763 bound_to 10752
  154.2776  135.2778  155.2713 H   0  0  0  0  0  0  0  0  0  0  0  0  # atno 10764 bound_to 10752
  154.5067  135.5852  153.6629 H   0  0  0  0  0  0  0  0  0  0  0  0  # atno 10765 bound_to 10752
  140.3160  134.2596  155.7725 H   0  0  0  0  0  0  0  0  0  0  0  0  # atno 11005 bound_to 11000
  144.8348  139.5568  143.6927 LP  0  0  0  0  0  0  0  0  0  0  0  0  # atno 17320 bound_to 7965
  146.2733  139.6690  142.9280 LP  0  0  0  0  0  0  0  0  0  0  0  0  # atno 17321 bound_to 7965
  140.7820  143.4314  151.0689 LP  0  0  0  0  0  0  0  0  0  0  0  0  # atno 17342 bound_to 10162
  139.7987  143.8114  152.3160 LP  0  0  0  0  0  0  0  0  0  0  0  0  # atno 17343 bound_to 10162
  157.4069  130.7364  149.6809 LP  0  0  0  0  0  0  0  0  0  0  0  0  # atno 17370 bound_to 10713
  155.9743  130.4106  150.3936 LP  0  0  0  0  0  0  0  0  0  0  0  0  # atno 17371 bound_to 10713
  141.2097  133.7740  156.9977 LP  0  0  0  0  0  0  0  0  0  0  0  0  # atno 17394 bound_to 11000
  140.0983  134.9551  157.1883 LP  0  0  0  0  0  0  0  0  0  0  0  0  # atno 17395 bound_to 11000

$$$$
