AV-unprocessed.smi:89|AV-procd|sdf|827|dock7
  -GOLD-   2262017243D 1   1.00000     0.00000
 Structure written by MMmdl.
 54 56  0  0  0  0  0  0  0  0  1 V2000
  150.3510  136.3646  154.8454 C   0  0  0  0  0  0  0  0  0  0  0  0
  150.5329  135.2230  155.8594 C   0  0  0  0  0  0  0  0  0  0  0  0
  149.3279  134.9374  156.6409 N   0  0  0  0  0  0  0  0  0  0  0  0
  148.2683  134.4790  155.9295 C   0  0  0  0  0  0  0  0  0  0  0  0
  147.0373  134.9054  156.3077 N   0  0  0  0  0  0  0  0  0  0  0  0
  145.9505  134.4833  155.6563 C   0  0  0  0  0  0  0  0  0  0  0  0
  145.8714  133.6421  154.6235 N   0  0  0  0  0  0  0  0  0  0  0  0
  147.1055  133.1978  154.2497 C   0  0  0  0  0  0  0  0  0  0  0  0
  148.3478  133.5637  154.8410 C   0  0  0  0  0  0  0  0  0  0  0  0
  149.3895  132.9168  154.1871 N   0  0  0  0  0  0  0  0  0  0  0  0
  148.7979  132.2104  153.2637 C   0  0  0  0  0  0  0  0  0  0  0  0
  147.4246  132.3055  153.2407 N   0  0  0  0  0  0  0  0  0  0  0  0
  146.5195  131.6178  152.3322 C   0  0  0  0  0  0  0  0  0  0  0  0
  146.0306  132.4735  151.1329 C   0  0  1  0  0  0  0  0  0  0  0  0
  147.1766  132.9077  150.4268 O   0  0  0  0  0  0  0  0  0  0  0  0
  145.0885  131.7437  150.1776 C   0  0  0  0  0  0  0  0  0  0  0  0
  143.6817  132.1611  150.6226 C   0  0  0  0  0  0  0  0  0  0  0  0
  143.8551  133.1655  151.6156 O   0  0  0  0  0  0  0  0  0  0  0  0
  145.1745  133.6808  151.5263 C   0  0  0  0  0  0  0  0  0  0  0  0
  149.0329  135.8403  157.7655 C   0  0  1  0  0  0  0  0  0  0  0  0
  148.4646  137.1962  157.3051 C   0  0  0  0  0  0  0  0  0  0  0  0
  148.1330  135.2175  158.8601 C   0  0  0  0  0  0  0  0  0  0  0  0
  147.6038  136.4304  160.1590 S   0  0  0  0  0  0  0  0  0  0  0  0
  148.8124  136.9446  160.8207 O   0  0  0  0  0  0  0  0  0  0  0  0
  146.6259  137.3676  159.5849 O   0  0  0  0  0  0  0  0  0  0  0  0
  146.7218  135.3513  161.3715 C   0  0  0  0  0  0  0  0  0  0  0  0
  147.4136  135.3244  162.7391 C   0  0  0  0  0  0  0  0  0  0  0  0
  151.2457  136.4799  154.2340 H   0  0  0  0  0  0  0  0  0  0  0  0
  150.1674  137.3208  155.3361 H   0  0  0  0  0  0  0  0  0  0  0  0
  149.5150  136.1630  154.1749 H   0  0  0  0  0  0  0  0  0  0  0  0
  150.8120  134.3193  155.3170 H   0  0  0  0  0  0  0  0  0  0  0  0
  151.3679  135.4475  156.5224 H   0  0  0  0  0  0  0  0  0  0  0  0
  145.0101  134.8743  156.0160 H   0  0  0  0  0  0  0  0  0  0  0  0
  149.3509  131.5874  152.5760 H   0  0  0  0  0  0  0  0  0  0  0  0
  147.0203  130.7183  151.9714 H   0  0  0  0  0  0  0  0  0  0  0  0
  145.6631  131.2731  152.9136 H   0  0  0  0  0  0  0  0  0  0  0  0
  147.7138  132.1542  150.2355 H   0  0  0  0  0  0  0  0  0  0  0  0
  145.2421  132.0844  149.1522 H   0  0  0  0  0  0  0  0  0  0  0  0
  145.2312  130.6631  150.1779 H   0  0  0  0  0  0  0  0  0  0  0  0
  143.1092  132.5594  149.7843 H   0  0  0  0  0  0  0  0  0  0  0  0
  143.1243  131.3243  151.0442 H   0  0  0  0  0  0  0  0  0  0  0  0
  145.4955  134.1570  152.4525 H   0  0  0  0  0  0  0  0  0  0  0  0
  145.1874  134.4393  150.7413 H   0  0  0  0  0  0  0  0  0  0  0  0
  149.9940  136.0551  158.2321 H   0  0  0  0  0  0  0  0  0  0  0  0
  148.3726  137.8835  158.1464 H   0  0  0  0  0  0  0  0  0  0  0  0
  147.4731  137.0874  156.8657 H   0  0  0  0  0  0  0  0  0  0  0  0
  149.1091  137.6757  156.5685 H   0  0  0  0  0  0  0  0  0  0  0  0
  147.2254  134.8074  158.4183 H   0  0  0  0  0  0  0  0  0  0  0  0
  148.6241  134.3788  159.3528 H   0  0  0  0  0  0  0  0  0  0  0  0
  145.6936  135.7016  161.4617 H   0  0  0  0  0  0  0  0  0  0  0  0
  146.6866  134.3462  160.9510 H   0  0  0  0  0  0  0  0  0  0  0  0
  146.9121  134.6263  163.4094 H   0  0  0  0  0  0  0  0  0  0  0  0
  147.3939  136.3039  163.2155 H   0  0  0  0  0  0  0  0  0  0  0  0
  148.4537  135.0098  162.6507 H   0  0  0  0  0  0  0  0  0  0  0  0
  1  2  1  0  0  0  0
  1 28  1  0  0  0  0
  1 29  1  0  0  0  0
  1 30  1  0  0  0  0
  2  3  1  0  0  0  0
  2 31  1  0  0  0  0
  2 32  1  0  0  0  0
  3  4  1  0  0  0  0
  3 20  1  0  0  0  0
  4  9  1  0  0  0  0
  4  5  2  0  0  0  0
  5  6  1  0  0  0  0
  6  7  2  0  0  0  0
  6 33  1  0  0  0  0
  7  8  1  0  0  0  0
  8 12  1  0  0  0  0
  8  9  2  0  0  0  0
  9 10  1  0  0  0  0
 10 11  2  0  0  0  0
 11 12  1  0  0  0  0
 11 34  1  0  0  0  0
 12 13  1  0  0  0  0
 13 14  1  0  0  0  0
 13 35  1  0  0  0  0
 13 36  1  0  0  0  0
 14 19  1  0  0  0  0
 14 15  1  0  0  0  0
 14 16  1  0  0  0  0
 15 37  1  0  0  0  0
 16 17  1  0  0  0  0
 16 38  1  0  0  0  0
 16 39  1  0  0  0  0
 17 18  1  0  0  0  0
 17 40  1  0  0  0  0
 17 41  1  0  0  0  0
 18 19  1  0  0  0  0
 19 42  1  0  0  0  0
 19 43  1  0  0  0  0
 20 21  1  0  0  0  0
 20 22  1  0  0  0  0
 20 44  1  0  0  0  0
 21 45  1  0  0  0  0
 21 46  1  0  0  0  0
 21 47  1  0  0  0  0
 22 23  1  0  0  0  0
 22 48  1  0  0  0  0
 22 49  1  0  0  0  0
 23 24  2  0  0  0  0
 23 25  2  0  0  0  0
 23 26  1  0  0  0  0
 26 27  1  0  0  0  0
 26 50  1  0  0  0  0
 26 51  1  0  0  0  0
 27 52  1  0  0  0  0
 27 53  1  0  0  0  0
 27 54  1  0  0  0  0
M  END
> <s_m_source_file>
AV-unprocessed.smi

> <i_m_source_file_index>
89

> <i_lp_mmshare_version>
43012

> <i_f3d_flags>
0

> <s_epik_input>
W0NIM11bQ0gyXVMoPU8pKD1PKVtDSDJdW0NAQEhdKFtDSDNdKU4oW0NIMl1bQ0gzXSljKG5bY0hdbjEpYyhjMTIpbltjSF1uMltDSDJdW0NAQF0zKFtPSF0pW0NIMl1bQ0gyXU9bQ0gyXTM=

> <s_epik_cmdline>
J2VwaWtfcHl0aG9uJywgJy1waCcsICc3LjAnLCAnLXRuJywgJzgnLCAnLW1hJywgJzIwMCcsICctbWV0YWxfYmluZGluZycsICctaW1hZScsICc8aW5maWxlLm1hZT4nLCAnLW9tYWUnLCAnPG91dGZpbGUubWFlPic=

> <r_lp_tautomer_probability>
1

> <r_epik_Ionization_Penalty>
0.00103773

> <r_epik_Ionization_Penalty_Charging>
0

> <r_epik_Ionization_Penalty_Neutral>
0.00103773

> <r_epik_State_Penalty>
0.000558914

> <r_epik_Charging_Adjusted_Penalty>
0.000558914

> <i_epik_Tot_Q>
0

> <i_epik_Tot_abs_Q>
0

> <r_epik_Metal_State_Penalty>
-0

> <b_epik_Metal_Only>
0

> <s_lp_Force_Field>
OPLS_2005

> <r_lp_Energy>
30.4714

> <b_lp_Chiralities_Consistent>
1

> <s_lp_Variant>
AV-unprocessed.smi:89-3

> <Gold.Version>
5.8.1

> <Gold.Id.Protein>
6NUR|6NUR_protein|mol2

> <Gold.PLP.Fitness>
47.7869

> <Gold.PLP.PLP>
-36.8716

> <Gold.PLP.part.hbond>
-3.0000

> <Gold.PLP.part.metal>
0.0000

> <Gold.PLP.part.buried>
-7.4762

> <Gold.PLP.part.nonpolar>
-28.0538

> <Gold.PLP.part.repulsive>
0.3094

> <Gold.PLP.ligand.clash>
0.0000

> <Gold.PLP.ligand.torsion>
1.0748

> <Gold.PLP.Chemscore.Hbond>
2.9440

> <Gold.PLP.Chemscore.CHOScore>
1.0000

> <Gold.PLP.Chemscore.Metal>
0.0000

> <Gold.Chemscore.Hbonds>
donor molecule, donor type, donor heavy atom, donor atom, acceptor molecule, acceptor atom, score
      L1  H    15    37       P1 10747  1.00
      P1  H  6931  6943       L1    24  0.90
      P1  H  6934  6947       L1    25  0.45
      L1  C    11    34       P1 10747  1.00

> <Gold.PLP.Chemscore.Internal.Correction>
1.2329

> <Gold.Rescore>
     Score         DG    S(hbond)    S(metal)    S(lipo)     H(rot)  DE(clash)    DE(int)     intcor
      9.08     -14.62       2.65        0.00      78.12       3.45       0.38       5.15       ----

> <Gold.Chemscore.Fitness>
9.0841

> <Gold.Chemscore.DG>
-14.6186

> <Gold.Chemscore.ZeroCoef>
-5.4800

> <Gold.Chemscore.Hbond>
2.6459

> <Gold.Chemscore.Metal>
0.0000

> <Gold.Chemscore.Lipo>
78.1169

> <Gold.Chemscore.Internal_Hbond>
0.0000

> <Gold.Chemscore.DEClash>
0.3847

> <Gold.Chemscore.DEInternal>
5.1498

> <Gold.Chemscore.Rot>
3.4524

> <Gold.Chemscore.Internal.Correction>
   9.000000E+99

> <Gold.Chemscore.Hbonds>
donor molecule, donor type, donor heavy atom, donor atom, acceptor molecule, acceptor atom, score
      L1  H    15    37       P1 10747  1.00
      P1  H  6931  6943       L1    24  0.88
      P1  H  6934  6947       L1    25  0.05

> <Gold.Chemscore.Hbond.Weighted>
-8.8372

> <Gold.Chemscore.Metal.Weighted>
-0.0000

> <Gold.Chemscore.Lipo.Weighted>
-9.1397

> <Gold.Chemscore.Internal_Hbond.Weighted>
0.0000

> <Gold.Chemscore.DEClash.Weighted>
0.3847

> <Gold.Chemscore.DEInternal.Weighted>
5.1498

> <Gold.Chemscore.Rot.Weighted>
8.8382

> <Gold.Chemscore.Internal.Correction.Weighted>
   9.000000E+99

> <Gold.Protein.RotatedTorsions>
[ 6907 6896 6895 6894 ] final -172.53 input  -60.11 | X-H torsion
[ 7974 7965 7964 7962 ] final  -69.70 input  175.53 | X-H torsion
[ 8008 7997 7996 7995 ] final   -5.31 input   59.86 | X-H torsion
[ 10167 10162 10161 10158 ] final  -86.98 input  -65.29 | X-H torsion
[ 10718 10713 10712 10709 ] final   95.48 input   66.30 | X-H torsion
[ 10763 10752 10751 10750 ] final  148.40 input  -60.55 | X-H torsion
[ 11005 11000 10999 10996 ] final -165.26 input  -57.11 | X-H torsion

> <Gold.Protein.ActiveResidues>
 VAL166  LYS551  ARG553  GLY616  TRP617  ASP618  TYR619  PRO620  LYS621  CYS622 
 ASP623  PHE694  ASN695  SER759  ASP760  ASP761  ALA762  ILE779  LEU786  VAL792 
 PHE793  MET794  SER795  GLU796  ALA797  LYS798  CYS799  TRP800  GLU811  SER814 

> <Gold.Protein.RotatedAtoms>
  151.5415  133.3432  159.2936 H   0  0  0  0  0  0  0  0  0  0  0  0  # atno 6907 bound_to 6896
  150.8533  134.7866  159.7037 H   0  0  0  0  0  0  0  0  0  0  0  0  # atno 6908 bound_to 6896
  152.4573  134.5271  159.9851 H   0  0  0  0  0  0  0  0  0  0  0  0  # atno 6909 bound_to 6896
  145.7004  140.9119  143.0734 H   0  0  0  0  0  0  0  0  0  0  0  0  # atno 7974 bound_to 7965
  154.6053  140.2462  155.7739 H   0  0  0  0  0  0  0  0  0  0  0  0  # atno 8008 bound_to 7997
  156.2336  140.2958  156.0206 H   0  0  0  0  0  0  0  0  0  0  0  0  # atno 8009 bound_to 7997
  155.2143  140.0398  157.2929 H   0  0  0  0  0  0  0  0  0  0  0  0  # atno 8010 bound_to 7997
  140.3889  143.2714  151.9289 H   0  0  0  0  0  0  0  0  0  0  0  0  # atno 10167 bound_to 10162
  157.6938  131.0547  150.4345 H   0  0  0  0  0  0  0  0  0  0  0  0  # atno 10718 bound_to 10713
  154.0542  135.2879  155.3335 H   0  0  0  0  0  0  0  0  0  0  0  0  # atno 10763 bound_to 10752
  154.6850  135.5249  153.8317 H   0  0  0  0  0  0  0  0  0  0  0  0  # atno 10764 bound_to 10752
  153.0548  135.6591  154.0736 H   0  0  0  0  0  0  0  0  0  0  0  0  # atno 10765 bound_to 10752
  140.5777  134.5173  157.5173 H   0  0  0  0  0  0  0  0  0  0  0  0  # atno 11005 bound_to 11000
  144.6970  139.8939  143.7455 LP  0  0  0  0  0  0  0  0  0  0  0  0  # atno 17320 bound_to 7965
  146.0803  139.3791  143.0468 LP  0  0  0  0  0  0  0  0  0  0  0  0  # atno 17321 bound_to 7965
  139.4790  144.5746  151.8032 LP  0  0  0  0  0  0  0  0  0  0  0  0  # atno 17342 bound_to 10162
  140.4860  144.1380  150.5941 LP  0  0  0  0  0  0  0  0  0  0  0  0  # atno 17343 bound_to 10162
  156.4709  130.4052  149.6518 LP  0  0  0  0  0  0  0  0  0  0  0  0  # atno 17370 bound_to 10713
  156.3599  130.7476  151.2447 LP  0  0  0  0  0  0  0  0  0  0  0  0  # atno 17371 bound_to 10713
  139.9332  134.7925  156.0874 LP  0  0  0  0  0  0  0  0  0  0  0  0  # atno 17394 bound_to 11000
  141.1016  133.6675  156.2767 LP  0  0  0  0  0  0  0  0  0  0  0  0  # atno 17395 bound_to 11000

$$$$
