AV-unprocessed.smi:2722|AV-procd|sdf|10504|dock3
  -GOLD-   2272014543D 1   1.00000     0.00000
 Structure written by MMmdl.
 27 27  0  0  0  0  0  0  0  0  2 V2000
  150.0762  138.5859  154.8740 C   0  0  0  0  0  0  0  0  0  0  0  0
  151.1962  139.1951  155.7469 C   0  0  1  0  0  0  0  0  0  0  0  0
  151.3931  140.5123  155.2665 O   0  0  0  0  0  0  0  0  0  0  0  0
  150.7809  139.3233  157.2463 C   0  0  0  0  0  0  0  0  0  0  0  0
  151.6249  140.2081  158.0755 N   0  0  0  0  0  0  0  0  0  0  0  0
  151.3201  141.5849  158.0676 C   0  0  0  0  0  0  0  0  0  0  0  0
  152.0079  142.4955  158.7808 C   0  0  0  0  0  0  0  0  0  0  0  0
  151.6553  143.9727  158.7163 C   0  0  0  0  0  0  0  0  0  0  0  0
  151.8407  144.4339  157.4797 F   0  0  0  0  0  0  0  0  0  0  0  0
  150.3846  144.1894  159.0575 F   0  0  0  0  0  0  0  0  0  0  0  0
  152.4358  144.6741  159.5383 F   0  0  0  0  0  0  0  0  0  0  0  0
  153.1083  141.9930  159.5795 C   0  0  0  0  0  0  0  0  0  0  0  0
  153.4003  140.6784  159.6167 C   0  0  0  0  0  0  0  0  0  0  0  0
  152.6253  139.6968  158.8537 C   0  0  0  0  0  0  0  0  0  0  0  0
  152.8613  138.4903  158.9188 O   0  0  0  0  0  0  0  0  0  0  0  0
  152.5184  138.4105  155.5763 C   0  0  0  0  0  0  0  0  0  0  0  0
  153.4969  139.0441  155.1201 O   0  0  0  0  0  0  0  0  0  0  0  0
  152.5506  137.2092  155.9254 O   0  5  0  0  0  0  0  0  0  0  0  0
  149.8553  137.5550  155.1499 H   0  0  0  0  0  0  0  0  0  0  0  0
  150.3491  138.5864  153.8177 H   0  0  0  0  0  0  0  0  0  0  0  0
  149.1499  139.1529  154.9697 H   0  0  0  0  0  0  0  0  0  0  0  0
  151.5410  141.0738  156.0123 H   0  0  0  0  0  0  0  0  0  0  0  0
  149.7548  139.6925  157.2981 H   0  0  0  0  0  0  0  0  0  0  0  0
  150.7189  138.3306  157.6960 H   0  0  0  0  0  0  0  0  0  0  0  0
  150.4917  141.8601  157.4308 H   0  0  0  0  0  0  0  0  0  0  0  0
  153.7099  142.6776  160.1583 H   0  0  0  0  0  0  0  0  0  0  0  0
  154.2269  140.3375  160.2226 H   0  0  0  0  0  0  0  0  0  0  0  0
  1  2  1  0  0  0  0
  1 19  1  0  0  0  0
  1 20  1  0  0  0  0
  1 21  1  0  0  0  0
  2  3  1  0  0  0  0
  2  4  1  0  0  0  0
  2 16  1  0  0  0  0
  3 22  1  0  0  0  0
  4  5  1  0  0  0  0
  4 23  1  0  0  0  0
  4 24  1  0  0  0  0
  5 14  1  0  0  0  0
  5  6  1  0  0  0  0
  6  7  2  0  0  0  0
  6 25  1  0  0  0  0
  7  8  1  0  0  0  0
  7 12  1  0  0  0  0
  8  9  1  0  0  0  0
  8 10  1  0  0  0  0
  8 11  1  0  0  0  0
 12 13  2  0  0  0  0
 12 26  1  0  0  0  0
 13 14  1  0  0  0  0
 13 27  1  0  0  0  0
 14 15  2  0  0  0  0
 16 17  2  0  0  0  0
 16 18  1  0  0  0  0
M  CHG  1  18  -1
M  END
> <s_m_source_file>
AV-unprocessed.smi

> <i_m_source_file_index>
2722

> <i_lp_mmshare_version>
43012

> <i_f3d_flags>
0

> <s_epik_input>
Tz1DKFtPSF0pW0NAXShbQ0gzXSkoW09IXSlbQ0gyXW4xW2NIXWMoQyhGKShGKUYpW2NIXVtjSF1jMT1P

> <s_epik_cmdline>
J2VwaWtfcHl0aG9uJywgJy1waCcsICc3LjAnLCAnLXRuJywgJzgnLCAnLW1hJywgJzIwMCcsICctbWV0YWxfYmluZGluZycsICctaW1hZScsICc8aW5maWxlLm1hZT4nLCAnLW9tYWUnLCAnPG91dGZpbGUubWFlPic=

> <r_lp_tautomer_probability>
1

> <r_epik_Ionization_Penalty>
0.000391429

> <r_epik_Ionization_Penalty_Charging>
0.000383902

> <r_epik_Ionization_Penalty_Neutral>
7.52792e-06

> <r_epik_State_Penalty>
0.000234534

> <r_epik_Charging_Adjusted_Penalty>
0.000618436

> <i_epik_Tot_Q>
-1

> <i_epik_Tot_abs_Q>
1

> <r_epik_Metal_State_Penalty>
-0

> <b_epik_Metal_Only>
0

> <s_lp_Force_Field>
OPLS_2005

> <r_lp_Energy>
15.2908

> <b_lp_Chiralities_Consistent>
1

> <s_lp_Variant>
AV-unprocessed.smi:2722-1

> <Gold.Version>
5.8.1

> <Gold.Id.Protein>
6NUR|6NUR_protein|mol2

> <Gold.PLP.Fitness>
51.9730

> <Gold.PLP.PLP>
-39.5661

> <Gold.PLP.part.hbond>
-3.0000

> <Gold.PLP.part.metal>
0.0000

> <Gold.PLP.part.buried>
-6.0251

> <Gold.PLP.part.nonpolar>
-30.2927

> <Gold.PLP.part.repulsive>
0.0067

> <Gold.PLP.ligand.clash>
0.0000

> <Gold.PLP.ligand.torsion>
0.5226

> <Gold.PLP.Chemscore.Hbond>
4.4320

> <Gold.PLP.Chemscore.CHOScore>
0.0000

> <Gold.PLP.Chemscore.Metal>
0.0000

> <Gold.Chemscore.Hbonds>
donor molecule, donor type, donor heavy atom, donor atom, acceptor molecule, acceptor atom, score
      P1  H  7989  7998       L1     3  0.88
      P1  H  7997  8008       L1    17  1.98
      P1  H 10752 10765       L1    18  1.50

> <Gold.PLP.Chemscore.Internal.Correction>
0.1561

> <Gold.Rescore>
     Score         DG    S(hbond)    S(metal)    S(lipo)     H(rot)  DE(clash)    DE(int)     intcor
     14.50     -15.11       2.75        0.00      61.47       2.63       0.00       0.61       ----

> <Gold.Chemscore.Fitness>
14.5025

> <Gold.Chemscore.DG>
-15.1129

> <Gold.Chemscore.ZeroCoef>
-5.4800

> <Gold.Chemscore.Hbond>
2.7505

> <Gold.Chemscore.Metal>
0.0000

> <Gold.Chemscore.Lipo>
61.4656

> <Gold.Chemscore.Internal_Hbond>
0.0000

> <Gold.Chemscore.DEClash>
0.0021

> <Gold.Chemscore.DEInternal>
0.6082

> <Gold.Chemscore.Rot>
2.6348

> <Gold.Chemscore.Internal.Correction>
   9.000000E+99

> <Gold.Chemscore.Hbonds>
donor molecule, donor type, donor heavy atom, donor atom, acceptor molecule, acceptor atom, score
      P1  H  7989  7998       L1     3  0.86
      P1  H  7997  8008       L1    17  0.94
      P1  H 10752 10765       L1    18  0.72

> <Gold.Chemscore.Hbond.Weighted>
-9.1865

> <Gold.Chemscore.Metal.Weighted>
-0.0000

> <Gold.Chemscore.Lipo.Weighted>
-7.1915

> <Gold.Chemscore.Internal_Hbond.Weighted>
0.0000

> <Gold.Chemscore.DEClash.Weighted>
0.0021

> <Gold.Chemscore.DEInternal.Weighted>
0.6082

> <Gold.Chemscore.Rot.Weighted>
6.7451

> <Gold.Chemscore.Internal.Correction.Weighted>
   9.000000E+99

> <Gold.Protein.RotatedTorsions>
[ 6907 6896 6895 6894 ] final  -86.95 input  -60.11 | X-H torsion
[ 7974 7965 7964 7962 ] final   55.81 input  175.53 | X-H torsion
[ 8008 7997 7996 7995 ] final  -27.29 input   59.86 | X-H torsion
[ 10167 10162 10161 10158 ] final  -62.14 input  -65.29 | X-H torsion
[ 10718 10713 10712 10709 ] final  -92.86 input   66.30 | X-H torsion
[ 10763 10752 10751 10750 ] final -160.66 input  -60.55 | X-H torsion
[ 11005 11000 10999 10996 ] final  -95.71 input  -57.11 | X-H torsion

> <Gold.Protein.ActiveResidues>
 VAL166  LYS551  ARG553  GLY616  TRP617  ASP618  TYR619  PRO620  LYS621  CYS622 
 ASP623  PHE694  ASN695  SER759  ASP760  ASP761  ALA762  ILE779  LEU786  VAL792 
 PHE793  MET794  SER795  GLU796  ALA797  LYS798  CYS799  TRP800  GLU811  SER814 

> <Gold.Protein.RotatedAtoms>
  150.6866  134.2971  159.4690 H   0  0  0  0  0  0  0  0  0  0  0  0  # atno 6907 bound_to 6896
  152.0870  134.9430  160.0582 H   0  0  0  0  0  0  0  0  0  0  0  0  # atno 6908 bound_to 6896
  152.0760  133.4095  159.4517 H   0  0  0  0  0  0  0  0  0  0  0  0  # atno 6909 bound_to 6896
  145.9464  139.3934  143.0332 H   0  0  0  0  0  0  0  0  0  0  0  0  # atno 7974 bound_to 7965
  154.4384  140.1876  156.0909 H   0  0  0  0  0  0  0  0  0  0  0  0  # atno 8008 bound_to 7997
  156.0367  140.3324  155.7172 H   0  0  0  0  0  0  0  0  0  0  0  0  # atno 8009 bound_to 7997
  155.5760  140.0617  157.2785 H   0  0  0  0  0  0  0  0  0  0  0  0  # atno 8010 bound_to 7997
  140.5959  143.2351  151.6037 H   0  0  0  0  0  0  0  0  0  0  0  0  # atno 10167 bound_to 10162
  156.0007  130.5004  150.5689 H   0  0  0  0  0  0  0  0  0  0  0  0  # atno 10718 bound_to 10713
  154.7371  135.3060  154.8793 H   0  0  0  0  0  0  0  0  0  0  0  0  # atno 10763 bound_to 10752
  153.9618  135.6752  153.4749 H   0  0  0  0  0  0  0  0  0  0  0  0  # atno 10764 bound_to 10752
  153.0973  135.4929  154.8725 H   0  0  0  0  0  0  0  0  0  0  0  0  # atno 10765 bound_to 10752
  141.1433  133.8046  157.0473 H   0  0  0  0  0  0  0  0  0  0  0  0  # atno 11005 bound_to 11000
  145.8230  140.9669  143.0889 LP  0  0  0  0  0  0  0  0  0  0  0  0  # atno 17320 bound_to 7965
  144.6788  140.0065  143.7484 LP  0  0  0  0  0  0  0  0  0  0  0  0  # atno 17321 bound_to 7965
  139.5258  144.3065  152.1029 LP  0  0  0  0  0  0  0  0  0  0  0  0  # atno 17342 bound_to 10162
  140.2237  144.4440  150.6330 LP  0  0  0  0  0  0  0  0  0  0  0  0  # atno 17343 bound_to 10162
  157.3587  131.0746  151.1654 LP  0  0  0  0  0  0  0  0  0  0  0  0  # atno 17370 bound_to 10713
  157.2446  130.6585  149.5904 LP  0  0  0  0  0  0  0  0  0  0  0  0  # atno 17371 bound_to 10713
  140.0654  134.9732  157.1377 LP  0  0  0  0  0  0  0  0  0  0  0  0  # atno 17394 bound_to 11000
  140.3787  134.2311  155.7172 LP  0  0  0  0  0  0  0  0  0  0  0  0  # atno 17395 bound_to 11000

$$$$
