AV-unprocessed.smi:2184|AV-procd|sdf|8874|dock3
  -GOLD-   2272012 73D 1   1.00000     0.00000
 Structure written by MMmdl.
 47 48  0  0  0  0  0  0  0  0  1 V2000
  143.2006  146.0262  155.1127 C   0  0  0  0  0  0  0  0  0  0  0  0
  144.3155  144.6663  155.5550 S   0  0  0  0  0  0  0  0  0  0  0  0
  144.7217  144.0000  153.9123 C   0  0  1  0  0  0  0  0  0  0  0  0
  144.9522  145.1489  152.9185 C   0  0  0  0  0  0  0  0  0  0  0  0
  145.9347  143.0625  153.9541 C   0  0  0  0  0  0  0  0  0  0  0  0
  146.9953  143.3949  153.4237 O   0  0  0  0  0  0  0  0  0  0  0  0
  145.7699  141.8961  154.5980 N   0  0  0  0  0  0  0  0  0  0  0  0
  146.8039  140.8794  154.7590 C   0  0  0  0  0  0  0  0  0  0  0  0
  147.9768  141.3370  155.6111 C   0  0  0  0  0  0  0  0  0  0  0  0
  149.2927  141.2833  155.1127 C   0  0  0  0  0  0  0  0  0  0  0  0
  150.3524  141.7206  155.9304 C   0  0  0  0  0  0  0  0  0  0  0  0
  150.0668  142.2045  157.2324 C   0  0  0  0  0  0  0  0  0  0  0  0
  151.0789  142.6595  158.1054 N   0  0  0  0  0  0  0  0  0  0  0  0
  151.9357  141.6753  158.7571 C   0  0  0  0  0  0  0  0  0  0  0  0
  152.6963  142.3179  159.9302 C   0  0  1  0  0  0  0  0  0  0  0  0
  153.7085  141.3510  160.5535 C   0  0  0  0  0  0  0  0  0  0  0  0
  153.4074  143.4656  159.4694 O   0  0  0  0  0  0  0  0  0  0  0  0
  152.5913  144.4704  158.8639 C   0  0  2  0  0  0  0  0  0  0  0  0
  151.7190  145.2111  159.8931 C   0  0  0  0  0  0  0  0  0  0  0  0
  151.7841  143.8720  157.6950 C   0  0  0  0  0  0  0  0  0  0  0  0
  148.7988  142.2448  157.7083 N   0  0  0  0  0  0  0  0  0  0  0  0
  147.7884  141.8207  156.9216 C   0  0  0  0  0  0  0  0  0  0  0  0
  142.9183  146.5833  156.0058 H   0  0  0  0  0  0  0  0  0  0  0  0
  142.2922  145.6423  154.6500 H   0  0  0  0  0  0  0  0  0  0  0  0
  143.6870  146.7106  154.4176 H   0  0  0  0  0  0  0  0  0  0  0  0
  143.8524  143.4360  153.5706 H   0  0  0  0  0  0  0  0  0  0  0  0
  145.1999  144.7718  151.9254 H   0  0  0  0  0  0  0  0  0  0  0  0
  145.7649  145.8016  153.2401 H   0  0  0  0  0  0  0  0  0  0  0  0
  144.0564  145.7625  152.8205 H   0  0  0  0  0  0  0  0  0  0  0  0
  144.8673  141.7007  155.0062 H   0  0  0  0  0  0  0  0  0  0  0  0
  146.3545  140.0078  155.2351 H   0  0  0  0  0  0  0  0  0  0  0  0
  147.1545  140.5489  153.7796 H   0  0  0  0  0  0  0  0  0  0  0  0
  149.4915  140.9192  154.1154 H   0  0  0  0  0  0  0  0  0  0  0  0
  151.3569  141.6884  155.5367 H   0  0  0  0  0  0  0  0  0  0  0  0
  151.3372  140.8457  159.1354 H   0  0  0  0  0  0  0  0  0  0  0  0
  152.6373  141.2709  158.0264 H   0  0  0  0  0  0  0  0  0  0  0  0
  151.9896  142.6100  160.7072 H   0  0  0  0  0  0  0  0  0  0  0  0
  153.2148  140.4543  160.9287 H   0  0  0  0  0  0  0  0  0  0  0  0
  154.2289  141.8183  161.3897 H   0  0  0  0  0  0  0  0  0  0  0  0
  154.4586  141.0410  159.8254 H   0  0  0  0  0  0  0  0  0  0  0  0
  153.2784  145.2072  158.4470 H   0  0  0  0  0  0  0  0  0  0  0  0
  151.2143  146.0593  159.4303 H   0  0  0  0  0  0  0  0  0  0  0  0
  152.3259  145.5965  160.7126 H   0  0  0  0  0  0  0  0  0  0  0  0
  150.9468  144.5710  160.3189 H   0  0  0  0  0  0  0  0  0  0  0  0
  152.4600  143.6095  156.8801 H   0  0  0  0  0  0  0  0  0  0  0  0
  151.1035  144.6288  157.3045 H   0  0  0  0  0  0  0  0  0  0  0  0
  146.8001  141.8712  157.3541 H   0  0  0  0  0  0  0  0  0  0  0  0
  1  2  1  0  0  0  0
  1 23  1  0  0  0  0
  1 24  1  0  0  0  0
  1 25  1  0  0  0  0
  2  3  1  0  0  0  0
  3  4  1  0  0  0  0
  3  5  1  0  0  0  0
  3 26  1  0  0  0  0
  4 27  1  0  0  0  0
  4 28  1  0  0  0  0
  4 29  1  0  0  0  0
  5  6  2  0  0  0  0
  5  7  1  0  0  0  0
  7  8  1  0  0  0  0
  7 30  1  0  0  0  0
  8  9  1  0  0  0  0
  8 31  1  0  0  0  0
  8 32  1  0  0  0  0
  9 22  1  0  0  0  0
  9 10  2  0  0  0  0
 10 11  1  0  0  0  0
 10 33  1  0  0  0  0
 11 12  2  0  0  0  0
 11 34  1  0  0  0  0
 12 13  1  0  0  0  0
 12 21  1  0  0  0  0
 13 20  1  0  0  0  0
 13 14  1  0  0  0  0
 14 15  1  0  0  0  0
 14 35  1  0  0  0  0
 14 36  1  0  0  0  0
 15 16  1  0  0  0  0
 15 17  1  0  0  0  0
 15 37  1  0  0  0  0
 16 38  1  0  0  0  0
 16 39  1  0  0  0  0
 16 40  1  0  0  0  0
 17 18  1  0  0  0  0
 18 19  1  0  0  0  0
 18 20  1  0  0  0  0
 18 41  1  0  0  0  0
 19 42  1  0  0  0  0
 19 43  1  0  0  0  0
 19 44  1  0  0  0  0
 20 45  1  0  0  0  0
 20 46  1  0  0  0  0
 21 22  2  0  0  0  0
 22 47  1  0  0  0  0
M  END
> <s_m_source_file>
AV-unprocessed.smi

> <i_m_source_file_index>
2184

> <i_lp_mmshare_version>
43012

> <i_f3d_flags>
0

> <s_epik_input>
W0NIM11TW0NASF0oW0NIM10pQyg9TylbTkhdW0NIMl1jMVtjSF1bY0hdYyhuW2NIXTEpTjJbQ0gyXVtDQEBIXShbQ0gzXSlPW0NAQEhdKFtDSDNdKVtDSDJdMg==

> <s_epik_cmdline>
J2VwaWtfcHl0aG9uJywgJy1waCcsICc3LjAnLCAnLXRuJywgJzgnLCAnLW1hJywgJzIwMCcsICctbWV0YWxfYmluZGluZycsICctaW1hZScsICc8aW5maWxlLm1hZT4nLCAnLW9tYWUnLCAnPG91dGZpbGUubWFlPic=

> <r_lp_tautomer_probability>
1

> <r_epik_Ionization_Penalty>
0.00551702

> <r_epik_Ionization_Penalty_Charging>
0

> <r_epik_Ionization_Penalty_Neutral>
0.00551702

> <r_epik_State_Penalty>
0.00403758

> <r_epik_Charging_Adjusted_Penalty>
0.00403758

> <i_epik_Tot_Q>
0

> <i_epik_Tot_abs_Q>
0

> <r_epik_Metal_State_Penalty>
-0

> <b_epik_Metal_Only>
0

> <s_lp_Force_Field>
OPLS_2005

> <r_lp_Energy>
17.8704

> <b_lp_Chiralities_Consistent>
1

> <s_lp_Variant>
AV-unprocessed.smi:2184-6

> <Gold.Version>
5.8.1

> <Gold.Id.Protein>
6NUR|6NUR_protein|mol2

> <Gold.PLP.Fitness>
44.5994

> <Gold.PLP.PLP>
-44.8815

> <Gold.PLP.part.hbond>
-1.1934

> <Gold.PLP.part.metal>
0.0000

> <Gold.PLP.part.buried>
-1.2079

> <Gold.PLP.part.nonpolar>
-43.2235

> <Gold.PLP.part.repulsive>
0.5162

> <Gold.PLP.ligand.clash>
0.0000

> <Gold.PLP.ligand.torsion>
0.5830

> <Gold.PLP.Chemscore.Hbond>
0.1373

> <Gold.PLP.Chemscore.CHOScore>
0.0000

> <Gold.PLP.Chemscore.Metal>
0.0000

> <Gold.Chemscore.Hbonds>
donor molecule, donor type, donor heavy atom, donor atom, acceptor molecule, acceptor atom, score
      P1  H  8022  8030       L1     6  0.17

> <Gold.PLP.Chemscore.Internal.Correction>
0.4720

> <Gold.Rescore>
     Score         DG    S(hbond)    S(metal)    S(lipo)     H(rot)  DE(clash)    DE(int)     intcor
     14.35     -15.18       0.09        0.00     115.10       1.59       0.38       0.45       ----

> <Gold.Chemscore.Fitness>
14.3528

> <Gold.Chemscore.DG>
-15.1756

> <Gold.Chemscore.ZeroCoef>
-5.4800

> <Gold.Chemscore.Hbond>
0.0933

> <Gold.Chemscore.Metal>
0.0000

> <Gold.Chemscore.Lipo>
115.0972

> <Gold.Chemscore.Internal_Hbond>
0.0000

> <Gold.Chemscore.DEClash>
0.3759

> <Gold.Chemscore.DEInternal>
0.4470

> <Gold.Chemscore.Rot>
1.5947

> <Gold.Chemscore.Internal.Correction>
   9.000000E+99

> <Gold.Chemscore.Hbonds>
donor molecule, donor type, donor heavy atom, donor atom, acceptor molecule, acceptor atom, score
      P1  H  8022  8030       L1     6  0.17

> <Gold.Chemscore.Hbond.Weighted>
-0.3117

> <Gold.Chemscore.Metal.Weighted>
-0.0000

> <Gold.Chemscore.Lipo.Weighted>
-13.4664

> <Gold.Chemscore.Internal_Hbond.Weighted>
0.0000

> <Gold.Chemscore.DEClash.Weighted>
0.3759

> <Gold.Chemscore.DEInternal.Weighted>
0.4470

> <Gold.Chemscore.Rot.Weighted>
4.0824

> <Gold.Chemscore.Internal.Correction.Weighted>
   9.000000E+99

> <Gold.Protein.RotatedTorsions>
[ 6907 6896 6895 6894 ] final -106.68 input  -60.11 | X-H torsion
[ 7974 7965 7964 7962 ] final   94.03 input  175.53 | X-H torsion
[ 8008 7997 7996 7995 ] final   27.08 input   59.86 | X-H torsion
[ 10167 10162 10161 10158 ] final   82.19 input  -65.29 | X-H torsion
[ 10718 10713 10712 10709 ] final    7.04 input   66.30 | X-H torsion
[ 10763 10752 10751 10750 ] final   -4.20 input  -60.55 | X-H torsion
[ 11005 11000 10999 10996 ] final   22.29 input  -57.11 | X-H torsion

> <Gold.Protein.ActiveResidues>
 VAL166  LYS551  ARG553  GLY616  TRP617  ASP618  TYR619  PRO620  LYS621  CYS622 
 ASP623  PHE694  ASN695  SER759  ASP760  ASP761  ALA762  ILE779  LEU786  VAL792 
 PHE793  MET794  SER795  GLU796  ALA797  LYS798  CYS799  TRP800  GLU811  SER814 

> <Gold.Protein.RotatedAtoms>
  150.7402  133.9941  159.3616 H   0  0  0  0  0  0  0  0  0  0  0  0  # atno 6907 bound_to 6896
  151.7890  135.0739  160.0394 H   0  0  0  0  0  0  0  0  0  0  0  0  # atno 6908 bound_to 6896
  152.3221  133.5828  159.5788 H   0  0  0  0  0  0  0  0  0  0  0  0  # atno 6909 bound_to 6896
  145.4710  139.2282  143.2935 H   0  0  0  0  0  0  0  0  0  0  0  0  # atno 7974 bound_to 7965
  155.0373  140.3165  155.4737 H   0  0  0  0  0  0  0  0  0  0  0  0  # atno 8008 bound_to 7997
  156.2862  140.2169  156.5439 H   0  0  0  0  0  0  0  0  0  0  0  0  # atno 8009 bound_to 7997
  154.7319  140.0480  157.0722 H   0  0  0  0  0  0  0  0  0  0  0  0  # atno 8010 bound_to 7997
  139.9313  144.6150  150.8342 H   0  0  0  0  0  0  0  0  0  0  0  0  # atno 10167 bound_to 10162
  156.9310  130.5826  149.5649 H   0  0  0  0  0  0  0  0  0  0  0  0  # atno 10718 bound_to 10713
  153.3816  135.6998  153.6561 H   0  0  0  0  0  0  0  0  0  0  0  0  # atno 10763 bound_to 10752
  153.5170  135.3620  155.2614 H   0  0  0  0  0  0  0  0  0  0  0  0  # atno 10764 bound_to 10752
  154.8693  135.4148  154.3115 H   0  0  0  0  0  0  0  0  0  0  0  0  # atno 10765 bound_to 10752
  140.3822  134.1908  155.7663 H   0  0  0  0  0  0  0  0  0  0  0  0  # atno 11005 bound_to 11000
  146.2397  140.5488  142.8939 LP  0  0  0  0  0  0  0  0  0  0  0  0  # atno 17320 bound_to 7965
  144.7945  140.6096  143.6519 LP  0  0  0  0  0  0  0  0  0  0  0  0  # atno 17321 bound_to 7965
  140.7636  143.3228  151.2583 LP  0  0  0  0  0  0  0  0  0  0  0  0  # atno 17342 bound_to 10162
  139.6780  143.9905  152.2792 LP  0  0  0  0  0  0  0  0  0  0  0  0  # atno 17343 bound_to 10162
  156.0447  130.5525  150.8853 LP  0  0  0  0  0  0  0  0  0  0  0  0  # atno 17370 bound_to 10713
  157.5847  131.0946  150.9216 LP  0  0  0  0  0  0  0  0  0  0  0  0  # atno 17371 bound_to 10713
  141.1919  133.8184  157.0859 LP  0  0  0  0  0  0  0  0  0  0  0  0  # atno 17394 bound_to 11000
  140.0470  134.9825  157.1066 LP  0  0  0  0  0  0  0  0  0  0  0  0  # atno 17395 bound_to 11000

$$$$
