AV-unprocessed.smi:36|AV-procd|sdf|284|dock4
  -GOLD-   2262016 63D 1   1.00000     0.00000
 Structure written by MMmdl.
 64 67  0  0  0  0  0  0  0  0  1 V2000
  147.7217  134.2204  161.7993 C   0  0  0  0  0  0  0  0  0  0  0  0
  146.3836  133.5877  161.3830 C   0  0  0  0  0  0  0  0  0  0  0  0
  146.5526  132.0679  161.2186 C   0  0  0  0  0  0  0  0  0  0  0  0
  145.3138  133.8765  162.4491 C   0  0  0  0  0  0  0  0  0  0  0  0
  145.8182  134.3337  159.7178 Si  0  0  0  0  0  0  0  0  0  0  0  0
  144.1156  133.6655  159.2049 C   0  0  0  0  0  0  0  0  0  0  0  0
  145.7684  136.2318  159.7983 C   0  0  0  0  0  0  0  0  0  0  0  0
  146.9421  133.8745  158.5407 O   0  0  0  0  0  0  0  0  0  0  0  0
  148.3069  134.2322  158.5824 C   0  0  0  0  0  0  0  0  0  0  0  0
  148.9335  133.9622  157.2090 C   0  0  1  0  0  0  0  0  0  0  0  0
  148.4859  134.9178  156.2425 O   0  0  0  0  0  0  0  0  0  0  0  0
  149.5669  135.4193  155.5097 C   0  0  1  0  0  0  0  0  0  0  0  0
  149.9045  136.7807  156.0413 N   0  0  0  0  0  0  0  0  0  0  0  0
  149.2806  137.5169  157.0279 C   0  0  0  0  0  0  0  0  0  0  0  0
  149.8075  138.6868  157.2723 N   0  0  0  0  0  0  0  0  0  0  0  0
  150.8541  138.7806  156.3649 C   0  0  0  0  0  0  0  0  0  0  0  0
  151.8233  139.7774  156.0800 C   0  0  0  0  0  0  0  0  0  0  0  0
  151.8469  140.9276  156.7932 N   0  0  0  0  0  0  0  0  0  0  0  0
  151.8907  141.0864  158.2360 C   0  0  0  0  0  0  0  0  0  0  0  0
  152.0191  140.1270  158.9974 O   0  0  0  0  0  0  0  0  0  0  0  0
  151.8647  142.4985  158.7437 C   0  0  0  0  0  0  0  0  0  0  0  0
  151.4985  143.5543  157.8791 C   0  0  0  0  0  0  0  0  0  0  0  0
  151.4911  144.8845  158.3419 C   0  0  0  0  0  0  0  0  0  0  0  0
  151.8572  145.1711  159.6705 C   0  0  0  0  0  0  0  0  0  0  0  0
  152.2337  144.1267  160.5355 C   0  0  0  0  0  0  0  0  0  0  0  0
  152.2411  142.7959  160.0743 C   0  0  0  0  0  0  0  0  0  0  0  0
  152.7146  139.5175  155.0871 N   0  0  0  0  0  0  0  0  0  0  0  0
  152.6555  138.3642  154.4146 C   0  0  0  0  0  0  0  0  0  0  0  0
  151.8057  137.3474  154.5757 N   0  0  0  0  0  0  0  0  0  0  0  0
  150.9141  137.5976  155.5778 C   0  0  0  0  0  0  0  0  0  0  0  0
  150.7254  134.4523  155.7584 C   0  0  0  0  0  0  0  0  0  0  0  0
  150.4641  134.0378  157.1907 C   0  0  2  0  0  0  0  0  0  0  0  0
  151.0701  132.7941  157.4777 O   0  0  0  0  0  0  0  0  0  0  0  0
  148.0719  133.8151  162.7491 H   0  0  0  0  0  0  0  0  0  0  0  0
  147.6311  135.3005  161.9169 H   0  0  0  0  0  0  0  0  0  0  0  0
  148.4979  134.0339  161.0568 H   0  0  0  0  0  0  0  0  0  0  0  0
  147.3155  131.8303  160.4769 H   0  0  0  0  0  0  0  0  0  0  0  0
  145.6226  131.5981  160.8962 H   0  0  0  0  0  0  0  0  0  0  0  0
  146.8507  131.5984  162.1567 H   0  0  0  0  0  0  0  0  0  0  0  0
  145.5881  133.4468  163.4131 H   0  0  0  0  0  0  0  0  0  0  0  0
  144.3483  133.4564  162.1649 H   0  0  0  0  0  0  0  0  0  0  0  0
  145.1761  134.9480  162.5949 H   0  0  0  0  0  0  0  0  0  0  0  0
  143.3473  133.9258  159.9326 H   0  0  0  0  0  0  0  0  0  0  0  0
  144.1217  132.5798  159.1119 H   0  0  0  0  0  0  0  0  0  0  0  0
  143.8012  134.0706  158.2433 H   0  0  0  0  0  0  0  0  0  0  0  0
  145.1020  136.5813  160.5865 H   0  0  0  0  0  0  0  0  0  0  0  0
  145.4149  136.6630  158.8620 H   0  0  0  0  0  0  0  0  0  0  0  0
  146.7550  136.6504  159.9957 H   0  0  0  0  0  0  0  0  0  0  0  0
  148.3892  135.2899  158.8342 H   0  0  0  0  0  0  0  0  0  0  0  0
  148.8153  133.6677  159.3633 H   0  0  0  0  0  0  0  0  0  0  0  0
  148.6080  132.9867  156.8436 H   0  0  0  0  0  0  0  0  0  0  0  0
  149.3247  135.5833  154.4591 H   0  0  0  0  0  0  0  0  0  0  0  0
  148.4157  137.1646  157.5690 H   0  0  0  0  0  0  0  0  0  0  0  0
  151.8111  141.7810  156.2550 H   0  0  0  0  0  0  0  0  0  0  0  0
  151.2165  143.3507  156.8560 H   0  0  0  0  0  0  0  0  0  0  0  0
  151.2059  145.6858  157.6764 H   0  0  0  0  0  0  0  0  0  0  0  0
  151.8533  146.1913  160.0247 H   0  0  0  0  0  0  0  0  0  0  0  0
  152.5202  144.3470  161.5534 H   0  0  0  0  0  0  0  0  0  0  0  0
  152.5433  142.0110  160.7521 H   0  0  0  0  0  0  0  0  0  0  0  0
  153.3963  138.2379  153.6390 H   0  0  0  0  0  0  0  0  0  0  0  0
  150.6172  133.6067  155.0773 H   0  0  0  0  0  0  0  0  0  0  0  0
  151.7019  134.9095  155.5996 H   0  0  0  0  0  0  0  0  0  0  0  0
  150.8291  134.8022  157.8785 H   0  0  0  0  0  0  0  0  0  0  0  0
  151.0254  132.2541  156.7027 H   0  0  0  0  0  0  0  0  0  0  0  0
  1  2  1  0  0  0  0
  1 34  1  0  0  0  0
  1 35  1  0  0  0  0
  1 36  1  0  0  0  0
  2  3  1  0  0  0  0
  2  4  1  0  0  0  0
  2  5  1  0  0  0  0
  3 37  1  0  0  0  0
  3 38  1  0  0  0  0
  3 39  1  0  0  0  0
  4 40  1  0  0  0  0
  4 41  1  0  0  0  0
  4 42  1  0  0  0  0
  5  6  1  0  0  0  0
  5  7  1  0  0  0  0
  5  8  1  0  0  0  0
  6 43  1  0  0  0  0
  6 44  1  0  0  0  0
  6 45  1  0  0  0  0
  7 46  1  0  0  0  0
  7 47  1  0  0  0  0
  7 48  1  0  0  0  0
  8  9  1  0  0  0  0
  9 10  1  0  0  0  0
  9 49  1  0  0  0  0
  9 50  1  0  0  0  0
 10 32  1  0  0  0  0
 10 11  1  0  0  0  0
 10 51  1  0  0  0  0
 11 12  1  0  0  0  0
 12 13  1  0  0  0  0
 12 31  1  0  0  0  0
 12 52  1  0  0  0  0
 13 30  1  0  0  0  0
 13 14  1  0  0  0  0
 14 15  2  0  0  0  0
 14 53  1  0  0  0  0
 15 16  1  0  0  0  0
 16 30  2  0  0  0  0
 16 17  1  0  0  0  0
 17 18  1  0  0  0  0
 17 27  2  0  0  0  0
 18 19  1  0  0  0  0
 18 54  1  0  0  0  0
 19 20  2  0  0  0  0
 19 21  1  0  0  0  0
 21 26  1  0  0  0  0
 21 22  2  0  0  0  0
 22 23  1  0  0  0  0
 22 55  1  0  0  0  0
 23 24  2  0  0  0  0
 23 56  1  0  0  0  0
 24 25  1  0  0  0  0
 24 57  1  0  0  0  0
 25 26  2  0  0  0  0
 25 58  1  0  0  0  0
 26 59  1  0  0  0  0
 27 28  1  0  0  0  0
 28 29  2  0  0  0  0
 28 60  1  0  0  0  0
 29 30  1  0  0  0  0
 31 32  1  0  0  0  0
 31 61  1  0  0  0  0
 31 62  1  0  0  0  0
 32 33  1  0  0  0  0
 32 63  1  0  0  0  0
 33 64  1  0  0  0  0
M  END
> <s_m_source_file>
AV-unprocessed.smi

> <i_m_source_file_index>
36

> <i_lp_mmshare_version>
43012

> <i_f3d_flags>
0

> <s_epik_input>
W0NIM11DKFtDSDNdKShbQ0gzXSlbU2ldKFtDSDNdKShbQ0gzXSlPW0NIMl1bQ0BASF0xT1tDQEhdKFtDSDJdW0NASF0xW09IXSluKFtjSF1uMiljKGMyMyluW2NIXW5jM1tOSF1DKD1PKWM0W2NIXVtjSF1bY0hdW2NIXVtjSF00

> <s_epik_cmdline>
J2VwaWtfcHl0aG9uJywgJy1waCcsICc3LjAnLCAnLXRuJywgJzgnLCAnLW1hJywgJzIwMCcsICctbWV0YWxfYmluZGluZycsICctaW1hZScsICc8aW5maWxlLm1hZT4nLCAnLW9tYWUnLCAnPG91dGZpbGUubWFlPic=

> <r_lp_tautomer_probability>
1

> <r_epik_Ionization_Penalty>
0.00150433

> <r_epik_Ionization_Penalty_Charging>
0

> <r_epik_Ionization_Penalty_Neutral>
0.00150433

> <r_epik_State_Penalty>
0.00724046

> <r_epik_Charging_Adjusted_Penalty>
0.00724046

> <i_epik_Tot_Q>
0

> <i_epik_Tot_abs_Q>
0

> <r_epik_Metal_State_Penalty>
0.323355

> <b_epik_Metal_Only>
0

> <s_epik_Chemistry_Notes>
This compound contains an acetal/aminal-like group ( X-CH(R)-Y where X, Y are N, S, or O) that may be acid/base labile, releasing an aldehyde.

> <s_lp_Force_Field>
OPLS_2005

> <r_lp_Energy>
33.6094

> <b_lp_Chiralities_Consistent>
1

> <s_lp_Variant>
AV-unprocessed.smi:36-6

> <Gold.Version>
5.8.1

> <Gold.Id.Protein>
6NUR|6NUR_protein|mol2

> <Gold.PLP.Fitness>
51.2786

> <Gold.PLP.PLP>
-47.3214

> <Gold.PLP.part.hbond>
-3.9214

> <Gold.PLP.part.metal>
0.0000

> <Gold.PLP.part.buried>
-5.4762

> <Gold.PLP.part.nonpolar>
-38.9881

> <Gold.PLP.part.repulsive>
0.3104

> <Gold.PLP.ligand.clash>
0.0000

> <Gold.PLP.ligand.torsion>
0.7594

> <Gold.PLP.Chemscore.Hbond>
1.6504

> <Gold.PLP.Chemscore.CHOScore>
0.0000

> <Gold.PLP.Chemscore.Metal>
0.0000

> <Gold.Chemscore.Hbonds>
donor molecule, donor type, donor heavy atom, donor atom, acceptor molecule, acceptor atom, score
      P1  H  6896  6907       L1    33  0.56
      P1  H  7989  7998       L1    27  0.12
      P1  H 10752 10765       L1    29  0.97

> <Gold.PLP.Chemscore.Internal.Correction>
0.5248

> <Gold.Rescore>
     Score         DG    S(hbond)    S(metal)    S(lipo)     H(rot)  DE(clash)    DE(int)     intcor
     14.39     -15.52       1.15        0.00     112.01       2.70       0.36       0.77       ----

> <Gold.Chemscore.Fitness>
14.3923

> <Gold.Chemscore.DG>
-15.5194

> <Gold.Chemscore.ZeroCoef>
-5.4800

> <Gold.Chemscore.Hbond>
1.1546

> <Gold.Chemscore.Metal>
0.0000

> <Gold.Chemscore.Lipo>
112.0126

> <Gold.Chemscore.Internal_Hbond>
0.0000

> <Gold.Chemscore.DEClash>
0.3607

> <Gold.Chemscore.DEInternal>
0.7664

> <Gold.Chemscore.Rot>
2.7041

> <Gold.Chemscore.Internal.Correction>
   9.000000E+99

> <Gold.Chemscore.Hbonds>
donor molecule, donor type, donor heavy atom, donor atom, acceptor molecule, acceptor atom, score
      P1  H  6896  6907       L1    33  0.06
      P1  H 10752 10765       L1    29  0.43

> <Gold.Chemscore.Hbond.Weighted>
-3.8564

> <Gold.Chemscore.Metal.Weighted>
-0.0000

> <Gold.Chemscore.Lipo.Weighted>
-13.1055

> <Gold.Chemscore.Internal_Hbond.Weighted>
0.0000

> <Gold.Chemscore.DEClash.Weighted>
0.3607

> <Gold.Chemscore.DEInternal.Weighted>
0.7664

> <Gold.Chemscore.Rot.Weighted>
6.9225

> <Gold.Chemscore.Internal.Correction.Weighted>
   9.000000E+99

> <Gold.Protein.RotatedTorsions>
[ 6907 6896 6895 6894 ] final -179.11 input  -60.11 | X-H torsion
[ 7974 7965 7964 7962 ] final  137.45 input  175.53 | X-H torsion
[ 8008 7997 7996 7995 ] final  -86.90 input   59.86 | X-H torsion
[ 10167 10162 10161 10158 ] final  155.28 input  -65.29 | X-H torsion
[ 10718 10713 10712 10709 ] final -163.03 input   66.30 | X-H torsion
[ 10763 10752 10751 10750 ] final  165.73 input  -60.55 | X-H torsion
[ 11005 11000 10999 10996 ] final -103.75 input  -57.11 | X-H torsion

> <Gold.Protein.ActiveResidues>
 VAL166  LYS551  ARG553  GLY616  TRP617  ASP618  TYR619  PRO620  LYS621  CYS622 
 ASP623  PHE694  ASN695  SER759  ASP760  ASP761  ALA762  ILE779  LEU786  VAL792 
 PHE793  MET794  SER795  GLU796  ALA797  LYS798  CYS799  TRP800  GLU811  SER814 

> <Gold.Protein.RotatedAtoms>
  151.6481  133.3322  159.3145 H   0  0  0  0  0  0  0  0  0  0  0  0  # atno 6907 bound_to 6896
  150.7974  134.7047  159.6579 H   0  0  0  0  0  0  0  0  0  0  0  0  # atno 6908 bound_to 6896
  152.4063  134.6206  160.0101 H   0  0  0  0  0  0  0  0  0  0  0  0  # atno 6909 bound_to 6896
  144.9466  139.4867  143.5546 H   0  0  0  0  0  0  0  0  0  0  0  0  # atno 7974 bound_to 7965
  154.6571  140.0572  157.0021 H   0  0  0  0  0  0  0  0  0  0  0  0  # atno 8008 bound_to 7997
  155.1284  140.3254  155.4461 H   0  0  0  0  0  0  0  0  0  0  0  0  # atno 8009 bound_to 7997
  156.2602  140.1985  156.6403 H   0  0  0  0  0  0  0  0  0  0  0  0  # atno 8010 bound_to 7997
  139.4821  144.5112  151.8021 H   0  0  0  0  0  0  0  0  0  0  0  0  # atno 10167 bound_to 10162
  156.6189  130.8882  151.2953 H   0  0  0  0  0  0  0  0  0  0  0  0  # atno 10718 bound_to 10713
  154.3283  135.2755  155.2484 H   0  0  0  0  0  0  0  0  0  0  0  0  # atno 10763 bound_to 10752
  154.4807  135.5859  153.6391 H   0  0  0  0  0  0  0  0  0  0  0  0  # atno 10764 bound_to 10752
  152.9869  135.6111  154.3474 H   0  0  0  0  0  0  0  0  0  0  0  0  # atno 10765 bound_to 10752
  141.1132  133.8666  157.1525 H   0  0  0  0  0  0  0  0  0  0  0  0  # atno 11005 bound_to 11000
  146.3306  139.8523  142.8871 LP  0  0  0  0  0  0  0  0  0  0  0  0  # atno 17320 bound_to 7965
  145.2908  141.0166  143.3664 LP  0  0  0  0  0  0  0  0  0  0  0  0  # atno 17321 bound_to 7965
  140.4615  144.1714  150.5907 LP  0  0  0  0  0  0  0  0  0  0  0  0  # atno 17342 bound_to 10162
  140.4479  143.2499  151.9387 LP  0  0  0  0  0  0  0  0  0  0  0  0  # atno 17343 bound_to 10162
  157.7233  130.9588  150.1529 LP  0  0  0  0  0  0  0  0  0  0  0  0  # atno 17370 bound_to 10713
  156.2328  130.3683  149.8425 LP  0  0  0  0  0  0  0  0  0  0  0  0  # atno 17371 bound_to 10713
  140.0037  135.0017  157.0247 LP  0  0  0  0  0  0  0  0  0  0  0  0  # atno 17394 bound_to 11000
  140.4719  134.1378  155.7204 LP  0  0  0  0  0  0  0  0  0  0  0  0  # atno 17395 bound_to 11000

$$$$
