AV-unprocessed.smi:1867|AV-procd|sdf|7576|dock2
  -GOLD-   22720 9283D 1   1.00000     0.00000
 Structure written by MMmdl.
 52 55  0  0  0  0  0  0  0  0  4 V2000
  147.9494  137.7739  158.1259 O   0  0  0  0  0  0  0  0  0  0  0  0
  147.8200  137.9335  156.9135 C   0  0  0  0  0  0  0  0  0  0  0  0
  148.4452  138.9798  156.3190 N   0  0  0  0  0  0  0  0  0  0  0  0
  149.1869  140.0370  156.9103 C   0  0  0  0  0  0  0  0  0  0  0  0
  150.0840  139.7117  157.9485 C   0  0  0  0  0  0  0  0  0  0  0  0
  150.8614  140.7251  158.5452 C   0  0  0  0  0  0  0  0  0  0  0  0
  150.7408  142.0594  158.0907 C   0  0  0  0  0  0  0  0  0  0  0  0
  151.4904  143.1198  158.6336 N   0  0  0  0  0  0  0  0  0  0  0  0
  151.2054  144.5050  158.2953 C   0  0  0  0  0  0  0  0  0  0  0  0
  152.1171  145.3201  159.2112 C   0  0  0  0  0  0  0  0  0  0  0  0
  152.2043  144.4580  160.4708 C   0  0  0  0  0  0  0  0  0  0  0  0
  152.1046  143.0193  159.9499 C   0  0  0  0  0  0  0  0  0  0  0  0
  149.8811  142.3224  157.0777 N   0  3  0  0  0  0  0  0  0  0  0  0
  149.1173  141.3827  156.4796 C   0  0  0  0  0  0  0  0  0  0  0  0
  147.0835  137.0627  156.1584 N   0  5  0  0  0  0  0  0  0  0  0  0
  147.2128  136.7378  154.7308 C   0  0  2  0  0  0  0  0  0  0  0  0
  145.8794  136.9184  153.9803 C   0  0  0  0  0  0  0  0  0  0  0  0
  145.8410  135.7907  152.9307 C   0  0  0  0  0  0  0  0  0  0  0  0
  147.0883  135.0262  153.1253 N   0  3  2  0  0  0  0  0  0  0  0  0
  147.0730  133.5957  152.7482 C   0  0  0  0  0  0  0  0  0  0  0  0
  148.4892  133.0094  152.9190 C   0  0  0  0  0  0  0  0  0  0  0  0
  149.0521  133.2696  154.3318 C   0  0  0  0  0  0  0  0  0  0  0  0
  148.9645  134.7639  154.7009 C   0  0  0  0  0  0  0  0  0  0  0  0
  147.5113  135.2492  154.5172 C   0  0  1  0  0  0  0  0  0  0  0  0
  148.4067  138.9894  155.3104 H   0  0  0  0  0  0  0  0  0  0  0  0
  150.1770  138.6910  158.2897 H   0  0  0  0  0  0  0  0  0  0  0  0
  151.5466  140.4640  159.3379 H   0  0  0  0  0  0  0  0  0  0  0  0
  151.4018  144.7124  157.2429 H   0  0  0  0  0  0  0  0  0  0  0  0
  150.1568  144.7230  158.5025 H   0  0  0  0  0  0  0  0  0  0  0  0
  153.1063  145.4146  158.7606 H   0  0  0  0  0  0  0  0  0  0  0  0
  151.7368  146.3234  159.4056 H   0  0  0  0  0  0  0  0  0  0  0  0
  153.1122  144.6373  161.0471 H   0  0  0  0  0  0  0  0  0  0  0  0
  151.3515  144.6729  161.1162 H   0  0  0  0  0  0  0  0  0  0  0  0
  151.5228  142.3978  160.6315 H   0  0  0  0  0  0  0  0  0  0  0  0
  153.0957  142.5772  159.8433 H   0  0  0  0  0  0  0  0  0  0  0  0
  148.4960  141.7444  155.6739 H   0  0  0  0  0  0  0  0  0  0  0  0
  147.9847  137.3245  154.2292 H   0  0  0  0  0  0  0  0  0  0  0  0
  145.0258  136.8132  154.6524 H   0  0  0  0  0  0  0  0  0  0  0  0
  145.8126  137.9061  153.5230 H   0  0  0  0  0  0  0  0  0  0  0  0
  144.9719  135.1517  153.0973 H   0  0  0  0  0  0  0  0  0  0  0  0
  145.7860  136.1741  151.9111 H   0  0  0  0  0  0  0  0  0  0  0  0
  146.3566  133.0560  153.3699 H   0  0  0  0  0  0  0  0  0  0  0  0
  146.7455  133.4935  151.7131 H   0  0  0  0  0  0  0  0  0  0  0  0
  148.4778  131.9387  152.7128 H   0  0  0  0  0  0  0  0  0  0  0  0
  149.1555  133.4574  152.1810 H   0  0  0  0  0  0  0  0  0  0  0  0
  148.4891  132.6836  155.0592 H   0  0  0  0  0  0  0  0  0  0  0  0
  150.0856  132.9277  154.3931 H   0  0  0  0  0  0  0  0  0  0  0  0
  149.2948  134.9066  155.7314 H   0  0  0  0  0  0  0  0  0  0  0  0
  149.6505  135.3323  154.0696 H   0  0  0  0  0  0  0  0  0  0  0  0
  146.8565  134.6620  155.1661 H   0  0  0  0  0  0  0  0  0  0  0  0
  147.7854  135.4798  152.5525 H   0  0  0  0  0  0  0  0  0  0  0  0
  149.8061  143.2832  156.7438 H   0  0  0  0  0  0  0  0  0  0  0  0
  1  2  2  0  0  0  0
  2  3  1  0  0  0  0
  2 15  1  0  0  0  0
  3  4  1  0  0  0  0
  3 25  1  0  0  0  0
  4 14  1  0  0  0  0
  4  5  2  0  0  0  0
  5  6  1  0  0  0  0
  5 26  1  0  0  0  0
  6  7  2  0  0  0  0
  6 27  1  0  0  0  0
  7  8  1  0  0  0  0
  7 13  1  0  0  0  0
  8 12  1  0  0  0  0
  8  9  1  0  0  0  0
  9 10  1  0  0  0  0
  9 28  1  0  0  0  0
  9 29  1  0  0  0  0
 10 11  1  0  0  0  0
 10 30  1  0  0  0  0
 10 31  1  0  0  0  0
 11 12  1  0  0  0  0
 11 32  1  0  0  0  0
 11 33  1  0  0  0  0
 12 34  1  0  0  0  0
 12 35  1  0  0  0  0
 13 14  2  0  0  0  0
 13 52  1  0  0  0  0
 14 36  1  0  0  0  0
 15 16  1  0  0  0  0
 16 24  1  0  0  0  0
 16 17  1  0  0  0  0
 16 37  1  0  0  0  0
 17 18  1  0  0  0  0
 17 38  1  0  0  0  0
 17 39  1  0  0  0  0
 18 19  1  0  0  0  0
 18 40  1  0  0  0  0
 18 41  1  0  0  0  0
 19 24  1  0  0  0  0
 19 20  1  0  0  0  0
 19 51  1  0  0  0  0
 20 21  1  0  0  0  0
 20 42  1  0  0  0  0
 20 43  1  0  0  0  0
 21 22  1  0  0  0  0
 21 44  1  0  0  0  0
 21 45  1  0  0  0  0
 22 23  1  0  0  0  0
 22 46  1  0  0  0  0
 22 47  1  0  0  0  0
 23 24  1  0  0  0  0
 23 48  1  0  0  0  0
 23 49  1  0  0  0  0
 24 50  1  0  0  0  0
M  CHG  1  13   1
M  CHG  1  15  -1
M  CHG  1  19   1
M  END
> <s_m_source_file>
AV-unprocessed.smi

> <i_m_source_file_index>
1867

> <i_lp_mmshare_version>
43012

> <i_f3d_flags>
0

> <s_epik_input>
W0NIMl0xW0NIMl1bQ0gyXVtDSDJdW0NASF0oTjEyKVtDQEBIXShbQ0gyXVtDSDJdMilbTkhdQyg9TylbTkhdYzNbY0hdW2NIXWMobltjSF0zKU40W0NIMl1bQ0gyXVtDSDJdW0NIMl00

> <s_epik_cmdline>
J2VwaWtfcHl0aG9uJywgJy1waCcsICc3LjAnLCAnLXRuJywgJzgnLCAnLW1hJywgJzIwMCcsICctbWV0YWxfYmluZGluZycsICctaW1hZScsICc8aW5maWxlLm1hZT4nLCAnLW9tYWUnLCAnPG91dGZpbGUubWFlPic=

> <r_lp_tautomer_probability>
0.999994

> <r_epik_Ionization_Penalty>
8.56137

> <r_epik_Ionization_Penalty_Charging>
8.56136

> <r_epik_Ionization_Penalty_Neutral>
3.91889e-06

> <r_epik_State_Penalty>
8.16255

> <r_epik_Charging_Adjusted_Penalty>
16.7239

> <i_epik_Tot_Q>
1

> <i_epik_Tot_abs_Q>
3

> <r_epik_Metal_State_Penalty>
4.14279

> <b_epik_Metal_Only>
1

> <s_lp_Force_Field>
OPLS_2005

> <r_lp_Energy>
66.0689

> <b_lp_Chiralities_Consistent>
1

> <s_lp_Variant>
AV-unprocessed.smi:1867-17

> <Gold.Version>
5.8.1

> <Gold.Id.Protein>
6NUR|6NUR_protein|mol2

> <Gold.PLP.Fitness>
48.5684

> <Gold.PLP.PLP>
-37.5396

> <Gold.PLP.part.hbond>
-2.0000

> <Gold.PLP.part.metal>
0.0000

> <Gold.PLP.part.buried>
-4.1876

> <Gold.PLP.part.nonpolar>
-31.5115

> <Gold.PLP.part.repulsive>
0.0291

> <Gold.PLP.ligand.clash>
0.0000

> <Gold.PLP.ligand.torsion>
0.5990

> <Gold.PLP.Chemscore.Hbond>
4.0000

> <Gold.PLP.Chemscore.CHOScore>
0.0000

> <Gold.PLP.Chemscore.Metal>
0.0000

> <Gold.Chemscore.Hbonds>
donor molecule, donor type, donor heavy atom, donor atom, acceptor molecule, acceptor atom, score
      L1  H    13    52       P1  8028  2.00
      L1  H    19    51       P1  7948  2.00

> <Gold.PLP.Chemscore.Internal.Correction>
0.2268

> <Gold.Rescore>
     Score         DG    S(hbond)    S(metal)    S(lipo)     H(rot)  DE(clash)    DE(int)     intcor
     18.77     -20.67       1.99        0.00      94.86       1.00       0.04       1.86       ----

> <Gold.Chemscore.Fitness>
18.7695

> <Gold.Chemscore.DG>
-20.6685

> <Gold.Chemscore.ZeroCoef>
-5.4800

> <Gold.Chemscore.Hbond>
1.9909

> <Gold.Chemscore.Metal>
0.0000

> <Gold.Chemscore.Lipo>
94.8615

> <Gold.Chemscore.Internal_Hbond>
0.0000

> <Gold.Chemscore.DEClash>
0.0436

> <Gold.Chemscore.DEInternal>
1.8554

> <Gold.Chemscore.Rot>
1.0000

> <Gold.Chemscore.Internal.Correction>
   9.000000E+99

> <Gold.Chemscore.Hbonds>
donor molecule, donor type, donor heavy atom, donor atom, acceptor molecule, acceptor atom, score
      L1  H    13    52       P1  8028  0.91
      L1  H    19    51       P1  7948  0.93

> <Gold.Chemscore.Hbond.Weighted>
-6.6497

> <Gold.Chemscore.Metal.Weighted>
-0.0000

> <Gold.Chemscore.Lipo.Weighted>
-11.0988

> <Gold.Chemscore.Internal_Hbond.Weighted>
0.0000

> <Gold.Chemscore.DEClash.Weighted>
0.0436

> <Gold.Chemscore.DEInternal.Weighted>
1.8554

> <Gold.Chemscore.Rot.Weighted>
2.5600

> <Gold.Chemscore.Internal.Correction.Weighted>
   9.000000E+99

> <Gold.Protein.RotatedTorsions>
[ 6907 6896 6895 6894 ] final -177.10 input  -60.11 | X-H torsion
[ 7974 7965 7964 7962 ] final  152.29 input  175.53 | X-H torsion
[ 8008 7997 7996 7995 ] final   54.53 input   59.86 | X-H torsion
[ 10167 10162 10161 10158 ] final  -55.10 input  -65.29 | X-H torsion
[ 10718 10713 10712 10709 ] final   25.15 input   66.30 | X-H torsion
[ 10763 10752 10751 10750 ] final   44.02 input  -60.55 | X-H torsion
[ 11005 11000 10999 10996 ] final  -92.59 input  -57.11 | X-H torsion

> <Gold.Protein.ActiveResidues>
 VAL166  LYS551  ARG553  GLY616  TRP617  ASP618  TYR619  PRO620  LYS621  CYS622 
 ASP623  PHE694  ASN695  SER759  ASP760  ASP761  ALA762  ILE779  LEU786  VAL792 
 PHE793  MET794  SER795  GLU796  ALA797  LYS798  CYS799  TRP800  GLU811  SER814 

> <Gold.Protein.RotatedAtoms>
  151.6155  133.3343  159.3076 H   0  0  0  0  0  0  0  0  0  0  0  0  # atno 6907 bound_to 6896
  150.8133  134.7305  159.6719 H   0  0  0  0  0  0  0  0  0  0  0  0  # atno 6908 bound_to 6896
  152.4230  134.5926  160.0029 H   0  0  0  0  0  0  0  0  0  0  0  0  # atno 6909 bound_to 6896
  144.8233  139.6649  143.6091 H   0  0  0  0  0  0  0  0  0  0  0  0  # atno 7974 bound_to 7965
  155.4863  140.3470  155.4347 H   0  0  0  0  0  0  0  0  0  0  0  0  # atno 8008 bound_to 7997
  156.1006  140.1434  156.9500 H   0  0  0  0  0  0  0  0  0  0  0  0  # atno 8009 bound_to 7997
  154.4691  140.0907  156.7077 H   0  0  0  0  0  0  0  0  0  0  0  0  # atno 8010 bound_to 7997
  140.6393  143.2499  151.5032 H   0  0  0  0  0  0  0  0  0  0  0  0  # atno 10167 bound_to 10162
  157.1894  130.6839  149.6144 H   0  0  0  0  0  0  0  0  0  0  0  0  # atno 10718 bound_to 10713
  152.9849  135.6083  154.3207 H   0  0  0  0  0  0  0  0  0  0  0  0  # atno 10763 bound_to 10752
  154.2917  135.2774  155.2654 H   0  0  0  0  0  0  0  0  0  0  0  0  # atno 10764 bound_to 10752
  154.4946  135.5883  153.6541 H   0  0  0  0  0  0  0  0  0  0  0  0  # atno 10765 bound_to 10752
  141.1518  133.7831  157.0041 H   0  0  0  0  0  0  0  0  0  0  0  0  # atno 11005 bound_to 11000
  146.2538  139.6258  142.9409 LP  0  0  0  0  0  0  0  0  0  0  0  0  # atno 17320 bound_to 7965
  145.5057  141.0436  143.2516 LP  0  0  0  0  0  0  0  0  0  0  0  0  # atno 17321 bound_to 7965
  139.5603  144.2174  152.1680 LP  0  0  0  0  0  0  0  0  0  0  0  0  # atno 17342 bound_to 10162
  140.1439  144.5176  150.6727 LP  0  0  0  0  0  0  0  0  0  0  0  0  # atno 17343 bound_to 10162
  155.9713  130.4619  150.6128 LP  0  0  0  0  0  0  0  0  0  0  0  0  # atno 17370 bound_to 10713
  157.3875  131.0790  151.1423 LP  0  0  0  0  0  0  0  0  0  0  0  0  # atno 17371 bound_to 10713
  140.0920  134.9586  157.1791 LP  0  0  0  0  0  0  0  0  0  0  0  0  # atno 17394 bound_to 11000
  140.3432  134.2680  155.7209 LP  0  0  0  0  0  0  0  0  0  0  0  0  # atno 17395 bound_to 11000

$$$$
