AV-unprocessed.smi:2807|AV-procd|sdf|10821|dock7
  -GOLD-   2272015263D 1   1.00000     0.00000
 Structure written by MMmdl.
 31 32  0  0  0  0  0  0  0  0  2 V2000
  152.7226  140.8316  158.7335 O   0  0  0  0  0  0  0  0  0  0  0  0
  151.7551  140.6561  157.9835 C   0  0  0  0  0  0  0  0  0  0  0  0
  151.3967  139.5525  157.2670 N   0  5  0  0  0  0  0  0  0  0  0  0
  152.2695  138.8676  156.3069 C   0  0  1  0  0  0  0  0  0  0  0  0
  152.5327  137.4340  156.7918 C   0  0  0  0  0  0  0  0  0  0  0  0
  151.3927  136.5603  156.2352 C   0  0  0  0  0  0  0  0  0  0  0  0
  150.6746  137.3984  155.1663 C   0  0  0  0  0  0  0  0  0  0  0  0
  151.5624  138.6312  154.9569 C   0  0  1  0  0  0  0  0  0  0  0  0
  150.8395  139.7415  154.4592 O   0  0  0  0  0  0  0  0  0  0  0  0
  150.7806  141.8296  157.7504 C   0  0  0  0  0  0  0  0  0  0  0  0
  150.7603  142.1431  156.4504 F   0  0  0  0  0  0  0  0  0  0  0  0
  149.5480  141.4429  158.0886 F   0  0  0  0  0  0  0  0  0  0  0  0
  151.1671  143.0337  158.6091 C   0  0  0  0  0  0  0  0  0  0  0  0
  151.6925  144.2018  158.0113 C   0  0  0  0  0  0  0  0  0  0  0  0
  152.0147  145.2969  158.8350 C   0  0  0  0  0  0  0  0  0  0  0  0
  151.8048  145.1873  160.2225 C   0  0  0  0  0  0  0  0  0  0  0  0
  151.2790  143.9812  160.7255 C   0  0  0  0  0  0  0  0  0  0  0  0
  150.9685  142.9250  159.9450 N   0  0  0  0  0  0  0  0  0  0  0  0
  153.2134  139.3945  156.1577 H   0  0  0  0  0  0  0  0  0  0  0  0
  153.4779  137.0880  156.3718 H   0  0  0  0  0  0  0  0  0  0  0  0
  152.6243  137.3572  157.8763 H   0  0  0  0  0  0  0  0  0  0  0  0
  151.7894  135.6362  155.8131 H   0  0  0  0  0  0  0  0  0  0  0  0
  150.6942  136.2798  157.0251 H   0  0  0  0  0  0  0  0  0  0  0  0
  150.5212  136.8447  154.2396 H   0  0  0  0  0  0  0  0  0  0  0  0
  149.6881  137.6901  155.5346 H   0  0  0  0  0  0  0  0  0  0  0  0
  152.3265  138.3825  154.2191 H   0  0  0  0  0  0  0  0  0  0  0  0
  150.4742  140.2053  155.1971 H   0  0  0  0  0  0  0  0  0  0  0  0
  151.8336  144.2588  156.9422 H   0  0  0  0  0  0  0  0  0  0  0  0
  152.4136  146.2056  158.4092 H   0  0  0  0  0  0  0  0  0  0  0  0
  152.0385  146.0072  160.8850 H   0  0  0  0  0  0  0  0  0  0  0  0
  151.1046  143.8611  161.7847 H   0  0  0  0  0  0  0  0  0  0  0  0
  1  2  2  0  0  0  0
  2  3  1  0  0  0  0
  2 10  1  0  0  0  0
  3  4  1  0  0  0  0
  4  8  1  0  0  0  0
  4  5  1  0  0  0  0
  4 19  1  0  0  0  0
  5  6  1  0  0  0  0
  5 20  1  0  0  0  0
  5 21  1  0  0  0  0
  6  7  1  0  0  0  0
  6 22  1  0  0  0  0
  6 23  1  0  0  0  0
  7  8  1  0  0  0  0
  7 24  1  0  0  0  0
  7 25  1  0  0  0  0
  8  9  1  0  0  0  0
  8 26  1  0  0  0  0
  9 27  1  0  0  0  0
 10 11  1  0  0  0  0
 10 12  1  0  0  0  0
 10 13  1  0  0  0  0
 13 18  1  0  0  0  0
 13 14  2  0  0  0  0
 14 15  1  0  0  0  0
 14 28  1  0  0  0  0
 15 16  2  0  0  0  0
 15 29  1  0  0  0  0
 16 17  1  0  0  0  0
 16 30  1  0  0  0  0
 17 18  2  0  0  0  0
 17 31  1  0  0  0  0
M  CHG  1   3  -1
M  END
> <s_m_source_file>
AV-unprocessed.smi

> <i_m_source_file_index>
2807

> <i_lp_mmshare_version>
43012

> <i_f3d_flags>
0

> <s_epik_input>
bjFbY0hdW2NIXVtjSF1bY0hdYzFDKEYpKEYpQyg9TylbTkhdW0NAQEhdMltDSDJdW0NIMl1bQ0gyXVtDQEhdMltPSF0=

> <s_epik_cmdline>
J2VwaWtfcHl0aG9uJywgJy1waCcsICc3LjAnLCAnLXRuJywgJzgnLCAnLW1hJywgJzIwMCcsICctbWV0YWxfYmluZGluZycsICctaW1hZScsICc8aW5maWxlLm1hZT4nLCAnLW9tYWUnLCAnPG91dGZpbGUubWFlPic=

> <r_lp_tautomer_probability>
1

> <r_epik_Ionization_Penalty>
5.72231

> <r_epik_Ionization_Penalty_Charging>
5.72231

> <r_epik_Ionization_Penalty_Neutral>
5.49816e-06

> <r_epik_State_Penalty>
5.72227

> <r_epik_Charging_Adjusted_Penalty>
11.4446

> <i_epik_Tot_Q>
-1

> <i_epik_Tot_abs_Q>
1

> <r_epik_Metal_State_Penalty>
1.70075

> <b_epik_Metal_Only>
1

> <s_lp_Force_Field>
OPLS_2005

> <r_lp_Energy>
37.2022

> <b_lp_Chiralities_Consistent>
1

> <s_lp_Variant>
AV-unprocessed.smi:2807-6

> <Gold.Version>
5.8.1

> <Gold.Id.Protein>
6NUR|6NUR_protein|mol2

> <Gold.PLP.Fitness>
38.8796

> <Gold.PLP.PLP>
-37.7787

> <Gold.PLP.part.hbond>
-2.0000

> <Gold.PLP.part.metal>
0.0000

> <Gold.PLP.part.buried>
-6.4004

> <Gold.PLP.part.nonpolar>
-30.4562

> <Gold.PLP.part.repulsive>
0.0208

> <Gold.PLP.ligand.clash>
0.1247

> <Gold.PLP.ligand.torsion>
0.9212

> <Gold.PLP.Chemscore.Hbond>
1.0000

> <Gold.PLP.Chemscore.CHOScore>
0.0000

> <Gold.PLP.Chemscore.Metal>
0.0000

> <Gold.Chemscore.Hbonds>
donor molecule, donor type, donor heavy atom, donor atom, acceptor molecule, acceptor atom, score
      P1  H  7989  7998       L1     9  1.00

> <Gold.PLP.Chemscore.Internal.Correction>
0.0681

> <Gold.Rescore>
     Score         DG    S(hbond)    S(metal)    S(lipo)     H(rot)  DE(clash)    DE(int)     intcor
     13.10     -14.49       0.96        0.00      93.21       2.00       0.06       1.33       ----

> <Gold.Chemscore.Fitness>
13.1030

> <Gold.Chemscore.DG>
-14.4928

> <Gold.Chemscore.ZeroCoef>
-5.4800

> <Gold.Chemscore.Hbond>
0.9637

> <Gold.Chemscore.Metal>
0.0000

> <Gold.Chemscore.Lipo>
93.2053

> <Gold.Chemscore.Internal_Hbond>
0.0000

> <Gold.Chemscore.DEClash>
0.0559

> <Gold.Chemscore.DEInternal>
1.3339

> <Gold.Chemscore.Rot>
1.9964

> <Gold.Chemscore.Internal.Correction>
   9.000000E+99

> <Gold.Chemscore.Hbonds>
donor molecule, donor type, donor heavy atom, donor atom, acceptor molecule, acceptor atom, score
      P1  H  7989  7998       L1     9  0.63

> <Gold.Chemscore.Hbond.Weighted>
-3.2186

> <Gold.Chemscore.Metal.Weighted>
-0.0000

> <Gold.Chemscore.Lipo.Weighted>
-10.9050

> <Gold.Chemscore.Internal_Hbond.Weighted>
0.0000

> <Gold.Chemscore.DEClash.Weighted>
0.0559

> <Gold.Chemscore.DEInternal.Weighted>
1.3339

> <Gold.Chemscore.Rot.Weighted>
5.1108

> <Gold.Chemscore.Internal.Correction.Weighted>
   9.000000E+99

> <Gold.Protein.RotatedTorsions>
[ 6907 6896 6895 6894 ] final  142.64 input  -60.11 | X-H torsion
[ 7974 7965 7964 7962 ] final -144.79 input  175.53 | X-H torsion
[ 8008 7997 7996 7995 ] final  127.12 input   59.86 | X-H torsion
[ 10167 10162 10161 10158 ] final  125.66 input  -65.29 | X-H torsion
[ 10718 10713 10712 10709 ] final  162.49 input   66.30 | X-H torsion
[ 10763 10752 10751 10750 ] final  -14.33 input  -60.55 | X-H torsion
[ 11005 11000 10999 10996 ] final  129.66 input  -57.11 | X-H torsion

> <Gold.Protein.ActiveResidues>
 VAL166  LYS551  ARG553  GLY616  TRP617  ASP618  TYR619  PRO620  LYS621  CYS622 
 ASP623  PHE694  ASN695  SER759  ASP760  ASP761  ALA762  ILE779  LEU786  VAL792 
 PHE793  MET794  SER795  GLU796  ALA797  LYS798  CYS799  TRP800  GLU811  SER814 

> <Gold.Protein.RotatedAtoms>
  152.2162  133.4948  159.5136 H   0  0  0  0  0  0  0  0  0  0  0  0  # atno 6907 bound_to 6896
  150.7001  134.1403  159.4111 H   0  0  0  0  0  0  0  0  0  0  0  0  # atno 6908 bound_to 6896
  151.9323  135.0251  160.0581 H   0  0  0  0  0  0  0  0  0  0  0  0  # atno 6909 bound_to 6896
  144.8272  140.5665  143.5539 H   0  0  0  0  0  0  0  0  0  0  0  0  # atno 7974 bound_to 7965
  156.2882  140.2676  156.2221 H   0  0  0  0  0  0  0  0  0  0  0  0  # atno 8008 bound_to 7997
  155.0158  140.0387  157.2435 H   0  0  0  0  0  0  0  0  0  0  0  0  # atno 8009 bound_to 7997
  154.7479  140.2737  155.6323 H   0  0  0  0  0  0  0  0  0  0  0  0  # atno 8010 bound_to 7997
  139.5673  144.6919  151.3874 H   0  0  0  0  0  0  0  0  0  0  0  0  # atno 10167 bound_to 10162
  157.1218  131.0494  151.2411 H   0  0  0  0  0  0  0  0  0  0  0  0  # atno 10718 bound_to 10713
  153.5266  135.7015  153.5704 H   0  0  0  0  0  0  0  0  0  0  0  0  # atno 10763 bound_to 10752
  153.3730  135.3940  155.1802 H   0  0  0  0  0  0  0  0  0  0  0  0  # atno 10764 bound_to 10752
  154.8689  135.3816  154.4760 H   0  0  0  0  0  0  0  0  0  0  0  0  # atno 10765 bound_to 10752
  139.9628  134.9598  156.9180 H   0  0  0  0  0  0  0  0  0  0  0  0  # atno 11005 bound_to 11000
  145.4974  139.1485  143.3676 LP  0  0  0  0  0  0  0  0  0  0  0  0  # atno 17320 bound_to 7965
  146.2577  140.5113  142.8866 LP  0  0  0  0  0  0  0  0  0  0  0  0  # atno 17321 bound_to 7965
  140.6957  143.7754  150.7323 LP  0  0  0  0  0  0  0  0  0  0  0  0  # atno 17342 bound_to 10162
  140.1250  143.4578  152.2290 LP  0  0  0  0  0  0  0  0  0  0  0  0  # atno 17343 bound_to 10162
  157.4469  130.7576  149.7118 LP  0  0  0  0  0  0  0  0  0  0  0  0  # atno 17370 bound_to 10713
  155.9827  130.4007  150.3404 LP  0  0  0  0  0  0  0  0  0  0  0  0  # atno 17371 bound_to 10713
  140.5463  134.0671  155.7356 LP  0  0  0  0  0  0  0  0  0  0  0  0  # atno 17394 bound_to 11000
  141.1306  133.9308  157.2543 LP  0  0  0  0  0  0  0  0  0  0  0  0  # atno 17395 bound_to 11000

$$$$
