AV-unprocessed.smi:155|AV-procd|sdf|1270|dock8
  -GOLD-   2262018533D 1   1.00000     0.00000
 Structure written by MMmdl.
 63 66  0  0  0  0  0  0  0  0  2 V2000
  145.9421  132.0327  149.5808 C   0  0  0  0  0  0  0  0  0  0  0  0
  145.4434  132.5977  150.8277 N   0  0  0  0  0  0  0  0  0  0  0  0
  145.8092  131.6936  151.9131 C   0  0  0  0  0  0  0  0  0  0  0  0
  146.0211  133.9289  151.0157 C   0  0  0  0  0  0  0  0  0  0  0  0
  145.9494  134.3937  152.4853 C   0  0  0  0  0  0  0  0  0  0  0  0
  146.4489  135.7842  152.6473 N   0  3  1  0  0  0  0  0  0  0  0  0
  145.8782  136.7030  151.6309 C   0  0  0  0  0  0  0  0  0  0  0  0
  146.5712  138.0756  151.5911 C   0  0  0  0  0  0  0  0  0  0  0  0
  146.1878  138.9878  152.7664 C   0  0  0  0  0  0  0  0  0  0  0  0
  146.9417  138.7170  153.9922 N   0  0  0  0  0  0  0  0  0  0  0  0
  147.0229  139.6997  154.9290 C   0  0  0  0  0  0  0  0  0  0  0  0
  145.8732  140.1956  155.4594 N   0  0  0  0  0  0  0  0  0  0  0  0
  145.9122  141.1594  156.3835 C   0  0  0  0  0  0  0  0  0  0  0  0
  146.9767  141.7629  156.9134 N   0  0  0  0  0  0  0  0  0  0  0  0
  148.1357  141.2757  156.3858 C   0  0  0  0  0  0  0  0  0  0  0  0
  148.2496  140.2604  155.3930 C   0  0  0  0  0  0  0  0  0  0  0  0
  149.5901  140.0575  155.0824 N   0  0  0  0  0  0  0  0  0  0  0  0
  150.2287  140.8934  155.8542 C   0  0  0  0  0  0  0  0  0  0  0  0
  149.4341  141.6511  156.6839 N   0  0  0  0  0  0  0  0  0  0  0  0
  149.8822  142.6539  157.6372 C   0  0  0  0  0  0  0  0  0  0  0  0
  151.3009  143.2198  157.3745 C   0  0  1  0  0  0  0  0  0  0  0  0
  151.3019  144.1178  156.2835 O   0  0  0  0  0  0  0  0  0  0  0  0
  152.0365  143.8882  158.5600 C   0  0  2  0  0  0  0  0  0  0  0  0
  151.9457  143.1175  159.8761 C   0  0  0  0  0  0  0  0  0  0  0  0
  152.3407  144.1819  160.8753 C   0  0  0  0  0  0  0  0  0  0  0  0
  151.7177  145.4423  160.2769 C   0  0  0  0  0  0  0  0  0  0  0  0
  151.5314  145.1782  158.8878 O   0  0  0  0  0  0  0  0  0  0  0  0
  147.3535  137.3629  154.3657 C   0  0  0  0  0  0  0  0  0  0  0  0
  146.3057  136.2878  154.0381 C   0  0  0  0  0  0  0  0  0  0  0  0
  145.6621  132.6607  148.7342 H   0  0  0  0  0  0  0  0  0  0  0  0
  145.5166  131.0431  149.4094 H   0  0  0  0  0  0  0  0  0  0  0  0
  147.0294  131.9400  149.5923 H   0  0  0  0  0  0  0  0  0  0  0  0
  145.4088  132.0287  152.8688 H   0  0  0  0  0  0  0  0  0  0  0  0
  146.8923  131.6032  152.0082 H   0  0  0  0  0  0  0  0  0  0  0  0
  145.4031  130.6979  151.7304 H   0  0  0  0  0  0  0  0  0  0  0  0
  147.0570  133.9286  150.6726 H   0  0  0  0  0  0  0  0  0  0  0  0
  145.4947  134.6457  150.3850 H   0  0  0  0  0  0  0  0  0  0  0  0
  144.9289  134.2983  152.8546 H   0  0  0  0  0  0  0  0  0  0  0  0
  146.5414  133.7276  153.1149 H   0  0  0  0  0  0  0  0  0  0  0  0
  146.0015  136.2479  150.6472 H   0  0  0  0  0  0  0  0  0  0  0  0
  144.8040  136.8156  151.7866 H   0  0  0  0  0  0  0  0  0  0  0  0
  147.6539  137.9713  151.5083 H   0  0  0  0  0  0  0  0  0  0  0  0
  146.2524  138.5735  150.6748 H   0  0  0  0  0  0  0  0  0  0  0  0
  146.3870  140.0178  152.4660 H   0  0  0  0  0  0  0  0  0  0  0  0
  145.1175  138.9255  152.9678 H   0  0  0  0  0  0  0  0  0  0  0  0
  144.9536  141.4937  156.7519 H   0  0  0  0  0  0  0  0  0  0  0  0
  151.3061  140.9736  155.8482 H   0  0  0  0  0  0  0  0  0  0  0  0
  149.1519  143.4628  157.6508 H   0  0  0  0  0  0  0  0  0  0  0  0
  149.8455  142.2078  158.6318 H   0  0  0  0  0  0  0  0  0  0  0  0
  151.9191  142.3826  157.0488 H   0  0  0  0  0  0  0  0  0  0  0  0
  150.4069  144.3320  156.0687 H   0  0  0  0  0  0  0  0  0  0  0  0
  153.0941  144.0019  158.3133 H   0  0  0  0  0  0  0  0  0  0  0  0
  150.9249  142.7891  160.0719 H   0  0  0  0  0  0  0  0  0  0  0  0
  152.5982  142.2442  159.9037 H   0  0  0  0  0  0  0  0  0  0  0  0
  151.9913  143.9714  161.8866 H   0  0  0  0  0  0  0  0  0  0  0  0
  153.4270  144.2789  160.9034 H   0  0  0  0  0  0  0  0  0  0  0  0
  150.7444  145.6447  160.7247 H   0  0  0  0  0  0  0  0  0  0  0  0
  152.3485  146.3186  160.4289 H   0  0  0  0  0  0  0  0  0  0  0  0
  148.3140  137.1274  153.9059 H   0  0  0  0  0  0  0  0  0  0  0  0
  147.5142  137.3217  155.4433 H   0  0  0  0  0  0  0  0  0  0  0  0
  145.2893  136.6324  154.2358 H   0  0  0  0  0  0  0  0  0  0  0  0
  146.4757  135.4617  154.7281 H   0  0  0  0  0  0  0  0  0  0  0  0
  147.4393  135.7334  152.4543 H   0  0  0  0  0  0  0  0  0  0  0  0
  1  2  1  0  0  0  0
  1 30  1  0  0  0  0
  1 31  1  0  0  0  0
  1 32  1  0  0  0  0
  2  3  1  0  0  0  0
  2  4  1  0  0  0  0
  3 33  1  0  0  0  0
  3 34  1  0  0  0  0
  3 35  1  0  0  0  0
  4  5  1  0  0  0  0
  4 36  1  0  0  0  0
  4 37  1  0  0  0  0
  5  6  1  0  0  0  0
  5 38  1  0  0  0  0
  5 39  1  0  0  0  0
  6 29  1  0  0  0  0
  6  7  1  0  0  0  0
  6 63  1  0  0  0  0
  7  8  1  0  0  0  0
  7 40  1  0  0  0  0
  7 41  1  0  0  0  0
  8  9  1  0  0  0  0
  8 42  1  0  0  0  0
  8 43  1  0  0  0  0
  9 10  1  0  0  0  0
  9 44  1  0  0  0  0
  9 45  1  0  0  0  0
 10 11  1  0  0  0  0
 10 28  1  0  0  0  0
 11 16  1  0  0  0  0
 11 12  2  0  0  0  0
 12 13  1  0  0  0  0
 13 14  2  0  0  0  0
 13 46  1  0  0  0  0
 14 15  1  0  0  0  0
 15 19  1  0  0  0  0
 15 16  2  0  0  0  0
 16 17  1  0  0  0  0
 17 18  2  0  0  0  0
 18 19  1  0  0  0  0
 18 47  1  0  0  0  0
 19 20  1  0  0  0  0
 20 21  1  0  0  0  0
 20 48  1  0  0  0  0
 20 49  1  0  0  0  0
 21 22  1  0  0  0  0
 21 23  1  0  0  0  0
 21 50  1  0  0  0  0
 22 51  1  0  0  0  0
 23 27  1  0  0  0  0
 23 24  1  0  0  0  0
 23 52  1  0  0  0  0
 24 25  1  0  0  0  0
 24 53  1  0  0  0  0
 24 54  1  0  0  0  0
 25 26  1  0  0  0  0
 25 55  1  0  0  0  0
 25 56  1  0  0  0  0
 26 27  1  0  0  0  0
 26 57  1  0  0  0  0
 26 58  1  0  0  0  0
 28 29  1  0  0  0  0
 28 59  1  0  0  0  0
 28 60  1  0  0  0  0
 29 61  1  0  0  0  0
 29 62  1  0  0  0  0
M  CHG  1   6   1
M  END
> <s_m_source_file>
AV-unprocessed.smi

> <i_m_source_file_index>
155

> <i_lp_mmshare_version>
43012

> <i_f3d_flags>
0

> <s_epik_input>
W0NIM11OKFtDSDNdKVtDSDJdW0NIMl1OMVtDSDJdW0NIMl1bQ0gyXU4oW0NIMl1bQ0gyXTEpYyhuW2NIXW4yKWMoYzIzKW5bY0hdbjNbQ0gyXVtDQEhdKFtPSF0pW0NAQEhdNFtDSDJdW0NIMl1bQ0gyXU80

> <s_epik_cmdline>
J2VwaWtfcHl0aG9uJywgJy1waCcsICc3LjAnLCAnLXRuJywgJzgnLCAnLW1hJywgJzIwMCcsICctbWV0YWxfYmluZGluZycsICctaW1hZScsICc8aW5maWxlLm1hZT4nLCAnLW9tYWUnLCAnPG91dGZpbGUubWFlPic=

> <r_epik_Ionization_Penalty>
0.0619615

> <r_epik_Ionization_Penalty_Charging>
0.0161638

> <r_epik_Ionization_Penalty_Neutral>
0.0457976

> <r_epik_State_Penalty>
0.403408

> <r_epik_Charging_Adjusted_Penalty>
0.419572

> <i_epik_Tot_Q>
1

> <i_epik_Tot_abs_Q>
1

> <r_epik_Metal_State_Penalty>
0.404222

> <b_epik_Metal_Only>
0

> <s_lp_Force_Field>
OPLS_2005

> <r_lp_Energy>
53.2961

> <b_lp_Chiralities_Consistent>
1

> <s_lp_Variant>
AV-unprocessed.smi:155-4

> <Gold.Version>
5.8.1

> <Gold.Id.Protein>
6NUR|6NUR_protein|mol2

> <Gold.PLP.Fitness>
47.6818

> <Gold.PLP.PLP>
-42.5587

> <Gold.PLP.part.hbond>
-2.0000

> <Gold.PLP.part.metal>
0.0000

> <Gold.PLP.part.buried>
-1.9975

> <Gold.PLP.part.nonpolar>
-38.7886

> <Gold.PLP.part.repulsive>
0.4291

> <Gold.PLP.ligand.clash>
0.0000

> <Gold.PLP.ligand.torsion>
2.0420

> <Gold.PLP.Chemscore.Hbond>
3.0000

> <Gold.PLP.Chemscore.CHOScore>
0.0000

> <Gold.PLP.Chemscore.Metal>
0.0000

> <Gold.Chemscore.Hbonds>
donor molecule, donor type, donor heavy atom, donor atom, acceptor molecule, acceptor atom, score
      L1  H     6    63       P1  7948  2.00
      L1  H    22    51       P1  8028  1.00

> <Gold.PLP.Chemscore.Internal.Correction>
0.2071

> <Gold.Rescore>
     Score         DG    S(hbond)    S(metal)    S(lipo)     H(rot)  DE(clash)    DE(int)     intcor
     17.40     -19.88       1.98        0.00     124.23       2.63       0.71       1.77       ----

> <Gold.Chemscore.Fitness>
17.3959

> <Gold.Chemscore.DG>
-19.8786

> <Gold.Chemscore.ZeroCoef>
-5.4800

> <Gold.Chemscore.Hbond>
1.9766

> <Gold.Chemscore.Metal>
0.0000

> <Gold.Chemscore.Lipo>
124.2346

> <Gold.Chemscore.Internal_Hbond>
0.0000

> <Gold.Chemscore.DEClash>
0.7111

> <Gold.Chemscore.DEInternal>
1.7716

> <Gold.Chemscore.Rot>
2.6324

> <Gold.Chemscore.Internal.Correction>
   9.000000E+99

> <Gold.Chemscore.Hbonds>
donor molecule, donor type, donor heavy atom, donor atom, acceptor molecule, acceptor atom, score
      L1  H     6    63       P1  7948  0.99
      L1  H    22    51       P1  8028  0.98

> <Gold.Chemscore.Hbond.Weighted>
-6.6020

> <Gold.Chemscore.Metal.Weighted>
-0.0000

> <Gold.Chemscore.Lipo.Weighted>
-14.5354

> <Gold.Chemscore.Internal_Hbond.Weighted>
0.0000

> <Gold.Chemscore.DEClash.Weighted>
0.7111

> <Gold.Chemscore.DEInternal.Weighted>
1.7716

> <Gold.Chemscore.Rot.Weighted>
6.7389

> <Gold.Chemscore.Internal.Correction.Weighted>
   9.000000E+99

> <Gold.Protein.RotatedTorsions>
[ 6907 6896 6895 6894 ] final  -60.45 input  -60.11 | X-H torsion
[ 7974 7965 7964 7962 ] final  -79.11 input  175.53 | X-H torsion
[ 8008 7997 7996 7995 ] final   87.97 input   59.86 | X-H torsion
[ 10167 10162 10161 10158 ] final  -78.82 input  -65.29 | X-H torsion
[ 10718 10713 10712 10709 ] final  177.30 input   66.30 | X-H torsion
[ 10763 10752 10751 10750 ] final -131.08 input  -60.55 | X-H torsion
[ 11005 11000 10999 10996 ] final  -57.38 input  -57.11 | X-H torsion

> <Gold.Protein.ActiveResidues>
 VAL166  LYS551  ARG553  GLY616  TRP617  ASP618  TYR619  PRO620  LYS621  CYS622 
 ASP623  PHE694  ASN695  SER759  ASP760  ASP761  ALA762  ILE779  LEU786  VAL792 
 PHE793  MET794  SER795  GLU796  ALA797  LYS798  CYS799  TRP800  GLU811  SER814 

> <Gold.Protein.RotatedAtoms>
  150.7855  134.6835  159.6456 H   0  0  0  0  0  0  0  0  0  0  0  0  # atno 6907 bound_to 6896
  152.3950  134.6377  160.0101 H   0  0  0  0  0  0  0  0  0  0  0  0  # atno 6908 bound_to 6896
  151.6665  133.3278  159.3222 H   0  0  0  0  0  0  0  0  0  0  0  0  # atno 6909 bound_to 6896
  145.5776  140.9454  143.1361 H   0  0  0  0  0  0  0  0  0  0  0  0  # atno 7974 bound_to 7965
  155.9819  140.3376  155.6671 H   0  0  0  0  0  0  0  0  0  0  0  0  # atno 8008 bound_to 7997
  155.6537  140.0708  157.2596 H   0  0  0  0  0  0  0  0  0  0  0  0  # atno 8009 bound_to 7997
  154.4194  140.1721  156.1689 H   0  0  0  0  0  0  0  0  0  0  0  0  # atno 8010 bound_to 7997
  140.4648  143.2443  151.8295 H   0  0  0  0  0  0  0  0  0  0  0  0  # atno 10167 bound_to 10162
  156.9074  130.9898  151.3026 H   0  0  0  0  0  0  0  0  0  0  0  0  # atno 10718 bound_to 10713
  154.8752  135.3841  154.4188 H   0  0  0  0  0  0  0  0  0  0  0  0  # atno 10763 bound_to 10752
  153.4894  135.7030  153.5898 H   0  0  0  0  0  0  0  0  0  0  0  0  # atno 10764 bound_to 10752
  153.4278  135.3886  155.2119 H   0  0  0  0  0  0  0  0  0  0  0  0  # atno 10765 bound_to 10752
  141.1162  133.6610  156.4760 H   0  0  0  0  0  0  0  0  0  0  0  0  # atno 11005 bound_to 11000
  144.7409  139.7452  143.7311 LP  0  0  0  0  0  0  0  0  0  0  0  0  # atno 17320 bound_to 7965
  146.1740  139.4902  142.9909 LP  0  0  0  0  0  0  0  0  0  0  0  0  # atno 17321 bound_to 7965
  139.4810  144.4964  151.9118 LP  0  0  0  0  0  0  0  0  0  0  0  0  # atno 17342 bound_to 10162
  140.4050  144.2444  150.5891 LP  0  0  0  0  0  0  0  0  0  0  0  0  # atno 17343 bound_to 10162
  157.5989  130.8498  149.8771 LP  0  0  0  0  0  0  0  0  0  0  0  0  # atno 17370 bound_to 10713
  156.0552  130.3710  150.1107 LP  0  0  0  0  0  0  0  0  0  0  0  0  # atno 17371 bound_to 10713
  140.4639  134.6815  157.5098 LP  0  0  0  0  0  0  0  0  0  0  0  0  # atno 17394 bound_to 11000
  140.0086  134.6726  155.9416 LP  0  0  0  0  0  0  0  0  0  0  0  0  # atno 17395 bound_to 11000

$$$$
