AV-unprocessed.smi:283|AV-procd|sdf|2152|dock2
  -GOLD-   2262021493D 1   1.00000     0.00000
 Structure written by MMmdl.
 48 51  0  0  0  0  0  0  0  0  1 V2000
  149.2491  141.5710  156.7491 C   0  0  0  0  0  0  0  0  0  0  0  0
  150.5074  141.0492  157.4702 C   0  0  1  0  0  0  0  0  0  0  0  0
  151.5027  140.5295  156.5343 N   0  0  0  0  0  0  0  0  0  0  0  0
  151.3031  139.3828  155.8479 C   0  0  0  0  0  0  0  0  0  0  0  0
  151.9158  139.1564  154.6567 N   0  0  0  0  0  0  0  0  0  0  0  0
  151.6970  138.0135  154.0006 C   0  0  0  0  0  0  0  0  0  0  0  0
  150.9181  136.9874  154.3494 N   0  0  0  0  0  0  0  0  0  0  0  0
  150.2946  137.2106  155.5424 C   0  0  0  0  0  0  0  0  0  0  0  0
  150.4339  138.3778  156.3446 C   0  0  0  0  0  0  0  0  0  0  0  0
  149.6518  138.2619  157.4854 N   0  0  0  0  0  0  0  0  0  0  0  0
  149.0847  137.0925  157.3604 C   0  0  0  0  0  0  0  0  0  0  0  0
  149.4204  136.3874  156.2256 N   0  0  0  0  0  0  0  0  0  0  0  0
  148.9206  135.0346  155.8246 C   0  0  1  0  0  0  0  0  0  0  0  0
  148.3304  135.1450  154.5609 O   0  0  0  0  0  0  0  0  0  0  0  0
  148.9934  134.2811  153.6440 C   0  0  2  0  0  0  0  0  0  0  0  0
  148.1189  133.8941  152.4326 C   0  0  0  0  0  0  0  0  0  0  0  0
  147.5559  135.0027  151.7626 O   0  0  0  0  0  0  0  0  0  0  0  0
  149.6639  133.1977  154.5003 C   0  0  2  0  0  0  0  0  0  0  0  0
  148.7658  132.1526  154.8357 O   0  0  0  0  0  0  0  0  0  0  0  0
  150.0696  134.0139  155.7255 C   0  0  2  0  0  0  0  0  0  0  0  0
  150.2025  133.2000  156.8753 O   0  0  0  0  0  0  0  0  0  0  0  0
  151.0793  142.1056  158.4145 C   0  0  0  0  0  0  0  0  0  0  0  0
  150.5829  143.4248  158.3119 C   0  0  0  0  0  0  0  0  0  0  0  0
  151.0646  144.4449  159.1535 C   0  0  0  0  0  0  0  0  0  0  0  0
  152.0556  144.1574  160.1083 C   0  0  0  0  0  0  0  0  0  0  0  0
  152.5633  142.8501  160.2171 C   0  0  0  0  0  0  0  0  0  0  0  0
  152.0848  141.8223  159.3792 C   0  0  0  0  0  0  0  0  0  0  0  0
  152.7660  140.2434  159.5712 Cl  0  0  0  0  0  0  0  0  0  0  0  0
  148.1609  134.7717  156.5621 H   0  0  0  0  0  0  0  0  0  0  0  0
  149.8059  134.8762  153.2277 H   0  0  0  0  0  0  0  0  0  0  0  0
  150.5277  132.7620  153.9971 H   0  0  0  0  0  0  0  0  0  0  0  0
  151.0096  134.5306  155.5288 H   0  0  0  0  0  0  0  0  0  0  0  0
  148.5026  141.9080  157.4688 H   0  0  0  0  0  0  0  0  0  0  0  0
  148.7819  140.7973  156.1403 H   0  0  0  0  0  0  0  0  0  0  0  0
  149.4738  142.4096  156.0911 H   0  0  0  0  0  0  0  0  0  0  0  0
  150.1981  140.2141  158.0999 H   0  0  0  0  0  0  0  0  0  0  0  0
  152.2743  141.1510  156.3375 H   0  0  0  0  0  0  0  0  0  0  0  0
  152.2203  137.9059  153.0621 H   0  0  0  0  0  0  0  0  0  0  0  0
  148.4005  136.7075  158.1028 H   0  0  0  0  0  0  0  0  0  0  0  0
  148.7068  133.3151  151.7198 H   0  0  0  0  0  0  0  0  0  0  0  0
  147.3022  133.2515  152.7625 H   0  0  0  0  0  0  0  0  0  0  0  0
  148.2098  135.6826  151.7051 H   0  0  0  0  0  0  0  0  0  0  0  0
  148.3114  132.3926  155.6295 H   0  0  0  0  0  0  0  0  0  0  0  0
  150.4413  132.3295  156.5942 H   0  0  0  0  0  0  0  0  0  0  0  0
  149.8216  143.6628  157.5834 H   0  0  0  0  0  0  0  0  0  0  0  0
  150.6728  145.4476  159.0661 H   0  0  0  0  0  0  0  0  0  0  0  0
  152.4267  144.9380  160.7558 H   0  0  0  0  0  0  0  0  0  0  0  0
  153.3272  142.6348  160.9499 H   0  0  0  0  0  0  0  0  0  0  0  0
  1  2  1  0  0  0  0
  1 33  1  0  0  0  0
  1 34  1  0  0  0  0
  1 35  1  0  0  0  0
  2  3  1  0  0  0  0
  2 22  1  0  0  0  0
  2 36  1  0  0  0  0
  3  4  1  0  0  0  0
  3 37  1  0  0  0  0
  4  9  1  0  0  0  0
  4  5  2  0  0  0  0
  5  6  1  0  0  0  0
  6  7  2  0  0  0  0
  6 38  1  0  0  0  0
  7  8  1  0  0  0  0
  8 12  1  0  0  0  0
  8  9  2  0  0  0  0
  9 10  1  0  0  0  0
 10 11  2  0  0  0  0
 11 12  1  0  0  0  0
 11 39  1  0  0  0  0
 12 13  1  0  0  0  0
 13 29  1  0  0  0  0
 13 20  1  0  0  0  0
 13 14  1  0  0  0  0
 14 15  1  0  0  0  0
 15 30  1  0  0  0  0
 15 16  1  0  0  0  0
 15 18  1  0  0  0  0
 16 17  1  0  0  0  0
 16 40  1  0  0  0  0
 16 41  1  0  0  0  0
 17 42  1  0  0  0  0
 18 31  1  0  0  0  0
 18 19  1  0  0  0  0
 18 20  1  0  0  0  0
 19 43  1  0  0  0  0
 20 32  1  0  0  0  0
 20 21  1  0  0  0  0
 21 44  1  0  0  0  0
 22 27  1  0  0  0  0
 22 23  2  0  0  0  0
 23 24  1  0  0  0  0
 23 45  1  0  0  0  0
 24 25  2  0  0  0  0
 24 46  1  0  0  0  0
 25 26  1  0  0  0  0
 25 47  1  0  0  0  0
 26 27  2  0  0  0  0
 26 48  1  0  0  0  0
 27 28  1  0  0  0  0
M  END
> <s_m_source_file>
AV-unprocessed.smi

> <i_m_source_file_index>
283

> <i_lp_mmshare_version>
43012

> <i_f3d_flags>
0

> <s_epik_input>
Q2xjMVtjSF1bY0hdW2NIXVtjSF1jMVtDQEhdKFtDSDNdKVtOSF1jKG5bY0hdbjIpYyhjMjMpbltjSF1uM1tDQEBIXTRPW0NASF0oW0NIMl1bT0hdKVtDQEBIXShbT0hdKVtDQEhdNFtPSF0=

> <s_epik_cmdline>
J2VwaWtfcHl0aG9uJywgJy1waCcsICc3LjAnLCAnLXRuJywgJzgnLCAnLW1hJywgJzIwMCcsICctbWV0YWxfYmluZGluZycsICctaW1hZScsICc8aW5maWxlLm1hZT4nLCAnLW9tYWUnLCAnPG91dGZpbGUubWFlPic=

> <r_lp_tautomer_probability>
1

> <r_epik_Ionization_Penalty>
0.000266407

> <r_epik_Ionization_Penalty_Charging>
0

> <r_epik_Ionization_Penalty_Neutral>
0.000266407

> <r_epik_State_Penalty>
-0

> <r_epik_Charging_Adjusted_Penalty>
0

> <i_epik_Tot_Q>
0

> <i_epik_Tot_abs_Q>
0

> <r_epik_Metal_State_Penalty>
-0

> <b_epik_Metal_Only>
0

> <s_epik_Chemistry_Notes>
This compound contains an acetal/aminal-like group ( X-CH(R)-Y where X, Y are N, S, or O) that may be acid/base labile, releasing an aldehyde.

> <s_lp_Force_Field>
OPLS_2005

> <r_lp_Energy>
54.2889

> <b_lp_Chiralities_Consistent>
1

> <s_lp_Variant>
AV-unprocessed.smi:283-28

> <Gold.Version>
5.8.1

> <Gold.Id.Protein>
6NUR|6NUR_protein|mol2

> <Gold.PLP.Fitness>
56.1029

> <Gold.PLP.PLP>
-44.9057

> <Gold.PLP.part.hbond>
-3.5513

> <Gold.PLP.part.metal>
0.0000

> <Gold.PLP.part.buried>
-8.2035

> <Gold.PLP.part.nonpolar>
-34.1009

> <Gold.PLP.part.repulsive>
0.4377

> <Gold.PLP.ligand.clash>
0.0000

> <Gold.PLP.ligand.torsion>
0.4776

> <Gold.PLP.Chemscore.Hbond>
3.1165

> <Gold.PLP.Chemscore.CHOScore>
0.8964

> <Gold.PLP.Chemscore.Metal>
0.0000

> <Gold.Chemscore.Hbonds>
donor molecule, donor type, donor heavy atom, donor atom, acceptor molecule, acceptor atom, score
      P1  H  7989  7998       L1     5  0.86
      L1  C     6    38       P1  7949  0.42

> <Gold.PLP.Chemscore.Internal.Correction>
0.1136

> <Gold.Rescore>
     Score         DG    S(hbond)    S(metal)    S(lipo)     H(rot)  DE(clash)    DE(int)     intcor
     15.26     -16.03       2.60        0.00     105.55       4.10       0.05       0.72       ----

> <Gold.Chemscore.Fitness>
15.2640

> <Gold.Chemscore.DG>
-16.0322

> <Gold.Chemscore.ZeroCoef>
-5.4800

> <Gold.Chemscore.Hbond>
2.6020

> <Gold.Chemscore.Metal>
0.0000

> <Gold.Chemscore.Lipo>
105.5495

> <Gold.Chemscore.Internal_Hbond>
0.0000

> <Gold.Chemscore.DEClash>
0.0522

> <Gold.Chemscore.DEInternal>
0.7160

> <Gold.Chemscore.Rot>
4.0968

> <Gold.Chemscore.Internal.Correction>
   9.000000E+99

> <Gold.Chemscore.Hbonds>
donor molecule, donor type, donor heavy atom, donor atom, acceptor molecule, acceptor atom, score
      P1  H  7989  7998       L1     5  0.46

> <Gold.Chemscore.Hbond.Weighted>
-8.6908

> <Gold.Chemscore.Metal.Weighted>
-0.0000

> <Gold.Chemscore.Lipo.Weighted>
-12.3493

> <Gold.Chemscore.Internal_Hbond.Weighted>
0.0000

> <Gold.Chemscore.DEClash.Weighted>
0.0522

> <Gold.Chemscore.DEInternal.Weighted>
0.7160

> <Gold.Chemscore.Rot.Weighted>
10.4879

> <Gold.Chemscore.Internal.Correction.Weighted>
   9.000000E+99

> <Gold.Protein.RotatedTorsions>
[ 6907 6896 6895 6894 ] final  -47.13 input  -60.11 | X-H torsion
[ 7974 7965 7964 7962 ] final  115.47 input  175.53 | X-H torsion
[ 8008 7997 7996 7995 ] final  -92.31 input   59.86 | X-H torsion
[ 10167 10162 10161 10158 ] final   -7.17 input  -65.29 | X-H torsion
[ 10718 10713 10712 10709 ] final -120.52 input   66.30 | X-H torsion
[ 10763 10752 10751 10750 ] final   61.61 input  -60.55 | X-H torsion
[ 11005 11000 10999 10996 ] final  167.20 input  -57.11 | X-H torsion

> <Gold.Protein.ActiveResidues>
 VAL166  LYS551  ARG553  GLY616  TRP617  ASP618  TYR619  PRO620  LYS621  CYS622 
 ASP623  PHE694  ASN695  SER759  ASP760  ASP761  ALA762  ILE779  LEU786  VAL792 
 PHE793  MET794  SER795  GLU796  ALA797  LYS798  CYS799  TRP800  GLU811  SER814 

> <Gold.Protein.RotatedAtoms>
  150.9040  134.8454  159.7379 H   0  0  0  0  0  0  0  0  0  0  0  0  # atno 6907 bound_to 6896
  152.4908  134.4460  159.9569 H   0  0  0  0  0  0  0  0  0  0  0  0  # atno 6908 bound_to 6896
  151.4508  133.3579  159.2830 H   0  0  0  0  0  0  0  0  0  0  0  0  # atno 6909 bound_to 6896
  145.1916  139.2997  143.4365 H   0  0  0  0  0  0  0  0  0  0  0  0  # atno 7974 bound_to 7965
  154.7215  140.0510  157.0644 H   0  0  0  0  0  0  0  0  0  0  0  0  # atno 8008 bound_to 7997
  155.0421  140.3170  155.4702 H   0  0  0  0  0  0  0  0  0  0  0  0  # atno 8009 bound_to 7997
  156.2817  140.2131  156.5545 H   0  0  0  0  0  0  0  0  0  0  0  0  # atno 8010 bound_to 7997
  140.7020  143.6111  150.8703 H   0  0  0  0  0  0  0  0  0  0  0  0  # atno 10167 bound_to 10162
  156.1264  130.6362  150.9550 H   0  0  0  0  0  0  0  0  0  0  0  0  # atno 10718 bound_to 10713
  152.9956  135.5494  154.6061 H   0  0  0  0  0  0  0  0  0  0  0  0  # atno 10763 bound_to 10752
  154.5392  135.2818  155.1113 H   0  0  0  0  0  0  0  0  0  0  0  0  # atno 10764 bound_to 10752
  154.2398  135.6418  153.5256 H   0  0  0  0  0  0  0  0  0  0  0  0  # atno 10765 bound_to 10752
  140.2743  134.7801  157.3703 H   0  0  0  0  0  0  0  0  0  0  0  0  # atno 11005 bound_to 11000
  146.3435  140.2131  142.8590 LP  0  0  0  0  0  0  0  0  0  0  0  0  # atno 17320 bound_to 7965
  145.0035  140.8653  143.5267 LP  0  0  0  0  0  0  0  0  0  0  0  0  # atno 17321 bound_to 7965
  139.9834  143.5926  152.2935 LP  0  0  0  0  0  0  0  0  0  0  0  0  # atno 17342 bound_to 10162
  139.6555  144.7662  151.2064 LP  0  0  0  0  0  0  0  0  0  0  0  0  # atno 17343 bound_to 10162
  157.6445  131.0906  150.8181 LP  0  0  0  0  0  0  0  0  0  0  0  0  # atno 17370 bound_to 10713
  156.8271  130.5003  149.5336 LP  0  0  0  0  0  0  0  0  0  0  0  0  # atno 17371 bound_to 10713
  140.1343  134.5054  155.8081 LP  0  0  0  0  0  0  0  0  0  0  0  0  # atno 17394 bound_to 11000
  141.2172  133.6801  156.7096 LP  0  0  0  0  0  0  0  0  0  0  0  0  # atno 17395 bound_to 11000

$$$$
