AV-unprocessed.smi:1974|AV-procd|sdf|7980|dock1
  -GOLD-   2272010163D 1   1.00000     0.00000
 Structure written by MMmdl.
 34 35  0  0  0  0  0  0  0  0  1 V2000
  154.8806  140.3265  161.0181 C   0  0  0  0  0  0  0  0  0  0  0  0
  153.9151  141.2452  160.2530 C   0  0  2  0  0  0  0  0  0  0  0  0
  153.4018  142.3906  161.1470 C   0  0  0  0  0  0  0  0  0  0  0  0
  152.7584  143.4457  160.3843 N   0  0  0  0  0  0  0  0  0  0  0  0
  152.7074  143.6058  159.0154 C   0  0  0  0  0  0  0  0  0  0  0  0
  151.9934  144.7427  158.7658 C   0  0  0  0  0  0  0  0  0  0  0  0
  151.6433  145.2132  160.0623 C   0  0  0  0  0  0  0  0  0  0  0  0
  152.1017  144.4343  161.0288 N   0  0  0  0  0  0  0  0  0  0  0  0
  152.7893  140.4660  159.7409 N   0  0  0  0  0  0  0  0  0  0  0  0
  152.8763  139.4633  158.8539 C   0  0  0  0  0  0  0  0  0  0  0  0
  153.9383  139.0950  158.3506 O   0  0  0  0  0  0  0  0  0  0  0  0
  151.5538  138.7917  158.4655 C   0  0  0  0  0  0  0  0  0  0  0  0
  151.3490  138.7489  157.0174 N   0  0  0  0  0  0  0  0  0  0  0  0
  150.3283  139.5978  156.4173 C   0  0  0  0  0  0  0  0  0  0  0  0
  150.5938  139.6546  154.9117 C   0  0  0  0  0  0  0  0  0  0  0  0
  151.5309  138.1789  154.4667 S   0  0  0  0  0  0  0  0  0  0  0  0
  152.0373  137.8948  156.1658 C   0  0  0  0  0  0  0  0  0  0  0  0
  152.8795  137.0514  156.4689 O   0  0  0  0  0  0  0  0  0  0  0  0
  155.7358  140.8865  161.3970 H   0  0  0  0  0  0  0  0  0  0  0  0
  155.2680  139.5351  160.3755 H   0  0  0  0  0  0  0  0  0  0  0  0
  154.3886  139.8538  161.8689 H   0  0  0  0  0  0  0  0  0  0  0  0
  154.4603  141.6854  159.4155 H   0  0  0  0  0  0  0  0  0  0  0  0
  152.6959  142.0129  161.8881 H   0  0  0  0  0  0  0  0  0  0  0  0
  154.2289  142.8333  161.7040 H   0  0  0  0  0  0  0  0  0  0  0  0
  153.1797  142.9064  158.3413 H   0  0  0  0  0  0  0  0  0  0  0  0
  151.7564  145.1729  157.8039 H   0  0  0  0  0  0  0  0  0  0  0  0
  151.0732  146.0912  160.3280 H   0  0  0  0  0  0  0  0  0  0  0  0
  151.8743  140.7040  160.0952 H   0  0  0  0  0  0  0  0  0  0  0  0
  151.5205  137.7763  158.8651 H   0  0  0  0  0  0  0  0  0  0  0  0
  150.7363  139.3360  158.9400 H   0  0  0  0  0  0  0  0  0  0  0  0
  149.3516  139.1533  156.6136 H   0  0  0  0  0  0  0  0  0  0  0  0
  150.3328  140.5963  156.8562 H   0  0  0  0  0  0  0  0  0  0  0  0
  149.6733  139.7276  154.3322 H   0  0  0  0  0  0  0  0  0  0  0  0
  151.2065  140.5251  154.6749 H   0  0  0  0  0  0  0  0  0  0  0  0
  1  2  1  0  0  0  0
  1 19  1  0  0  0  0
  1 20  1  0  0  0  0
  1 21  1  0  0  0  0
  2  3  1  0  0  0  0
  2  9  1  0  0  0  0
  2 22  1  0  0  0  0
  3  4  1  0  0  0  0
  3 23  1  0  0  0  0
  3 24  1  0  0  0  0
  4  8  1  0  0  0  0
  4  5  1  0  0  0  0
  5  6  2  0  0  0  0
  5 25  1  0  0  0  0
  6  7  1  0  0  0  0
  6 26  1  0  0  0  0
  7  8  2  0  0  0  0
  7 27  1  0  0  0  0
  9 10  1  0  0  0  0
  9 28  1  0  0  0  0
 10 11  2  0  0  0  0
 10 12  1  0  0  0  0
 12 13  1  0  0  0  0
 12 29  1  0  0  0  0
 12 30  1  0  0  0  0
 13 17  1  0  0  0  0
 13 14  1  0  0  0  0
 14 15  1  0  0  0  0
 14 31  1  0  0  0  0
 14 32  1  0  0  0  0
 15 16  1  0  0  0  0
 15 33  1  0  0  0  0
 15 34  1  0  0  0  0
 16 17  1  0  0  0  0
 17 18  2  0  0  0  0
M  END
> <s_m_source_file>
AV-unprocessed.smi

> <i_m_source_file_index>
1974

> <i_lp_mmshare_version>
43012

> <i_f3d_flags>
0

> <s_epik_input>
bjFbY0hdW2NIXVtjSF1uMVtDSDJdW0NAQEhdKFtDSDNdKVtOSF1DKD1PKVtDSDJdTjJbQ0gyXVtDSDJdU0MyPU8=

> <s_epik_cmdline>
J2VwaWtfcHl0aG9uJywgJy1waCcsICc3LjAnLCAnLXRuJywgJzgnLCAnLW1hJywgJzIwMCcsICctbWV0YWxfYmluZGluZycsICctaW1hZScsICc8aW5maWxlLm1hZT4nLCAnLW9tYWUnLCAnPG91dGZpbGUubWFlPic=

> <r_lp_tautomer_probability>
1

> <r_epik_Ionization_Penalty>
0.000283364

> <r_epik_Ionization_Penalty_Charging>
0

> <r_epik_Ionization_Penalty_Neutral>
0.000283364

> <r_epik_State_Penalty>
-0

> <r_epik_Charging_Adjusted_Penalty>
0

> <i_epik_Tot_Q>
0

> <i_epik_Tot_abs_Q>
0

> <r_epik_Metal_State_Penalty>
-0

> <b_epik_Metal_Only>
0

> <s_lp_Force_Field>
OPLS_2005

> <r_lp_Energy>
2.8686

> <b_lp_Chiralities_Consistent>
1

> <s_lp_Variant>
AV-unprocessed.smi:1974-1

> <Gold.Version>
5.8.1

> <Gold.Id.Protein>
6NUR|6NUR_protein|mol2

> <Gold.PLP.Fitness>
46.2097

> <Gold.PLP.PLP>
-41.4350

> <Gold.PLP.part.hbond>
-2.0000

> <Gold.PLP.part.metal>
0.0000

> <Gold.PLP.part.buried>
-3.9065

> <Gold.PLP.part.nonpolar>
-36.0510

> <Gold.PLP.part.repulsive>
0.2561

> <Gold.PLP.ligand.clash>
0.0000

> <Gold.PLP.ligand.torsion>
0.3586

> <Gold.PLP.Chemscore.Hbond>
1.8160

> <Gold.PLP.Chemscore.CHOScore>
0.0000

> <Gold.PLP.Chemscore.Metal>
0.0000

> <Gold.Chemscore.Hbonds>
donor molecule, donor type, donor heavy atom, donor atom, acceptor molecule, acceptor atom, score
      P1  H  7997  8010       L1    11  1.00
      P1  H 10752 10763       L1    18  0.72

> <Gold.PLP.Chemscore.Internal.Correction>
0.0439

> <Gold.Rescore>
     Score         DG    S(hbond)    S(metal)    S(lipo)     H(rot)  DE(clash)    DE(int)     intcor
     17.06     -17.64       1.92        0.00      93.78       2.04       0.06       0.52       ----

> <Gold.Chemscore.Fitness>
17.0623

> <Gold.Chemscore.DG>
-17.6412

> <Gold.Chemscore.ZeroCoef>
-5.4800

> <Gold.Chemscore.Hbond>
1.9201

> <Gold.Chemscore.Metal>
0.0000

> <Gold.Chemscore.Lipo>
93.7762

> <Gold.Chemscore.Internal_Hbond>
0.0000

> <Gold.Chemscore.DEClash>
0.0580

> <Gold.Chemscore.DEInternal>
0.5209

> <Gold.Chemscore.Rot>
2.0405

> <Gold.Chemscore.Internal.Correction>
   9.000000E+99

> <Gold.Chemscore.Hbonds>
donor molecule, donor type, donor heavy atom, donor atom, acceptor molecule, acceptor atom, score
      P1  H  7997  8010       L1    11  0.99
      P1  H 10752 10763       L1    18  0.69

> <Gold.Chemscore.Hbond.Weighted>
-6.4131

> <Gold.Chemscore.Metal.Weighted>
-0.0000

> <Gold.Chemscore.Lipo.Weighted>
-10.9718

> <Gold.Chemscore.Internal_Hbond.Weighted>
0.0000

> <Gold.Chemscore.DEClash.Weighted>
0.0580

> <Gold.Chemscore.DEInternal.Weighted>
0.5209

> <Gold.Chemscore.Rot.Weighted>
5.2237

> <Gold.Chemscore.Internal.Correction.Weighted>
   9.000000E+99

> <Gold.Protein.RotatedTorsions>
[ 6907 6896 6895 6894 ] final   18.05 input  -60.11 | X-H torsion
[ 7974 7965 7964 7962 ] final  119.84 input  175.53 | X-H torsion
[ 8008 7997 7996 7995 ] final   22.29 input   59.86 | X-H torsion
[ 10167 10162 10161 10158 ] final  156.89 input  -65.29 | X-H torsion
[ 10718 10713 10712 10709 ] final -140.00 input   66.30 | X-H torsion
[ 10763 10752 10751 10750 ] final  106.36 input  -60.55 | X-H torsion
[ 11005 11000 10999 10996 ] final    3.99 input  -57.11 | X-H torsion

> <Gold.Protein.ActiveResidues>
 VAL166  LYS551  ARG553  GLY616  TRP617  ASP618  TYR619  PRO620  LYS621  CYS622 
 ASP623  PHE694  ASN695  SER759  ASP760  ASP761  ALA762  ILE779  LEU786  VAL792 
 PHE793  MET794  SER795  GLU796  ALA797  LYS798  CYS799  TRP800  GLU811  SER814 

> <Gold.Protein.RotatedAtoms>
  151.8592  135.0530  160.0467 H   0  0  0  0  0  0  0  0  0  0  0  0  # atno 6907 bound_to 6896
  152.2676  133.5349  159.5428 H   0  0  0  0  0  0  0  0  0  0  0  0  # atno 6908 bound_to 6896
  150.7139  134.0658  159.3889 H   0  0  0  0  0  0  0  0  0  0  0  0  # atno 6909 bound_to 6896
  145.1383  139.3284  143.4629 H   0  0  0  0  0  0  0  0  0  0  0  0  # atno 7974 bound_to 7965
  154.9634  140.3081  155.5020 H   0  0  0  0  0  0  0  0  0  0  0  0  # atno 8008 bound_to 7997
  156.2974  140.2297  156.4660 H   0  0  0  0  0  0  0  0  0  0  0  0  # atno 8009 bound_to 7997
  154.7943  140.0438  157.1213 H   0  0  0  0  0  0  0  0  0  0  0  0  # atno 8010 bound_to 7997
  139.4822  144.4968  151.8228 H   0  0  0  0  0  0  0  0  0  0  0  0  # atno 10167 bound_to 10162
  156.3173  130.7515  151.1604 H   0  0  0  0  0  0  0  0  0  0  0  0  # atno 10718 bound_to 10713
  153.3919  135.3879  155.1929 H   0  0  0  0  0  0  0  0  0  0  0  0  # atno 10763 bound_to 10752
  154.8720  135.3750  154.4727 H   0  0  0  0  0  0  0  0  0  0  0  0  # atno 10764 bound_to 10752
  153.5215  135.7087  153.5791 H   0  0  0  0  0  0  0  0  0  0  0  0  # atno 10765 bound_to 10752
  140.5869  133.9960  155.8072 H   0  0  0  0  0  0  0  0  0  0  0  0  # atno 11005 bound_to 11000
  146.3507  140.1410  142.8594 LP  0  0  0  0  0  0  0  0  0  0  0  0  # atno 17320 bound_to 7965
  145.0560  140.9052  143.4967 LP  0  0  0  0  0  0  0  0  0  0  0  0  # atno 17321 bound_to 7965
  140.4457  144.1925  150.5894 LP  0  0  0  0  0  0  0  0  0  0  0  0  # atno 17342 bound_to 10162
  140.4637  143.2439  151.9184 LP  0  0  0  0  0  0  0  0  0  0  0  0  # atno 17343 bound_to 10162
  157.7404  131.0517  150.5167 LP  0  0  0  0  0  0  0  0  0  0  0  0  # atno 17370 bound_to 10713
  156.5315  130.4186  149.6199 LP  0  0  0  0  0  0  0  0  0  0  0  0  # atno 17371 bound_to 10713
  141.0960  133.9843  157.3159 LP  0  0  0  0  0  0  0  0  0  0  0  0  # atno 17394 bound_to 11000
  139.9291  135.0200  156.8339 LP  0  0  0  0  0  0  0  0  0  0  0  0  # atno 17395 bound_to 11000

$$$$
