AV-unprocessed.smi:72|AV-procd|sdf|670|dock3
  -GOLD-   2262016573D 1   1.00000     0.00000
 Structure written by MMmdl.
 29 30  0  0  0  0  0  0  0  0  1 V2000
  153.3118  138.6739  156.0298 N   0  0  0  0  0  0  0  0  0  0  0  0
  152.1640  138.9695  155.5323 C   0  0  0  0  0  0  0  0  0  0  0  0
  151.4492  138.1804  154.6182 N   0  0  0  0  0  0  0  0  0  0  0  0
  150.2995  138.6067  154.1945 C   0  0  0  0  0  0  0  0  0  0  0  0
  149.7341  139.8741  154.6315 N   0  0  0  0  0  0  0  0  0  0  0  0
  148.3895  140.3432  154.1163 C   0  0  1  0  0  0  0  0  0  0  0  0
  148.0283  139.5439  153.0324 O   0  0  0  0  0  0  0  0  0  0  0  0
  146.6225  139.3444  153.0498 C   0  0  1  0  0  0  0  0  0  0  0  0
  146.2636  138.0806  152.2531 C   0  0  0  0  0  0  0  0  0  0  0  0
  146.6441  138.2330  150.9022 O   0  0  0  0  0  0  0  0  0  0  0  0
  146.3175  139.2319  154.5468 C   0  0  2  0  0  0  0  0  0  0  0  0
  144.9709  139.5732  154.8068 O   0  0  0  0  0  0  0  0  0  0  0  0
  147.2600  140.2553  155.1681 C   0  0  1  0  0  0  0  0  0  0  0  0
  147.6778  139.8367  156.4554 O   0  0  0  0  0  0  0  0  0  0  0  0
  150.4322  140.6733  155.5685 C   0  0  0  0  0  0  0  0  0  0  0  0
  149.9839  141.7357  155.9987 O   0  0  0  0  0  0  0  0  0  0  0  0
  151.6257  140.1867  155.9729 N   0  0  0  0  0  0  0  0  0  0  0  0
  148.5306  141.3585  153.7430 H   0  0  0  0  0  0  0  0  0  0  0  0
  146.1316  140.2284  152.6364 H   0  0  0  0  0  0  0  0  0  0  0  0
  146.5405  138.2254  154.9052 H   0  0  0  0  0  0  0  0  0  0  0  0
  146.7913  141.2387  155.2334 H   0  0  0  0  0  0  0  0  0  0  0  0
  153.6375  137.7888  155.6703 H   0  0  0  0  0  0  0  0  0  0  0  0
  149.6817  138.0452  153.4921 H   0  0  0  0  0  0  0  0  0  0  0  0
  146.7305  137.1940  152.6834 H   0  0  0  0  0  0  0  0  0  0  0  0
  145.1854  137.9199  152.2712 H   0  0  0  0  0  0  0  0  0  0  0  0
  145.8786  138.4636  150.3983 H   0  0  0  0  0  0  0  0  0  0  0  0
  144.6072  139.9623  154.0259 H   0  0  0  0  0  0  0  0  0  0  0  0
  147.3472  138.9645  156.6082 H   0  0  0  0  0  0  0  0  0  0  0  0
  152.1501  140.7358  156.6380 H   0  0  0  0  0  0  0  0  0  0  0  0
  1  2  2  0  0  0  0
  1 22  1  0  0  0  0
  2 17  1  0  0  0  0
  2  3  1  0  0  0  0
  3  4  2  0  0  0  0
  4  5  1  0  0  0  0
  4 23  1  0  0  0  0
  5  6  1  0  0  0  0
  5 15  1  0  0  0  0
  6 18  1  0  0  0  0
  6 13  1  0  0  0  0
  6  7  1  0  0  0  0
  7  8  1  0  0  0  0
  8 19  1  0  0  0  0
  8  9  1  0  0  0  0
  8 11  1  0  0  0  0
  9 10  1  0  0  0  0
  9 24  1  0  0  0  0
  9 25  1  0  0  0  0
 10 26  1  0  0  0  0
 11 20  1  0  0  0  0
 11 12  1  0  0  0  0
 11 13  1  0  0  0  0
 12 27  1  0  0  0  0
 13 21  1  0  0  0  0
 13 14  1  0  0  0  0
 14 28  1  0  0  0  0
 15 16  2  0  0  0  0
 15 17  1  0  0  0  0
 17 29  1  0  0  0  0
M  END
> <s_m_source_file>
AV-unprocessed.smi

> <i_m_source_file_index>
72

> <i_lp_mmshare_version>
43012

> <i_f3d_flags>
0

> <s_epik_input>
W05IMl1jMW5bY0hdbihjKD1PKW4xKVtDQEBIXTJPW0NASF0oW0NIMl1bT0hdKVtDQEBIXShbT0hdKVtDQEhdMltPSF0=

> <s_epik_cmdline>
J2VwaWtfcHl0aG9uJywgJy1waCcsICc3LjAnLCAnLXRuJywgJzgnLCAnLW1hJywgJzIwMCcsICctbWV0YWxfYmluZGluZycsICctaW1hZScsICc8aW5maWxlLm1hZT4nLCAnLW9tYWUnLCAnPG91dGZpbGUubWFlPic=

> <r_lp_tautomer_probability>
7.17554e-07

> <r_epik_Ionization_Penalty>
0.0066451

> <r_epik_Ionization_Penalty_Charging>
0.00663793

> <r_epik_Ionization_Penalty_Neutral>
7.17052e-06

> <r_epik_State_Penalty>
0.419231

> <r_epik_Charging_Adjusted_Penalty>
0.425868

> <i_epik_Tot_Q>
0

> <i_epik_Tot_abs_Q>
0

> <r_epik_Metal_State_Penalty>
1.44144

> <b_epik_Metal_Only>
0

> <s_epik_Chemistry_Notes>
This compound contains an acetal/aminal-like group ( X-CH(R)-Y where X, Y are N, S, or O) that may be acid/base labile, releasing an aldehyde.

> <s_lp_Force_Field>
OPLS_2005

> <r_lp_Energy>
43.9506

> <b_lp_Chiralities_Consistent>
1

> <s_lp_Variant>
AV-unprocessed.smi:72-8

> <Gold.Version>
5.8.1

> <Gold.Id.Protein>
6NUR|6NUR_protein|mol2

> <Gold.PLP.Fitness>
37.5819

> <Gold.PLP.PLP>
-23.2473

> <Gold.PLP.part.hbond>
-4.4082

> <Gold.PLP.part.metal>
0.0000

> <Gold.PLP.part.buried>
-5.0778

> <Gold.PLP.part.nonpolar>
-19.0066

> <Gold.PLP.part.repulsive>
4.7380

> <Gold.PLP.ligand.clash>
0.0000

> <Gold.PLP.ligand.torsion>
0.2640

> <Gold.PLP.Chemscore.Hbond>
3.9120

> <Gold.PLP.Chemscore.CHOScore>
1.0000

> <Gold.PLP.Chemscore.Metal>
0.0000

> <Gold.Chemscore.Hbonds>
donor molecule, donor type, donor heavy atom, donor atom, acceptor molecule, acceptor atom, score
      L1  H    10    26       P1 10171  0.89
      L1  H    12    27       P1 10175  1.00
      P1  H  7954  7966       L1    10  1.00
      P1  H  7997  8010       L1     1  0.94
      L1  C     4    23       P1  7948  1.00

> <Gold.PLP.Chemscore.Internal.Correction>
0.1266

> <Gold.Rescore>
     Score         DG    S(hbond)    S(metal)    S(lipo)     H(rot)  DE(clash)    DE(int)     intcor
      7.96     -10.32       3.86        0.00      19.98       4.06       1.79       0.57       ----

> <Gold.Chemscore.Fitness>
7.9618

> <Gold.Chemscore.DG>
-10.3230

> <Gold.Chemscore.ZeroCoef>
-5.4800

> <Gold.Chemscore.Hbond>
3.8620

> <Gold.Chemscore.Metal>
0.0000

> <Gold.Chemscore.Lipo>
19.9785

> <Gold.Chemscore.Internal_Hbond>
0.0000

> <Gold.Chemscore.DEClash>
1.7889

> <Gold.Chemscore.DEInternal>
0.5724

> <Gold.Chemscore.Rot>
4.0600

> <Gold.Chemscore.Internal.Correction>
   9.000000E+99

> <Gold.Chemscore.Hbonds>
donor molecule, donor type, donor heavy atom, donor atom, acceptor molecule, acceptor atom, score
      L1  H    10    26       P1 10171  0.85
      L1  H    12    27       P1 10175  1.00
      P1  H  7954  7966       L1    10  0.86
      P1  H  7997  8010       L1     1  0.74

> <Gold.Chemscore.Hbond.Weighted>
-12.8991

> <Gold.Chemscore.Metal.Weighted>
-0.0000

> <Gold.Chemscore.Lipo.Weighted>
-2.3375

> <Gold.Chemscore.Internal_Hbond.Weighted>
0.0000

> <Gold.Chemscore.DEClash.Weighted>
1.7889

> <Gold.Chemscore.DEInternal.Weighted>
0.5724

> <Gold.Chemscore.Rot.Weighted>
10.3936

> <Gold.Chemscore.Internal.Correction.Weighted>
   9.000000E+99

> <Gold.Protein.RotatedTorsions>
[ 6907 6896 6895 6894 ] final -148.86 input  -60.11 | X-H torsion
[ 7974 7965 7964 7962 ] final   36.54 input  175.53 | X-H torsion
[ 8008 7997 7996 7995 ] final   87.12 input   59.86 | X-H torsion
[ 10167 10162 10161 10158 ] final  -32.35 input  -65.29 | X-H torsion
[ 10718 10713 10712 10709 ] final   16.63 input   66.30 | X-H torsion
[ 10763 10752 10751 10750 ] final   36.97 input  -60.55 | X-H torsion
[ 11005 11000 10999 10996 ] final  131.60 input  -57.11 | X-H torsion

> <Gold.Protein.ActiveResidues>
 VAL166  LYS551  ARG553  GLY616  TRP617  ASP618  TYR619  PRO620  LYS621  CYS622 
 ASP623  PHE694  ASN695  SER759  ASP760  ASP761  ALA762  ILE779  LEU786  VAL792 
 PHE793  MET794  SER795  GLU796  ALA797  LYS798  CYS799  TRP800  GLU811  SER814 

> <Gold.Protein.RotatedAtoms>
  151.1758  133.4756  159.2593 H   0  0  0  0  0  0  0  0  0  0  0  0  # atno 6907 bound_to 6896
  151.1309  135.0130  159.8592 H   0  0  0  0  0  0  0  0  0  0  0  0  # atno 6908 bound_to 6896
  152.5460  134.1661  159.8630 H   0  0  0  0  0  0  0  0  0  0  0  0  # atno 6909 bound_to 6896
  146.1203  139.6004  142.9294 H   0  0  0  0  0  0  0  0  0  0  0  0  # atno 7974 bound_to 7965
  155.9713  140.3385  155.6578 H   0  0  0  0  0  0  0  0  0  0  0  0  # atno 8008 bound_to 7997
  155.6670  140.0722  157.2552 H   0  0  0  0  0  0  0  0  0  0  0  0  # atno 8009 bound_to 7997
  154.4167  140.1698  156.1826 H   0  0  0  0  0  0  0  0  0  0  0  0  # atno 8010 bound_to 7997
  140.7222  143.3702  151.1794 H   0  0  0  0  0  0  0  0  0  0  0  0  # atno 10167 bound_to 10162
  157.0706  130.6346  149.5805 H   0  0  0  0  0  0  0  0  0  0  0  0  # atno 10718 bound_to 10713
  153.0056  135.6291  154.2070 H   0  0  0  0  0  0  0  0  0  0  0  0  # atno 10763 bound_to 10752
  154.1813  135.2813  155.3053 H   0  0  0  0  0  0  0  0  0  0  0  0  # atno 10764 bound_to 10752
  154.5832  135.5641  153.7265 H   0  0  0  0  0  0  0  0  0  0  0  0  # atno 10765 bound_to 10752
  139.9740  134.9569  156.9462 H   0  0  0  0  0  0  0  0  0  0  0  0  # atno 11005 bound_to 11000
  145.5479  141.0415  143.2294 LP  0  0  0  0  0  0  0  0  0  0  0  0  # atno 17320 bound_to 7965
  144.7591  139.7001  143.7242 LP  0  0  0  0  0  0  0  0  0  0  0  0  # atno 17321 bound_to 7965
  139.7271  143.9131  152.3006 LP  0  0  0  0  0  0  0  0  0  0  0  0  # atno 17342 bound_to 10162
  139.8907  144.6967  150.8773 LP  0  0  0  0  0  0  0  0  0  0  0  0  # atno 17343 bound_to 10162
  155.9951  130.5017  150.7447 LP  0  0  0  0  0  0  0  0  0  0  0  0  # atno 17370 bound_to 10713
  157.4881  131.0908  151.0459 LP  0  0  0  0  0  0  0  0  0  0  0  0  # atno 17371 bound_to 10713
  140.5233  134.0885  155.7297 LP  0  0  0  0  0  0  0  0  0  0  0  0  # atno 17394 bound_to 11000
  141.1418  133.9124  157.2307 LP  0  0  0  0  0  0  0  0  0  0  0  0  # atno 17395 bound_to 11000

$$$$
