AV-unprocessed.smi:2438|AV-procd|sdf|9598|dock2
  -GOLD-   2272013233D 1   1.00000     0.00000
 Structure written by MMmdl.
 43 44  0  0  0  0  0  0  0  0  1 V2000
  148.2666  131.6450  156.2800 C   0  0  0  0  0  0  0  0  0  0  0  0
  148.9587  132.2442  155.1471 N   0  0  0  0  0  0  0  0  0  0  0  0
  149.3068  131.3408  154.0572 C   0  0  0  0  0  0  0  0  0  0  0  0
  149.9466  133.1750  155.5269 C   0  0  0  0  0  0  0  0  0  0  0  0
  150.9965  132.7253  156.2563 N   0  0  0  0  0  0  0  0  0  0  0  0
  151.9168  133.6162  156.6286 C   0  0  0  0  0  0  0  0  0  0  0  0
  151.9211  134.9200  156.3522 N   0  0  0  0  0  0  0  0  0  0  0  0
  150.8865  135.3900  155.6252 C   0  0  0  0  0  0  0  0  0  0  0  0
  149.8379  134.5474  155.1803 C   0  0  0  0  0  0  0  0  0  0  0  0
  148.7573  135.0023  154.3750 N   0  0  0  0  0  0  0  0  0  0  0  0
  147.4615  134.6636  154.4671 C   0  0  0  0  0  0  0  0  0  0  0  0
  146.9777  133.9328  155.3313 O   0  0  0  0  0  0  0  0  0  0  0  0
  146.7500  135.2054  153.4692 N   0  0  0  0  0  0  0  0  0  0  0  0
  145.3247  134.9878  153.2268 C   0  0  1  0  0  0  0  0  0  0  0  0
  144.7504  136.1295  152.3665 C   0  0  0  0  0  0  0  0  0  0  0  0
  145.2590  136.0739  150.9156 C   0  0  0  0  0  0  0  0  0  0  0  0
  144.9875  134.7023  150.2772 C   0  0  0  0  0  0  0  0  0  0  0  0
  145.5963  133.5545  151.1101 C   0  0  2  0  0  0  0  0  0  0  0  0
  145.3499  132.1753  150.4658 C   0  0  0  0  0  0  0  0  0  0  0  0
  144.0442  131.9278  150.3586 F   0  0  0  0  0  0  0  0  0  0  0  0
  145.8975  132.1355  149.2510 F   0  0  0  0  0  0  0  0  0  0  0  0
  145.9110  131.2186  151.2053 F   0  0  0  0  0  0  0  0  0  0  0  0
  145.0675  133.6178  152.5608 C   0  0  0  0  0  0  0  0  0  0  0  0
  147.8333  132.4002  156.9356 H   0  0  0  0  0  0  0  0  0  0  0  0
  148.9551  131.0375  156.8684 H   0  0  0  0  0  0  0  0  0  0  0  0
  147.4573  131.0016  155.9336 H   0  0  0  0  0  0  0  0  0  0  0  0
  149.7831  131.8825  153.2390 H   0  0  0  0  0  0  0  0  0  0  0  0
  148.4098  130.8626  153.6635 H   0  0  0  0  0  0  0  0  0  0  0  0
  149.9865  130.5600  154.4000 H   0  0  0  0  0  0  0  0  0  0  0  0
  152.7462  133.2415  157.2099 H   0  0  0  0  0  0  0  0  0  0  0  0
  150.9262  136.4411  155.3845 H   0  0  0  0  0  0  0  0  0  0  0  0
  149.0207  135.5475  153.5669 H   0  0  0  0  0  0  0  0  0  0  0  0
  147.2354  135.7942  152.8083 H   0  0  0  0  0  0  0  0  0  0  0  0
  144.8146  135.0077  154.1917 H   0  0  0  0  0  0  0  0  0  0  0  0
  143.6619  136.0600  152.3633 H   0  0  0  0  0  0  0  0  0  0  0  0
  144.9902  137.0964  152.8106 H   0  0  0  0  0  0  0  0  0  0  0  0
  144.7802  136.8567  150.3265 H   0  0  0  0  0  0  0  0  0  0  0  0
  146.3290  136.2835  150.8903 H   0  0  0  0  0  0  0  0  0  0  0  0
  143.9112  134.5561  150.1776 H   0  0  0  0  0  0  0  0  0  0  0  0
  145.3938  134.6891  149.2655 H   0  0  0  0  0  0  0  0  0  0  0  0
  146.6768  133.7036  151.1397 H   0  0  0  0  0  0  0  0  0  0  0  0
  145.5120  132.8218  153.1589 H   0  0  0  0  0  0  0  0  0  0  0  0
  143.9943  133.4233  152.5600 H   0  0  0  0  0  0  0  0  0  0  0  0
  1  2  1  0  0  0  0
  1 24  1  0  0  0  0
  1 25  1  0  0  0  0
  1 26  1  0  0  0  0
  2  3  1  0  0  0  0
  2  4  1  0  0  0  0
  3 27  1  0  0  0  0
  3 28  1  0  0  0  0
  3 29  1  0  0  0  0
  4  9  1  0  0  0  0
  4  5  2  0  0  0  0
  5  6  1  0  0  0  0
  6  7  2  0  0  0  0
  6 30  1  0  0  0  0
  7  8  1  0  0  0  0
  8  9  2  0  0  0  0
  8 31  1  0  0  0  0
  9 10  1  0  0  0  0
 10 11  1  0  0  0  0
 10 32  1  0  0  0  0
 11 12  2  0  0  0  0
 11 13  1  0  0  0  0
 13 14  1  0  0  0  0
 13 33  1  0  0  0  0
 14 23  1  0  0  0  0
 14 15  1  0  0  0  0
 14 34  1  0  0  0  0
 15 16  1  0  0  0  0
 15 35  1  0  0  0  0
 15 36  1  0  0  0  0
 16 17  1  0  0  0  0
 16 37  1  0  0  0  0
 16 38  1  0  0  0  0
 17 18  1  0  0  0  0
 17 39  1  0  0  0  0
 17 40  1  0  0  0  0
 18 19  1  0  0  0  0
 18 23  1  0  0  0  0
 18 41  1  0  0  0  0
 19 20  1  0  0  0  0
 19 21  1  0  0  0  0
 19 22  1  0  0  0  0
 23 42  1  0  0  0  0
 23 43  1  0  0  0  0
M  END
> <s_m_source_file>
AV-unprocessed.smi

> <i_m_source_file_index>
2438

> <i_lp_mmshare_version>
43012

> <i_f3d_flags>
0

> <s_epik_input>
W0NIM11OKFtDSDNdKWMxbltjSF1uW2NIXWMxW05IXUMoPU8pW05IXVtDQEBIXTJbQ0gyXVtDSDJdW0NIMl1bQ0BASF0oQyhGKShGKUYpW0NIMl0y

> <s_epik_cmdline>
J2VwaWtfcHl0aG9uJywgJy1waCcsICc3LjAnLCAnLXRuJywgJzgnLCAnLW1hJywgJzIwMCcsICctbWV0YWxfYmluZGluZycsICctaW1hZScsICc8aW5maWxlLm1hZT4nLCAnLW9tYWUnLCAnPG91dGZpbGUubWFlPic=

> <r_lp_tautomer_probability>
1

> <r_epik_Ionization_Penalty>
0.01759

> <r_epik_Ionization_Penalty_Charging>
0

> <r_epik_Ionization_Penalty_Neutral>
0.01759

> <r_epik_State_Penalty>
0.0133536

> <r_epik_Charging_Adjusted_Penalty>
0.0133536

> <i_epik_Tot_Q>
0

> <i_epik_Tot_abs_Q>
0

> <r_epik_Metal_State_Penalty>
0.0129828

> <b_epik_Metal_Only>
0

> <s_lp_Force_Field>
OPLS_2005

> <r_lp_Energy>
8.79066

> <b_lp_Chiralities_Consistent>
1

> <s_lp_Variant>
AV-unprocessed.smi:2438-4

> <Gold.Version>
5.8.1

> <Gold.Id.Protein>
6NUR|6NUR_protein|mol2

> <Gold.PLP.Fitness>
41.0522

> <Gold.PLP.PLP>
-33.3948

> <Gold.PLP.part.hbond>
-3.0000

> <Gold.PLP.part.metal>
0.0000

> <Gold.PLP.part.buried>
-1.0712

> <Gold.PLP.part.nonpolar>
-28.6635

> <Gold.PLP.part.repulsive>
0.0215

> <Gold.PLP.ligand.clash>
0.0000

> <Gold.PLP.ligand.torsion>
0.8108

> <Gold.PLP.Chemscore.Hbond>
2.9680

> <Gold.PLP.Chemscore.CHOScore>
0.0000

> <Gold.PLP.Chemscore.Metal>
0.0000

> <Gold.Chemscore.Hbonds>
donor molecule, donor type, donor heavy atom, donor atom, acceptor molecule, acceptor atom, score
      L1  H    10    32       P1  7948  1.00
      L1  H    13    33       P1  7948  0.96
      P1  H 10752 10765       L1     7  0.91

> <Gold.PLP.Chemscore.Internal.Correction>
0.3751

> <Gold.Rescore>
     Score         DG    S(hbond)    S(metal)    S(lipo)     H(rot)  DE(clash)    DE(int)     intcor
      9.80     -15.26       1.94        0.00      56.66       1.30       0.64       4.82       ----

> <Gold.Chemscore.Fitness>
9.7959

> <Gold.Chemscore.DG>
-15.2618

> <Gold.Chemscore.ZeroCoef>
-5.4800

> <Gold.Chemscore.Hbond>
1.9393

> <Gold.Chemscore.Metal>
0.0000

> <Gold.Chemscore.Lipo>
56.6591

> <Gold.Chemscore.Internal_Hbond>
0.0000

> <Gold.Chemscore.DEClash>
0.6444

> <Gold.Chemscore.DEInternal>
4.8214

> <Gold.Chemscore.Rot>
1.2987

> <Gold.Chemscore.Internal.Correction>
   9.000000E+99

> <Gold.Chemscore.Hbonds>
donor molecule, donor type, donor heavy atom, donor atom, acceptor molecule, acceptor atom, score
      L1  H    10    32       P1  7948  0.74
      L1  H    13    33       P1  7948  0.89
      P1  H 10752 10765       L1     7  0.19

> <Gold.Chemscore.Hbond.Weighted>
-6.4772

> <Gold.Chemscore.Metal.Weighted>
-0.0000

> <Gold.Chemscore.Lipo.Weighted>
-6.6291

> <Gold.Chemscore.Internal_Hbond.Weighted>
0.0000

> <Gold.Chemscore.DEClash.Weighted>
0.6444

> <Gold.Chemscore.DEInternal.Weighted>
4.8214

> <Gold.Chemscore.Rot.Weighted>
3.3246

> <Gold.Chemscore.Internal.Correction.Weighted>
   9.000000E+99

> <Gold.Protein.RotatedTorsions>
[ 6907 6896 6895 6894 ] final  -12.47 input  -60.11 | X-H torsion
[ 7974 7965 7964 7962 ] final -174.99 input  175.53 | X-H torsion
[ 8008 7997 7996 7995 ] final  -43.60 input   59.86 | X-H torsion
[ 10167 10162 10161 10158 ] final  -13.86 input  -65.29 | X-H torsion
[ 10718 10713 10712 10709 ] final   70.45 input   66.30 | X-H torsion
[ 10763 10752 10751 10750 ] final -133.91 input  -60.55 | X-H torsion
[ 11005 11000 10999 10996 ] final   78.90 input  -57.11 | X-H torsion

> <Gold.Protein.ActiveResidues>
 VAL166  LYS551  ARG553  GLY616  TRP617  ASP618  TYR619  PRO620  LYS621  CYS622 
 ASP623  PHE694  ASN695  SER759  ASP760  ASP761  ALA762  ILE779  LEU786  VAL792 
 PHE793  MET794  SER795  GLU796  ALA797  LYS798  CYS799  TRP800  GLU811  SER814 

> <Gold.Protein.RotatedAtoms>
  151.3700  135.0920  159.9461 H   0  0  0  0  0  0  0  0  0  0  0  0  # atno 6907 bound_to 6896
  152.5138  133.9174  159.7528 H   0  0  0  0  0  0  0  0  0  0  0  0  # atno 6908 bound_to 6896
  150.9586  133.6415  159.2787 H   0  0  0  0  0  0  0  0  0  0  0  0  # atno 6909 bound_to 6896
  144.7129  140.1388  143.6393 H   0  0  0  0  0  0  0  0  0  0  0  0  # atno 7974 bound_to 7965
  154.3997  140.1443  156.3546 H   0  0  0  0  0  0  0  0  0  0  0  0  # atno 8008 bound_to 7997
  155.8237  140.3468  155.5509 H   0  0  0  0  0  0  0  0  0  0  0  0  # atno 8009 bound_to 7997
  155.8261  140.0905  157.1811 H   0  0  0  0  0  0  0  0  0  0  0  0  # atno 8010 bound_to 7997
  140.7190  143.5382  150.9440 H   0  0  0  0  0  0  0  0  0  0  0  0  # atno 10167 bound_to 10162
  157.6400  130.9478  150.0652 H   0  0  0  0  0  0  0  0  0  0  0  0  # atno 10718 bound_to 10713
  154.8726  135.3751  154.4650 H   0  0  0  0  0  0  0  0  0  0  0  0  # atno 10763 bound_to 10752
  153.5315  135.7027  153.5686 H   0  0  0  0  0  0  0  0  0  0  0  0  # atno 10764 bound_to 10752
  153.3889  135.3977  155.1874 H   0  0  0  0  0  0  0  0  0  0  0  0  # atno 10765 bound_to 10752
  139.9194  134.7800  156.1709 H   0  0  0  0  0  0  0  0  0  0  0  0  # atno 11005 bound_to 11000
  145.9221  139.2552  143.1375 LP  0  0  0  0  0  0  0  0  0  0  0  0  # atno 17320 bound_to 7965
  145.9610  140.8836  143.0211 LP  0  0  0  0  0  0  0  0  0  0  0  0  # atno 17321 bound_to 7965
  139.9104  143.6727  152.3116 LP  0  0  0  0  0  0  0  0  0  0  0  0  # atno 17342 bound_to 10162
  139.7108  144.7620  151.1115 LP  0  0  0  0  0  0  0  0  0  0  0  0  # atno 17343 bound_to 10162
  156.1673  130.3645  149.9214 LP  0  0  0  0  0  0  0  0  0  0  0  0  # atno 17370 bound_to 10713
  156.7198  130.9002  151.3617 LP  0  0  0  0  0  0  0  0  0  0  0  0  # atno 17371 bound_to 10713
  141.0701  133.6801  156.2123 LP  0  0  0  0  0  0  0  0  0  0  0  0  # atno 17394 bound_to 11000
  140.6521  134.5056  157.5578 LP  0  0  0  0  0  0  0  0  0  0  0  0  # atno 17395 bound_to 11000

$$$$
