AV-unprocessed.smi:3333|AV-procd|sdf|12834|dock8
  -GOLD-   2272019213D 1   1.00000     0.00000
 Structure written by MMmdl.
 41 43  0  0  0  0  0  0  0  0  1 V2000
  147.7453  136.4137  162.9527 C   0  0  0  0  0  0  0  0  0  0  0  0
  147.1800  135.6875  161.7276 C   0  0  0  0  0  0  0  0  0  0  0  0
  147.8482  136.0991  160.4590 C   0  0  0  0  0  0  0  0  0  0  0  0
  148.9738  136.8172  160.4182 N   0  0  0  0  0  0  0  0  0  0  0  0
  149.3812  137.1072  159.1117 C   0  0  0  0  0  0  0  0  0  0  0  0
  150.6311  137.9050  158.8746 C   0  0  0  0  0  0  0  0  0  0  0  0
  150.2975  139.2771  158.2809 C   0  0  0  0  0  0  0  0  0  0  0  0
  149.1465  139.5399  157.9301 O   0  0  0  0  0  0  0  0  0  0  0  0
  151.3175  140.1411  158.1611 N   0  0  0  0  0  0  0  0  0  0  0  0
  151.2191  141.4841  157.5987 C   0  0  0  0  0  0  0  0  0  0  0  0
  151.1635  142.5741  158.6915 C   0  0  1  0  0  0  0  0  0  0  0  0
  152.4114  142.5802  159.6023 C   0  0  0  0  0  0  0  0  0  0  0  0
  152.8957  144.0393  159.5209 C   0  0  2  0  0  0  0  0  0  0  0  0
  151.8918  144.9593  160.2410 C   0  0  0  0  0  0  0  0  0  0  0  0
  150.6908  144.9716  159.2763 C   0  0  0  0  0  0  0  0  0  0  0  0
  151.1503  144.0250  158.1513 C   0  0  1  0  0  0  0  0  0  0  0  0
  152.6338  144.3681  158.0571 C   0  0  0  0  0  0  0  0  0  0  0  0
  148.5390  136.5921  158.1568 C   0  0  0  0  0  0  0  0  0  0  0  0
  147.1932  135.7434  158.8650 S   0  0  0  0  0  0  0  0  0  0  0  0
  147.2328  136.0986  163.8616 H   0  0  0  0  0  0  0  0  0  0  0  0
  147.6258  137.4935  162.8596 H   0  0  0  0  0  0  0  0  0  0  0  0
  148.8078  136.2032  163.0790 H   0  0  0  0  0  0  0  0  0  0  0  0
  147.2872  134.6091  161.8498 H   0  0  0  0  0  0  0  0  0  0  0  0
  146.1118  135.8873  161.6387 H   0  0  0  0  0  0  0  0  0  0  0  0
  151.1912  138.0233  159.8035 H   0  0  0  0  0  0  0  0  0  0  0  0
  151.2919  137.3824  158.1824 H   0  0  0  0  0  0  0  0  0  0  0  0
  152.2301  139.8441  158.4745 H   0  0  0  0  0  0  0  0  0  0  0  0
  152.0647  141.6628  156.9321 H   0  0  0  0  0  0  0  0  0  0  0  0
  150.3255  141.5227  156.9754 H   0  0  0  0  0  0  0  0  0  0  0  0
  150.2755  142.4018  159.3014 H   0  0  0  0  0  0  0  0  0  0  0  0
  152.1802  142.2760  160.6238 H   0  0  0  0  0  0  0  0  0  0  0  0
  153.1813  141.9058  159.2245 H   0  0  0  0  0  0  0  0  0  0  0  0
  153.9271  144.1759  159.8471 H   0  0  0  0  0  0  0  0  0  0  0  0
  151.6266  144.5868  161.2311 H   0  0  0  0  0  0  0  0  0  0  0  0
  152.2987  145.9644  160.3581 H   0  0  0  0  0  0  0  0  0  0  0  0
  149.7676  144.6394  159.7526 H   0  0  0  0  0  0  0  0  0  0  0  0
  150.5219  145.9771  158.8888 H   0  0  0  0  0  0  0  0  0  0  0  0
  150.5890  144.1568  157.2261 H   0  0  0  0  0  0  0  0  0  0  0  0
  152.8215  145.4144  157.8088 H   0  0  0  0  0  0  0  0  0  0  0  0
  153.1877  143.7331  157.3640 H   0  0  0  0  0  0  0  0  0  0  0  0
  148.6232  136.6721  157.0831 H   0  0  0  0  0  0  0  0  0  0  0  0
  1  2  1  0  0  0  0
  1 20  1  0  0  0  0
  1 21  1  0  0  0  0
  1 22  1  0  0  0  0
  2  3  1  0  0  0  0
  2 23  1  0  0  0  0
  2 24  1  0  0  0  0
  3 19  1  0  0  0  0
  3  4  2  0  0  0  0
  4  5  1  0  0  0  0
  5  6  1  0  0  0  0
  5 18  2  0  0  0  0
  6  7  1  0  0  0  0
  6 25  1  0  0  0  0
  6 26  1  0  0  0  0
  7  8  2  0  0  0  0
  7  9  1  0  0  0  0
  9 10  1  0  0  0  0
  9 27  1  0  0  0  0
 10 11  1  0  0  0  0
 10 28  1  0  0  0  0
 10 29  1  0  0  0  0
 11 16  1  0  0  0  0
 11 12  1  0  0  0  0
 11 30  1  0  0  0  0
 12 13  1  0  0  0  0
 12 31  1  0  0  0  0
 12 32  1  0  0  0  0
 13 17  1  0  0  0  0
 13 14  1  0  0  0  0
 13 33  1  0  0  0  0
 14 15  1  0  0  0  0
 14 34  1  0  0  0  0
 14 35  1  0  0  0  0
 15 16  1  0  0  0  0
 15 36  1  0  0  0  0
 15 37  1  0  0  0  0
 16 17  1  0  0  0  0
 16 38  1  0  0  0  0
 17 39  1  0  0  0  0
 17 40  1  0  0  0  0
 18 19  1  0  0  0  0
 18 41  1  0  0  0  0
M  END
> <s_m_source_file>
AV-unprocessed.smi

> <i_m_source_file_index>
3333

> <i_lp_mmshare_version>
43012

> <i_f3d_flags>
0

> <s_epik_input>
W0NIM11bQ0gyXWMxbmMoW2NIXXMxKVtDSDJdQyg9TylbTkhdW0NIMl1bQ0BIXShbQ0gyXVtDQEBIXTIzKVtDQEBIXShbQ0gyXTMpW0NIMl1bQ0gyXTI=

> <s_epik_cmdline>
J2VwaWtfcHl0aG9uJywgJy1waCcsICc3LjAnLCAnLXRuJywgJzgnLCAnLW1hJywgJzIwMCcsICctbWV0YWxfYmluZGluZycsICctaW1hZScsICc8aW5maWxlLm1hZT4nLCAnLW9tYWUnLCAnPG91dGZpbGUubWFlPic=

> <r_lp_tautomer_probability>
1

> <r_epik_Ionization_Penalty>
6.68371e-05

> <r_epik_Ionization_Penalty_Charging>
0

> <r_epik_Ionization_Penalty_Neutral>
6.68371e-05

> <r_epik_State_Penalty>
-0

> <r_epik_Charging_Adjusted_Penalty>
0

> <i_epik_Tot_Q>
0

> <i_epik_Tot_abs_Q>
0

> <r_epik_Metal_State_Penalty>
-0

> <b_epik_Metal_Only>
0

> <s_lp_Force_Field>
OPLS_2005

> <r_lp_Energy>
43.9975

> <b_lp_Chiralities_Consistent>
1

> <s_lp_Variant>
AV-unprocessed.smi:3333-4

> <Gold.Version>
5.8.1

> <Gold.Id.Protein>
6NUR|6NUR_protein|mol2

> <Gold.PLP.Fitness>
45.0428

> <Gold.PLP.PLP>
-43.5687

> <Gold.PLP.part.hbond>
-1.0000

> <Gold.PLP.part.metal>
0.0000

> <Gold.PLP.part.buried>
-7.0258

> <Gold.PLP.part.nonpolar>
-36.5133

> <Gold.PLP.part.repulsive>
0.1131

> <Gold.PLP.ligand.clash>
0.0000

> <Gold.PLP.ligand.torsion>
0.4064

> <Gold.PLP.Chemscore.Hbond>
0.7520

> <Gold.PLP.Chemscore.CHOScore>
0.0000

> <Gold.PLP.Chemscore.Metal>
0.0000

> <Gold.Chemscore.Hbonds>
donor molecule, donor type, donor heavy atom, donor atom, acceptor molecule, acceptor atom, score
      P1  H  6931  6943       L1     4  0.71

> <Gold.PLP.Chemscore.Internal.Correction>
0.0308

> <Gold.Rescore>
     Score         DG    S(hbond)    S(metal)    S(lipo)     H(rot)  DE(clash)    DE(int)     intcor
     19.39     -19.83       0.82        0.00     130.44       1.42       0.08       0.36       ----

> <Gold.Chemscore.Fitness>
19.3919

> <Gold.Chemscore.DG>
-19.8280

> <Gold.Chemscore.ZeroCoef>
-5.4800

> <Gold.Chemscore.Hbond>
0.8170

> <Gold.Chemscore.Metal>
0.0000

> <Gold.Chemscore.Lipo>
130.4385

> <Gold.Chemscore.Internal_Hbond>
0.0000

> <Gold.Chemscore.DEClash>
0.0802

> <Gold.Chemscore.DEInternal>
0.3560

> <Gold.Chemscore.Rot>
1.4227

> <Gold.Chemscore.Internal.Correction>
   9.000000E+99

> <Gold.Chemscore.Hbonds>
donor molecule, donor type, donor heavy atom, donor atom, acceptor molecule, acceptor atom, score
      P1  H  6931  6943       L1     4  0.55

> <Gold.Chemscore.Hbond.Weighted>
-2.7288

> <Gold.Chemscore.Metal.Weighted>
-0.0000

> <Gold.Chemscore.Lipo.Weighted>
-15.2613

> <Gold.Chemscore.Internal_Hbond.Weighted>
0.0000

> <Gold.Chemscore.DEClash.Weighted>
0.0802

> <Gold.Chemscore.DEInternal.Weighted>
0.3560

> <Gold.Chemscore.Rot.Weighted>
3.6421

> <Gold.Chemscore.Internal.Correction.Weighted>
   9.000000E+99

> <Gold.Protein.RotatedTorsions>
[ 6907 6896 6895 6894 ] final -109.86 input  -60.11 | X-H torsion
[ 7974 7965 7964 7962 ] final  -12.79 input  175.53 | X-H torsion
[ 8008 7997 7996 7995 ] final    5.04 input   59.86 | X-H torsion
[ 10167 10162 10161 10158 ] final -145.01 input  -65.29 | X-H torsion
[ 10718 10713 10712 10709 ] final  135.27 input   66.30 | X-H torsion
[ 10763 10752 10751 10750 ] final   21.47 input  -60.55 | X-H torsion
[ 11005 11000 10999 10996 ] final -116.06 input  -57.11 | X-H torsion

> <Gold.Protein.ActiveResidues>
 VAL166  LYS551  ARG553  GLY616  TRP617  ASP618  TYR619  PRO620  LYS621  CYS622 
 ASP623  PHE694  ASN695  SER759  ASP760  ASP761  ALA762  ILE779  LEU786  VAL792 
 PHE793  MET794  SER795  GLU796  ALA797  LYS798  CYS799  TRP800  GLU811  SER814 

> <Gold.Protein.RotatedAtoms>
  150.7588  133.9467  159.3472 H   0  0  0  0  0  0  0  0  0  0  0  0  # atno 6907 bound_to 6896
  151.7381  135.0858  160.0320 H   0  0  0  0  0  0  0  0  0  0  0  0  # atno 6908 bound_to 6896
  152.3546  133.6184  159.6006 H   0  0  0  0  0  0  0  0  0  0  0  0  # atno 6909 bound_to 6896
  146.2139  140.3109  142.8382 H   0  0  0  0  0  0  0  0  0  0  0  0  # atno 7974 bound_to 7965
  154.7234  140.2716  155.6521 H   0  0  0  0  0  0  0  0  0  0  0  0  # atno 8008 bound_to 7997
  156.2830  140.2730  156.1837 H   0  0  0  0  0  0  0  0  0  0  0  0  # atno 8009 bound_to 7997
  155.0477  140.0371  157.2522 H   0  0  0  0  0  0  0  0  0  0  0  0  # atno 8010 bound_to 7997
  139.7845  143.8053  152.2643 H   0  0  0  0  0  0  0  0  0  0  0  0  # atno 10167 bound_to 10162
  157.4588  131.1072  150.9945 H   0  0  0  0  0  0  0  0  0  0  0  0  # atno 10718 bound_to 10713
  153.0993  135.6668  153.9704 H   0  0  0  0  0  0  0  0  0  0  0  0  # atno 10763 bound_to 10752
  153.9279  135.3007  155.3448 H   0  0  0  0  0  0  0  0  0  0  0  0  # atno 10764 bound_to 10752
  154.7413  135.5078  153.9202 H   0  0  0  0  0  0  0  0  0  0  0  0  # atno 10765 bound_to 10752
  141.0447  133.9781  157.2937 H   0  0  0  0  0  0  0  0  0  0  0  0  # atno 11005 bound_to 11000
  144.8989  140.7618  143.5879 LP  0  0  0  0  0  0  0  0  0  0  0  0  # atno 17320 bound_to 7965
  145.3034  139.1843  143.4677 LP  0  0  0  0  0  0  0  0  0  0  0  0  # atno 17321 bound_to 7965
  139.8126  144.7329  150.9677 LP  0  0  0  0  0  0  0  0  0  0  0  0  # atno 17342 bound_to 10162
  140.7819  143.4236  151.0803 LP  0  0  0  0  0  0  0  0  0  0  0  0  # atno 17343 bound_to 10162
  157.0749  130.5879  149.5409 LP  0  0  0  0  0  0  0  0  0  0  0  0  # atno 17370 bound_to 10713
  156.0019  130.5100  150.7694 LP  0  0  0  0  0  0  0  0  0  0  0  0  # atno 17371 bound_to 10713
  139.9302  135.0200  156.8375 LP  0  0  0  0  0  0  0  0  0  0  0  0  # atno 17394 bound_to 11000
  140.6169  134.0030  155.7601 LP  0  0  0  0  0  0  0  0  0  0  0  0  # atno 17395 bound_to 11000

$$$$
