AV-unprocessed.smi:1739|AV-procd|sdf|7005|dock1
  -GOLD-   22720 8213D 1   1.00000     0.00000
 Structure written by MMmdl.
 41 42  0  0  0  0  0  0  0  0  1 V2000
  145.8115  132.2588  149.9705 C   0  0  0  0  0  0  0  0  0  0  0  0
  144.6586  133.2226  150.2779 C   0  0  0  0  0  0  0  0  0  0  0  0
  145.1136  134.4074  150.9801 N   0  0  0  0  0  0  0  0  0  0  0  0
  145.1266  135.7134  150.5315 C   0  0  0  0  0  0  0  0  0  0  0  0
  145.6390  136.4527  151.5600 C   0  0  0  0  0  0  0  0  0  0  0  0
  145.8777  137.8486  151.6333 N   0  0  0  0  0  0  0  0  0  0  0  0
  146.4985  138.5186  152.6180 C   0  0  0  0  0  0  0  0  0  0  0  0
  146.9994  138.0034  153.6178 O   0  0  0  0  0  0  0  0  0  0  0  0
  146.5127  139.8375  152.3764 N   0  0  0  0  0  0  0  0  0  0  0  0
  147.1090  140.8466  153.2467 C   0  0  0  0  0  0  0  0  0  0  0  0
  148.5781  140.4763  153.5431 C   0  0  0  0  0  0  0  0  0  0  0  0
  149.1860  141.4109  154.6046 C   0  0  0  0  0  0  0  0  0  0  0  0
  148.3524  141.3602  155.8114 N   0  0  0  0  0  0  0  0  0  0  0  0
  148.7575  140.7594  156.9563 C   0  0  0  0  0  0  0  0  0  0  0  0
  150.1728  140.1834  157.0392 C   0  0  0  0  0  0  0  0  0  0  0  0
  148.0334  140.6582  157.9468 O   0  0  0  0  0  0  0  0  0  0  0  0
  147.0097  141.8996  155.5632 C   0  0  0  0  0  0  0  0  0  0  0  0
  146.2895  140.9927  154.5495 C   0  0  0  0  0  0  0  0  0  0  0  0
  145.9148  135.5287  152.6010 C   0  0  0  0  0  0  0  0  0  0  0  0
  145.5917  134.2947  152.2445 N   0  0  0  0  0  0  0  0  0  0  0  0
  145.4511  131.3860  149.4258 H   0  0  0  0  0  0  0  0  0  0  0  0
  146.2870  131.9045  150.8857 H   0  0  0  0  0  0  0  0  0  0  0  0
  146.5751  132.7408  149.3597 H   0  0  0  0  0  0  0  0  0  0  0  0
  144.1724  133.5313  149.3518 H   0  0  0  0  0  0  0  0  0  0  0  0
  143.9000  132.7265  150.8844 H   0  0  0  0  0  0  0  0  0  0  0  0
  144.7800  135.9847  149.5454 H   0  0  0  0  0  0  0  0  0  0  0  0
  145.5312  138.3951  150.8585 H   0  0  0  0  0  0  0  0  0  0  0  0
  146.0784  140.1700  151.5278 H   0  0  0  0  0  0  0  0  0  0  0  0
  147.1117  141.8100  152.7328 H   0  0  0  0  0  0  0  0  0  0  0  0
  148.6367  139.4468  153.9006 H   0  0  0  0  0  0  0  0  0  0  0  0
  149.1682  140.5200  152.6269 H   0  0  0  0  0  0  0  0  0  0  0  0
  150.2234  141.1328  154.7945 H   0  0  0  0  0  0  0  0  0  0  0  0
  149.2183  142.4348  154.2295 H   0  0  0  0  0  0  0  0  0  0  0  0
  150.9181  140.9589  156.8590 H   0  0  0  0  0  0  0  0  0  0  0  0
  150.3081  139.3836  156.3106 H   0  0  0  0  0  0  0  0  0  0  0  0
  150.3598  139.7661  158.0292 H   0  0  0  0  0  0  0  0  0  0  0  0
  146.4061  142.0018  156.4638 H   0  0  0  0  0  0  0  0  0  0  0  0
  147.0990  142.9090  155.1590 H   0  0  0  0  0  0  0  0  0  0  0  0
  145.3005  141.3961  154.3287 H   0  0  0  0  0  0  0  0  0  0  0  0
  146.1297  140.0114  154.9992 H   0  0  0  0  0  0  0  0  0  0  0  0
  146.3289  135.7071  153.5824 H   0  0  0  0  0  0  0  0  0  0  0  0
  1  2  1  0  0  0  0
  1 21  1  0  0  0  0
  1 22  1  0  0  0  0
  1 23  1  0  0  0  0
  2  3  1  0  0  0  0
  2 24  1  0  0  0  0
  2 25  1  0  0  0  0
  3 20  1  0  0  0  0
  3  4  1  0  0  0  0
  4  5  2  0  0  0  0
  4 26  1  0  0  0  0
  5  6  1  0  0  0  0
  5 19  1  0  0  0  0
  6  7  1  0  0  0  0
  6 27  1  0  0  0  0
  7  8  2  0  0  0  0
  7  9  1  0  0  0  0
  9 10  1  0  0  0  0
  9 28  1  0  0  0  0
 10 18  1  0  0  0  0
 10 11  1  0  0  0  0
 10 29  1  0  0  0  0
 11 12  1  0  0  0  0
 11 30  1  0  0  0  0
 11 31  1  0  0  0  0
 12 13  1  0  0  0  0
 12 32  1  0  0  0  0
 12 33  1  0  0  0  0
 13 14  1  0  0  0  0
 13 17  1  0  0  0  0
 14 15  1  0  0  0  0
 14 16  2  0  0  0  0
 15 34  1  0  0  0  0
 15 35  1  0  0  0  0
 15 36  1  0  0  0  0
 17 18  1  0  0  0  0
 17 37  1  0  0  0  0
 17 38  1  0  0  0  0
 18 39  1  0  0  0  0
 18 40  1  0  0  0  0
 19 20  2  0  0  0  0
 19 41  1  0  0  0  0
M  END
> <s_m_source_file>
AV-unprocessed.smi

> <i_m_source_file_index>
1739

> <i_lp_mmshare_version>
43012

> <i_f3d_flags>
0

> <s_epik_input>
W0NIM11bQ0gyXW4xW2NIXWMoW2NIXW4xKVtOSF1DKD1PKVtOSF1bQ0hdMltDSDJdW0NIMl1OKEMoPU8pW0NIM10pW0NIMl1bQ0gyXTI=

> <s_epik_cmdline>
J2VwaWtfcHl0aG9uJywgJy1waCcsICc3LjAnLCAnLXRuJywgJzgnLCAnLW1hJywgJzIwMCcsICctbWV0YWxfYmluZGluZycsICctaW1hZScsICc8aW5maWxlLm1hZT4nLCAnLW9tYWUnLCAnPG91dGZpbGUubWFlPic=

> <r_lp_tautomer_probability>
1

> <r_epik_Ionization_Penalty>
0.000185887

> <r_epik_Ionization_Penalty_Charging>
0

> <r_epik_Ionization_Penalty_Neutral>
0.000185887

> <r_epik_State_Penalty>
-0

> <r_epik_Charging_Adjusted_Penalty>
0

> <i_epik_Tot_Q>
0

> <i_epik_Tot_abs_Q>
0

> <r_epik_Metal_State_Penalty>
-0

> <b_epik_Metal_Only>
0

> <s_lp_Force_Field>
OPLS_2005

> <r_lp_Energy>
25.6807

> <b_lp_Chiralities_Consistent>
1

> <s_lp_Variant>
AV-unprocessed.smi:1739-1

> <Gold.Version>
5.8.1

> <Gold.Id.Protein>
6NUR|6NUR_protein|mol2

> <Gold.PLP.Fitness>
38.2721

> <Gold.PLP.PLP>
-33.6038

> <Gold.PLP.part.hbond>
-2.9317

> <Gold.PLP.part.metal>
0.0000

> <Gold.PLP.part.buried>
-1.7040

> <Gold.PLP.part.nonpolar>
-30.0133

> <Gold.PLP.part.repulsive>
0.3699

> <Gold.PLP.ligand.clash>
0.0000

> <Gold.PLP.ligand.torsion>
0.1237

> <Gold.PLP.Chemscore.Hbond>
0.7360

> <Gold.PLP.Chemscore.CHOScore>
0.8953

> <Gold.PLP.Chemscore.Metal>
0.0000

> <Gold.Chemscore.Hbonds>
donor molecule, donor type, donor heavy atom, donor atom, acceptor molecule, acceptor atom, score
      L1  H     6    27       P1 10171  0.80
      L1  C     4    26       P1  7921  0.54
      L1  C     4    26       P1 10171  0.25

> <Gold.PLP.Chemscore.Internal.Correction>
0.0218

> <Gold.Rescore>
     Score         DG    S(hbond)    S(metal)    S(lipo)     H(rot)  DE(clash)    DE(int)     intcor
     10.07     -14.12       0.91        0.00      74.52       1.22       1.81       2.24       ----

> <Gold.Chemscore.Fitness>
10.0726

> <Gold.Chemscore.DG>
-14.1191

> <Gold.Chemscore.ZeroCoef>
-5.4800

> <Gold.Chemscore.Hbond>
0.9087

> <Gold.Chemscore.Metal>
0.0000

> <Gold.Chemscore.Lipo>
74.5158

> <Gold.Chemscore.Internal_Hbond>
0.0000

> <Gold.Chemscore.DEClash>
1.8089

> <Gold.Chemscore.DEInternal>
2.2375

> <Gold.Chemscore.Rot>
1.2166

> <Gold.Chemscore.Internal.Correction>
   9.000000E+99

> <Gold.Chemscore.Hbonds>
donor molecule, donor type, donor heavy atom, donor atom, acceptor molecule, acceptor atom, score
      L1  H     6    27       P1 10171  0.78

> <Gold.Chemscore.Hbond.Weighted>
-3.0352

> <Gold.Chemscore.Metal.Weighted>
-0.0000

> <Gold.Chemscore.Lipo.Weighted>
-8.7183

> <Gold.Chemscore.Internal_Hbond.Weighted>
0.0000

> <Gold.Chemscore.DEClash.Weighted>
1.8089

> <Gold.Chemscore.DEInternal.Weighted>
2.2375

> <Gold.Chemscore.Rot.Weighted>
3.1145

> <Gold.Chemscore.Internal.Correction.Weighted>
   9.000000E+99

> <Gold.Protein.RotatedTorsions>
[ 6907 6896 6895 6894 ] final  108.61 input  -60.11 | X-H torsion
[ 7974 7965 7964 7962 ] final  150.07 input  175.53 | X-H torsion
[ 8008 7997 7996 7995 ] final   24.47 input   59.86 | X-H torsion
[ 10167 10162 10161 10158 ] final  -43.25 input  -65.29 | X-H torsion
[ 10718 10713 10712 10709 ] final  138.62 input   66.30 | X-H torsion
[ 10763 10752 10751 10750 ] final  132.42 input  -60.55 | X-H torsion
[ 11005 11000 10999 10996 ] final  107.31 input  -57.11 | X-H torsion

> <Gold.Protein.ActiveResidues>
 VAL166  LYS551  ARG553  GLY616  TRP617  ASP618  TYR619  PRO620  LYS621  CYS622 
 ASP623  PHE694  ASN695  SER759  ASP760  ASP761  ALA762  ILE779  LEU786  VAL792 
 PHE793  MET794  SER795  GLU796  ALA797  LYS798  CYS799  TRP800  GLU811  SER814 

> <Gold.Protein.RotatedAtoms>
  152.5105  133.9064  159.7466 H   0  0  0  0  0  0  0  0  0  0  0  0  # atno 6907 bound_to 6896
  150.9468  133.6585  159.2786 H   0  0  0  0  0  0  0  0  0  0  0  0  # atno 6908 bound_to 6896
  151.3878  135.0956  159.9569 H   0  0  0  0  0  0  0  0  0  0  0  0  # atno 6909 bound_to 6896
  144.8391  139.6361  143.6024 H   0  0  0  0  0  0  0  0  0  0  0  0  # atno 7974 bound_to 7965
  154.9968  140.3120  155.4883 H   0  0  0  0  0  0  0  0  0  0  0  0  # atno 8008 bound_to 7997
  156.2931  140.2239  156.5016 H   0  0  0  0  0  0  0  0  0  0  0  0  # atno 8009 bound_to 7997
  154.7654  140.0456  157.0996 H   0  0  0  0  0  0  0  0  0  0  0  0  # atno 8010 bound_to 7997
  140.6940  143.2993  151.3326 H   0  0  0  0  0  0  0  0  0  0  0  0  # atno 10167 bound_to 10162
  157.4233  131.1041  151.0330 H   0  0  0  0  0  0  0  0  0  0  0  0  # atno 10718 bound_to 10713
  153.7904  135.3156  155.3377 H   0  0  0  0  0  0  0  0  0  0  0  0  # atno 10763 bound_to 10752
  154.8128  135.4656  154.0564 H   0  0  0  0  0  0  0  0  0  0  0  0  # atno 10764 bound_to 10752
  153.1881  135.6904  153.8475 H   0  0  0  0  0  0  0  0  0  0  0  0  # atno 10765 bound_to 10752
  139.8826  134.9396  156.5799 H   0  0  0  0  0  0  0  0  0  0  0  0  # atno 11005 bound_to 11000
  146.2686  139.6580  142.9312 LP  0  0  0  0  0  0  0  0  0  0  0  0  # atno 17320 bound_to 7965
  145.4731  141.0436  143.2687 LP  0  0  0  0  0  0  0  0  0  0  0  0  # atno 17321 bound_to 7965
  139.6374  144.0604  152.2527 LP  0  0  0  0  0  0  0  0  0  0  0  0  # atno 17342 bound_to 10162
  140.0098  144.6232  150.7657 LP  0  0  0  0  0  0  0  0  0  0  0  0  # atno 17343 bound_to 10162
  157.1252  130.6079  149.5515 LP  0  0  0  0  0  0  0  0  0  0  0  0  # atno 17370 bound_to 10713
  155.9888  130.4933  150.7185 LP  0  0  0  0  0  0  0  0  0  0  0  0  # atno 17371 bound_to 10713
  140.8035  133.8486  155.8747 LP  0  0  0  0  0  0  0  0  0  0  0  0  # atno 17394 bound_to 11000
  140.9571  134.1703  157.4683 LP  0  0  0  0  0  0  0  0  0  0  0  0  # atno 17395 bound_to 11000

$$$$
