AV-unprocessed.smi:2445|AV-procd|sdf|9639|dock5
  -GOLD-   2272013273D 1   1.00000     0.00000
 Structure written by MMmdl.
 40 41  0  0  0  0  0  0  0  0  1 V2000
  144.0272  132.1151  150.2627 C   0  0  0  0  0  0  0  0  0  0  0  0
  145.2676  132.5916  150.9394 C   0  0  0  0  0  0  0  0  0  0  0  0
  145.9284  133.7790  150.7444 C   0  0  0  0  0  0  0  0  0  0  0  0
  147.0663  133.9286  151.5397 N   0  0  0  0  0  0  0  0  0  0  0  0
  147.2789  132.8743  152.3320 C   0  0  0  0  0  0  0  0  0  0  0  0
  148.4376  132.7631  153.2766 C   0  0  2  0  0  0  0  0  0  0  0  0
  148.7208  131.3068  153.6714 C   0  0  0  0  0  0  0  0  0  0  0  0
  148.3127  133.7040  154.4908 C   0  0  0  0  0  0  0  0  0  0  0  0
  148.7616  135.0550  154.1659 N   0  0  0  0  0  0  0  0  0  0  0  0
  149.1572  135.9730  155.0570 C   0  0  0  0  0  0  0  0  0  0  0  0
  149.2235  135.7784  156.2708 O   0  0  0  0  0  0  0  0  0  0  0  0
  149.4696  137.1334  154.4654 N   0  0  0  0  0  0  0  0  0  0  0  0
  149.9207  138.3288  155.1692 C   0  0  1  0  0  0  0  0  0  0  0  0
  151.4007  138.2946  155.4981 C   0  0  0  0  0  0  0  0  0  0  0  0
  151.7372  139.7779  155.6238 C   0  0  0  0  0  0  0  0  0  0  0  0
  150.8142  140.4704  154.7877 O   0  0  0  0  0  0  0  0  0  0  0  0
  149.8386  139.5686  154.2753 C   0  0  2  0  0  0  0  0  0  0  0  0
  148.4563  140.2311  154.2503 C   0  0  0  0  0  0  0  0  0  0  0  0
  146.0669  131.6123  152.1410 S   0  0  0  0  0  0  0  0  0  0  0  0
  143.6573  132.8556  149.5529 H   0  0  0  0  0  0  0  0  0  0  0  0
  143.2391  131.9243  150.9911 H   0  0  0  0  0  0  0  0  0  0  0  0
  144.2153  131.1902  149.7174 H   0  0  0  0  0  0  0  0  0  0  0  0
  145.6597  134.5729  150.0631 H   0  0  0  0  0  0  0  0  0  0  0  0
  149.3131  133.0987  152.7190 H   0  0  0  0  0  0  0  0  0  0  0  0
  148.8986  130.6896  152.7902 H   0  0  0  0  0  0  0  0  0  0  0  0
  147.8827  130.8735  154.2182 H   0  0  0  0  0  0  0  0  0  0  0  0
  149.6037  131.2366  154.3072 H   0  0  0  0  0  0  0  0  0  0  0  0
  147.2739  133.7196  154.8254 H   0  0  0  0  0  0  0  0  0  0  0  0
  148.9055  133.3278  155.3251 H   0  0  0  0  0  0  0  0  0  0  0  0
  148.7459  135.3164  153.1909 H   0  0  0  0  0  0  0  0  0  0  0  0
  149.3817  137.1993  153.4620 H   0  0  0  0  0  0  0  0  0  0  0  0
  149.3421  138.4871  156.0818 H   0  0  0  0  0  0  0  0  0  0  0  0
  151.6273  137.7292  156.4026 H   0  0  0  0  0  0  0  0  0  0  0  0
  151.9654  137.8573  154.6730 H   0  0  0  0  0  0  0  0  0  0  0  0
  151.5892  140.1151  156.6503 H   0  0  0  0  0  0  0  0  0  0  0  0
  152.7682  139.9936  155.3428 H   0  0  0  0  0  0  0  0  0  0  0  0
  150.1425  139.3110  153.2590 H   0  0  0  0  0  0  0  0  0  0  0  0
  147.6993  139.5444  153.8707 H   0  0  0  0  0  0  0  0  0  0  0  0
  148.4587  141.1120  153.6084 H   0  0  0  0  0  0  0  0  0  0  0  0
  148.1526  140.5465  155.2488 H   0  0  0  0  0  0  0  0  0  0  0  0
  1  2  1  0  0  0  0
  1 20  1  0  0  0  0
  1 21  1  0  0  0  0
  1 22  1  0  0  0  0
  2 19  1  0  0  0  0
  2  3  2  0  0  0  0
  3  4  1  0  0  0  0
  3 23  1  0  0  0  0
  4  5  2  0  0  0  0
  5  6  1  0  0  0  0
  5 19  1  0  0  0  0
  6  7  1  0  0  0  0
  6  8  1  0  0  0  0
  6 24  1  0  0  0  0
  7 25  1  0  0  0  0
  7 26  1  0  0  0  0
  7 27  1  0  0  0  0
  8  9  1  0  0  0  0
  8 28  1  0  0  0  0
  8 29  1  0  0  0  0
  9 10  1  0  0  0  0
  9 30  1  0  0  0  0
 10 11  2  0  0  0  0
 10 12  1  0  0  0  0
 12 13  1  0  0  0  0
 12 31  1  0  0  0  0
 13 17  1  0  0  0  0
 13 14  1  0  0  0  0
 13 32  1  0  0  0  0
 14 15  1  0  0  0  0
 14 33  1  0  0  0  0
 14 34  1  0  0  0  0
 15 16  1  0  0  0  0
 15 35  1  0  0  0  0
 15 36  1  0  0  0  0
 16 17  1  0  0  0  0
 17 18  1  0  0  0  0
 17 37  1  0  0  0  0
 18 38  1  0  0  0  0
 18 39  1  0  0  0  0
 18 40  1  0  0  0  0
M  END
> <s_m_source_file>
AV-unprocessed.smi

> <i_m_source_file_index>
2445

> <i_lp_mmshare_version>
43012

> <i_f3d_flags>
0

> <s_epik_input>
W0NIM11jMVtjSF1uYyhzMSlbQ0BIXShbQ0gzXSlbQ0gyXVtOSF1DKD1PKVtOSF1bQ0BASF0yW0NIMl1bQ0gyXU9bQ0BIXTJbQ0gzXQ==

> <s_epik_cmdline>
J2VwaWtfcHl0aG9uJywgJy1waCcsICc3LjAnLCAnLXRuJywgJzgnLCAnLW1hJywgJzIwMCcsICctbWV0YWxfYmluZGluZycsICctaW1hZScsICc8aW5maWxlLm1hZT4nLCAnLW9tYWUnLCAnPG91dGZpbGUubWFlPic=

> <r_epik_Ionization_Penalty>
0.000649483

> <r_epik_Ionization_Penalty_Charging>
0

> <r_epik_Ionization_Penalty_Neutral>
0.000649483

> <r_epik_State_Penalty>
0.000379895

> <r_epik_Charging_Adjusted_Penalty>
0.000379895

> <i_epik_Tot_Q>
0

> <i_epik_Tot_abs_Q>
0

> <r_epik_Metal_State_Penalty>
-0

> <b_epik_Metal_Only>
0

> <s_lp_Force_Field>
OPLS_2005

> <r_lp_Energy>
6.75485

> <b_lp_Chiralities_Consistent>
1

> <s_lp_Variant>
AV-unprocessed.smi:2445-7

> <Gold.Version>
5.8.1

> <Gold.Id.Protein>
6NUR|6NUR_protein|mol2

> <Gold.PLP.Fitness>
42.8601

> <Gold.PLP.PLP>
-33.3242

> <Gold.PLP.part.hbond>
-3.0000

> <Gold.PLP.part.metal>
0.0000

> <Gold.PLP.part.buried>
-0.7313

> <Gold.PLP.part.nonpolar>
-29.1979

> <Gold.PLP.part.repulsive>
1.5758

> <Gold.PLP.ligand.clash>
0.0000

> <Gold.PLP.ligand.torsion>
1.1070

> <Gold.PLP.Chemscore.Hbond>
2.8960

> <Gold.PLP.Chemscore.CHOScore>
0.9779

> <Gold.PLP.Chemscore.Metal>
0.0000

> <Gold.Chemscore.Hbonds>
donor molecule, donor type, donor heavy atom, donor atom, acceptor molecule, acceptor atom, score
      L1  H     9    30       P1  7948  1.00
      L1  H    12    31       P1  7948  0.91
      P1  H  7989  7998       L1    16  1.00
      L1  C     3    23       P1  7921  0.99

> <Gold.PLP.Chemscore.Internal.Correction>
0.1281

> <Gold.Rescore>
     Score         DG    S(hbond)    S(metal)    S(lipo)     H(rot)  DE(clash)    DE(int)     intcor
     18.12     -19.06       2.28        0.00      84.63       1.53       0.15       0.79       ----

> <Gold.Chemscore.Fitness>
18.1204

> <Gold.Chemscore.DG>
-19.0617

> <Gold.Chemscore.ZeroCoef>
-5.4800

> <Gold.Chemscore.Hbond>
2.2766

> <Gold.Chemscore.Metal>
0.0000

> <Gold.Chemscore.Lipo>
84.6250

> <Gold.Chemscore.Internal_Hbond>
0.0000

> <Gold.Chemscore.DEClash>
0.1472

> <Gold.Chemscore.DEInternal>
0.7941

> <Gold.Chemscore.Rot>
1.5325

> <Gold.Chemscore.Internal.Correction>
   9.000000E+99

> <Gold.Chemscore.Hbonds>
donor molecule, donor type, donor heavy atom, donor atom, acceptor molecule, acceptor atom, score
      L1  H     9    30       P1  7948  0.73
      L1  H    12    31       P1  7948  0.84
      P1  H  7989  7998       L1    16  0.21

> <Gold.Chemscore.Hbond.Weighted>
-7.6039

> <Gold.Chemscore.Metal.Weighted>
-0.0000

> <Gold.Chemscore.Lipo.Weighted>
-9.9011

> <Gold.Chemscore.Internal_Hbond.Weighted>
0.0000

> <Gold.Chemscore.DEClash.Weighted>
0.1472

> <Gold.Chemscore.DEInternal.Weighted>
0.7941

> <Gold.Chemscore.Rot.Weighted>
3.9233

> <Gold.Chemscore.Internal.Correction.Weighted>
   9.000000E+99

> <Gold.Protein.RotatedTorsions>
[ 6907 6896 6895 6894 ] final   67.12 input  -60.11 | X-H torsion
[ 7974 7965 7964 7962 ] final -132.71 input  175.53 | X-H torsion
[ 8008 7997 7996 7995 ] final -139.57 input   59.86 | X-H torsion
[ 10167 10162 10161 10158 ] final   38.07 input  -65.29 | X-H torsion
[ 10718 10713 10712 10709 ] final  105.68 input   66.30 | X-H torsion
[ 10763 10752 10751 10750 ] final  120.41 input  -60.55 | X-H torsion
[ 11005 11000 10999 10996 ] final   -3.41 input  -57.11 | X-H torsion

> <Gold.Protein.ActiveResidues>
 VAL166  LYS551  ARG553  GLY616  TRP617  ASP618  TYR619  PRO620  LYS621  CYS622 
 ASP623  PHE694  ASN695  SER759  ASP760  ASP761  ALA762  ILE779  LEU786  VAL792 
 PHE793  MET794  SER795  GLU796  ALA797  LYS798  CYS799  TRP800  GLU811  SER814 

> <Gold.Protein.RotatedAtoms>
  152.4529  134.5354  159.9823 H   0  0  0  0  0  0  0  0  0  0  0  0  # atno 6907 bound_to 6896
  151.5422  133.3425  159.2945 H   0  0  0  0  0  0  0  0  0  0  0  0  # atno 6908 bound_to 6896
  150.8464  134.7806  159.7037 H   0  0  0  0  0  0  0  0  0  0  0  0  # atno 6909 bound_to 6896
  144.9260  140.7071  143.4935 H   0  0  0  0  0  0  0  0  0  0  0  0  # atno 7974 bound_to 7965
  155.4471  140.0536  157.3005 H   0  0  0  0  0  0  0  0  0  0  0  0  # atno 8008 bound_to 7997
  154.4793  140.2074  155.9758 H   0  0  0  0  0  0  0  0  0  0  0  0  # atno 8009 bound_to 7997
  156.1181  140.3193  155.8173 H   0  0  0  0  0  0  0  0  0  0  0  0  # atno 8010 bound_to 7997
  140.3972  144.1773  150.6132 H   0  0  0  0  0  0  0  0  0  0  0  0  # atno 10167 bound_to 10162
  157.6696  131.0833  150.5893 H   0  0  0  0  0  0  0  0  0  0  0  0  # atno 10718 bound_to 10713
  153.5980  135.3453  155.2935 H   0  0  0  0  0  0  0  0  0  0  0  0  # atno 10763 bound_to 10752
  154.8641  135.4220  154.2444 H   0  0  0  0  0  0  0  0  0  0  0  0  # atno 10764 bound_to 10752
  153.3266  135.7041  153.7055 H   0  0  0  0  0  0  0  0  0  0  0  0  # atno 10765 bound_to 10752
  140.6690  133.9253  155.8483 H   0  0  0  0  0  0  0  0  0  0  0  0  # atno 11005 bound_to 11000
  145.3219  139.1786  143.4583 LP  0  0  0  0  0  0  0  0  0  0  0  0  # atno 17320 bound_to 7965
  146.3226  140.3237  142.8635 LP  0  0  0  0  0  0  0  0  0  0  0  0  # atno 17321 bound_to 7965
  140.4778  143.2390  151.8999 LP  0  0  0  0  0  0  0  0  0  0  0  0  # atno 17342 bound_to 10162
  139.4786  144.5302  151.8678 LP  0  0  0  0  0  0  0  0  0  0  0  0  # atno 17343 bound_to 10162
  156.6193  130.4401  149.5828 LP  0  0  0  0  0  0  0  0  0  0  0  0  # atno 17370 bound_to 10713
  156.2368  130.6827  151.1517 LP  0  0  0  0  0  0  0  0  0  0  0  0  # atno 17371 bound_to 10713
  141.0406  134.0626  157.3906 LP  0  0  0  0  0  0  0  0  0  0  0  0  # atno 17394 bound_to 11000
  139.8988  135.0156  156.7164 LP  0  0  0  0  0  0  0  0  0  0  0  0  # atno 17395 bound_to 11000

$$$$
