AV-unprocessed.smi:2083|AV-procd|sdf|8490|dock2
  -GOLD-   2272011193D 1   1.00000     0.00000
 Structure written by MMmdl.
 45 46  0  0  0  0  0  0  0  0  2 V2000
  152.2617  144.4678  161.3371 C   0  0  0  0  0  0  0  0  0  0  0  0
  151.7152  143.7410  160.1564 C   0  0  0  0  0  0  0  0  0  0  0  0
  151.0822  144.1574  159.0192 C   0  0  0  0  0  0  0  0  0  0  0  0
  150.8312  142.9416  158.3298 C   0  0  0  0  0  0  0  0  0  0  0  0
  150.1687  142.9405  157.0759 N   0  0  0  0  0  0  0  0  0  0  0  0
  149.8303  141.8756  156.3298 C   0  0  0  0  0  0  0  0  0  0  0  0
  150.0646  140.7014  156.6174 O   0  0  0  0  0  0  0  0  0  0  0  0
  149.1962  142.2476  155.2084 N   0  0  0  0  0  0  0  0  0  0  0  0
  148.6855  141.3302  154.1936 C   0  0  0  0  0  0  0  0  0  0  0  0
  147.1443  141.4208  154.0053 C   0  0  2  0  0  0  0  0  0  0  0  0
  146.4482  141.5975  155.3739 C   0  0  0  0  0  0  0  0  0  0  0  0
  146.5424  140.2562  153.2745 N   0  3  1  0  0  0  0  0  0  0  0  0
  147.2262  139.9992  151.9746 C   0  0  0  0  0  0  0  0  0  0  0  0
  146.4802  138.9476  151.1410 C   0  0  0  0  0  0  0  0  0  0  0  0
  146.3521  137.6351  151.9190 C   0  0  0  0  0  0  0  0  0  0  0  0
  145.6639  137.8946  153.2666 C   0  0  1  0  0  0  0  0  0  0  0  0
  145.5340  136.6026  154.0862 C   0  0  0  0  0  0  0  0  0  0  0  0
  146.4083  138.9912  154.0569 C   0  0  0  0  0  0  0  0  0  0  0  0
  151.2735  141.8791  158.9844 N   0  0  0  0  0  0  0  0  0  0  0  0
  151.8419  142.3861  160.1592 O   0  0  0  0  0  0  0  0  0  0  0  0
  152.2354  145.5459  161.1770 H   0  0  0  0  0  0  0  0  0  0  0  0
  153.2960  144.1793  161.5255 H   0  0  0  0  0  0  0  0  0  0  0  0
  151.6791  144.2443  162.2308 H   0  0  0  0  0  0  0  0  0  0  0  0
  150.8380  145.1691  158.7317 H   0  0  0  0  0  0  0  0  0  0  0  0
  149.9168  143.8482  156.7139 H   0  0  0  0  0  0  0  0  0  0  0  0
  149.0446  143.2334  155.0505 H   0  0  0  0  0  0  0  0  0  0  0  0
  149.2141  141.5497  153.2648 H   0  0  0  0  0  0  0  0  0  0  0  0
  148.9689  140.3192  154.4887 H   0  0  0  0  0  0  0  0  0  0  0  0
  146.9494  142.3120  153.4066 H   0  0  0  0  0  0  0  0  0  0  0  0
  146.8133  142.4778  155.9027 H   0  0  0  0  0  0  0  0  0  0  0  0
  146.6218  140.7337  156.0162 H   0  0  0  0  0  0  0  0  0  0  0  0
  145.3711  141.7269  155.2839 H   0  0  0  0  0  0  0  0  0  0  0  0
  147.3026  140.9113  151.3854 H   0  0  0  0  0  0  0  0  0  0  0  0
  148.2484  139.6661  152.1624 H   0  0  0  0  0  0  0  0  0  0  0  0
  145.4900  139.3206  150.8759 H   0  0  0  0  0  0  0  0  0  0  0  0
  147.0071  138.7732  150.2024 H   0  0  0  0  0  0  0  0  0  0  0  0
  145.7842  136.9101  151.3347 H   0  0  0  0  0  0  0  0  0  0  0  0
  147.3411  137.2034  152.0798 H   0  0  0  0  0  0  0  0  0  0  0  0
  144.6542  138.2553  153.0633 H   0  0  0  0  0  0  0  0  0  0  0  0
  146.5125  136.1889  154.3324 H   0  0  0  0  0  0  0  0  0  0  0  0
  144.9802  135.8418  153.5353 H   0  0  0  0  0  0  0  0  0  0  0  0
  145.0034  136.7812  155.0219 H   0  0  0  0  0  0  0  0  0  0  0  0
  147.3977  138.6421  154.3575 H   0  0  0  0  0  0  0  0  0  0  0  0
  145.8333  139.1650  154.9656 H   0  0  0  0  0  0  0  0  0  0  0  0
  145.5967  140.5332  153.0539 H   0  0  0  0  0  0  0  0  0  0  0  0
  1  2  1  0  0  0  0
  1 21  1  0  0  0  0
  1 22  1  0  0  0  0
  1 23  1  0  0  0  0
  2 20  1  0  0  0  0
  2  3  2  0  0  0  0
  3  4  1  0  0  0  0
  3 24  1  0  0  0  0
  4  5  1  0  0  0  0
  4 19  2  0  0  0  0
  5  6  1  0  0  0  0
  5 25  1  0  0  0  0
  6  7  2  0  0  0  0
  6  8  1  0  0  0  0
  8  9  1  0  0  0  0
  8 26  1  0  0  0  0
  9 10  1  0  0  0  0
  9 27  1  0  0  0  0
  9 28  1  0  0  0  0
 10 11  1  0  0  0  0
 10 12  1  0  0  0  0
 10 29  1  0  0  0  0
 11 30  1  0  0  0  0
 11 31  1  0  0  0  0
 11 32  1  0  0  0  0
 12 18  1  0  0  0  0
 12 13  1  0  0  0  0
 12 45  1  0  0  0  0
 13 14  1  0  0  0  0
 13 33  1  0  0  0  0
 13 34  1  0  0  0  0
 14 15  1  0  0  0  0
 14 35  1  0  0  0  0
 14 36  1  0  0  0  0
 15 16  1  0  0  0  0
 15 37  1  0  0  0  0
 15 38  1  0  0  0  0
 16 17  1  0  0  0  0
 16 18  1  0  0  0  0
 16 39  1  0  0  0  0
 17 40  1  0  0  0  0
 17 41  1  0  0  0  0
 17 42  1  0  0  0  0
 18 43  1  0  0  0  0
 18 44  1  0  0  0  0
 19 20  1  0  0  0  0
M  CHG  1  12   1
M  END
> <s_m_source_file>
AV-unprocessed.smi

> <i_m_source_file_index>
2083

> <i_lp_mmshare_version>
43012

> <i_f3d_flags>
0

> <s_epik_input>
W0NIM11jMVtjSF1jKG5vMSlbTkhdQyg9TylbTkhdW0NIMl1bQ0BIXShbQ0gzXSlOMltDSDJdW0NIMl1bQ0gyXVtDQEBIXShbQ0gzXSlbQ0gyXTI=

> <s_epik_cmdline>
J2VwaWtfcHl0aG9uJywgJy1waCcsICc3LjAnLCAnLXRuJywgJzgnLCAnLW1hJywgJzIwMCcsICctbWV0YWxfYmluZGluZycsICctaW1hZScsICc8aW5maWxlLm1hZT4nLCAnLW9tYWUnLCAnPG91dGZpbGUubWFlPic=

> <r_epik_Ionization_Penalty>
0.00216453

> <r_epik_Ionization_Penalty_Charging>
0.00212879

> <r_epik_Ionization_Penalty_Neutral>
3.57418e-05

> <r_epik_State_Penalty>
0.00146033

> <r_epik_Charging_Adjusted_Penalty>
0.00358912

> <i_epik_Tot_Q>
1

> <i_epik_Tot_abs_Q>
1

> <r_epik_Metal_State_Penalty>
0.0215827

> <b_epik_Metal_Only>
0

> <s_lp_Force_Field>
OPLS_2005

> <r_lp_Energy>
19.0311

> <b_lp_Chiralities_Consistent>
1

> <s_lp_Variant>
AV-unprocessed.smi:2083-1

> <Gold.Version>
5.8.1

> <Gold.Id.Protein>
6NUR|6NUR_protein|mol2

> <Gold.PLP.Fitness>
43.7318

> <Gold.PLP.PLP>
-32.3313

> <Gold.PLP.part.hbond>
-3.6963

> <Gold.PLP.part.metal>
0.0000

> <Gold.PLP.part.buried>
3.5293

> <Gold.PLP.part.nonpolar>
-32.6105

> <Gold.PLP.part.repulsive>
0.2457

> <Gold.PLP.ligand.clash>
0.0000

> <Gold.PLP.ligand.torsion>
0.2702

> <Gold.PLP.Chemscore.Hbond>
3.9600

> <Gold.PLP.Chemscore.CHOScore>
0.0000

> <Gold.PLP.Chemscore.Metal>
0.0000

> <Gold.Chemscore.Hbonds>
donor molecule, donor type, donor heavy atom, donor atom, acceptor molecule, acceptor atom, score
      L1  H     5    25       P1  8028  0.94
      L1  H     8    26       P1  8028  1.00
      L1  H    12    45       P1 10175  2.00

> <Gold.PLP.Chemscore.Internal.Correction>
0.0610

> <Gold.Rescore>
     Score         DG    S(hbond)    S(metal)    S(lipo)     H(rot)  DE(clash)    DE(int)     intcor
     17.27     -21.77       2.92        0.00      89.82       1.55       2.95       1.55       ----

> <Gold.Chemscore.Fitness>
17.2662

> <Gold.Chemscore.DG>
-21.7673

> <Gold.Chemscore.ZeroCoef>
-5.4800

> <Gold.Chemscore.Hbond>
2.9160

> <Gold.Chemscore.Metal>
0.0000

> <Gold.Chemscore.Lipo>
89.8215

> <Gold.Chemscore.Internal_Hbond>
0.0000

> <Gold.Chemscore.DEClash>
2.9478

> <Gold.Chemscore.DEInternal>
1.5533

> <Gold.Chemscore.Rot>
1.5474

> <Gold.Chemscore.Internal.Correction>
   9.000000E+99

> <Gold.Chemscore.Hbonds>
donor molecule, donor type, donor heavy atom, donor atom, acceptor molecule, acceptor atom, score
      L1  H     5    25       P1  8028  0.90
      L1  H     8    26       P1  8028  0.93
      L1  H    12    45       P1 10175  0.82

> <Gold.Chemscore.Hbond.Weighted>
-9.7394

> <Gold.Chemscore.Metal.Weighted>
-0.0000

> <Gold.Chemscore.Lipo.Weighted>
-10.5091

> <Gold.Chemscore.Internal_Hbond.Weighted>
0.0000

> <Gold.Chemscore.DEClash.Weighted>
2.9478

> <Gold.Chemscore.DEInternal.Weighted>
1.5533

> <Gold.Chemscore.Rot.Weighted>
3.9612

> <Gold.Chemscore.Internal.Correction.Weighted>
   9.000000E+99

> <Gold.Protein.RotatedTorsions>
[ 6907 6896 6895 6894 ] final   29.21 input  -60.11 | X-H torsion
[ 7974 7965 7964 7962 ] final -178.12 input  175.53 | X-H torsion
[ 8008 7997 7996 7995 ] final  100.33 input   59.86 | X-H torsion
[ 10167 10162 10161 10158 ] final -154.00 input  -65.29 | X-H torsion
[ 10718 10713 10712 10709 ] final -118.43 input   66.30 | X-H torsion
[ 10763 10752 10751 10750 ] final   35.94 input  -60.55 | X-H torsion
[ 11005 11000 10999 10996 ] final   23.29 input  -57.11 | X-H torsion

> <Gold.Protein.ActiveResidues>
 VAL166  LYS551  ARG553  GLY616  TRP617  ASP618  TYR619  PRO620  LYS621  CYS622 
 ASP623  PHE694  ASN695  SER759  ASP760  ASP761  ALA762  ILE779  LEU786  VAL792 
 PHE793  MET794  SER795  GLU796  ALA797  LYS798  CYS799  TRP800  GLU811  SER814 

> <Gold.Protein.RotatedAtoms>
  152.0282  134.9783  160.0571 H   0  0  0  0  0  0  0  0  0  0  0  0  # atno 6907 bound_to 6896
  152.1270  133.4381  159.4711 H   0  0  0  0  0  0  0  0  0  0  0  0  # atno 6908 bound_to 6896
  150.6853  134.2385  159.4506 H   0  0  0  0  0  0  0  0  0  0  0  0  # atno 6909 bound_to 6896
  144.7130  140.0916  143.6421 H   0  0  0  0  0  0  0  0  0  0  0  0  # atno 7974 bound_to 7965
  156.1193  140.3215  155.8185 H   0  0  0  0  0  0  0  0  0  0  0  0  # atno 8008 bound_to 7997
  155.4533  140.0534  157.3016 H   0  0  0  0  0  0  0  0  0  0  0  0  # atno 8009 bound_to 7997
  154.4816  140.2055  155.9765 H   0  0  0  0  0  0  0  0  0  0  0  0  # atno 8010 bound_to 7997
  139.7050  143.9201  152.2445 H   0  0  0  0  0  0  0  0  0  0  0  0  # atno 10167 bound_to 10162
  156.1106  130.6245  150.9290 H   0  0  0  0  0  0  0  0  0  0  0  0  # atno 10718 bound_to 10713
  153.0098  135.6319  154.1906 H   0  0  0  0  0  0  0  0  0  0  0  0  # atno 10763 bound_to 10752
  154.1649  135.2821  155.3099 H   0  0  0  0  0  0  0  0  0  0  0  0  # atno 10764 bound_to 10752
  154.5953  135.5604  153.7380 H   0  0  0  0  0  0  0  0  0  0  0  0  # atno 10765 bound_to 10752
  140.3712  134.2020  155.7667 H   0  0  0  0  0  0  0  0  0  0  0  0  # atno 11005 bound_to 11000
  145.9615  139.2804  143.1152 LP  0  0  0  0  0  0  0  0  0  0  0  0  # atno 17320 bound_to 7965
  145.9215  140.9112  143.0403 LP  0  0  0  0  0  0  0  0  0  0  0  0  # atno 17321 bound_to 7965
  139.9054  144.6887  150.8619 LP  0  0  0  0  0  0  0  0  0  0  0  0  # atno 17342 bound_to 10162
  140.7719  143.3482  151.2067 LP  0  0  0  0  0  0  0  0  0  0  0  0  # atno 17343 bound_to 10162
  157.6287  131.0923  150.8484 LP  0  0  0  0  0  0  0  0  0  0  0  0  # atno 17370 bound_to 10713
  156.8596  130.5108  149.5305 LP  0  0  0  0  0  0  0  0  0  0  0  0  # atno 17371 bound_to 10713
  141.1954  133.8107  157.0718 LP  0  0  0  0  0  0  0  0  0  0  0  0  # atno 17394 bound_to 11000
  140.0550  134.9785  157.1204 LP  0  0  0  0  0  0  0  0  0  0  0  0  # atno 17395 bound_to 11000

$$$$
