AV-unprocessed.smi:3142|AV-procd|sdf|11970|dock4
  -GOLD-   2272017373D 1   1.00000     0.00000
 Structure written by MMmdl.
 36 38  0  0  0  0  0  0  0  0  1 V2000
  151.4171  143.9069  158.3908 C   0  0  0  0  0  0  0  0  0  0  0  0
  152.4912  142.8200  158.5885 C   0  0  2  0  0  0  0  0  0  0  0  0
  152.1357  141.4890  157.9063 C   0  0  0  0  0  0  0  0  0  0  0  0
  152.8485  140.4954  158.0522 O   0  0  0  0  0  0  0  0  0  0  0  0
  151.0216  141.4920  157.1572 N   0  0  0  0  0  0  0  0  0  0  0  0
  150.5004  140.3632  156.3951 C   0  0  0  0  0  0  0  0  0  0  0  0
  151.5318  139.8346  155.4156 C   0  0  0  0  0  0  0  0  0  0  0  0
  151.4084  138.4589  154.8045 C   0  0  0  0  0  0  0  0  0  0  0  0
  152.4960  138.7443  155.8162 C   0  0  0  0  0  0  0  0  0  0  0  0
  149.2056  140.6973  155.6734 C   0  0  0  0  0  0  0  0  0  0  0  0
  148.8197  140.0020  154.3893 C   0  0  0  0  0  0  0  0  0  0  0  0
  149.2058  141.4631  154.3713 C   0  0  0  0  0  0  0  0  0  0  0  0
  152.7747  142.6059  160.0010 N   0  0  0  0  0  0  0  0  0  0  0  0
  152.1902  143.2648  161.0759 C   0  0  0  0  0  0  0  0  0  0  0  0
  152.7720  142.7575  162.2155 C   0  0  0  0  0  0  0  0  0  0  0  0
  153.7174  141.7953  161.8707 N   0  0  0  0  0  0  0  0  0  0  0  0
  153.6647  141.7610  160.5455 C   0  0  0  0  0  0  0  0  0  0  0  0
  151.2326  144.0916  157.3319 H   0  0  0  0  0  0  0  0  0  0  0  0
  151.7342  144.8509  158.8350 H   0  0  0  0  0  0  0  0  0  0  0  0
  150.4676  143.6294  158.8502 H   0  0  0  0  0  0  0  0  0  0  0  0
  153.4091  143.1812  158.1217 H   0  0  0  0  0  0  0  0  0  0  0  0
  150.5013  142.3552  157.0960 H   0  0  0  0  0  0  0  0  0  0  0  0
  150.2860  139.5506  157.0926 H   0  0  0  0  0  0  0  0  0  0  0  0
  151.9403  140.6034  154.7620 H   0  0  0  0  0  0  0  0  0  0  0  0
  150.5823  137.8278  155.1260 H   0  0  0  0  0  0  0  0  0  0  0  0
  151.7057  138.3437  153.7644 H   0  0  0  0  0  0  0  0  0  0  0  0
  153.5180  138.8195  155.4506 H   0  0  0  0  0  0  0  0  0  0  0  0
  152.3862  138.3111  156.8084 H   0  0  0  0  0  0  0  0  0  0  0  0
  148.3837  140.9286  156.3488 H   0  0  0  0  0  0  0  0  0  0  0  0
  149.5257  139.2934  153.9611 H   0  0  0  0  0  0  0  0  0  0  0  0
  147.7694  139.7558  154.2488 H   0  0  0  0  0  0  0  0  0  0  0  0
  148.4123  142.1918  154.2178 H   0  0  0  0  0  0  0  0  0  0  0  0
  150.1656  141.7187  153.9277 H   0  0  0  0  0  0  0  0  0  0  0  0
  151.4293  144.0201  160.9456 H   0  0  0  0  0  0  0  0  0  0  0  0
  152.5871  143.0122  163.2486 H   0  0  0  0  0  0  0  0  0  0  0  0
  154.2920  141.1083  159.9560 H   0  0  0  0  0  0  0  0  0  0  0  0
  1  2  1  0  0  0  0
  1 18  1  0  0  0  0
  1 19  1  0  0  0  0
  1 20  1  0  0  0  0
  2  3  1  0  0  0  0
  2 13  1  0  0  0  0
  2 21  1  0  0  0  0
  3  4  2  0  0  0  0
  3  5  1  0  0  0  0
  5  6  1  0  0  0  0
  5 22  1  0  0  0  0
  6  7  1  0  0  0  0
  6 10  1  0  0  0  0
  6 23  1  0  0  0  0
  7  9  1  0  0  0  0
  7  8  1  0  0  0  0
  7 24  1  0  0  0  0
  8  9  1  0  0  0  0
  8 25  1  0  0  0  0
  8 26  1  0  0  0  0
  9 27  1  0  0  0  0
  9 28  1  0  0  0  0
 10 12  1  0  0  0  0
 10 11  1  0  0  0  0
 10 29  1  0  0  0  0
 11 12  1  0  0  0  0
 11 30  1  0  0  0  0
 11 31  1  0  0  0  0
 12 32  1  0  0  0  0
 12 33  1  0  0  0  0
 13 17  1  0  0  0  0
 13 14  1  0  0  0  0
 14 15  2  0  0  0  0
 14 34  1  0  0  0  0
 15 16  1  0  0  0  0
 15 35  1  0  0  0  0
 16 17  2  0  0  0  0
 17 36  1  0  0  0  0
M  END
> <s_m_source_file>
AV-unprocessed.smi

> <i_m_source_file_index>
3142

> <i_lp_mmshare_version>
43012

> <i_f3d_flags>
0

> <s_epik_input>
W2NIXTFuW2NIXVtjSF1uMVtDQEhdKFtDSDNdKUMoPU8pW05IXVtDSF0oW0NIXTJbQ0gyXVtDSDJdMilbQ0hdM1tDSDJdW0NIMl0z

> <s_epik_cmdline>
J2VwaWtfcHl0aG9uJywgJy1waCcsICc3LjAnLCAnLXRuJywgJzgnLCAnLW1hJywgJzIwMCcsICctbWV0YWxfYmluZGluZycsICctaW1hZScsICc8aW5maWxlLm1hZT4nLCAnLW9tYWUnLCAnPG91dGZpbGUubWFlPic=

> <r_lp_tautomer_probability>
1

> <r_epik_Ionization_Penalty>
0.32285

> <r_epik_Ionization_Penalty_Charging>
0.32285

> <r_epik_Ionization_Penalty_Neutral>
3.37967e-08

> <r_epik_State_Penalty>
0.317502

> <r_epik_Charging_Adjusted_Penalty>
0.640352

> <i_epik_Tot_Q>
0

> <i_epik_Tot_abs_Q>
0

> <r_epik_Metal_State_Penalty>
0.20415

> <b_epik_Metal_Only>
0

> <s_lp_Force_Field>
OPLS_2005

> <r_lp_Energy>
29.0844

> <b_lp_Chiralities_Consistent>
1

> <s_lp_Variant>
AV-unprocessed.smi:3142-1

> <Gold.Version>
5.8.1

> <Gold.Id.Protein>
6NUR|6NUR_protein|mol2

> <Gold.PLP.Fitness>
43.3810

> <Gold.PLP.PLP>
-41.4692

> <Gold.PLP.part.hbond>
-1.0000

> <Gold.PLP.part.metal>
0.0000

> <Gold.PLP.part.buried>
-1.7258

> <Gold.PLP.part.nonpolar>
-36.6545

> <Gold.PLP.part.repulsive>
0.0680

> <Gold.PLP.ligand.clash>
0.3475

> <Gold.PLP.ligand.torsion>
1.2697

> <Gold.PLP.Chemscore.Hbond>
0.8640

> <Gold.PLP.Chemscore.CHOScore>
0.0000

> <Gold.PLP.Chemscore.Metal>
0.0000

> <Gold.Chemscore.Hbonds>
donor molecule, donor type, donor heavy atom, donor atom, acceptor molecule, acceptor atom, score
      P1  H  7997  8008       L1     4  0.80

> <Gold.PLP.Chemscore.Internal.Correction>
2.2067

> <Gold.Rescore>
     Score         DG    S(hbond)    S(metal)    S(lipo)     H(rot)  DE(clash)    DE(int)     intcor
     11.30     -14.55       0.83        0.00      94.43       1.85       0.12       3.14       ----

> <Gold.Chemscore.Fitness>
11.2990

> <Gold.Chemscore.DG>
-14.5527

> <Gold.Chemscore.ZeroCoef>
-5.4800

> <Gold.Chemscore.Hbond>
0.8270

> <Gold.Chemscore.Metal>
0.0000

> <Gold.Chemscore.Lipo>
94.4257

> <Gold.Chemscore.Internal_Hbond>
0.0000

> <Gold.Chemscore.DEClash>
0.1166

> <Gold.Chemscore.DEInternal>
3.1372

> <Gold.Chemscore.Rot>
1.8505

> <Gold.Chemscore.Internal.Correction>
   9.000000E+99

> <Gold.Chemscore.Hbonds>
donor molecule, donor type, donor heavy atom, donor atom, acceptor molecule, acceptor atom, score
      P1  H  7997  8008       L1     4  0.74

> <Gold.Chemscore.Hbond.Weighted>
-2.7622

> <Gold.Chemscore.Metal.Weighted>
-0.0000

> <Gold.Chemscore.Lipo.Weighted>
-11.0478

> <Gold.Chemscore.Internal_Hbond.Weighted>
0.0000

> <Gold.Chemscore.DEClash.Weighted>
0.1166

> <Gold.Chemscore.DEInternal.Weighted>
3.1372

> <Gold.Chemscore.Rot.Weighted>
4.7373

> <Gold.Chemscore.Internal.Correction.Weighted>
   9.000000E+99

> <Gold.Protein.RotatedTorsions>
[ 6907 6896 6895 6894 ] final  128.29 input  -60.11 | X-H torsion
[ 7974 7965 7964 7962 ] final  147.04 input  175.53 | X-H torsion
[ 8008 7997 7996 7995 ] final  -77.79 input   59.86 | X-H torsion
[ 10167 10162 10161 10158 ] final   -2.82 input  -65.29 | X-H torsion
[ 10718 10713 10712 10709 ] final  117.19 input   66.30 | X-H torsion
[ 10763 10752 10751 10750 ] final  163.81 input  -60.55 | X-H torsion
[ 11005 11000 10999 10996 ] final  -36.01 input  -57.11 | X-H torsion

> <Gold.Protein.ActiveResidues>
 VAL166  LYS551  ARG553  GLY616  TRP617  ASP618  TYR619  PRO620  LYS621  CYS622 
 ASP623  PHE694  ASN695  SER759  ASP760  ASP761  ALA762  ILE779  LEU786  VAL792 
 PHE793  MET794  SER795  GLU796  ALA797  LYS798  CYS799  TRP800  GLU811  SER814 

> <Gold.Protein.RotatedAtoms>
  152.3734  133.6448  159.6104 H   0  0  0  0  0  0  0  0  0  0  0  0  # atno 6907 bound_to 6896
  150.7685  133.9234  159.3413 H   0  0  0  0  0  0  0  0  0  0  0  0  # atno 6908 bound_to 6896
  151.7052  135.0924  160.0309 H   0  0  0  0  0  0  0  0  0  0  0  0  # atno 6909 bound_to 6896
  144.8623  139.5980  143.5925 H   0  0  0  0  0  0  0  0  0  0  0  0  # atno 7974 bound_to 7965
  154.5628  140.0705  156.8846 H   0  0  0  0  0  0  0  0  0  0  0  0  # atno 8008 bound_to 7997
  155.2778  140.3369  155.4242 H   0  0  0  0  0  0  0  0  0  0  0  0  # atno 8009 bound_to 7997
  156.2056  140.1739  156.7791 H   0  0  0  0  0  0  0  0  0  0  0  0  # atno 8010 bound_to 7997
  140.6866  143.6612  150.8265 H   0  0  0  0  0  0  0  0  0  0  0  0  # atno 10167 bound_to 10162
  157.6112  131.1034  150.7580 H   0  0  0  0  0  0  0  0  0  0  0  0  # atno 10718 bound_to 10713
  154.2993  135.2759  155.2618 H   0  0  0  0  0  0  0  0  0  0  0  0  # atno 10763 bound_to 10752
  154.5062  135.5795  153.6573 H   0  0  0  0  0  0  0  0  0  0  0  0  # atno 10764 bound_to 10752
  152.9903  135.6170  154.3163 H   0  0  0  0  0  0  0  0  0  0  0  0  # atno 10765 bound_to 10752
  140.9841  133.7040  156.1735 H   0  0  0  0  0  0  0  0  0  0  0  0  # atno 11005 bound_to 11000
  146.2869  139.7030  142.9189 LP  0  0  0  0  0  0  0  0  0  0  0  0  # atno 17320 bound_to 7965
  145.4289  141.0413  143.2922 LP  0  0  0  0  0  0  0  0  0  0  0  0  # atno 17321 bound_to 7965
  140.0320  143.5434  152.2756 LP  0  0  0  0  0  0  0  0  0  0  0  0  # atno 17342 bound_to 10162
  139.6230  144.7632  151.2699 LP  0  0  0  0  0  0  0  0  0  0  0  0  # atno 17343 bound_to 10162
  156.7957  130.4904  149.5377 LP  0  0  0  0  0  0  0  0  0  0  0  0  # atno 17370 bound_to 10713
  156.1216  130.6114  151.0202 LP  0  0  0  0  0  0  0  0  0  0  0  0  # atno 17371 bound_to 10713
  140.7141  134.4429  157.5579 LP  0  0  0  0  0  0  0  0  0  0  0  0  # atno 17394 bound_to 11000
  139.8963  134.8663  156.2094 LP  0  0  0  0  0  0  0  0  0  0  0  0  # atno 17395 bound_to 11000

$$$$
