AV-unprocessed.smi:833|AV-procd|sdf|3883|dock1
  -GOLD-   22720 1333D 1   1.00000     0.00000
 Structure written by MMmdl.
 40 41  0  0  0  0  0  0  0  0  2 V2000
  145.8456  145.0658  152.3125 C   0  0  0  0  0  0  0  0  0  0  0  0
  145.6006  144.4777  153.7082 C   0  0  1  0  0  0  0  0  0  0  0  0
  144.2151  144.5716  153.9691 O   0  0  0  0  0  0  0  0  0  0  0  0
  146.0247  142.9984  153.7915 C   0  0  0  0  0  0  0  0  0  0  0  0
  147.2051  142.8166  154.6308 N   0  0  0  0  0  0  0  0  0  0  0  0
  147.8645  141.6609  154.7913 C   0  0  0  0  0  0  0  0  0  0  0  0
  147.5440  140.6093  154.2375 O   0  0  0  0  0  0  0  0  0  0  0  0
  148.9208  141.8096  155.6076 N   0  0  0  0  0  0  0  0  0  0  0  0
  149.8732  140.8202  155.9801 C   0  0  0  0  0  0  0  0  0  0  0  0
  149.9145  139.5652  155.3202 C   0  0  0  0  0  0  0  0  0  0  0  0
  150.8137  138.5726  155.7530 C   0  0  0  0  0  0  0  0  0  0  0  0
  151.6487  138.8440  156.8503 C   0  0  0  0  0  0  0  0  0  0  0  0
  151.5775  140.0431  157.4642 N   0  3  0  0  0  0  0  0  0  0  0  0
  150.7435  141.0442  157.0862 C   0  0  0  0  0  0  0  0  0  0  0  0
  150.7886  142.2529  157.8181 N   0  0  0  0  0  0  0  0  0  0  0  0
  151.0399  142.2365  159.2547 C   0  0  0  0  0  0  0  0  0  0  0  0
  151.3707  143.6818  159.6158 C   0  0  0  0  0  0  0  0  0  0  0  0
  152.1189  144.1661  158.3777 C   0  0  0  0  0  0  0  0  0  0  0  0
  151.4411  143.4166  157.2255 C   0  0  0  0  0  0  0  0  0  0  0  0
  146.9061  145.0444  152.0604 H   0  0  0  0  0  0  0  0  0  0  0  0
  145.5175  146.1046  152.2596 H   0  0  0  0  0  0  0  0  0  0  0  0
  145.3097  144.5067  151.5444 H   0  0  0  0  0  0  0  0  0  0  0  0
  146.1413  145.0777  154.4413 H   0  0  0  0  0  0  0  0  0  0  0  0
  143.7450  144.2798  153.2032 H   0  0  0  0  0  0  0  0  0  0  0  0
  145.2107  142.3823  154.1757 H   0  0  0  0  0  0  0  0  0  0  0  0
  146.2442  142.6166  152.7928 H   0  0  0  0  0  0  0  0  0  0  0  0
  147.5386  143.6317  155.1244 H   0  0  0  0  0  0  0  0  0  0  0  0
  149.1252  142.7512  155.9089 H   0  0  0  0  0  0  0  0  0  0  0  0
  149.2499  139.3402  154.4996 H   0  0  0  0  0  0  0  0  0  0  0  0
  150.8519  137.6130  155.2581 H   0  0  0  0  0  0  0  0  0  0  0  0
  152.3632  138.1428  157.2564 H   0  0  0  0  0  0  0  0  0  0  0  0
  150.1745  141.8693  159.8069 H   0  0  0  0  0  0  0  0  0  0  0  0
  151.8933  141.5976  159.4857 H   0  0  0  0  0  0  0  0  0  0  0  0
  150.4514  144.2553  159.7437 H   0  0  0  0  0  0  0  0  0  0  0  0
  151.9560  143.7683  160.5317 H   0  0  0  0  0  0  0  0  0  0  0  0
  152.0862  145.2492  158.2566 H   0  0  0  0  0  0  0  0  0  0  0  0
  153.1660  143.8678  158.4438 H   0  0  0  0  0  0  0  0  0  0  0  0
  152.1624  143.1378  156.4560 H   0  0  0  0  0  0  0  0  0  0  0  0
  150.6812  144.0491  156.7658 H   0  0  0  0  0  0  0  0  0  0  0  0
  152.1959  140.2090  158.2584 H   0  0  0  0  0  0  0  0  0  0  0  0
  1  2  1  0  0  0  0
  1 20  1  0  0  0  0
  1 21  1  0  0  0  0
  1 22  1  0  0  0  0
  2  3  1  0  0  0  0
  2  4  1  0  0  0  0
  2 23  1  0  0  0  0
  3 24  1  0  0  0  0
  4  5  1  0  0  0  0
  4 25  1  0  0  0  0
  4 26  1  0  0  0  0
  5  6  1  0  0  0  0
  5 27  1  0  0  0  0
  6  7  2  0  0  0  0
  6  8  1  0  0  0  0
  8  9  1  0  0  0  0
  8 28  1  0  0  0  0
  9 14  1  0  0  0  0
  9 10  2  0  0  0  0
 10 11  1  0  0  0  0
 10 29  1  0  0  0  0
 11 12  2  0  0  0  0
 11 30  1  0  0  0  0
 12 13  1  0  0  0  0
 12 31  1  0  0  0  0
 13 14  2  0  0  0  0
 13 40  1  0  0  0  0
 14 15  1  0  0  0  0
 15 19  1  0  0  0  0
 15 16  1  0  0  0  0
 16 17  1  0  0  0  0
 16 32  1  0  0  0  0
 16 33  1  0  0  0  0
 17 18  1  0  0  0  0
 17 34  1  0  0  0  0
 17 35  1  0  0  0  0
 18 19  1  0  0  0  0
 18 36  1  0  0  0  0
 18 37  1  0  0  0  0
 19 38  1  0  0  0  0
 19 39  1  0  0  0  0
M  CHG  1  13   1
M  END
> <s_m_source_file>
AV-unprocessed.smi

> <i_m_source_file_index>
833

> <i_lp_mmshare_version>
43012

> <i_f3d_flags>
0

> <s_epik_input>
W0NIM11bQ0BIXShbT0hdKVtDSDJdW05IXUMoPU8pW05IXWMxW2NIXVtjSF1bY0hdbmMxTjJbQ0gyXVtDSDJdW0NIMl1bQ0gyXTI=

> <s_epik_cmdline>
J2VwaWtfcHl0aG9uJywgJy1waCcsICc3LjAnLCAnLXRuJywgJzgnLCAnLW1hJywgJzIwMCcsICctbWV0YWxfYmluZGluZycsICctaW1hZScsICc8aW5maWxlLm1hZT4nLCAnLW9tYWUnLCAnPG91dGZpbGUubWFlPic=

> <r_lp_tautomer_probability>
0.999994

> <r_epik_Ionization_Penalty>
1.11387

> <r_epik_Ionization_Penalty_Charging>
1.11385

> <r_epik_Ionization_Penalty_Neutral>
1.95796e-05

> <r_epik_State_Penalty>
1.17209

> <r_epik_Charging_Adjusted_Penalty>
2.28594

> <i_epik_Tot_Q>
1

> <i_epik_Tot_abs_Q>
1

> <r_epik_Metal_State_Penalty>
1.25763

> <b_epik_Metal_Only>
0

> <s_lp_Force_Field>
OPLS_2005

> <r_lp_Energy>
38.2358

> <b_lp_Chiralities_Consistent>
1

> <s_lp_Variant>
AV-unprocessed.smi:833-4

> <Gold.Version>
5.8.1

> <Gold.Id.Protein>
6NUR|6NUR_protein|mol2

> <Gold.PLP.Fitness>
47.2324

> <Gold.PLP.PLP>
-41.0649

> <Gold.PLP.part.hbond>
-3.0000

> <Gold.PLP.part.metal>
0.0000

> <Gold.PLP.part.buried>
-2.8166

> <Gold.PLP.part.nonpolar>
-35.5907

> <Gold.PLP.part.repulsive>
0.7753

> <Gold.PLP.ligand.clash>
0.0000

> <Gold.PLP.ligand.torsion>
1.2933

> <Gold.PLP.Chemscore.Hbond>
2.7808

> <Gold.PLP.Chemscore.CHOScore>
0.0000

> <Gold.PLP.Chemscore.Metal>
0.0000

> <Gold.Chemscore.Hbonds>
donor molecule, donor type, donor heavy atom, donor atom, acceptor molecule, acceptor atom, score
      L1  H     3    24       P1 10174  0.23
      L1  H     5    27       P1  8028  0.70
      L1  H     8    28       P1  8028  0.98

> <Gold.PLP.Chemscore.Internal.Correction>
0.4117

> <Gold.Rescore>
     Score         DG    S(hbond)    S(metal)    S(lipo)     H(rot)  DE(clash)    DE(int)     intcor
     13.86     -18.18       2.00        0.00      96.64       2.06       1.99       2.32       ----

> <Gold.Chemscore.Fitness>
13.8630

> <Gold.Chemscore.DG>
-18.1768

> <Gold.Chemscore.ZeroCoef>
-5.4800

> <Gold.Chemscore.Hbond>
1.9979

> <Gold.Chemscore.Metal>
0.0000

> <Gold.Chemscore.Lipo>
96.6409

> <Gold.Chemscore.Internal_Hbond>
0.0000

> <Gold.Chemscore.DEClash>
1.9907

> <Gold.Chemscore.DEInternal>
2.3231

> <Gold.Chemscore.Rot>
2.0637

> <Gold.Chemscore.Internal.Correction>
   9.000000E+99

> <Gold.Chemscore.Hbonds>
donor molecule, donor type, donor heavy atom, donor atom, acceptor molecule, acceptor atom, score
      L1  H     3    24       P1 10174  0.22
      L1  H     5    27       P1  8028  0.07
      L1  H     8    28       P1  8028  0.90

> <Gold.Chemscore.Hbond.Weighted>
-6.6730

> <Gold.Chemscore.Metal.Weighted>
-0.0000

> <Gold.Chemscore.Lipo.Weighted>
-11.3070

> <Gold.Chemscore.Internal_Hbond.Weighted>
0.0000

> <Gold.Chemscore.DEClash.Weighted>
1.9907

> <Gold.Chemscore.DEInternal.Weighted>
2.3231

> <Gold.Chemscore.Rot.Weighted>
5.2832

> <Gold.Chemscore.Internal.Correction.Weighted>
   9.000000E+99

> <Gold.Protein.RotatedTorsions>
[ 6907 6896 6895 6894 ] final  -90.00 input  -60.11 | X-H torsion
[ 7974 7965 7964 7962 ] final   39.32 input  175.53 | X-H torsion
[ 8008 7997 7996 7995 ] final  -64.08 input   59.86 | X-H torsion
[ 10167 10162 10161 10158 ] final   40.33 input  -65.29 | X-H torsion
[ 10718 10713 10712 10709 ] final  -74.81 input   66.30 | X-H torsion
[ 10763 10752 10751 10750 ] final  125.55 input  -60.55 | X-H torsion
[ 11005 11000 10999 10996 ] final  134.36 input  -57.11 | X-H torsion

> <Gold.Protein.ActiveResidues>
 VAL166  LYS551  ARG553  GLY616  TRP617  ASP618  TYR619  PRO620  LYS621  CYS622 
 ASP623  PHE694  ASN695  SER759  ASP760  ASP761  ALA762  ILE779  LEU786  VAL792 
 PHE793  MET794  SER795  GLU796  ALA797  LYS798  CYS799  TRP800  GLU811  SER814 

> <Gold.Protein.RotatedAtoms>
  150.6878  134.2500  159.4506 H   0  0  0  0  0  0  0  0  0  0  0  0  # atno 6907 bound_to 6896
  152.0438  134.9693  160.0583 H   0  0  0  0  0  0  0  0  0  0  0  0  # atno 6908 bound_to 6896
  152.1184  133.4305  159.4701 H   0  0  0  0  0  0  0  0  0  0  0  0  # atno 6909 bound_to 6896
  146.0993  139.5666  142.9424 H   0  0  0  0  0  0  0  0  0  0  0  0  # atno 7974 bound_to 7965
  154.4591  140.0961  156.6841 H   0  0  0  0  0  0  0  0  0  0  0  0  # atno 8008 bound_to 7997
  155.5049  140.3474  155.4359 H   0  0  0  0  0  0  0  0  0  0  0  0  # atno 8009 bound_to 7997
  156.0835  140.1379  156.9671 H   0  0  0  0  0  0  0  0  0  0  0  0  # atno 8010 bound_to 7997
  140.3753  144.2052  150.6132 H   0  0  0  0  0  0  0  0  0  0  0  0  # atno 10167 bound_to 10162
  156.0229  130.4425  150.2948 H   0  0  0  0  0  0  0  0  0  0  0  0  # atno 10718 bound_to 10713
  153.6792  135.3317  155.3173 H   0  0  0  0  0  0  0  0  0  0  0  0  # atno 10763 bound_to 10752
  154.8470  135.4405  154.1625 H   0  0  0  0  0  0  0  0  0  0  0  0  # atno 10764 bound_to 10752
  153.2636  135.6993  153.7629 H   0  0  0  0  0  0  0  0  0  0  0  0  # atno 10765 bound_to 10752
  139.9910  134.9515  156.9856 H   0  0  0  0  0  0  0  0  0  0  0  0  # atno 11005 bound_to 11000
  145.5885  141.0373  143.2083 LP  0  0  0  0  0  0  0  0  0  0  0  0  # atno 17320 bound_to 7965
  144.7420  139.7422  143.7307 LP  0  0  0  0  0  0  0  0  0  0  0  0  # atno 17321 bound_to 7965
  140.4993  143.2323  151.8703 LP  0  0  0  0  0  0  0  0  0  0  0  0  # atno 17342 bound_to 10162
  139.4800  144.5078  151.8974 LP  0  0  0  0  0  0  0  0  0  0  0  0  # atno 17343 bound_to 10162
  157.1051  131.0206  151.3070 LP  0  0  0  0  0  0  0  0  0  0  0  0  # atno 17370 bound_to 10713
  157.4749  130.7731  149.7358 LP  0  0  0  0  0  0  0  0  0  0  0  0  # atno 17371 bound_to 10713
  140.4909  134.1194  155.7232 LP  0  0  0  0  0  0  0  0  0  0  0  0  # atno 17394 bound_to 11000
  141.1566  133.8872  157.1962 LP  0  0  0  0  0  0  0  0  0  0  0  0  # atno 17395 bound_to 11000

$$$$
