AV-unprocessed.smi:1830|AV-procd|sdf|7443|dock4
  -GOLD-   22720 9133D 1   1.00000     0.00000
 Structure written by MMmdl.
 52 55  0  0  0  0  0  0  0  0  1 V2000
  145.1130  138.2630  152.5445 O   0  0  0  0  0  0  0  0  0  0  0  0
  146.1799  137.6555  152.4577 C   0  0  0  0  0  0  0  0  0  0  0  0
  146.2968  136.4387  151.9081 N   0  0  0  0  0  0  0  0  0  0  0  0
  145.2041  135.6518  151.3421 C   0  0  0  0  0  0  0  0  0  0  0  0
  145.5561  134.1581  151.2195 C   0  0  1  0  0  0  0  0  0  0  0  0
  146.0498  133.5133  152.5377 C   0  0  0  0  0  0  0  0  0  0  0  0
  146.2843  132.0977  152.3297 N   0  0  0  0  0  0  0  0  0  0  0  0
  146.6808  131.3232  153.4826 C   0  0  0  0  0  0  0  0  0  0  0  0
  146.4506  129.8633  153.0539 C   0  0  0  0  0  0  0  0  0  0  0  0
  145.4476  129.9593  151.8825 C   0  0  0  0  0  0  0  0  0  0  0  0
  145.0898  131.4467  151.8630 C   0  0  2  0  0  0  0  0  0  0  0  0
  144.6278  132.0493  150.5277 C   0  0  0  0  0  0  0  0  0  0  0  0
  144.4141  133.4508  150.7187 O   0  0  0  0  0  0  0  0  0  0  0  0
  147.3679  138.1003  152.9004 N   0  0  0  0  0  0  0  0  0  0  0  0
  147.6736  139.3216  153.5686 C   0  0  0  0  0  0  0  0  0  0  0  0
  146.9055  140.5003  153.4015 C   0  0  0  0  0  0  0  0  0  0  0  0
  147.2789  141.6679  154.0906 C   0  0  0  0  0  0  0  0  0  0  0  0
  148.4148  141.6210  154.9168 C   0  0  0  0  0  0  0  0  0  0  0  0
  149.1671  140.5134  155.0728 N   0  0  0  0  0  0  0  0  0  0  0  0
  148.8126  139.3812  154.4169 C   0  0  0  0  0  0  0  0  0  0  0  0
  149.6417  138.2503  154.5709 N   0  0  0  0  0  0  0  0  0  0  0  0
  151.0006  138.5820  154.9918 C   0  0  0  0  0  0  0  0  0  0  0  0
  151.4310  137.4901  155.9735 C   0  0  0  0  0  0  0  0  0  0  0  0
  150.1082  137.0116  156.5592 C   0  0  0  0  0  0  0  0  0  0  0  0
  149.1628  137.1196  155.3646 C   0  0  0  0  0  0  0  0  0  0  0  0
  147.2146  136.0193  151.8774 H   0  0  0  0  0  0  0  0  0  0  0  0
  144.3389  135.7669  151.9954 H   0  0  0  0  0  0  0  0  0  0  0  0
  144.9007  136.0451  150.3706 H   0  0  0  0  0  0  0  0  0  0  0  0
  146.3499  134.0676  150.4759 H   0  0  0  0  0  0  0  0  0  0  0  0
  146.9664  133.9979  152.8750 H   0  0  0  0  0  0  0  0  0  0  0  0
  145.3095  133.6489  153.3268 H   0  0  0  0  0  0  0  0  0  0  0  0
  147.7152  131.5210  153.7648 H   0  0  0  0  0  0  0  0  0  0  0  0
  146.0445  131.5641  154.3358 H   0  0  0  0  0  0  0  0  0  0  0  0
  147.3809  129.4045  152.7174 H   0  0  0  0  0  0  0  0  0  0  0  0
  146.0621  129.2668  153.8798 H   0  0  0  0  0  0  0  0  0  0  0  0
  145.9303  129.6650  150.9496 H   0  0  0  0  0  0  0  0  0  0  0  0
  144.5711  129.3267  152.0257 H   0  0  0  0  0  0  0  0  0  0  0  0
  144.2942  131.6039  152.5949 H   0  0  0  0  0  0  0  0  0  0  0  0
  145.3723  131.8903  149.7459 H   0  0  0  0  0  0  0  0  0  0  0  0
  143.6999  131.5843  150.1948 H   0  0  0  0  0  0  0  0  0  0  0  0
  148.1360  137.4491  152.8282 H   0  0  0  0  0  0  0  0  0  0  0  0
  146.0470  140.5376  152.7493 H   0  0  0  0  0  0  0  0  0  0  0  0
  146.7098  142.5795  153.9842 H   0  0  0  0  0  0  0  0  0  0  0  0
  148.7337  142.4979  155.4602 H   0  0  0  0  0  0  0  0  0  0  0  0
  151.6740  138.6342  154.1362 H   0  0  0  0  0  0  0  0  0  0  0  0
  151.0162  139.5544  155.4878 H   0  0  0  0  0  0  0  0  0  0  0  0
  151.9115  136.6733  155.4328 H   0  0  0  0  0  0  0  0  0  0  0  0
  152.1278  137.8516  156.7303 H   0  0  0  0  0  0  0  0  0  0  0  0
  150.1607  136.0031  156.9704 H   0  0  0  0  0  0  0  0  0  0  0  0
  149.7852  137.6877  157.3523 H   0  0  0  0  0  0  0  0  0  0  0  0
  148.1208  137.1958  155.6758 H   0  0  0  0  0  0  0  0  0  0  0  0
  149.2429  136.2248  154.7464 H   0  0  0  0  0  0  0  0  0  0  0  0
  1  2  2  0  0  0  0
  2  3  1  0  0  0  0
  2 14  1  0  0  0  0
  3  4  1  0  0  0  0
  3 26  1  0  0  0  0
  4  5  1  0  0  0  0
  4 27  1  0  0  0  0
  4 28  1  0  0  0  0
  5 13  1  0  0  0  0
  5  6  1  0  0  0  0
  5 29  1  0  0  0  0
  6  7  1  0  0  0  0
  6 30  1  0  0  0  0
  6 31  1  0  0  0  0
  7 11  1  0  0  0  0
  7  8  1  0  0  0  0
  8  9  1  0  0  0  0
  8 32  1  0  0  0  0
  8 33  1  0  0  0  0
  9 10  1  0  0  0  0
  9 34  1  0  0  0  0
  9 35  1  0  0  0  0
 10 11  1  0  0  0  0
 10 36  1  0  0  0  0
 10 37  1  0  0  0  0
 11 12  1  0  0  0  0
 11 38  1  0  0  0  0
 12 13  1  0  0  0  0
 12 39  1  0  0  0  0
 12 40  1  0  0  0  0
 14 15  1  0  0  0  0
 14 41  1  0  0  0  0
 15 20  1  0  0  0  0
 15 16  2  0  0  0  0
 16 17  1  0  0  0  0
 16 42  1  0  0  0  0
 17 18  2  0  0  0  0
 17 43  1  0  0  0  0
 18 19  1  0  0  0  0
 18 44  1  0  0  0  0
 19 20  2  0  0  0  0
 20 21  1  0  0  0  0
 21 25  1  0  0  0  0
 21 22  1  0  0  0  0
 22 23  1  0  0  0  0
 22 45  1  0  0  0  0
 22 46  1  0  0  0  0
 23 24  1  0  0  0  0
 23 47  1  0  0  0  0
 23 48  1  0  0  0  0
 24 25  1  0  0  0  0
 24 49  1  0  0  0  0
 24 50  1  0  0  0  0
 25 51  1  0  0  0  0
 25 52  1  0  0  0  0
M  END
> <s_m_source_file>
AV-unprocessed.smi

> <i_m_source_file_index>
1830

> <i_lp_mmshare_version>
43012

> <i_f3d_flags>
0

> <s_epik_input>
W0NIMl0xW0NIMl1bQ0gyXVtDQEhdKE4xMilbQ0gyXU9bQ0BASF0oW0NIMl0yKVtDSDJdW05IXUMoPU8pW05IXWMzW2NIXVtjSF1bY0hdbmMzTjRbQ0gyXVtDSDJdW0NIMl1bQ0gyXTQ=

> <s_epik_cmdline>
J2VwaWtfcHl0aG9uJywgJy1waCcsICc3LjAnLCAnLXRuJywgJzgnLCAnLW1hJywgJzIwMCcsICctbWV0YWxfYmluZGluZycsICctaW1hZScsICc8aW5maWxlLm1hZT4nLCAnLW9tYWUnLCAnPG91dGZpbGUubWFlPic=

> <r_lp_tautomer_probability>
1

> <r_epik_Ionization_Penalty>
1.16487

> <r_epik_Ionization_Penalty_Charging>
0

> <r_epik_Ionization_Penalty_Neutral>
1.16487

> <r_epik_State_Penalty>
1.21807

> <r_epik_Charging_Adjusted_Penalty>
1.21807

> <i_epik_Tot_Q>
0

> <i_epik_Tot_abs_Q>
0

> <r_epik_Metal_State_Penalty>
1.19922

> <b_epik_Metal_Only>
0

> <s_lp_Force_Field>
OPLS_2005

> <r_lp_Energy>
78.4181

> <b_lp_Chiralities_Consistent>
1

> <s_lp_Variant>
AV-unprocessed.smi:1830-12

> <Gold.Version>
5.8.1

> <Gold.Id.Protein>
6NUR|6NUR_protein|mol2

> <Gold.PLP.Fitness>
46.1569

> <Gold.PLP.PLP>
-38.5460

> <Gold.PLP.part.hbond>
-2.1903

> <Gold.PLP.part.metal>
0.0000

> <Gold.PLP.part.buried>
-5.7559

> <Gold.PLP.part.nonpolar>
-35.9489

> <Gold.PLP.part.repulsive>
4.2172

> <Gold.PLP.ligand.clash>
0.0000

> <Gold.PLP.ligand.torsion>
0.7529

> <Gold.PLP.Chemscore.Hbond>
2.0000

> <Gold.PLP.Chemscore.CHOScore>
1.0000

> <Gold.PLP.Chemscore.Metal>
0.0000

> <Gold.Chemscore.Hbonds>
donor molecule, donor type, donor heavy atom, donor atom, acceptor molecule, acceptor atom, score
      L1  H     3    26       P1  7948  0.98
      L1  H    14    41       P1  7948  0.94
      L1  C    18    44       P1  8028  1.00

> <Gold.PLP.Chemscore.Internal.Correction>
0.1168

> <Gold.Rescore>
     Score         DG    S(hbond)    S(metal)    S(lipo)     H(rot)  DE(clash)    DE(int)     intcor
     17.76     -21.01       1.95        0.00     107.23       1.37       1.48       1.77       ----

> <Gold.Chemscore.Fitness>
17.7613

> <Gold.Chemscore.DG>
-21.0064

> <Gold.Chemscore.ZeroCoef>
-5.4800

> <Gold.Chemscore.Hbond>
1.9460

> <Gold.Chemscore.Metal>
0.0000

> <Gold.Chemscore.Lipo>
107.2289

> <Gold.Chemscore.Internal_Hbond>
0.0000

> <Gold.Chemscore.DEClash>
1.4775

> <Gold.Chemscore.DEInternal>
1.7676

> <Gold.Chemscore.Rot>
1.3746

> <Gold.Chemscore.Internal.Correction>
   9.000000E+99

> <Gold.Chemscore.Hbonds>
donor molecule, donor type, donor heavy atom, donor atom, acceptor molecule, acceptor atom, score
      L1  H     3    26       P1  7948  0.93
      L1  H    14    41       P1  7948  0.91

> <Gold.Chemscore.Hbond.Weighted>
-6.4995

> <Gold.Chemscore.Metal.Weighted>
-0.0000

> <Gold.Chemscore.Lipo.Weighted>
-12.5458

> <Gold.Chemscore.Internal_Hbond.Weighted>
0.0000

> <Gold.Chemscore.DEClash.Weighted>
1.4775

> <Gold.Chemscore.DEInternal.Weighted>
1.7676

> <Gold.Chemscore.Rot.Weighted>
3.5189

> <Gold.Chemscore.Internal.Correction.Weighted>
   9.000000E+99

> <Gold.Protein.RotatedTorsions>
[ 6907 6896 6895 6894 ] final   23.43 input  -60.11 | X-H torsion
[ 7974 7965 7964 7962 ] final  156.37 input  175.53 | X-H torsion
[ 8008 7997 7996 7995 ] final   75.44 input   59.86 | X-H torsion
[ 10167 10162 10161 10158 ] final  -11.95 input  -65.29 | X-H torsion
[ 10718 10713 10712 10709 ] final  -36.09 input   66.30 | X-H torsion
[ 10763 10752 10751 10750 ] final  119.45 input  -60.55 | X-H torsion
[ 11005 11000 10999 10996 ] final  164.38 input  -57.11 | X-H torsion

> <Gold.Protein.ActiveResidues>
 VAL166  LYS551  ARG553  GLY616  TRP617  ASP618  TYR619  PRO620  LYS621  CYS622 
 ASP623  PHE694  ASN695  SER759  ASP760  ASP761  ALA762  ILE779  LEU786  VAL792 
 PHE793  MET794  SER795  GLU796  ALA797  LYS798  CYS799  TRP800  GLU811  SER814 

> <Gold.Protein.RotatedAtoms>
  151.9422  135.0208  160.0536 H   0  0  0  0  0  0  0  0  0  0  0  0  # atno 6907 bound_to 6896
  152.2026  133.4848  159.5075 H   0  0  0  0  0  0  0  0  0  0  0  0  # atno 6908 bound_to 6896
  150.6958  134.1487  159.4175 H   0  0  0  0  0  0  0  0  0  0  0  0  # atno 6909 bound_to 6896
  144.7967  139.7195  143.6199 H   0  0  0  0  0  0  0  0  0  0  0  0  # atno 7974 bound_to 7965
  155.8129  140.3472  155.5468 H   0  0  0  0  0  0  0  0  0  0  0  0  # atno 8008 bound_to 7997
  155.8422  140.0943  157.1748 H   0  0  0  0  0  0  0  0  0  0  0  0  # atno 8009 bound_to 7997
  154.4005  140.1392  156.3729 H   0  0  0  0  0  0  0  0  0  0  0  0  # atno 8010 bound_to 7997
  140.7150  143.5585  150.9222 H   0  0  0  0  0  0  0  0  0  0  0  0  # atno 10167 bound_to 10162
  156.3309  130.4279  149.7874 H   0  0  0  0  0  0  0  0  0  0  0  0  # atno 10718 bound_to 10713
  153.5832  135.3480  155.2883 H   0  0  0  0  0  0  0  0  0  0  0  0  # atno 10763 bound_to 10752
  154.8664  135.4187  154.2598 H   0  0  0  0  0  0  0  0  0  0  0  0  # atno 10764 bound_to 10752
  153.3388  135.7048  153.6955 H   0  0  0  0  0  0  0  0  0  0  0  0  # atno 10765 bound_to 10752
  140.2453  134.8019  157.3450 H   0  0  0  0  0  0  0  0  0  0  0  0  # atno 11005 bound_to 11000
  146.2237  139.5683  142.9601 LP  0  0  0  0  0  0  0  0  0  0  0  0  # atno 17320 bound_to 7965
  145.5655  141.0400  143.2203 LP  0  0  0  0  0  0  0  0  0  0  0  0  # atno 17321 bound_to 7965
  139.9310  143.6493  152.3076 LP  0  0  0  0  0  0  0  0  0  0  0  0  # atno 17342 bound_to 10162
  139.6944  144.7643  151.1382 LP  0  0  0  0  0  0  0  0  0  0  0  0  # atno 17343 bound_to 10162
  156.5146  130.8187  151.3181 LP  0  0  0  0  0  0  0  0  0  0  0  0  # atno 17370 bound_to 10713
  157.7430  130.9902  150.2559 LP  0  0  0  0  0  0  0  0  0  0  0  0  # atno 17371 bound_to 10713
  140.1612  134.4726  155.7893 LP  0  0  0  0  0  0  0  0  0  0  0  0  # atno 17394 bound_to 11000
  141.2207  133.6902  156.7548 LP  0  0  0  0  0  0  0  0  0  0  0  0  # atno 17395 bound_to 11000

$$$$
