AV-unprocessed.smi:2923|AV-procd|sdf|11203|dock7
  -GOLD-   2272016 93D 1   1.00000     0.00000
 Structure written by MMmdl.
 47 49  0  0  0  0  0  0  0  0  2 V2000
  145.4119  131.4994  150.7606 C   0  0  0  0  0  0  0  0  0  0  0  0
  144.5747  132.6032  150.3035 N   0  0  0  0  0  0  0  0  0  0  0  0
  143.6084  132.3993  149.2320 C   0  0  0  0  0  0  0  0  0  0  0  0
  144.7200  133.8810  150.8855 C   0  0  0  0  0  0  0  0  0  0  0  0
  145.8522  134.2639  151.6456 C   0  0  0  0  0  0  0  0  0  0  0  0
  145.9214  135.5601  152.1966 C   0  0  0  0  0  0  0  0  0  0  0  0
  144.8670  136.4723  151.9833 C   0  0  0  0  0  0  0  0  0  0  0  0
  144.9772  137.7609  152.5736 N   0  0  0  0  0  0  0  0  0  0  0  0
  145.9401  138.2352  153.3830 C   0  0  0  0  0  0  0  0  0  0  0  0
  146.9013  137.5911  153.8017 O   0  0  0  0  0  0  0  0  0  0  0  0
  145.7167  139.5163  153.7031 N   0  0  0  0  0  0  0  0  0  0  0  0
  146.5768  140.3068  154.5753 C   0  0  1  0  0  0  0  0  0  0  0  0
  148.0579  140.1571  154.2287 C   0  0  2  0  0  0  0  0  0  0  0  0
  149.2379  139.5706  154.9178 C   0  0  0  0  0  0  0  0  0  0  0  0
  150.2292  140.7396  154.6723 C   0  0  0  0  0  0  0  0  0  0  0  0
  149.4315  141.8365  154.1627 O   0  0  0  0  0  0  0  0  0  0  0  0
  148.1472  141.5956  154.7000 C   0  0  1  0  0  0  0  0  0  0  0  0
  146.7353  141.8053  154.1168 C   0  0  0  0  0  0  0  0  0  0  0  0
  146.6219  142.1641  152.6211 C   0  0  0  0  0  0  0  0  0  0  0  0
  145.8632  142.8131  154.8664 C   0  0  0  0  0  0  0  0  0  0  0  0
  143.7536  136.0397  151.2245 C   0  0  0  0  0  0  0  0  0  0  0  0
  143.7282  134.7891  150.7159 N   0  3  0  0  0  0  0  0  0  0  0  0
  146.4662  131.7244  150.5951 H   0  0  0  0  0  0  0  0  0  0  0  0
  145.1797  130.5769  150.2283 H   0  0  0  0  0  0  0  0  0  0  0  0
  145.2585  131.3169  151.8248 H   0  0  0  0  0  0  0  0  0  0  0  0
  142.5978  132.6125  149.5817 H   0  0  0  0  0  0  0  0  0  0  0  0
  143.6264  131.3703  148.8729 H   0  0  0  0  0  0  0  0  0  0  0  0
  143.8301  133.0502  148.3857 H   0  0  0  0  0  0  0  0  0  0  0  0
  146.6720  133.5829  151.8187 H   0  0  0  0  0  0  0  0  0  0  0  0
  146.7845  135.8495  152.7783 H   0  0  0  0  0  0  0  0  0  0  0  0
  144.2151  138.3934  152.3773 H   0  0  0  0  0  0  0  0  0  0  0  0
  144.9019  139.9756  153.3235 H   0  0  0  0  0  0  0  0  0  0  0  0
  146.3722  140.1816  155.6427 H   0  0  0  0  0  0  0  0  0  0  0  0
  148.1861  140.0517  153.1489 H   0  0  0  0  0  0  0  0  0  0  0  0
  149.0514  139.4076  155.9802 H   0  0  0  0  0  0  0  0  0  0  0  0
  149.5719  138.6360  154.4663 H   0  0  0  0  0  0  0  0  0  0  0  0
  150.7268  141.0284  155.5988 H   0  0  0  0  0  0  0  0  0  0  0  0
  150.9961  140.4773  153.9430 H   0  0  0  0  0  0  0  0  0  0  0  0
  148.1589  141.7044  155.7907 H   0  0  0  0  0  0  0  0  0  0  0  0
  146.9879  143.1737  152.4323 H   0  0  0  0  0  0  0  0  0  0  0  0
  145.5858  142.1289  152.2827 H   0  0  0  0  0  0  0  0  0  0  0  0
  147.1861  141.5028  151.9663 H   0  0  0  0  0  0  0  0  0  0  0  0
  146.2151  143.8345  154.7185 H   0  0  0  0  0  0  0  0  0  0  0  0
  145.8647  142.6236  155.9403 H   0  0  0  0  0  0  0  0  0  0  0  0
  144.8250  142.7695  154.5359 H   0  0  0  0  0  0  0  0  0  0  0  0
  142.8757  136.6297  151.0096 H   0  0  0  0  0  0  0  0  0  0  0  0
  142.9101  134.5117  150.1733 H   0  0  0  0  0  0  0  0  0  0  0  0
  1  2  1  0  0  0  0
  1 23  1  0  0  0  0
  1 24  1  0  0  0  0
  1 25  1  0  0  0  0
  2  3  1  0  0  0  0
  2  4  1  0  0  0  0
  3 26  1  0  0  0  0
  3 27  1  0  0  0  0
  3 28  1  0  0  0  0
  4 22  1  0  0  0  0
  4  5  2  0  0  0  0
  5  6  1  0  0  0  0
  5 29  1  0  0  0  0
  6  7  2  0  0  0  0
  6 30  1  0  0  0  0
  7  8  1  0  0  0  0
  7 21  1  0  0  0  0
  8  9  1  0  0  0  0
  8 31  1  0  0  0  0
  9 10  2  0  0  0  0
  9 11  1  0  0  0  0
 11 12  1  0  0  0  0
 11 32  1  0  0  0  0
 12 18  1  0  0  0  0
 12 13  1  0  0  0  0
 12 33  1  0  0  0  0
 13 17  1  0  0  0  0
 13 14  1  0  0  0  0
 13 34  1  0  0  0  0
 14 15  1  0  0  0  0
 14 35  1  0  0  0  0
 14 36  1  0  0  0  0
 15 16  1  0  0  0  0
 15 37  1  0  0  0  0
 15 38  1  0  0  0  0
 16 17  1  0  0  0  0
 17 18  1  0  0  0  0
 17 39  1  0  0  0  0
 18 19  1  0  0  0  0
 18 20  1  0  0  0  0
 19 40  1  0  0  0  0
 19 41  1  0  0  0  0
 19 42  1  0  0  0  0
 20 43  1  0  0  0  0
 20 44  1  0  0  0  0
 20 45  1  0  0  0  0
 21 22  2  0  0  0  0
 21 46  1  0  0  0  0
 22 47  1  0  0  0  0
M  CHG  1  22   1
M  END
> <s_m_source_file>
AV-unprocessed.smi

> <i_m_source_file_index>
2923

> <i_lp_mmshare_version>
43012

> <i_f3d_flags>
0

> <s_epik_input>
W0NIM11OKFtDSDNdKWMxW2NIXVtjSF1jKFtjSF1uMSlbTkhdQyg9TylbTkhdW0NASF0yQyhbQ0gzXSkoW0NIM10pW0NAQEhdKFtDQEhdMjMpT1tDSDJdW0NIMl0z

> <s_epik_cmdline>
J2VwaWtfcHl0aG9uJywgJy1waCcsICc3LjAnLCAnLXRuJywgJzgnLCAnLW1hJywgJzIwMCcsICctbWV0YWxfYmluZGluZycsICctaW1hZScsICc8aW5maWxlLm1hZT4nLCAnLW9tYWUnLCAnPG91dGZpbGUubWFlPic=

> <r_lp_tautomer_probability>
0.999994

> <r_epik_Ionization_Penalty>
0.252205

> <r_epik_Ionization_Penalty_Charging>
0.252185

> <r_epik_Ionization_Penalty_Neutral>
1.99479e-05

> <r_epik_State_Penalty>
0.243573

> <r_epik_Charging_Adjusted_Penalty>
0.495758

> <i_epik_Tot_Q>
1

> <i_epik_Tot_abs_Q>
1

> <r_epik_Metal_State_Penalty>
0.534372

> <b_epik_Metal_Only>
0

> <s_lp_Force_Field>
OPLS_2005

> <r_lp_Energy>
67.7909

> <b_lp_Chiralities_Consistent>
1

> <s_lp_Variant>
AV-unprocessed.smi:2923-2

> <Gold.Version>
5.8.1

> <Gold.Id.Protein>
6NUR|6NUR_protein|mol2

> <Gold.PLP.Fitness>
44.1983

> <Gold.PLP.PLP>
-32.5728

> <Gold.PLP.part.hbond>
-5.9162

> <Gold.PLP.part.metal>
0.0000

> <Gold.PLP.part.buried>
0.0467

> <Gold.PLP.part.nonpolar>
-26.7056

> <Gold.PLP.part.repulsive>
0.3602

> <Gold.PLP.ligand.clash>
0.0000

> <Gold.PLP.ligand.torsion>
0.3790

> <Gold.PLP.Chemscore.Hbond>
4.0390

> <Gold.PLP.Chemscore.CHOScore>
0.0000

> <Gold.PLP.Chemscore.Metal>
0.0000

> <Gold.Chemscore.Hbonds>
donor molecule, donor type, donor heavy atom, donor atom, acceptor molecule, acceptor atom, score
      L1  H     8    31       P1 10175  0.67
      L1  H    11    32       P1 10175  1.00
      L1  H    22    47       P1 10186  2.00
      P1  H  8011  8017       L1    16  0.46

> <Gold.PLP.Chemscore.Internal.Correction>
0.2666

> <Gold.Rescore>
     Score         DG    S(hbond)    S(metal)    S(lipo)     H(rot)  DE(clash)    DE(int)     intcor
     15.76     -20.96       2.36        0.00      86.91       1.00       2.32       2.88       ----

> <Gold.Chemscore.Fitness>
15.7599

> <Gold.Chemscore.DG>
-20.9586

> <Gold.Chemscore.ZeroCoef>
-5.4800

> <Gold.Chemscore.Hbond>
2.3564

> <Gold.Chemscore.Metal>
0.0000

> <Gold.Chemscore.Lipo>
86.9081

> <Gold.Chemscore.Internal_Hbond>
0.0000

> <Gold.Chemscore.DEClash>
2.3202

> <Gold.Chemscore.DEInternal>
2.8785

> <Gold.Chemscore.Rot>
1.0000

> <Gold.Chemscore.Internal.Correction>
   9.000000E+99

> <Gold.Chemscore.Hbonds>
donor molecule, donor type, donor heavy atom, donor atom, acceptor molecule, acceptor atom, score
      L1  H     8    31       P1 10175  0.65
      L1  H    11    32       P1 10175  0.97
      L1  H    22    47       P1 10186  0.72
      P1  H  8011  8017       L1    16  0.43

> <Gold.Chemscore.Hbond.Weighted>
-7.8704

> <Gold.Chemscore.Metal.Weighted>
-0.0000

> <Gold.Chemscore.Lipo.Weighted>
-10.1682

> <Gold.Chemscore.Internal_Hbond.Weighted>
0.0000

> <Gold.Chemscore.DEClash.Weighted>
2.3202

> <Gold.Chemscore.DEInternal.Weighted>
2.8785

> <Gold.Chemscore.Rot.Weighted>
2.5600

> <Gold.Chemscore.Internal.Correction.Weighted>
   9.000000E+99

> <Gold.Protein.RotatedTorsions>
[ 6907 6896 6895 6894 ] final   77.93 input  -60.11 | X-H torsion
[ 7974 7965 7964 7962 ] final  128.87 input  175.53 | X-H torsion
[ 8008 7997 7996 7995 ] final  129.22 input   59.86 | X-H torsion
[ 10167 10162 10161 10158 ] final -162.02 input  -65.29 | X-H torsion
[ 10718 10713 10712 10709 ] final   56.71 input   66.30 | X-H torsion
[ 10763 10752 10751 10750 ] final  115.42 input  -60.55 | X-H torsion
[ 11005 11000 10999 10996 ] final -130.71 input  -57.11 | X-H torsion

> <Gold.Protein.ActiveResidues>
 VAL166  LYS551  ARG553  GLY616  TRP617  ASP618  TYR619  PRO620  LYS621  CYS622 
 ASP623  PHE694  ASN695  SER759  ASP760  ASP761  ALA762  ILE779  LEU786  VAL792 
 PHE793  MET794  SER795  GLU796  ALA797  LYS798  CYS799  TRP800  GLU811  SER814 

> <Gold.Protein.RotatedAtoms>
  152.5139  134.3741  159.9328 H   0  0  0  0  0  0  0  0  0  0  0  0  # atno 6907 bound_to 6896
  151.3696  133.3853  159.2706 H   0  0  0  0  0  0  0  0  0  0  0  0  # atno 6908 bound_to 6896
  150.9588  134.8998  159.7776 H   0  0  0  0  0  0  0  0  0  0  0  0  # atno 6909 bound_to 6896
  145.0348  139.4014  143.5131 H   0  0  0  0  0  0  0  0  0  0  0  0  # atno 7974 bound_to 7965
  156.2931  140.2626  156.2563 H   0  0  0  0  0  0  0  0  0  0  0  0  # atno 8008 bound_to 7997
  154.9832  140.0389  157.2305 H   0  0  0  0  0  0  0  0  0  0  0  0  # atno 8009 bound_to 7997
  154.7752  140.2785  155.6111 H   0  0  0  0  0  0  0  0  0  0  0  0  # atno 8010 bound_to 7997
  139.6423  144.0237  152.2101 H   0  0  0  0  0  0  0  0  0  0  0  0  # atno 10167 bound_to 10162
  157.5454  130.8727  149.8883 H   0  0  0  0  0  0  0  0  0  0  0  0  # atno 10718 bound_to 10713
  153.5220  135.3596  155.2636 H   0  0  0  0  0  0  0  0  0  0  0  0  # atno 10763 bound_to 10752
  154.8734  135.4048  154.3249 H   0  0  0  0  0  0  0  0  0  0  0  0  # atno 10764 bound_to 10752
  153.3921  135.7072  153.6554 H   0  0  0  0  0  0  0  0  0  0  0  0  # atno 10765 bound_to 10752
  140.9322  134.1304  157.4225 H   0  0  0  0  0  0  0  0  0  0  0  0  # atno 11005 bound_to 11000
  146.3503  139.9917  142.8685 LP  0  0  0  0  0  0  0  0  0  0  0  0  # atno 17320 bound_to 7965
  145.1724  140.9727  143.4314 LP  0  0  0  0  0  0  0  0  0  0  0  0  # atno 17321 bound_to 7965
  139.9930  144.6348  150.7797 LP  0  0  0  0  0  0  0  0  0  0  0  0  # atno 17342 bound_to 10162
  140.7497  143.2943  151.3247 LP  0  0  0  0  0  0  0  0  0  0  0  0  # atno 17343 bound_to 10162
  156.0531  130.3713  150.1154 LP  0  0  0  0  0  0  0  0  0  0  0  0  # atno 17370 bound_to 10713
  156.9331  130.9720  151.3529 LP  0  0  0  0  0  0  0  0  0  0  0  0  # atno 17371 bound_to 10713
  139.8799  135.0009  156.6035 LP  0  0  0  0  0  0  0  0  0  0  0  0  # atno 17394 bound_to 11000
  140.7847  133.8631  155.8596 LP  0  0  0  0  0  0  0  0  0  0  0  0  # atno 17395 bound_to 11000

$$$$
