AV-unprocessed.smi:232|AV-procd|sdf|1773|dock6
  -GOLD-   2262020313D 1   1.00000     0.00000
 Structure written by MMmdl.
 52 55  0  0  0  0  0  0  0  0  1 V2000
  151.3894  144.9725  158.8348 C   0  0  0  0  0  0  0  0  0  0  0  0
  151.9003  143.6919  158.1635 C   0  0  0  0  0  0  0  0  0  0  0  0
  151.8814  142.4668  159.1007 C   0  0  2  0  0  0  0  0  0  0  0  0
  152.5377  142.7142  160.4662 C   0  0  0  0  0  0  0  0  0  0  0  0
  153.1352  141.3592  160.8648 C   0  0  0  0  0  0  0  0  0  0  0  0
  152.8179  140.4302  159.6859 C   0  0  2  0  0  0  0  0  0  0  0  0
  153.9059  139.3733  159.4297 C   0  0  0  0  0  0  0  0  0  0  0  0
  152.6064  141.3246  158.5548 N   0  0  0  0  0  0  0  0  0  0  0  0
  152.0667  140.7395  157.4598 C   0  0  0  0  0  0  0  0  0  0  0  0
  152.8145  139.9213  156.6720 N   0  0  0  0  0  0  0  0  0  0  0  0
  152.2667  139.3500  155.5946 C   0  0  0  0  0  0  0  0  0  0  0  0
  151.0180  139.4594  155.1344 N   0  0  0  0  0  0  0  0  0  0  0  0
  150.2701  140.2835  155.9236 C   0  0  0  0  0  0  0  0  0  0  0  0
  150.7140  140.9602  157.0931 C   0  0  0  0  0  0  0  0  0  0  0  0
  149.6795  141.7128  157.6338 N   0  0  0  0  0  0  0  0  0  0  0  0
  148.6766  141.4930  156.8275 C   0  0  0  0  0  0  0  0  0  0  0  0
  148.9428  140.6449  155.7764 N   0  0  0  0  0  0  0  0  0  0  0  0
  148.0128  140.2306  154.7412 C   0  0  0  0  0  0  0  0  0  0  0  0
  147.5424  141.4082  153.8651 C   0  0  1  0  0  0  0  0  0  0  0  0
  147.4148  140.9710  152.5253 O   0  0  0  0  0  0  0  0  0  0  0  0
  146.1918  141.9809  154.3340 C   0  0  2  0  0  0  0  0  0  0  0  0
  145.8253  143.3282  153.7083 C   0  0  0  0  0  0  0  0  0  0  0  0
  144.8705  143.8924  154.7345 C   0  0  0  0  0  0  0  0  0  0  0  0
  145.5190  143.4432  156.0396 C   0  0  0  0  0  0  0  0  0  0  0  0
  146.2184  142.2383  155.7371 O   0  0  0  0  0  0  0  0  0  0  0  0
  151.3906  145.8043  158.1299 H   0  0  0  0  0  0  0  0  0  0  0  0
  152.0147  145.2571  159.6811 H   0  0  0  0  0  0  0  0  0  0  0  0
  150.3692  144.8452  159.1979 H   0  0  0  0  0  0  0  0  0  0  0  0
  151.2789  143.4955  157.2890 H   0  0  0  0  0  0  0  0  0  0  0  0
  152.9110  143.8544  157.7866 H   0  0  0  0  0  0  0  0  0  0  0  0
  150.8453  142.1702  159.2738 H   0  0  0  0  0  0  0  0  0  0  0  0
  153.3362  143.4532  160.3859 H   0  0  0  0  0  0  0  0  0  0  0  0
  151.8185  143.0825  161.1984 H   0  0  0  0  0  0  0  0  0  0  0  0
  154.2120  141.4625  161.0060 H   0  0  0  0  0  0  0  0  0  0  0  0
  152.7142  140.9791  161.7961 H   0  0  0  0  0  0  0  0  0  0  0  0
  151.8776  139.9188  159.8995 H   0  0  0  0  0  0  0  0  0  0  0  0
  154.0637  138.7563  160.3144 H   0  0  0  0  0  0  0  0  0  0  0  0
  154.8581  139.8389  159.1731 H   0  0  0  0  0  0  0  0  0  0  0  0
  153.6302  138.7069  158.6119 H   0  0  0  0  0  0  0  0  0  0  0  0
  152.9226  138.7139  155.0187 H   0  0  0  0  0  0  0  0  0  0  0  0
  147.7075  141.9464  156.9774 H   0  0  0  0  0  0  0  0  0  0  0  0
  148.4869  139.4623  154.1290 H   0  0  0  0  0  0  0  0  0  0  0  0
  147.1594  139.7560  155.2268 H   0  0  0  0  0  0  0  0  0  0  0  0
  148.2949  142.1976  153.8897 H   0  0  0  0  0  0  0  0  0  0  0  0
  148.2801  140.8299  152.1723 H   0  0  0  0  0  0  0  0  0  0  0  0
  145.3889  141.2664  154.1430 H   0  0  0  0  0  0  0  0  0  0  0  0
  146.7051  143.9685  153.6267 H   0  0  0  0  0  0  0  0  0  0  0  0
  145.3794  143.2312  152.7181 H   0  0  0  0  0  0  0  0  0  0  0  0
  144.7529  144.9740  154.6655 H   0  0  0  0  0  0  0  0  0  0  0  0
  143.8877  143.4320  154.6238 H   0  0  0  0  0  0  0  0  0  0  0  0
  146.2424  144.1844  156.3809 H   0  0  0  0  0  0  0  0  0  0  0  0
  144.7887  143.2912  156.8345 H   0  0  0  0  0  0  0  0  0  0  0  0
  1  2  1  0  0  0  0
  1 26  1  0  0  0  0
  1 27  1  0  0  0  0
  1 28  1  0  0  0  0
  2  3  1  0  0  0  0
  2 29  1  0  0  0  0
  2 30  1  0  0  0  0
  3  8  1  0  0  0  0
  3  4  1  0  0  0  0
  3 31  1  0  0  0  0
  4  5  1  0  0  0  0
  4 32  1  0  0  0  0
  4 33  1  0  0  0  0
  5  6  1  0  0  0  0
  5 34  1  0  0  0  0
  5 35  1  0  0  0  0
  6  7  1  0  0  0  0
  6  8  1  0  0  0  0
  6 36  1  0  0  0  0
  7 37  1  0  0  0  0
  7 38  1  0  0  0  0
  7 39  1  0  0  0  0
  8  9  1  0  0  0  0
  9 14  1  0  0  0  0
  9 10  2  0  0  0  0
 10 11  1  0  0  0  0
 11 12  2  0  0  0  0
 11 40  1  0  0  0  0
 12 13  1  0  0  0  0
 13 17  1  0  0  0  0
 13 14  2  0  0  0  0
 14 15  1  0  0  0  0
 15 16  2  0  0  0  0
 16 17  1  0  0  0  0
 16 41  1  0  0  0  0
 17 18  1  0  0  0  0
 18 19  1  0  0  0  0
 18 42  1  0  0  0  0
 18 43  1  0  0  0  0
 19 20  1  0  0  0  0
 19 21  1  0  0  0  0
 19 44  1  0  0  0  0
 20 45  1  0  0  0  0
 21 25  1  0  0  0  0
 21 22  1  0  0  0  0
 21 46  1  0  0  0  0
 22 23  1  0  0  0  0
 22 47  1  0  0  0  0
 22 48  1  0  0  0  0
 23 24  1  0  0  0  0
 23 49  1  0  0  0  0
 23 50  1  0  0  0  0
 24 25  1  0  0  0  0
 24 51  1  0  0  0  0
 24 52  1  0  0  0  0
M  END
> <s_m_source_file>
AV-unprocessed.smi

> <i_m_source_file_index>
232

> <i_lp_mmshare_version>
43012

> <i_f3d_flags>
0

> <s_epik_input>
W0NIM11bQ0gyXVtDQEBIXTFbQ0gyXVtDSDJdW0NAQEhdKFtDSDNdKU4xYyhuW2NIXW4yKWMoYzIzKW5bY0hdbjNbQ0gyXVtDQEhdKFtPSF0pW0NAQEhdNFtDSDJdW0NIMl1bQ0gyXU80

> <s_epik_cmdline>
J2VwaWtfcHl0aG9uJywgJy1waCcsICc3LjAnLCAnLXRuJywgJzgnLCAnLW1hJywgJzIwMCcsICctbWV0YWxfYmluZGluZycsICctaW1hZScsICc8aW5maWxlLm1hZT4nLCAnLW9tYWUnLCAnPG91dGZpbGUubWFlPic=

> <r_lp_tautomer_probability>
1

> <r_epik_Ionization_Penalty>
0.00258048

> <r_epik_Ionization_Penalty_Charging>
0

> <r_epik_Ionization_Penalty_Neutral>
0.00258048

> <r_epik_State_Penalty>
0.00168551

> <r_epik_Charging_Adjusted_Penalty>
0.00168551

> <i_epik_Tot_Q>
0

> <i_epik_Tot_abs_Q>
0

> <r_epik_Metal_State_Penalty>
-0

> <b_epik_Metal_Only>
0

> <s_lp_Force_Field>
OPLS_2005

> <r_lp_Energy>
51.2688

> <b_lp_Chiralities_Consistent>
1

> <s_lp_Variant>
AV-unprocessed.smi:232-7

> <Gold.Version>
5.8.1

> <Gold.Id.Protein>
6NUR|6NUR_protein|mol2

> <Gold.PLP.Fitness>
49.8863

> <Gold.PLP.PLP>
-45.2999

> <Gold.PLP.part.hbond>
-2.1615

> <Gold.PLP.part.metal>
0.0000

> <Gold.PLP.part.buried>
-3.7445

> <Gold.PLP.part.nonpolar>
-38.6505

> <Gold.PLP.part.repulsive>
0.2716

> <Gold.PLP.ligand.clash>
0.0000

> <Gold.PLP.ligand.torsion>
1.1040

> <Gold.PLP.Chemscore.Hbond>
2.2308

> <Gold.PLP.Chemscore.CHOScore>
0.0000

> <Gold.PLP.Chemscore.Metal>
0.0000

> <Gold.Chemscore.Hbonds>
donor molecule, donor type, donor heavy atom, donor atom, acceptor molecule, acceptor atom, score
      L1  H    20    45       P1  7957  1.00
      P1  H  7989  7998       L1    12  0.28
      P1  H  7997  8010       L1    10  1.00

> <Gold.PLP.Chemscore.Internal.Correction>
0.1021

> <Gold.Rescore>
     Score         DG    S(hbond)    S(metal)    S(lipo)     H(rot)  DE(clash)    DE(int)     intcor
     12.04     -18.94       1.92        0.00     113.31       2.43       1.96       4.94       ----

> <Gold.Chemscore.Fitness>
12.0414

> <Gold.Chemscore.DG>
-18.9398

> <Gold.Chemscore.ZeroCoef>
-5.4800

> <Gold.Chemscore.Hbond>
1.9201

> <Gold.Chemscore.Metal>
0.0000

> <Gold.Chemscore.Lipo>
113.3095

> <Gold.Chemscore.Internal_Hbond>
0.0000

> <Gold.Chemscore.DEClash>
1.9605

> <Gold.Chemscore.DEInternal>
4.9378

> <Gold.Chemscore.Rot>
2.4260

> <Gold.Chemscore.Internal.Correction>
   9.000000E+99

> <Gold.Chemscore.Hbonds>
donor molecule, donor type, donor heavy atom, donor atom, acceptor molecule, acceptor atom, score
      L1  H    20    45       P1  7957  0.99
      P1  H  7989  7998       L1    12  0.01
      P1  H  7997  8010       L1    10  0.62

> <Gold.Chemscore.Hbond.Weighted>
-6.4133

> <Gold.Chemscore.Metal.Weighted>
-0.0000

> <Gold.Chemscore.Lipo.Weighted>
-13.2572

> <Gold.Chemscore.Internal_Hbond.Weighted>
0.0000

> <Gold.Chemscore.DEClash.Weighted>
1.9605

> <Gold.Chemscore.DEInternal.Weighted>
4.9378

> <Gold.Chemscore.Rot.Weighted>
6.2107

> <Gold.Chemscore.Internal.Correction.Weighted>
   9.000000E+99

> <Gold.Protein.RotatedTorsions>
[ 6907 6896 6895 6894 ] final  -71.43 input  -60.11 | X-H torsion
[ 7974 7965 7964 7962 ] final -113.47 input  175.53 | X-H torsion
[ 8008 7997 7996 7995 ] final   76.00 input   59.86 | X-H torsion
[ 10167 10162 10161 10158 ] final  153.94 input  -65.29 | X-H torsion
[ 10718 10713 10712 10709 ] final -149.46 input   66.30 | X-H torsion
[ 10763 10752 10751 10750 ] final  -32.41 input  -60.55 | X-H torsion
[ 11005 11000 10999 10996 ] final  133.56 input  -57.11 | X-H torsion

> <Gold.Protein.ActiveResidues>
 VAL166  LYS551  ARG553  GLY616  TRP617  ASP618  TYR619  PRO620  LYS621  CYS622 
 ASP623  PHE694  ASN695  SER759  ASP760  ASP761  ALA762  ILE779  LEU786  VAL792 
 PHE793  MET794  SER795  GLU796  ALA797  LYS798  CYS799  TRP800  GLU811  SER814 

> <Gold.Protein.RotatedAtoms>
  150.7213  134.5310  159.5699 H   0  0  0  0  0  0  0  0  0  0  0  0  # atno 6907 bound_to 6896
  152.2843  134.7791  160.0399 H   0  0  0  0  0  0  0  0  0  0  0  0  # atno 6908 bound_to 6896
  151.8426  133.3391  159.3684 H   0  0  0  0  0  0  0  0  0  0  0  0  # atno 6909 bound_to 6896
  145.1316  140.8727  143.3754 H   0  0  0  0  0  0  0  0  0  0  0  0  # atno 7974 bound_to 7965
  155.8210  140.3470  155.5514 H   0  0  0  0  0  0  0  0  0  0  0  0  # atno 8008 bound_to 7997
  155.8342  140.0931  157.1794 H   0  0  0  0  0  0  0  0  0  0  0  0  # atno 8009 bound_to 7997
  154.4004  140.1406  156.3638 H   0  0  0  0  0  0  0  0  0  0  0  0  # atno 8010 bound_to 7997
  139.4825  144.5229  151.7847 H   0  0  0  0  0  0  0  0  0  0  0  0  # atno 10167 bound_to 10162
  156.4334  130.8086  151.2314 H   0  0  0  0  0  0  0  0  0  0  0  0  # atno 10718 bound_to 10713
  153.8134  135.6880  153.4837 H   0  0  0  0  0  0  0  0  0  0  0  0  # atno 10763 bound_to 10752
  153.1614  135.4578  154.9776 H   0  0  0  0  0  0  0  0  0  0  0  0  # atno 10764 bound_to 10752
  154.7958  135.3318  154.7612 H   0  0  0  0  0  0  0  0  0  0  0  0  # atno 10765 bound_to 10752
  139.9859  134.9532  156.9742 H   0  0  0  0  0  0  0  0  0  0  0  0  # atno 11005 bound_to 11000
  145.0629  139.3091  143.5871 LP  0  0  0  0  0  0  0  0  0  0  0  0  # atno 17320 bound_to 7965
  146.3513  140.0077  142.8670 LP  0  0  0  0  0  0  0  0  0  0  0  0  # atno 17321 bound_to 7965
  140.4746  144.1538  150.5923 LP  0  0  0  0  0  0  0  0  0  0  0  0  # atno 17342 bound_to 10162
  140.4345  143.2553  151.9553 LP  0  0  0  0  0  0  0  0  0  0  0  0  # atno 17343 bound_to 10162
  157.7508  131.0191  150.3654 LP  0  0  0  0  0  0  0  0  0  0  0  0  # atno 17370 bound_to 10713
  156.3996  130.3913  149.6970 LP  0  0  0  0  0  0  0  0  0  0  0  0  # atno 17371 bound_to 10713
  140.5003  134.1104  155.7249 LP  0  0  0  0  0  0  0  0  0  0  0  0  # atno 17394 bound_to 11000
  141.1524  133.8944  157.2064 LP  0  0  0  0  0  0  0  0  0  0  0  0  # atno 17395 bound_to 11000

$$$$
