AV-unprocessed.smi:310|AV-procd|sdf|2296|dock9
  -GOLD-   2262022193D 1   1.00000     0.00000
 Structure written by MMmdl.
 40 42  0  0  0  0  0  0  0  0  2 V2000
  149.8548  130.2558  154.0972 C   0  0  0  0  0  0  0  0  0  0  0  0
  149.7378  131.6790  154.5242 C   0  0  0  0  0  0  0  0  0  0  0  0
  148.8031  132.6453  154.2826 C   0  0  0  0  0  0  0  0  0  0  0  0
  149.3112  133.7722  154.9851 C   0  0  0  0  0  0  0  0  0  0  0  0
  148.7341  134.9813  155.0601 N   0  5  0  0  0  0  0  0  0  0  0  0
  149.4800  136.0756  155.3384 C   0  0  0  0  0  0  0  0  0  0  0  0
  149.9637  136.3703  156.4341 O   0  0  0  0  0  0  0  0  0  0  0  0
  149.6768  136.8783  154.2821 N   0  0  0  0  0  0  0  0  0  0  0  0
  150.4360  138.1261  154.2802 C   0  0  0  0  0  0  0  0  0  0  0  0
  151.8060  137.9330  154.9720 C   0  0  0  0  0  0  0  0  0  0  0  0
  152.5259  139.2798  155.1587 C   0  0  0  0  0  0  0  0  0  0  0  0
  151.6514  140.1835  155.9187 N   0  0  0  0  0  0  0  0  0  0  0  0
  151.8484  140.6019  157.1942 C   0  0  0  0  0  0  0  0  0  0  0  0
  152.7856  140.1910  157.8806 O   0  0  0  0  0  0  0  0  0  0  0  0
  150.8873  141.6161  157.7383 C   0  0  0  0  0  0  0  0  0  0  0  0
  151.2855  143.0810  157.7033 C   0  0  0  0  0  0  0  0  0  0  0  0
  151.2933  142.3311  159.0096 C   0  0  0  0  0  0  0  0  0  0  0  0
  150.4442  140.5189  155.1539 C   0  0  0  0  0  0  0  0  0  0  0  0
  149.6111  139.2378  154.9640 C   0  0  0  0  0  0  0  0  0  0  0  0
  150.4456  133.5078  155.6115 N   0  0  0  0  0  0  0  0  0  0  0  0
  150.7296  132.1692  155.3154 O   0  0  0  0  0  0  0  0  0  0  0  0
  149.0020  129.6767  154.4511 H   0  0  0  0  0  0  0  0  0  0  0  0
  150.7616  129.7986  154.4938 H   0  0  0  0  0  0  0  0  0  0  0  0
  149.8870  130.1817  153.0102 H   0  0  0  0  0  0  0  0  0  0  0  0
  147.9021  132.5626  153.6937 H   0  0  0  0  0  0  0  0  0  0  0  0
  149.2621  136.5968  153.4059 H   0  0  0  0  0  0  0  0  0  0  0  0
  150.6111  138.4364  153.2482 H   0  0  0  0  0  0  0  0  0  0  0  0
  151.6677  137.4610  155.9458 H   0  0  0  0  0  0  0  0  0  0  0  0
  152.4313  137.2574  154.3874 H   0  0  0  0  0  0  0  0  0  0  0  0
  153.5054  139.1298  155.6108 H   0  0  0  0  0  0  0  0  0  0  0  0
  152.7324  139.7224  154.1833 H   0  0  0  0  0  0  0  0  0  0  0  0
  149.8281  141.4179  157.5852 H   0  0  0  0  0  0  0  0  0  0  0  0
  152.2521  143.3626  157.2895 H   0  0  0  0  0  0  0  0  0  0  0  0
  150.4893  143.8031  157.5350 H   0  0  0  0  0  0  0  0  0  0  0  0
  150.5052  142.5451  159.7284 H   0  0  0  0  0  0  0  0  0  0  0  0
  152.2629  142.0945  159.4447 H   0  0  0  0  0  0  0  0  0  0  0  0
  149.8350  141.2862  155.6333 H   0  0  0  0  0  0  0  0  0  0  0  0
  150.7285  140.9297  154.1840 H   0  0  0  0  0  0  0  0  0  0  0  0
  148.7190  139.4570  154.3766 H   0  0  0  0  0  0  0  0  0  0  0  0
  149.2623  138.8930  155.9390 H   0  0  0  0  0  0  0  0  0  0  0  0
  1  2  1  0  0  0  0
  1 22  1  0  0  0  0
  1 23  1  0  0  0  0
  1 24  1  0  0  0  0
  2 21  1  0  0  0  0
  2  3  2  0  0  0  0
  3  4  1  0  0  0  0
  3 25  1  0  0  0  0
  4  5  1  0  0  0  0
  4 20  2  0  0  0  0
  5  6  1  0  0  0  0
  6  7  2  0  0  0  0
  6  8  1  0  0  0  0
  8  9  1  0  0  0  0
  8 26  1  0  0  0  0
  9 19  1  0  0  0  0
  9 10  1  0  0  0  0
  9 27  1  0  0  0  0
 10 11  1  0  0  0  0
 10 28  1  0  0  0  0
 10 29  1  0  0  0  0
 11 12  1  0  0  0  0
 11 30  1  0  0  0  0
 11 31  1  0  0  0  0
 12 13  1  0  0  0  0
 12 18  1  0  0  0  0
 13 14  2  0  0  0  0
 13 15  1  0  0  0  0
 15 17  1  0  0  0  0
 15 16  1  0  0  0  0
 15 32  1  0  0  0  0
 16 17  1  0  0  0  0
 16 33  1  0  0  0  0
 16 34  1  0  0  0  0
 17 35  1  0  0  0  0
 17 36  1  0  0  0  0
 18 19  1  0  0  0  0
 18 37  1  0  0  0  0
 18 38  1  0  0  0  0
 19 39  1  0  0  0  0
 19 40  1  0  0  0  0
 20 21  1  0  0  0  0
M  CHG  1   5  -1
M  END
> <s_m_source_file>
AV-unprocessed.smi

> <i_m_source_file_index>
310

> <i_lp_mmshare_version>
43012

> <i_f3d_flags>
0

> <s_epik_input>
W0NIM11jMVtjSF1jKG5vMSlbTkhdQyg9TylbTkhdW0NIXTJbQ0gyXVtDSDJdTihbQ0gyXVtDSDJdMilDKD1PKVtDSF0zW0NIMl1bQ0gyXTM=

> <s_epik_cmdline>
J2VwaWtfcHl0aG9uJywgJy1waCcsICc3LjAnLCAnLXRuJywgJzgnLCAnLW1hJywgJzIwMCcsICctbWV0YWxfYmluZGluZycsICctaW1hZScsICc8aW5maWxlLm1hZT4nLCAnLW9tYWUnLCAnPG91dGZpbGUubWFlPic=

> <r_lp_tautomer_probability>
1

> <r_epik_Ionization_Penalty>
6.54503

> <r_epik_Ionization_Penalty_Charging>
6.5449

> <r_epik_Ionization_Penalty_Neutral>
0.000132868

> <r_epik_State_Penalty>
6.54489

> <r_epik_Charging_Adjusted_Penalty>
13.0898

> <i_epik_Tot_Q>
-1

> <i_epik_Tot_abs_Q>
1

> <r_epik_Metal_State_Penalty>
2.47073

> <b_epik_Metal_Only>
1

> <s_lp_Force_Field>
OPLS_2005

> <r_lp_Energy>
23.2172

> <b_lp_Chiralities_Consistent>
1

> <s_lp_Variant>
AV-unprocessed.smi:310-2

> <Gold.Version>
5.8.1

> <Gold.Id.Protein>
6NUR|6NUR_protein|mol2

> <Gold.PLP.Fitness>
38.8410

> <Gold.PLP.PLP>
-35.7343

> <Gold.PLP.part.hbond>
-2.0666

> <Gold.PLP.part.metal>
0.0000

> <Gold.PLP.part.buried>
-1.6111

> <Gold.PLP.part.nonpolar>
-31.5798

> <Gold.PLP.part.repulsive>
0.1605

> <Gold.PLP.ligand.clash>
0.0000

> <Gold.PLP.ligand.torsion>
1.4753

> <Gold.PLP.Chemscore.Hbond>
1.9760

> <Gold.PLP.Chemscore.CHOScore>
0.0000

> <Gold.PLP.Chemscore.Metal>
0.0000

> <Gold.Chemscore.Hbonds>
donor molecule, donor type, donor heavy atom, donor atom, acceptor molecule, acceptor atom, score
      L1  H     8    26       P1  7948  1.00
      P1  H  7997  8008       L1    14  0.98

> <Gold.PLP.Chemscore.Internal.Correction>
0.1293

> <Gold.Rescore>
     Score         DG    S(hbond)    S(metal)    S(lipo)     H(rot)  DE(clash)    DE(int)     intcor
     14.81     -17.64       1.92        0.00      76.56       1.25       0.24       2.59       ----

> <Gold.Chemscore.Fitness>
14.8111

> <Gold.Chemscore.DG>
-17.6396

> <Gold.Chemscore.ZeroCoef>
-5.4800

> <Gold.Chemscore.Hbond>
1.9161

> <Gold.Chemscore.Metal>
0.0000

> <Gold.Chemscore.Lipo>
76.5643

> <Gold.Chemscore.Internal_Hbond>
0.0000

> <Gold.Chemscore.DEClash>
0.2414

> <Gold.Chemscore.DEInternal>
2.5872

> <Gold.Chemscore.Rot>
1.2493

> <Gold.Chemscore.Internal.Correction>
   9.000000E+99

> <Gold.Chemscore.Hbonds>
donor molecule, donor type, donor heavy atom, donor atom, acceptor molecule, acceptor atom, score
      L1  H     8    26       P1  7948  0.93
      P1  H  7997  8008       L1    14  0.83

> <Gold.Chemscore.Hbond.Weighted>
-6.3997

> <Gold.Chemscore.Metal.Weighted>
-0.0000

> <Gold.Chemscore.Lipo.Weighted>
-8.9580

> <Gold.Chemscore.Internal_Hbond.Weighted>
0.0000

> <Gold.Chemscore.DEClash.Weighted>
0.2414

> <Gold.Chemscore.DEInternal.Weighted>
2.5872

> <Gold.Chemscore.Rot.Weighted>
3.1981

> <Gold.Chemscore.Internal.Correction.Weighted>
   9.000000E+99

> <Gold.Protein.RotatedTorsions>
[ 6907 6896 6895 6894 ] final  -23.39 input  -60.11 | X-H torsion
[ 7974 7965 7964 7962 ] final -153.75 input  175.53 | X-H torsion
[ 8008 7997 7996 7995 ] final  -80.27 input   59.86 | X-H torsion
[ 10167 10162 10161 10158 ] final   85.92 input  -65.29 | X-H torsion
[ 10718 10713 10712 10709 ] final  113.28 input   66.30 | X-H torsion
[ 10763 10752 10751 10750 ] final -153.48 input  -60.55 | X-H torsion
[ 11005 11000 10999 10996 ] final  -30.35 input  -57.11 | X-H torsion

> <Gold.Protein.ActiveResidues>
 VAL166  LYS551  ARG553  GLY616  TRP617  ASP618  TYR619  PRO620  LYS621  CYS622 
 ASP623  PHE694  ASN695  SER759  ASP760  ASP761  ALA762  ILE779  LEU786  VAL792 
 PHE793  MET794  SER795  GLU796  ALA797  LYS798  CYS799  TRP800  GLU811  SER814 

> <Gold.Protein.RotatedAtoms>
  151.2048  135.0457  159.8886 H   0  0  0  0  0  0  0  0  0  0  0  0  # atno 6907 bound_to 6896
  152.5430  134.0810  159.8246 H   0  0  0  0  0  0  0  0  0  0  0  0  # atno 6908 bound_to 6896
  151.0956  133.5235  159.2644 H   0  0  0  0  0  0  0  0  0  0  0  0  # atno 6909 bound_to 6896
  144.7725  140.4483  143.5897 H   0  0  0  0  0  0  0  0  0  0  0  0  # atno 7974 bound_to 7965
  154.5867  140.0665  156.9181 H   0  0  0  0  0  0  0  0  0  0  0  0  # atno 8008 bound_to 7997
  155.2367  140.3341  155.4279 H   0  0  0  0  0  0  0  0  0  0  0  0  # atno 8009 bound_to 7997
  156.2227  140.1806  156.7421 H   0  0  0  0  0  0  0  0  0  0  0  0  # atno 8010 bound_to 7997
  139.8928  144.6375  150.8720 H   0  0  0  0  0  0  0  0  0  0  0  0  # atno 10167 bound_to 10162
  157.6347  131.0981  150.7018 H   0  0  0  0  0  0  0  0  0  0  0  0  # atno 10718 bound_to 10713
  154.7924  135.3212  154.7745 H   0  0  0  0  0  0  0  0  0  0  0  0  # atno 10763 bound_to 10752
  153.8431  135.6869  153.4805 H   0  0  0  0  0  0  0  0  0  0  0  0  # atno 10764 bound_to 10752
  153.1601  135.4664  154.9700 H   0  0  0  0  0  0  0  0  0  0  0  0  # atno 10765 bound_to 10752
  140.9375  133.7299  156.1026 H   0  0  0  0  0  0  0  0  0  0  0  0  # atno 11005 bound_to 11000
  145.6283  139.1533  143.2983 LP  0  0  0  0  0  0  0  0  0  0  0  0  # atno 17320 bound_to 7965
  146.1881  140.6389  142.9158 LP  0  0  0  0  0  0  0  0  0  0  0  0  # atno 17321 bound_to 7965
  140.7723  143.3496  151.2040 LP  0  0  0  0  0  0  0  0  0  0  0  0  # atno 17342 bound_to 10162
  139.7094  143.9402  152.2941 LP  0  0  0  0  0  0  0  0  0  0  0  0  # atno 17343 bound_to 10162
  156.7351  130.4721  149.5490 LP  0  0  0  0  0  0  0  0  0  0  0  0  # atno 17370 bound_to 10713
  156.1576  130.6352  151.0678 LP  0  0  0  0  0  0  0  0  0  0  0  0  # atno 17371 bound_to 10713
  140.7780  134.3758  157.5493 LP  0  0  0  0  0  0  0  0  0  0  0  0  # atno 17394 bound_to 11000
  139.8811  134.9063  156.2920 LP  0  0  0  0  0  0  0  0  0  0  0  0  # atno 17395 bound_to 11000

$$$$
