AV-unprocessed.smi:717|AV-procd|sdf|3490|dock7
  -GOLD-   22720 0483D 1   1.00000     0.00000
 Structure written by MMmdl.
 43 44  0  0  0  0  0  0  0  0  1 V2000
  153.6015  137.3868  162.4272 O   0  0  0  0  0  0  0  0  0  0  0  0
  154.2799  137.6768  163.4130 C   0  0  0  0  0  0  0  0  0  0  0  0
  154.1429  136.8708  164.7072 C   0  0  0  0  0  0  0  0  0  0  0  0
  154.2063  135.3803  164.4245 C   0  0  0  0  0  0  0  0  0  0  0  0
  153.9324  134.4383  165.4379 C   0  0  0  0  0  0  0  0  0  0  0  0
  154.0083  133.0670  165.1278 C   0  0  0  0  0  0  0  0  0  0  0  0
  154.3558  132.6949  163.8138 C   0  0  0  0  0  0  0  0  0  0  0  0
  154.6189  133.5874  162.8350 N   0  0  0  0  0  0  0  0  0  0  0  0
  154.5444  134.9006  163.1408 C   0  0  0  0  0  0  0  0  0  0  0  0
  155.1650  138.6852  163.4280 N   0  0  0  0  0  0  0  0  0  0  0  0
  155.4488  139.5710  162.3046 C   0  0  0  0  0  0  0  0  0  0  0  0
  154.1608  140.0229  161.5962 C   0  0  0  0  0  0  0  0  0  0  0  0
  154.3428  141.3402  160.8292 C   0  0  0  0  0  0  0  0  0  0  0  0
  153.0768  141.7543  160.0627 C   0  0  0  0  0  0  0  0  0  0  0  0
  153.0988  143.2217  159.5994 C   0  0  0  0  0  0  0  0  0  0  0  0
  152.4184  144.1796  160.5788 C   0  0  0  0  0  0  0  0  0  0  0  0
  152.1636  145.4445  159.7574 C   0  0  0  0  0  0  0  0  0  0  0  0
  151.9732  144.9714  158.3089 C   0  0  0  0  0  0  0  0  0  0  0  0
  152.3612  143.4860  158.2809 C   0  0  0  0  0  0  0  0  0  0  0  0
  154.9446  137.1547  165.3898 H   0  0  0  0  0  0  0  0  0  0  0  0
  153.2022  137.1038  165.2092 H   0  0  0  0  0  0  0  0  0  0  0  0
  153.6719  134.7593  166.4359 H   0  0  0  0  0  0  0  0  0  0  0  0
  153.8068  132.3182  165.8794 H   0  0  0  0  0  0  0  0  0  0  0  0
  154.4239  131.6520  163.5422 H   0  0  0  0  0  0  0  0  0  0  0  0
  154.7633  135.5889  162.3376 H   0  0  0  0  0  0  0  0  0  0  0  0
  155.6786  138.8530  164.2811 H   0  0  0  0  0  0  0  0  0  0  0  0
  156.0215  140.4347  162.6462 H   0  0  0  0  0  0  0  0  0  0  0  0
  156.0880  139.0319  161.6049 H   0  0  0  0  0  0  0  0  0  0  0  0
  153.8312  139.2442  160.9071 H   0  0  0  0  0  0  0  0  0  0  0  0
  153.3629  140.1438  162.3300 H   0  0  0  0  0  0  0  0  0  0  0  0
  154.6156  142.1309  161.5292 H   0  0  0  0  0  0  0  0  0  0  0  0
  155.1775  141.2405  160.1348 H   0  0  0  0  0  0  0  0  0  0  0  0
  152.9338  141.0962  159.2046 H   0  0  0  0  0  0  0  0  0  0  0  0
  152.2102  141.6041  160.7079 H   0  0  0  0  0  0  0  0  0  0  0  0
  154.1355  143.5430  159.4852 H   0  0  0  0  0  0  0  0  0  0  0  0
  151.4669  143.7619  160.9109 H   0  0  0  0  0  0  0  0  0  0  0  0
  153.0236  144.3734  161.4651 H   0  0  0  0  0  0  0  0  0  0  0  0
  151.3063  146.0077  160.1273 H   0  0  0  0  0  0  0  0  0  0  0  0
  153.0346  146.0986  159.8149 H   0  0  0  0  0  0  0  0  0  0  0  0
  150.9415  145.1037  157.9813 H   0  0  0  0  0  0  0  0  0  0  0  0
  152.6050  145.5525  157.6362 H   0  0  0  0  0  0  0  0  0  0  0  0
  152.9684  143.2360  157.4103 H   0  0  0  0  0  0  0  0  0  0  0  0
  151.4557  142.8794  158.2324 H   0  0  0  0  0  0  0  0  0  0  0  0
  1  2  2  0  0  0  0
  2  3  1  0  0  0  0
  2 10  1  0  0  0  0
  3  4  1  0  0  0  0
  3 20  1  0  0  0  0
  3 21  1  0  0  0  0
  4  9  1  0  0  0  0
  4  5  2  0  0  0  0
  5  6  1  0  0  0  0
  5 22  1  0  0  0  0
  6  7  2  0  0  0  0
  6 23  1  0  0  0  0
  7  8  1  0  0  0  0
  7 24  1  0  0  0  0
  8  9  2  0  0  0  0
  9 25  1  0  0  0  0
 10 11  1  0  0  0  0
 10 26  1  0  0  0  0
 11 12  1  0  0  0  0
 11 27  1  0  0  0  0
 11 28  1  0  0  0  0
 12 13  1  0  0  0  0
 12 29  1  0  0  0  0
 12 30  1  0  0  0  0
 13 14  1  0  0  0  0
 13 31  1  0  0  0  0
 13 32  1  0  0  0  0
 14 15  1  0  0  0  0
 14 33  1  0  0  0  0
 14 34  1  0  0  0  0
 15 19  1  0  0  0  0
 15 16  1  0  0  0  0
 15 35  1  0  0  0  0
 16 17  1  0  0  0  0
 16 36  1  0  0  0  0
 16 37  1  0  0  0  0
 17 18  1  0  0  0  0
 17 38  1  0  0  0  0
 17 39  1  0  0  0  0
 18 19  1  0  0  0  0
 18 40  1  0  0  0  0
 18 41  1  0  0  0  0
 19 42  1  0  0  0  0
 19 43  1  0  0  0  0
M  END
> <s_m_source_file>
AV-unprocessed.smi

> <i_m_source_file_index>
717

> <i_lp_mmshare_version>
43012

> <i_f3d_flags>
0

> <s_epik_input>
W2NIXTFuW2NIXVtjSF1bY0hdYzFbQ0gyXUMoPU8pW05IXVtDSDJdW0NIMl1bQ0gyXVtDSDJdW0NIXTJbQ0gyXVtDSDJdW0NIMl1bQ0gyXTI=

> <s_epik_cmdline>
J2VwaWtfcHl0aG9uJywgJy1waCcsICc3LjAnLCAnLXRuJywgJzgnLCAnLW1hJywgJzIwMCcsICctbWV0YWxfYmluZGluZycsICctaW1hZScsICc8aW5maWxlLm1hZT4nLCAnLW9tYWUnLCAnPG91dGZpbGUubWFlPic=

> <r_epik_Ionization_Penalty>
0.00412097

> <r_epik_Ionization_Penalty_Charging>
0

> <r_epik_Ionization_Penalty_Neutral>
0.00412097

> <r_epik_State_Penalty>
0.00295657

> <r_epik_Charging_Adjusted_Penalty>
0.00295657

> <i_epik_Tot_Q>
0

> <i_epik_Tot_abs_Q>
0

> <r_epik_Metal_State_Penalty>
-0

> <b_epik_Metal_Only>
0

> <s_lp_Force_Field>
OPLS_2005

> <r_lp_Energy>
20.3192

> <b_lp_Chiralities_Consistent>
1

> <s_lp_Variant>
AV-unprocessed.smi:717-1

> <Gold.Version>
5.8.1

> <Gold.Id.Protein>
6NUR|6NUR_protein|mol2

> <Gold.PLP.Fitness>
48.3907

> <Gold.PLP.PLP>
-50.1160

> <Gold.PLP.part.hbond>
0.0000

> <Gold.PLP.part.metal>
0.0000

> <Gold.PLP.part.buried>
-4.9575

> <Gold.PLP.part.nonpolar>
-44.8493

> <Gold.PLP.part.repulsive>
0.0077

> <Gold.PLP.ligand.clash>
0.0000

> <Gold.PLP.ligand.torsion>
0.9145

> <Gold.PLP.Chemscore.Hbond>
0.0000

> <Gold.PLP.Chemscore.CHOScore>
0.0000

> <Gold.PLP.Chemscore.Metal>
0.0000

> <Gold.PLP.Chemscore.Internal.Correction>
0.1037

> <Gold.Rescore>
     Score         DG    S(hbond)    S(metal)    S(lipo)     H(rot)  DE(clash)    DE(int)     intcor
     14.52     -18.06       0.00        0.00     143.97       1.67       0.03       3.51       ----

> <Gold.Chemscore.Fitness>
14.5184

> <Gold.Chemscore.DG>
-18.0560

> <Gold.Chemscore.ZeroCoef>
-5.4800

> <Gold.Chemscore.Hbond>
0.0000

> <Gold.Chemscore.Metal>
0.0000

> <Gold.Chemscore.Lipo>
143.9746

> <Gold.Chemscore.Internal_Hbond>
0.0000

> <Gold.Chemscore.DEClash>
0.0309

> <Gold.Chemscore.DEInternal>
3.5067

> <Gold.Chemscore.Rot>
1.6676

> <Gold.Chemscore.Internal.Correction>
   9.000000E+99

> <Gold.Chemscore.Hbond.Weighted>
-0.0000

> <Gold.Chemscore.Metal.Weighted>
-0.0000

> <Gold.Chemscore.Lipo.Weighted>
-16.8450

> <Gold.Chemscore.Internal_Hbond.Weighted>
0.0000

> <Gold.Chemscore.DEClash.Weighted>
0.0309

> <Gold.Chemscore.DEInternal.Weighted>
3.5067

> <Gold.Chemscore.Rot.Weighted>
4.2690

> <Gold.Chemscore.Internal.Correction.Weighted>
   9.000000E+99

> <Gold.Protein.RotatedTorsions>
[ 6907 6896 6895 6894 ] final  -45.61 input  -60.11 | X-H torsion
[ 7974 7965 7964 7962 ] final   17.20 input  175.53 | X-H torsion
[ 8008 7997 7996 7995 ] final   87.20 input   59.86 | X-H torsion
[ 10167 10162 10161 10158 ] final  -24.47 input  -65.29 | X-H torsion
[ 10718 10713 10712 10709 ] final   94.83 input   66.30 | X-H torsion
[ 10763 10752 10751 10750 ] final -124.50 input  -60.55 | X-H torsion
[ 11005 11000 10999 10996 ] final   91.77 input  -57.11 | X-H torsion

> <Gold.Protein.ActiveResidues>
 VAL166  LYS551  ARG553  GLY616  TRP617  ASP618  TYR619  PRO620  LYS621  CYS622 
 ASP623  PHE694  ASN695  SER759  ASP760  ASP761  ALA762  ILE779  LEU786  VAL792 
 PHE793  MET794  SER795  GLU796  ALA797  LYS798  CYS799  TRP800  GLU811  SER814 

> <Gold.Protein.RotatedAtoms>
  150.9201  134.8619  159.7482 H   0  0  0  0  0  0  0  0  0  0  0  0  # atno 6907 bound_to 6896
  152.4988  134.4231  159.9497 H   0  0  0  0  0  0  0  0  0  0  0  0  # atno 6908 bound_to 6896
  151.4265  133.3643  159.2798 H   0  0  0  0  0  0  0  0  0  0  0  0  # atno 6909 bound_to 6896
  146.2226  139.8637  142.8600 H   0  0  0  0  0  0  0  0  0  0  0  0  # atno 7974 bound_to 7965
  155.9724  140.3384  155.6588 H   0  0  0  0  0  0  0  0  0  0  0  0  # atno 8008 bound_to 7997
  155.6656  140.0721  157.2556 H   0  0  0  0  0  0  0  0  0  0  0  0  # atno 8009 bound_to 7997
  154.4170  140.1700  156.1811 H   0  0  0  0  0  0  0  0  0  0  0  0  # atno 8010 bound_to 7997
  140.7288  143.4351  151.0742 H   0  0  0  0  0  0  0  0  0  0  0  0  # atno 10167 bound_to 10162
  157.6944  131.0525  150.4246 H   0  0  0  0  0  0  0  0  0  0  0  0  # atno 10718 bound_to 10713
  154.8724  135.4061  154.3116 H   0  0  0  0  0  0  0  0  0  0  0  0  # atno 10763 bound_to 10752
  153.3959  135.7016  153.6466 H   0  0  0  0  0  0  0  0  0  0  0  0  # atno 10764 bound_to 10752
  153.5229  135.3683  155.2611 H   0  0  0  0  0  0  0  0  0  0  0  0  # atno 10765 bound_to 10752
  139.8833  134.8694  156.3476 H   0  0  0  0  0  0  0  0  0  0  0  0  # atno 11005 bound_to 11000
  145.2678  141.0098  143.3789 LP  0  0  0  0  0  0  0  0  0  0  0  0  # atno 17320 bound_to 7965
  144.9247  139.4369  143.6524 LP  0  0  0  0  0  0  0  0  0  0  0  0  # atno 17321 bound_to 7965
  139.8012  143.8081  152.3163 LP  0  0  0  0  0  0  0  0  0  0  0  0  # atno 17342 bound_to 10162
  139.8099  144.7340  150.9712 LP  0  0  0  0  0  0  0  0  0  0  0  0  # atno 17343 bound_to 10162
  156.4618  130.4033  149.6571 LP  0  0  0  0  0  0  0  0  0  0  0  0  # atno 17370 bound_to 10713
  156.3684  130.7517  151.2498 LP  0  0  0  0  0  0  0  0  0  0  0  0  # atno 17371 bound_to 10713
  140.9616  133.7385  156.0409 LP  0  0  0  0  0  0  0  0  0  0  0  0  # atno 17394 bound_to 11000
  140.7982  134.3539  157.5446 LP  0  0  0  0  0  0  0  0  0  0  0  0  # atno 17395 bound_to 11000

$$$$
