AV-unprocessed.smi:2050|AV-procd|sdf|8325|dock8
  -GOLD-   2272010593D 1   1.00000     0.00000
 Structure written by MMmdl.
 33 34  0  0  0  0  0  0  0  0  1 V2000
  144.1635  131.8428  150.6576 C   0  0  0  0  0  0  0  0  0  0  0  0
  145.3475  132.1995  151.4894 C   0  0  0  0  0  0  0  0  0  0  0  0
  146.0148  133.3727  151.7042 C   0  0  0  0  0  0  0  0  0  0  0  0
  147.0452  132.9940  152.6056 C   0  0  0  0  0  0  0  0  0  0  0  0
  147.9798  133.9474  153.0839 N   0  0  0  0  0  0  0  0  0  0  0  0
  148.6769  133.9068  154.2323 C   0  0  0  0  0  0  0  0  0  0  0  0
  148.6077  133.0095  155.0726 O   0  0  0  0  0  0  0  0  0  0  0  0
  149.4738  134.9786  154.3547 N   0  0  0  0  0  0  0  0  0  0  0  0
  150.3626  135.2516  155.4804 C   0  0  0  0  0  0  0  0  0  0  0  0
  150.5528  136.7630  155.7103 C   0  0  1  0  0  0  0  0  0  0  0  0
  151.4436  137.0606  156.9323 C   0  0  0  0  0  0  0  0  0  0  0  0
  151.7847  138.5538  156.9370 C   0  0  0  0  0  0  0  0  0  0  0  0
  151.9218  139.0316  155.1747 S   0  0  0  0  0  0  0  0  0  0  0  0
  151.0390  140.1802  154.9208 O   0  0  0  0  0  0  0  0  0  0  0  0
  153.3391  139.0647  154.7839 O   0  0  0  0  0  0  0  0  0  0  0  0
  151.1549  137.5070  154.5055 C   0  0  0  0  0  0  0  0  0  0  0  0
  147.0098  131.7068  152.9138 N   0  0  0  0  0  0  0  0  0  0  0  0
  145.9217  131.1910  152.1998 O   0  0  0  0  0  0  0  0  0  0  0  0
  143.8020  132.7083  150.1019 H   0  0  0  0  0  0  0  0  0  0  0  0
  143.3483  131.4773  151.2821 H   0  0  0  0  0  0  0  0  0  0  0  0
  144.4167  131.0620  149.9402 H   0  0  0  0  0  0  0  0  0  0  0  0
  145.7978  134.3428  151.2822 H   0  0  0  0  0  0  0  0  0  0  0  0
  148.1348  134.7458  152.4863 H   0  0  0  0  0  0  0  0  0  0  0  0
  149.4648  135.6617  153.6116 H   0  0  0  0  0  0  0  0  0  0  0  0
  149.9143  134.8022  156.3668 H   0  0  0  0  0  0  0  0  0  0  0  0
  151.3278  134.7594  155.3471 H   0  0  0  0  0  0  0  0  0  0  0  0
  149.5760  137.2053  155.9130 H   0  0  0  0  0  0  0  0  0  0  0  0
  150.9649  136.7600  157.8648 H   0  0  0  0  0  0  0  0  0  0  0  0
  152.3688  136.4884  156.8500 H   0  0  0  0  0  0  0  0  0  0  0  0
  150.9759  139.1337  157.3824 H   0  0  0  0  0  0  0  0  0  0  0  0
  152.7108  138.7807  157.4650 H   0  0  0  0  0  0  0  0  0  0  0  0
  151.9440  136.9187  154.0359 H   0  0  0  0  0  0  0  0  0  0  0  0
  150.4150  137.7609  153.7463 H   0  0  0  0  0  0  0  0  0  0  0  0
  1  2  1  0  0  0  0
  1 19  1  0  0  0  0
  1 20  1  0  0  0  0
  1 21  1  0  0  0  0
  2 18  1  0  0  0  0
  2  3  2  0  0  0  0
  3  4  1  0  0  0  0
  3 22  1  0  0  0  0
  4  5  1  0  0  0  0
  4 17  2  0  0  0  0
  5  6  1  0  0  0  0
  5 23  1  0  0  0  0
  6  7  2  0  0  0  0
  6  8  1  0  0  0  0
  8  9  1  0  0  0  0
  8 24  1  0  0  0  0
  9 10  1  0  0  0  0
  9 25  1  0  0  0  0
  9 26  1  0  0  0  0
 10 16  1  0  0  0  0
 10 11  1  0  0  0  0
 10 27  1  0  0  0  0
 11 12  1  0  0  0  0
 11 28  1  0  0  0  0
 11 29  1  0  0  0  0
 12 13  1  0  0  0  0
 12 30  1  0  0  0  0
 12 31  1  0  0  0  0
 13 14  2  0  0  0  0
 13 15  2  0  0  0  0
 13 16  1  0  0  0  0
 16 32  1  0  0  0  0
 16 33  1  0  0  0  0
 17 18  1  0  0  0  0
M  END
> <s_m_source_file>
AV-unprocessed.smi

> <i_m_source_file_index>
2050

> <i_lp_mmshare_version>
43012

> <i_f3d_flags>
0

> <s_epik_input>
W0NIM11jMVtjSF1jKG5vMSlbTkhdQyg9TylbTkhdW0NIMl1bQ0BASF0oW0NIMl0yKVtDSDJdW0NIMl1TMig9Tyk9Tw==

> <s_epik_cmdline>
J2VwaWtfcHl0aG9uJywgJy1waCcsICc3LjAnLCAnLXRuJywgJzgnLCAnLW1hJywgJzIwMCcsICctbWV0YWxfYmluZGluZycsICctaW1hZScsICc8aW5maWxlLm1hZT4nLCAnLW9tYWUnLCAnPG91dGZpbGUubWFlPic=

> <r_lp_tautomer_probability>
1

> <r_epik_Ionization_Penalty>
2.22143e-05

> <r_epik_Ionization_Penalty_Charging>
0

> <r_epik_Ionization_Penalty_Neutral>
2.22143e-05

> <r_epik_State_Penalty>
-0

> <r_epik_Charging_Adjusted_Penalty>
0

> <i_epik_Tot_Q>
0

> <i_epik_Tot_abs_Q>
0

> <r_epik_Metal_State_Penalty>
-0

> <b_epik_Metal_Only>
0

> <s_lp_Force_Field>
OPLS_2005

> <r_lp_Energy>
0.896814

> <b_lp_Chiralities_Consistent>
1

> <s_lp_Variant>
AV-unprocessed.smi:2050-2

> <Gold.Version>
5.8.1

> <Gold.Id.Protein>
6NUR|6NUR_protein|mol2

> <Gold.PLP.Fitness>
40.9697

> <Gold.PLP.PLP>
-29.6232

> <Gold.PLP.part.hbond>
-4.0883

> <Gold.PLP.part.metal>
0.0000

> <Gold.PLP.part.buried>
-5.7013

> <Gold.PLP.part.nonpolar>
-20.0456

> <Gold.PLP.part.repulsive>
0.4025

> <Gold.PLP.ligand.clash>
0.0000

> <Gold.PLP.ligand.torsion>
0.3279

> <Gold.PLP.Chemscore.Hbond>
4.0000

> <Gold.PLP.Chemscore.CHOScore>
0.0000

> <Gold.PLP.Chemscore.Metal>
0.0000

> <Gold.Chemscore.Hbonds>
donor molecule, donor type, donor heavy atom, donor atom, acceptor molecule, acceptor atom, score
      L1  H     5    23       P1  7948  1.00
      L1  H     8    24       P1  7948  1.00
      P1  H  7989  7998       L1    14  1.00
      P1  H  7997  8010       L1    15  1.00

> <Gold.PLP.Chemscore.Internal.Correction>
0.0023

> <Gold.Rescore>
     Score         DG    S(hbond)    S(metal)    S(lipo)     H(rot)  DE(clash)    DE(int)     intcor
     17.74     -19.18       3.62        0.00      43.47       1.36       0.00       1.44       ----

> <Gold.Chemscore.Fitness>
17.7406

> <Gold.Chemscore.DG>
-19.1816

> <Gold.Chemscore.ZeroCoef>
-5.4800

> <Gold.Chemscore.Hbond>
3.6195

> <Gold.Chemscore.Metal>
0.0000

> <Gold.Chemscore.Lipo>
43.4688

> <Gold.Chemscore.Internal_Hbond>
0.0000

> <Gold.Chemscore.DEClash>
0.0021

> <Gold.Chemscore.DEInternal>
1.4389

> <Gold.Chemscore.Rot>
1.3567

> <Gold.Chemscore.Internal.Correction>
   9.000000E+99

> <Gold.Chemscore.Hbonds>
donor molecule, donor type, donor heavy atom, donor atom, acceptor molecule, acceptor atom, score
      L1  H     5    23       P1  7948  0.50
      L1  H     8    24       P1  7948  0.29
      P1  H  7989  7998       L1    14  0.50
      P1  H  7997  8010       L1    15  0.94

> <Gold.Chemscore.Hbond.Weighted>
-12.0890

> <Gold.Chemscore.Metal.Weighted>
-0.0000

> <Gold.Chemscore.Lipo.Weighted>
-5.0858

> <Gold.Chemscore.Internal_Hbond.Weighted>
0.0000

> <Gold.Chemscore.DEClash.Weighted>
0.0021

> <Gold.Chemscore.DEInternal.Weighted>
1.4389

> <Gold.Chemscore.Rot.Weighted>
3.4732

> <Gold.Chemscore.Internal.Correction.Weighted>
   9.000000E+99

> <Gold.Protein.RotatedTorsions>
[ 6907 6896 6895 6894 ] final   -4.48 input  -60.11 | X-H torsion
[ 7974 7965 7964 7962 ] final  118.46 input  175.53 | X-H torsion
[ 8008 7997 7996 7995 ] final  109.76 input   59.86 | X-H torsion
[ 10167 10162 10161 10158 ] final  130.58 input  -65.29 | X-H torsion
[ 10718 10713 10712 10709 ] final   93.30 input   66.30 | X-H torsion
[ 10763 10752 10751 10750 ] final   13.74 input  -60.55 | X-H torsion
[ 11005 11000 10999 10996 ] final   27.94 input  -57.11 | X-H torsion

> <Gold.Protein.ActiveResidues>
 VAL166  LYS551  ARG553  GLY616  TRP617  ASP618  TYR619  PRO620  LYS621  CYS622 
 ASP623  PHE694  ASN695  SER759  ASP760  ASP761  ALA762  ILE779  LEU786  VAL792 
 PHE793  MET794  SER795  GLU796  ALA797  LYS798  CYS799  TRP800  GLU811  SER814 

> <Gold.Protein.RotatedAtoms>
  151.4969  135.1060  159.9818 H   0  0  0  0  0  0  0  0  0  0  0  0  # atno 6907 bound_to 6896
  152.4718  133.8042  159.6980 H   0  0  0  0  0  0  0  0  0  0  0  0  # atno 6908 bound_to 6896
  150.8731  133.7414  159.2981 H   0  0  0  0  0  0  0  0  0  0  0  0  # atno 6909 bound_to 6896
  145.1550  139.3188  143.4547 H   0  0  0  0  0  0  0  0  0  0  0  0  # atno 7974 bound_to 7965
  156.2003  140.3051  155.9512 H   0  0  0  0  0  0  0  0  0  0  0  0  # atno 8008 bound_to 7997
  155.2969  140.0444  157.3044 H   0  0  0  0  0  0  0  0  0  0  0  0  # atno 8009 bound_to 7997
  154.5562  140.2306  155.8415 H   0  0  0  0  0  0  0  0  0  0  0  0  # atno 8010 bound_to 7997
  139.5423  144.6742  151.4584 H   0  0  0  0  0  0  0  0  0  0  0  0  # atno 10167 bound_to 10162
  157.6955  131.0473  150.4014 H   0  0  0  0  0  0  0  0  0  0  0  0  # atno 10718 bound_to 10713
  153.1691  135.6809  153.8633 H   0  0  0  0  0  0  0  0  0  0  0  0  # atno 10763 bound_to 10752
  153.8003  135.3157  155.3390 H   0  0  0  0  0  0  0  0  0  0  0  0  # atno 10764 bound_to 10752
  154.7986  135.4792  154.0312 H   0  0  0  0  0  0  0  0  0  0  0  0  # atno 10765 bound_to 10752
  140.3209  134.2544  155.7717 H   0  0  0  0  0  0  0  0  0  0  0  0  # atno 11005 bound_to 11000
  146.3490  140.1638  142.8590 LP  0  0  0  0  0  0  0  0  0  0  0  0  # atno 17320 bound_to 7965
  145.0391  140.8931  143.5063 LP  0  0  0  0  0  0  0  0  0  0  0  0  # atno 17321 bound_to 7965
  140.6658  143.8400  150.6940 LP  0  0  0  0  0  0  0  0  0  0  0  0  # atno 17342 bound_to 10162
  140.1809  143.4115  152.1933 LP  0  0  0  0  0  0  0  0  0  0  0  0  # atno 17343 bound_to 10162
  156.4407  130.3991  149.6699 LP  0  0  0  0  0  0  0  0  0  0  0  0  # atno 17370 bound_to 10713
  156.3884  130.7614  151.2613 LP  0  0  0  0  0  0  0  0  0  0  0  0  # atno 17371 bound_to 10713
  141.2087  133.7771  157.0044 LP  0  0  0  0  0  0  0  0  0  0  0  0  # atno 17394 bound_to 11000
  140.0943  134.9574  157.1824 LP  0  0  0  0  0  0  0  0  0  0  0  0  # atno 17395 bound_to 11000

$$$$
