AV-unprocessed.smi:437|AV-procd|sdf|2560|dock10
  -GOLD-   2262022533D 1   1.00000     0.00000
 Structure written by MMmdl.
 48 49  0  0  0  0  0  0  0  0  1 V2000
  150.3039  142.3424  157.3879 C   0  0  0  0  0  0  0  0  0  0  0  0
  150.5230  141.0808  156.5971 C   0  0  0  0  0  0  0  0  0  0  0  0
  149.7655  140.9031  155.5650 N   0  0  0  0  0  0  0  0  0  0  0  0
  149.8822  139.7780  154.7720 N   0  0  0  0  0  0  0  0  0  0  0  0
  148.9296  139.7337  153.6522 C   0  0  0  0  0  0  0  0  0  0  0  0
  147.6210  139.0029  153.9928 C   0  0  0  0  0  0  0  0  0  0  0  0
  146.8439  139.4729  154.8282 O   0  0  0  0  0  0  0  0  0  0  0  0
  147.4184  137.8580  153.3097 N   0  0  0  0  0  0  0  0  0  0  0  0
  146.3680  137.0201  153.4047 C   0  0  0  0  0  0  0  0  0  0  0  0
  145.2578  137.3059  153.8585 O   0  0  0  0  0  0  0  0  0  0  0  0
  146.6791  135.8051  152.9299 N   0  0  0  0  0  0  0  0  0  0  0  0
  145.8907  134.5873  153.1264 C   0  0  1  0  0  0  0  0  0  0  0  0
  144.4506  134.7665  152.5968 C   0  0  0  0  0  0  0  0  0  0  0  0
  144.4032  134.8489  151.0618 C   0  0  0  0  0  0  0  0  0  0  0  0
  145.0769  133.6272  150.4199 C   0  0  0  0  0  0  0  0  0  0  0  0
  146.5178  133.4525  150.9255 C   0  0  0  0  0  0  0  0  0  0  0  0
  146.5748  133.3649  152.4652 C   0  0  1  0  0  0  0  0  0  0  0  0
  148.0122  133.1412  152.9661 C   0  0  0  0  0  0  0  0  0  0  0  0
  150.7864  138.7763  154.9732 C   0  0  0  0  0  0  0  0  0  0  0  0
  150.8646  137.7961  154.2310 O   0  0  0  0  0  0  0  0  0  0  0  0
  151.6378  138.9818  156.1470 C   0  0  0  0  0  0  0  0  0  0  0  0
  152.5897  137.9493  156.4022 C   0  0  0  0  0  0  0  0  0  0  0  0
  153.3586  137.1045  156.5903 N   0  0  0  0  0  0  0  0  0  0  0  0
  151.5272  140.0784  156.9379 C   0  0  0  0  0  0  0  0  0  0  0  0
  152.3870  140.3407  158.1666 C   0  0  0  0  0  0  0  0  0  0  0  0
  151.2072  142.9526  157.4003 H   0  0  0  0  0  0  0  0  0  0  0  0
  150.0364  142.1116  158.4193 H   0  0  0  0  0  0  0  0  0  0  0  0
  149.5019  142.9520  156.9686 H   0  0  0  0  0  0  0  0  0  0  0  0
  148.6778  140.7476  153.3352 H   0  0  0  0  0  0  0  0  0  0  0  0
  149.3915  139.2625  152.7825 H   0  0  0  0  0  0  0  0  0  0  0  0
  148.1361  137.6022  152.6478 H   0  0  0  0  0  0  0  0  0  0  0  0
  147.5246  135.7095  152.3870 H   0  0  0  0  0  0  0  0  0  0  0  0
  145.8356  134.3939  154.1994 H   0  0  0  0  0  0  0  0  0  0  0  0
  143.8442  133.9213  152.9247 H   0  0  0  0  0  0  0  0  0  0  0  0
  143.9880  135.6526  153.0328 H   0  0  0  0  0  0  0  0  0  0  0  0
  143.3682  134.9201  150.7265 H   0  0  0  0  0  0  0  0  0  0  0  0
  144.8982  135.7606  150.7251 H   0  0  0  0  0  0  0  0  0  0  0  0
  144.4990  132.7307  150.6478 H   0  0  0  0  0  0  0  0  0  0  0  0
  145.0735  133.7289  149.3343 H   0  0  0  0  0  0  0  0  0  0  0  0
  146.9479  132.5518  150.4863 H   0  0  0  0  0  0  0  0  0  0  0  0
  147.1298  134.2850  150.5759 H   0  0  0  0  0  0  0  0  0  0  0  0
  146.0020  132.4834  152.7573 H   0  0  0  0  0  0  0  0  0  0  0  0
  148.6757  133.9544  152.6712 H   0  0  0  0  0  0  0  0  0  0  0  0
  148.4261  132.2171  152.5620 H   0  0  0  0  0  0  0  0  0  0  0  0
  148.0403  133.0655  154.0534 H   0  0  0  0  0  0  0  0  0  0  0  0
  153.1161  139.5496  158.3377 H   0  0  0  0  0  0  0  0  0  0  0  0
  151.7652  140.4121  159.0595 H   0  0  0  0  0  0  0  0  0  0  0  0
  152.9382  141.2748  158.0556 H   0  0  0  0  0  0  0  0  0  0  0  0
  1  2  1  0  0  0  0
  1 26  1  0  0  0  0
  1 27  1  0  0  0  0
  1 28  1  0  0  0  0
  2 24  1  0  0  0  0
  2  3  2  0  0  0  0
  3  4  1  0  0  0  0
  4  5  1  0  0  0  0
  4 19  1  0  0  0  0
  5  6  1  0  0  0  0
  5 29  1  0  0  0  0
  5 30  1  0  0  0  0
  6  7  2  0  0  0  0
  6  8  1  0  0  0  0
  8  9  1  0  0  0  0
  8 31  1  0  0  0  0
  9 10  2  0  0  0  0
  9 11  1  0  0  0  0
 11 12  1  0  0  0  0
 11 32  1  0  0  0  0
 12 17  1  0  0  0  0
 12 13  1  0  0  0  0
 12 33  1  0  0  0  0
 13 14  1  0  0  0  0
 13 34  1  0  0  0  0
 13 35  1  0  0  0  0
 14 15  1  0  0  0  0
 14 36  1  0  0  0  0
 14 37  1  0  0  0  0
 15 16  1  0  0  0  0
 15 38  1  0  0  0  0
 15 39  1  0  0  0  0
 16 17  1  0  0  0  0
 16 40  1  0  0  0  0
 16 41  1  0  0  0  0
 17 18  1  0  0  0  0
 17 42  1  0  0  0  0
 18 43  1  0  0  0  0
 18 44  1  0  0  0  0
 18 45  1  0  0  0  0
 19 20  2  0  0  0  0
 19 21  1  0  0  0  0
 21 22  1  0  0  0  0
 21 24  2  0  0  0  0
 22 23  3  0  0  0  0
 24 25  1  0  0  0  0
 25 46  1  0  0  0  0
 25 47  1  0  0  0  0
 25 48  1  0  0  0  0
M  END
> <s_m_source_file>
AV-unprocessed.smi

> <i_m_source_file_index>
437

> <i_lp_mmshare_version>
43012

> <i_f3d_flags>
0

> <s_epik_input>
TiNDYyhjMVtDSDNdKWMoPU8pbihuYzFbQ0gzXSlbQ0gyXUMoPU8pW05IXUMoPU8pW05IXVtDQEBIXTJbQ0gyXVtDSDJdW0NIMl1bQ0gyXVtDQEhdMltDSDNd

> <s_epik_cmdline>
J2VwaWtfcHl0aG9uJywgJy1waCcsICc3LjAnLCAnLXRuJywgJzgnLCAnLW1hJywgJzIwMCcsICctbWV0YWxfYmluZGluZycsICctaW1hZScsICc8aW5maWxlLm1hZT4nLCAnLW9tYWUnLCAnPG91dGZpbGUubWFlPic=

> <r_lp_tautomer_probability>
1

> <r_epik_Ionization_Penalty>
3.27035e-05

> <r_epik_Ionization_Penalty_Charging>
1.6965e-11

> <r_epik_Ionization_Penalty_Neutral>
3.27035e-05

> <r_epik_State_Penalty>
-0

> <r_epik_Charging_Adjusted_Penalty>
1.6965e-11

> <i_epik_Tot_Q>
0

> <i_epik_Tot_abs_Q>
0

> <r_epik_Metal_State_Penalty>
-0

> <b_epik_Metal_Only>
0

> <s_lp_Force_Field>
OPLS_2005

> <r_lp_Energy>
26.066

> <b_lp_Chiralities_Consistent>
1

> <s_lp_Variant>
AV-unprocessed.smi:437-2

> <Gold.Version>
5.8.1

> <Gold.Id.Protein>
6NUR|6NUR_protein|mol2

> <Gold.PLP.Fitness>
40.6243

> <Gold.PLP.PLP>
-34.0751

> <Gold.PLP.part.hbond>
-3.0000

> <Gold.PLP.part.metal>
0.0000

> <Gold.PLP.part.buried>
-1.5795

> <Gold.PLP.part.nonpolar>
-30.7435

> <Gold.PLP.part.repulsive>
0.5240

> <Gold.PLP.ligand.clash>
0.0000

> <Gold.PLP.ligand.torsion>
0.5425

> <Gold.PLP.Chemscore.Hbond>
2.5360

> <Gold.PLP.Chemscore.CHOScore>
0.0000

> <Gold.PLP.Chemscore.Metal>
0.0000

> <Gold.Chemscore.Hbonds>
donor molecule, donor type, donor heavy atom, donor atom, acceptor molecule, acceptor atom, score
      L1  H     8    31       P1  7948  0.91
      L1  H    11    32       P1  7948  1.00
      P1  H 10752 10764       L1    23  0.56

> <Gold.PLP.Chemscore.Internal.Correction>
0.0262

> <Gold.Rescore>
     Score         DG    S(hbond)    S(metal)    S(lipo)     H(rot)  DE(clash)    DE(int)     intcor
     16.15     -19.42       2.87        0.00      71.45       1.57       1.37       1.90       ----

> <Gold.Chemscore.Fitness>
16.1526

> <Gold.Chemscore.DG>
-19.4199

> <Gold.Chemscore.ZeroCoef>
-5.4800

> <Gold.Chemscore.Hbond>
2.8708

> <Gold.Chemscore.Metal>
0.0000

> <Gold.Chemscore.Lipo>
71.4483

> <Gold.Chemscore.Internal_Hbond>
0.0000

> <Gold.Chemscore.DEClash>
1.3706

> <Gold.Chemscore.DEInternal>
1.8968

> <Gold.Chemscore.Rot>
1.5656

> <Gold.Chemscore.Internal.Correction>
   9.000000E+99

> <Gold.Chemscore.Hbonds>
donor molecule, donor type, donor heavy atom, donor atom, acceptor molecule, acceptor atom, score
      L1  H     8    31       P1  7948  0.90
      L1  H    11    32       P1  7948  0.96
      P1  H 10752 10764       L1    23  0.55

> <Gold.Chemscore.Hbond.Weighted>
-9.5883

> <Gold.Chemscore.Metal.Weighted>
-0.0000

> <Gold.Chemscore.Lipo.Weighted>
-8.3595

> <Gold.Chemscore.Internal_Hbond.Weighted>
0.0000

> <Gold.Chemscore.DEClash.Weighted>
1.3706

> <Gold.Chemscore.DEInternal.Weighted>
1.8968

> <Gold.Chemscore.Rot.Weighted>
4.0079

> <Gold.Chemscore.Internal.Correction.Weighted>
   9.000000E+99

> <Gold.Protein.RotatedTorsions>
[ 6907 6896 6895 6894 ] final -100.38 input  -60.11 | X-H torsion
[ 7974 7965 7964 7962 ] final   10.47 input  175.53 | X-H torsion
[ 8008 7997 7996 7995 ] final  161.24 input   59.86 | X-H torsion
[ 10167 10162 10161 10158 ] final -127.62 input  -65.29 | X-H torsion
[ 10718 10713 10712 10709 ] final  114.31 input   66.30 | X-H torsion
[ 10763 10752 10751 10750 ] final   -1.51 input  -60.55 | X-H torsion
[ 11005 11000 10999 10996 ] final -119.86 input  -57.11 | X-H torsion

> <Gold.Protein.ActiveResidues>
 VAL166  LYS551  ARG553  GLY616  TRP617  ASP618  TYR619  PRO620  LYS621  CYS622 
 ASP623  PHE694  ASN695  SER759  ASP760  ASP761  ALA762  ILE779  LEU786  VAL792 
 PHE793  MET794  SER795  GLU796  ALA797  LYS798  CYS799  TRP800  GLU811  SER814 

> <Gold.Protein.RotatedAtoms>
  150.7114  134.0895  159.3926 H   0  0  0  0  0  0  0  0  0  0  0  0  # atno 6907 bound_to 6896
  151.8880  135.0425  160.0504 H   0  0  0  0  0  0  0  0  0  0  0  0  # atno 6908 bound_to 6896
  152.2514  133.5183  159.5364 H   0  0  0  0  0  0  0  0  0  0  0  0  # atno 6909 bound_to 6896
  146.2388  139.9630  142.8456 H   0  0  0  0  0  0  0  0  0  0  0  0  # atno 7974 bound_to 7965
  156.2117  140.1782  156.7681 H   0  0  0  0  0  0  0  0  0  0  0  0  # atno 8008 bound_to 7997
  154.5731  140.0679  156.9024 H   0  0  0  0  0  0  0  0  0  0  0  0  # atno 8009 bound_to 7997
  155.2636  140.3337  155.4273 H   0  0  0  0  0  0  0  0  0  0  0  0  # atno 8010 bound_to 7997
  139.9589  143.5972  152.2451 H   0  0  0  0  0  0  0  0  0  0  0  0  # atno 10167 bound_to 10162
  157.6288  131.0996  150.7167 H   0  0  0  0  0  0  0  0  0  0  0  0  # atno 10718 bound_to 10713
  153.3459  135.6983  153.6829 H   0  0  0  0  0  0  0  0  0  0  0  0  # atno 10763 bound_to 10752
  153.5575  135.3541  155.2786 H   0  0  0  0  0  0  0  0  0  0  0  0  # atno 10764 bound_to 10752
  154.8645  135.4241  154.2683 H   0  0  0  0  0  0  0  0  0  0  0  0  # atno 10765 bound_to 10752
  141.0185  134.0159  157.3316 H   0  0  0  0  0  0  0  0  0  0  0  0  # atno 11005 bound_to 11000
  145.1753  140.9741  143.4298 LP  0  0  0  0  0  0  0  0  0  0  0  0  # atno 17320 bound_to 7965
  144.9991  139.3615  143.6176 LP  0  0  0  0  0  0  0  0  0  0  0  0  # atno 17321 bound_to 7965
  139.6569  144.7662  151.2037 LP  0  0  0  0  0  0  0  0  0  0  0  0  # atno 17342 bound_to 10162
  140.7559  143.6071  150.8642 LP  0  0  0  0  0  0  0  0  0  0  0  0  # atno 17343 bound_to 10162
  156.7510  130.4769  149.5456 LP  0  0  0  0  0  0  0  0  0  0  0  0  # atno 17370 bound_to 10713
  156.1478  130.6289  151.0555 LP  0  0  0  0  0  0  0  0  0  0  0  0  # atno 17371 bound_to 10713
  139.9131  135.0193  156.7775 LP  0  0  0  0  0  0  0  0  0  0  0  0  # atno 17394 bound_to 11000
  140.6613  133.9642  155.7806 LP  0  0  0  0  0  0  0  0  0  0  0  0  # atno 17395 bound_to 11000

$$$$
