AV-unprocessed.smi:445|AV-procd|sdf|2589|dock6
  -GOLD-   2262022583D 1   1.00000     0.00000
 Structure written by MMmdl.
 44 45  0  0  0  0  0  0  0  0  3 V2000
  151.3084  145.0446  158.4242 C   0  0  0  0  0  0  0  0  0  0  0  0
  151.4186  143.9981  159.5480 C   0  0  2  0  0  0  0  0  0  0  0  0
  152.1764  144.5821  160.7578 C   0  0  0  0  0  0  0  0  0  0  0  0
  152.2962  143.5660  161.9033 C   0  0  0  0  0  0  0  0  0  0  0  0
  152.9700  142.2732  161.4243 C   0  0  0  0  0  0  0  0  0  0  0  0
  152.2176  141.6708  160.2292 C   0  0  0  0  0  0  0  0  0  0  0  0
  152.0826  142.6821  159.0709 C   0  0  1  0  0  0  0  0  0  0  0  0
  151.3087  142.0871  157.9836 N   0  0  0  0  0  0  0  0  0  0  0  0
  151.5902  140.9266  157.3722 C   0  0  0  0  0  0  0  0  0  0  0  0
  152.5429  140.2115  157.6853 O   0  0  0  0  0  0  0  0  0  0  0  0
  150.6288  140.5081  156.2509 C   0  0  0  0  0  0  0  0  0  0  0  0
  149.8776  139.2782  156.5615 N   0  0  0  0  0  0  0  0  0  0  0  0
  150.5146  138.0614  156.2603 C   0  0  0  0  0  0  0  0  0  0  0  0
  149.9327  136.8712  156.4895 C   0  0  0  0  0  0  0  0  0  0  0  0
  150.6067  135.6323  156.1642 N   0  3  0  0  0  0  0  0  0  0  0  0
  151.7679  135.6784  155.7710 O   0  0  0  0  0  0  0  0  0  0  0  0
  149.9995  134.5729  156.2894 O   0  5  0  0  0  0  0  0  0  0  0  0
  148.6058  136.8673  157.0700 C   0  0  0  0  0  0  0  0  0  0  0  0
  147.9690  138.0297  157.3640 C   0  0  0  0  0  0  0  0  0  0  0  0
  146.6136  138.0726  157.9578 C   0  0  0  0  0  0  0  0  0  0  0  0
  146.0455  136.8711  158.1223 N   0  0  0  0  0  0  0  0  0  0  0  0
  145.9875  139.0753  158.3011 O   0  0  0  0  0  0  0  0  0  0  0  0
  148.6190  139.3423  157.0988 C   0  0  0  0  0  0  0  0  0  0  0  0
  148.1061  140.4414  157.3271 O   0  0  0  0  0  0  0  0  0  0  0  0
  152.2904  145.2985  158.0237 H   0  0  0  0  0  0  0  0  0  0  0  0
  150.8512  145.9645  158.7894 H   0  0  0  0  0  0  0  0  0  0  0  0
  150.6949  144.6870  157.5971 H   0  0  0  0  0  0  0  0  0  0  0  0
  150.4046  143.7651  159.8774 H   0  0  0  0  0  0  0  0  0  0  0  0
  153.1740  144.8983  160.4495 H   0  0  0  0  0  0  0  0  0  0  0  0
  151.6687  145.4770  161.1193 H   0  0  0  0  0  0  0  0  0  0  0  0
  152.8656  143.9989  162.7263 H   0  0  0  0  0  0  0  0  0  0  0  0
  151.3049  143.3388  162.2978 H   0  0  0  0  0  0  0  0  0  0  0  0
  154.0024  142.4809  161.1403 H   0  0  0  0  0  0  0  0  0  0  0  0
  153.0120  141.5508  162.2399 H   0  0  0  0  0  0  0  0  0  0  0  0
  152.7383  140.7749  159.8885 H   0  0  0  0  0  0  0  0  0  0  0  0
  151.2276  141.3464  160.5532 H   0  0  0  0  0  0  0  0  0  0  0  0
  153.0820  142.9244  158.7036 H   0  0  0  0  0  0  0  0  0  0  0  0
  150.5034  142.6059  157.6643 H   0  0  0  0  0  0  0  0  0  0  0  0
  149.9468  141.3388  156.0642 H   0  0  0  0  0  0  0  0  0  0  0  0
  151.1848  140.3880  155.3189 H   0  0  0  0  0  0  0  0  0  0  0  0
  151.4977  138.1658  155.8244 H   0  0  0  0  0  0  0  0  0  0  0  0
  148.1407  135.9121  157.2608 H   0  0  0  0  0  0  0  0  0  0  0  0
  145.1209  136.7977  158.5211 H   0  0  0  0  0  0  0  0  0  0  0  0
  146.5476  136.0397  157.8458 H   0  0  0  0  0  0  0  0  0  0  0  0
  1  2  1  0  0  0  0
  1 25  1  0  0  0  0
  1 26  1  0  0  0  0
  1 27  1  0  0  0  0
  2  7  1  0  0  0  0
  2  3  1  0  0  0  0
  2 28  1  0  0  0  0
  3  4  1  0  0  0  0
  3 29  1  0  0  0  0
  3 30  1  0  0  0  0
  4  5  1  0  0  0  0
  4 31  1  0  0  0  0
  4 32  1  0  0  0  0
  5  6  1  0  0  0  0
  5 33  1  0  0  0  0
  5 34  1  0  0  0  0
  6  7  1  0  0  0  0
  6 35  1  0  0  0  0
  6 36  1  0  0  0  0
  7  8  1  0  0  0  0
  7 37  1  0  0  0  0
  8  9  1  0  0  0  0
  8 38  1  0  0  0  0
  9 10  2  0  0  0  0
  9 11  1  0  0  0  0
 11 12  1  0  0  0  0
 11 39  1  0  0  0  0
 11 40  1  0  0  0  0
 12 23  1  0  0  0  0
 12 13  1  0  0  0  0
 13 14  2  0  0  0  0
 13 41  1  0  0  0  0
 14 15  1  0  0  0  0
 14 18  1  0  0  0  0
 15 16  2  0  0  0  0
 15 17  1  0  0  0  0
 18 19  2  0  0  0  0
 18 42  1  0  0  0  0
 19 20  1  0  0  0  0
 19 23  1  0  0  0  0
 20 21  1  0  0  0  0
 20 22  2  0  0  0  0
 21 43  1  0  0  0  0
 21 44  1  0  0  0  0
 23 24  2  0  0  0  0
M  CHG  1  15   1
M  CHG  1  17  -1
M  END
> <s_m_source_file>
AV-unprocessed.smi

> <i_m_source_file_index>
445

> <i_lp_mmshare_version>
43012

> <i_f3d_flags>
0

> <s_epik_input>
W0NIM11bQ0BASF0xW0NIMl1bQ0gyXVtDSDJdW0NIMl1bQ0BIXTFbTkhdQyg9TylbQ0gyXW4yW2NIXWMoW04rXSg9TylbTy1dKVtjSF1jKGMyPU8pQyg9TylbTkgyXQ==

> <s_epik_cmdline>
J2VwaWtfcHl0aG9uJywgJy1waCcsICc3LjAnLCAnLXRuJywgJzgnLCAnLW1hJywgJzIwMCcsICctbWV0YWxfYmluZGluZycsICctaW1hZScsICc8aW5maWxlLm1hZT4nLCAnLW9tYWUnLCAnPG91dGZpbGUubWFlPic=

> <r_lp_tautomer_probability>
1

> <r_epik_Ionization_Penalty>
2.81321e-06

> <r_epik_Ionization_Penalty_Charging>
2.43777e-12

> <r_epik_Ionization_Penalty_Neutral>
2.81321e-06

> <r_epik_State_Penalty>
-0

> <r_epik_Charging_Adjusted_Penalty>
2.43777e-12

> <i_epik_Tot_Q>
0

> <i_epik_Tot_abs_Q>
2

> <r_epik_Metal_State_Penalty>
-0

> <b_epik_Metal_Only>
0

> <s_lp_Force_Field>
OPLS_2005

> <r_lp_Energy>
28.5082

> <b_lp_Chiralities_Consistent>
1

> <s_lp_Variant>
AV-unprocessed.smi:445-1

> <Gold.Version>
5.8.1

> <Gold.Id.Protein>
6NUR|6NUR_protein|mol2

> <Gold.PLP.Fitness>
44.2656

> <Gold.PLP.PLP>
-35.8835

> <Gold.PLP.part.hbond>
-4.6256

> <Gold.PLP.part.metal>
0.0000

> <Gold.PLP.part.buried>
-4.3509

> <Gold.PLP.part.nonpolar>
-26.0602

> <Gold.PLP.part.repulsive>
0.1082

> <Gold.PLP.ligand.clash>
0.0000

> <Gold.PLP.ligand.torsion>
0.4041

> <Gold.PLP.Chemscore.Hbond>
3.0508

> <Gold.PLP.Chemscore.CHOScore>
0.0000

> <Gold.PLP.Chemscore.Metal>
0.0000

> <Gold.Chemscore.Hbonds>
donor molecule, donor type, donor heavy atom, donor atom, acceptor molecule, acceptor atom, score
      P1  H  7997  8009       L1    10  0.84
      P1  H 10752 10763       L1    16  0.98

> <Gold.PLP.Chemscore.Internal.Correction>
0.0377

> <Gold.Rescore>
     Score         DG    S(hbond)    S(metal)    S(lipo)     H(rot)  DE(clash)    DE(int)     intcor
     19.57     -22.42       3.05        0.00      95.10       1.71       0.15       2.71       ----

> <Gold.Chemscore.Fitness>
19.5667

> <Gold.Chemscore.DG>
-22.4232

> <Gold.Chemscore.ZeroCoef>
-5.4800

> <Gold.Chemscore.Hbond>
3.0538

> <Gold.Chemscore.Metal>
0.0000

> <Gold.Chemscore.Lipo>
95.1013

> <Gold.Chemscore.Internal_Hbond>
0.0000

> <Gold.Chemscore.DEClash>
0.1495

> <Gold.Chemscore.DEInternal>
2.7071

> <Gold.Chemscore.Rot>
1.7123

> <Gold.Chemscore.Internal.Correction>
   9.000000E+99

> <Gold.Chemscore.Hbonds>
donor molecule, donor type, donor heavy atom, donor atom, acceptor molecule, acceptor atom, score
      P1  H  7997  8009       L1    10  0.78
      P1  H 10752 10763       L1    16  0.93

> <Gold.Chemscore.Hbond.Weighted>
-10.1998

> <Gold.Chemscore.Metal.Weighted>
-0.0000

> <Gold.Chemscore.Lipo.Weighted>
-11.1269

> <Gold.Chemscore.Internal_Hbond.Weighted>
0.0000

> <Gold.Chemscore.DEClash.Weighted>
0.1495

> <Gold.Chemscore.DEInternal.Weighted>
2.7071

> <Gold.Chemscore.Rot.Weighted>
4.3835

> <Gold.Chemscore.Internal.Correction.Weighted>
   9.000000E+99

> <Gold.Protein.RotatedTorsions>
[ 6907 6896 6895 6894 ] final -120.24 input  -60.11 | X-H torsion
[ 7974 7965 7964 7962 ] final -152.21 input  175.53 | X-H torsion
[ 8008 7997 7996 7995 ] final  166.66 input   59.86 | X-H torsion
[ 10167 10162 10161 10158 ] final   11.71 input  -65.29 | X-H torsion
[ 10718 10713 10712 10709 ] final  -26.96 input   66.30 | X-H torsion
[ 10763 10752 10751 10750 ] final  100.29 input  -60.55 | X-H torsion
[ 11005 11000 10999 10996 ] final   94.35 input  -57.11 | X-H torsion

> <Gold.Protein.ActiveResidues>
 VAL166  LYS551  ARG553  GLY616  TRP617  ASP618  TYR619  PRO620  LYS621  CYS622 
 ASP623  PHE694  ASN695  SER759  ASP760  ASP761  ALA762  ILE779  LEU786  VAL792 
 PHE793  MET794  SER795  GLU796  ALA797  LYS798  CYS799  TRP800  GLU811  SER814 

> <Gold.Protein.RotatedAtoms>
  150.8376  133.7989  159.3073 H   0  0  0  0  0  0  0  0  0  0  0  0  # atno 6907 bound_to 6896
  151.5700  135.1061  160.0002 H   0  0  0  0  0  0  0  0  0  0  0  0  # atno 6908 bound_to 6896
  152.4445  133.7469  159.6728 H   0  0  0  0  0  0  0  0  0  0  0  0  # atno 6909 bound_to 6896
  144.7807  140.4693  143.5841 H   0  0  0  0  0  0  0  0  0  0  0  0  # atno 7974 bound_to 7965
  156.1699  140.1637  156.8465 H   0  0  0  0  0  0  0  0  0  0  0  0  # atno 8008 bound_to 7997
  154.5246  140.0770  156.8269 H   0  0  0  0  0  0  0  0  0  0  0  0  # atno 8009 bound_to 7997
  155.3533  140.3391  155.4242 H   0  0  0  0  0  0  0  0  0  0  0  0  # atno 8010 bound_to 7997
  140.6115  143.8399  150.7070 H   0  0  0  0  0  0  0  0  0  0  0  0  # atno 10167 bound_to 10162
  156.4443  130.4471  149.7031 H   0  0  0  0  0  0  0  0  0  0  0  0  # atno 10718 bound_to 10713
  153.3121  135.4084  155.1344 H   0  0  0  0  0  0  0  0  0  0  0  0  # atno 10763 bound_to 10752
  154.8578  135.3567  154.5710 H   0  0  0  0  0  0  0  0  0  0  0  0  # atno 10764 bound_to 10752
  153.6139  135.7067  153.5395 H   0  0  0  0  0  0  0  0  0  0  0  0  # atno 10765 bound_to 10752
  139.8799  134.8840  156.3851 H   0  0  0  0  0  0  0  0  0  0  0  0  # atno 11005 bound_to 11000
  145.6059  139.1508  143.3103 LP  0  0  0  0  0  0  0  0  0  0  0  0  # atno 17320 bound_to 7965
  146.2013  140.6178  142.9101 LP  0  0  0  0  0  0  0  0  0  0  0  0  # atno 17321 bound_to 7965
  140.1968  143.3992  152.1822 LP  0  0  0  0  0  0  0  0  0  0  0  0  # atno 17342 bound_to 10162
  139.5365  144.7214  151.4877 LP  0  0  0  0  0  0  0  0  0  0  0  0  # atno 17343 bound_to 10162
  156.3883  130.7614  151.2613 LP  0  0  0  0  0  0  0  0  0  0  0  0  # atno 17370 bound_to 10713
  157.7505  131.0275  150.4009 LP  0  0  0  0  0  0  0  0  0  0  0  0  # atno 17371 bound_to 10713
  140.9372  133.7539  156.0100 LP  0  0  0  0  0  0  0  0  0  0  0  0  # atno 17394 bound_to 11000
  140.8262  134.3232  157.5365 LP  0  0  0  0  0  0  0  0  0  0  0  0  # atno 17395 bound_to 11000

$$$$
