AV-unprocessed.smi:221|AV-procd|sdf|1699|dock5
  -GOLD-   2262020153D 1   1.00000     0.00000
 Structure written by MMmdl.
 50 53  0  0  0  0  0  0  0  0  1 V2000
  148.4785  144.9844  159.8196 N   0  0  0  0  0  0  0  0  0  0  0  0
  149.6066  144.2888  159.9815 C   0  0  0  0  0  0  0  0  0  0  0  0
  149.8450  143.6666  161.0155 O   0  0  0  0  0  0  0  0  0  0  0  0
  150.6017  144.3050  158.8057 C   0  0  1  0  0  0  0  0  0  0  0  0
  151.9774  144.8559  159.2240 C   0  0  0  0  0  0  0  0  0  0  0  0
  152.7888  143.6247  159.6287 C   0  0  1  0  0  0  0  0  0  0  0  0
  152.5338  143.3061  160.8986 F   0  0  0  0  0  0  0  0  0  0  0  0
  152.2551  142.5310  158.7026 C   0  0  0  0  0  0  0  0  0  0  0  0
  150.9141  142.9614  158.3165 N   0  0  0  0  0  0  0  0  0  0  0  0
  150.1115  142.2086  157.5129 C   0  0  0  0  0  0  0  0  0  0  0  0
  148.7686  142.2805  157.7153 N   0  0  0  0  0  0  0  0  0  0  0  0
  147.9225  141.5733  156.9630 C   0  0  0  0  0  0  0  0  0  0  0  0
  148.1979  140.7365  155.9633 N   0  0  0  0  0  0  0  0  0  0  0  0
  149.5414  140.6507  155.7502 C   0  0  0  0  0  0  0  0  0  0  0  0
  150.5613  141.3413  156.4697 C   0  0  0  0  0  0  0  0  0  0  0  0
  151.8049  140.9826  155.9574 N   0  0  0  0  0  0  0  0  0  0  0  0
  151.5373  140.1388  154.9999 C   0  0  0  0  0  0  0  0  0  0  0  0
  150.2015  139.8788  154.8102 N   0  0  0  0  0  0  0  0  0  0  0  0
  149.6266  138.9828  153.8226 C   0  0  0  0  0  0  0  0  0  0  0  0
  148.0751  138.9757  153.8048 C   0  0  1  0  0  0  0  0  0  0  0  0
  147.4862  140.1833  153.0308 C   0  0  0  0  0  0  0  0  0  0  0  0
  146.2414  140.5912  153.5602 O   0  0  0  0  0  0  0  0  0  0  0  0
  147.5485  137.6359  153.2274 C   0  0  1  0  0  0  0  0  0  0  0  0
  147.9579  136.3962  154.0056 C   0  0  0  0  0  0  0  0  0  0  0  0
  146.9506  135.3644  153.5165 C   0  0  0  0  0  0  0  0  0  0  0  0
  145.7422  136.0884  153.3310 O   0  0  0  0  0  0  0  0  0  0  0  0
  146.0204  137.4830  153.2398 C   0  0  0  0  0  0  0  0  0  0  0  0
  150.2078  144.9266  158.0013 H   0  0  0  0  0  0  0  0  0  0  0  0
  153.8658  143.7711  159.5418 H   0  0  0  0  0  0  0  0  0  0  0  0
  147.7915  145.0021  160.5593 H   0  0  0  0  0  0  0  0  0  0  0  0
  148.3138  145.4857  158.9589 H   0  0  0  0  0  0  0  0  0  0  0  0
  152.4500  145.3286  158.3620 H   0  0  0  0  0  0  0  0  0  0  0  0
  151.9300  145.6061  160.0149 H   0  0  0  0  0  0  0  0  0  0  0  0
  152.8737  142.4588  157.8070 H   0  0  0  0  0  0  0  0  0  0  0  0
  152.2506  141.5572  159.1945 H   0  0  0  0  0  0  0  0  0  0  0  0
  146.8751  141.6962  157.1957 H   0  0  0  0  0  0  0  0  0  0  0  0
  152.3114  139.6750  154.4061 H   0  0  0  0  0  0  0  0  0  0  0  0
  150.0106  139.2575  152.8395 H   0  0  0  0  0  0  0  0  0  0  0  0
  150.0127  137.9854  154.0328 H   0  0  0  0  0  0  0  0  0  0  0  0
  147.7272  139.0386  154.8373 H   0  0  0  0  0  0  0  0  0  0  0  0
  148.1812  141.0235  153.0365 H   0  0  0  0  0  0  0  0  0  0  0  0
  147.3054  139.9368  151.9857 H   0  0  0  0  0  0  0  0  0  0  0  0
  145.5572  140.0990  153.1323 H   0  0  0  0  0  0  0  0  0  0  0  0
  147.8990  137.5234  152.1998 H   0  0  0  0  0  0  0  0  0  0  0  0
  148.9869  136.0880  153.8190 H   0  0  0  0  0  0  0  0  0  0  0  0
  147.8368  136.5588  155.0777 H   0  0  0  0  0  0  0  0  0  0  0  0
  147.2636  134.9530  152.5562 H   0  0  0  0  0  0  0  0  0  0  0  0
  146.8203  134.5383  154.2157 H   0  0  0  0  0  0  0  0  0  0  0  0
  145.5854  137.9725  154.1121 H   0  0  0  0  0  0  0  0  0  0  0  0
  145.5556  137.9077  152.3497 H   0  0  0  0  0  0  0  0  0  0  0  0
  1  2  1  0  0  0  0
  1 30  1  0  0  0  0
  1 31  1  0  0  0  0
  2  3  2  0  0  0  0
  2  4  1  0  0  0  0
  4 28  1  0  0  0  0
  4  9  1  0  0  0  0
  4  5  1  0  0  0  0
  5  6  1  0  0  0  0
  5 32  1  0  0  0  0
  5 33  1  0  0  0  0
  6 29  1  0  0  0  0
  6  7  1  0  0  0  0
  6  8  1  0  0  0  0
  8  9  1  0  0  0  0
  8 34  1  0  0  0  0
  8 35  1  0  0  0  0
  9 10  1  0  0  0  0
 10 15  1  0  0  0  0
 10 11  2  0  0  0  0
 11 12  1  0  0  0  0
 12 13  2  0  0  0  0
 12 36  1  0  0  0  0
 13 14  1  0  0  0  0
 14 18  1  0  0  0  0
 14 15  2  0  0  0  0
 15 16  1  0  0  0  0
 16 17  2  0  0  0  0
 17 18  1  0  0  0  0
 17 37  1  0  0  0  0
 18 19  1  0  0  0  0
 19 20  1  0  0  0  0
 19 38  1  0  0  0  0
 19 39  1  0  0  0  0
 20 21  1  0  0  0  0
 20 23  1  0  0  0  0
 20 40  1  0  0  0  0
 21 22  1  0  0  0  0
 21 41  1  0  0  0  0
 21 42  1  0  0  0  0
 22 43  1  0  0  0  0
 23 27  1  0  0  0  0
 23 24  1  0  0  0  0
 23 44  1  0  0  0  0
 24 25  1  0  0  0  0
 24 45  1  0  0  0  0
 24 46  1  0  0  0  0
 25 26  1  0  0  0  0
 25 47  1  0  0  0  0
 25 48  1  0  0  0  0
 26 27  1  0  0  0  0
 27 49  1  0  0  0  0
 27 50  1  0  0  0  0
M  END
> <s_m_source_file>
AV-unprocessed.smi

> <i_m_source_file_index>
221

> <i_lp_mmshare_version>
43012

> <i_f3d_flags>
0

> <s_epik_input>
W05IMl1DKD1PKVtDQEBIXTFbQ0gyXVtDQEBIXShGKVtDSDJdTjFjKG5bY0hdbjIpYyhjMjMpbltjSF1uM1tDSDJdW0NASF0oW0NIMl1bT0hdKVtDQEBIXTRbQ0gyXVtDSDJdT1tDSDJdNA==

> <s_epik_cmdline>
J2VwaWtfcHl0aG9uJywgJy1waCcsICc3LjAnLCAnLXRuJywgJzgnLCAnLW1hJywgJzIwMCcsICctbWV0YWxfYmluZGluZycsICctaW1hZScsICc8aW5maWxlLm1hZT4nLCAnLW9tYWUnLCAnPG91dGZpbGUubWFlPic=

> <r_lp_tautomer_probability>
1

> <r_epik_Ionization_Penalty>
0.000818822

> <r_epik_Ionization_Penalty_Charging>
0

> <r_epik_Ionization_Penalty_Neutral>
0.000818822

> <r_epik_State_Penalty>
0.000440551

> <r_epik_Charging_Adjusted_Penalty>
0.000440551

> <i_epik_Tot_Q>
0

> <i_epik_Tot_abs_Q>
0

> <r_epik_Metal_State_Penalty>
-0

> <b_epik_Metal_Only>
0

> <s_lp_Force_Field>
OPLS_2005

> <r_lp_Energy>
47.9731

> <b_lp_Chiralities_Consistent>
1

> <s_lp_Variant>
AV-unprocessed.smi:221-14

> <Gold.Version>
5.8.1

> <Gold.Id.Protein>
6NUR|6NUR_protein|mol2

> <Gold.PLP.Fitness>
45.7109

> <Gold.PLP.PLP>
-41.5157

> <Gold.PLP.part.hbond>
-3.0000

> <Gold.PLP.part.metal>
0.0000

> <Gold.PLP.part.buried>
-6.0372

> <Gold.PLP.part.nonpolar>
-35.2211

> <Gold.PLP.part.repulsive>
1.9659

> <Gold.PLP.ligand.clash>
0.0000

> <Gold.PLP.ligand.torsion>
1.0990

> <Gold.PLP.Chemscore.Hbond>
2.1030

> <Gold.PLP.Chemscore.CHOScore>
0.0000

> <Gold.PLP.Chemscore.Metal>
0.0000

> <Gold.Chemscore.Hbonds>
donor molecule, donor type, donor heavy atom, donor atom, acceptor molecule, acceptor atom, score
      L1  H     1    31       P1  8029  1.00
      L1  H    22    43       P1 10175  0.72
      P1  H  6933  6944       L1     3  0.06

> <Gold.PLP.Chemscore.Internal.Correction>
0.0843

> <Gold.Rescore>
     Score         DG    S(hbond)    S(metal)    S(lipo)     H(rot)  DE(clash)    DE(int)     intcor
      8.88     -13.04       2.01        0.00      79.73       3.31       0.19       3.97       ----

> <Gold.Chemscore.Fitness>
8.8838

> <Gold.Chemscore.DG>
-13.0419

> <Gold.Chemscore.ZeroCoef>
-5.4800

> <Gold.Chemscore.Hbond>
2.0072

> <Gold.Chemscore.Metal>
0.0000

> <Gold.Chemscore.Lipo>
79.7327

> <Gold.Chemscore.Internal_Hbond>
0.0000

> <Gold.Chemscore.DEClash>
0.1912

> <Gold.Chemscore.DEInternal>
3.9669

> <Gold.Chemscore.Rot>
3.3089

> <Gold.Chemscore.Internal.Correction>
   9.000000E+99

> <Gold.Chemscore.Hbonds>
donor molecule, donor type, donor heavy atom, donor atom, acceptor molecule, acceptor atom, score
      L1  H     1    31       P1  8029  1.00
      L1  H    22    43       P1 10175  0.68
      P1  H  6933  6944       L1     3  0.08

> <Gold.Chemscore.Hbond.Weighted>
-6.7041

> <Gold.Chemscore.Metal.Weighted>
-0.0000

> <Gold.Chemscore.Lipo.Weighted>
-9.3287

> <Gold.Chemscore.Internal_Hbond.Weighted>
0.0000

> <Gold.Chemscore.DEClash.Weighted>
0.1912

> <Gold.Chemscore.DEInternal.Weighted>
3.9669

> <Gold.Chemscore.Rot.Weighted>
8.4709

> <Gold.Chemscore.Internal.Correction.Weighted>
   9.000000E+99

> <Gold.Protein.RotatedTorsions>
[ 6907 6896 6895 6894 ] final -144.25 input  -60.11 | X-H torsion
[ 7974 7965 7964 7962 ] final  137.90 input  175.53 | X-H torsion
[ 8008 7997 7996 7995 ] final  -28.32 input   59.86 | X-H torsion
[ 10167 10162 10161 10158 ] final  101.27 input  -65.29 | X-H torsion
[ 10718 10713 10712 10709 ] final   87.14 input   66.30 | X-H torsion
[ 10763 10752 10751 10750 ] final  -83.93 input  -60.55 | X-H torsion
[ 11005 11000 10999 10996 ] final  134.53 input  -57.11 | X-H torsion

> <Gold.Protein.ActiveResidues>
 VAL166  LYS551  ARG553  GLY616  TRP617  ASP618  TYR619  PRO620  LYS621  CYS622 
 ASP623  PHE694  ASN695  SER759  ASP760  ASP761  ALA762  ILE779  LEU786  VAL792 
 PHE793  MET794  SER795  GLU796  ALA797  LYS798  CYS799  TRP800  GLU811  SER814 

> <Gold.Protein.RotatedAtoms>
  151.1114  133.5170  159.2605 H   0  0  0  0  0  0  0  0  0  0  0  0  # atno 6907 bound_to 6896
  151.1962  135.0423  159.8863 H   0  0  0  0  0  0  0  0  0  0  0  0  # atno 6908 bound_to 6896
  152.5450  134.0948  159.8346 H   0  0  0  0  0  0  0  0  0  0  0  0  # atno 6909 bound_to 6896
  144.9423  139.4916  143.5566 H   0  0  0  0  0  0  0  0  0  0  0  0  # atno 7974 bound_to 7965
  154.4337  140.1848  156.1071 H   0  0  0  0  0  0  0  0  0  0  0  0  # atno 8008 bound_to 7997
  156.0247  140.3337  155.7050 H   0  0  0  0  0  0  0  0  0  0  0  0  # atno 8009 bound_to 7997
  155.5926  140.0632  157.2745 H   0  0  0  0  0  0  0  0  0  0  0  0  # atno 8010 bound_to 7997
  139.7453  144.7000  151.0513 H   0  0  0  0  0  0  0  0  0  0  0  0  # atno 10167 bound_to 10162
  157.6937  131.0244  150.3079 H   0  0  0  0  0  0  0  0  0  0  0  0  # atno 10718 bound_to 10713
  154.5935  135.5539  153.7302 H   0  0  0  0  0  0  0  0  0  0  0  0  # atno 10763 bound_to 10752
  153.0126  135.6349  154.1815 H   0  0  0  0  0  0  0  0  0  0  0  0  # atno 10764 bound_to 10752
  154.1756  135.2890  155.3048 H   0  0  0  0  0  0  0  0  0  0  0  0  # atno 10765 bound_to 10752
  139.9921  134.9511  156.9880 H   0  0  0  0  0  0  0  0  0  0  0  0  # atno 11005 bound_to 11000
  146.3290  139.8451  142.8883 LP  0  0  0  0  0  0  0  0  0  0  0  0  # atno 17320 bound_to 7965
  145.2972  141.0184  143.3629 LP  0  0  0  0  0  0  0  0  0  0  0  0  # atno 17321 bound_to 7965
  140.7791  143.4874  150.9938 LP  0  0  0  0  0  0  0  0  0  0  0  0  # atno 17342 bound_to 10162
  139.8562  143.7373  152.3176 LP  0  0  0  0  0  0  0  0  0  0  0  0  # atno 17343 bound_to 10162
  156.3585  130.3843  149.7271 LP  0  0  0  0  0  0  0  0  0  0  0  0  # atno 17370 bound_to 10713
  156.4725  130.8003  151.3020 LP  0  0  0  0  0  0  0  0  0  0  0  0  # atno 17371 bound_to 10713
  140.4888  134.1214  155.7229 LP  0  0  0  0  0  0  0  0  0  0  0  0  # atno 17394 bound_to 11000
  141.1574  133.8856  157.1940 LP  0  0  0  0  0  0  0  0  0  0  0  0  # atno 17395 bound_to 11000

$$$$
