AV-unprocessed.smi:142|AV-procd|sdf|1190|dock10
  -GOLD-   2262018343D 1   1.00000     0.00000
 Structure written by MMmdl.
 52 55  0  0  0  0  0  0  0  0  1 V2000
  152.7670  137.4221  158.6559 C   0  0  0  0  0  0  0  0  0  0  0  0
  151.7334  138.4272  158.1304 C   0  0  1  0  0  0  0  0  0  0  0  0
  150.3913  137.9647  158.4766 N   0  0  0  0  0  0  0  0  0  0  0  0
  149.9458  136.7082  158.3266 C   0  0  0  0  0  0  0  0  0  0  0  0
  150.6551  135.7830  157.9289 O   0  0  0  0  0  0  0  0  0  0  0  0
  148.4716  136.4682  158.6811 C   0  0  0  0  0  0  0  0  0  0  0  0
  148.3049  135.4977  159.7843 N   0  0  0  0  0  0  0  0  0  0  0  0
  148.2142  135.9764  161.1151 C   0  0  0  0  0  0  0  0  0  0  0  0
  148.2635  137.1814  161.3666 O   0  0  0  0  0  0  0  0  0  0  0  0
  148.0648  134.9528  162.1434 C   0  0  0  0  0  0  0  0  0  0  0  0
  147.9508  135.3159  163.4322 F   0  0  0  0  0  0  0  0  0  0  0  0
  148.0354  133.6432  161.8215 C   0  0  0  0  0  0  0  0  0  0  0  0
  148.1457  133.1892  160.5197 N   0  0  0  0  0  0  0  0  0  0  0  0
  148.1144  131.7122  160.1925 C   0  0  2  0  0  0  0  0  0  0  0  0
  147.9764  130.8880  161.4773 C   0  0  0  0  0  0  0  0  0  0  0  0
  149.4226  130.5979  161.8152 C   0  0  0  0  0  0  0  0  0  0  0  0
  150.0359  130.4408  160.4282 C   0  0  0  0  0  0  0  0  0  0  0  0
  149.3241  131.3490  159.5908 O   0  0  0  0  0  0  0  0  0  0  0  0
  148.2757  134.1186  159.4653 C   0  0  0  0  0  0  0  0  0  0  0  0
  148.3607  133.7365  158.2956 O   0  0  0  0  0  0  0  0  0  0  0  0
  152.0292  139.8342  158.6428 C   0  0  0  0  0  0  0  0  0  0  0  0
  152.9512  140.0534  159.6920 C   0  0  0  0  0  0  0  0  0  0  0  0
  153.2097  141.3580  160.1534 C   0  0  0  0  0  0  0  0  0  0  0  0
  152.5531  142.4584  159.5670 C   0  0  0  0  0  0  0  0  0  0  0  0
  152.8072  143.7675  160.0258 C   0  0  0  0  0  0  0  0  0  0  0  0
  152.1481  144.8627  159.4340 C   0  0  0  0  0  0  0  0  0  0  0  0
  151.2342  144.6532  158.3831 C   0  0  0  0  0  0  0  0  0  0  0  0
  150.9766  143.3478  157.9208 C   0  0  0  0  0  0  0  0  0  0  0  0
  151.6335  142.2473  158.5097 C   0  0  0  0  0  0  0  0  0  0  0  0
  151.3786  140.9384  158.0519 C   0  0  0  0  0  0  0  0  0  0  0  0
  153.7760  137.7064  158.3563 H   0  0  0  0  0  0  0  0  0  0  0  0
  152.5782  136.4216  158.2651 H   0  0  0  0  0  0  0  0  0  0  0  0
  152.7476  137.3645  159.7449 H   0  0  0  0  0  0  0  0  0  0  0  0
  151.8099  138.4404  157.0413 H   0  0  0  0  0  0  0  0  0  0  0  0
  149.7430  138.6604  158.8161 H   0  0  0  0  0  0  0  0  0  0  0  0
  148.0174  137.4327  158.9117 H   0  0  0  0  0  0  0  0  0  0  0  0
  147.9327  136.1259  157.7956 H   0  0  0  0  0  0  0  0  0  0  0  0
  147.9169  132.9318  162.6250 H   0  0  0  0  0  0  0  0  0  0  0  0
  147.2953  131.5751  159.4845 H   0  0  0  0  0  0  0  0  0  0  0  0
  147.4331  131.4197  162.2592 H   0  0  0  0  0  0  0  0  0  0  0  0
  147.4459  129.9642  161.2428 H   0  0  0  0  0  0  0  0  0  0  0  0
  149.8677  131.4484  162.3332 H   0  0  0  0  0  0  0  0  0  0  0  0
  149.5485  129.7132  162.4397 H   0  0  0  0  0  0  0  0  0  0  0  0
  151.1073  130.6422  160.4172 H   0  0  0  0  0  0  0  0  0  0  0  0
  149.8767  129.4276  160.0573 H   0  0  0  0  0  0  0  0  0  0  0  0
  153.4665  139.2228  160.1516 H   0  0  0  0  0  0  0  0  0  0  0  0
  153.9139  141.5084  160.9587 H   0  0  0  0  0  0  0  0  0  0  0  0
  153.5066  143.9373  160.8315 H   0  0  0  0  0  0  0  0  0  0  0  0
  152.3438  145.8644  159.7871 H   0  0  0  0  0  0  0  0  0  0  0  0
  150.7296  145.4944  157.9307 H   0  0  0  0  0  0  0  0  0  0  0  0
  150.2732  143.1961  157.1149 H   0  0  0  0  0  0  0  0  0  0  0  0
  150.6770  140.7783  157.2457 H   0  0  0  0  0  0  0  0  0  0  0  0
  1  2  1  0  0  0  0
  1 31  1  0  0  0  0
  1 32  1  0  0  0  0
  1 33  1  0  0  0  0
  2  3  1  0  0  0  0
  2 21  1  0  0  0  0
  2 34  1  0  0  0  0
  3  4  1  0  0  0  0
  3 35  1  0  0  0  0
  4  5  2  0  0  0  0
  4  6  1  0  0  0  0
  6  7  1  0  0  0  0
  6 36  1  0  0  0  0
  6 37  1  0  0  0  0
  7 19  1  0  0  0  0
  7  8  1  0  0  0  0
  8  9  2  0  0  0  0
  8 10  1  0  0  0  0
 10 11  1  0  0  0  0
 10 12  2  0  0  0  0
 12 13  1  0  0  0  0
 12 38  1  0  0  0  0
 13 14  1  0  0  0  0
 13 19  1  0  0  0  0
 14 18  1  0  0  0  0
 14 15  1  0  0  0  0
 14 39  1  0  0  0  0
 15 16  1  0  0  0  0
 15 40  1  0  0  0  0
 15 41  1  0  0  0  0
 16 17  1  0  0  0  0
 16 42  1  0  0  0  0
 16 43  1  0  0  0  0
 17 18  1  0  0  0  0
 17 44  1  0  0  0  0
 17 45  1  0  0  0  0
 19 20  2  0  0  0  0
 21 30  1  0  0  0  0
 21 22  2  0  0  0  0
 22 23  1  0  0  0  0
 22 46  1  0  0  0  0
 23 24  2  0  0  0  0
 23 47  1  0  0  0  0
 24 29  1  0  0  0  0
 24 25  1  0  0  0  0
 25 26  2  0  0  0  0
 25 48  1  0  0  0  0
 26 27  1  0  0  0  0
 26 49  1  0  0  0  0
 27 28  2  0  0  0  0
 27 50  1  0  0  0  0
 28 29  1  0  0  0  0
 28 51  1  0  0  0  0
 29 30  2  0  0  0  0
 30 52  1  0  0  0  0
M  END
> <s_m_source_file>
AV-unprocessed.smi

> <i_m_source_file_index>
142

> <i_lp_mmshare_version>
43012

> <i_f3d_flags>
0

> <s_epik_input>
W2NIXTFbY0hdW2NIXVtjSF1jKGMxMilbY0hdYyhbY0hdW2NIXTIpW0NASF0oW0NIM10pW05IXUMoPU8pW0NIMl1uM2MoPU8pYyhGKVtjSF1uKGMzPU8pW0NAQEhdNFtDSDJdW0NIMl1bQ0gyXU80

> <s_epik_cmdline>
J2VwaWtfcHl0aG9uJywgJy1waCcsICc3LjAnLCAnLXRuJywgJzgnLCAnLW1hJywgJzIwMCcsICctbWV0YWxfYmluZGluZycsICctaW1hZScsICc8aW5maWxlLm1hZT4nLCAnLW9tYWUnLCAnPG91dGZpbGUubWFlPic=

> <r_lp_tautomer_probability>
1

> <r_epik_Ionization_Penalty>
3.35688e-08

> <r_epik_Ionization_Penalty_Charging>
3.59856e-09

> <r_epik_Ionization_Penalty_Neutral>
2.99702e-08

> <r_epik_State_Penalty>
-0

> <r_epik_Charging_Adjusted_Penalty>
3.59856e-09

> <i_epik_Tot_Q>
0

> <i_epik_Tot_abs_Q>
0

> <r_epik_Metal_State_Penalty>
-0

> <b_epik_Metal_Only>
0

> <s_epik_Chemistry_Notes>
This compound contains an acetal/aminal-like group ( X-CH(R)-Y where X, Y are N, S, or O) that may be acid/base labile, releasing an aldehyde.

> <s_lp_Force_Field>
OPLS_2005

> <r_lp_Energy>
30.4955

> <b_lp_Chiralities_Consistent>
1

> <s_lp_Variant>
AV-unprocessed.smi:142-2

> <Gold.Version>
5.8.1

> <Gold.Id.Protein>
6NUR|6NUR_protein|mol2

> <Gold.PLP.Fitness>
63.4757

> <Gold.PLP.PLP>
-58.4027

> <Gold.PLP.part.hbond>
-2.8114

> <Gold.PLP.part.metal>
0.0000

> <Gold.PLP.part.buried>
-5.6852

> <Gold.PLP.part.nonpolar>
-50.7106

> <Gold.PLP.part.repulsive>
0.1263

> <Gold.PLP.ligand.clash>
0.0000

> <Gold.PLP.ligand.torsion>
0.7614

> <Gold.PLP.Chemscore.Hbond>
2.1760

> <Gold.PLP.Chemscore.CHOScore>
0.0000

> <Gold.PLP.Chemscore.Metal>
0.0000

> <Gold.Chemscore.Hbonds>
donor molecule, donor type, donor heavy atom, donor atom, acceptor molecule, acceptor atom, score
      P1  H  6896  6908       L1     5  0.52
      P1  H  6931  6943       L1     9  0.73
      P1  H  6934  6947       L1     9  0.36

> <Gold.PLP.Chemscore.Internal.Correction>
0.0679

> <Gold.Rescore>
     Score         DG    S(hbond)    S(metal)    S(lipo)     H(rot)  DE(clash)    DE(int)     intcor
     19.94     -23.26       2.08        0.00     136.81       2.02       0.20       3.12       ----

> <Gold.Chemscore.Fitness>
19.9369

> <Gold.Chemscore.DG>
-23.2577

> <Gold.Chemscore.ZeroCoef>
-5.4800

> <Gold.Chemscore.Hbond>
2.0765

> <Gold.Chemscore.Metal>
0.0000

> <Gold.Chemscore.Lipo>
136.8106

> <Gold.Chemscore.Internal_Hbond>
0.0000

> <Gold.Chemscore.DEClash>
0.1971

> <Gold.Chemscore.DEInternal>
3.1237

> <Gold.Chemscore.Rot>
2.0175

> <Gold.Chemscore.Internal.Correction>
   9.000000E+99

> <Gold.Chemscore.Hbonds>
donor molecule, donor type, donor heavy atom, donor atom, acceptor molecule, acceptor atom, score
      P1  H  6896  6908       L1     5  0.10
      P1  H  6931  6943       L1     9  0.72
      P1  H  6934  6947       L1     9  0.36

> <Gold.Chemscore.Hbond.Weighted>
-6.9357

> <Gold.Chemscore.Metal.Weighted>
-0.0000

> <Gold.Chemscore.Lipo.Weighted>
-16.0068

> <Gold.Chemscore.Internal_Hbond.Weighted>
0.0000

> <Gold.Chemscore.DEClash.Weighted>
0.1971

> <Gold.Chemscore.DEInternal.Weighted>
3.1237

> <Gold.Chemscore.Rot.Weighted>
5.1648

> <Gold.Chemscore.Internal.Correction.Weighted>
   9.000000E+99

> <Gold.Protein.RotatedTorsions>
[ 6907 6896 6895 6894 ] final -171.44 input  -60.11 | X-H torsion
[ 7974 7965 7964 7962 ] final   65.17 input  175.53 | X-H torsion
[ 8008 7997 7996 7995 ] final   26.53 input   59.86 | X-H torsion
[ 10167 10162 10161 10158 ] final -178.32 input  -65.29 | X-H torsion
[ 10718 10713 10712 10709 ] final   20.89 input   66.30 | X-H torsion
[ 10763 10752 10751 10750 ] final  -51.01 input  -60.55 | X-H torsion
[ 11005 11000 10999 10996 ] final -110.94 input  -57.11 | X-H torsion

> <Gold.Protein.ActiveResidues>
 VAL166  LYS551  ARG553  GLY616  TRP617  ASP618  TYR619  PRO620  LYS621  CYS622 
 ASP623  PHE694  ASN695  SER759  ASP760  ASP761  ALA762  ILE779  LEU786  VAL792 
 PHE793  MET794  SER795  GLU796  ALA797  LYS798  CYS799  TRP800  GLU811  SER814 

> <Gold.Protein.RotatedAtoms>
  151.5238  133.3461  159.2905 H   0  0  0  0  0  0  0  0  0  0  0  0  # atno 6907 bound_to 6896
  150.8636  134.7996  159.7112 H   0  0  0  0  0  0  0  0  0  0  0  0  # atno 6908 bound_to 6896
  152.4647  134.5111  159.9806 H   0  0  0  0  0  0  0  0  0  0  0  0  # atno 6909 bound_to 6896
  145.8416  139.3199  143.0928 H   0  0  0  0  0  0  0  0  0  0  0  0  # atno 7974 bound_to 7965
  155.0287  140.3156  155.4766 H   0  0  0  0  0  0  0  0  0  0  0  0  # atno 8008 bound_to 7997
  156.2878  140.2184  156.5350 H   0  0  0  0  0  0  0  0  0  0  0  0  # atno 8009 bound_to 7997
  154.7389  140.0475  157.0781 H   0  0  0  0  0  0  0  0  0  0  0  0  # atno 8010 bound_to 7997
  139.5438  144.2291  152.0948 H   0  0  0  0  0  0  0  0  0  0  0  0  # atno 10167 bound_to 10162
  157.1308  130.6590  149.5951 H   0  0  0  0  0  0  0  0  0  0  0  0  # atno 10718 bound_to 10713
  154.1197  135.6536  153.4900 H   0  0  0  0  0  0  0  0  0  0  0  0  # atno 10763 bound_to 10752
  153.0229  135.5267  154.7109 H   0  0  0  0  0  0  0  0  0  0  0  0  # atno 10764 bound_to 10752
  154.6313  135.2976  155.0183 H   0  0  0  0  0  0  0  0  0  0  0  0  # atno 10765 bound_to 10752
  141.0763  133.9296  157.2383 H   0  0  0  0  0  0  0  0  0  0  0  0  # atno 11005 bound_to 11000
  145.9459  140.8945  143.0284 LP  0  0  0  0  0  0  0  0  0  0  0  0  # atno 17320 bound_to 7965
  144.6733  140.1613  143.7422 LP  0  0  0  0  0  0  0  0  0  0  0  0  # atno 17321 bound_to 7965
  140.1774  144.4878  150.6547 LP  0  0  0  0  0  0  0  0  0  0  0  0  # atno 17342 bound_to 10162
  140.6678  143.2274  151.5699 LP  0  0  0  0  0  0  0  0  0  0  0  0  # atno 17343 bound_to 10162
  155.9808  130.4812  150.6795 LP  0  0  0  0  0  0  0  0  0  0  0  0  # atno 17370 bound_to 10713
  157.4394  131.0859  151.0958 LP  0  0  0  0  0  0  0  0  0  0  0  0  # atno 17371 bound_to 10713
  139.9575  135.0162  156.9169 LP  0  0  0  0  0  0  0  0  0  0  0  0  # atno 17394 bound_to 11000
  140.5566  134.0575  155.7385 LP  0  0  0  0  0  0  0  0  0  0  0  0  # atno 17395 bound_to 11000

$$$$
