AV-unprocessed.smi:136|AV-procd|sdf|1171|dock7
  -GOLD-   2262018313D 1   1.00000     0.00000
 Structure written by MMmdl.
 54 58  0  0  0  0  0  0  0  0  1 V2000
  148.5445  134.5568  157.5411 O   0  0  0  0  0  0  0  0  0  0  0  0
  148.6302  135.7210  157.1454 C   0  0  0  0  0  0  0  0  0  0  0  0
  148.2110  136.0733  155.7022 C   0  0  0  0  0  0  0  0  0  0  0  0
  147.8958  134.8860  154.8770 N   0  0  0  0  0  0  0  0  0  0  0  0
  148.8854  133.8825  154.7282 C   0  0  0  0  0  0  0  0  0  0  0  0
  149.9805  133.9782  155.2841 O   0  0  0  0  0  0  0  0  0  0  0  0
  148.5183  132.7573  153.8759 C   0  0  0  0  0  0  0  0  0  0  0  0
  149.3950  131.7578  153.6796 F   0  0  0  0  0  0  0  0  0  0  0  0
  147.3107  132.7032  153.2773 C   0  0  0  0  0  0  0  0  0  0  0  0
  146.3554  133.6925  153.4285 N   0  0  0  0  0  0  0  0  0  0  0  0
  145.0075  133.6204  152.7434 C   0  0  2  0  0  0  0  0  0  0  0  0
  144.9016  132.3407  151.8937 C   0  0  0  0  0  0  0  0  0  0  0  0
  144.4209  132.8686  150.5572 C   0  0  0  0  0  0  0  0  0  0  0  0
  145.0281  134.2633  150.5340 C   0  0  0  0  0  0  0  0  0  0  0  0
  144.8562  134.7067  151.8738 O   0  0  0  0  0  0  0  0  0  0  0  0
  146.6367  134.8166  154.2350 C   0  0  0  0  0  0  0  0  0  0  0  0
  145.8033  135.7153  154.3707 O   0  0  0  0  0  0  0  0  0  0  0  0
  149.0927  136.7119  157.9400 N   0  0  0  0  0  0  0  0  0  0  0  0
  149.3126  137.9778  157.5029 N   0  0  0  0  0  0  0  0  0  0  0  0
  149.8489  138.6708  158.4383 C   0  0  0  0  0  0  0  0  0  0  0  0
  150.2161  140.0995  158.3201 C   0  0  0  0  0  0  0  0  0  0  0  0
  150.9480  140.7174  159.3595 C   0  0  0  0  0  0  0  0  0  0  0  0
  151.3038  142.0756  159.2436 C   0  0  0  0  0  0  0  0  0  0  0  0
  150.9306  142.8107  158.1005 C   0  0  0  0  0  0  0  0  0  0  0  0
  151.3712  144.4731  157.9636 Cl  0  0  0  0  0  0  0  0  0  0  0  0
  150.1985  142.1900  157.0682 C   0  0  0  0  0  0  0  0  0  0  0  0
  149.8376  140.8324  157.1724 C   0  0  0  0  0  0  0  0  0  0  0  0
  150.0712  137.9086  159.7010 C   0  0  0  0  0  0  0  0  0  0  0  0
  149.4962  136.5369  159.3407 C   0  0  1  0  0  0  0  0  0  0  0  0
  148.3630  136.1233  160.2334 C   0  0  0  0  0  0  0  0  0  0  0  0
  147.6677  134.9559  160.3869 C   0  0  0  0  0  0  0  0  0  0  0  0
  146.7070  135.1921  161.4087 C   0  0  0  0  0  0  0  0  0  0  0  0
  146.8917  136.4850  161.8082 C   0  0  0  0  0  0  0  0  0  0  0  0
  147.9011  137.0656  161.1054 O   0  0  0  0  0  0  0  0  0  0  0  0
  147.3535  136.7475  155.7364 H   0  0  0  0  0  0  0  0  0  0  0  0
  149.0023  136.6698  155.2459 H   0  0  0  0  0  0  0  0  0  0  0  0
  147.1031  131.8452  152.6568 H   0  0  0  0  0  0  0  0  0  0  0  0
  144.2631  133.6928  153.5384 H   0  0  0  0  0  0  0  0  0  0  0  0
  145.8834  131.8762  151.7873 H   0  0  0  0  0  0  0  0  0  0  0  0
  144.2169  131.6236  152.3473 H   0  0  0  0  0  0  0  0  0  0  0  0
  144.7355  132.2516  149.7151 H   0  0  0  0  0  0  0  0  0  0  0  0
  143.3321  132.9343  150.5480 H   0  0  0  0  0  0  0  0  0  0  0  0
  146.0890  134.2194  150.2845 H   0  0  0  0  0  0  0  0  0  0  0  0
  144.5341  134.9278  149.8251 H   0  0  0  0  0  0  0  0  0  0  0  0
  151.2449  140.1707  160.2429 H   0  0  0  0  0  0  0  0  0  0  0  0
  151.8656  142.5525  160.0332 H   0  0  0  0  0  0  0  0  0  0  0  0
  149.9132  142.7551  156.1930 H   0  0  0  0  0  0  0  0  0  0  0  0
  149.2771  140.3808  156.3675 H   0  0  0  0  0  0  0  0  0  0  0  0
  151.1324  137.8463  159.9446 H   0  0  0  0  0  0  0  0  0  0  0  0
  149.5455  138.3718  160.5373 H   0  0  0  0  0  0  0  0  0  0  0  0
  150.2882  135.7872  159.3860 H   0  0  0  0  0  0  0  0  0  0  0  0
  147.8285  134.0457  159.8286 H   0  0  0  0  0  0  0  0  0  0  0  0
  145.9739  134.5035  161.8021 H   0  0  0  0  0  0  0  0  0  0  0  0
  146.4177  137.1189  162.5429 H   0  0  0  0  0  0  0  0  0  0  0  0
  1  2  2  0  0  0  0
  2  3  1  0  0  0  0
  2 18  1  0  0  0  0
  3  4  1  0  0  0  0
  3 35  1  0  0  0  0
  3 36  1  0  0  0  0
  4 16  1  0  0  0  0
  4  5  1  0  0  0  0
  5  6  2  0  0  0  0
  5  7  1  0  0  0  0
  7  8  1  0  0  0  0
  7  9  2  0  0  0  0
  9 10  1  0  0  0  0
  9 37  1  0  0  0  0
 10 11  1  0  0  0  0
 10 16  1  0  0  0  0
 11 15  1  0  0  0  0
 11 12  1  0  0  0  0
 11 38  1  0  0  0  0
 12 13  1  0  0  0  0
 12 39  1  0  0  0  0
 12 40  1  0  0  0  0
 13 14  1  0  0  0  0
 13 41  1  0  0  0  0
 13 42  1  0  0  0  0
 14 15  1  0  0  0  0
 14 43  1  0  0  0  0
 14 44  1  0  0  0  0
 16 17  2  0  0  0  0
 18 29  1  0  0  0  0
 18 19  1  0  0  0  0
 19 20  2  0  0  0  0
 20 21  1  0  0  0  0
 20 28  1  0  0  0  0
 21 27  1  0  0  0  0
 21 22  2  0  0  0  0
 22 23  1  0  0  0  0
 22 45  1  0  0  0  0
 23 24  2  0  0  0  0
 23 46  1  0  0  0  0
 24 25  1  0  0  0  0
 24 26  1  0  0  0  0
 26 27  2  0  0  0  0
 26 47  1  0  0  0  0
 27 48  1  0  0  0  0
 28 29  1  0  0  0  0
 28 49  1  0  0  0  0
 28 50  1  0  0  0  0
 29 30  1  0  0  0  0
 29 51  1  0  0  0  0
 30 34  1  0  0  0  0
 30 31  2  0  0  0  0
 31 32  1  0  0  0  0
 31 52  1  0  0  0  0
 32 33  2  0  0  0  0
 32 53  1  0  0  0  0
 33 34  1  0  0  0  0
 33 54  1  0  0  0  0
M  END
> <s_m_source_file>
AV-unprocessed.smi

> <i_m_source_file_index>
136

> <i_lp_mmshare_version>
43012

> <i_f3d_flags>
0

> <s_epik_input>
bzFbY0hdW2NIXVtjSF1jMVtDQEBIXTJbQ0gyXUMoYzNbY0hdW2NIXWMoQ2wpW2NIXVtjSF0zKT1OTjJDKD1PKVtDSDJdbjRjKD1PKWMoRilbY0hdbihjND1PKVtDQEBIXTVbQ0gyXVtDSDJdW0NIMl1PNQ==

> <s_epik_cmdline>
J2VwaWtfcHl0aG9uJywgJy1waCcsICc3LjAnLCAnLXRuJywgJzgnLCAnLW1hJywgJzIwMCcsICctbWV0YWxfYmluZGluZycsICctaW1hZScsICc8aW5maWxlLm1hZT4nLCAnLW9tYWUnLCAnPG91dGZpbGUubWFlPic=

> <r_lp_tautomer_probability>
1

> <r_epik_Ionization_Penalty>
2.55467e-08

> <r_epik_Ionization_Penalty_Charging>
4.85705e-09

> <r_epik_Ionization_Penalty_Neutral>
2.06897e-08

> <r_epik_State_Penalty>
-0

> <r_epik_Charging_Adjusted_Penalty>
4.85705e-09

> <i_epik_Tot_Q>
0

> <i_epik_Tot_abs_Q>
0

> <r_epik_Metal_State_Penalty>
-0

> <b_epik_Metal_Only>
0

> <s_epik_Chemistry_Notes>
This compound has an imine and may undergo hydrolysis. This compound contains an acetal/aminal-like group ( X-CH(R)-Y where X, Y are N, S, or O) that may be acid/base labile, releasing an aldehyde.

> <s_lp_Force_Field>
OPLS_2005

> <r_lp_Energy>
40.8333

> <b_lp_Chiralities_Consistent>
1

> <s_lp_Variant>
AV-unprocessed.smi:136-1

> <Gold.Version>
5.8.1

> <Gold.Id.Protein>
6NUR|6NUR_protein|mol2

> <Gold.PLP.Fitness>
49.2266

> <Gold.PLP.PLP>
-46.1588

> <Gold.PLP.part.hbond>
-2.0000

> <Gold.PLP.part.metal>
0.0000

> <Gold.PLP.part.buried>
-3.2535

> <Gold.PLP.part.nonpolar>
-41.5620

> <Gold.PLP.part.repulsive>
0.2751

> <Gold.PLP.ligand.clash>
0.0000

> <Gold.PLP.ligand.torsion>
0.3103

> <Gold.PLP.Chemscore.Hbond>
1.2108

> <Gold.PLP.Chemscore.CHOScore>
0.0000

> <Gold.PLP.Chemscore.Metal>
0.0000

> <Gold.Chemscore.Hbonds>
donor molecule, donor type, donor heavy atom, donor atom, acceptor molecule, acceptor atom, score
      P1  H  6931  6943       L1    34  1.00
      P1  H  6934  6947       L1    34  0.68

> <Gold.PLP.Chemscore.Internal.Correction>
0.0560

> <Gold.Rescore>
     Score         DG    S(hbond)    S(metal)    S(lipo)     H(rot)  DE(clash)    DE(int)     intcor
     10.88     -18.06       0.93        0.00     120.60       1.81       1.34       5.84       ----

> <Gold.Chemscore.Fitness>
10.8783

> <Gold.Chemscore.DG>
-18.0594

> <Gold.Chemscore.ZeroCoef>
-5.4800

> <Gold.Chemscore.Hbond>
0.9255

> <Gold.Chemscore.Metal>
0.0000

> <Gold.Chemscore.Lipo>
120.6037

> <Gold.Chemscore.Internal_Hbond>
0.0000

> <Gold.Chemscore.DEClash>
1.3379

> <Gold.Chemscore.DEInternal>
5.8432

> <Gold.Chemscore.Rot>
1.8056

> <Gold.Chemscore.Internal.Correction>
   9.000000E+99

> <Gold.Chemscore.Hbonds>
donor molecule, donor type, donor heavy atom, donor atom, acceptor molecule, acceptor atom, score
      P1  H  6931  6943       L1    34  0.92
      P1  H  6934  6947       L1    34  0.20

> <Gold.Chemscore.Hbond.Weighted>
-3.0911

> <Gold.Chemscore.Metal.Weighted>
-0.0000

> <Gold.Chemscore.Lipo.Weighted>
-14.1106

> <Gold.Chemscore.Internal_Hbond.Weighted>
0.0000

> <Gold.Chemscore.DEClash.Weighted>
1.3379

> <Gold.Chemscore.DEInternal.Weighted>
5.8432

> <Gold.Chemscore.Rot.Weighted>
4.6223

> <Gold.Chemscore.Internal.Correction.Weighted>
   9.000000E+99

> <Gold.Protein.RotatedTorsions>
[ 6907 6896 6895 6894 ] final -128.68 input  -60.11 | X-H torsion
[ 7974 7965 7964 7962 ] final   46.63 input  175.53 | X-H torsion
[ 8008 7997 7996 7995 ] final  110.15 input   59.86 | X-H torsion
[ 10167 10162 10161 10158 ] final -108.22 input  -65.29 | X-H torsion
[ 10718 10713 10712 10709 ] final -164.33 input   66.30 | X-H torsion
[ 10763 10752 10751 10750 ] final -124.97 input  -60.55 | X-H torsion
[ 11005 11000 10999 10996 ] final -141.24 input  -57.11 | X-H torsion

> <Gold.Protein.ActiveResidues>
 VAL166  LYS551  ARG553  GLY616  TRP617  ASP618  TYR619  PRO620  LYS621  CYS622 
 ASP623  PHE694  ASN695  SER759  ASP760  ASP761  ALA762  ILE779  LEU786  VAL792 
 PHE793  MET794  SER795  GLU796  ALA797  LYS798  CYS799  TRP800  GLU811  SER814 

> <Gold.Protein.RotatedAtoms>
  150.9205  133.6886  159.2832 H   0  0  0  0  0  0  0  0  0  0  0  0  # atno 6907 bound_to 6896
  151.4342  135.1012  159.9661 H   0  0  0  0  0  0  0  0  0  0  0  0  # atno 6908 bound_to 6896
  152.4977  133.8629  159.7314 H   0  0  0  0  0  0  0  0  0  0  0  0  # atno 6909 bound_to 6896
  146.0372  139.4836  142.9801 H   0  0  0  0  0  0  0  0  0  0  0  0  # atno 7974 bound_to 7965
  156.2032  140.3044  155.9571 H   0  0  0  0  0  0  0  0  0  0  0  0  # atno 8008 bound_to 7997
  155.2904  140.0442  157.3039 H   0  0  0  0  0  0  0  0  0  0  0  0  # atno 8009 bound_to 7997
  154.5598  140.2317  155.8361 H   0  0  0  0  0  0  0  0  0  0  0  0  # atno 8010 bound_to 7997
  140.1685  143.4062  152.1372 H   0  0  0  0  0  0  0  0  0  0  0  0  # atno 10167 bound_to 10162
  156.6374  130.8955  151.2989 H   0  0  0  0  0  0  0  0  0  0  0  0  # atno 10718 bound_to 10713
  154.8730  135.4045  154.3193 H   0  0  0  0  0  0  0  0  0  0  0  0  # atno 10763 bound_to 10752
  153.4024  135.7018  153.6422 H   0  0  0  0  0  0  0  0  0  0  0  0  # atno 10764 bound_to 10752
  153.5159  135.3697  155.2580 H   0  0  0  0  0  0  0  0  0  0  0  0  # atno 10765 bound_to 10752
  140.8344  134.2478  157.4841 H   0  0  0  0  0  0  0  0  0  0  0  0  # atno 11005 bound_to 11000
  145.6944  141.0155  143.1538 LP  0  0  0  0  0  0  0  0  0  0  0  0  # atno 17320 bound_to 7965
  144.7057  139.8570  143.7430 LP  0  0  0  0  0  0  0  0  0  0  0  0  # atno 17321 bound_to 7965
  139.5349  144.7198  151.4929 LP  0  0  0  0  0  0  0  0  0  0  0  0  # atno 17342 bound_to 10162
  140.6597  143.8524  150.6874 LP  0  0  0  0  0  0  0  0  0  0  0  0  # atno 17343 bound_to 10162
  157.7181  130.9523  150.1333 LP  0  0  0  0  0  0  0  0  0  0  0  0  # atno 17370 bound_to 10713
  156.2186  130.3672  149.8583 LP  0  0  0  0  0  0  0  0  0  0  0  0  # atno 17371 bound_to 10713
  139.8704  134.9603  156.4359 LP  0  0  0  0  0  0  0  0  0  0  0  0  # atno 17394 bound_to 11000
  140.8963  133.7811  155.9629 LP  0  0  0  0  0  0  0  0  0  0  0  0  # atno 17395 bound_to 11000

$$$$
