AV-unprocessed.smi:1782|AV-procd|sdf|7190|dock7
  -GOLD-   22720 8433D 1   1.00000     0.00000
 Structure written by MMmdl.
 42 44  0  0  0  0  0  0  0  0  2 V2000
  149.9955  139.8408  158.1183 O   0  0  0  0  0  0  0  0  0  0  0  0
  150.9035  139.3590  157.4426 C   0  0  0  0  0  0  0  0  0  0  0  0
  152.3626  139.6794  157.8136 C   0  0  0  0  0  0  0  0  0  0  0  0
  152.5351  140.7675  158.7947 N   0  0  0  0  0  0  0  0  0  0  0  0
  153.1750  140.4365  160.0024 C   0  0  0  0  0  0  0  0  0  0  0  0
  153.3807  141.3461  160.9644 C   0  0  0  0  0  0  0  0  0  0  0  0
  152.9253  142.6956  160.7358 C   0  0  0  0  0  0  0  0  0  0  0  0
  152.3026  143.0437  159.5861 C   0  0  0  0  0  0  0  0  0  0  0  0
  151.8087  144.4659  159.3303 C   0  0  0  0  0  0  0  0  0  0  0  0
  152.4925  145.0282  158.3332 F   0  0  0  0  0  0  0  0  0  0  0  0
  150.5169  144.4587  158.9985 F   0  0  0  0  0  0  0  0  0  0  0  0
  151.9480  145.2394  160.4081 F   0  0  0  0  0  0  0  0  0  0  0  0
  152.0802  142.0326  158.5324 C   0  0  0  0  0  0  0  0  0  0  0  0
  151.5066  142.2970  157.4746 O   0  0  0  0  0  0  0  0  0  0  0  0
  150.6740  138.5566  156.3897 N   0  0  0  0  0  0  0  0  0  0  0  0
  149.3574  138.1351  155.9280 C   0  0  2  0  0  0  0  0  0  0  0  0
  149.1150  136.6298  155.9853 C   0  0  0  0  0  0  0  0  0  0  0  0
  147.9587  136.4430  154.9971 C   0  0  0  0  0  0  0  0  0  0  0  0
  148.0782  137.5285  153.9919 N   0  3  1  0  0  0  0  0  0  0  0  0
  146.8014  138.2210  153.7122 C   0  0  0  0  0  0  0  0  0  0  0  0
  145.9133  137.4831  152.7389 C   0  0  0  0  0  0  0  0  0  0  0  0
  146.6801  138.7074  152.2876 C   0  0  0  0  0  0  0  0  0  0  0  0
  149.1568  138.4353  154.4431 C   0  0  0  0  0  0  0  0  0  0  0  0
  152.8225  138.7621  158.1843 H   0  0  0  0  0  0  0  0  0  0  0  0
  152.9076  139.9113  156.8969 H   0  0  0  0  0  0  0  0  0  0  0  0
  153.4809  139.4045  160.0965 H   0  0  0  0  0  0  0  0  0  0  0  0
  153.8725  141.0755  161.8873 H   0  0  0  0  0  0  0  0  0  0  0  0
  153.0909  143.4303  161.5097 H   0  0  0  0  0  0  0  0  0  0  0  0
  151.4728  138.2052  155.8818 H   0  0  0  0  0  0  0  0  0  0  0  0
  148.5850  138.6512  156.5021 H   0  0  0  0  0  0  0  0  0  0  0  0
  149.9966  136.0898  155.6354 H   0  0  0  0  0  0  0  0  0  0  0  0
  148.8755  136.2727  156.9874 H   0  0  0  0  0  0  0  0  0  0  0  0
  147.9808  135.4628  154.5205 H   0  0  0  0  0  0  0  0  0  0  0  0
  147.0101  136.5276  155.5303 H   0  0  0  0  0  0  0  0  0  0  0  0
  146.3693  138.7937  154.5314 H   0  0  0  0  0  0  0  0  0  0  0  0
  146.2472  136.5151  152.3691 H   0  0  0  0  0  0  0  0  0  0  0  0
  144.8371  137.5876  152.8624 H   0  0  0  0  0  0  0  0  0  0  0  0
  146.1092  139.6176  152.1145 H   0  0  0  0  0  0  0  0  0  0  0  0
  147.5237  138.5535  151.6168 H   0  0  0  0  0  0  0  0  0  0  0  0
  148.9333  139.4871  154.2574 H   0  0  0  0  0  0  0  0  0  0  0  0
  150.0580  138.1875  153.8798 H   0  0  0  0  0  0  0  0  0  0  0  0
  148.3869  137.1126  153.1249 H   0  0  0  0  0  0  0  0  0  0  0  0
  1  2  2  0  0  0  0
  2  3  1  0  0  0  0
  2 15  1  0  0  0  0
  3  4  1  0  0  0  0
  3 24  1  0  0  0  0
  3 25  1  0  0  0  0
  4 13  1  0  0  0  0
  4  5  1  0  0  0  0
  5  6  2  0  0  0  0
  5 26  1  0  0  0  0
  6  7  1  0  0  0  0
  6 27  1  0  0  0  0
  7  8  2  0  0  0  0
  7 28  1  0  0  0  0
  8  9  1  0  0  0  0
  8 13  1  0  0  0  0
  9 10  1  0  0  0  0
  9 11  1  0  0  0  0
  9 12  1  0  0  0  0
 13 14  2  0  0  0  0
 15 16  1  0  0  0  0
 15 29  1  0  0  0  0
 16 23  1  0  0  0  0
 16 17  1  0  0  0  0
 16 30  1  0  0  0  0
 17 18  1  0  0  0  0
 17 31  1  0  0  0  0
 17 32  1  0  0  0  0
 18 19  1  0  0  0  0
 18 33  1  0  0  0  0
 18 34  1  0  0  0  0
 19 20  1  0  0  0  0
 19 23  1  0  0  0  0
 19 42  1  0  0  0  0
 20 22  1  0  0  0  0
 20 21  1  0  0  0  0
 20 35  1  0  0  0  0
 21 22  1  0  0  0  0
 21 36  1  0  0  0  0
 21 37  1  0  0  0  0
 22 38  1  0  0  0  0
 22 39  1  0  0  0  0
 23 40  1  0  0  0  0
 23 41  1  0  0  0  0
M  CHG  1  19   1
M  END
> <s_m_source_file>
AV-unprocessed.smi

> <i_m_source_file_index>
1782

> <i_lp_mmshare_version>
43012

> <i_f3d_flags>
0

> <s_epik_input>
W0NIMl0xW0NIMl1bQ0hdMU4oW0NIMl0yKVtDSDJdW0NIMl1bQ0BIXTJbTkhdQyg9TylbQ0gyXW4zW2NIXVtjSF1bY0hdYyhDKEYpKEYpRiljMz1P

> <s_epik_cmdline>
J2VwaWtfcHl0aG9uJywgJy1waCcsICc3LjAnLCAnLXRuJywgJzgnLCAnLW1hJywgJzIwMCcsICctbWV0YWxfYmluZGluZycsICctaW1hZScsICc8aW5maWxlLm1hZT4nLCAnLW9tYWUnLCAnPG91dGZpbGUubWFlPic=

> <r_lp_tautomer_probability>
1

> <r_epik_Ionization_Penalty>
0.00106789

> <r_epik_Ionization_Penalty_Charging>
0.00106781

> <r_epik_Ionization_Penalty_Neutral>
8.2288e-08

> <r_epik_State_Penalty>
0.000699156

> <r_epik_Charging_Adjusted_Penalty>
0.00176697

> <i_epik_Tot_Q>
1

> <i_epik_Tot_abs_Q>
1

> <r_epik_Metal_State_Penalty>
-0

> <b_epik_Metal_Only>
0

> <s_lp_Force_Field>
OPLS_2005

> <r_lp_Energy>
47.5501

> <b_lp_Chiralities_Consistent>
1

> <s_lp_Variant>
AV-unprocessed.smi:1782-3

> <Gold.Version>
5.8.1

> <Gold.Id.Protein>
6NUR|6NUR_protein|mol2

> <Gold.PLP.Fitness>
49.9970

> <Gold.PLP.PLP>
-44.3932

> <Gold.PLP.part.hbond>
-1.0000

> <Gold.PLP.part.metal>
0.0000

> <Gold.PLP.part.buried>
-5.4490

> <Gold.PLP.part.nonpolar>
-38.5663

> <Gold.PLP.part.repulsive>
0.0608

> <Gold.PLP.ligand.clash>
0.1913

> <Gold.PLP.ligand.torsion>
0.9005

> <Gold.PLP.Chemscore.Hbond>
2.0000

> <Gold.PLP.Chemscore.CHOScore>
0.0000

> <Gold.PLP.Chemscore.Metal>
0.0000

> <Gold.Chemscore.Hbonds>
donor molecule, donor type, donor heavy atom, donor atom, acceptor molecule, acceptor atom, score
      L1  H    19    42       P1  7948  2.00

> <Gold.PLP.Chemscore.Internal.Correction>
1.5963

> <Gold.Rescore>
     Score         DG    S(hbond)    S(metal)    S(lipo)     H(rot)  DE(clash)    DE(int)     intcor
     11.09     -13.75       0.99        0.00      82.14       1.81       0.06       2.60       ----

> <Gold.Chemscore.Fitness>
11.0926

> <Gold.Chemscore.DG>
-13.7507

> <Gold.Chemscore.ZeroCoef>
-5.4800

> <Gold.Chemscore.Hbond>
0.9862

> <Gold.Chemscore.Metal>
0.0000

> <Gold.Chemscore.Lipo>
82.1422

> <Gold.Chemscore.Internal_Hbond>
0.0000

> <Gold.Chemscore.DEClash>
0.0554

> <Gold.Chemscore.DEInternal>
2.6027

> <Gold.Chemscore.Rot>
1.8101

> <Gold.Chemscore.Internal.Correction>
   9.000000E+99

> <Gold.Chemscore.Hbonds>
donor molecule, donor type, donor heavy atom, donor atom, acceptor molecule, acceptor atom, score
      L1  H    19    42       P1  7948  1.00

> <Gold.Chemscore.Hbond.Weighted>
-3.2939

> <Gold.Chemscore.Metal.Weighted>
-0.0000

> <Gold.Chemscore.Lipo.Weighted>
-9.6106

> <Gold.Chemscore.Internal_Hbond.Weighted>
0.0000

> <Gold.Chemscore.DEClash.Weighted>
0.0554

> <Gold.Chemscore.DEInternal.Weighted>
2.6027

> <Gold.Chemscore.Rot.Weighted>
4.6338

> <Gold.Chemscore.Internal.Correction.Weighted>
   9.000000E+99

> <Gold.Protein.RotatedTorsions>
[ 6907 6896 6895 6894 ] final   69.92 input  -60.11 | X-H torsion
[ 7974 7965 7964 7962 ] final -111.24 input  175.53 | X-H torsion
[ 8008 7997 7996 7995 ] final -160.24 input   59.86 | X-H torsion
[ 10167 10162 10161 10158 ] final  -51.40 input  -65.29 | X-H torsion
[ 10718 10713 10712 10709 ] final -118.01 input   66.30 | X-H torsion
[ 10763 10752 10751 10750 ] final  -36.25 input  -60.55 | X-H torsion
[ 11005 11000 10999 10996 ] final   -0.56 input  -57.11 | X-H torsion

> <Gold.Protein.ActiveResidues>
 VAL166  LYS551  ARG553  GLY616  TRP617  ASP618  TYR619  PRO620  LYS621  CYS622 
 ASP623  PHE694  ASN695  SER759  ASP760  ASP761  ALA762  ILE779  LEU786  VAL792 
 PHE793  MET794  SER795  GLU796  ALA797  LYS798  CYS799  TRP800  GLU811  SER814 

> <Gold.Protein.RotatedAtoms>
  152.4717  134.4945  159.9705 H   0  0  0  0  0  0  0  0  0  0  0  0  # atno 6907 bound_to 6896
  151.4970  133.3506  159.2870 H   0  0  0  0  0  0  0  0  0  0  0  0  # atno 6908 bound_to 6896
  150.8730  134.8136  159.7231 H   0  0  0  0  0  0  0  0  0  0  0  0  # atno 6909 bound_to 6896
  145.1585  140.8866  143.3605 H   0  0  0  0  0  0  0  0  0  0  0  0  # atno 7974 bound_to 7965
  155.7745  140.0856  157.2091 H   0  0  0  0  0  0  0  0  0  0  0  0  # atno 8008 bound_to 7997
  154.3994  140.1519  156.3038 H   0  0  0  0  0  0  0  0  0  0  0  0  # atno 8009 bound_to 7997
  155.8714  140.3425  155.5827 H   0  0  0  0  0  0  0  0  0  0  0  0  # atno 8010 bound_to 7997
  140.6590  143.2621  151.4498 H   0  0  0  0  0  0  0  0  0  0  0  0  # atno 10167 bound_to 10162
  156.1075  130.6222  150.9237 H   0  0  0  0  0  0  0  0  0  0  0  0  # atno 10718 bound_to 10713
  153.8767  135.6825  153.4770 H   0  0  0  0  0  0  0  0  0  0  0  0  # atno 10763 bound_to 10752
  153.1257  135.4720  154.9265 H   0  0  0  0  0  0  0  0  0  0  0  0  # atno 10764 bound_to 10752
  154.7688  135.3232  154.8183 H   0  0  0  0  0  0  0  0  0  0  0  0  # atno 10765 bound_to 10752
  140.6376  133.9519  155.8308 H   0  0  0  0  0  0  0  0  0  0  0  0  # atno 11005 bound_to 11000
  145.0356  139.3303  143.6002 LP  0  0  0  0  0  0  0  0  0  0  0  0  # atno 17320 bound_to 7965
  146.3485  139.9710  142.8706 LP  0  0  0  0  0  0  0  0  0  0  0  0  # atno 17321 bound_to 7965
  139.5819  144.1690  152.1979 LP  0  0  0  0  0  0  0  0  0  0  0  0  # atno 17342 bound_to 10162
  140.1018  144.5533  150.6984 LP  0  0  0  0  0  0  0  0  0  0  0  0  # atno 17343 bound_to 10162
  157.6253  131.0926  150.8545 LP  0  0  0  0  0  0  0  0  0  0  0  0  # atno 17370 bound_to 10713
  156.8661  130.5130  149.5300 LP  0  0  0  0  0  0  0  0  0  0  0  0  # atno 17371 bound_to 10713
  141.0630  134.0318  157.3632 LP  0  0  0  0  0  0  0  0  0  0  0  0  # atno 17394 bound_to 11000
  139.9092  135.0186  156.7620 LP  0  0  0  0  0  0  0  0  0  0  0  0  # atno 17395 bound_to 11000

$$$$
