AV-unprocessed.smi:678|AV-procd|sdf|3317|dock1
  -GOLD-   22720 0283D 1   1.00000     0.00000
 Structure written by MMmdl.
 50 51  0  0  0  0  0  0  0  0  1 V2000
  151.1755  142.3437  156.3202 C   0  0  0  0  0  0  0  0  0  0  0  0
  150.6177  141.1968  155.4957 C   0  0  0  0  0  0  0  0  0  0  0  0
  149.3819  141.2544  154.9533 C   0  0  0  0  0  0  0  0  0  0  0  0
  148.8591  140.1603  154.1720 C   0  0  0  0  0  0  0  0  0  0  0  0
  149.6354  139.0825  153.9939 C   0  0  0  0  0  0  0  0  0  0  0  0
  150.9289  138.9989  154.5429 N   0  0  0  0  0  0  0  0  0  0  0  0
  151.6753  137.7544  154.2792 C   0  0  0  0  0  0  0  0  0  0  0  0
  151.2259  136.5500  155.1240 C   0  0  0  0  0  0  0  0  0  0  0  0
  151.8290  136.2902  156.1645 O   0  0  0  0  0  0  0  0  0  0  0  0
  150.2089  135.8012  154.6665 N   0  0  0  0  0  0  0  0  0  0  0  0
  149.7624  134.5375  155.2400 C   0  0  0  0  0  0  0  0  0  0  0  0
  149.2363  133.5927  154.1451 C   0  0  2  0  0  0  0  0  0  0  0  0
  147.8571  134.0218  153.5992 C   0  0  0  0  0  0  0  0  0  0  0  0
  147.3514  133.0902  152.5961 N   0  0  0  0  0  0  0  0  0  0  0  0
  146.0402  133.4767  152.0716 C   0  0  0  0  0  0  0  0  0  0  0  0
  145.5179  132.6484  150.8765 C   0  0  0  0  0  0  0  0  0  0  0  0
  144.4270  133.4209  150.1218 C   0  0  0  0  0  0  0  0  0  0  0  0
  145.0003  131.2670  151.3098 C   0  0  0  0  0  0  0  0  0  0  0  0
  147.3120  131.7510  153.1728 C   0  0  0  0  0  0  0  0  0  0  0  0
  148.6804  131.3231  153.7304 C   0  0  0  0  0  0  0  0  0  0  0  0
  149.1280  132.2795  154.6867 O   0  0  0  0  0  0  0  0  0  0  0  0
  151.4654  140.0056  155.3001 C   0  0  0  0  0  0  0  0  0  0  0  0
  152.5901  139.9092  155.7941 O   0  0  0  0  0  0  0  0  0  0  0  0
  150.4615  143.1645  156.3973 H   0  0  0  0  0  0  0  0  0  0  0  0
  152.0872  142.7324  155.8649 H   0  0  0  0  0  0  0  0  0  0  0  0
  151.4117  142.0076  157.3304 H   0  0  0  0  0  0  0  0  0  0  0  0
  148.7683  142.1311  155.1025 H   0  0  0  0  0  0  0  0  0  0  0  0
  147.8666  140.2053  153.7476 H   0  0  0  0  0  0  0  0  0  0  0  0
  149.3175  138.2163  153.4312 H   0  0  0  0  0  0  0  0  0  0  0  0
  151.5753  137.4884  153.2256 H   0  0  0  0  0  0  0  0  0  0  0  0
  152.7466  137.8984  154.4286 H   0  0  0  0  0  0  0  0  0  0  0  0
  149.7575  136.0931  153.8119 H   0  0  0  0  0  0  0  0  0  0  0  0
  150.5701  134.0625  155.7992 H   0  0  0  0  0  0  0  0  0  0  0  0
  148.9717  134.7506  155.9598 H   0  0  0  0  0  0  0  0  0  0  0  0
  149.9581  133.5701  153.3261 H   0  0  0  0  0  0  0  0  0  0  0  0
  147.1460  134.1029  154.4228 H   0  0  0  0  0  0  0  0  0  0  0  0
  147.9494  135.0161  153.1656 H   0  0  0  0  0  0  0  0  0  0  0  0
  145.3063  133.4021  152.8755 H   0  0  0  0  0  0  0  0  0  0  0  0
  146.0637  134.5306  151.7902 H   0  0  0  0  0  0  0  0  0  0  0  0
  146.3308  132.4977  150.1675 H   0  0  0  0  0  0  0  0  0  0  0  0
  143.5612  133.6086  150.7575 H   0  0  0  0  0  0  0  0  0  0  0  0
  144.0848  132.8648  149.2486 H   0  0  0  0  0  0  0  0  0  0  0  0
  144.7988  134.3842  149.7713 H   0  0  0  0  0  0  0  0  0  0  0  0
  144.1868  131.3568  152.0301 H   0  0  0  0  0  0  0  0  0  0  0  0
  145.7903  130.6730  151.7703 H   0  0  0  0  0  0  0  0  0  0  0  0
  144.6282  130.7017  150.4550 H   0  0  0  0  0  0  0  0  0  0  0  0
  146.5716  131.7151  153.9736 H   0  0  0  0  0  0  0  0  0  0  0  0
  146.9900  131.0319  152.4188 H   0  0  0  0  0  0  0  0  0  0  0  0
  148.6059  130.3471  154.2096 H   0  0  0  0  0  0  0  0  0  0  0  0
  149.4130  131.2307  152.9273 H   0  0  0  0  0  0  0  0  0  0  0  0
  1  2  1  0  0  0  0
  1 24  1  0  0  0  0
  1 25  1  0  0  0  0
  1 26  1  0  0  0  0
  2 22  1  0  0  0  0
  2  3  2  0  0  0  0
  3  4  1  0  0  0  0
  3 27  1  0  0  0  0
  4  5  2  0  0  0  0
  4 28  1  0  0  0  0
  5  6  1  0  0  0  0
  5 29  1  0  0  0  0
  6  7  1  0  0  0  0
  6 22  1  0  0  0  0
  7  8  1  0  0  0  0
  7 30  1  0  0  0  0
  7 31  1  0  0  0  0
  8  9  2  0  0  0  0
  8 10  1  0  0  0  0
 10 11  1  0  0  0  0
 10 32  1  0  0  0  0
 11 12  1  0  0  0  0
 11 33  1  0  0  0  0
 11 34  1  0  0  0  0
 12 21  1  0  0  0  0
 12 13  1  0  0  0  0
 12 35  1  0  0  0  0
 13 14  1  0  0  0  0
 13 36  1  0  0  0  0
 13 37  1  0  0  0  0
 14 15  1  0  0  0  0
 14 19  1  0  0  0  0
 15 16  1  0  0  0  0
 15 38  1  0  0  0  0
 15 39  1  0  0  0  0
 16 17  1  0  0  0  0
 16 18  1  0  0  0  0
 16 40  1  0  0  0  0
 17 41  1  0  0  0  0
 17 42  1  0  0  0  0
 17 43  1  0  0  0  0
 18 44  1  0  0  0  0
 18 45  1  0  0  0  0
 18 46  1  0  0  0  0
 19 20  1  0  0  0  0
 19 47  1  0  0  0  0
 19 48  1  0  0  0  0
 20 21  1  0  0  0  0
 20 49  1  0  0  0  0
 20 50  1  0  0  0  0
 22 23  2  0  0  0  0
M  END
> <s_m_source_file>
AV-unprocessed.smi

> <i_m_source_file_index>
678

> <i_lp_mmshare_version>
43012

> <i_f3d_flags>
0

> <s_epik_input>
W0NIM11jMVtjSF1bY0hdW2NIXW4oYzE9TylbQ0gyXUMoPU8pW05IXVtDSDJdW0NAQEhdMltDSDJdTihbQ0gyXVtDSDJdTzIpW0NIMl1bQ0hdKFtDSDNdKVtDSDNd

> <s_epik_cmdline>
J2VwaWtfcHl0aG9uJywgJy1waCcsICc3LjAnLCAnLXRuJywgJzgnLCAnLW1hJywgJzIwMCcsICctbWV0YWxfYmluZGluZycsICctaW1hZScsICc8aW5maWxlLm1hZT4nLCAnLW9tYWUnLCAnPG91dGZpbGUubWFlPic=

> <r_lp_tautomer_probability>
1

> <r_epik_Ionization_Penalty>
1.11669

> <r_epik_Ionization_Penalty_Charging>
7.32459e-07

> <r_epik_Ionization_Penalty_Neutral>
1.11669

> <r_epik_State_Penalty>
1.17516

> <r_epik_Charging_Adjusted_Penalty>
1.17516

> <i_epik_Tot_Q>
0

> <i_epik_Tot_abs_Q>
0

> <r_epik_Metal_State_Penalty>
1.17513

> <b_epik_Metal_Only>
0

> <s_lp_Force_Field>
OPLS_2005

> <r_lp_Energy>
32.9221

> <b_lp_Chiralities_Consistent>
1

> <s_lp_Variant>
AV-unprocessed.smi:678-5

> <Gold.Version>
5.8.1

> <Gold.Id.Protein>
6NUR|6NUR_protein|mol2

> <Gold.PLP.Fitness>
55.1073

> <Gold.PLP.PLP>
-44.9720

> <Gold.PLP.part.hbond>
-3.2378

> <Gold.PLP.part.metal>
0.0000

> <Gold.PLP.part.buried>
-0.4650

> <Gold.PLP.part.nonpolar>
-40.4369

> <Gold.PLP.part.repulsive>
0.2733

> <Gold.PLP.ligand.clash>
0.0000

> <Gold.PLP.ligand.torsion>
1.0300

> <Gold.PLP.Chemscore.Hbond>
3.0000

> <Gold.PLP.Chemscore.CHOScore>
1.0000

> <Gold.PLP.Chemscore.Metal>
0.0000

> <Gold.Chemscore.Hbonds>
donor molecule, donor type, donor heavy atom, donor atom, acceptor molecule, acceptor atom, score
      L1  H    10    32       P1  7948  0.88
      P1  H  7997  8009       L1    23  1.00
      P1  H 10752 10765       L1     9  0.65
      L1  C     5    29       P1  7948  1.00

> <Gold.PLP.Chemscore.Internal.Correction>
0.1953

> <Gold.Rescore>
     Score         DG    S(hbond)    S(metal)    S(lipo)     H(rot)  DE(clash)    DE(int)     intcor
     15.87     -16.93       1.31        0.00     100.37       1.82       0.08       0.98       ----

> <Gold.Chemscore.Fitness>
15.8748

> <Gold.Chemscore.DG>
-16.9350

> <Gold.Chemscore.ZeroCoef>
-5.4800

> <Gold.Chemscore.Hbond>
1.3120

> <Gold.Chemscore.Metal>
0.0000

> <Gold.Chemscore.Lipo>
100.3685

> <Gold.Chemscore.Internal_Hbond>
0.0000

> <Gold.Chemscore.DEClash>
0.0767

> <Gold.Chemscore.DEInternal>
0.9835

> <Gold.Chemscore.Rot>
1.8243

> <Gold.Chemscore.Internal.Correction>
   9.000000E+99

> <Gold.Chemscore.Hbonds>
donor molecule, donor type, donor heavy atom, donor atom, acceptor molecule, acceptor atom, score
      L1  H    10    32       P1  7948  0.26
      P1  H  7997  8009       L1    23  1.00
      P1  H 10752 10765       L1     9  0.05

> <Gold.Chemscore.Hbond.Weighted>
-4.3821

> <Gold.Chemscore.Metal.Weighted>
-0.0000

> <Gold.Chemscore.Lipo.Weighted>
-11.7431

> <Gold.Chemscore.Internal_Hbond.Weighted>
0.0000

> <Gold.Chemscore.DEClash.Weighted>
0.0767

> <Gold.Chemscore.DEInternal.Weighted>
0.9835

> <Gold.Chemscore.Rot.Weighted>
4.6703

> <Gold.Chemscore.Internal.Correction.Weighted>
   9.000000E+99

> <Gold.Protein.RotatedTorsions>
[ 6907 6896 6895 6894 ] final  -96.80 input  -60.11 | X-H torsion
[ 7974 7965 7964 7962 ] final  -88.04 input  175.53 | X-H torsion
[ 8008 7997 7996 7995 ] final -153.23 input   59.86 | X-H torsion
[ 10167 10162 10161 10158 ] final  123.12 input  -65.29 | X-H torsion
[ 10718 10713 10712 10709 ] final -151.10 input   66.30 | X-H torsion
[ 10763 10752 10751 10750 ] final -135.06 input  -60.55 | X-H torsion
[ 11005 11000 10999 10996 ] final   -0.99 input  -57.11 | X-H torsion

> <Gold.Protein.ActiveResidues>
 VAL166  LYS551  ARG553  GLY616  TRP617  ASP618  TYR619  PRO620  LYS621  CYS622 
 ASP623  PHE694  ASN695  SER759  ASP760  ASP761  ALA762  ILE779  LEU786  VAL792 
 PHE793  MET794  SER795  GLU796  ALA797  LYS798  CYS799  TRP800  GLU811  SER814 

> <Gold.Protein.RotatedAtoms>
  150.6998  134.1447  159.4117 H   0  0  0  0  0  0  0  0  0  0  0  0  # atno 6907 bound_to 6896
  151.9431  135.0202  160.0546 H   0  0  0  0  0  0  0  0  0  0  0  0  # atno 6908 bound_to 6896
  152.2076  133.4852  159.5129 H   0  0  0  0  0  0  0  0  0  0  0  0  # atno 6909 bound_to 6896
  145.4585  140.9561  143.1983 H   0  0  0  0  0  0  0  0  0  0  0  0  # atno 7974 bound_to 7965
  155.6675  140.0729  157.2532 H   0  0  0  0  0  0  0  0  0  0  0  0  # atno 8008 bound_to 7997
  154.4130  140.1705  156.1894 H   0  0  0  0  0  0  0  0  0  0  0  0  # atno 8009 bound_to 7997
  155.9645  140.3367  155.6523 H   0  0  0  0  0  0  0  0  0  0  0  0  # atno 8010 bound_to 7997
  139.5818  144.6989  151.3510 H   0  0  0  0  0  0  0  0  0  0  0  0  # atno 10167 bound_to 10162
  156.4548  130.8185  151.2416 H   0  0  0  0  0  0  0  0  0  0  0  0  # atno 10718 bound_to 10713
  154.8709  135.3715  154.4836 H   0  0  0  0  0  0  0  0  0  0  0  0  # atno 10763 bound_to 10752
  153.5488  135.7025  153.5606 H   0  0  0  0  0  0  0  0  0  0  0  0  # atno 10764 bound_to 10752
  153.3735  135.4015  155.1769 H   0  0  0  0  0  0  0  0  0  0  0  0  # atno 10765 bound_to 10752
  140.6424  133.9477  155.8334 H   0  0  0  0  0  0  0  0  0  0  0  0  # atno 11005 bound_to 11000
  144.8017  139.6127  143.7068 LP  0  0  0  0  0  0  0  0  0  0  0  0  # atno 17320 bound_to 7965
  146.2464  139.6108  142.9456 LP  0  0  0  0  0  0  0  0  0  0  0  0  # atno 17321 bound_to 7965
  140.7095  143.7427  150.7541 LP  0  0  0  0  0  0  0  0  0  0  0  0  # atno 17342 bound_to 10162
  140.0962  143.4831  152.2451 LP  0  0  0  0  0  0  0  0  0  0  0  0  # atno 17343 bound_to 10162
  157.7501  131.0126  150.3392 LP  0  0  0  0  0  0  0  0  0  0  0  0  # atno 17370 bound_to 10713
  156.3779  130.3875  149.7125 LP  0  0  0  0  0  0  0  0  0  0  0  0  # atno 17371 bound_to 10713
  141.0597  134.0365  157.3675 LP  0  0  0  0  0  0  0  0  0  0  0  0  # atno 17394 bound_to 11000
  139.9075  135.0183  156.7550 LP  0  0  0  0  0  0  0  0  0  0  0  0  # atno 17395 bound_to 11000

$$$$
