AV-unprocessed.smi:245|AV-procd|sdf|1878|dock5
  -GOLD-   2262020523D 1   1.00000     0.00000
 Structure written by MMmdl.
 54 58  0  0  0  0  0  0  0  0  1 V2000
  146.3627  142.8707  154.2623 O   0  0  0  0  0  0  0  0  0  0  0  0
  147.2141  141.9937  154.3872 C   0  0  0  0  0  0  0  0  0  0  0  0
  146.8635  140.5406  154.0212 C   0  0  0  0  0  0  0  0  0  0  0  0
  147.9349  139.5552  154.2465 N   0  0  0  0  0  0  0  0  0  0  0  0
  147.4369  138.2956  154.2193 C   0  0  0  0  0  0  0  0  0  0  0  0
  147.5898  137.4765  155.2936 N   0  0  0  0  0  0  0  0  0  0  0  0
  147.0730  136.2440  155.2732 C   0  0  0  0  0  0  0  0  0  0  0  0
  146.3721  135.6480  154.3058 N   0  0  0  0  0  0  0  0  0  0  0  0
  146.2050  136.4746  153.2334 C   0  0  0  0  0  0  0  0  0  0  0  0
  146.7026  137.8014  153.1087 C   0  0  0  0  0  0  0  0  0  0  0  0
  146.3500  138.3300  151.8738 N   0  0  0  0  0  0  0  0  0  0  0  0
  145.6858  137.3659  151.2965 C   0  0  0  0  0  0  0  0  0  0  0  0
  145.5280  136.2253  152.0525 N   0  0  0  0  0  0  0  0  0  0  0  0
  144.8764  135.0104  151.6599 C   0  0  0  0  0  0  0  0  0  0  0  0
  145.5301  133.6427  151.8758 C   0  0  0  0  0  0  0  0  0  0  0  0
  144.8433  133.1218  150.5924 C   0  0  0  0  0  0  0  0  0  0  0  0
  145.7280  132.2128  149.7208 C   0  0  0  0  0  0  0  0  0  0  0  0
  145.2312  132.0962  148.4035 O   0  0  0  0  0  0  0  0  0  0  0  0
  143.4909  132.4231  150.8480 C   0  0  0  0  0  0  0  0  0  0  0  0
  142.9040  131.9404  149.6573 O   0  0  0  0  0  0  0  0  0  0  0  0
  144.7825  134.6125  150.1863 C   0  0  0  0  0  0  0  0  0  0  0  0
  148.9607  139.8742  155.2472 C   0  0  1  0  0  0  0  0  0  0  0  0
  150.1412  138.8708  155.2768 C   0  0  0  0  0  0  0  0  0  0  0  0
  151.1862  139.2742  156.3317 C   0  0  0  0  0  0  0  0  0  0  0  0
  151.6966  140.7059  156.1047 C   0  0  0  0  0  0  0  0  0  0  0  0
  150.5351  141.7100  156.0362 C   0  0  0  0  0  0  0  0  0  0  0  0
  149.5151  141.2884  154.9647 C   0  0  2  0  0  0  0  0  0  0  0  0
  148.4420  142.2681  154.8534 N   0  0  0  0  0  0  0  0  0  0  0  0
  145.9734  140.2649  154.5908 H   0  0  0  0  0  0  0  0  0  0  0  0
  146.5818  140.5191  152.9677 H   0  0  0  0  0  0  0  0  0  0  0  0
  147.2422  135.6512  156.1601 H   0  0  0  0  0  0  0  0  0  0  0  0
  145.2854  137.4670  150.2982 H   0  0  0  0  0  0  0  0  0  0  0  0
  143.8842  135.0416  152.1135 H   0  0  0  0  0  0  0  0  0  0  0  0
  146.6177  133.6827  151.7935 H   0  0  0  0  0  0  0  0  0  0  0  0
  145.2292  133.1397  152.7955 H   0  0  0  0  0  0  0  0  0  0  0  0
  146.7409  132.6103  149.6503 H   0  0  0  0  0  0  0  0  0  0  0  0
  145.8207  131.2161  150.1534 H   0  0  0  0  0  0  0  0  0  0  0  0
  145.3320  132.9290  147.9688 H   0  0  0  0  0  0  0  0  0  0  0  0
  143.6033  131.5913  151.5438 H   0  0  0  0  0  0  0  0  0  0  0  0
  142.7769  133.1054  151.3094 H   0  0  0  0  0  0  0  0  0  0  0  0
  141.9667  131.9114  149.7736 H   0  0  0  0  0  0  0  0  0  0  0  0
  143.8604  134.9227  149.6940 H   0  0  0  0  0  0  0  0  0  0  0  0
  145.6550  134.9316  149.6127 H   0  0  0  0  0  0  0  0  0  0  0  0
  148.4806  139.8773  156.2282 H   0  0  0  0  0  0  0  0  0  0  0  0
  149.8002  137.8606  155.4999 H   0  0  0  0  0  0  0  0  0  0  0  0
  150.6118  138.8244  154.2937 H   0  0  0  0  0  0  0  0  0  0  0  0
  150.7450  139.1989  157.3264 H   0  0  0  0  0  0  0  0  0  0  0  0
  152.0229  138.5752  156.3121 H   0  0  0  0  0  0  0  0  0  0  0  0
  152.3860  140.9868  156.9014 H   0  0  0  0  0  0  0  0  0  0  0  0
  152.2664  140.7451  155.1753 H   0  0  0  0  0  0  0  0  0  0  0  0
  150.0468  141.7748  157.0098 H   0  0  0  0  0  0  0  0  0  0  0  0
  150.9240  142.7048  155.8159 H   0  0  0  0  0  0  0  0  0  0  0  0
  150.0205  141.2793  153.9970 H   0  0  0  0  0  0  0  0  0  0  0  0
  148.6561  143.2217  155.1071 H   0  0  0  0  0  0  0  0  0  0  0  0
  1  2  2  0  0  0  0
  2 28  1  0  0  0  0
  2  3  1  0  0  0  0
  3  4  1  0  0  0  0
  3 29  1  0  0  0  0
  3 30  1  0  0  0  0
  4  5  1  0  0  0  0
  4 22  1  0  0  0  0
  5 10  1  0  0  0  0
  5  6  2  0  0  0  0
  6  7  1  0  0  0  0
  7  8  2  0  0  0  0
  7 31  1  0  0  0  0
  8  9  1  0  0  0  0
  9 13  1  0  0  0  0
  9 10  2  0  0  0  0
 10 11  1  0  0  0  0
 11 12  2  0  0  0  0
 12 13  1  0  0  0  0
 12 32  1  0  0  0  0
 13 14  1  0  0  0  0
 14 21  1  0  0  0  0
 14 15  1  0  0  0  0
 14 33  1  0  0  0  0
 15 16  1  0  0  0  0
 15 34  1  0  0  0  0
 15 35  1  0  0  0  0
 16 17  1  0  0  0  0
 16 19  1  0  0  0  0
 16 21  1  0  0  0  0
 17 18  1  0  0  0  0
 17 36  1  0  0  0  0
 17 37  1  0  0  0  0
 18 38  1  0  0  0  0
 19 20  1  0  0  0  0
 19 39  1  0  0  0  0
 19 40  1  0  0  0  0
 20 41  1  0  0  0  0
 21 42  1  0  0  0  0
 21 43  1  0  0  0  0
 22 27  1  0  0  0  0
 22 23  1  0  0  0  0
 22 44  1  0  0  0  0
 23 24  1  0  0  0  0
 23 45  1  0  0  0  0
 23 46  1  0  0  0  0
 24 25  1  0  0  0  0
 24 47  1  0  0  0  0
 24 48  1  0  0  0  0
 25 26  1  0  0  0  0
 25 49  1  0  0  0  0
 25 50  1  0  0  0  0
 26 27  1  0  0  0  0
 26 51  1  0  0  0  0
 26 52  1  0  0  0  0
 27 28  1  0  0  0  0
 27 53  1  0  0  0  0
 28 54  1  0  0  0  0
M  END
> <s_m_source_file>
AV-unprocessed.smi

> <i_m_source_file_index>
245

> <i_lp_mmshare_version>
43012

> <i_f3d_flags>
0

> <s_epik_input>
W0NIMl0xW0NIMl1bQ0gyXVtDSDJdW0NASF0oW0NASF0xMilbTkhdQyg9TylbQ0gyXU4yYyhuW2NIXW4zKWMoYzM0KW5bY0hdbjRbQ0hdKFtDSDJdNSlbQ0gyXUM1KFtDSDJdW09IXSlbQ0gyXVtPSF0=

> <s_epik_cmdline>
J2VwaWtfcHl0aG9uJywgJy1waCcsICc3LjAnLCAnLXRuJywgJzgnLCAnLW1hJywgJzIwMCcsICctbWV0YWxfYmluZGluZycsICctaW1hZScsICc8aW5maWxlLm1hZT4nLCAnLW9tYWUnLCAnPG91dGZpbGUubWFlPic=

> <r_lp_tautomer_probability>
1

> <r_epik_Ionization_Penalty>
0.000702616

> <r_epik_Ionization_Penalty_Charging>
0

> <r_epik_Ionization_Penalty_Neutral>
0.000702616

> <r_epik_State_Penalty>
0.000343985

> <r_epik_Charging_Adjusted_Penalty>
0.000343985

> <i_epik_Tot_Q>
0

> <i_epik_Tot_abs_Q>
0

> <r_epik_Metal_State_Penalty>
-0

> <b_epik_Metal_Only>
0

> <s_lp_Force_Field>
OPLS_2005

> <r_lp_Energy>
49.1986

> <b_lp_Chiralities_Consistent>
1

> <s_lp_Variant>
AV-unprocessed.smi:245-3

> <Gold.Version>
5.8.1

> <Gold.Id.Protein>
6NUR|6NUR_protein|mol2

> <Gold.PLP.Fitness>
51.3922

> <Gold.PLP.PLP>
-41.8344

> <Gold.PLP.part.hbond>
-5.9951

> <Gold.PLP.part.metal>
0.0000

> <Gold.PLP.part.buried>
-0.4754

> <Gold.PLP.part.nonpolar>
-36.7822

> <Gold.PLP.part.repulsive>
0.9970

> <Gold.PLP.ligand.clash>
0.0000

> <Gold.PLP.ligand.torsion>
1.0353

> <Gold.PLP.Chemscore.Hbond>
3.0875

> <Gold.PLP.Chemscore.CHOScore>
0.4947

> <Gold.PLP.Chemscore.Metal>
0.0000

> <Gold.Chemscore.Hbonds>
donor molecule, donor type, donor heavy atom, donor atom, acceptor molecule, acceptor atom, score
      L1  H    18    38       P1  7921  0.54
      L1  H    20    41       P1 10952  0.56
      L1  H    28    54       P1  8028  1.00
      P1  H 10785 10796       L1    20  0.98
      L1  C    12    32       P1 10171  0.53

> <Gold.PLP.Chemscore.Internal.Correction>
0.8817

> <Gold.Rescore>
     Score         DG    S(hbond)    S(metal)    S(lipo)     H(rot)  DE(clash)    DE(int)     intcor
     10.23     -14.40       2.06        0.00      89.15       3.28       1.97       2.20       ----

> <Gold.Chemscore.Fitness>
10.2329

> <Gold.Chemscore.DG>
-14.3983

> <Gold.Chemscore.ZeroCoef>
-5.4800

> <Gold.Chemscore.Hbond>
2.0580

> <Gold.Chemscore.Metal>
0.0000

> <Gold.Chemscore.Lipo>
89.1506

> <Gold.Chemscore.Internal_Hbond>
0.0000

> <Gold.Chemscore.DEClash>
1.9653

> <Gold.Chemscore.DEInternal>
2.2001

> <Gold.Chemscore.Rot>
3.2758

> <Gold.Chemscore.Internal.Correction>
   9.000000E+99

> <Gold.Chemscore.Hbonds>
donor molecule, donor type, donor heavy atom, donor atom, acceptor molecule, acceptor atom, score
      L1  H    18    38       P1  7921  0.03
      L1  H    20    41       P1 10952  0.55
      L1  H    28    54       P1  8028  0.98
      P1  H 10785 10796       L1    20  0.24

> <Gold.Chemscore.Hbond.Weighted>
-6.8737

> <Gold.Chemscore.Metal.Weighted>
-0.0000

> <Gold.Chemscore.Lipo.Weighted>
-10.4306

> <Gold.Chemscore.Internal_Hbond.Weighted>
0.0000

> <Gold.Chemscore.DEClash.Weighted>
1.9653

> <Gold.Chemscore.DEInternal.Weighted>
2.2001

> <Gold.Chemscore.Rot.Weighted>
8.3859

> <Gold.Chemscore.Internal.Correction.Weighted>
   9.000000E+99

> <Gold.Protein.RotatedTorsions>
[ 6907 6896 6895 6894 ] final -179.70 input  -60.11 | X-H torsion
[ 7974 7965 7964 7962 ] final -160.94 input  175.53 | X-H torsion
[ 8008 7997 7996 7995 ] final   49.31 input   59.86 | X-H torsion
[ 10167 10162 10161 10158 ] final  -94.76 input  -65.29 | X-H torsion
[ 10718 10713 10712 10709 ] final  115.37 input   66.30 | X-H torsion
[ 10763 10752 10751 10750 ] final  -19.11 input  -60.55 | X-H torsion
[ 11005 11000 10999 10996 ] final  -94.12 input  -57.11 | X-H torsion

> <Gold.Protein.ActiveResidues>
 VAL166  LYS551  ARG553  GLY616  TRP617  ASP618  TYR619  PRO620  LYS621  CYS622 
 ASP623  PHE694  ASN695  SER759  ASP760  ASP761  ALA762  ILE779  LEU786  VAL792 
 PHE793  MET794  SER795  GLU796  ALA797  LYS798  CYS799  TRP800  GLU811  SER814 

> <Gold.Protein.RotatedAtoms>
  151.6577  133.3318  159.3166 H   0  0  0  0  0  0  0  0  0  0  0  0  # atno 6907 bound_to 6896
  150.7929  134.6970  159.6538 H   0  0  0  0  0  0  0  0  0  0  0  0  # atno 6908 bound_to 6896
  152.4011  134.6288  160.0121 H   0  0  0  0  0  0  0  0  0  0  0  0  # atno 6909 bound_to 6896
  144.7409  140.3469  143.6123 H   0  0  0  0  0  0  0  0  0  0  0  0  # atno 7974 bound_to 7965
  155.4001  140.3437  155.4256 H   0  0  0  0  0  0  0  0  0  0  0  0  # atno 8008 bound_to 7997
  156.1509  140.1570  156.8804 H   0  0  0  0  0  0  0  0  0  0  0  0  # atno 8009 bound_to 7997
  154.5051  140.0804  156.7859 H   0  0  0  0  0  0  0  0  0  0  0  0  # atno 8010 bound_to 7997
  140.3111  143.3104  152.0147 H   0  0  0  0  0  0  0  0  0  0  0  0  # atno 10167 bound_to 10162
  157.6226  131.1011  150.7320 H   0  0  0  0  0  0  0  0  0  0  0  0  # atno 10718 bound_to 10713
  153.5997  135.7000  153.5389 H   0  0  0  0  0  0  0  0  0  0  0  0  # atno 10763 bound_to 10752
  153.3107  135.4102  155.1333 H   0  0  0  0  0  0  0  0  0  0  0  0  # atno 10764 bound_to 10752
  154.8585  135.3671  154.5532 H   0  0  0  0  0  0  0  0  0  0  0  0  # atno 10765 bound_to 10752
  141.1479  133.7934  157.0254 H   0  0  0  0  0  0  0  0  0  0  0  0  # atno 11005 bound_to 11000
  145.7316  139.1738  143.2427 LP  0  0  0  0  0  0  0  0  0  0  0  0  # atno 17320 bound_to 7965
  146.1201  140.7319  142.9461 LP  0  0  0  0  0  0  0  0  0  0  0  0  # atno 17321 bound_to 7965
  139.4893  144.6383  151.6929 LP  0  0  0  0  0  0  0  0  0  0  0  0  # atno 17342 bound_to 10162
  140.5567  144.0336  150.6151 LP  0  0  0  0  0  0  0  0  0  0  0  0  # atno 17343 bound_to 10162
  156.7675  130.4818  149.5425 LP  0  0  0  0  0  0  0  0  0  0  0  0  # atno 17370 bound_to 10713
  156.1379  130.6224  151.0426 LP  0  0  0  0  0  0  0  0  0  0  0  0  # atno 17371 bound_to 10713
  140.0789  134.9660  157.1591 LP  0  0  0  0  0  0  0  0  0  0  0  0  # atno 17394 bound_to 11000
  140.3605  134.2499  155.7187 LP  0  0  0  0  0  0  0  0  0  0  0  0  # atno 17395 bound_to 11000

$$$$
