AV-unprocessed.smi:1947|AV-procd|sdf|7868|dock6
  -GOLD-   2272010 23D 1   1.00000     0.00000
 Structure written by MMmdl.
 39 40  0  0  0  0  0  0  0  0  1 V2000
  142.3586  134.9851  152.7312 C   0  0  0  0  0  0  0  0  0  0  0  0
  143.5614  134.1899  152.1980 C   0  0  1  0  0  0  0  0  0  0  0  0
  143.0883  132.9793  151.3687 C   0  0  0  0  0  0  0  0  0  0  0  0
  144.2708  132.1667  150.8208 C   0  0  0  0  0  0  0  0  0  0  0  0
  145.2107  133.0534  149.9925 C   0  0  0  0  0  0  0  0  0  0  0  0
  145.6962  134.2587  150.8110 C   0  0  0  0  0  0  0  0  0  0  0  0
  144.5151  135.0810  151.3701 C   0  0  2  0  0  0  0  0  0  0  0  0
  145.0139  136.0983  152.2291 O   0  0  0  0  0  0  0  0  0  0  0  0
  145.9223  136.9986  151.6118 C   0  0  0  0  0  0  0  0  0  0  0  0
  146.0946  138.2248  152.5195 C   0  0  0  0  0  0  0  0  0  0  0  0
  147.4994  138.5907  152.6639 N   0  0  0  0  0  0  0  0  0  0  0  0
  148.1975  138.5323  153.8065 C   0  0  0  0  0  0  0  0  0  0  0  0
  147.7277  138.1226  154.8677 O   0  0  0  0  0  0  0  0  0  0  0  0
  149.4506  138.9818  153.6326 N   0  0  0  0  0  0  0  0  0  0  0  0
  150.4788  139.0929  154.6015 C   0  0  0  0  0  0  0  0  0  0  0  0
  150.7571  140.3091  155.0857 N   0  0  0  0  0  0  0  0  0  0  0  0
  151.7812  140.2739  156.0242 N   0  0  0  0  0  0  0  0  0  0  0  0
  152.2356  139.0311  156.2108 C   0  0  0  0  0  0  0  0  0  0  0  0
  151.4587  137.7785  155.2588 S   0  0  0  0  0  0  0  0  0  0  0  0
  141.7740  135.4131  151.9164 H   0  0  0  0  0  0  0  0  0  0  0  0
  142.6778  135.8038  153.3765 H   0  0  0  0  0  0  0  0  0  0  0  0
  141.6961  134.3480  153.3174 H   0  0  0  0  0  0  0  0  0  0  0  0
  144.1146  133.8093  153.0581 H   0  0  0  0  0  0  0  0  0  0  0  0
  142.4560  132.3337  151.9791 H   0  0  0  0  0  0  0  0  0  0  0  0
  142.4686  133.3209  150.5385 H   0  0  0  0  0  0  0  0  0  0  0  0
  144.8226  131.7183  151.6479 H   0  0  0  0  0  0  0  0  0  0  0  0
  143.9036  131.3415  150.2101 H   0  0  0  0  0  0  0  0  0  0  0  0
  146.0647  132.4695  149.6478 H   0  0  0  0  0  0  0  0  0  0  0  0
  144.6926  133.4024  149.0983 H   0  0  0  0  0  0  0  0  0  0  0  0
  146.3187  133.9091  151.6356 H   0  0  0  0  0  0  0  0  0  0  0  0
  146.3368  134.8799  150.1858 H   0  0  0  0  0  0  0  0  0  0  0  0
  143.9508  135.5238  150.5468 H   0  0  0  0  0  0  0  0  0  0  0  0
  146.8876  136.5265  151.4287 H   0  0  0  0  0  0  0  0  0  0  0  0
  145.5272  137.3090  150.6438 H   0  0  0  0  0  0  0  0  0  0  0  0
  145.5290  139.0702  152.1247 H   0  0  0  0  0  0  0  0  0  0  0  0
  145.6889  138.0141  153.5093 H   0  0  0  0  0  0  0  0  0  0  0  0
  147.9625  138.9427  151.8389 H   0  0  0  0  0  0  0  0  0  0  0  0
  149.6952  139.2899  152.7030 H   0  0  0  0  0  0  0  0  0  0  0  0
  153.0350  138.8507  156.9140 H   0  0  0  0  0  0  0  0  0  0  0  0
  1  2  1  0  0  0  0
  1 20  1  0  0  0  0
  1 21  1  0  0  0  0
  1 22  1  0  0  0  0
  2  7  1  0  0  0  0
  2  3  1  0  0  0  0
  2 23  1  0  0  0  0
  3  4  1  0  0  0  0
  3 24  1  0  0  0  0
  3 25  1  0  0  0  0
  4  5  1  0  0  0  0
  4 26  1  0  0  0  0
  4 27  1  0  0  0  0
  5  6  1  0  0  0  0
  5 28  1  0  0  0  0
  5 29  1  0  0  0  0
  6  7  1  0  0  0  0
  6 30  1  0  0  0  0
  6 31  1  0  0  0  0
  7  8  1  0  0  0  0
  7 32  1  0  0  0  0
  8  9  1  0  0  0  0
  9 10  1  0  0  0  0
  9 33  1  0  0  0  0
  9 34  1  0  0  0  0
 10 11  1  0  0  0  0
 10 35  1  0  0  0  0
 10 36  1  0  0  0  0
 11 12  1  0  0  0  0
 11 37  1  0  0  0  0
 12 13  2  0  0  0  0
 12 14  1  0  0  0  0
 14 15  1  0  0  0  0
 14 38  1  0  0  0  0
 15 19  1  0  0  0  0
 15 16  2  0  0  0  0
 16 17  1  0  0  0  0
 17 18  2  0  0  0  0
 18 19  1  0  0  0  0
 18 39  1  0  0  0  0
M  END
> <s_m_source_file>
AV-unprocessed.smi

> <i_m_source_file_index>
1947

> <i_lp_mmshare_version>
43012

> <i_f3d_flags>
0

> <s_epik_input>
W0NIM11bQ0BASF0xW0NIMl1bQ0gyXVtDSDJdW0NIMl1bQ0BIXTFPW0NIMl1bQ0gyXVtOSF1DKD1PKVtOSF1jMm5uW2NIXXMy

> <s_epik_cmdline>
J2VwaWtfcHl0aG9uJywgJy1waCcsICc3LjAnLCAnLXRuJywgJzgnLCAnLW1hJywgJzIwMCcsICctbWV0YWxfYmluZGluZycsICctaW1hZScsICc8aW5maWxlLm1hZT4nLCAnLW9tYWUnLCAnPG91dGZpbGUubWFlPic=

> <r_lp_tautomer_probability>
1

> <r_epik_Ionization_Penalty>
0.00220897

> <r_epik_Ionization_Penalty_Charging>
0

> <r_epik_Ionization_Penalty_Neutral>
0.00220897

> <r_epik_State_Penalty>
-0

> <r_epik_Charging_Adjusted_Penalty>
0

> <i_epik_Tot_Q>
0

> <i_epik_Tot_abs_Q>
0

> <r_epik_Metal_State_Penalty>
0.345002

> <b_epik_Metal_Only>
0

> <s_lp_Force_Field>
OPLS_2005

> <r_lp_Energy>
7.32574

> <b_lp_Chiralities_Consistent>
1

> <s_lp_Variant>
AV-unprocessed.smi:1947-4

> <Gold.Version>
5.8.1

> <Gold.Id.Protein>
6NUR|6NUR_protein|mol2

> <Gold.PLP.Fitness>
40.4994

> <Gold.PLP.PLP>
-34.1607

> <Gold.PLP.part.hbond>
-5.0415

> <Gold.PLP.part.metal>
0.0000

> <Gold.PLP.part.buried>
0.3649

> <Gold.PLP.part.nonpolar>
-29.3067

> <Gold.PLP.part.repulsive>
0.4857

> <Gold.PLP.ligand.clash>
0.0000

> <Gold.PLP.ligand.torsion>
1.1004

> <Gold.PLP.Chemscore.Hbond>
2.8320

> <Gold.PLP.Chemscore.CHOScore>
0.0000

> <Gold.PLP.Chemscore.Metal>
0.0000

> <Gold.Chemscore.Hbonds>
donor molecule, donor type, donor heavy atom, donor atom, acceptor molecule, acceptor atom, score
      L1  H    11    37       P1  7957  0.84
      L1  H    14    38       P1  7957  1.00
      P1  H  7989  7998       L1    16  0.70

> <Gold.PLP.Chemscore.Internal.Correction>
0.0436

> <Gold.Rescore>
     Score         DG    S(hbond)    S(metal)    S(lipo)     H(rot)  DE(clash)    DE(int)     intcor
     14.98     -16.32       2.33        0.00      68.61       1.94       0.23       1.11       ----

> <Gold.Chemscore.Fitness>
14.9795

> <Gold.Chemscore.DG>
-16.3186

> <Gold.Chemscore.ZeroCoef>
-5.4800

> <Gold.Chemscore.Hbond>
2.3274

> <Gold.Chemscore.Metal>
0.0000

> <Gold.Chemscore.Lipo>
68.6112

> <Gold.Chemscore.Internal_Hbond>
0.0000

> <Gold.Chemscore.DEClash>
0.2311

> <Gold.Chemscore.DEInternal>
1.1080

> <Gold.Chemscore.Rot>
1.9385

> <Gold.Chemscore.Internal.Correction>
   9.000000E+99

> <Gold.Chemscore.Hbonds>
donor molecule, donor type, donor heavy atom, donor atom, acceptor molecule, acceptor atom, score
      L1  H    11    37       P1  7957  0.75
      L1  H    14    38       P1  7957  0.98
      P1  H  7989  7998       L1    16  0.03

> <Gold.Chemscore.Hbond.Weighted>
-7.7736

> <Gold.Chemscore.Metal.Weighted>
-0.0000

> <Gold.Chemscore.Lipo.Weighted>
-8.0275

> <Gold.Chemscore.Internal_Hbond.Weighted>
0.0000

> <Gold.Chemscore.DEClash.Weighted>
0.2311

> <Gold.Chemscore.DEInternal.Weighted>
1.1080

> <Gold.Chemscore.Rot.Weighted>
4.9625

> <Gold.Chemscore.Internal.Correction.Weighted>
   9.000000E+99

> <Gold.Protein.RotatedTorsions>
[ 6907 6896 6895 6894 ] final   21.96 input  -60.11 | X-H torsion
[ 7974 7965 7964 7962 ] final  137.85 input  175.53 | X-H torsion
[ 8008 7997 7996 7995 ] final -154.23 input   59.86 | X-H torsion
[ 10167 10162 10161 10158 ] final  -12.57 input  -65.29 | X-H torsion
[ 10718 10713 10712 10709 ] final -169.27 input   66.30 | X-H torsion
[ 10763 10752 10751 10750 ] final  114.46 input  -60.55 | X-H torsion
[ 11005 11000 10999 10996 ] final  -53.33 input  -57.11 | X-H torsion

> <Gold.Protein.ActiveResidues>
 VAL166  LYS551  ARG553  GLY616  TRP617  ASP618  TYR619  PRO620  LYS621  CYS622 
 ASP623  PHE694  ASN695  SER759  ASP760  ASP761  ALA762  ILE779  LEU786  VAL792 
 PHE793  MET794  SER795  GLU796  ALA797  LYS798  CYS799  TRP800  GLU811  SER814 

> <Gold.Protein.RotatedAtoms>
  151.9198  135.0303  160.0520 H   0  0  0  0  0  0  0  0  0  0  0  0  # atno 6907 bound_to 6896
  152.2209  133.4978  159.5170 H   0  0  0  0  0  0  0  0  0  0  0  0  # atno 6908 bound_to 6896
  150.6999  134.1260  159.4095 H   0  0  0  0  0  0  0  0  0  0  0  0  # atno 6909 bound_to 6896
  144.9428  139.4910  143.5563 H   0  0  0  0  0  0  0  0  0  0  0  0  # atno 7974 bound_to 7965
  155.6832  140.0747  157.2476 H   0  0  0  0  0  0  0  0  0  0  0  0  # atno 8008 bound_to 7997
  154.4102  140.1678  156.2057 H   0  0  0  0  0  0  0  0  0  0  0  0  # atno 8009 bound_to 7997
  155.9516  140.3377  155.6416 H   0  0  0  0  0  0  0  0  0  0  0  0  # atno 8010 bound_to 7997
  140.7164  143.5518  150.9293 H   0  0  0  0  0  0  0  0  0  0  0  0  # atno 10167 bound_to 10162
  156.7091  130.9226  151.3087 H   0  0  0  0  0  0  0  0  0  0  0  0  # atno 10718 bound_to 10713
  153.5076  135.3625  155.2570 H   0  0  0  0  0  0  0  0  0  0  0  0  # atno 10763 bound_to 10752
  154.8744  135.4015  154.3406 H   0  0  0  0  0  0  0  0  0  0  0  0  # atno 10764 bound_to 10752
  153.4053  135.7076  153.6463 H   0  0  0  0  0  0  0  0  0  0  0  0  # atno 10765 bound_to 10752
  141.0970  133.6623  156.4155 H   0  0  0  0  0  0  0  0  0  0  0  0  # atno 11005 bound_to 11000
  146.3292  139.8459  142.8882 LP  0  0  0  0  0  0  0  0  0  0  0  0  # atno 17320 bound_to 7965
  145.2964  141.0182  143.3633 LP  0  0  0  0  0  0  0  0  0  0  0  0  # atno 17321 bound_to 7965
  139.9242  143.6569  152.3090 LP  0  0  0  0  0  0  0  0  0  0  0  0  # atno 17342 bound_to 10162
  139.6997  144.7636  151.1294 LP  0  0  0  0  0  0  0  0  0  0  0  0  # atno 17343 bound_to 10162
  157.6943  130.9265  150.0600 LP  0  0  0  0  0  0  0  0  0  0  0  0  # atno 17370 bound_to 10713
  156.1674  130.3645  149.9213 LP  0  0  0  0  0  0  0  0  0  0  0  0  # atno 17371 bound_to 10713
  140.5115  134.6390  157.5286 LP  0  0  0  0  0  0  0  0  0  0  0  0  # atno 17394 bound_to 11000
  139.9810  134.7138  155.9860 LP  0  0  0  0  0  0  0  0  0  0  0  0  # atno 17395 bound_to 11000

$$$$
