AV-unprocessed.smi:3034|AV-procd|sdf|11579|dock9
  -GOLD-   2272016543D 1   1.00000     0.00000
 Structure written by MMmdl.
 31 31  0  0  0  0  0  0  0  0  2 V2000
  150.0170  135.6647  155.0821 C   0  0  0  0  0  0  0  0  0  0  0  0
  150.3266  137.1472  154.8489 C   0  0  0  0  0  0  0  0  0  0  0  0
  151.2011  137.7387  155.9610 C   0  0  0  0  0  0  0  0  0  0  0  0
  151.6394  139.5011  155.6100 S   0  0  0  0  0  0  0  0  0  0  0  0
  153.1014  139.5350  155.4356 O   0  0  0  0  0  0  0  0  0  0  0  0
  150.8332  139.8690  154.4363 O   0  0  0  0  0  0  0  0  0  0  0  0
  151.1171  140.2729  156.9438 N   0  5  0  0  0  0  0  0  0  0  0  0
  151.6319  139.9399  158.2679 C   0  0  0  0  0  0  0  0  0  0  0  0
  152.7846  140.8990  158.6666 C   0  0  2  0  0  0  0  0  0  0  0  0
  153.3736  140.4088  159.8564 O   0  0  0  0  0  0  0  0  0  0  0  0
  152.3786  142.3715  158.7943 C   0  0  0  0  0  0  0  0  0  0  0  0
  152.6412  143.0804  159.9896 C   0  0  0  0  0  0  0  0  0  0  0  0
  152.2671  144.4351  160.0712 C   0  0  0  0  0  0  0  0  0  0  0  0
  151.6361  145.0327  158.9640 C   0  0  0  0  0  0  0  0  0  0  0  0
  151.4022  144.2437  157.8211 C   0  0  0  0  0  0  0  0  0  0  0  0
  151.7558  142.9441  157.7326 N   0  0  0  0  0  0  0  0  0  0  0  0
  149.3942  135.2664  154.2810 H   0  0  0  0  0  0  0  0  0  0  0  0
  149.4851  135.5179  156.0228 H   0  0  0  0  0  0  0  0  0  0  0  0
  150.9322  135.0734  155.1187 H   0  0  0  0  0  0  0  0  0  0  0  0
  150.8285  137.2657  153.8880 H   0  0  0  0  0  0  0  0  0  0  0  0
  149.3920  137.7046  154.7806 H   0  0  0  0  0  0  0  0  0  0  0  0
  150.6778  137.7047  156.9159 H   0  0  0  0  0  0  0  0  0  0  0  0
  152.1220  137.1648  156.0601 H   0  0  0  0  0  0  0  0  0  0  0  0
  150.8584  139.9784  159.0361 H   0  0  0  0  0  0  0  0  0  0  0  0
  152.0023  138.9140  158.2812 H   0  0  0  0  0  0  0  0  0  0  0  0
  153.5631  140.8344  157.9049 H   0  0  0  0  0  0  0  0  0  0  0  0
  153.1830  141.0177  160.5527 H   0  0  0  0  0  0  0  0  0  0  0  0
  153.1359  142.5996  160.8206 H   0  0  0  0  0  0  0  0  0  0  0  0
  152.4639  145.0062  160.9661 H   0  0  0  0  0  0  0  0  0  0  0  0
  151.3383  146.0703  158.9901 H   0  0  0  0  0  0  0  0  0  0  0  0
  150.9177  144.6679  156.9542 H   0  0  0  0  0  0  0  0  0  0  0  0
  1  2  1  0  0  0  0
  1 17  1  0  0  0  0
  1 18  1  0  0  0  0
  1 19  1  0  0  0  0
  2  3  1  0  0  0  0
  2 20  1  0  0  0  0
  2 21  1  0  0  0  0
  3  4  1  0  0  0  0
  3 22  1  0  0  0  0
  3 23  1  0  0  0  0
  4  5  2  0  0  0  0
  4  6  2  0  0  0  0
  4  7  1  0  0  0  0
  7  8  1  0  0  0  0
  8  9  1  0  0  0  0
  8 24  1  0  0  0  0
  8 25  1  0  0  0  0
  9 10  1  0  0  0  0
  9 11  1  0  0  0  0
  9 26  1  0  0  0  0
 10 27  1  0  0  0  0
 11 16  1  0  0  0  0
 11 12  2  0  0  0  0
 12 13  1  0  0  0  0
 12 28  1  0  0  0  0
 13 14  2  0  0  0  0
 13 29  1  0  0  0  0
 14 15  1  0  0  0  0
 14 30  1  0  0  0  0
 15 16  2  0  0  0  0
 15 31  1  0  0  0  0
M  CHG  1   7  -1
M  END
> <s_m_source_file>
AV-unprocessed.smi

> <i_m_source_file_index>
3034

> <i_lp_mmshare_version>
43012

> <i_f3d_flags>
0

> <s_epik_input>
W0NIM11bQ0gyXVtDSDJdUyg9TykoPU8pW05IXVtDSDJdW0NASF0oW09IXSljMVtjSF1bY0hdW2NIXVtjSF1uMQ==

> <s_epik_cmdline>
J2VwaWtfcHl0aG9uJywgJy1waCcsICc3LjAnLCAnLXRuJywgJzgnLCAnLW1hJywgJzIwMCcsICctbWV0YWxfYmluZGluZycsICctaW1hZScsICc8aW5maWxlLm1hZT4nLCAnLW9tYWUnLCAnPG91dGZpbGUubWFlPic=

> <r_epik_Ionization_Penalty>
6.18156

> <r_epik_Ionization_Penalty_Charging>
6.17474

> <r_epik_Ionization_Penalty_Neutral>
0.0068235

> <r_epik_State_Penalty>
6.17598

> <r_epik_Charging_Adjusted_Penalty>
12.3507

> <i_epik_Tot_Q>
-1

> <i_epik_Tot_abs_Q>
1

> <r_epik_Metal_State_Penalty>
2.11803

> <b_epik_Metal_Only>
1

> <s_lp_Force_Field>
OPLS_2005

> <r_lp_Energy>
-0.388479

> <b_lp_Chiralities_Consistent>
1

> <s_lp_Variant>
AV-unprocessed.smi:3034-3

> <Gold.Version>
5.8.1

> <Gold.Id.Protein>
6NUR|6NUR_protein|mol2

> <Gold.PLP.Fitness>
41.3276

> <Gold.PLP.PLP>
-32.9161

> <Gold.PLP.part.hbond>
-1.9261

> <Gold.PLP.part.metal>
0.0000

> <Gold.PLP.part.buried>
-4.7438

> <Gold.PLP.part.nonpolar>
-26.5761

> <Gold.PLP.part.repulsive>
0.1518

> <Gold.PLP.ligand.clash>
0.0000

> <Gold.PLP.ligand.torsion>
0.8214

> <Gold.PLP.Chemscore.Hbond>
2.0000

> <Gold.PLP.Chemscore.CHOScore>
1.0000

> <Gold.PLP.Chemscore.Metal>
0.0000

> <Gold.Chemscore.Hbonds>
donor molecule, donor type, donor heavy atom, donor atom, acceptor molecule, acceptor atom, score
      P1  H  7989  7998       L1     6  1.00
      P1  H  7997  8009       L1     5  1.00
      L1  C    15    31       P1  8028  1.00

> <Gold.PLP.Chemscore.Internal.Correction>
1.0543

> <Gold.Rescore>
     Score         DG    S(hbond)    S(metal)    S(lipo)     H(rot)  DE(clash)    DE(int)     intcor
     13.96     -16.19       1.95        0.00      85.92       2.29       0.00       2.22       ----

> <Gold.Chemscore.Fitness>
13.9632

> <Gold.Chemscore.DG>
-16.1878

> <Gold.Chemscore.ZeroCoef>
-5.4800

> <Gold.Chemscore.Hbond>
1.9509

> <Gold.Chemscore.Metal>
0.0000

> <Gold.Chemscore.Lipo>
85.9233

> <Gold.Chemscore.Internal_Hbond>
0.0000

> <Gold.Chemscore.DEClash>
0.0015

> <Gold.Chemscore.DEInternal>
2.2232

> <Gold.Chemscore.Rot>
2.2895

> <Gold.Chemscore.Internal.Correction>
   9.000000E+99

> <Gold.Chemscore.Hbonds>
donor molecule, donor type, donor heavy atom, donor atom, acceptor molecule, acceptor atom, score
      P1  H  7989  7998       L1     6  0.77
      P1  H  7997  8009       L1     5  0.96

> <Gold.Chemscore.Hbond.Weighted>
-6.5160

> <Gold.Chemscore.Metal.Weighted>
-0.0000

> <Gold.Chemscore.Lipo.Weighted>
-10.0530

> <Gold.Chemscore.Internal_Hbond.Weighted>
0.0000

> <Gold.Chemscore.DEClash.Weighted>
0.0015

> <Gold.Chemscore.DEInternal.Weighted>
2.2232

> <Gold.Chemscore.Rot.Weighted>
5.8612

> <Gold.Chemscore.Internal.Correction.Weighted>
   9.000000E+99

> <Gold.Protein.RotatedTorsions>
[ 6907 6896 6895 6894 ] final -169.34 input  -60.11 | X-H torsion
[ 7974 7965 7964 7962 ] final   68.38 input  175.53 | X-H torsion
[ 8008 7997 7996 7995 ] final -162.58 input   59.86 | X-H torsion
[ 10167 10162 10161 10158 ] final   68.14 input  -65.29 | X-H torsion
[ 10718 10713 10712 10709 ] final -120.43 input   66.30 | X-H torsion
[ 10763 10752 10751 10750 ] final  -51.42 input  -60.55 | X-H torsion
[ 11005 11000 10999 10996 ] final   56.38 input  -57.11 | X-H torsion

> <Gold.Protein.ActiveResidues>
 VAL166  LYS551  ARG553  GLY616  TRP617  ASP618  TYR619  PRO620  LYS621  CYS622 
 ASP623  PHE694  ASN695  SER759  ASP760  ASP761  ALA762  ILE779  LEU786  VAL792 
 PHE793  MET794  SER795  GLU796  ALA797  LYS798  CYS799  TRP800  GLU811  SER814 

> <Gold.Protein.RotatedAtoms>
  151.4900  133.3527  159.2851 H   0  0  0  0  0  0  0  0  0  0  0  0  # atno 6907 bound_to 6896
  150.8841  134.8238  159.7257 H   0  0  0  0  0  0  0  0  0  0  0  0  # atno 6908 bound_to 6896
  152.4781  134.4801  159.9715 H   0  0  0  0  0  0  0  0  0  0  0  0  # atno 6909 bound_to 6896
  145.8033  139.2993  143.1142 H   0  0  0  0  0  0  0  0  0  0  0  0  # atno 7974 bound_to 7965
  155.8088  140.0902  157.1915 H   0  0  0  0  0  0  0  0  0  0  0  0  # atno 8008 bound_to 7997
  154.3980  140.1458  156.3422 H   0  0  0  0  0  0  0  0  0  0  0  0  # atno 8009 bound_to 7997
  155.8386  140.3439  155.5620 H   0  0  0  0  0  0  0  0  0  0  0  0  # atno 8010 bound_to 7997
  140.0819  144.5063  150.7156 H   0  0  0  0  0  0  0  0  0  0  0  0  # atno 10167 bound_to 10162
  156.1258  130.6358  150.9540 H   0  0  0  0  0  0  0  0  0  0  0  0  # atno 10718 bound_to 10713
  154.1263  135.6527  153.4913 H   0  0  0  0  0  0  0  0  0  0  0  0  # atno 10763 bound_to 10752
  153.0209  135.5282  154.7046 H   0  0  0  0  0  0  0  0  0  0  0  0  # atno 10764 bound_to 10752
  154.6268  135.2971  155.0233 H   0  0  0  0  0  0  0  0  0  0  0  0  # atno 10765 bound_to 10752
  140.0533  134.5705  155.9237 H   0  0  0  0  0  0  0  0  0  0  0  0  # atno 11005 bound_to 11000
  145.9855  140.8647  143.0093 LP  0  0  0  0  0  0  0  0  0  0  0  0  # atno 17320 bound_to 7965
  144.6766  140.2141  143.7374 LP  0  0  0  0  0  0  0  0  0  0  0  0  # atno 17321 bound_to 7965
  140.7073  143.2478  151.4687 LP  0  0  0  0  0  0  0  0  0  0  0  0  # atno 17342 bound_to 10162
  139.5775  144.1786  152.1922 LP  0  0  0  0  0  0  0  0  0  0  0  0  # atno 17343 bound_to 10162
  157.6439  131.0906  150.8193 LP  0  0  0  0  0  0  0  0  0  0  0  0  # atno 17370 bound_to 10713
  156.8284  130.5007  149.5334 LP  0  0  0  0  0  0  0  0  0  0  0  0  # atno 17371 bound_to 10713
  141.1940  133.6581  156.5577 LP  0  0  0  0  0  0  0  0  0  0  0  0  # atno 17394 bound_to 11000
  140.3883  134.7463  157.4705 LP  0  0  0  0  0  0  0  0  0  0  0  0  # atno 17395 bound_to 11000

$$$$
