AV-unprocessed.smi:3113|AV-procd|sdf|11852|dock1
  -GOLD-   2272017233D 1   1.00000     0.00000
 Structure written by MMmdl.
 35 36  0  0  0  0  0  0  0  0  2 V2000
  150.6629  138.0933  155.1502 C   0  0  0  0  0  0  0  0  0  0  0  0
  150.2317  138.9064  154.0648 C   0  0  0  0  0  0  0  0  0  0  0  0
  150.3769  140.1994  154.3071 N   0  0  0  0  0  0  0  0  0  0  0  0
  150.9076  140.2540  155.5478 N   0  0  0  0  0  0  0  0  0  0  0  0
  151.2003  141.5412  156.1487 C   0  0  0  0  0  0  0  0  0  0  0  0
  150.3740  141.7790  157.4213 C   0  0  0  0  0  0  0  0  0  0  0  0
  150.2996  143.2168  157.7439 N   0  3  0  0  0  0  0  0  0  0  0  0
  151.6002  143.9131  157.6869 C   0  0  0  0  0  0  0  0  0  0  0  0
  152.4007  143.6956  158.9791 C   0  0  2  0  0  0  0  0  0  0  0  0
  152.8101  142.2207  159.1597 C   0  0  0  0  0  0  0  0  0  0  0  0
  153.5168  142.0162  160.5047 C   0  0  0  0  0  0  0  0  0  0  0  0
  152.6424  142.5667  161.6359 C   0  0  0  0  0  0  0  0  0  0  0  0
  152.2359  144.0180  161.3365 C   0  0  0  0  0  0  0  0  0  0  0  0
  151.5762  144.0870  160.0756 O   0  0  0  0  0  0  0  0  0  0  0  0
  151.0869  138.9956  156.0834 C   0  0  0  0  0  0  0  0  0  0  0  0
  150.6595  137.0163  155.2310 H   0  0  0  0  0  0  0  0  0  0  0  0
  149.8195  138.5975  153.1155 H   0  0  0  0  0  0  0  0  0  0  0  0
  152.2675  141.5840  156.3709 H   0  0  0  0  0  0  0  0  0  0  0  0
  150.9976  142.3207  155.4129 H   0  0  0  0  0  0  0  0  0  0  0  0
  149.3638  141.3894  157.2880 H   0  0  0  0  0  0  0  0  0  0  0  0
  150.8174  141.2466  158.2638 H   0  0  0  0  0  0  0  0  0  0  0  0
  149.6677  143.6622  157.0939 H   0  0  0  0  0  0  0  0  0  0  0  0
  152.1711  143.5616  156.8262 H   0  0  0  0  0  0  0  0  0  0  0  0
  151.4161  144.9780  157.5383 H   0  0  0  0  0  0  0  0  0  0  0  0
  153.2965  144.3195  158.9554 H   0  0  0  0  0  0  0  0  0  0  0  0
  151.9254  141.5839  159.1132 H   0  0  0  0  0  0  0  0  0  0  0  0
  153.4645  141.9067  158.3456 H   0  0  0  0  0  0  0  0  0  0  0  0
  153.7291  140.9591  160.6674 H   0  0  0  0  0  0  0  0  0  0  0  0
  154.4775  142.5326  160.4983 H   0  0  0  0  0  0  0  0  0  0  0  0
  151.7476  141.9520  161.7408 H   0  0  0  0  0  0  0  0  0  0  0  0
  153.1740  142.5112  162.5863 H   0  0  0  0  0  0  0  0  0  0  0  0
  151.5585  144.3837  162.1085 H   0  0  0  0  0  0  0  0  0  0  0  0
  153.1068  144.6754  161.3403 H   0  0  0  0  0  0  0  0  0  0  0  0
  151.4971  138.8469  157.0717 H   0  0  0  0  0  0  0  0  0  0  0  0
  149.9269  143.3168  158.6775 H   0  0  0  0  0  0  0  0  0  0  0  0
  1 15  2  0  0  0  0
  1  2  1  0  0  0  0
  1 16  1  0  0  0  0
  2  3  2  0  0  0  0
  2 17  1  0  0  0  0
  3  4  1  0  0  0  0
  4  5  1  0  0  0  0
  4 15  1  0  0  0  0
  5  6  1  0  0  0  0
  5 18  1  0  0  0  0
  5 19  1  0  0  0  0
  6  7  1  0  0  0  0
  6 20  1  0  0  0  0
  6 21  1  0  0  0  0
  7  8  1  0  0  0  0
  7 22  1  0  0  0  0
  7 35  1  0  0  0  0
  8  9  1  0  0  0  0
  8 23  1  0  0  0  0
  8 24  1  0  0  0  0
  9 14  1  0  0  0  0
  9 10  1  0  0  0  0
  9 25  1  0  0  0  0
 10 11  1  0  0  0  0
 10 26  1  0  0  0  0
 10 27  1  0  0  0  0
 11 12  1  0  0  0  0
 11 28  1  0  0  0  0
 11 29  1  0  0  0  0
 12 13  1  0  0  0  0
 12 30  1  0  0  0  0
 12 31  1  0  0  0  0
 13 14  1  0  0  0  0
 13 32  1  0  0  0  0
 13 33  1  0  0  0  0
 15 34  1  0  0  0  0
M  CHG  1   7   1
M  END
> <s_m_source_file>
AV-unprocessed.smi

> <i_m_source_file_index>
3113

> <i_lp_mmshare_version>
43012

> <i_f3d_flags>
0

> <s_epik_input>
W2NIXTFbY0hdW2NIXW5uMVtDSDJdW0NIMl1bTkhdW0NIMl1bQ0BASF0yW0NIMl1bQ0gyXVtDSDJdW0NIMl1PMg==

> <s_epik_cmdline>
J2VwaWtfcHl0aG9uJywgJy1waCcsICc3LjAnLCAnLXRuJywgJzgnLCAnLW1hJywgJzIwMCcsICctbWV0YWxfYmluZGluZycsICctaW1hZScsICc8aW5maWxlLm1hZT4nLCAnLW9tYWUnLCAnPG91dGZpbGUubWFlPic=

> <r_lp_tautomer_probability>
1

> <r_epik_Ionization_Penalty>
0.00849054

> <r_epik_Ionization_Penalty_Charging>
0.00848754

> <r_epik_Ionization_Penalty_Neutral>
3.00382e-06

> <r_epik_State_Penalty>
0.00639836

> <r_epik_Charging_Adjusted_Penalty>
0.0148859

> <i_epik_Tot_Q>
1

> <i_epik_Tot_abs_Q>
1

> <r_epik_Metal_State_Penalty>
0.00641155

> <b_epik_Metal_Only>
0

> <s_lp_Force_Field>
OPLS_2005

> <r_lp_Energy>
10.9258

> <b_lp_Chiralities_Consistent>
1

> <s_lp_Variant>
AV-unprocessed.smi:3113-1

> <Gold.Version>
5.8.1

> <Gold.Id.Protein>
6NUR|6NUR_protein|mol2

> <Gold.PLP.Fitness>
52.1532

> <Gold.PLP.PLP>
-39.4841

> <Gold.PLP.part.hbond>
-2.0000

> <Gold.PLP.part.metal>
0.0000

> <Gold.PLP.part.buried>
-5.2847

> <Gold.PLP.part.nonpolar>
-32.2405

> <Gold.PLP.part.repulsive>
0.2017

> <Gold.PLP.ligand.clash>
0.0000

> <Gold.PLP.ligand.torsion>
0.2664

> <Gold.PLP.Chemscore.Hbond>
3.0000

> <Gold.PLP.Chemscore.CHOScore>
1.3783

> <Gold.PLP.Chemscore.Metal>
0.0000

> <Gold.Chemscore.Hbonds>
donor molecule, donor type, donor heavy atom, donor atom, acceptor molecule, acceptor atom, score
      L1  H     7    22       P1  8028  2.00
      P1  H  7989  7998       L1     3  0.95
      L1  C     2    17       P1  7948  0.40
      L1  C     2    17       P1  7957  0.91

> <Gold.PLP.Chemscore.Internal.Correction>
0.0668

> <Gold.Rescore>
     Score         DG    S(hbond)    S(metal)    S(lipo)     H(rot)  DE(clash)    DE(int)     intcor
     19.05     -19.48       1.95        0.00     101.29       1.70       0.00       0.43       ----

> <Gold.Chemscore.Fitness>
19.0514

> <Gold.Chemscore.DG>
-19.4847

> <Gold.Chemscore.ZeroCoef>
-5.4800

> <Gold.Chemscore.Hbond>
1.9467

> <Gold.Chemscore.Metal>
0.0000

> <Gold.Chemscore.Lipo>
101.2908

> <Gold.Chemscore.Internal_Hbond>
0.0000

> <Gold.Chemscore.DEClash>
0.0021

> <Gold.Chemscore.DEInternal>
0.4311

> <Gold.Chemscore.Rot>
1.6985

> <Gold.Chemscore.Internal.Correction>
   9.000000E+99

> <Gold.Chemscore.Hbonds>
donor molecule, donor type, donor heavy atom, donor atom, acceptor molecule, acceptor atom, score
      L1  H     7    22       P1  8028  0.90
      P1  H  7989  7998       L1     3  0.18

> <Gold.Chemscore.Hbond.Weighted>
-6.5019

> <Gold.Chemscore.Metal.Weighted>
-0.0000

> <Gold.Chemscore.Lipo.Weighted>
-11.8510

> <Gold.Chemscore.Internal_Hbond.Weighted>
0.0000

> <Gold.Chemscore.DEClash.Weighted>
0.0021

> <Gold.Chemscore.DEInternal.Weighted>
0.4311

> <Gold.Chemscore.Rot.Weighted>
4.3482

> <Gold.Chemscore.Internal.Correction.Weighted>
   9.000000E+99

> <Gold.Protein.RotatedTorsions>
[ 6907 6896 6895 6894 ] final  -96.33 input  -60.11 | X-H torsion
[ 7974 7965 7964 7962 ] final   71.79 input  175.53 | X-H torsion
[ 8008 7997 7996 7995 ] final -106.71 input   59.86 | X-H torsion
[ 10167 10162 10161 10158 ] final -155.69 input  -65.29 | X-H torsion
[ 10718 10713 10712 10709 ] final  -96.61 input   66.30 | X-H torsion
[ 10763 10752 10751 10750 ] final  -21.45 input  -60.55 | X-H torsion
[ 11005 11000 10999 10996 ] final  -34.67 input  -57.11 | X-H torsion

> <Gold.Protein.ActiveResidues>
 VAL166  LYS551  ARG553  GLY616  TRP617  ASP618  TYR619  PRO620  LYS621  CYS622 
 ASP623  PHE694  ASN695  SER759  ASP760  ASP761  ALA762  ILE779  LEU786  VAL792 
 PHE793  MET794  SER795  GLU796  ALA797  LYS798  CYS799  TRP800  GLU811  SER814 

> <Gold.Protein.RotatedAtoms>
  150.6986  134.1519  159.4143 H   0  0  0  0  0  0  0  0  0  0  0  0  # atno 6907 bound_to 6896
  151.9501  135.0170  160.0551 H   0  0  0  0  0  0  0  0  0  0  0  0  # atno 6908 bound_to 6896
  152.2018  133.4811  159.5099 H   0  0  0  0  0  0  0  0  0  0  0  0  # atno 6909 bound_to 6896
  145.7614  139.2802  143.1374 H   0  0  0  0  0  0  0  0  0  0  0  0  # atno 7974 bound_to 7965
  154.9185  140.0408  157.1985 H   0  0  0  0  0  0  0  0  0  0  0  0  # atno 8008 bound_to 7997
  154.8277  140.2894  155.5722 H   0  0  0  0  0  0  0  0  0  0  0  0  # atno 8009 bound_to 7997
  156.2984  140.2506  156.3197 H   0  0  0  0  0  0  0  0  0  0  0  0  # atno 8010 bound_to 7997
  139.6911  143.9420  152.2385 H   0  0  0  0  0  0  0  0  0  0  0  0  # atno 10167 bound_to 10162
  156.0066  130.5159  150.6252 H   0  0  0  0  0  0  0  0  0  0  0  0  # atno 10718 bound_to 10713
  153.6364  135.6987  153.5257 H   0  0  0  0  0  0  0  0  0  0  0  0  # atno 10763 bound_to 10752
  153.2818  135.4183  155.1085 H   0  0  0  0  0  0  0  0  0  0  0  0  # atno 10764 bound_to 10752
  154.8510  135.3604  154.5907 H   0  0  0  0  0  0  0  0  0  0  0  0  # atno 10765 bound_to 10752
  140.9735  133.7096  156.1563 H   0  0  0  0  0  0  0  0  0  0  0  0  # atno 11005 bound_to 11000
  146.0260  140.8303  142.9900 LP  0  0  0  0  0  0  0  0  0  0  0  0  # atno 17320 bound_to 7965
  144.6829  140.2698  143.7307 LP  0  0  0  0  0  0  0  0  0  0  0  0  # atno 17321 bound_to 7965
  139.9236  144.6784  150.8436 LP  0  0  0  0  0  0  0  0  0  0  0  0  # atno 17342 bound_to 10162
  140.7683  143.3358  151.2313 LP  0  0  0  0  0  0  0  0  0  0  0  0  # atno 17343 bound_to 10162
  157.4060  131.0817  151.1265 LP  0  0  0  0  0  0  0  0  0  0  0  0  # atno 17370 bound_to 10713
  157.1911  130.6352  149.5705 LP  0  0  0  0  0  0  0  0  0  0  0  0  # atno 17371 bound_to 10713
  140.7294  134.4271  157.5567 LP  0  0  0  0  0  0  0  0  0  0  0  0  # atno 17394 bound_to 11000
  139.8921  134.8763  156.2286 LP  0  0  0  0  0  0  0  0  0  0  0  0  # atno 17395 bound_to 11000

$$$$
