AV-unprocessed.smi:3004|AV-procd|sdf|11441|dock2
  -GOLD-   2272016373D 1   1.00000     0.00000
 Structure written by MMmdl.
 47 48  0  0  0  0  0  0  0  0  2 V2000
  151.0229  141.9593  156.7794 C   0  0  0  0  0  0  0  0  0  0  0  0
  150.4469  140.8915  155.8972 C   0  0  0  0  0  0  0  0  0  0  0  0
  149.2526  140.9352  155.1253 C   0  0  0  0  0  0  0  0  0  0  0  0
  149.1987  139.7133  154.5161 C   0  0  0  0  0  0  0  0  0  0  0  0
  148.1845  139.1497  153.5760 C   0  0  0  0  0  0  0  0  0  0  0  0
  150.3159  139.0092  154.9299 N   0  0  0  0  0  0  0  0  0  0  0  0
  150.7376  137.6635  154.5728 C   0  0  0  0  0  0  0  0  0  0  0  0
  149.9197  136.6088  155.3196 C   0  0  0  0  0  0  0  0  0  0  0  0
  150.3759  136.0758  156.3312 O   0  0  0  0  0  0  0  0  0  0  0  0
  148.7119  136.3166  154.8122 N   0  0  0  0  0  0  0  0  0  0  0  0
  147.7817  135.3467  155.3756 C   0  0  0  0  0  0  0  0  0  0  0  0
  147.6204  134.1226  154.4522 C   0  0  0  0  0  0  0  0  0  0  0  0
  146.8650  134.4153  153.2037 N   0  3  2  0  0  0  0  0  0  0  0  0
  145.6934  135.2966  153.4595 C   0  0  0  0  0  0  0  0  0  0  0  0
  145.0472  135.7689  152.1475 C   0  0  0  0  0  0  0  0  0  0  0  0
  144.6491  134.5778  151.2700 C   0  0  0  0  0  0  0  0  0  0  0  0
  145.8685  133.6765  151.0343 C   0  0  0  0  0  0  0  0  0  0  0  0
  146.5282  133.2275  152.3558 C   0  0  2  0  0  0  0  0  0  0  0  0
  145.6935  132.1574  153.0918 C   0  0  0  0  0  0  0  0  0  0  0  0
  151.0803  139.7366  155.7742 N   0  0  0  0  0  0  0  0  0  0  0  0
  150.3450  142.8089  156.8630 H   0  0  0  0  0  0  0  0  0  0  0  0
  151.9690  142.3279  156.3822 H   0  0  0  0  0  0  0  0  0  0  0  0
  151.2065  141.5822  157.7859 H   0  0  0  0  0  0  0  0  0  0  0  0
  148.5415  141.7427  155.0332 H   0  0  0  0  0  0  0  0  0  0  0  0
  147.4042  139.8803  153.3616 H   0  0  0  0  0  0  0  0  0  0  0  0
  147.7080  138.2664  154.0015 H   0  0  0  0  0  0  0  0  0  0  0  0
  148.6457  138.8660  152.6300 H   0  0  0  0  0  0  0  0  0  0  0  0
  150.6304  137.5219  153.4961 H   0  0  0  0  0  0  0  0  0  0  0  0
  151.7977  137.5487  154.8024 H   0  0  0  0  0  0  0  0  0  0  0  0
  148.4178  136.8072  153.9795 H   0  0  0  0  0  0  0  0  0  0  0  0
  148.1621  135.0344  156.3485 H   0  0  0  0  0  0  0  0  0  0  0  0
  146.8289  135.8453  155.5547 H   0  0  0  0  0  0  0  0  0  0  0  0
  148.5886  133.6850  154.2083 H   0  0  0  0  0  0  0  0  0  0  0  0
  147.0800  133.3546  155.0078 H   0  0  0  0  0  0  0  0  0  0  0  0
  144.9616  134.7767  154.0786 H   0  0  0  0  0  0  0  0  0  0  0  0
  146.0116  136.1718  154.0271 H   0  0  0  0  0  0  0  0  0  0  0  0
  144.1722  136.3830  152.3621 H   0  0  0  0  0  0  0  0  0  0  0  0
  145.7464  136.4062  151.6043 H   0  0  0  0  0  0  0  0  0  0  0  0
  143.8485  134.0125  151.7484 H   0  0  0  0  0  0  0  0  0  0  0  0
  144.2531  134.9299  150.3171 H   0  0  0  0  0  0  0  0  0  0  0  0
  145.5829  132.8090  150.4381 H   0  0  0  0  0  0  0  0  0  0  0  0
  146.6004  134.2225  150.4375 H   0  0  0  0  0  0  0  0  0  0  0  0
  147.4632  132.7514  152.0637 H   0  0  0  0  0  0  0  0  0  0  0  0
  145.4572  131.3287  152.4239 H   0  0  0  0  0  0  0  0  0  0  0  0
  144.7485  132.5509  153.4647 H   0  0  0  0  0  0  0  0  0  0  0  0
  146.2346  131.7314  153.9362 H   0  0  0  0  0  0  0  0  0  0  0  0
  147.4914  134.9727  152.6406 H   0  0  0  0  0  0  0  0  0  0  0  0
  1  2  1  0  0  0  0
  1 21  1  0  0  0  0
  1 22  1  0  0  0  0
  1 23  1  0  0  0  0
  2 20  2  0  0  0  0
  2  3  1  0  0  0  0
  3  4  2  0  0  0  0
  3 24  1  0  0  0  0
  4  5  1  0  0  0  0
  4  6  1  0  0  0  0
  5 25  1  0  0  0  0
  5 26  1  0  0  0  0
  5 27  1  0  0  0  0
  6  7  1  0  0  0  0
  6 20  1  0  0  0  0
  7  8  1  0  0  0  0
  7 28  1  0  0  0  0
  7 29  1  0  0  0  0
  8  9  2  0  0  0  0
  8 10  1  0  0  0  0
 10 11  1  0  0  0  0
 10 30  1  0  0  0  0
 11 12  1  0  0  0  0
 11 31  1  0  0  0  0
 11 32  1  0  0  0  0
 12 13  1  0  0  0  0
 12 33  1  0  0  0  0
 12 34  1  0  0  0  0
 13 18  1  0  0  0  0
 13 14  1  0  0  0  0
 13 47  1  0  0  0  0
 14 15  1  0  0  0  0
 14 35  1  0  0  0  0
 14 36  1  0  0  0  0
 15 16  1  0  0  0  0
 15 37  1  0  0  0  0
 15 38  1  0  0  0  0
 16 17  1  0  0  0  0
 16 39  1  0  0  0  0
 16 40  1  0  0  0  0
 17 18  1  0  0  0  0
 17 41  1  0  0  0  0
 17 42  1  0  0  0  0
 18 19  1  0  0  0  0
 18 43  1  0  0  0  0
 19 44  1  0  0  0  0
 19 45  1  0  0  0  0
 19 46  1  0  0  0  0
M  CHG  1  13   1
M  END
> <s_m_source_file>
AV-unprocessed.smi

> <i_m_source_file_index>
3004

> <i_lp_mmshare_version>
43012

> <i_f3d_flags>
0

> <s_epik_input>
W0NIM11jMVtjSF1jKFtDSDNdKW4objEpW0NIMl1DKD1PKVtOSF1bQ0gyXVtDSDJdTjJbQ0gyXVtDSDJdW0NIMl1bQ0gyXVtDQEhdMltDSDNd

> <s_epik_cmdline>
J2VwaWtfcHl0aG9uJywgJy1waCcsICc3LjAnLCAnLXRuJywgJzgnLCAnLW1hJywgJzIwMCcsICctbWV0YWxfYmluZGluZycsICctaW1hZScsICc8aW5maWxlLm1hZT4nLCAnLW9tYWUnLCAnPG91dGZpbGUubWFlPic=

> <r_lp_tautomer_probability>
1

> <r_epik_Ionization_Penalty>
0.00303644

> <r_epik_Ionization_Penalty_Charging>
0.00284254

> <r_epik_Ionization_Penalty_Neutral>
0.000193908

> <r_epik_State_Penalty>
-0

> <r_epik_Charging_Adjusted_Penalty>
0.00284254

> <i_epik_Tot_Q>
1

> <i_epik_Tot_abs_Q>
1

> <r_epik_Metal_State_Penalty>
-0

> <b_epik_Metal_Only>
0

> <s_lp_Force_Field>
OPLS_2005

> <r_lp_Energy>
17.6316

> <b_lp_Chiralities_Consistent>
1

> <s_lp_Variant>
AV-unprocessed.smi:3004-3

> <Gold.Version>
5.8.1

> <Gold.Id.Protein>
6NUR|6NUR_protein|mol2

> <Gold.PLP.Fitness>
46.6154

> <Gold.PLP.PLP>
-37.5440

> <Gold.PLP.part.hbond>
-4.0000

> <Gold.PLP.part.metal>
0.0000

> <Gold.PLP.part.buried>
-2.2270

> <Gold.PLP.part.nonpolar>
-30.8874

> <Gold.PLP.part.repulsive>
0.1027

> <Gold.PLP.ligand.clash>
0.0000

> <Gold.PLP.ligand.torsion>
0.6776

> <Gold.PLP.Chemscore.Hbond>
3.4545

> <Gold.PLP.Chemscore.CHOScore>
0.0000

> <Gold.PLP.Chemscore.Metal>
0.0000

> <Gold.Chemscore.Hbonds>
donor molecule, donor type, donor heavy atom, donor atom, acceptor molecule, acceptor atom, score
      L1  H    10    30       P1  7948  0.22
      L1  H    13    47       P1  7948  1.89

> <Gold.PLP.Chemscore.Internal.Correction>
0.0632

> <Gold.Rescore>
     Score         DG    S(hbond)    S(metal)    S(lipo)     H(rot)  DE(clash)    DE(int)     intcor
     15.58     -16.34       1.93        0.00      74.31       1.67       0.00       0.76       ----

> <Gold.Chemscore.Fitness>
15.5799

> <Gold.Chemscore.DG>
-16.3444

> <Gold.Chemscore.ZeroCoef>
-5.4800

> <Gold.Chemscore.Hbond>
1.9265

> <Gold.Chemscore.Metal>
0.0000

> <Gold.Chemscore.Lipo>
74.3068

> <Gold.Chemscore.Internal_Hbond>
0.0000

> <Gold.Chemscore.DEClash>
0.0038

> <Gold.Chemscore.DEInternal>
0.7607

> <Gold.Chemscore.Rot>
1.6657

> <Gold.Chemscore.Internal.Correction>
   9.000000E+99

> <Gold.Chemscore.Hbonds>
donor molecule, donor type, donor heavy atom, donor atom, acceptor molecule, acceptor atom, score
      L1  H    10    30       P1  7948  0.22
      L1  H    13    47       P1  7948  0.89

> <Gold.Chemscore.Hbond.Weighted>
-6.4345

> <Gold.Chemscore.Metal.Weighted>
-0.0000

> <Gold.Chemscore.Lipo.Weighted>
-8.6939

> <Gold.Chemscore.Internal_Hbond.Weighted>
0.0000

> <Gold.Chemscore.DEClash.Weighted>
0.0038

> <Gold.Chemscore.DEInternal.Weighted>
0.7607

> <Gold.Chemscore.Rot.Weighted>
4.2641

> <Gold.Chemscore.Internal.Correction.Weighted>
   9.000000E+99

> <Gold.Protein.RotatedTorsions>
[ 6907 6896 6895 6894 ] final  146.74 input  -60.11 | X-H torsion
[ 7974 7965 7964 7962 ] final -152.42 input  175.53 | X-H torsion
[ 8008 7997 7996 7995 ] final  115.46 input   59.86 | X-H torsion
[ 10167 10162 10161 10158 ] final  -44.89 input  -65.29 | X-H torsion
[ 10718 10713 10712 10709 ] final -155.36 input   66.30 | X-H torsion
[ 10763 10752 10751 10750 ] final  -42.20 input  -60.55 | X-H torsion
[ 11005 11000 10999 10996 ] final  101.84 input  -57.11 | X-H torsion

> <Gold.Protein.ActiveResidues>
 VAL166  LYS551  ARG553  GLY616  TRP617  ASP618  TYR619  PRO620  LYS621  CYS622 
 ASP623  PHE694  ASN695  SER759  ASP760  ASP761  ALA762  ILE779  LEU786  VAL792 
 PHE793  MET794  SER795  GLU796  ALA797  LYS798  CYS799  TRP800  GLU811  SER814 

> <Gold.Protein.RotatedAtoms>
  152.1640  133.4600  159.4874 H   0  0  0  0  0  0  0  0  0  0  0  0  # atno 6907 bound_to 6896
  150.6910  134.2037  159.4341 H   0  0  0  0  0  0  0  0  0  0  0  0  # atno 6908 bound_to 6896
  151.9940  134.9963  160.0613 H   0  0  0  0  0  0  0  0  0  0  0  0  # atno 6909 bound_to 6896
  144.7795  140.4664  143.5849 H   0  0  0  0  0  0  0  0  0  0  0  0  # atno 7974 bound_to 7965
  156.2382  140.2938  156.0371 H   0  0  0  0  0  0  0  0  0  0  0  0  # atno 8008 bound_to 7997
  155.2028  140.0410  157.2937 H   0  0  0  0  0  0  0  0  0  0  0  0  # atno 8009 bound_to 7997
  154.6119  140.2454  155.7666 H   0  0  0  0  0  0  0  0  0  0  0  0  # atno 8010 bound_to 7997
  140.6879  143.2907  151.3560 H   0  0  0  0  0  0  0  0  0  0  0  0  # atno 10167 bound_to 10162
  156.5118  130.8438  151.2649 H   0  0  0  0  0  0  0  0  0  0  0  0  # atno 10718 bound_to 10713
  153.9750  135.6724  153.4748 H   0  0  0  0  0  0  0  0  0  0  0  0  # atno 10763 bound_to 10752
  153.0775  135.4941  154.8431 H   0  0  0  0  0  0  0  0  0  0  0  0  # atno 10764 bound_to 10752
  154.7197  135.3114  154.9028 H   0  0  0  0  0  0  0  0  0  0  0  0  # atno 10765 bound_to 10752
  139.8775  134.9199  156.4967 H   0  0  0  0  0  0  0  0  0  0  0  0  # atno 11005 bound_to 11000
  145.6090  139.1511  143.3086 LP  0  0  0  0  0  0  0  0  0  0  0  0  # atno 17320 bound_to 7965
  146.1995  140.6207  142.9109 LP  0  0  0  0  0  0  0  0  0  0  0  0  # atno 17321 bound_to 7965
  139.6254  144.0824  152.2430 LP  0  0  0  0  0  0  0  0  0  0  0  0  # atno 17342 bound_to 10162
  140.0281  144.6101  150.7510 LP  0  0  0  0  0  0  0  0  0  0  0  0  # atno 17343 bound_to 10162
  157.7449  130.9947  150.2717 LP  0  0  0  0  0  0  0  0  0  0  0  0  # atno 17370 bound_to 10713
  156.3233  130.3789  149.7556 LP  0  0  0  0  0  0  0  0  0  0  0  0  # atno 17371 bound_to 10713
  140.8619  133.8053  155.9274 LP  0  0  0  0  0  0  0  0  0  0  0  0  # atno 17394 bound_to 11000
  140.9040  134.2343  157.5025 LP  0  0  0  0  0  0  0  0  0  0  0  0  # atno 17395 bound_to 11000

$$$$
