AV-unprocessed.smi:3348|AV-procd|sdf|12919|dock7
  -GOLD-   2272019343D 1   1.00000     0.00000
 Structure written by MMmdl.
 47 48  0  0  0  0  0  0  0  0  2 V2000
  147.7873  141.1435  155.7742 C   0  0  0  0  0  0  0  0  0  0  0  0
  148.8345  141.4530  154.6904 C   0  0  2  0  0  0  0  0  0  0  0  0
  149.4987  140.1793  154.1176 C   0  0  0  0  0  0  0  0  0  0  0  0
  148.5865  139.3738  153.3247 N   0  0  0  0  0  0  0  0  0  0  0  0
  148.0922  139.6319  152.0634 C   0  0  0  0  0  0  0  0  0  0  0  0
  147.2708  138.5939  151.7285 C   0  0  0  0  0  0  0  0  0  0  0  0
  147.3304  137.7361  152.8622 C   0  0  0  0  0  0  0  0  0  0  0  0
  148.1196  138.2053  153.8155 N   0  0  0  0  0  0  0  0  0  0  0  0
  149.8453  142.3805  155.2459 N   0  3  0  0  0  0  0  0  0  0  0  0
  150.6108  141.8737  156.4052 C   0  0  0  0  0  0  0  0  0  0  0  0
  151.3094  143.0228  157.1383 C   0  0  0  0  0  0  0  0  0  0  0  0
  151.7855  142.5358  158.3833 O   0  0  0  0  0  0  0  0  0  0  0  0
  152.7968  143.3354  158.9874 C   0  0  2  0  0  0  0  0  0  0  0  0
  153.7675  142.4539  159.8017 C   0  0  0  0  0  0  0  0  0  0  0  0
  153.0665  141.7889  160.9976 C   0  0  0  0  0  0  0  0  0  0  0  0
  152.3860  142.8338  161.8948 C   0  0  0  0  0  0  0  0  0  0  0  0
  151.4117  143.7102  161.0915 C   0  0  0  0  0  0  0  0  0  0  0  0
  152.1118  144.3826  159.8936 C   0  0  2  0  0  0  0  0  0  0  0  0
  151.1516  145.2870  159.1045 C   0  0  0  0  0  0  0  0  0  0  0  0
  146.9594  140.5547  155.3786 H   0  0  0  0  0  0  0  0  0  0  0  0
  147.3606  142.0607  156.1817 H   0  0  0  0  0  0  0  0  0  0  0  0
  148.2269  140.5849  156.6017 H   0  0  0  0  0  0  0  0  0  0  0  0
  148.3169  141.9712  153.8817 H   0  0  0  0  0  0  0  0  0  0  0  0
  150.3448  140.4366  153.4804 H   0  0  0  0  0  0  0  0  0  0  0  0
  149.8967  139.5650  154.9274 H   0  0  0  0  0  0  0  0  0  0  0  0
  148.3612  140.5235  151.5162 H   0  0  0  0  0  0  0  0  0  0  0  0
  146.7132  138.4651  150.8127 H   0  0  0  0  0  0  0  0  0  0  0  0
  146.8273  136.7933  153.0191 H   0  0  0  0  0  0  0  0  0  0  0  0
  150.5096  142.5802  154.5119 H   0  0  0  0  0  0  0  0  0  0  0  0
  149.9548  141.3421  157.0944 H   0  0  0  0  0  0  0  0  0  0  0  0
  151.3583  141.1613  156.0545 H   0  0  0  0  0  0  0  0  0  0  0  0
  152.1385  143.3921  156.5349 H   0  0  0  0  0  0  0  0  0  0  0  0
  150.6161  143.8522  157.2869 H   0  0  0  0  0  0  0  0  0  0  0  0
  153.3555  143.8690  158.2160 H   0  0  0  0  0  0  0  0  0  0  0  0
  154.2268  141.6938  159.1705 H   0  0  0  0  0  0  0  0  0  0  0  0
  154.5877  143.0717  160.1692 H   0  0  0  0  0  0  0  0  0  0  0  0
  152.3243  141.0750  160.6384 H   0  0  0  0  0  0  0  0  0  0  0  0
  153.7893  141.2156  161.5787 H   0  0  0  0  0  0  0  0  0  0  0  0
  151.8551  142.3373  162.7076 H   0  0  0  0  0  0  0  0  0  0  0  0
  153.1443  143.4637  162.3614 H   0  0  0  0  0  0  0  0  0  0  0  0
  150.5777  143.1008  160.7408 H   0  0  0  0  0  0  0  0  0  0  0  0
  150.9822  144.4698  161.7457 H   0  0  0  0  0  0  0  0  0  0  0  0
  152.8953  145.0275  160.2950 H   0  0  0  0  0  0  0  0  0  0  0  0
  150.3173  144.7204  158.6900 H   0  0  0  0  0  0  0  0  0  0  0  0
  151.6648  145.7779  158.2771 H   0  0  0  0  0  0  0  0  0  0  0  0
  150.7360  146.0670  159.7429 H   0  0  0  0  0  0  0  0  0  0  0  0
  149.3902  143.2445  155.5053 H   0  0  0  0  0  0  0  0  0  0  0  0
  1  2  1  0  0  0  0
  1 20  1  0  0  0  0
  1 21  1  0  0  0  0
  1 22  1  0  0  0  0
  2  3  1  0  0  0  0
  2  9  1  0  0  0  0
  2 23  1  0  0  0  0
  3  4  1  0  0  0  0
  3 24  1  0  0  0  0
  3 25  1  0  0  0  0
  4  8  1  0  0  0  0
  4  5  1  0  0  0  0
  5  6  2  0  0  0  0
  5 26  1  0  0  0  0
  6  7  1  0  0  0  0
  6 27  1  0  0  0  0
  7  8  2  0  0  0  0
  7 28  1  0  0  0  0
  9 10  1  0  0  0  0
  9 29  1  0  0  0  0
  9 47  1  0  0  0  0
 10 11  1  0  0  0  0
 10 30  1  0  0  0  0
 10 31  1  0  0  0  0
 11 12  1  0  0  0  0
 11 32  1  0  0  0  0
 11 33  1  0  0  0  0
 12 13  1  0  0  0  0
 13 18  1  0  0  0  0
 13 14  1  0  0  0  0
 13 34  1  0  0  0  0
 14 15  1  0  0  0  0
 14 35  1  0  0  0  0
 14 36  1  0  0  0  0
 15 16  1  0  0  0  0
 15 37  1  0  0  0  0
 15 38  1  0  0  0  0
 16 17  1  0  0  0  0
 16 39  1  0  0  0  0
 16 40  1  0  0  0  0
 17 18  1  0  0  0  0
 17 41  1  0  0  0  0
 17 42  1  0  0  0  0
 18 19  1  0  0  0  0
 18 43  1  0  0  0  0
 19 44  1  0  0  0  0
 19 45  1  0  0  0  0
 19 46  1  0  0  0  0
M  CHG  1   9   1
M  END
> <s_m_source_file>
AV-unprocessed.smi

> <i_m_source_file_index>
3348

> <i_lp_mmshare_version>
43012

> <i_f3d_flags>
0

> <s_epik_input>
bjFbY0hdW2NIXVtjSF1uMVtDSDJdW0NAQEhdKFtDSDNdKVtOSF1bQ0gyXVtDSDJdT1tDQEBIXTJbQ0gyXVtDSDJdW0NIMl1bQ0gyXVtDQEhdMltDSDNd

> <s_epik_cmdline>
J2VwaWtfcHl0aG9uJywgJy1waCcsICc3LjAnLCAnLXRuJywgJzgnLCAnLW1hJywgJzIwMCcsICctbWV0YWxfYmluZGluZycsICctaW1hZScsICc8aW5maWxlLm1hZT4nLCAnLW9tYWUnLCAnPG91dGZpbGUubWFlPic=

> <r_lp_tautomer_probability>
1

> <r_epik_Ionization_Penalty>
0.00925088

> <r_epik_Ionization_Penalty_Charging>
0.00924645

> <r_epik_Ionization_Penalty_Neutral>
4.42413e-06

> <r_epik_State_Penalty>
0.0070118

> <r_epik_Charging_Adjusted_Penalty>
0.0162583

> <i_epik_Tot_Q>
1

> <i_epik_Tot_abs_Q>
1

> <r_epik_Metal_State_Penalty>
0.00701222

> <b_epik_Metal_Only>
0

> <s_lp_Force_Field>
OPLS_2005

> <r_lp_Energy>
17.0128

> <b_lp_Chiralities_Consistent>
1

> <s_lp_Variant>
AV-unprocessed.smi:3348-5

> <Gold.Version>
5.8.1

> <Gold.Id.Protein>
6NUR|6NUR_protein|mol2

> <Gold.PLP.Fitness>
50.7890

> <Gold.PLP.PLP>
-44.0830

> <Gold.PLP.part.hbond>
-1.0000

> <Gold.PLP.part.metal>
0.0000

> <Gold.PLP.part.buried>
-2.5297

> <Gold.PLP.part.nonpolar>
-41.6177

> <Gold.PLP.part.repulsive>
0.3179

> <Gold.PLP.ligand.clash>
0.0000

> <Gold.PLP.ligand.torsion>
0.7815

> <Gold.PLP.Chemscore.Hbond>
2.0000

> <Gold.PLP.Chemscore.CHOScore>
0.7248

> <Gold.PLP.Chemscore.Metal>
0.0000

> <Gold.Chemscore.Hbonds>
donor molecule, donor type, donor heavy atom, donor atom, acceptor molecule, acceptor atom, score
      L1  H     9    47       P1  8028  2.00

> <Gold.PLP.Chemscore.Internal.Correction>
0.0947

> <Gold.Rescore>
     Score         DG    S(hbond)    S(metal)    S(lipo)     H(rot)  DE(clash)    DE(int)     intcor
     17.63     -19.32       1.00        0.00     129.47       1.82       0.13       1.57       ----

> <Gold.Chemscore.Fitness>
17.6261

> <Gold.Chemscore.DG>
-19.3179

> <Gold.Chemscore.ZeroCoef>
-5.4800

> <Gold.Chemscore.Hbond>
0.9999

> <Gold.Chemscore.Metal>
0.0000

> <Gold.Chemscore.Lipo>
129.4706

> <Gold.Chemscore.Internal_Hbond>
0.0000

> <Gold.Chemscore.DEClash>
0.1262

> <Gold.Chemscore.DEInternal>
1.5656

> <Gold.Chemscore.Rot>
1.8163

> <Gold.Chemscore.Internal.Correction>
   9.000000E+99

> <Gold.Chemscore.Hbonds>
donor molecule, donor type, donor heavy atom, donor atom, acceptor molecule, acceptor atom, score
      L1  H     9    47       P1  8028  0.96

> <Gold.Chemscore.Hbond.Weighted>
-3.3396

> <Gold.Chemscore.Metal.Weighted>
-0.0000

> <Gold.Chemscore.Lipo.Weighted>
-15.1481

> <Gold.Chemscore.Internal_Hbond.Weighted>
0.0000

> <Gold.Chemscore.DEClash.Weighted>
0.1262

> <Gold.Chemscore.DEInternal.Weighted>
1.5656

> <Gold.Chemscore.Rot.Weighted>
4.6497

> <Gold.Chemscore.Internal.Correction.Weighted>
   9.000000E+99

> <Gold.Protein.RotatedTorsions>
[ 6907 6896 6895 6894 ] final   70.05 input  -60.11 | X-H torsion
[ 7974 7965 7964 7962 ] final   19.40 input  175.53 | X-H torsion
[ 8008 7997 7996 7995 ] final   37.02 input   59.86 | X-H torsion
[ 10167 10162 10161 10158 ] final  154.68 input  -65.29 | X-H torsion
[ 10718 10713 10712 10709 ] final -144.27 input   66.30 | X-H torsion
[ 10763 10752 10751 10750 ] final -111.31 input  -60.55 | X-H torsion
[ 11005 11000 10999 10996 ] final   82.13 input  -57.11 | X-H torsion

> <Gold.Protein.ActiveResidues>
 VAL166  LYS551  ARG553  GLY616  TRP617  ASP618  TYR619  PRO620  LYS621  CYS622 
 ASP623  PHE694  ASN695  SER759  ASP760  ASP761  ALA762  ILE779  LEU786  VAL792 
 PHE793  MET794  SER795  GLU796  ALA797  LYS798  CYS799  TRP800  GLU811  SER814 

> <Gold.Protein.RotatedAtoms>
  152.4725  134.4925  159.9699 H   0  0  0  0  0  0  0  0  0  0  0  0  # atno 6907 bound_to 6896
  151.4948  133.3511  159.2867 H   0  0  0  0  0  0  0  0  0  0  0  0  # atno 6908 bound_to 6896
  150.8744  134.8151  159.7240 H   0  0  0  0  0  0  0  0  0  0  0  0  # atno 6909 bound_to 6896
  146.2150  139.8319  142.8658 H   0  0  0  0  0  0  0  0  0  0  0  0  # atno 7974 bound_to 7965
  155.1969  140.3312  155.4349 H   0  0  0  0  0  0  0  0  0  0  0  0  # atno 8008 bound_to 7997
  156.2421  140.1900  156.7009 H   0  0  0  0  0  0  0  0  0  0  0  0  # atno 8009 bound_to 7997
  154.6167  140.0601  156.9549 H   0  0  0  0  0  0  0  0  0  0  0  0  # atno 8010 bound_to 7997
  139.4822  144.5165  151.7943 H   0  0  0  0  0  0  0  0  0  0  0  0  # atno 10167 bound_to 10162
  156.3681  130.7773  151.1950 H   0  0  0  0  0  0  0  0  0  0  0  0  # atno 10718 bound_to 10713
  154.8293  135.4532  154.1019 H   0  0  0  0  0  0  0  0  0  0  0  0  # atno 10763 bound_to 10752
  153.2306  135.6905  153.7901 H   0  0  0  0  0  0  0  0  0  0  0  0  # atno 10764 bound_to 10752
  153.7285  135.3330  155.3257 H   0  0  0  0  0  0  0  0  0  0  0  0  # atno 10765 bound_to 10752
  139.9074  134.8048  156.2134 H   0  0  0  0  0  0  0  0  0  0  0  0  # atno 11005 bound_to 11000
  145.2989  141.0188  143.3620 LP  0  0  0  0  0  0  0  0  0  0  0  0  # atno 17320 bound_to 7965
  144.9021  139.4636  143.6627 LP  0  0  0  0  0  0  0  0  0  0  0  0  # atno 17321 bound_to 7965
  140.4674  144.1636  150.5913 LP  0  0  0  0  0  0  0  0  0  0  0  0  # atno 17342 bound_to 10162
  140.4419  143.2523  151.9461 LP  0  0  0  0  0  0  0  0  0  0  0  0  # atno 17343 bound_to 10162
  157.7481  131.0380  150.4483 LP  0  0  0  0  0  0  0  0  0  0  0  0  # atno 17370 bound_to 10713
  156.4706  130.4052  149.6521 LP  0  0  0  0  0  0  0  0  0  0  0  0  # atno 17371 bound_to 10713
  141.0451  133.6917  156.1669 LP  0  0  0  0  0  0  0  0  0  0  0  0  # atno 17394 bound_to 11000
  140.6896  134.4680  157.5589 LP  0  0  0  0  0  0  0  0  0  0  0  0  # atno 17395 bound_to 11000

$$$$
