AV-unprocessed.smi:2775|AV-procd|sdf|10697|dock3
  -GOLD-   2272015133D 1   1.00000     0.00000
 Structure written by MMmdl.
 43 46  0  0  0  0  0  0  0  0  2 V2000
  144.0212  132.5737  150.3521 C   0  0  0  0  0  0  0  0  0  0  0  0
  144.0656  133.8087  151.2313 C   0  0  0  0  0  0  0  0  0  0  0  0
  142.8897  134.3222  151.6543 N   0  3  0  0  0  0  0  0  0  0  0  0
  142.8055  135.4119  152.4450 C   0  0  0  0  0  0  0  0  0  0  0  0
  143.9784  136.0710  152.8618 C   0  0  0  0  0  0  0  0  0  0  0  0
  145.2402  135.5839  152.4351 C   0  0  0  0  0  0  0  0  0  0  0  0
  146.4794  136.1709  152.8138 N   0  0  0  0  0  0  0  0  0  0  0  0
  146.7645  136.9893  153.8449 C   0  0  0  0  0  0  0  0  0  0  0  0
  145.9460  137.4025  154.6627 O   0  0  0  0  0  0  0  0  0  0  0  0
  148.0578  137.3502  153.9078 N   0  0  0  0  0  0  0  0  0  0  0  0
  148.6881  138.2232  154.8983 C   0  0  1  0  0  0  0  0  0  0  0  0
  150.1974  138.3557  154.6867 C   0  0  2  0  0  0  0  0  0  0  0  0
  151.3914  137.8730  155.4282 C   0  0  0  0  0  0  0  0  0  0  0  0
  152.2154  139.1846  155.3725 C   0  0  0  0  0  0  0  0  0  0  0  0
  151.3155  140.1942  154.8540 O   0  0  0  0  0  0  0  0  0  0  0  0
  150.0308  139.7571  155.2537 C   0  0  1  0  0  0  0  0  0  0  0  0
  148.6847  139.7430  154.5177 C   0  0  0  0  0  0  0  0  0  0  0  0
  147.5386  140.6739  154.9311 C   0  0  0  0  0  0  0  0  0  0  0  0
  147.1306  140.7598  153.4561 C   0  0  0  0  0  0  0  0  0  0  0  0
  148.5321  140.2689  153.0783 C   0  0  0  0  0  0  0  0  0  0  0  0
  145.2783  134.4273  151.6170 C   0  0  0  0  0  0  0  0  0  0  0  0
  146.7929  133.7739  151.0878 Cl  0  0  0  0  0  0  0  0  0  0  0  0
  144.4980  132.7736  149.3922 H   0  0  0  0  0  0  0  0  0  0  0  0
  142.9955  132.2565  150.1608 H   0  0  0  0  0  0  0  0  0  0  0  0
  144.5464  131.7478  150.8322 H   0  0  0  0  0  0  0  0  0  0  0  0
  141.8082  135.7197  152.7235 H   0  0  0  0  0  0  0  0  0  0  0  0
  143.8823  136.9281  153.5094 H   0  0  0  0  0  0  0  0  0  0  0  0
  147.2496  135.9787  152.1897 H   0  0  0  0  0  0  0  0  0  0  0  0
  148.6676  136.9846  153.1905 H   0  0  0  0  0  0  0  0  0  0  0  0
  148.4178  138.0153  155.9374 H   0  0  0  0  0  0  0  0  0  0  0  0
  150.4182  138.3724  153.6128 H   0  0  0  0  0  0  0  0  0  0  0  0
  151.1476  137.5865  156.4521 H   0  0  0  0  0  0  0  0  0  0  0  0
  151.8917  137.0410  154.9320 H   0  0  0  0  0  0  0  0  0  0  0  0
  152.5677  139.4634  156.3663 H   0  0  0  0  0  0  0  0  0  0  0  0
  153.0827  139.0957  154.7177 H   0  0  0  0  0  0  0  0  0  0  0  0
  149.9129  139.7856  156.3422 H   0  0  0  0  0  0  0  0  0  0  0  0
  146.7920  140.2226  155.5842 H   0  0  0  0  0  0  0  0  0  0  0  0
  147.8940  141.6274  155.3245 H   0  0  0  0  0  0  0  0  0  0  0  0
  146.3483  140.0474  153.1912 H   0  0  0  0  0  0  0  0  0  0  0  0
  146.8932  141.7659  153.1091 H   0  0  0  0  0  0  0  0  0  0  0  0
  149.2179  141.0886  152.8590 H   0  0  0  0  0  0  0  0  0  0  0  0
  148.5516  139.5116  152.2944 H   0  0  0  0  0  0  0  0  0  0  0  0
  142.0257  133.8617  151.3667 H   0  0  0  0  0  0  0  0  0  0  0  0
  1  2  1  0  0  0  0
  1 23  1  0  0  0  0
  1 24  1  0  0  0  0
  1 25  1  0  0  0  0
  2 21  1  0  0  0  0
  2  3  2  0  0  0  0
  3  4  1  0  0  0  0
  3 43  1  0  0  0  0
  4  5  2  0  0  0  0
  4 26  1  0  0  0  0
  5  6  1  0  0  0  0
  5 27  1  0  0  0  0
  6  7  1  0  0  0  0
  6 21  2  0  0  0  0
  7  8  1  0  0  0  0
  7 28  1  0  0  0  0
  8  9  2  0  0  0  0
  8 10  1  0  0  0  0
 10 11  1  0  0  0  0
 10 29  1  0  0  0  0
 11 17  1  0  0  0  0
 11 12  1  0  0  0  0
 11 30  1  0  0  0  0
 12 16  1  0  0  0  0
 12 13  1  0  0  0  0
 12 31  1  0  0  0  0
 13 14  1  0  0  0  0
 13 32  1  0  0  0  0
 13 33  1  0  0  0  0
 14 15  1  0  0  0  0
 14 34  1  0  0  0  0
 14 35  1  0  0  0  0
 15 16  1  0  0  0  0
 16 17  1  0  0  0  0
 16 36  1  0  0  0  0
 17 20  1  0  0  0  0
 17 18  1  0  0  0  0
 18 19  1  0  0  0  0
 18 37  1  0  0  0  0
 18 38  1  0  0  0  0
 19 20  1  0  0  0  0
 19 39  1  0  0  0  0
 19 40  1  0  0  0  0
 20 41  1  0  0  0  0
 20 42  1  0  0  0  0
 21 22  1  0  0  0  0
M  CHG  1   3   1
M  END
> <s_m_source_file>
AV-unprocessed.smi

> <i_m_source_file_index>
2775

> <i_lp_mmshare_version>
43012

> <i_f3d_flags>
0

> <s_epik_input>
W0NIM11jMW5bY0hdW2NIXWMoYzFDbClbTkhdQyg9TylbTkhdW0NAQEhdMltDQEhdKFtDSDJdW0NIMl1PMylbQ0BASF0zQzI0W0NIMl1bQ0gyXVtDSDJdNA==

> <s_epik_cmdline>
J2VwaWtfcHl0aG9uJywgJy1waCcsICc3LjAnLCAnLXRuJywgJzgnLCAnLW1hJywgJzIwMCcsICctbWV0YWxfYmluZGluZycsICctaW1hZScsICc8aW5maWxlLm1hZT4nLCAnLW9tYWUnLCAnPG91dGZpbGUubWFlPic=

> <r_epik_Ionization_Penalty>
2.4104

> <r_epik_Ionization_Penalty_Charging>
2.41038

> <r_epik_Ionization_Penalty_Neutral>
1.9872e-05

> <r_epik_State_Penalty>
2.56896

> <r_epik_Charging_Adjusted_Penalty>
4.97934

> <i_epik_Tot_Q>
1

> <i_epik_Tot_abs_Q>
1

> <r_epik_Metal_State_Penalty>
2.57906

> <b_epik_Metal_Only>
0

> <s_lp_Force_Field>
OPLS_2005

> <r_lp_Energy>
84.4101

> <b_lp_Chiralities_Consistent>
1

> <s_lp_Variant>
AV-unprocessed.smi:2775-10

> <Gold.Version>
5.8.1

> <Gold.Id.Protein>
6NUR|6NUR_protein|mol2

> <Gold.PLP.Fitness>
40.6826

> <Gold.PLP.PLP>
-30.6673

> <Gold.PLP.part.hbond>
-3.7860

> <Gold.PLP.part.metal>
0.0000

> <Gold.PLP.part.buried>
1.1501

> <Gold.PLP.part.nonpolar>
-27.4263

> <Gold.PLP.part.repulsive>
0.1433

> <Gold.PLP.ligand.clash>
0.0000

> <Gold.PLP.ligand.torsion>
0.2822

> <Gold.PLP.Chemscore.Hbond>
3.4205

> <Gold.PLP.Chemscore.CHOScore>
0.0000

> <Gold.PLP.Chemscore.Metal>
0.0000

> <Gold.Chemscore.Hbonds>
donor molecule, donor type, donor heavy atom, donor atom, acceptor molecule, acceptor atom, score
      L1  H     3    43       P1 10186  0.47
      L1  H     7    28       P1  7948  0.94
      L1  H    10    29       P1  7948  1.00
      P1  H  7989  7998       L1    15  1.00

> <Gold.PLP.Chemscore.Internal.Correction>
0.3183

> <Gold.Rescore>
     Score         DG    S(hbond)    S(metal)    S(lipo)     H(rot)  DE(clash)    DE(int)     intcor
     19.85     -23.27       2.82        0.00      93.37       1.00       2.04       1.39       ----

> <Gold.Chemscore.Fitness>
19.8458

> <Gold.Chemscore.DG>
-23.2744

> <Gold.Chemscore.ZeroCoef>
-5.4800

> <Gold.Chemscore.Hbond>
2.8235

> <Gold.Chemscore.Metal>
0.0000

> <Gold.Chemscore.Lipo>
93.3677

> <Gold.Chemscore.Internal_Hbond>
0.0000

> <Gold.Chemscore.DEClash>
2.0433

> <Gold.Chemscore.DEInternal>
1.3853

> <Gold.Chemscore.Rot>
1.0000

> <Gold.Chemscore.Internal.Correction>
   9.000000E+99

> <Gold.Chemscore.Hbonds>
donor molecule, donor type, donor heavy atom, donor atom, acceptor molecule, acceptor atom, score
      L1  H     3    43       P1 10186  0.03
      L1  H     7    28       P1  7948  0.92
      L1  H    10    29       P1  7948  0.93
      P1  H  7989  7998       L1    15  0.90

> <Gold.Chemscore.Hbond.Weighted>
-9.4304

> <Gold.Chemscore.Metal.Weighted>
-0.0000

> <Gold.Chemscore.Lipo.Weighted>
-10.9240

> <Gold.Chemscore.Internal_Hbond.Weighted>
0.0000

> <Gold.Chemscore.DEClash.Weighted>
2.0433

> <Gold.Chemscore.DEInternal.Weighted>
1.3853

> <Gold.Chemscore.Rot.Weighted>
2.5600

> <Gold.Chemscore.Internal.Correction.Weighted>
   9.000000E+99

> <Gold.Protein.RotatedTorsions>
[ 6907 6896 6895 6894 ] final  -52.39 input  -60.11 | X-H torsion
[ 7974 7965 7964 7962 ] final  -98.21 input  175.53 | X-H torsion
[ 8008 7997 7996 7995 ] final  107.78 input   59.86 | X-H torsion
[ 10167 10162 10161 10158 ] final -146.92 input  -65.29 | X-H torsion
[ 10718 10713 10712 10709 ] final -176.21 input   66.30 | X-H torsion
[ 10763 10752 10751 10750 ] final   23.36 input  -60.55 | X-H torsion
[ 11005 11000 10999 10996 ] final -163.81 input  -57.11 | X-H torsion

> <Gold.Protein.ActiveResidues>
 VAL166  LYS551  ARG553  GLY616  TRP617  ASP618  TYR619  PRO620  LYS621  CYS622 
 ASP623  PHE694  ASN695  SER759  ASP760  ASP761  ALA762  ILE779  LEU786  VAL792 
 PHE793  MET794  SER795  GLU796  ALA797  LYS798  CYS799  TRP800  GLU811  SER814 

> <Gold.Protein.RotatedAtoms>
  150.8522  134.7850  159.7017 H   0  0  0  0  0  0  0  0  0  0  0  0  # atno 6907 bound_to 6896
  152.4583  134.5238  159.9800 H   0  0  0  0  0  0  0  0  0  0  0  0  # atno 6908 bound_to 6896
  151.5356  133.3403  159.2962 H   0  0  0  0  0  0  0  0  0  0  0  0  # atno 6909 bound_to 6896
  145.3236  140.9427  143.2702 H   0  0  0  0  0  0  0  0  0  0  0  0  # atno 7974 bound_to 7965
  156.1851  140.3088  155.9223 H   0  0  0  0  0  0  0  0  0  0  0  0  # atno 8008 bound_to 7997
  155.3298  140.0460  157.3059 H   0  0  0  0  0  0  0  0  0  0  0  0  # atno 8009 bound_to 7997
  154.5387  140.2254  155.8688 H   0  0  0  0  0  0  0  0  0  0  0  0  # atno 8010 bound_to 7997
  139.7669  143.8294  152.2617 H   0  0  0  0  0  0  0  0  0  0  0  0  # atno 10167 bound_to 10162
  156.8113  130.9587  151.3115 H   0  0  0  0  0  0  0  0  0  0  0  0  # atno 10718 bound_to 10713
  153.0844  135.6628  153.9979 H   0  0  0  0  0  0  0  0  0  0  0  0  # atno 10763 bound_to 10752
  153.9593  135.2976  155.3436 H   0  0  0  0  0  0  0  0  0  0  0  0  # atno 10764 bound_to 10752
  154.7249  135.5148  153.8943 H   0  0  0  0  0  0  0  0  0  0  0  0  # atno 10765 bound_to 10752
  140.5939  134.5017  157.5196 H   0  0  0  0  0  0  0  0  0  0  0  0  # atno 11005 bound_to 11000
  144.8920  139.4762  143.6673 LP  0  0  0  0  0  0  0  0  0  0  0  0  # atno 17320 bound_to 7965
  146.3073  139.7623  142.9046 LP  0  0  0  0  0  0  0  0  0  0  0  0  # atno 17321 bound_to 7965
  139.8317  144.7250  150.9442 LP  0  0  0  0  0  0  0  0  0  0  0  0  # atno 17342 bound_to 10162
  140.7811  143.4064  151.1064 LP  0  0  0  0  0  0  0  0  0  0  0  0  # atno 17343 bound_to 10162
  157.6504  130.8880  149.9622 LP  0  0  0  0  0  0  0  0  0  0  0  0  # atno 17370 bound_to 10713
  156.1043  130.3653  150.0162 LP  0  0  0  0  0  0  0  0  0  0  0  0  # atno 17371 bound_to 10713
  139.9262  134.8052  156.1062 LP  0  0  0  0  0  0  0  0  0  0  0  0  # atno 17394 bound_to 11000
  141.0917  133.6712  156.2555 LP  0  0  0  0  0  0  0  0  0  0  0  0  # atno 17395 bound_to 11000

$$$$
