AV-unprocessed.smi:1840|AV-procd|sdf|7495|dock9
  -GOLD-   22720 9193D 1   1.00000     0.00000
 Structure written by MMmdl.
 43 44  0  0  0  0  0  0  0  0  1 V2000
  150.1892  136.2821  155.4657 C   0  0  0  0  0  0  0  0  0  0  0  0
  151.2866  137.3488  155.3518 C   0  0  1  0  0  0  0  0  0  0  0  0
  151.1137  138.2009  154.0759 C   0  0  0  0  0  0  0  0  0  0  0  0
  150.0349  139.1677  154.1898 N   0  0  0  0  0  0  0  0  0  0  0  0
  148.7042  139.0079  153.8654 C   0  0  0  0  0  0  0  0  0  0  0  0
  148.0789  140.1949  154.1191 C   0  0  0  0  0  0  0  0  0  0  0  0
  149.1232  141.0302  154.6053 C   0  0  0  0  0  0  0  0  0  0  0  0
  150.2918  140.4114  154.6517 N   0  0  0  0  0  0  0  0  0  0  0  0
  151.2604  138.1912  156.5474 N   0  0  0  0  0  0  0  0  0  0  0  0
  152.1285  139.1759  156.8228 C   0  0  0  0  0  0  0  0  0  0  0  0
  153.1019  139.4559  156.1225 O   0  0  0  0  0  0  0  0  0  0  0  0
  151.7901  139.8397  157.9365 N   0  0  0  0  0  0  0  0  0  0  0  0
  152.4932  141.0070  158.4644 C   0  0  1  0  0  0  0  0  0  0  0  0
  151.5420  142.2233  158.4814 C   0  0  0  0  0  0  0  0  0  0  0  0
  152.2189  143.4633  159.0823 C   0  0  0  0  0  0  0  0  0  0  0  0
  152.7538  143.1692  160.4901 C   0  0  0  0  0  0  0  0  0  0  0  0
  153.7132  141.9697  160.4756 C   0  0  0  0  0  0  0  0  0  0  0  0
  153.0519  140.7105  159.8785 C   0  0  2  0  0  0  0  0  0  0  0  0
  154.0374  139.5279  159.8863 C   0  0  0  0  0  0  0  0  0  0  0  0
  150.2011  135.6151  154.6033 H   0  0  0  0  0  0  0  0  0  0  0  0
  149.1983  136.7343  155.5225 H   0  0  0  0  0  0  0  0  0  0  0  0
  150.3278  135.6691  156.3570 H   0  0  0  0  0  0  0  0  0  0  0  0
  152.2408  136.8222  155.2910 H   0  0  0  0  0  0  0  0  0  0  0  0
  152.0320  138.7519  153.8686 H   0  0  0  0  0  0  0  0  0  0  0  0
  150.9333  137.5621  153.2094 H   0  0  0  0  0  0  0  0  0  0  0  0
  148.3201  138.0760  153.4773 H   0  0  0  0  0  0  0  0  0  0  0  0
  147.0351  140.4318  153.9757 H   0  0  0  0  0  0  0  0  0  0  0  0
  149.0673  142.0606  154.9241 H   0  0  0  0  0  0  0  0  0  0  0  0
  150.4929  138.0453  157.1867 H   0  0  0  0  0  0  0  0  0  0  0  0
  150.9697  139.5371  158.4407 H   0  0  0  0  0  0  0  0  0  0  0  0
  153.3372  141.2363  157.8104 H   0  0  0  0  0  0  0  0  0  0  0  0
  151.2020  142.4515  157.4704 H   0  0  0  0  0  0  0  0  0  0  0  0
  150.6474  141.9845  159.0585 H   0  0  0  0  0  0  0  0  0  0  0  0
  153.0389  143.7814  158.4373 H   0  0  0  0  0  0  0  0  0  0  0  0
  151.5122  144.2929  159.1176 H   0  0  0  0  0  0  0  0  0  0  0  0
  153.2637  144.0482  160.8851 H   0  0  0  0  0  0  0  0  0  0  0  0
  151.9208  142.9652  161.1641 H   0  0  0  0  0  0  0  0  0  0  0  0
  154.6037  142.2257  159.8996 H   0  0  0  0  0  0  0  0  0  0  0  0
  154.0529  141.7666  161.4917 H   0  0  0  0  0  0  0  0  0  0  0  0
  152.2140  140.4421  160.5243 H   0  0  0  0  0  0  0  0  0  0  0  0
  154.8836  139.7154  159.2246 H   0  0  0  0  0  0  0  0  0  0  0  0
  153.5606  138.6028  159.5623 H   0  0  0  0  0  0  0  0  0  0  0  0
  154.4320  139.3535  160.8875 H   0  0  0  0  0  0  0  0  0  0  0  0
  1  2  1  0  0  0  0
  1 20  1  0  0  0  0
  1 21  1  0  0  0  0
  1 22  1  0  0  0  0
  2  3  1  0  0  0  0
  2  9  1  0  0  0  0
  2 23  1  0  0  0  0
  3  4  1  0  0  0  0
  3 24  1  0  0  0  0
  3 25  1  0  0  0  0
  4  8  1  0  0  0  0
  4  5  1  0  0  0  0
  5  6  2  0  0  0  0
  5 26  1  0  0  0  0
  6  7  1  0  0  0  0
  6 27  1  0  0  0  0
  7  8  2  0  0  0  0
  7 28  1  0  0  0  0
  9 10  1  0  0  0  0
  9 29  1  0  0  0  0
 10 11  2  0  0  0  0
 10 12  1  0  0  0  0
 12 13  1  0  0  0  0
 12 30  1  0  0  0  0
 13 18  1  0  0  0  0
 13 14  1  0  0  0  0
 13 31  1  0  0  0  0
 14 15  1  0  0  0  0
 14 32  1  0  0  0  0
 14 33  1  0  0  0  0
 15 16  1  0  0  0  0
 15 34  1  0  0  0  0
 15 35  1  0  0  0  0
 16 17  1  0  0  0  0
 16 36  1  0  0  0  0
 16 37  1  0  0  0  0
 17 18  1  0  0  0  0
 17 38  1  0  0  0  0
 17 39  1  0  0  0  0
 18 19  1  0  0  0  0
 18 40  1  0  0  0  0
 19 41  1  0  0  0  0
 19 42  1  0  0  0  0
 19 43  1  0  0  0  0
M  END
> <s_m_source_file>
AV-unprocessed.smi

> <i_m_source_file_index>
1840

> <i_lp_mmshare_version>
43012

> <i_f3d_flags>
0

> <s_epik_input>
bjFbY0hdW2NIXVtjSF1uMVtDSDJdW0NAQEhdKFtDSDNdKVtOSF1DKD1PKVtOSF1bQ0BASF0yW0NIMl1bQ0gyXVtDSDJdW0NIMl1bQ0BIXTJbQ0gzXQ==

> <s_epik_cmdline>
J2VwaWtfcHl0aG9uJywgJy1waCcsICc3LjAnLCAnLXRuJywgJzgnLCAnLW1hJywgJzIwMCcsICctbWV0YWxfYmluZGluZycsICctaW1hZScsICc8aW5maWxlLm1hZT4nLCAnLW9tYWUnLCAnPG91dGZpbGUubWFlPic=

> <r_lp_tautomer_probability>
1

> <r_epik_Ionization_Penalty>
7.38659e-05

> <r_epik_Ionization_Penalty_Charging>
0

> <r_epik_Ionization_Penalty_Neutral>
7.38659e-05

> <r_epik_State_Penalty>
-0

> <r_epik_Charging_Adjusted_Penalty>
0

> <i_epik_Tot_Q>
0

> <i_epik_Tot_abs_Q>
0

> <r_epik_Metal_State_Penalty>
-0

> <b_epik_Metal_Only>
0

> <s_lp_Force_Field>
OPLS_2005

> <r_lp_Energy>
7.84096

> <b_lp_Chiralities_Consistent>
1

> <s_lp_Variant>
AV-unprocessed.smi:1840-8

> <Gold.Version>
5.8.1

> <Gold.Id.Protein>
6NUR|6NUR_protein|mol2

> <Gold.PLP.Fitness>
47.7334

> <Gold.PLP.PLP>
-38.3685

> <Gold.PLP.part.hbond>
-1.8610

> <Gold.PLP.part.metal>
0.0000

> <Gold.PLP.part.buried>
-2.2632

> <Gold.PLP.part.nonpolar>
-33.7071

> <Gold.PLP.part.repulsive>
0.2054

> <Gold.PLP.ligand.clash>
0.0000

> <Gold.PLP.ligand.torsion>
0.4918

> <Gold.PLP.Chemscore.Hbond>
2.0000

> <Gold.PLP.Chemscore.CHOScore>
1.4447

> <Gold.PLP.Chemscore.Metal>
0.0000

> <Gold.Chemscore.Hbonds>
donor molecule, donor type, donor heavy atom, donor atom, acceptor molecule, acceptor atom, score
      P1  H  7989  7998       L1     8  0.95
      P1  H  7997  8008       L1    11  0.80
      L1  C     5    26       P1  7948  1.00
      L1  C     7    28       P1  8028  0.44

> <Gold.PLP.Chemscore.Internal.Correction>
0.0145

> <Gold.Rescore>
     Score         DG    S(hbond)    S(metal)    S(lipo)     H(rot)  DE(clash)    DE(int)     intcor
     19.92     -20.36       1.89        0.00     107.45       1.56       0.01       0.44       ----

> <Gold.Chemscore.Fitness>
19.9238

> <Gold.Chemscore.DG>
-20.3647

> <Gold.Chemscore.ZeroCoef>
-5.4800

> <Gold.Chemscore.Hbond>
1.8864

> <Gold.Chemscore.Metal>
0.0000

> <Gold.Chemscore.Lipo>
107.4507

> <Gold.Chemscore.Internal_Hbond>
0.0000

> <Gold.Chemscore.DEClash>
0.0050

> <Gold.Chemscore.DEInternal>
0.4358

> <Gold.Chemscore.Rot>
1.5576

> <Gold.Chemscore.Internal.Correction>
   9.000000E+99

> <Gold.Chemscore.Hbonds>
donor molecule, donor type, donor heavy atom, donor atom, acceptor molecule, acceptor atom, score
      P1  H  7989  7998       L1     8  0.20
      P1  H  7997  8008       L1    11  0.78

> <Gold.Chemscore.Hbond.Weighted>
-6.3004

> <Gold.Chemscore.Metal.Weighted>
-0.0000

> <Gold.Chemscore.Lipo.Weighted>
-12.5717

> <Gold.Chemscore.Internal_Hbond.Weighted>
0.0000

> <Gold.Chemscore.DEClash.Weighted>
0.0050

> <Gold.Chemscore.DEInternal.Weighted>
0.4358

> <Gold.Chemscore.Rot.Weighted>
3.9875

> <Gold.Chemscore.Internal.Correction.Weighted>
   9.000000E+99

> <Gold.Protein.RotatedTorsions>
[ 6907 6896 6895 6894 ] final   24.94 input  -60.11 | X-H torsion
[ 7974 7965 7964 7962 ] final  -49.40 input  175.53 | X-H torsion
[ 8008 7997 7996 7995 ] final  -28.16 input   59.86 | X-H torsion
[ 10167 10162 10161 10158 ] final  -77.35 input  -65.29 | X-H torsion
[ 10718 10713 10712 10709 ] final -179.22 input   66.30 | X-H torsion
[ 10763 10752 10751 10750 ] final  -42.39 input  -60.55 | X-H torsion
[ 11005 11000 10999 10996 ] final -168.81 input  -57.11 | X-H torsion

> <Gold.Protein.ActiveResidues>
 VAL166  LYS551  ARG553  GLY616  TRP617  ASP618  TYR619  PRO620  LYS621  CYS622 
 ASP623  PHE694  ASN695  SER759  ASP760  ASP761  ALA762  ILE779  LEU786  VAL792 
 PHE793  MET794  SER795  GLU796  ALA797  LYS798  CYS799  TRP800  GLU811  SER814 

> <Gold.Protein.RotatedAtoms>
  151.9651  135.0104  160.0549 H   0  0  0  0  0  0  0  0  0  0  0  0  # atno 6907 bound_to 6896
  152.1833  133.4718  159.4978 H   0  0  0  0  0  0  0  0  0  0  0  0  # atno 6908 bound_to 6896
  150.6921  134.1722  159.4259 H   0  0  0  0  0  0  0  0  0  0  0  0  # atno 6909 bound_to 6896
  145.9410  140.7662  142.9552 H   0  0  0  0  0  0  0  0  0  0  0  0  # atno 7974 bound_to 7965
  154.4344  140.1852  156.1046 H   0  0  0  0  0  0  0  0  0  0  0  0  # atno 8008 bound_to 7997
  156.0265  140.3335  155.7068 H   0  0  0  0  0  0  0  0  0  0  0  0  # atno 8009 bound_to 7997
  155.5901  140.0630  157.2751 H   0  0  0  0  0  0  0  0  0  0  0  0  # atno 8010 bound_to 7997
  140.4778  143.2410  151.8106 H   0  0  0  0  0  0  0  0  0  0  0  0  # atno 10167 bound_to 10162
  156.8558  130.9735  151.3088 H   0  0  0  0  0  0  0  0  0  0  0  0  # atno 10718 bound_to 10713
  153.9783  135.6720  153.4749 H   0  0  0  0  0  0  0  0  0  0  0  0  # atno 10763 bound_to 10752
  153.0760  135.4948  154.8402 H   0  0  0  0  0  0  0  0  0  0  0  0  # atno 10764 bound_to 10752
  154.7179  135.3111  154.9055 H   0  0  0  0  0  0  0  0  0  0  0  0  # atno 10765 bound_to 10752
  140.5378  134.5552  157.5092 H   0  0  0  0  0  0  0  0  0  0  0  0  # atno 11005 bound_to 11000
  144.6779  140.2280  143.7358 LP  0  0  0  0  0  0  0  0  0  0  0  0  # atno 17320 bound_to 7965
  145.8300  139.2081  143.1888 LP  0  0  0  0  0  0  0  0  0  0  0  0  # atno 17321 bound_to 7965
  139.4828  144.4811  151.9305 LP  0  0  0  0  0  0  0  0  0  0  0  0  # atno 17342 bound_to 10162
  140.3897  144.2631  150.5901 LP  0  0  0  0  0  0  0  0  0  0  0  0  # atno 17343 bound_to 10162
  157.6278  130.8705  149.9219 LP  0  0  0  0  0  0  0  0  0  0  0  0  # atno 17370 bound_to 10713
  156.0803  130.3674  150.0594 LP  0  0  0  0  0  0  0  0  0  0  0  0  # atno 17371 bound_to 10713
  139.9520  134.7601  156.0427 LP  0  0  0  0  0  0  0  0  0  0  0  0  # atno 17394 bound_to 11000
  141.1245  133.6603  156.3299 LP  0  0  0  0  0  0  0  0  0  0  0  0  # atno 17395 bound_to 11000

$$$$
