AV-unprocessed.smi:103|AV-procd|sdf|987|dock4
  -GOLD-   2262017563D 1   1.00000     0.00000
 Structure written by MMmdl.
 53 55  0  0  0  0  0  0  0  0  1 V2000
  153.4201  142.2577  160.9042 C   0  0  0  0  0  0  0  0  0  0  0  0
  152.8823  141.5666  159.6580 C   0  0  0  0  0  0  0  0  0  0  0  0
  152.5035  142.2097  158.6790 O   0  0  0  0  0  0  0  0  0  0  0  0
  152.8821  140.2298  159.7728 O   0  0  0  0  0  0  0  0  0  0  0  0
  152.4977  139.4336  158.6642 C   0  0  0  0  0  0  0  0  0  0  0  0
  150.9660  139.3884  158.5684 C   0  0  2  0  0  0  0  0  0  0  0  0
  150.4553  138.1768  159.1038 O   0  0  0  0  0  0  0  0  0  0  0  0
  149.1533  138.0239  158.6429 C   0  0  2  0  0  0  0  0  0  0  0  0
  148.8247  136.5664  158.6379 N   0  0  0  0  0  0  0  0  0  0  0  0
  148.1307  135.8082  159.5593 C   0  0  0  0  0  0  0  0  0  0  0  0
  147.4275  136.3864  161.0992 S   0  0  0  0  0  0  0  0  0  0  0  0
  146.6856  134.8480  161.7795 C   0  0  0  0  0  0  0  0  0  0  0  0
  148.5473  136.8054  161.9555 O   0  0  0  0  0  0  0  0  0  0  0  0
  146.3551  137.3331  160.7547 O   0  0  0  0  0  0  0  0  0  0  0  0
  148.0560  134.5261  159.3238 N   0  0  0  0  0  0  0  0  0  0  0  0
  148.6993  134.3926  158.1012 C   0  0  0  0  0  0  0  0  0  0  0  0
  148.9679  133.2974  157.2421 C   0  0  0  0  0  0  0  0  0  0  0  0
  148.5876  132.0420  157.5167 N   0  0  0  0  0  0  0  0  0  0  0  0
  149.6387  133.5287  156.0894 N   0  0  0  0  0  0  0  0  0  0  0  0
  150.0299  134.7723  155.7924 C   0  0  0  0  0  0  0  0  0  0  0  0
  149.8555  135.8938  156.4965 N   0  0  0  0  0  0  0  0  0  0  0  0
  149.1772  135.6593  157.6588 C   0  0  0  0  0  0  0  0  0  0  0  0
  149.1266  138.5898  157.2142 C   0  0  1  0  0  0  0  0  0  0  0  0
  147.9065  139.2627  156.8901 O   0  0  0  0  0  0  0  0  0  0  0  0
  147.4817  140.3831  157.5159 C   0  0  0  0  0  0  0  0  0  0  0  0
  146.0678  140.7689  157.1038 C   0  0  0  0  0  0  0  0  0  0  0  0
  148.1121  141.0483  158.3368 O   0  0  0  0  0  0  0  0  0  0  0  0
  150.3991  139.4417  157.1390 C   0  0  2  0  0  0  0  0  0  0  0  0
  151.3043  138.8690  156.2008 O   0  0  0  0  0  0  0  0  0  0  0  0
  151.1473  139.0899  154.8843 C   0  0  0  0  0  0  0  0  0  0  0  0
  151.9586  138.1219  154.0344 C   0  0  0  0  0  0  0  0  0  0  0  0
  150.4386  139.9576  154.3739 O   0  0  0  0  0  0  0  0  0  0  0  0
  152.9989  141.8066  161.8026 H   0  0  0  0  0  0  0  0  0  0  0  0
  153.1606  143.3167  160.8965 H   0  0  0  0  0  0  0  0  0  0  0  0
  154.5056  142.1675  160.9461 H   0  0  0  0  0  0  0  0  0  0  0  0
  152.9090  139.8759  157.7556 H   0  0  0  0  0  0  0  0  0  0  0  0
  152.9075  138.4266  158.7557 H   0  0  0  0  0  0  0  0  0  0  0  0
  150.5415  140.2158  159.1392 H   0  0  0  0  0  0  0  0  0  0  0  0
  148.4685  138.4967  159.3434 H   0  0  0  0  0  0  0  0  0  0  0  0
  146.2146  135.0665  162.7375 H   0  0  0  0  0  0  0  0  0  0  0  0
  147.4616  134.0963  161.9193 H   0  0  0  0  0  0  0  0  0  0  0  0
  145.9357  134.4698  161.0849 H   0  0  0  0  0  0  0  0  0  0  0  0
  148.0850  131.8432  158.3700 H   0  0  0  0  0  0  0  0  0  0  0  0
  148.8024  131.2972  156.8696 H   0  0  0  0  0  0  0  0  0  0  0  0
  150.5605  134.8851  154.8586 H   0  0  0  0  0  0  0  0  0  0  0  0
  149.2211  137.7557  156.5180 H   0  0  0  0  0  0  0  0  0  0  0  0
  145.9980  140.8549  156.0193 H   0  0  0  0  0  0  0  0  0  0  0  0
  145.7872  141.7254  157.5453 H   0  0  0  0  0  0  0  0  0  0  0  0
  145.3585  140.0121  157.4391 H   0  0  0  0  0  0  0  0  0  0  0  0
  150.1958  140.4783  156.8663 H   0  0  0  0  0  0  0  0  0  0  0  0
  153.0168  138.1919  154.2863 H   0  0  0  0  0  0  0  0  0  0  0  0
  151.8395  138.3500  152.9751 H   0  0  0  0  0  0  0  0  0  0  0  0
  151.6270  137.0978  154.2070 H   0  0  0  0  0  0  0  0  0  0  0  0
  1  2  1  0  0  0  0
  1 33  1  0  0  0  0
  1 34  1  0  0  0  0
  1 35  1  0  0  0  0
  2  3  2  0  0  0  0
  2  4  1  0  0  0  0
  4  5  1  0  0  0  0
  5  6  1  0  0  0  0
  5 36  1  0  0  0  0
  5 37  1  0  0  0  0
  6 28  1  0  0  0  0
  6  7  1  0  0  0  0
  6 38  1  0  0  0  0
  7  8  1  0  0  0  0
  8  9  1  0  0  0  0
  8 23  1  0  0  0  0
  8 39  1  0  0  0  0
  9 22  1  0  0  0  0
  9 10  1  0  0  0  0
 10 11  1  0  0  0  0
 10 15  2  0  0  0  0
 11 12  1  0  0  0  0
 11 13  2  0  0  0  0
 11 14  2  0  0  0  0
 12 40  1  0  0  0  0
 12 41  1  0  0  0  0
 12 42  1  0  0  0  0
 15 16  1  0  0  0  0
 16 22  2  0  0  0  0
 16 17  1  0  0  0  0
 17 18  1  0  0  0  0
 17 19  2  0  0  0  0
 18 43  1  0  0  0  0
 18 44  1  0  0  0  0
 19 20  1  0  0  0  0
 20 21  2  0  0  0  0
 20 45  1  0  0  0  0
 21 22  1  0  0  0  0
 23 24  1  0  0  0  0
 23 28  1  0  0  0  0
 23 46  1  0  0  0  0
 24 25  1  0  0  0  0
 25 26  1  0  0  0  0
 25 27  2  0  0  0  0
 26 47  1  0  0  0  0
 26 48  1  0  0  0  0
 26 49  1  0  0  0  0
 28 29  1  0  0  0  0
 28 50  1  0  0  0  0
 29 30  1  0  0  0  0
 30 31  1  0  0  0  0
 30 32  2  0  0  0  0
 31 51  1  0  0  0  0
 31 52  1  0  0  0  0
 31 53  1  0  0  0  0
M  END
> <s_m_source_file>
AV-unprocessed.smi

> <i_m_source_file_index>
103

> <i_lp_mmshare_version>
43012

> <i_f3d_flags>
0

> <s_epik_input>
W0NIM11DKD1PKU9bQ0gyXVtDQEBIXTFPW0NASF0oW0NAQEhdKE9DKD1PKVtDSDNdKVtDQEhdMU9DKD1PKVtDSDNdKW4oYyhuMilTKD1PKSg9TylbQ0gzXSljKGMyMyluW2NIXW5jM1tOSDJd

> <s_epik_cmdline>
J2VwaWtfcHl0aG9uJywgJy1waCcsICc3LjAnLCAnLXRuJywgJzgnLCAnLW1hJywgJzIwMCcsICctbWV0YWxfYmluZGluZycsICctaW1hZScsICc8aW5maWxlLm1hZT4nLCAnLW9tYWUnLCAnPG91dGZpbGUubWFlPic=

> <r_lp_tautomer_probability>
1

> <r_epik_Ionization_Penalty>
1.51338e-05

> <r_epik_Ionization_Penalty_Charging>
0

> <r_epik_Ionization_Penalty_Neutral>
1.51338e-05

> <r_epik_State_Penalty>
-0

> <r_epik_Charging_Adjusted_Penalty>
0

> <i_epik_Tot_Q>
0

> <i_epik_Tot_abs_Q>
0

> <r_epik_Metal_State_Penalty>
-0

> <b_epik_Metal_Only>
0

> <s_epik_Chemistry_Notes>
This compound has an ester and may undergo hydrolysis at high or low pH. This compound contains an acetal/aminal-like group ( X-CH(R)-Y where X, Y are N, S, or O) that may be acid/base labile, releasing an aldehyde.

> <s_lp_Force_Field>
OPLS_2005

> <r_lp_Energy>
18.7655

> <b_lp_Chiralities_Consistent>
1

> <s_lp_Variant>
AV-unprocessed.smi:103-11

> <Gold.Version>
5.8.1

> <Gold.Id.Protein>
6NUR|6NUR_protein|mol2

> <Gold.PLP.Fitness>
42.3544

> <Gold.PLP.PLP>
-37.0016

> <Gold.PLP.part.hbond>
-4.5805

> <Gold.PLP.part.metal>
0.0000

> <Gold.PLP.part.buried>
-8.6859

> <Gold.PLP.part.nonpolar>
-24.8591

> <Gold.PLP.part.repulsive>
0.1814

> <Gold.PLP.ligand.clash>
0.0000

> <Gold.PLP.ligand.torsion>
2.9713

> <Gold.PLP.Chemscore.Hbond>
2.9913

> <Gold.PLP.Chemscore.CHOScore>
0.0000

> <Gold.PLP.Chemscore.Metal>
0.0000

> <Gold.Chemscore.Hbonds>
donor molecule, donor type, donor heavy atom, donor atom, acceptor molecule, acceptor atom, score
      P1  H  6931  6943       L1    13  0.96
      P1  H  6934  6947       L1    14  1.00
      P1  H  7989  7998       L1    32  1.00

> <Gold.PLP.Chemscore.Internal.Correction>
2.3216

> <Gold.Rescore>
     Score         DG    S(hbond)    S(metal)    S(lipo)     H(rot)  DE(clash)    DE(int)     intcor
      4.11      -8.77       2.70        0.00      43.91       4.25       0.30       4.36       ----

> <Gold.Chemscore.Fitness>
4.1062

> <Gold.Chemscore.DG>
-8.7696

> <Gold.Chemscore.ZeroCoef>
-5.4800

> <Gold.Chemscore.Hbond>
2.7007

> <Gold.Chemscore.Metal>
0.0000

> <Gold.Chemscore.Lipo>
43.9150

> <Gold.Chemscore.Internal_Hbond>
0.0000

> <Gold.Chemscore.DEClash>
0.3006

> <Gold.Chemscore.DEInternal>
4.3628

> <Gold.Chemscore.Rot>
4.2456

> <Gold.Chemscore.Internal.Correction>
   9.000000E+99

> <Gold.Chemscore.Hbonds>
donor molecule, donor type, donor heavy atom, donor atom, acceptor molecule, acceptor atom, score
      P1  H  6931  6943       L1    13  0.90
      P1  H  6934  6947       L1    14  0.45
      P1  H  7989  7998       L1    32  0.30

> <Gold.Chemscore.Hbond.Weighted>
-9.0202

> <Gold.Chemscore.Metal.Weighted>
-0.0000

> <Gold.Chemscore.Lipo.Weighted>
-5.1381

> <Gold.Chemscore.Internal_Hbond.Weighted>
0.0000

> <Gold.Chemscore.DEClash.Weighted>
0.3006

> <Gold.Chemscore.DEInternal.Weighted>
4.3628

> <Gold.Chemscore.Rot.Weighted>
10.8687

> <Gold.Chemscore.Internal.Correction.Weighted>
   9.000000E+99

> <Gold.Protein.RotatedTorsions>
[ 6907 6896 6895 6894 ] final -107.43 input  -60.11 | X-H torsion
[ 7974 7965 7964 7962 ] final  112.81 input  175.53 | X-H torsion
[ 8008 7997 7996 7995 ] final   20.41 input   59.86 | X-H torsion
[ 10167 10162 10161 10158 ] final -110.37 input  -65.29 | X-H torsion
[ 10718 10713 10712 10709 ] final   41.46 input   66.30 | X-H torsion
[ 10763 10752 10751 10750 ] final   15.51 input  -60.55 | X-H torsion
[ 11005 11000 10999 10996 ] final -116.42 input  -57.11 | X-H torsion

> <Gold.Protein.ActiveResidues>
 VAL166  LYS551  ARG553  GLY616  TRP617  ASP618  TYR619  PRO620  LYS621  CYS622 
 ASP623  PHE694  ASN695  SER759  ASP760  ASP761  ALA762  ILE779  LEU786  VAL792 
 PHE793  MET794  SER795  GLU796  ALA797  LYS798  CYS799  TRP800  GLU811  SER814 

> <Gold.Protein.RotatedAtoms>
  150.7444  133.9828  159.3581 H   0  0  0  0  0  0  0  0  0  0  0  0  # atno 6907 bound_to 6896
  151.7770  135.0769  160.0377 H   0  0  0  0  0  0  0  0  0  0  0  0  # atno 6908 bound_to 6896
  152.3300  133.5911  159.5839 H   0  0  0  0  0  0  0  0  0  0  0  0  # atno 6909 bound_to 6896
  145.2249  139.2845  143.4199 H   0  0  0  0  0  0  0  0  0  0  0  0  # atno 7974 bound_to 7965
  154.9352  140.3046  155.5148 H   0  0  0  0  0  0  0  0  0  0  0  0  # atno 8008 bound_to 7997
  156.3000  140.2346  156.4353 H   0  0  0  0  0  0  0  0  0  0  0  0  # atno 8009 bound_to 7997
  154.8198  140.0424  157.1391 H   0  0  0  0  0  0  0  0  0  0  0  0  # atno 8010 bound_to 7997
  140.1452  143.4245  152.1534 H   0  0  0  0  0  0  0  0  0  0  0  0  # atno 10167 bound_to 10162
  157.3938  130.7821  149.7292 H   0  0  0  0  0  0  0  0  0  0  0  0  # atno 10718 bound_to 10713
  153.1518  135.6780  153.8871 H   0  0  0  0  0  0  0  0  0  0  0  0  # atno 10763 bound_to 10752
  153.8295  135.3119  155.3418 H   0  0  0  0  0  0  0  0  0  0  0  0  # atno 10764 bound_to 10752
  154.7868  135.4857  154.0050 H   0  0  0  0  0  0  0  0  0  0  0  0  # atno 10765 bound_to 10752
  141.0423  133.9816  157.2974 H   0  0  0  0  0  0  0  0  0  0  0  0  # atno 11005 bound_to 11000
  146.3367  140.2566  142.8600 LP  0  0  0  0  0  0  0  0  0  0  0  0  # atno 17320 bound_to 7965
  144.9731  140.8387  143.5443 LP  0  0  0  0  0  0  0  0  0  0  0  0  # atno 17321 bound_to 7965
  139.5452  144.7292  151.4605 LP  0  0  0  0  0  0  0  0  0  0  0  0  # atno 17342 bound_to 10162
  140.6736  143.8239  150.7030 LP  0  0  0  0  0  0  0  0  0  0  0  0  # atno 17343 bound_to 10162
  155.9805  130.4029  150.3524 LP  0  0  0  0  0  0  0  0  0  0  0  0  # atno 17370 bound_to 10713
  157.1643  131.0353  151.2826 LP  0  0  0  0  0  0  0  0  0  0  0  0  # atno 17371 bound_to 10713
  139.9285  135.0201  156.8318 LP  0  0  0  0  0  0  0  0  0  0  0  0  # atno 17394 bound_to 11000
  140.6211  133.9993  155.7619 LP  0  0  0  0  0  0  0  0  0  0  0  0  # atno 17395 bound_to 11000

$$$$
