AV-unprocessed.smi:3349|AV-procd|sdf|12933|dock4
  -GOLD-   2272019363D 1   1.00000     0.00000
 Structure written by MMmdl.
 40 41  0  0  0  0  0  0  0  0  1 V2000
  151.4470  140.0705  156.6987 C   0  0  0  0  0  0  0  0  0  0  0  0
  151.0217  141.3602  157.4482 C   0  0  2  0  0  0  0  0  0  0  0  0
  150.6700  142.4547  156.4029 C   0  0  0  0  0  0  0  0  0  0  0  0
  149.3756  142.2192  155.7743 N   0  0  0  0  0  0  0  0  0  0  0  0
  149.1255  141.2730  154.8567 C   0  0  0  0  0  0  0  0  0  0  0  0
  149.9985  140.5310  154.4051 O   0  0  0  0  0  0  0  0  0  0  0  0
  147.6655  141.1563  154.3852 C   0  0  1  0  0  0  0  0  0  0  0  0
  147.4103  139.9142  153.5070 C   0  0  0  0  0  0  0  0  0  0  0  0
  146.7561  141.2126  155.5245 N   0  0  0  0  0  0  0  0  0  0  0  0
  145.4243  141.1312  155.5644 C   0  0  0  0  0  0  0  0  0  0  0  0
  144.9118  141.2734  156.7786 N   0  0  0  0  0  0  0  0  0  0  0  0
  146.0622  141.4599  157.4911 C   0  0  0  0  0  0  0  0  0  0  0  0
  147.1942  141.4418  156.7877 N   0  0  0  0  0  0  0  0  0  0  0  0
  152.0272  141.8014  158.4429 N   0  0  0  0  0  0  0  0  0  0  0  0
  151.5570  142.9185  159.2708 C   0  0  0  0  0  0  0  0  0  0  0  0
  152.5876  143.3569  160.3260 C   0  0  0  0  0  0  0  0  0  0  0  0
  152.9338  142.2508  161.1476 O   0  0  0  0  0  0  0  0  0  0  0  0
  153.4705  141.1740  160.3920 C   0  0  0  0  0  0  0  0  0  0  0  0
  152.4444  140.7178  159.3404 C   0  0  0  0  0  0  0  0  0  0  0  0
  150.7313  139.7741  155.9325 H   0  0  0  0  0  0  0  0  0  0  0  0
  151.5199  139.2104  157.3629 H   0  0  0  0  0  0  0  0  0  0  0  0
  152.4125  140.2007  156.2088 H   0  0  0  0  0  0  0  0  0  0  0  0
  150.1005  141.1267  157.9847 H   0  0  0  0  0  0  0  0  0  0  0  0
  150.5998  143.4414  156.8575 H   0  0  0  0  0  0  0  0  0  0  0  0
  151.4542  142.5041  155.6450 H   0  0  0  0  0  0  0  0  0  0  0  0
  148.6063  142.7923  156.0885 H   0  0  0  0  0  0  0  0  0  0  0  0
  147.4622  142.0345  153.7703 H   0  0  0  0  0  0  0  0  0  0  0  0
  148.0412  139.9243  152.6175 H   0  0  0  0  0  0  0  0  0  0  0  0
  146.3739  139.8838  153.1698 H   0  0  0  0  0  0  0  0  0  0  0  0
  147.6098  138.9855  154.0437 H   0  0  0  0  0  0  0  0  0  0  0  0
  144.8162  140.9718  154.6860 H   0  0  0  0  0  0  0  0  0  0  0  0
  146.0652  141.6196  158.5593 H   0  0  0  0  0  0  0  0  0  0  0  0
  151.3458  143.7914  158.6567 H   0  0  0  0  0  0  0  0  0  0  0  0
  150.6249  142.6446  159.7674 H   0  0  0  0  0  0  0  0  0  0  0  0
  153.4823  143.7597  159.8482 H   0  0  0  0  0  0  0  0  0  0  0  0
  152.1752  144.1488  160.9515 H   0  0  0  0  0  0  0  0  0  0  0  0
  154.4026  141.4814  159.9153 H   0  0  0  0  0  0  0  0  0  0  0  0
  153.7118  140.3523  161.0664 H   0  0  0  0  0  0  0  0  0  0  0  0
  151.5722  140.2988  159.8447 H   0  0  0  0  0  0  0  0  0  0  0  0
  152.9049  139.9079  158.7775 H   0  0  0  0  0  0  0  0  0  0  0  0
  1  2  1  0  0  0  0
  1 20  1  0  0  0  0
  1 21  1  0  0  0  0
  1 22  1  0  0  0  0
  2  3  1  0  0  0  0
  2 14  1  0  0  0  0
  2 23  1  0  0  0  0
  3  4  1  0  0  0  0
  3 24  1  0  0  0  0
  3 25  1  0  0  0  0
  4  5  1  0  0  0  0
  4 26  1  0  0  0  0
  5  6  2  0  0  0  0
  5  7  1  0  0  0  0
  7  8  1  0  0  0  0
  7  9  1  0  0  0  0
  7 27  1  0  0  0  0
  8 28  1  0  0  0  0
  8 29  1  0  0  0  0
  8 30  1  0  0  0  0
  9 13  1  0  0  0  0
  9 10  1  0  0  0  0
 10 11  2  0  0  0  0
 10 31  1  0  0  0  0
 11 12  1  0  0  0  0
 12 13  2  0  0  0  0
 12 32  1  0  0  0  0
 14 19  1  0  0  0  0
 14 15  1  0  0  0  0
 15 16  1  0  0  0  0
 15 33  1  0  0  0  0
 15 34  1  0  0  0  0
 16 17  1  0  0  0  0
 16 35  1  0  0  0  0
 16 36  1  0  0  0  0
 17 18  1  0  0  0  0
 18 19  1  0  0  0  0
 18 37  1  0  0  0  0
 18 38  1  0  0  0  0
 19 39  1  0  0  0  0
 19 40  1  0  0  0  0
M  END
> <s_m_source_file>
AV-unprocessed.smi

> <i_m_source_file_index>
3349

> <i_lp_mmshare_version>
43012

> <i_f3d_flags>
0

> <s_epik_input>
W0NIMl0xW0NIMl1PW0NIMl1bQ0gyXU4xW0NASF0oW0NIM10pW0NIMl1bTkhdQyg9TylbQ0BIXShbQ0gzXSluMltjSF1uW2NIXW4y

> <s_epik_cmdline>
J2VwaWtfcHl0aG9uJywgJy1waCcsICc3LjAnLCAnLXRuJywgJzgnLCAnLW1hJywgJzIwMCcsICctbWV0YWxfYmluZGluZycsICctaW1hZScsICc8aW5maWxlLm1hZT4nLCAnLW9tYWUnLCAnPG91dGZpbGUubWFlPic=

> <r_lp_tautomer_probability>
1

> <r_epik_Ionization_Penalty>
0.211373

> <r_epik_Ionization_Penalty_Charging>
0

> <r_epik_Ionization_Penalty_Neutral>
0.211373

> <r_epik_State_Penalty>
0.201459

> <r_epik_Charging_Adjusted_Penalty>
0.201459

> <i_epik_Tot_Q>
0

> <i_epik_Tot_abs_Q>
0

> <r_epik_Metal_State_Penalty>
0.201458

> <b_epik_Metal_Only>
0

> <s_lp_Force_Field>
OPLS_2005

> <r_lp_Energy>
35.2026

> <b_lp_Chiralities_Consistent>
1

> <s_lp_Variant>
AV-unprocessed.smi:3349-3

> <Gold.Version>
5.8.1

> <Gold.Id.Protein>
6NUR|6NUR_protein|mol2

> <Gold.PLP.Fitness>
40.7869

> <Gold.PLP.PLP>
-33.3094

> <Gold.PLP.part.hbond>
-2.0000

> <Gold.PLP.part.metal>
0.0000

> <Gold.PLP.part.buried>
-5.9077

> <Gold.PLP.part.nonpolar>
-25.7708

> <Gold.PLP.part.repulsive>
0.5582

> <Gold.PLP.ligand.clash>
0.0000

> <Gold.PLP.ligand.torsion>
0.6670

> <Gold.PLP.Chemscore.Hbond>
1.8880

> <Gold.PLP.Chemscore.CHOScore>
0.9980

> <Gold.PLP.Chemscore.Metal>
0.0000

> <Gold.Chemscore.Hbonds>
donor molecule, donor type, donor heavy atom, donor atom, acceptor molecule, acceptor atom, score
      L1  H     4    26       P1  8028  0.26
      P1  H  7989  7998       L1     6  0.83
      L1  C    10    31       P1 10175  1.00

> <Gold.PLP.Chemscore.Internal.Correction>
0.1534

> <Gold.Rescore>
     Score         DG    S(hbond)    S(metal)    S(lipo)     H(rot)  DE(clash)    DE(int)     intcor
      9.23     -13.23       1.63        0.00      75.64       2.56       0.18       3.82       ----

> <Gold.Chemscore.Fitness>
9.2335

> <Gold.Chemscore.DG>
-13.2269

> <Gold.Chemscore.ZeroCoef>
-5.4800

> <Gold.Chemscore.Hbond>
1.6297

> <Gold.Chemscore.Metal>
0.0000

> <Gold.Chemscore.Lipo>
75.6369

> <Gold.Chemscore.Internal_Hbond>
0.0000

> <Gold.Chemscore.DEClash>
0.1770

> <Gold.Chemscore.DEInternal>
3.8164

> <Gold.Chemscore.Rot>
2.5570

> <Gold.Chemscore.Internal.Correction>
   9.000000E+99

> <Gold.Chemscore.Hbonds>
donor molecule, donor type, donor heavy atom, donor atom, acceptor molecule, acceptor atom, score
      L1  H     4    26       P1  8028  0.25
      P1  H  7989  7998       L1     6  0.81

> <Gold.Chemscore.Hbond.Weighted>
-5.4433

> <Gold.Chemscore.Metal.Weighted>
-0.0000

> <Gold.Chemscore.Lipo.Weighted>
-8.8495

> <Gold.Chemscore.Internal_Hbond.Weighted>
0.0000

> <Gold.Chemscore.DEClash.Weighted>
0.1770

> <Gold.Chemscore.DEInternal.Weighted>
3.8164

> <Gold.Chemscore.Rot.Weighted>
6.5459

> <Gold.Chemscore.Internal.Correction.Weighted>
   9.000000E+99

> <Gold.Protein.RotatedTorsions>
[ 6907 6896 6895 6894 ] final   43.36 input  -60.11 | X-H torsion
[ 7974 7965 7964 7962 ] final  -75.91 input  175.53 | X-H torsion
[ 8008 7997 7996 7995 ] final  150.91 input   59.86 | X-H torsion
[ 10167 10162 10161 10158 ] final  168.97 input  -65.29 | X-H torsion
[ 10718 10713 10712 10709 ] final -144.46 input   66.30 | X-H torsion
[ 10763 10752 10751 10750 ] final  141.60 input  -60.55 | X-H torsion
[ 11005 11000 10999 10996 ] final  113.18 input  -57.11 | X-H torsion

> <Gold.Protein.ActiveResidues>
 VAL166  LYS551  ARG553  GLY616  TRP617  ASP618  TYR619  PRO620  LYS621  CYS622 
 ASP623  PHE694  ASN695  SER759  ASP760  ASP761  ALA762  ILE779  LEU786  VAL792 
 PHE793  MET794  SER795  GLU796  ALA797  LYS798  CYS799  TRP800  GLU811  SER814 

> <Gold.Protein.RotatedAtoms>
  152.2193  134.8428  160.0487 H   0  0  0  0  0  0  0  0  0  0  0  0  # atno 6907 bound_to 6896
  151.9218  133.3582  159.3907 H   0  0  0  0  0  0  0  0  0  0  0  0  # atno 6908 bound_to 6896
  150.6996  134.4553  159.5399 H   0  0  0  0  0  0  0  0  0  0  0  0  # atno 6909 bound_to 6896
  145.6198  140.9366  143.1144 H   0  0  0  0  0  0  0  0  0  0  0  0  # atno 7974 bound_to 7965
  156.2696  140.2062  156.6093 H   0  0  0  0  0  0  0  0  0  0  0  0  # atno 8008 bound_to 7997
  154.6844  140.0536  157.0323 H   0  0  0  0  0  0  0  0  0  0  0  0  # atno 8009 bound_to 7997
  155.0954  140.3200  155.4564 H   0  0  0  0  0  0  0  0  0  0  0  0  # atno 8010 bound_to 7997
  139.4981  144.3757  151.9677 H   0  0  0  0  0  0  0  0  0  0  0  0  # atno 10167 bound_to 10162
  156.3704  130.7785  151.1965 H   0  0  0  0  0  0  0  0  0  0  0  0  # atno 10718 bound_to 10713
  153.9419  135.2979  155.3442 H   0  0  0  0  0  0  0  0  0  0  0  0  # atno 10763 bound_to 10752
  154.7472  135.4997  153.9228 H   0  0  0  0  0  0  0  0  0  0  0  0  # atno 10764 bound_to 10752
  153.1038  135.6741  153.9731 H   0  0  0  0  0  0  0  0  0  0  0  0  # atno 10765 bound_to 10752
  139.8946  134.9545  156.6699 H   0  0  0  0  0  0  0  0  0  0  0  0  # atno 11005 bound_to 11000
  144.7236  139.7950  143.7373 LP  0  0  0  0  0  0  0  0  0  0  0  0  # atno 17320 bound_to 7965
  146.1440  139.4504  143.0091 LP  0  0  0  0  0  0  0  0  0  0  0  0  # atno 17321 bound_to 7965
  140.3193  144.3447  150.6013 LP  0  0  0  0  0  0  0  0  0  0  0  0  # atno 17342 bound_to 10162
  140.5736  143.2178  151.7555 LP  0  0  0  0  0  0  0  0  0  0  0  0  # atno 17343 bound_to 10162
  157.7483  131.0374  150.4453 LP  0  0  0  0  0  0  0  0  0  0  0  0  # atno 17370 bound_to 10713
  156.4679  130.4046  149.6536 LP  0  0  0  0  0  0  0  0  0  0  0  0  # atno 17371 bound_to 10713
  140.7381  133.9001  155.8258 LP  0  0  0  0  0  0  0  0  0  0  0  0  # atno 17394 bound_to 11000
  141.0099  134.1034  157.4231 LP  0  0  0  0  0  0  0  0  0  0  0  0  # atno 17395 bound_to 11000

$$$$
