AV-unprocessed.smi:1509|AV-procd|sdf|6093|dock7
  -GOLD-   22720 6223D 1   1.00000     0.00000
 Structure written by MMmdl.
 42 43  0  0  0  0  0  0  0  0  2 V2000
  144.8688  131.9496  150.1432 C   0  0  0  0  0  0  0  0  0  0  0  0
  145.3043  131.2428  151.4344 C   0  0  1  0  0  0  0  0  0  0  0  0
  145.9598  129.8839  151.1366 C   0  0  0  0  0  0  0  0  0  0  0  0
  146.4127  129.2143  152.4401 C   0  0  0  0  0  0  0  0  0  0  0  0
  147.3357  130.1436  153.2443 C   0  0  0  0  0  0  0  0  0  0  0  0
  146.6729  131.4438  153.5225 N   0  3  1  0  0  0  0  0  0  0  0  0
  147.4842  132.3110  154.4138 C   0  0  0  0  0  0  0  0  0  0  0  0
  148.7457  132.8471  153.7160 C   0  0  0  0  0  0  0  0  0  0  0  0
  149.6528  133.6339  154.6765 C   0  0  0  0  0  0  0  0  0  0  0  0
  149.7403  135.0405  154.3027 N   0  0  0  0  0  0  0  0  0  0  0  0
  150.5927  135.9282  154.8404 C   0  0  0  0  0  0  0  0  0  0  0  0
  151.3845  135.6439  155.7386 O   0  0  0  0  0  0  0  0  0  0  0  0
  150.5383  137.3577  154.2960 C   0  0  0  0  0  0  0  0  0  0  0  0
  151.7442  138.1004  154.6145 N   0  0  0  0  0  0  0  0  0  0  0  0
  151.9159  139.2633  155.2465 C   0  0  0  0  0  0  0  0  0  0  0  0
  153.1956  139.5954  155.3204 N   0  0  0  0  0  0  0  0  0  0  0  0
  153.8312  138.5424  154.6832 N   0  0  0  0  0  0  0  0  0  0  0  0
  152.9751  137.6518  154.2627 N   0  0  0  0  0  0  0  0  0  0  0  0
  146.2574  132.1246  152.2664 C   0  0  0  0  0  0  0  0  0  0  0  0
  145.7231  132.1636  149.4999 H   0  0  0  0  0  0  0  0  0  0  0  0
  144.3715  132.8953  150.3607 H   0  0  0  0  0  0  0  0  0  0  0  0
  144.1707  131.3344  149.5749 H   0  0  0  0  0  0  0  0  0  0  0  0
  144.4070  131.0626  152.0285 H   0  0  0  0  0  0  0  0  0  0  0  0
  145.2614  129.2337  150.6085 H   0  0  0  0  0  0  0  0  0  0  0  0
  146.8183  130.0203  150.4774 H   0  0  0  0  0  0  0  0  0  0  0  0
  145.5404  128.9539  153.0413 H   0  0  0  0  0  0  0  0  0  0  0  0
  146.9268  128.2783  152.2191 H   0  0  0  0  0  0  0  0  0  0  0  0
  147.6006  129.6551  154.1828 H   0  0  0  0  0  0  0  0  0  0  0  0
  148.2665  130.3157  152.7013 H   0  0  0  0  0  0  0  0  0  0  0  0
  146.8855  133.1688  154.7237 H   0  0  0  0  0  0  0  0  0  0  0  0
  147.7419  131.7711  155.3262 H   0  0  0  0  0  0  0  0  0  0  0  0
  149.3190  132.0282  153.2822 H   0  0  0  0  0  0  0  0  0  0  0  0
  148.4479  133.4891  152.8857 H   0  0  0  0  0  0  0  0  0  0  0  0
  149.2960  133.5431  155.7041 H   0  0  0  0  0  0  0  0  0  0  0  0
  150.6600  133.2170  154.6612 H   0  0  0  0  0  0  0  0  0  0  0  0
  149.1217  135.3577  153.5701 H   0  0  0  0  0  0  0  0  0  0  0  0
  150.4124  137.3334  153.2130 H   0  0  0  0  0  0  0  0  0  0  0  0
  149.6774  137.8861  154.7090 H   0  0  0  0  0  0  0  0  0  0  0  0
  151.1106  139.8633  155.6443 H   0  0  0  0  0  0  0  0  0  0  0  0
  147.1434  132.3777  151.6815 H   0  0  0  0  0  0  0  0  0  0  0  0
  145.7579  133.0644  152.4996 H   0  0  0  0  0  0  0  0  0  0  0  0
  145.8288  131.2218  154.0314 H   0  0  0  0  0  0  0  0  0  0  0  0
  1  2  1  0  0  0  0
  1 20  1  0  0  0  0
  1 21  1  0  0  0  0
  1 22  1  0  0  0  0
  2 19  1  0  0  0  0
  2  3  1  0  0  0  0
  2 23  1  0  0  0  0
  3  4  1  0  0  0  0
  3 24  1  0  0  0  0
  3 25  1  0  0  0  0
  4  5  1  0  0  0  0
  4 26  1  0  0  0  0
  4 27  1  0  0  0  0
  5  6  1  0  0  0  0
  5 28  1  0  0  0  0
  5 29  1  0  0  0  0
  6  7  1  0  0  0  0
  6 19  1  0  0  0  0
  6 42  1  0  0  0  0
  7  8  1  0  0  0  0
  7 30  1  0  0  0  0
  7 31  1  0  0  0  0
  8  9  1  0  0  0  0
  8 32  1  0  0  0  0
  8 33  1  0  0  0  0
  9 10  1  0  0  0  0
  9 34  1  0  0  0  0
  9 35  1  0  0  0  0
 10 11  1  0  0  0  0
 10 36  1  0  0  0  0
 11 12  2  0  0  0  0
 11 13  1  0  0  0  0
 13 14  1  0  0  0  0
 13 37  1  0  0  0  0
 13 38  1  0  0  0  0
 14 18  1  0  0  0  0
 14 15  1  0  0  0  0
 15 16  2  0  0  0  0
 15 39  1  0  0  0  0
 16 17  1  0  0  0  0
 17 18  2  0  0  0  0
 19 40  1  0  0  0  0
 19 41  1  0  0  0  0
M  CHG  1   6   1
M  END
> <s_m_source_file>
AV-unprocessed.smi

> <i_m_source_file_index>
1509

> <i_lp_mmshare_version>
43012

> <i_f3d_flags>
0

> <s_epik_input>
W0NIM11bQ0BASF0xW0NIMl1bQ0gyXVtDSDJdTihbQ0gyXTEpW0NIMl1bQ0gyXVtDSDJdW05IXUMoPU8pW0NIMl1uMltjSF1ubm4y

> <s_epik_cmdline>
J2VwaWtfcHl0aG9uJywgJy1waCcsICc3LjAnLCAnLXRuJywgJzgnLCAnLW1hJywgJzIwMCcsICctbWV0YWxfYmluZGluZycsICctaW1hZScsICc8aW5maWxlLm1hZT4nLCAnLW9tYWUnLCAnPG91dGZpbGUubWFlPic=

> <r_lp_tautomer_probability>
1

> <r_epik_Ionization_Penalty>
0.00044216

> <r_epik_Ionization_Penalty_Charging>
0.000440775

> <r_epik_Ionization_Penalty_Neutral>
1.38512e-06

> <r_epik_State_Penalty>
0.000271914

> <r_epik_Charging_Adjusted_Penalty>
0.000712689

> <i_epik_Tot_Q>
1

> <i_epik_Tot_abs_Q>
1

> <r_epik_Metal_State_Penalty>
-0

> <b_epik_Metal_Only>
0

> <s_lp_Force_Field>
OPLS_2005

> <r_lp_Energy>
20.7135

> <b_lp_Chiralities_Consistent>
1

> <s_lp_Variant>
AV-unprocessed.smi:1509-4

> <Gold.Version>
5.8.1

> <Gold.Id.Protein>
6NUR|6NUR_protein|mol2

> <Gold.PLP.Fitness>
43.2514

> <Gold.PLP.PLP>
-36.0238

> <Gold.PLP.part.hbond>
-4.7797

> <Gold.PLP.part.metal>
0.0000

> <Gold.PLP.part.buried>
-4.4756

> <Gold.PLP.part.nonpolar>
-26.5423

> <Gold.PLP.part.repulsive>
0.1664

> <Gold.PLP.ligand.clash>
0.0000

> <Gold.PLP.ligand.torsion>
0.7281

> <Gold.PLP.Chemscore.Hbond>
2.8800

> <Gold.PLP.Chemscore.CHOScore>
0.0000

> <Gold.PLP.Chemscore.Metal>
0.0000

> <Gold.Chemscore.Hbonds>
donor molecule, donor type, donor heavy atom, donor atom, acceptor molecule, acceptor atom, score
      L1  H    10    36       P1  7948  0.91
      P1  H  7997  8010       L1    16  0.91
      P1  H 10752 10765       L1    12  1.00

> <Gold.PLP.Chemscore.Internal.Correction>
0.0438

> <Gold.Rescore>
     Score         DG    S(hbond)    S(metal)    S(lipo)     H(rot)  DE(clash)    DE(int)     intcor
     11.50     -13.77       2.18        0.00      73.44       2.97       0.45       1.82       ----

> <Gold.Chemscore.Fitness>
11.4983

> <Gold.Chemscore.DG>
-13.7696

> <Gold.Chemscore.ZeroCoef>
-5.4800

> <Gold.Chemscore.Hbond>
2.1841

> <Gold.Chemscore.Metal>
0.0000

> <Gold.Chemscore.Lipo>
73.4427

> <Gold.Chemscore.Internal_Hbond>
0.0000

> <Gold.Chemscore.DEClash>
0.4529

> <Gold.Chemscore.DEInternal>
1.8184

> <Gold.Chemscore.Rot>
2.9680

> <Gold.Chemscore.Internal.Correction>
   9.000000E+99

> <Gold.Chemscore.Hbonds>
donor molecule, donor type, donor heavy atom, donor atom, acceptor molecule, acceptor atom, score
      L1  H    10    36       P1  7948  0.45
      P1  H  7997  8010       L1    16  0.31
      P1  H 10752 10765       L1    12  0.35

> <Gold.Chemscore.Hbond.Weighted>
-7.2948

> <Gold.Chemscore.Metal.Weighted>
-0.0000

> <Gold.Chemscore.Lipo.Weighted>
-8.5928

> <Gold.Chemscore.Internal_Hbond.Weighted>
0.0000

> <Gold.Chemscore.DEClash.Weighted>
0.4529

> <Gold.Chemscore.DEInternal.Weighted>
1.8184

> <Gold.Chemscore.Rot.Weighted>
7.5980

> <Gold.Chemscore.Internal.Correction.Weighted>
   9.000000E+99

> <Gold.Protein.RotatedTorsions>
[ 6907 6896 6895 6894 ] final  139.67 input  -60.11 | X-H torsion
[ 7974 7965 7964 7962 ] final  -22.09 input  175.53 | X-H torsion
[ 8008 7997 7996 7995 ] final   76.63 input   59.86 | X-H torsion
[ 10167 10162 10161 10158 ] final  100.17 input  -65.29 | X-H torsion
[ 10718 10713 10712 10709 ] final  -39.85 input   66.30 | X-H torsion
[ 10763 10752 10751 10750 ] final -167.09 input  -60.55 | X-H torsion
[ 11005 11000 10999 10996 ] final  118.67 input  -57.11 | X-H torsion

> <Gold.Protein.ActiveResidues>
 VAL166  LYS551  ARG553  GLY616  TRP617  ASP618  TYR619  PRO620  LYS621  CYS622 
 ASP623  PHE694  ASN695  SER759  ASP760  ASP761  ALA762  ILE779  LEU786  VAL792 
 PHE793  MET794  SER795  GLU796  ALA797  LYS798  CYS799  TRP800  GLU811  SER814 

> <Gold.Protein.RotatedAtoms>
  152.2521  133.5224  159.5331 H   0  0  0  0  0  0  0  0  0  0  0  0  # atno 6907 bound_to 6896
  150.7097  134.0946  159.3953 H   0  0  0  0  0  0  0  0  0  0  0  0  # atno 6908 bound_to 6896
  151.8865  135.0433  160.0544 H   0  0  0  0  0  0  0  0  0  0  0  0  # atno 6909 bound_to 6896
  146.1696  140.4431  142.8538 H   0  0  0  0  0  0  0  0  0  0  0  0  # atno 7974 bound_to 7965
  155.8300  140.3466  155.5566 H   0  0  0  0  0  0  0  0  0  0  0  0  # atno 8008 bound_to 7997
  155.8252  140.0919  157.1845 H   0  0  0  0  0  0  0  0  0  0  0  0  # atno 8009 bound_to 7997
  154.4004  140.1422  156.3535 H   0  0  0  0  0  0  0  0  0  0  0  0  # atno 8010 bound_to 7997
  139.7551  144.6972  151.0375 H   0  0  0  0  0  0  0  0  0  0  0  0  # atno 10167 bound_to 10162
  156.2879  130.4225  149.8269 H   0  0  0  0  0  0  0  0  0  0  0  0  # atno 10718 bound_to 10713
  154.6767  135.2948  154.9669 H   0  0  0  0  0  0  0  0  0  0  0  0  # atno 10763 bound_to 10752
  154.0677  135.6622  153.4824 H   0  0  0  0  0  0  0  0  0  0  0  0  # atno 10764 bound_to 10752
  153.0521  135.5167  154.7790 H   0  0  0  0  0  0  0  0  0  0  0  0  # atno 10765 bound_to 10752
  139.9118  134.9622  156.7539 H   0  0  0  0  0  0  0  0  0  0  0  0  # atno 11005 bound_to 11000
  144.8143  140.6440  143.6395 LP  0  0  0  0  0  0  0  0  0  0  0  0  # atno 17320 bound_to 7965
  145.4376  139.1540  143.3988 LP  0  0  0  0  0  0  0  0  0  0  0  0  # atno 17321 bound_to 7965
  140.7802  143.4763  151.0078 LP  0  0  0  0  0  0  0  0  0  0  0  0  # atno 17342 bound_to 10162
  139.8450  143.7513  152.3179 LP  0  0  0  0  0  0  0  0  0  0  0  0  # atno 17343 bound_to 10162
  156.5693  130.8417  151.3352 LP  0  0  0  0  0  0  0  0  0  0  0  0  # atno 17370 bound_to 10713
  157.7334  130.9729  150.1975 LP  0  0  0  0  0  0  0  0  0  0  0  0  # atno 17371 bound_to 10713
  140.6752  133.9524  155.7879 LP  0  0  0  0  0  0  0  0  0  0  0  0  # atno 17394 bound_to 11000
  141.0550  134.0430  157.3735 LP  0  0  0  0  0  0  0  0  0  0  0  0  # atno 17395 bound_to 11000

$$$$
