AV-unprocessed.smi:1131|AV-procd|sdf|4851|dock2
  -GOLD-   22720 3423D 1   1.00000     0.00000
 Structure written by MMmdl.
 33 34  0  0  0  0  0  0  0  0  1 V2000
  149.6421  142.4473  158.2464 O   0  0  0  0  0  0  0  0  0  0  0  0
  150.6847  142.6157  157.6121 C   0  0  0  0  0  0  0  0  0  0  0  0
  150.8779  141.9901  156.2230 C   0  0  0  0  0  0  0  0  0  0  0  0
  151.3534  140.5996  156.2696 N   0  0  0  0  0  0  0  0  0  0  0  0
  152.0925  140.1495  157.3543 C   0  0  0  0  0  0  0  0  0  0  0  0
  152.5664  138.8855  157.4612 C   0  0  0  0  0  0  0  0  0  0  0  0
  152.3126  137.9101  156.4063 C   0  0  0  0  0  0  0  0  0  0  0  0
  152.6958  136.7425  156.4132 O   0  0  0  0  0  0  0  0  0  0  0  0
  151.5694  138.4019  155.3300 N   0  0  0  0  0  0  0  0  0  0  0  0
  151.0803  139.7039  155.2126 C   0  0  0  0  0  0  0  0  0  0  0  0
  150.4390  140.0360  154.2164 O   0  0  0  0  0  0  0  0  0  0  0  0
  151.7055  143.3562  158.0664 N   0  0  0  0  0  0  0  0  0  0  0  0
  151.7235  144.0392  159.3529 C   0  0  0  0  0  0  0  0  0  0  0  0
  152.8292  143.4738  160.2593 C   0  0  1  0  0  0  0  0  0  0  0  0
  152.5519  143.6257  161.7405 C   0  0  0  0  0  0  0  0  0  0  0  0
  153.5199  142.6123  162.3426 C   0  0  0  0  0  0  0  0  0  0  0  0
  153.6130  141.5562  161.3912 O   0  0  0  0  0  0  0  0  0  0  0  0
  153.0390  141.9618  160.1515 C   0  0  0  0  0  0  0  0  0  0  0  0
  151.3718  137.7633  154.5735 H   0  0  0  0  0  0  0  0  0  0  0  0
  149.9268  142.0432  155.6909 H   0  0  0  0  0  0  0  0  0  0  0  0
  151.5667  142.6052  155.6404 H   0  0  0  0  0  0  0  0  0  0  0  0
  152.3074  140.8390  158.1584 H   0  0  0  0  0  0  0  0  0  0  0  0
  153.1366  138.5949  158.3316 H   0  0  0  0  0  0  0  0  0  0  0  0
  152.5257  143.4478  157.4846 H   0  0  0  0  0  0  0  0  0  0  0  0
  151.8871  145.1067  159.1965 H   0  0  0  0  0  0  0  0  0  0  0  0
  150.7475  143.9317  159.8291 H   0  0  0  0  0  0  0  0  0  0  0  0
  153.7727  143.9746  160.0344 H   0  0  0  0  0  0  0  0  0  0  0  0
  152.7167  144.6393  162.1069 H   0  0  0  0  0  0  0  0  0  0  0  0
  151.5234  143.3416  161.9687 H   0  0  0  0  0  0  0  0  0  0  0  0
  154.5082  143.0578  162.4636 H   0  0  0  0  0  0  0  0  0  0  0  0
  153.1914  142.2466  163.3159 H   0  0  0  0  0  0  0  0  0  0  0  0
  152.0856  141.4458  160.0313 H   0  0  0  0  0  0  0  0  0  0  0  0
  153.6777  141.6888  159.3113 H   0  0  0  0  0  0  0  0  0  0  0  0
  1  2  2  0  0  0  0
  2  3  1  0  0  0  0
  2 12  1  0  0  0  0
  3  4  1  0  0  0  0
  3 20  1  0  0  0  0
  3 21  1  0  0  0  0
  4 10  1  0  0  0  0
  4  5  1  0  0  0  0
  5  6  2  0  0  0  0
  5 22  1  0  0  0  0
  6  7  1  0  0  0  0
  6 23  1  0  0  0  0
  7  8  2  0  0  0  0
  7  9  1  0  0  0  0
  9 19  1  0  0  0  0
  9 10  1  0  0  0  0
 10 11  2  0  0  0  0
 12 13  1  0  0  0  0
 12 24  1  0  0  0  0
 13 14  1  0  0  0  0
 13 25  1  0  0  0  0
 13 26  1  0  0  0  0
 14 18  1  0  0  0  0
 14 15  1  0  0  0  0
 14 27  1  0  0  0  0
 15 16  1  0  0  0  0
 15 28  1  0  0  0  0
 15 29  1  0  0  0  0
 16 17  1  0  0  0  0
 16 30  1  0  0  0  0
 16 31  1  0  0  0  0
 17 18  1  0  0  0  0
 18 32  1  0  0  0  0
 18 33  1  0  0  0  0
M  END
> <s_m_source_file>
AV-unprocessed.smi

> <i_m_source_file_index>
1131

> <i_lp_mmshare_version>
43012

> <i_f3d_flags>
0

> <s_epik_input>
W0NIMl0xT1tDSDJdW0NIMl1bQ0BIXTFbQ0gyXVtOSF1DKD1PKVtDSDJdbjJbY0hdW2NIXWMoPU8pW25IXWMyPU8=

> <s_epik_cmdline>
J2VwaWtfcHl0aG9uJywgJy1waCcsICc3LjAnLCAnLXRuJywgJzgnLCAnLW1hJywgJzIwMCcsICctbWV0YWxfYmluZGluZycsICctaW1hZScsICc8aW5maWxlLm1hZT4nLCAnLW9tYWUnLCAnPG91dGZpbGUubWFlPic=

> <r_lp_tautomer_probability>
0.999537

> <r_epik_Ionization_Penalty>
0.00329016

> <r_epik_Ionization_Penalty_Charging>
0.00329014

> <r_epik_Ionization_Penalty_Neutral>
1.87063e-08

> <r_epik_State_Penalty>
0.00232461

> <r_epik_Charging_Adjusted_Penalty>
0.00561475

> <i_epik_Tot_Q>
0

> <i_epik_Tot_abs_Q>
0

> <r_epik_Metal_State_Penalty>
0.365289

> <b_epik_Metal_Only>
0

> <s_lp_Force_Field>
OPLS_2005

> <r_lp_Energy>
18.0195

> <b_lp_Chiralities_Consistent>
1

> <s_lp_Variant>
AV-unprocessed.smi:1131-2

> <Gold.Version>
5.8.1

> <Gold.Id.Protein>
6NUR|6NUR_protein|mol2

> <Gold.PLP.Fitness>
42.0779

> <Gold.PLP.PLP>
-38.0205

> <Gold.PLP.part.hbond>
-2.0000

> <Gold.PLP.part.metal>
0.0000

> <Gold.PLP.part.buried>
-5.8221

> <Gold.PLP.part.nonpolar>
-29.8085

> <Gold.PLP.part.repulsive>
0.4159

> <Gold.PLP.ligand.clash>
0.0000

> <Gold.PLP.ligand.torsion>
0.9780

> <Gold.PLP.Chemscore.Hbond>
2.0000

> <Gold.PLP.Chemscore.CHOScore>
0.0000

> <Gold.PLP.Chemscore.Metal>
0.0000

> <Gold.Chemscore.Hbonds>
donor molecule, donor type, donor heavy atom, donor atom, acceptor molecule, acceptor atom, score
      P1  H  7989  7998       L1    11  0.85
      P1  H 10752 10764       L1     8  0.98

> <Gold.PLP.Chemscore.Internal.Correction>
0.0134

> <Gold.Rescore>
     Score         DG    S(hbond)    S(metal)    S(lipo)     H(rot)  DE(clash)    DE(int)     intcor
     14.64     -15.51       1.97        0.00      75.15       2.09       0.03       0.85       ----

> <Gold.Chemscore.Fitness>
14.6375

> <Gold.Chemscore.DG>
-15.5124

> <Gold.Chemscore.ZeroCoef>
-5.4800

> <Gold.Chemscore.Hbond>
1.9746

> <Gold.Chemscore.Metal>
0.0000

> <Gold.Chemscore.Lipo>
75.1496

> <Gold.Chemscore.Internal_Hbond>
0.0000

> <Gold.Chemscore.DEClash>
0.0263

> <Gold.Chemscore.DEInternal>
0.8486

> <Gold.Chemscore.Rot>
2.0919

> <Gold.Chemscore.Internal.Correction>
   9.000000E+99

> <Gold.Chemscore.Hbonds>
donor molecule, donor type, donor heavy atom, donor atom, acceptor molecule, acceptor atom, score
      P1  H  7989  7998       L1    11  0.14
      P1  H 10752 10764       L1     8  0.93

> <Gold.Chemscore.Hbond.Weighted>
-6.5952

> <Gold.Chemscore.Metal.Weighted>
-0.0000

> <Gold.Chemscore.Lipo.Weighted>
-8.7925

> <Gold.Chemscore.Internal_Hbond.Weighted>
0.0000

> <Gold.Chemscore.DEClash.Weighted>
0.0263

> <Gold.Chemscore.DEInternal.Weighted>
0.8486

> <Gold.Chemscore.Rot.Weighted>
5.3552

> <Gold.Chemscore.Internal.Correction.Weighted>
   9.000000E+99

> <Gold.Protein.RotatedTorsions>
[ 6907 6896 6895 6894 ] final    0.46 input  -60.11 | X-H torsion
[ 7974 7965 7964 7962 ] final   80.14 input  175.53 | X-H torsion
[ 8008 7997 7996 7995 ] final   27.60 input   59.86 | X-H torsion
[ 10167 10162 10161 10158 ] final   73.97 input  -65.29 | X-H torsion
[ 10718 10713 10712 10709 ] final   -2.56 input   66.30 | X-H torsion
[ 10763 10752 10751 10750 ] final  -12.38 input  -60.55 | X-H torsion
[ 11005 11000 10999 10996 ] final  -25.22 input  -57.11 | X-H torsion

> <Gold.Protein.ActiveResidues>
 VAL166  LYS551  ARG553  GLY616  TRP617  ASP618  TYR619  PRO620  LYS621  CYS622 
 ASP623  PHE694  ASN695  SER759  ASP760  ASP761  ALA762  ILE779  LEU786  VAL792 
 PHE793  MET794  SER795  GLU796  ALA797  LYS798  CYS799  TRP800  GLU811  SER814 

> <Gold.Protein.RotatedAtoms>
  151.5767  135.1060  160.0007 H   0  0  0  0  0  0  0  0  0  0  0  0  # atno 6907 bound_to 6896
  152.4374  133.7381  159.6636 H   0  0  0  0  0  0  0  0  0  0  0  0  # atno 6908 bound_to 6896
  150.8274  133.8079  159.3136 H   0  0  0  0  0  0  0  0  0  0  0  0  # atno 6909 bound_to 6896
  145.6551  139.2457  143.1954 H   0  0  0  0  0  0  0  0  0  0  0  0  # atno 7974 bound_to 7965
  155.0455  140.3174  155.4710 H   0  0  0  0  0  0  0  0  0  0  0  0  # atno 8008 bound_to 7997
  156.2845  140.2155  156.5523 H   0  0  0  0  0  0  0  0  0  0  0  0  # atno 8009 bound_to 7997
  154.7254  140.0486  157.0665 H   0  0  0  0  0  0  0  0  0  0  0  0  # atno 8010 bound_to 7997
  140.0188  144.5557  150.7599 H   0  0  0  0  0  0  0  0  0  0  0  0  # atno 10167 bound_to 10162
  156.7890  130.5355  149.5739 H   0  0  0  0  0  0  0  0  0  0  0  0  # atno 10718 bound_to 10713
  153.4976  135.7017  153.5849 H   0  0  0  0  0  0  0  0  0  0  0  0  # atno 10763 bound_to 10752
  153.3995  135.3875  155.1978 H   0  0  0  0  0  0  0  0  0  0  0  0  # atno 10764 bound_to 10752
  154.8713  135.3878  154.4443 H   0  0  0  0  0  0  0  0  0  0  0  0  # atno 10765 bound_to 10752
  140.8917  133.7584  156.0430 H   0  0  0  0  0  0  0  0  0  0  0  0  # atno 11005 bound_to 11000
  146.1171  140.7355  142.9475 LP  0  0  0  0  0  0  0  0  0  0  0  0  # atno 17320 bound_to 7965
  144.7108  140.4033  143.7082 LP  0  0  0  0  0  0  0  0  0  0  0  0  # atno 17321 bound_to 7965
  140.7351  143.2737  151.3808 LP  0  0  0  0  0  0  0  0  0  0  0  0  # atno 17342 bound_to 10162
  139.6154  144.1013  152.2340 LP  0  0  0  0  0  0  0  0  0  0  0  0  # atno 17343 bound_to 10162
  156.1171  130.6083  151.0137 LP  0  0  0  0  0  0  0  0  0  0  0  0  # atno 17370 bound_to 10713
  157.6610  131.0881  150.7839 LP  0  0  0  0  0  0  0  0  0  0  0  0  # atno 17371 bound_to 10713
  140.8338  134.3147  157.5339 LP  0  0  0  0  0  0  0  0  0  0  0  0  # atno 17394 bound_to 11000
  139.8730  134.9378  156.3698 LP  0  0  0  0  0  0  0  0  0  0  0  0  # atno 17395 bound_to 11000

$$$$
