AV-unprocessed.smi:111|AV-procd|sdf|1080|dock8
  -GOLD-   2262018173D 1   1.00000     0.00000
 Structure written by MMmdl.
 46 48  0  0  0  0  0  0  0  0  1 V2000
  153.8061  136.6026  161.5603 O   0  0  0  0  0  0  0  0  0  0  0  0
  154.4049  137.4026  162.2815 C   0  0  0  0  0  0  0  0  0  0  0  0
  154.2628  137.4322  163.7326 C   0  0  0  0  0  0  0  0  0  0  0  0
  153.4323  136.5659  164.3373 F   0  0  0  0  0  0  0  0  0  0  0  0
  154.9482  138.3219  164.4816 C   0  0  0  0  0  0  0  0  0  0  0  0
  155.8209  139.2504  163.9410 N   0  0  0  0  0  0  0  0  0  0  0  0
  156.5698  140.2221  164.8248 C   0  0  1  0  0  0  0  0  0  0  0  0
  155.5892  141.0196  165.6921 C   0  0  0  0  0  0  0  0  0  0  0  0
  155.6310  140.2571  166.9989 C   0  0  0  0  0  0  0  0  0  0  0  0
  157.0816  139.7929  167.0361 C   0  0  0  0  0  0  0  0  0  0  0  0
  157.4090  139.5015  165.6810 O   0  0  0  0  0  0  0  0  0  0  0  0
  156.0008  139.3134  162.5418 C   0  0  0  0  0  0  0  0  0  0  0  0
  156.7435  140.1616  162.0423 O   0  0  0  0  0  0  0  0  0  0  0  0
  155.2876  138.3774  161.7526 N   0  0  0  0  0  0  0  0  0  0  0  0
  155.4472  138.4157  160.3040 C   0  0  0  0  0  0  0  0  0  0  0  0
  154.1562  138.7778  159.5326 C   0  0  2  0  0  0  0  0  0  0  0  0
  154.2556  138.2478  158.2268 O   0  0  0  0  0  0  0  0  0  0  0  0
  153.8587  140.2937  159.4425 C   0  0  0  0  0  0  0  0  0  0  0  0
  153.6183  140.9578  160.8093 C   0  0  0  0  0  0  0  0  0  0  0  0
  153.0574  142.3649  160.6852 C   0  0  0  0  0  0  0  0  0  0  0  0
  152.8091  142.9272  159.4149 C   0  0  0  0  0  0  0  0  0  0  0  0
  152.2679  144.2231  159.3078 C   0  0  0  0  0  0  0  0  0  0  0  0
  151.9792  144.9648  160.4694 C   0  0  0  0  0  0  0  0  0  0  0  0
  152.2332  144.4103  161.7383 C   0  0  0  0  0  0  0  0  0  0  0  0
  152.7697  143.1130  161.8460 C   0  0  0  0  0  0  0  0  0  0  0  0
  154.7963  138.3006  165.5504 H   0  0  0  0  0  0  0  0  0  0  0  0
  157.1769  140.8420  164.1635 H   0  0  0  0  0  0  0  0  0  0  0  0
  155.9845  142.0272  165.8260 H   0  0  0  0  0  0  0  0  0  0  0  0
  154.5975  141.0871  165.2445 H   0  0  0  0  0  0  0  0  0  0  0  0
  155.3546  140.8667  167.8595 H   0  0  0  0  0  0  0  0  0  0  0  0
  154.9623  139.3972  166.9591 H   0  0  0  0  0  0  0  0  0  0  0  0
  157.7296  140.5958  167.3901 H   0  0  0  0  0  0  0  0  0  0  0  0
  157.2302  138.9251  167.6789 H   0  0  0  0  0  0  0  0  0  0  0  0
  156.2660  139.0888  160.0488 H   0  0  0  0  0  0  0  0  0  0  0  0
  155.8061  137.4239  160.0212 H   0  0  0  0  0  0  0  0  0  0  0  0
  153.3155  138.2608  159.9918 H   0  0  0  0  0  0  0  0  0  0  0  0
  153.7700  137.4379  158.1936 H   0  0  0  0  0  0  0  0  0  0  0  0
  154.6720  140.8207  158.9481 H   0  0  0  0  0  0  0  0  0  0  0  0
  152.9913  140.4644  158.8029 H   0  0  0  0  0  0  0  0  0  0  0  0
  152.9117  140.3591  161.3849 H   0  0  0  0  0  0  0  0  0  0  0  0
  154.5436  140.9743  161.3866 H   0  0  0  0  0  0  0  0  0  0  0  0
  153.0222  142.3628  158.5189 H   0  0  0  0  0  0  0  0  0  0  0  0
  152.0725  144.6473  158.3339 H   0  0  0  0  0  0  0  0  0  0  0  0
  151.5630  145.9579  160.3868 H   0  0  0  0  0  0  0  0  0  0  0  0
  152.0146  144.9790  162.6293 H   0  0  0  0  0  0  0  0  0  0  0  0
  152.9559  142.6903  162.8224 H   0  0  0  0  0  0  0  0  0  0  0  0
  1  2  2  0  0  0  0
  2 14  1  0  0  0  0
  2  3  1  0  0  0  0
  3  4  1  0  0  0  0
  3  5  2  0  0  0  0
  5  6  1  0  0  0  0
  5 26  1  0  0  0  0
  6  7  1  0  0  0  0
  6 12  1  0  0  0  0
  7 11  1  0  0  0  0
  7  8  1  0  0  0  0
  7 27  1  0  0  0  0
  8  9  1  0  0  0  0
  8 28  1  0  0  0  0
  8 29  1  0  0  0  0
  9 10  1  0  0  0  0
  9 30  1  0  0  0  0
  9 31  1  0  0  0  0
 10 11  1  0  0  0  0
 10 32  1  0  0  0  0
 10 33  1  0  0  0  0
 12 13  2  0  0  0  0
 12 14  1  0  0  0  0
 14 15  1  0  0  0  0
 15 16  1  0  0  0  0
 15 34  1  0  0  0  0
 15 35  1  0  0  0  0
 16 17  1  0  0  0  0
 16 18  1  0  0  0  0
 16 36  1  0  0  0  0
 17 37  1  0  0  0  0
 18 19  1  0  0  0  0
 18 38  1  0  0  0  0
 18 39  1  0  0  0  0
 19 20  1  0  0  0  0
 19 40  1  0  0  0  0
 19 41  1  0  0  0  0
 20 25  1  0  0  0  0
 20 21  2  0  0  0  0
 21 22  1  0  0  0  0
 21 42  1  0  0  0  0
 22 23  2  0  0  0  0
 22 43  1  0  0  0  0
 23 24  1  0  0  0  0
 23 44  1  0  0  0  0
 24 25  2  0  0  0  0
 24 45  1  0  0  0  0
 25 46  1  0  0  0  0
M  END
> <s_m_source_file>
AV-unprocessed.smi

> <i_m_source_file_index>
111

> <i_lp_mmshare_version>
43012

> <i_f3d_flags>
0

> <s_epik_input>
TzFbQ0gyXVtDSDJdW0NIMl1bQ0BIXTFuKFtjSF1jKEYpYzI9TyljKD1PKW4yW0NIMl1bQ0BIXShbT0hdKVtDSDJdW0NIMl1jM1tjSF1bY0hdW2NIXVtjSF1bY0hdMw==

> <s_epik_cmdline>
J2VwaWtfcHl0aG9uJywgJy1waCcsICc3LjAnLCAnLXRuJywgJzgnLCAnLW1hJywgJzIwMCcsICctbWV0YWxfYmluZGluZycsICctaW1hZScsICc8aW5maWxlLm1hZT4nLCAnLW9tYWUnLCAnPG91dGZpbGUubWFlPic=

> <r_lp_tautomer_probability>
1

> <r_epik_Ionization_Penalty>
1.88248e-07

> <r_epik_Ionization_Penalty_Charging>
4.03974e-08

> <r_epik_Ionization_Penalty_Neutral>
1.47851e-07

> <r_epik_State_Penalty>
-0

> <r_epik_Charging_Adjusted_Penalty>
4.03974e-08

> <i_epik_Tot_Q>
0

> <i_epik_Tot_abs_Q>
0

> <r_epik_Metal_State_Penalty>
-0

> <b_epik_Metal_Only>
0

> <s_epik_Chemistry_Notes>
This compound contains an acetal/aminal-like group ( X-CH(R)-Y where X, Y are N, S, or O) that may be acid/base labile, releasing an aldehyde.

> <s_lp_Force_Field>
OPLS_2005

> <r_lp_Energy>
34.7798

> <b_lp_Chiralities_Consistent>
1

> <s_lp_Variant>
AV-unprocessed.smi:111-2

> <Gold.Version>
5.8.1

> <Gold.Id.Protein>
6NUR|6NUR_protein|mol2

> <Gold.PLP.Fitness>
54.7727

> <Gold.PLP.PLP>
-52.3929

> <Gold.PLP.part.hbond>
-2.0000

> <Gold.PLP.part.metal>
0.0000

> <Gold.PLP.part.buried>
-4.4937

> <Gold.PLP.part.nonpolar>
-45.1678

> <Gold.PLP.part.repulsive>
0.0000

> <Gold.PLP.ligand.clash>
0.0000

> <Gold.PLP.ligand.torsion>
0.3246

> <Gold.PLP.Chemscore.Hbond>
0.9920

> <Gold.PLP.Chemscore.CHOScore>
0.0000

> <Gold.PLP.Chemscore.Metal>
0.0000

> <Gold.Chemscore.Hbonds>
donor molecule, donor type, donor heavy atom, donor atom, acceptor molecule, acceptor atom, score
      P1  H  7997  8010       L1    17  0.79

> <Gold.PLP.Chemscore.Internal.Correction>
0.0531

> <Gold.Rescore>
     Score         DG    S(hbond)    S(metal)    S(lipo)     H(rot)  DE(clash)    DE(int)     intcor
     14.57     -16.07       0.94        0.00     122.24       2.67       0.44       1.06       ----

> <Gold.Chemscore.Fitness>
14.5675

> <Gold.Chemscore.DG>
-16.0708

> <Gold.Chemscore.ZeroCoef>
-5.4800

> <Gold.Chemscore.Hbond>
0.9388

> <Gold.Chemscore.Metal>
0.0000

> <Gold.Chemscore.Lipo>
122.2350

> <Gold.Chemscore.Internal_Hbond>
0.0000

> <Gold.Chemscore.DEClash>
0.4405

> <Gold.Chemscore.DEInternal>
1.0628

> <Gold.Chemscore.Rot>
2.6743

> <Gold.Chemscore.Internal.Correction>
   9.000000E+99

> <Gold.Chemscore.Hbonds>
donor molecule, donor type, donor heavy atom, donor atom, acceptor molecule, acceptor atom, score
      P1  H  7997  8010       L1    17  0.17

> <Gold.Chemscore.Hbond.Weighted>
-3.1356

> <Gold.Chemscore.Metal.Weighted>
-0.0000

> <Gold.Chemscore.Lipo.Weighted>
-14.3015

> <Gold.Chemscore.Internal_Hbond.Weighted>
0.0000

> <Gold.Chemscore.DEClash.Weighted>
0.4405

> <Gold.Chemscore.DEInternal.Weighted>
1.0628

> <Gold.Chemscore.Rot.Weighted>
6.8463

> <Gold.Chemscore.Internal.Correction.Weighted>
   9.000000E+99

> <Gold.Protein.RotatedTorsions>
[ 6907 6896 6895 6894 ] final   26.25 input  -60.11 | X-H torsion
[ 7974 7965 7964 7962 ] final   26.30 input  175.53 | X-H torsion
[ 8008 7997 7996 7995 ] final   16.98 input   59.86 | X-H torsion
[ 10167 10162 10161 10158 ] final  170.21 input  -65.29 | X-H torsion
[ 10718 10713 10712 10709 ] final  108.16 input   66.30 | X-H torsion
[ 10763 10752 10751 10750 ] final   19.70 input  -60.55 | X-H torsion
[ 11005 11000 10999 10996 ] final   -6.98 input  -57.11 | X-H torsion

> <Gold.Protein.ActiveResidues>
 VAL166  LYS551  ARG553  GLY616  TRP617  ASP618  TYR619  PRO620  LYS621  CYS622 
 ASP623  PHE694  ASN695  SER759  ASP760  ASP761  ALA762  ILE779  LEU786  VAL792 
 PHE793  MET794  SER795  GLU796  ALA797  LYS798  CYS799  TRP800  GLU811  SER814 

> <Gold.Protein.RotatedAtoms>
  151.9846  135.0011  160.0558 H   0  0  0  0  0  0  0  0  0  0  0  0  # atno 6907 bound_to 6896
  152.1664  133.4610  159.4895 H   0  0  0  0  0  0  0  0  0  0  0  0  # atno 6908 bound_to 6896
  150.6895  134.1925  159.4333 H   0  0  0  0  0  0  0  0  0  0  0  0  # atno 6909 bound_to 6896
  146.1845  139.7347  142.8877 H   0  0  0  0  0  0  0  0  0  0  0  0  # atno 7974 bound_to 7965
  154.8847  140.2978  155.5405 H   0  0  0  0  0  0  0  0  0  0  0  0  # atno 8008 bound_to 7997
  156.3021  140.2436  156.3789 H   0  0  0  0  0  0  0  0  0  0  0  0  # atno 8009 bound_to 7997
  154.8680  140.0402  157.1696 H   0  0  0  0  0  0  0  0  0  0  0  0  # atno 8010 bound_to 7997
  139.5012  144.3621  151.9813 H   0  0  0  0  0  0  0  0  0  0  0  0  # atno 10167 bound_to 10162
  157.6598  131.0888  150.6263 H   0  0  0  0  0  0  0  0  0  0  0  0  # atno 10718 bound_to 10713
  153.1139  135.6703  153.9452 H   0  0  0  0  0  0  0  0  0  0  0  0  # atno 10763 bound_to 10752
  153.8987  135.3038  155.3449 H   0  0  0  0  0  0  0  0  0  0  0  0  # atno 10764 bound_to 10752
  154.7557  135.5013  153.9448 H   0  0  0  0  0  0  0  0  0  0  0  0  # atno 10765 bound_to 10752
  140.7078  133.8934  155.8729 H   0  0  0  0  0  0  0  0  0  0  0  0  # atno 11005 bound_to 11000
  145.3980  141.0381  143.3086 LP  0  0  0  0  0  0  0  0  0  0  0  0  # atno 17320 bound_to 7965
  144.8372  139.5531  143.6917 LP  0  0  0  0  0  0  0  0  0  0  0  0  # atno 17321 bound_to 7965
  140.3057  144.3595  150.6047 LP  0  0  0  0  0  0  0  0  0  0  0  0  # atno 17342 bound_to 10162
  140.5838  143.2171  151.7380 LP  0  0  0  0  0  0  0  0  0  0  0  0  # atno 17343 bound_to 10162
  156.6567  130.4500  149.5701 LP  0  0  0  0  0  0  0  0  0  0  0  0  # atno 17370 bound_to 10713
  156.2097  130.6671  151.1256 LP  0  0  0  0  0  0  0  0  0  0  0  0  # atno 17371 bound_to 10713
  141.0110  134.1021  157.4222 LP  0  0  0  0  0  0  0  0  0  0  0  0  # atno 17394 bound_to 11000
  139.8879  135.0094  156.6591 LP  0  0  0  0  0  0  0  0  0  0  0  0  # atno 17395 bound_to 11000

$$$$
