AV-unprocessed.smi:2285|AV-procd|sdf|9203|dock1
  -GOLD-   2272012423D 1   1.00000     0.00000
 Structure written by MMmdl.
 36 37  0  0  0  0  0  0  0  0  1 V2000
  147.0805  139.8774  151.5845 C   0  0  0  0  0  0  0  0  0  0  0  0
  147.0802  139.7676  153.1154 C   0  0  0  0  0  0  0  0  0  0  0  0
  147.5248  141.0457  153.8236 C   0  0  0  0  0  0  0  0  0  0  0  0
  149.0442  141.1605  153.9424 C   0  0  0  0  0  0  0  0  0  0  0  0
  149.5489  142.0739  154.9622 N   0  0  0  0  0  0  0  0  0  0  0  0
  150.3771  141.7314  155.9591 C   0  0  0  0  0  0  0  0  0  0  0  0
  150.8196  140.5907  156.1059 O   0  0  0  0  0  0  0  0  0  0  0  0
  150.6384  142.7904  156.7510 N   0  0  0  0  0  0  0  0  0  0  0  0
  151.4481  142.8376  157.8933 C   0  0  0  0  0  0  0  0  0  0  0  0
  152.2070  141.8479  158.2739 N   0  0  0  0  0  0  0  0  0  0  0  0
  153.0024  141.9297  159.4169 C   0  0  0  0  0  0  0  0  0  0  0  0
  153.0123  143.0427  160.1720 C   0  0  0  0  0  0  0  0  0  0  0  0
  152.2222  144.1485  159.8274 N   0  0  0  0  0  0  0  0  0  0  0  0
  152.2716  145.3347  160.6827 C   0  0  0  0  0  0  0  0  0  0  0  0
  151.4294  144.1257  158.7217 C   0  0  0  0  0  0  0  0  0  0  0  0
  150.7215  145.0740  158.3765 O   0  0  0  0  0  0  0  0  0  0  0  0
  146.7096  142.3092  153.6396 C   0  0  0  0  0  0  0  0  0  0  0  0
  146.6741  141.5764  154.9577 C   0  0  0  0  0  0  0  0  0  0  0  0
  146.8290  138.9190  151.1302 H   0  0  0  0  0  0  0  0  0  0  0  0
  148.0611  140.1740  151.2112 H   0  0  0  0  0  0  0  0  0  0  0  0
  146.3506  140.6065  151.2330 H   0  0  0  0  0  0  0  0  0  0  0  0
  146.0927  139.4739  153.4720 H   0  0  0  0  0  0  0  0  0  0  0  0
  147.7510  138.9579  153.4046 H   0  0  0  0  0  0  0  0  0  0  0  0
  149.4699  140.1692  154.1079 H   0  0  0  0  0  0  0  0  0  0  0  0
  149.4417  141.4882  152.9819 H   0  0  0  0  0  0  0  0  0  0  0  0
  149.2326  143.0313  154.9114 H   0  0  0  0  0  0  0  0  0  0  0  0
  150.1859  143.6535  156.4879 H   0  0  0  0  0  0  0  0  0  0  0  0
  153.5998  141.0622  159.6563 H   0  0  0  0  0  0  0  0  0  0  0  0
  153.6117  143.1532  161.0641 H   0  0  0  0  0  0  0  0  0  0  0  0
  151.2738  145.5923  161.0415 H   0  0  0  0  0  0  0  0  0  0  0  0
  152.6651  146.1878  160.1282 H   0  0  0  0  0  0  0  0  0  0  0  0
  152.9054  145.1911  161.5586 H   0  0  0  0  0  0  0  0  0  0  0  0
  147.2401  143.2588  153.6094 H   0  0  0  0  0  0  0  0  0  0  0  0
  145.8232  142.2552  153.0108 H   0  0  0  0  0  0  0  0  0  0  0  0
  145.7628  141.0356  155.2057 H   0  0  0  0  0  0  0  0  0  0  0  0
  147.1833  142.0379  155.8015 H   0  0  0  0  0  0  0  0  0  0  0  0
  1  2  1  0  0  0  0
  1 19  1  0  0  0  0
  1 20  1  0  0  0  0
  1 21  1  0  0  0  0
  2  3  1  0  0  0  0
  2 22  1  0  0  0  0
  2 23  1  0  0  0  0
  3 18  1  0  0  0  0
  3  4  1  0  0  0  0
  3 17  1  0  0  0  0
  4  5  1  0  0  0  0
  4 24  1  0  0  0  0
  4 25  1  0  0  0  0
  5  6  1  0  0  0  0
  5 26  1  0  0  0  0
  6  7  2  0  0  0  0
  6  8  1  0  0  0  0
  8  9  1  0  0  0  0
  8 27  1  0  0  0  0
  9 15  1  0  0  0  0
  9 10  2  0  0  0  0
 10 11  1  0  0  0  0
 11 12  2  0  0  0  0
 11 28  1  0  0  0  0
 12 13  1  0  0  0  0
 12 29  1  0  0  0  0
 13 14  1  0  0  0  0
 13 15  1  0  0  0  0
 14 30  1  0  0  0  0
 14 31  1  0  0  0  0
 14 32  1  0  0  0  0
 15 16  2  0  0  0  0
 17 18  1  0  0  0  0
 17 33  1  0  0  0  0
 17 34  1  0  0  0  0
 18 35  1  0  0  0  0
 18 36  1  0  0  0  0
M  END
> <s_m_source_file>
AV-unprocessed.smi

> <i_m_source_file_index>
2285

> <i_lp_mmshare_version>
43012

> <i_f3d_flags>
0

> <s_epik_input>
W0NIM11bQ0gyXUMxKFtDSDJdW0NIMl0xKVtDSDJdW05IXUMoPU8pW05IXWMybltjSF1bY0hdbihbQ0gzXSljMj1P

> <s_epik_cmdline>
J2VwaWtfcHl0aG9uJywgJy1waCcsICc3LjAnLCAnLXRuJywgJzgnLCAnLW1hJywgJzIwMCcsICctbWV0YWxfYmluZGluZycsICctaW1hZScsICc8aW5maWxlLm1hZT4nLCAnLW9tYWUnLCAnPG91dGZpbGUubWFlPic=

> <r_lp_tautomer_probability>
1

> <r_epik_Ionization_Penalty>
0.000603256

> <r_epik_Ionization_Penalty_Charging>
1.64466e-07

> <r_epik_Ionization_Penalty_Neutral>
0.000603092

> <r_epik_State_Penalty>
-0

> <r_epik_Charging_Adjusted_Penalty>
1.64466e-07

> <i_epik_Tot_Q>
0

> <i_epik_Tot_abs_Q>
0

> <r_epik_Metal_State_Penalty>
-0

> <b_epik_Metal_Only>
0

> <s_lp_Force_Field>
OPLS_2005

> <r_lp_Energy>
32.2968

> <b_lp_Chiralities_Consistent>
1

> <s_lp_Variant>
AV-unprocessed.smi:2285-1

> <Gold.Version>
5.8.1

> <Gold.Id.Protein>
6NUR|6NUR_protein|mol2

> <Gold.PLP.Fitness>
44.4324

> <Gold.PLP.PLP>
-39.0688

> <Gold.PLP.part.hbond>
-2.0000

> <Gold.PLP.part.metal>
0.0000

> <Gold.PLP.part.buried>
-2.2271

> <Gold.PLP.part.nonpolar>
-35.8044

> <Gold.PLP.part.repulsive>
0.6552

> <Gold.PLP.ligand.clash>
0.0000

> <Gold.PLP.ligand.torsion>
0.9157

> <Gold.PLP.Chemscore.Hbond>
2.0000

> <Gold.PLP.Chemscore.CHOScore>
0.0000

> <Gold.PLP.Chemscore.Metal>
0.0000

> <Gold.Chemscore.Hbonds>
donor molecule, donor type, donor heavy atom, donor atom, acceptor molecule, acceptor atom, score
      L1  H     5    26       P1  8028  1.00
      L1  H     8    27       P1  8028  1.00

> <Gold.PLP.Chemscore.Internal.Correction>
1.1950

> <Gold.Rescore>
     Score         DG    S(hbond)    S(metal)    S(lipo)     H(rot)  DE(clash)    DE(int)     intcor
     12.72     -17.81       1.98        0.00      81.49       1.49       3.06       2.03       ----

> <Gold.Chemscore.Fitness>
12.7247

> <Gold.Chemscore.DG>
-17.8128

> <Gold.Chemscore.ZeroCoef>
-5.4800

> <Gold.Chemscore.Hbond>
1.9769

> <Gold.Chemscore.Metal>
0.0000

> <Gold.Chemscore.Lipo>
81.4899

> <Gold.Chemscore.Internal_Hbond>
0.0000

> <Gold.Chemscore.DEClash>
3.0570

> <Gold.Chemscore.DEInternal>
2.0311

> <Gold.Chemscore.Rot>
1.4861

> <Gold.Chemscore.Internal.Correction>
   9.000000E+99

> <Gold.Chemscore.Hbonds>
donor molecule, donor type, donor heavy atom, donor atom, acceptor molecule, acceptor atom, score
      L1  H     5    26       P1  8028  0.98
      L1  H     8    27       P1  8028  0.99

> <Gold.Chemscore.Hbond.Weighted>
-6.6029

> <Gold.Chemscore.Metal.Weighted>
-0.0000

> <Gold.Chemscore.Lipo.Weighted>
-9.5343

> <Gold.Chemscore.Internal_Hbond.Weighted>
0.0000

> <Gold.Chemscore.DEClash.Weighted>
3.0570

> <Gold.Chemscore.DEInternal.Weighted>
2.0311

> <Gold.Chemscore.Rot.Weighted>
3.8044

> <Gold.Chemscore.Internal.Correction.Weighted>
   9.000000E+99

> <Gold.Protein.RotatedTorsions>
[ 6907 6896 6895 6894 ] final -109.82 input  -60.11 | X-H torsion
[ 7974 7965 7964 7962 ] final  139.73 input  175.53 | X-H torsion
[ 8008 7997 7996 7995 ] final  -32.42 input   59.86 | X-H torsion
[ 10167 10162 10161 10158 ] final  162.42 input  -65.29 | X-H torsion
[ 10718 10713 10712 10709 ] final -137.26 input   66.30 | X-H torsion
[ 10763 10752 10751 10750 ] final  129.86 input  -60.55 | X-H torsion
[ 11005 11000 10999 10996 ] final  118.24 input  -57.11 | X-H torsion

> <Gold.Protein.ActiveResidues>
 VAL166  LYS551  ARG553  GLY616  TRP617  ASP618  TYR619  PRO620  LYS621  CYS622 
 ASP623  PHE694  ASN695  SER759  ASP760  ASP761  ALA762  ILE779  LEU786  VAL792 
 PHE793  MET794  SER795  GLU796  ALA797  LYS798  CYS799  TRP800  GLU811  SER814 

> <Gold.Protein.RotatedAtoms>
  150.7586  133.9473  159.3474 H   0  0  0  0  0  0  0  0  0  0  0  0  # atno 6907 bound_to 6896
  151.7387  135.0857  160.0321 H   0  0  0  0  0  0  0  0  0  0  0  0  # atno 6908 bound_to 6896
  152.3543  133.6180  159.6003 H   0  0  0  0  0  0  0  0  0  0  0  0  # atno 6909 bound_to 6896
  144.9252  139.5117  143.5644 H   0  0  0  0  0  0  0  0  0  0  0  0  # atno 7974 bound_to 7965
  154.4180  140.1738  156.1725 H   0  0  0  0  0  0  0  0  0  0  0  0  # atno 8008 bound_to 7997
  155.9749  140.3382  155.6585 H   0  0  0  0  0  0  0  0  0  0  0  0  # atno 8009 bound_to 7997
  155.6577  140.0697  157.2556 H   0  0  0  0  0  0  0  0  0  0  0  0  # atno 8010 bound_to 7997
  139.4860  144.4439  151.8917 H   0  0  0  0  0  0  0  0  0  0  0  0  # atno 10167 bound_to 10162
  156.2861  130.7348  151.1360 H   0  0  0  0  0  0  0  0  0  0  0  0  # atno 10718 bound_to 10713
  153.7485  135.3213  155.3317 H   0  0  0  0  0  0  0  0  0  0  0  0  # atno 10763 bound_to 10752
  154.8271  135.4562  154.0955 H   0  0  0  0  0  0  0  0  0  0  0  0  # atno 10764 bound_to 10752
  153.2151  135.6941  153.8149 H   0  0  0  0  0  0  0  0  0  0  0  0  # atno 10765 bound_to 10752
  139.9102  134.9618  156.7473 H   0  0  0  0  0  0  0  0  0  0  0  0  # atno 11005 bound_to 11000
  146.3223  139.8161  142.8936 LP  0  0  0  0  0  0  0  0  0  0  0  0  # atno 17320 bound_to 7965
  145.3231  141.0249  143.3489 LP  0  0  0  0  0  0  0  0  0  0  0  0  # atno 17321 bound_to 7965
  140.3892  144.2637  150.5901 LP  0  0  0  0  0  0  0  0  0  0  0  0  # atno 17342 bound_to 10162
  140.5162  143.2277  151.8460 LP  0  0  0  0  0  0  0  0  0  0  0  0  # atno 17343 bound_to 10162
  157.7329  131.0596  150.5605 LP  0  0  0  0  0  0  0  0  0  0  0  0  # atno 17370 bound_to 10713
  156.5716  130.4281  149.6017 LP  0  0  0  0  0  0  0  0  0  0  0  0  # atno 17371 bound_to 10713
  140.6802  133.9482  155.7906 LP  0  0  0  0  0  0  0  0  0  0  0  0  # atno 17394 bound_to 11000
  141.0516  134.0477  157.3776 LP  0  0  0  0  0  0  0  0  0  0  0  0  # atno 17395 bound_to 11000

$$$$
