AV-unprocessed.smi:1010|AV-procd|sdf|4418|dock9
  -GOLD-   22720 2363D 1   1.00000     0.00000
 Structure written by MMmdl.
 55 57  0  0  0  0  0  0  0  0  4 V2000
  150.8038  137.5495  154.5968 C   0  0  0  0  0  0  0  0  0  0  0  0
  149.3929  137.1002  154.7671 N   0  3  0  0  0  0  0  0  0  0  0  0
  148.4590  138.2540  154.6159 C   0  0  0  0  0  0  0  0  0  0  0  0
  149.0919  136.0813  155.8605 C   0  0  0  0  0  0  0  0  0  0  0  0
  149.2629  136.6413  157.3294 C   0  0  0  0  0  0  0  0  0  0  0  0
  150.6653  136.8807  157.6771 N   0  5  0  0  0  0  0  0  0  0  0  0
  151.1972  138.0927  157.9859 C   0  0  0  0  0  0  0  0  0  0  0  0
  152.2583  138.3280  158.5743 O   0  0  0  0  0  0  0  0  0  0  0  0
  150.4191  139.1030  157.5645 N   0  0  0  0  0  0  0  0  0  0  0  0
  150.7142  140.4932  157.5706 C   0  0  0  0  0  0  0  0  0  0  0  0
  151.7434  141.0231  158.3876 C   0  0  0  0  0  0  0  0  0  0  0  0
  151.9828  142.4112  158.3981 C   0  0  0  0  0  0  0  0  0  0  0  0
  151.1813  143.2486  157.6004 C   0  0  0  0  0  0  0  0  0  0  0  0
  150.1986  142.7146  156.8447 N   0  3  0  0  0  0  0  0  0  0  0  0
  149.9286  141.3906  156.7945 C   0  0  0  0  0  0  0  0  0  0  0  0
  148.8684  141.0172  155.9510 N   0  0  0  0  0  0  0  0  0  0  0  0
  147.5271  141.4260  156.3577 C   0  0  0  0  0  0  0  0  0  0  0  0
  146.9021  142.1308  155.1500 C   0  0  0  0  0  0  0  0  0  0  0  0
  147.6605  141.5383  153.9674 C   0  0  0  0  0  0  0  0  0  0  0  0
  149.0605  141.3160  154.5374 C   0  0  0  0  0  0  0  0  0  0  0  0
  147.6196  135.5829  155.6869 C   0  0  0  0  0  0  0  0  0  0  0  0
  147.4017  134.8524  154.3482 C   0  0  0  0  0  0  0  0  0  0  0  0
  148.2597  133.7224  154.2723 O   0  0  0  0  0  0  0  0  0  0  0  0
  149.6367  134.0660  154.3390 C   0  0  0  0  0  0  0  0  0  0  0  0
  149.9395  134.7786  155.6722 C   0  0  0  0  0  0  0  0  0  0  0  0
  151.1301  138.2043  155.4026 H   0  0  0  0  0  0  0  0  0  0  0  0
  150.8983  138.1187  153.6716 H   0  0  0  0  0  0  0  0  0  0  0  0
  151.5092  136.7261  154.5112 H   0  0  0  0  0  0  0  0  0  0  0  0
  148.5922  138.9900  155.4097 H   0  0  0  0  0  0  0  0  0  0  0  0
  147.4135  137.9544  154.5980 H   0  0  0  0  0  0  0  0  0  0  0  0
  148.6484  138.7642  153.6712 H   0  0  0  0  0  0  0  0  0  0  0  0
  148.6487  137.5368  157.4317 H   0  0  0  0  0  0  0  0  0  0  0  0
  148.8241  135.9275  158.0269 H   0  0  0  0  0  0  0  0  0  0  0  0
  149.6151  138.8277  157.0195 H   0  0  0  0  0  0  0  0  0  0  0  0
  152.3425  140.3809  159.0160 H   0  0  0  0  0  0  0  0  0  0  0  0
  152.7661  142.8267  159.0148 H   0  0  0  0  0  0  0  0  0  0  0  0
  151.2914  144.3221  157.5481 H   0  0  0  0  0  0  0  0  0  0  0  0
  146.9615  140.5260  156.6000 H   0  0  0  0  0  0  0  0  0  0  0  0
  147.5207  142.0616  157.2440 H   0  0  0  0  0  0  0  0  0  0  0  0
  145.8243  141.9823  155.0839 H   0  0  0  0  0  0  0  0  0  0  0  0
  147.0885  143.2038  155.2053 H   0  0  0  0  0  0  0  0  0  0  0  0
  147.2174  140.5818  153.6872 H   0  0  0  0  0  0  0  0  0  0  0  0
  147.6566  142.1844  153.0892 H   0  0  0  0  0  0  0  0  0  0  0  0
  149.6686  142.2123  154.4095 H   0  0  0  0  0  0  0  0  0  0  0  0
  149.5694  140.4946  154.0327 H   0  0  0  0  0  0  0  0  0  0  0  0
  147.3526  134.8709  156.4726 H   0  0  0  0  0  0  0  0  0  0  0  0
  146.8885  136.3863  155.7798 H   0  0  0  0  0  0  0  0  0  0  0  0
  146.3701  134.5072  154.2777 H   0  0  0  0  0  0  0  0  0  0  0  0
  147.5696  135.5139  153.4975 H   0  0  0  0  0  0  0  0  0  0  0  0
  150.2250  133.1511  154.2657 H   0  0  0  0  0  0  0  0  0  0  0  0
  149.9089  134.6823  153.4817 H   0  0  0  0  0  0  0  0  0  0  0  0
  151.0118  134.9611  155.7535 H   0  0  0  0  0  0  0  0  0  0  0  0
  149.7214  134.0601  156.4665 H   0  0  0  0  0  0  0  0  0  0  0  0
  149.2318  136.5607  153.9291 H   0  0  0  0  0  0  0  0  0  0  0  0
  149.6297  143.3435  156.2778 H   0  0  0  0  0  0  0  0  0  0  0  0
  1  2  1  0  0  0  0
  1 26  1  0  0  0  0
  1 27  1  0  0  0  0
  1 28  1  0  0  0  0
  2  3  1  0  0  0  0
  2  4  1  0  0  0  0
  2 54  1  0  0  0  0
  3 29  1  0  0  0  0
  3 30  1  0  0  0  0
  3 31  1  0  0  0  0
  4 25  1  0  0  0  0
  4  5  1  0  0  0  0
  4 21  1  0  0  0  0
  5  6  1  0  0  0  0
  5 32  1  0  0  0  0
  5 33  1  0  0  0  0
  6  7  1  0  0  0  0
  7  8  2  0  0  0  0
  7  9  1  0  0  0  0
  9 10  1  0  0  0  0
  9 34  1  0  0  0  0
 10 15  1  0  0  0  0
 10 11  2  0  0  0  0
 11 12  1  0  0  0  0
 11 35  1  0  0  0  0
 12 13  2  0  0  0  0
 12 36  1  0  0  0  0
 13 14  1  0  0  0  0
 13 37  1  0  0  0  0
 14 15  2  0  0  0  0
 14 55  1  0  0  0  0
 15 16  1  0  0  0  0
 16 20  1  0  0  0  0
 16 17  1  0  0  0  0
 17 18  1  0  0  0  0
 17 38  1  0  0  0  0
 17 39  1  0  0  0  0
 18 19  1  0  0  0  0
 18 40  1  0  0  0  0
 18 41  1  0  0  0  0
 19 20  1  0  0  0  0
 19 42  1  0  0  0  0
 19 43  1  0  0  0  0
 20 44  1  0  0  0  0
 20 45  1  0  0  0  0
 21 22  1  0  0  0  0
 21 46  1  0  0  0  0
 21 47  1  0  0  0  0
 22 23  1  0  0  0  0
 22 48  1  0  0  0  0
 22 49  1  0  0  0  0
 23 24  1  0  0  0  0
 24 25  1  0  0  0  0
 24 50  1  0  0  0  0
 24 51  1  0  0  0  0
 25 52  1  0  0  0  0
 25 53  1  0  0  0  0
M  CHG  1   2   1
M  CHG  1   6  -1
M  CHG  1  14   1
M  END
> <s_m_source_file>
AV-unprocessed.smi

> <i_m_source_file_index>
1010

> <i_lp_mmshare_version>
43012

> <i_f3d_flags>
0

> <s_epik_input>
W0NIMl0xW0NIMl1PW0NIMl1bQ0gyXUMxKE4oW0NIM10pW0NIM10pW0NIMl1bTkhdQyg9TylbTkhdYzJbY0hdW2NIXVtjSF1uYzJOM1tDSDJdW0NIMl1bQ0gyXVtDSDJdMw==

> <s_epik_cmdline>
J2VwaWtfcHl0aG9uJywgJy1waCcsICc3LjAnLCAnLXRuJywgJzgnLCAnLW1hJywgJzIwMCcsICctbWV0YWxfYmluZGluZycsICctaW1hZScsICc8aW5maWxlLm1hZT4nLCAnLW9tYWUnLCAnPG91dGZpbGUubWFlPic=

> <r_lp_tautomer_probability>
0.999994

> <r_epik_Ionization_Penalty>
8.43521

> <r_epik_Ionization_Penalty_Charging>
8.43521

> <r_epik_Ionization_Penalty_Neutral>
3.38325e-06

> <r_epik_State_Penalty>
7.95094

> <r_epik_Charging_Adjusted_Penalty>
16.3861

> <i_epik_Tot_Q>
1

> <i_epik_Tot_abs_Q>
3

> <r_epik_Metal_State_Penalty>
3.94206

> <b_epik_Metal_Only>
1

> <s_lp_Force_Field>
OPLS_2005

> <r_lp_Energy>
62.009

> <b_lp_Chiralities_Consistent>
1

> <s_lp_Variant>
AV-unprocessed.smi:1010-4

> <Gold.Version>
5.8.1

> <Gold.Id.Protein>
6NUR|6NUR_protein|mol2

> <Gold.PLP.Fitness>
43.6874

> <Gold.PLP.PLP>
-32.6595

> <Gold.PLP.part.hbond>
-2.0000

> <Gold.PLP.part.metal>
0.0000

> <Gold.PLP.part.buried>
-3.9901

> <Gold.PLP.part.nonpolar>
-26.1465

> <Gold.PLP.part.repulsive>
0.2715

> <Gold.PLP.ligand.clash>
0.7279

> <Gold.PLP.ligand.torsion>
0.3983

> <Gold.PLP.Chemscore.Hbond>
4.0000

> <Gold.PLP.Chemscore.CHOScore>
0.0000

> <Gold.PLP.Chemscore.Metal>
0.0000

> <Gold.Chemscore.Hbonds>
donor molecule, donor type, donor heavy atom, donor atom, acceptor molecule, acceptor atom, score
      L1  H     2    54       P1  7948  1.69
      L1  H    14    55       P1  8028  2.00

> <Gold.PLP.Chemscore.Internal.Correction>
0.5523

> <Gold.Rescore>
     Score         DG    S(hbond)    S(metal)    S(lipo)     H(rot)  DE(clash)    DE(int)     intcor
     15.62     -17.51       1.96        0.00      81.91       1.60       0.04       1.85       ----

> <Gold.Chemscore.Fitness>
15.6235

> <Gold.Chemscore.DG>
-17.5118

> <Gold.Chemscore.ZeroCoef>
-5.4800

> <Gold.Chemscore.Hbond>
1.9621

> <Gold.Chemscore.Metal>
0.0000

> <Gold.Chemscore.Lipo>
81.9057

> <Gold.Chemscore.Internal_Hbond>
0.0000

> <Gold.Chemscore.DEClash>
0.0408

> <Gold.Chemscore.DEInternal>
1.8474

> <Gold.Chemscore.Rot>
1.6033

> <Gold.Chemscore.Internal.Correction>
   9.000000E+99

> <Gold.Chemscore.Hbonds>
donor molecule, donor type, donor heavy atom, donor atom, acceptor molecule, acceptor atom, score
      L1  H     2    54       P1  7948  0.78
      L1  H    14    55       P1  8028  1.00

> <Gold.Chemscore.Hbond.Weighted>
-6.5533

> <Gold.Chemscore.Metal.Weighted>
-0.0000

> <Gold.Chemscore.Lipo.Weighted>
-9.5830

> <Gold.Chemscore.Internal_Hbond.Weighted>
0.0000

> <Gold.Chemscore.DEClash.Weighted>
0.0408

> <Gold.Chemscore.DEInternal.Weighted>
1.8474

> <Gold.Chemscore.Rot.Weighted>
4.1046

> <Gold.Chemscore.Internal.Correction.Weighted>
   9.000000E+99

> <Gold.Protein.RotatedTorsions>
[ 6907 6896 6895 6894 ] final    9.24 input  -60.11 | X-H torsion
[ 7974 7965 7964 7962 ] final   78.13 input  175.53 | X-H torsion
[ 8008 7997 7996 7995 ] final  -13.45 input   59.86 | X-H torsion
[ 10167 10162 10161 10158 ] final   90.40 input  -65.29 | X-H torsion
[ 10718 10713 10712 10709 ] final  -80.46 input   66.30 | X-H torsion
[ 10763 10752 10751 10750 ] final  -56.93 input  -60.55 | X-H torsion
[ 11005 11000 10999 10996 ] final   58.34 input  -57.11 | X-H torsion

> <Gold.Protein.ActiveResidues>
 VAL166  LYS551  ARG553  GLY616  TRP617  ASP618  TYR619  PRO620  LYS621  CYS622 
 ASP623  PHE694  ASN695  SER759  ASP760  ASP761  ALA762  ILE779  LEU786  VAL792 
 PHE793  MET794  SER795  GLU796  ALA797  LYS798  CYS799  TRP800  GLU811  SER814 

> <Gold.Protein.RotatedAtoms>
  151.7190  135.0898  160.0280 H   0  0  0  0  0  0  0  0  0  0  0  0  # atno 6907 bound_to 6896
  152.3614  133.6297  159.6026 H   0  0  0  0  0  0  0  0  0  0  0  0  # atno 6908 bound_to 6896
  150.7607  133.9334  159.3475 H   0  0  0  0  0  0  0  0  0  0  0  0  # atno 6909 bound_to 6896
  145.6811  139.2524  143.1814 H   0  0  0  0  0  0  0  0  0  0  0  0  # atno 7974 bound_to 7965
  154.5291  140.2249  155.8836 H   0  0  0  0  0  0  0  0  0  0  0  0  # atno 8008 bound_to 7997
  156.1745  140.3114  155.8998 H   0  0  0  0  0  0  0  0  0  0  0  0  # atno 8009 bound_to 7997
  155.3488  140.0454  157.3036 H   0  0  0  0  0  0  0  0  0  0  0  0  # atno 8010 bound_to 7997
  139.8477  144.6609  150.9207 H   0  0  0  0  0  0  0  0  0  0  0  0  # atno 10167 bound_to 10162
  156.0070  130.4575  150.3804 H   0  0  0  0  0  0  0  0  0  0  0  0  # atno 10718 bound_to 10713
  154.2145  135.6388  153.5125 H   0  0  0  0  0  0  0  0  0  0  0  0  # atno 10763 bound_to 10752
  152.9982  135.5482  154.6180 H   0  0  0  0  0  0  0  0  0  0  0  0  # atno 10764 bound_to 10752
  154.5625  135.2910  155.0879 H   0  0  0  0  0  0  0  0  0  0  0  0  # atno 10765 bound_to 10752
  140.0385  134.5908  155.9413 H   0  0  0  0  0  0  0  0  0  0  0  0  # atno 11005 bound_to 11000
  146.0964  140.7596  142.9570 LP  0  0  0  0  0  0  0  0  0  0  0  0  # atno 17320 bound_to 7965
  144.7026  140.3717  143.7144 LP  0  0  0  0  0  0  0  0  0  0  0  0  # atno 17321 bound_to 7965
  140.7791  143.3855  151.1401 LP  0  0  0  0  0  0  0  0  0  0  0  0  # atno 17342 bound_to 10162
  139.7496  143.8799  152.3073 LP  0  0  0  0  0  0  0  0  0  0  0  0  # atno 17343 bound_to 10162
  157.1884  131.0409  151.2713 LP  0  0  0  0  0  0  0  0  0  0  0  0  # atno 17370 bound_to 10713
  157.4083  130.7371  149.6819 LP  0  0  0  0  0  0  0  0  0  0  0  0  # atno 17371 bound_to 10713
  141.1870  133.6559  156.5263 LP  0  0  0  0  0  0  0  0  0  0  0  0  # atno 17394 bound_to 11000
  140.4109  134.7273  157.4835 LP  0  0  0  0  0  0  0  0  0  0  0  0  # atno 17395 bound_to 11000

$$$$
