AV-unprocessed.smi:187|AV-procd|sdf|1468|dock10
  -GOLD-   2262019283D 1   1.00000     0.00000
 Structure written by MMmdl.
 53 56  0  0  0  0  0  0  0  0  1 V2000
  150.9816  142.2173  157.2017 C   0  0  0  0  0  0  0  0  0  0  0  0
  151.6014  141.7247  158.5253 C   0  0  2  0  0  0  0  0  0  0  0  0
  152.2649  142.9048  159.2641 C   0  0  0  0  0  0  0  0  0  0  0  0
  152.9239  142.4502  160.5737 C   0  0  0  0  0  0  0  0  0  0  0  0
  153.9346  141.3217  160.2954 C   0  0  1  0  0  0  0  0  0  0  0  0
  154.5732  140.8200  161.5966 C   0  0  0  0  0  0  0  0  0  0  0  0
  154.5578  141.6506  162.6421 N   0  0  0  0  0  0  0  0  0  0  0  0
  155.0747  139.6989  161.6605 O   0  0  0  0  0  0  0  0  0  0  0  0
  153.2315  140.1696  159.5517 C   0  0  0  0  0  0  0  0  0  0  0  0
  152.5778  140.6427  158.3320 N   0  0  0  0  0  0  0  0  0  0  0  0
  152.1696  139.6016  157.5728 C   0  0  0  0  0  0  0  0  0  0  0  0
  152.6359  139.5446  156.3014 N   0  0  0  0  0  0  0  0  0  0  0  0
  152.2648  138.5423  155.4992 C   0  0  0  0  0  0  0  0  0  0  0  0
  151.4588  137.5125  155.7677 N   0  0  0  0  0  0  0  0  0  0  0  0
  150.9995  137.5615  157.0514 C   0  0  0  0  0  0  0  0  0  0  0  0
  151.2991  138.5655  158.0143 C   0  0  0  0  0  0  0  0  0  0  0  0
  150.6421  138.2904  159.2073 N   0  0  0  0  0  0  0  0  0  0  0  0
  149.9838  137.1908  158.9607 C   0  0  0  0  0  0  0  0  0  0  0  0
  150.1645  136.6681  157.6997 N   0  0  0  0  0  0  0  0  0  0  0  0
  149.5380  135.4993  157.1561 C   0  0  0  0  0  0  0  0  0  0  0  0
  150.3675  134.3505  156.5769 C   0  0  0  0  0  0  0  0  0  0  0  0
  149.2482  134.0712  155.5479 C   0  0  0  0  0  0  0  0  0  0  0  0
  149.7234  133.7584  154.1194 C   0  0  0  0  0  0  0  0  0  0  0  0
  148.6309  133.6356  153.2316 O   0  0  0  0  0  0  0  0  0  0  0  0
  148.2045  133.0202  155.9773 C   0  0  0  0  0  0  0  0  0  0  0  0
  148.7594  131.7208  156.0011 O   0  0  0  0  0  0  0  0  0  0  0  0
  148.8391  135.5396  155.7954 C   0  0  0  0  0  0  0  0  0  0  0  0
  150.3063  143.0551  157.3767 H   0  0  0  0  0  0  0  0  0  0  0  0
  150.3992  141.4388  156.7086 H   0  0  0  0  0  0  0  0  0  0  0  0
  151.7509  142.5518  156.5049 H   0  0  0  0  0  0  0  0  0  0  0  0
  150.7980  141.3475  159.1589 H   0  0  0  0  0  0  0  0  0  0  0  0
  153.0175  143.3649  158.6218 H   0  0  0  0  0  0  0  0  0  0  0  0
  151.5258  143.6779  159.4763 H   0  0  0  0  0  0  0  0  0  0  0  0
  153.4202  143.2967  161.0500 H   0  0  0  0  0  0  0  0  0  0  0  0
  152.1525  142.1091  161.2661 H   0  0  0  0  0  0  0  0  0  0  0  0
  154.7220  141.7156  159.6498 H   0  0  0  0  0  0  0  0  0  0  0  0
  154.9663  141.3643  163.5199 H   0  0  0  0  0  0  0  0  0  0  0  0
  154.1366  142.5637  162.5499 H   0  0  0  0  0  0  0  0  0  0  0  0
  153.9603  139.3967  159.3012 H   0  0  0  0  0  0  0  0  0  0  0  0
  152.4856  139.7037  160.1983 H   0  0  0  0  0  0  0  0  0  0  0  0
  152.6728  138.5687  154.4996 H   0  0  0  0  0  0  0  0  0  0  0  0
  149.3507  136.7251  159.7018 H   0  0  0  0  0  0  0  0  0  0  0  0
  148.8591  135.1346  157.9289 H   0  0  0  0  0  0  0  0  0  0  0  0
  151.2933  134.6977  156.1139 H   0  0  0  0  0  0  0  0  0  0  0  0
  150.5657  133.5412  157.2802 H   0  0  0  0  0  0  0  0  0  0  0  0
  150.3672  134.5542  153.7434 H   0  0  0  0  0  0  0  0  0  0  0  0
  150.3157  132.8438  154.0826 H   0  0  0  0  0  0  0  0  0  0  0  0
  148.4327  134.4901  152.8796 H   0  0  0  0  0  0  0  0  0  0  0  0
  147.8159  133.2335  156.9732 H   0  0  0  0  0  0  0  0  0  0  0  0
  147.3409  133.0204  155.3116 H   0  0  0  0  0  0  0  0  0  0  0  0
  149.7010  131.7962  155.9752 H   0  0  0  0  0  0  0  0  0  0  0  0
  147.7636  135.7145  155.8442 H   0  0  0  0  0  0  0  0  0  0  0  0
  149.3161  136.2368  155.1037 H   0  0  0  0  0  0  0  0  0  0  0  0
  1  2  1  0  0  0  0
  1 28  1  0  0  0  0
  1 29  1  0  0  0  0
  1 30  1  0  0  0  0
  2 10  1  0  0  0  0
  2  3  1  0  0  0  0
  2 31  1  0  0  0  0
  3  4  1  0  0  0  0
  3 32  1  0  0  0  0
  3 33  1  0  0  0  0
  4  5  1  0  0  0  0
  4 34  1  0  0  0  0
  4 35  1  0  0  0  0
  5  6  1  0  0  0  0
  5  9  1  0  0  0  0
  5 36  1  0  0  0  0
  6  7  1  0  0  0  0
  6  8  2  0  0  0  0
  7 37  1  0  0  0  0
  7 38  1  0  0  0  0
  9 10  1  0  0  0  0
  9 39  1  0  0  0  0
  9 40  1  0  0  0  0
 10 11  1  0  0  0  0
 11 16  1  0  0  0  0
 11 12  2  0  0  0  0
 12 13  1  0  0  0  0
 13 14  2  0  0  0  0
 13 41  1  0  0  0  0
 14 15  1  0  0  0  0
 15 19  1  0  0  0  0
 15 16  2  0  0  0  0
 16 17  1  0  0  0  0
 17 18  2  0  0  0  0
 18 19  1  0  0  0  0
 18 42  1  0  0  0  0
 19 20  1  0  0  0  0
 20 27  1  0  0  0  0
 20 21  1  0  0  0  0
 20 43  1  0  0  0  0
 21 22  1  0  0  0  0
 21 44  1  0  0  0  0
 21 45  1  0  0  0  0
 22 23  1  0  0  0  0
 22 25  1  0  0  0  0
 22 27  1  0  0  0  0
 23 24  1  0  0  0  0
 23 46  1  0  0  0  0
 23 47  1  0  0  0  0
 24 48  1  0  0  0  0
 25 26  1  0  0  0  0
 25 49  1  0  0  0  0
 25 50  1  0  0  0  0
 26 51  1  0  0  0  0
 27 52  1  0  0  0  0
 27 53  1  0  0  0  0
M  END
> <s_m_source_file>
AV-unprocessed.smi

> <i_m_source_file_index>
187

> <i_lp_mmshare_version>
43012

> <i_f3d_flags>
0

> <s_epik_input>
W0NIM11bQ0BASF0xW0NIMl1bQ0gyXVtDQEBIXShDKD1PKVtOSDJdKVtDSDJdTjFjKG5bY0hdbjIpYyhjMjMpbltjSF1uM1tDSF0oW0NIMl00KVtDSDJdQzQoW0NIMl1bT0hdKVtDSDJdW09IXQ==

> <s_epik_cmdline>
J2VwaWtfcHl0aG9uJywgJy1waCcsICc3LjAnLCAnLXRuJywgJzgnLCAnLW1hJywgJzIwMCcsICctbWV0YWxfYmluZGluZycsICctaW1hZScsICc8aW5maWxlLm1hZT4nLCAnLW9tYWUnLCAnPG91dGZpbGUubWFlPic=

> <r_lp_tautomer_probability>
1

> <r_epik_Ionization_Penalty>
0.0017711

> <r_epik_Ionization_Penalty_Charging>
0

> <r_epik_Ionization_Penalty_Neutral>
0.0017711

> <r_epik_State_Penalty>
0.00107211

> <r_epik_Charging_Adjusted_Penalty>
0.00107211

> <i_epik_Tot_Q>
0

> <i_epik_Tot_abs_Q>
0

> <r_epik_Metal_State_Penalty>
-0

> <b_epik_Metal_Only>
0

> <s_lp_Force_Field>
OPLS_2005

> <r_lp_Energy>
40.3757

> <b_lp_Chiralities_Consistent>
1

> <s_lp_Variant>
AV-unprocessed.smi:187-1

> <Gold.Version>
5.8.1

> <Gold.Id.Protein>
6NUR|6NUR_protein|mol2

> <Gold.PLP.Fitness>
44.5357

> <Gold.PLP.PLP>
-40.2455

> <Gold.PLP.part.hbond>
-3.8176

> <Gold.PLP.part.metal>
0.0000

> <Gold.PLP.part.buried>
-5.6801

> <Gold.PLP.part.nonpolar>
-29.9035

> <Gold.PLP.part.repulsive>
0.0386

> <Gold.PLP.ligand.clash>
0.0000

> <Gold.PLP.ligand.torsion>
1.2028

> <Gold.PLP.Chemscore.Hbond>
2.0000

> <Gold.PLP.Chemscore.CHOScore>
0.0000

> <Gold.PLP.Chemscore.Metal>
0.0000

> <Gold.Chemscore.Hbonds>
donor molecule, donor type, donor heavy atom, donor atom, acceptor molecule, acceptor atom, score
      L1  H    24    48       P1  7948  0.98
      P1  H  7997  8010       L1    12  1.00

> <Gold.PLP.Chemscore.Internal.Correction>
0.6957

> <Gold.Rescore>
     Score         DG    S(hbond)    S(metal)    S(lipo)     H(rot)  DE(clash)    DE(int)     intcor
      8.32      -9.62       1.49        0.00      80.18       3.99       0.05       1.25       ----

> <Gold.Chemscore.Fitness>
8.3216

> <Gold.Chemscore.DG>
-9.6203

> <Gold.Chemscore.ZeroCoef>
-5.4800

> <Gold.Chemscore.Hbond>
1.4893

> <Gold.Chemscore.Metal>
0.0000

> <Gold.Chemscore.Lipo>
80.1785

> <Gold.Chemscore.Internal_Hbond>
0.0000

> <Gold.Chemscore.DEClash>
0.0531

> <Gold.Chemscore.DEInternal>
1.2456

> <Gold.Chemscore.Rot>
3.9902

> <Gold.Chemscore.Internal.Correction>
   9.000000E+99

> <Gold.Chemscore.Hbonds>
donor molecule, donor type, donor heavy atom, donor atom, acceptor molecule, acceptor atom, score
      L1  H    24    48       P1  7948  0.23
      P1  H  7997  8010       L1    12  0.35

> <Gold.Chemscore.Hbond.Weighted>
-4.9742

> <Gold.Chemscore.Metal.Weighted>
-0.0000

> <Gold.Chemscore.Lipo.Weighted>
-9.3809

> <Gold.Chemscore.Internal_Hbond.Weighted>
0.0000

> <Gold.Chemscore.DEClash.Weighted>
0.0531

> <Gold.Chemscore.DEInternal.Weighted>
1.2456

> <Gold.Chemscore.Rot.Weighted>
10.2148

> <Gold.Chemscore.Internal.Correction.Weighted>
   9.000000E+99

> <Gold.Protein.RotatedTorsions>
[ 6907 6896 6895 6894 ] final -155.30 input  -60.11 | X-H torsion
[ 7974 7965 7964 7962 ] final  105.79 input  175.53 | X-H torsion
[ 8008 7997 7996 7995 ] final   68.02 input   59.86 | X-H torsion
[ 10167 10162 10161 10158 ] final  163.99 input  -65.29 | X-H torsion
[ 10718 10713 10712 10709 ] final   46.58 input   66.30 | X-H torsion
[ 10763 10752 10751 10750 ] final  -63.16 input  -60.55 | X-H torsion
[ 11005 11000 10999 10996 ] final   99.93 input  -57.11 | X-H torsion

> <Gold.Protein.ActiveResidues>
 VAL166  LYS551  ARG553  GLY616  TRP617  ASP618  TYR619  PRO620  LYS621  CYS622 
 ASP623  PHE694  ASN695  SER759  ASP760  ASP761  ALA762  ILE779  LEU786  VAL792 
 PHE793  MET794  SER795  GLU796  ALA797  LYS798  CYS799  TRP800  GLU811  SER814 

> <Gold.Protein.RotatedAtoms>
  151.2705  133.4257  159.2620 H   0  0  0  0  0  0  0  0  0  0  0  0  # atno 6907 bound_to 6896
  151.0449  134.9633  159.8191 H   0  0  0  0  0  0  0  0  0  0  0  0  # atno 6908 bound_to 6896
  152.5372  134.2662  159.9006 H   0  0  0  0  0  0  0  0  0  0  0  0  # atno 6909 bound_to 6896
  145.3150  139.2529  143.3742 H   0  0  0  0  0  0  0  0  0  0  0  0  # atno 7974 bound_to 7965
  155.7019  140.3495  155.4937 H   0  0  0  0  0  0  0  0  0  0  0  0  # atno 8008 bound_to 7997
  155.9433  140.1105  157.1060 H   0  0  0  0  0  0  0  0  0  0  0  0  # atno 8009 bound_to 7997
  154.4107  140.1208  156.4942 H   0  0  0  0  0  0  0  0  0  0  0  0  # atno 8010 bound_to 7997
  139.4882  144.4281  151.9104 H   0  0  0  0  0  0  0  0  0  0  0  0  # atno 10167 bound_to 10162
  157.4496  130.8130  149.7775 H   0  0  0  0  0  0  0  0  0  0  0  0  # atno 10718 bound_to 10713
  154.3109  135.6216  153.5465 H   0  0  0  0  0  0  0  0  0  0  0  0  # atno 10763 bound_to 10752
  152.9830  135.5701  154.5179 H   0  0  0  0  0  0  0  0  0  0  0  0  # atno 10764 bound_to 10752
  154.4828  135.2864  155.1534 H   0  0  0  0  0  0  0  0  0  0  0  0  # atno 10765 bound_to 10752
  139.8770  134.9118  156.4680 H   0  0  0  0  0  0  0  0  0  0  0  0  # atno 11005 bound_to 11000
  146.3104  140.3695  142.8672 LP  0  0  0  0  0  0  0  0  0  0  0  0  # atno 17320 bound_to 7965
  144.8985  140.7613  143.5882 LP  0  0  0  0  0  0  0  0  0  0  0  0  # atno 17321 bound_to 7965
  140.3728  144.2834  150.5918 LP  0  0  0  0  0  0  0  0  0  0  0  0  # atno 17342 bound_to 10162
  140.5304  143.2245  151.8248 LP  0  0  0  0  0  0  0  0  0  0  0  0  # atno 17343 bound_to 10162
  155.9981  130.3896  150.2713 LP  0  0  0  0  0  0  0  0  0  0  0  0  # atno 17370 bound_to 10713
  157.0883  131.0162  151.3131 LP  0  0  0  0  0  0  0  0  0  0  0  0  # atno 17371 bound_to 10713
  140.8816  133.7913  155.9473 LP  0  0  0  0  0  0  0  0  0  0  0  0  # atno 17394 bound_to 11000
  140.8848  134.2567  157.5125 LP  0  0  0  0  0  0  0  0  0  0  0  0  # atno 17395 bound_to 11000

$$$$
