AV-unprocessed.smi:3303|AV-procd|sdf|12657|dock4
  -GOLD-   2272018593D 1   1.00000     0.00000
 Structure written by MMmdl.
 45 46  0  0  0  0  0  0  0  0  3 V2000
  144.4048  132.9956  149.6850 C   0  0  0  0  0  0  0  0  0  0  0  0
  145.7012  132.6410  150.4351 C   0  0  2  0  0  0  0  0  0  0  0  0
  145.5987  131.2206  151.0278 C   0  0  0  0  0  0  0  0  0  0  0  0
  146.8326  130.8210  151.7536 N   0  3  2  0  0  0  0  0  0  0  0  0
  146.7581  129.4029  152.1820 C   0  0  0  0  0  0  0  0  0  0  0  0
  147.1635  131.7733  152.8557 C   0  0  1  0  0  0  0  0  0  0  0  0
  148.4563  131.3916  153.6031 C   0  0  0  0  0  0  0  0  0  0  0  0
  147.2925  133.2058  152.2983 C   0  0  0  0  0  0  0  0  0  0  0  0
  146.0299  133.6583  151.5483 C   0  0  1  0  0  0  0  0  0  0  0  0
  146.2475  135.0108  150.9850 N   0  3  0  0  0  0  0  0  0  0  0  0
  145.2064  135.9996  151.3288 C   0  0  0  0  0  0  0  0  0  0  0  0
  144.7506  135.8342  152.7847 C   0  0  0  0  0  0  0  0  0  0  0  0
  143.3087  136.2586  152.9849 C   0  0  0  0  0  0  0  0  0  0  0  0
  142.3498  135.3467  153.4748 C   0  0  0  0  0  0  0  0  0  0  0  0
  141.0268  135.7962  153.6513 C   0  0  0  0  0  0  0  0  0  0  0  0
  140.7163  137.1322  153.3327 C   0  0  0  0  0  0  0  0  0  0  0  0
  141.7468  137.9639  152.8510 C   0  0  0  0  0  0  0  0  0  0  0  0
  143.0196  137.5436  152.6810 N   0  0  0  0  0  0  0  0  0  0  0  0
  143.5513  133.0354  150.3625 H   0  0  0  0  0  0  0  0  0  0  0  0
  144.1822  132.2552  148.9159 H   0  0  0  0  0  0  0  0  0  0  0  0
  144.4785  133.9626  149.1869 H   0  0  0  0  0  0  0  0  0  0  0  0
  146.5172  132.6439  149.7102 H   0  0  0  0  0  0  0  0  0  0  0  0
  144.7456  131.1549  151.7055 H   0  0  0  0  0  0  0  0  0  0  0  0
  145.4124  130.5098  150.2213 H   0  0  0  0  0  0  0  0  0  0  0  0
  146.0375  129.2749  152.9906 H   0  0  0  0  0  0  0  0  0  0  0  0
  147.7267  129.0340  152.5181 H   0  0  0  0  0  0  0  0  0  0  0  0
  146.4532  128.7631  151.3531 H   0  0  0  0  0  0  0  0  0  0  0  0
  146.3423  131.7559  153.5746 H   0  0  0  0  0  0  0  0  0  0  0  0
  148.7237  132.1561  154.3332 H   0  0  0  0  0  0  0  0  0  0  0  0
  149.2975  131.2838  152.9176 H   0  0  0  0  0  0  0  0  0  0  0  0
  148.3492  130.4596  154.1579 H   0  0  0  0  0  0  0  0  0  0  0  0
  147.4958  133.9000  153.1150 H   0  0  0  0  0  0  0  0  0  0  0  0
  148.1545  133.2583  151.6307 H   0  0  0  0  0  0  0  0  0  0  0  0
  145.2006  133.6840  152.2581 H   0  0  0  0  0  0  0  0  0  0  0  0
  147.1364  135.3586  151.3161 H   0  0  0  0  0  0  0  0  0  0  0  0
  145.5996  137.0057  151.1767 H   0  0  0  0  0  0  0  0  0  0  0  0
  144.3598  135.8759  150.6519 H   0  0  0  0  0  0  0  0  0  0  0  0
  144.8585  134.7940  153.0963 H   0  0  0  0  0  0  0  0  0  0  0  0
  145.3905  136.4205  153.4456 H   0  0  0  0  0  0  0  0  0  0  0  0
  142.6178  134.3275  153.7117 H   0  0  0  0  0  0  0  0  0  0  0  0
  140.2644  135.1289  154.0256 H   0  0  0  0  0  0  0  0  0  0  0  0
  139.7125  137.5111  153.4553 H   0  0  0  0  0  0  0  0  0  0  0  0
  141.5444  138.9938  152.5973 H   0  0  0  0  0  0  0  0  0  0  0  0
  146.2903  134.9329  149.9787 H   0  0  0  0  0  0  0  0  0  0  0  0
  147.5885  130.8742  151.0854 H   0  0  0  0  0  0  0  0  0  0  0  0
  1  2  1  0  0  0  0
  1 19  1  0  0  0  0
  1 20  1  0  0  0  0
  1 21  1  0  0  0  0
  2  9  1  0  0  0  0
  2  3  1  0  0  0  0
  2 22  1  0  0  0  0
  3  4  1  0  0  0  0
  3 23  1  0  0  0  0
  3 24  1  0  0  0  0
  4  5  1  0  0  0  0
  4  6  1  0  0  0  0
  4 45  1  0  0  0  0
  5 25  1  0  0  0  0
  5 26  1  0  0  0  0
  5 27  1  0  0  0  0
  6  7  1  0  0  0  0
  6  8  1  0  0  0  0
  6 28  1  0  0  0  0
  7 29  1  0  0  0  0
  7 30  1  0  0  0  0
  7 31  1  0  0  0  0
  8  9  1  0  0  0  0
  8 32  1  0  0  0  0
  8 33  1  0  0  0  0
  9 10  1  0  0  0  0
  9 34  1  0  0  0  0
 10 11  1  0  0  0  0
 10 35  1  0  0  0  0
 10 44  1  0  0  0  0
 11 12  1  0  0  0  0
 11 36  1  0  0  0  0
 11 37  1  0  0  0  0
 12 13  1  0  0  0  0
 12 38  1  0  0  0  0
 12 39  1  0  0  0  0
 13 18  1  0  0  0  0
 13 14  2  0  0  0  0
 14 15  1  0  0  0  0
 14 40  1  0  0  0  0
 15 16  2  0  0  0  0
 15 41  1  0  0  0  0
 16 17  1  0  0  0  0
 16 42  1  0  0  0  0
 17 18  2  0  0  0  0
 17 43  1  0  0  0  0
M  CHG  1   4   1
M  CHG  1  10   1
M  END
> <s_m_source_file>
AV-unprocessed.smi

> <i_m_source_file_index>
3303

> <i_lp_mmshare_version>
43012

> <i_f3d_flags>
0

> <s_epik_input>
W0NIM11bQ0BASF0xW0NIMl1OKFtDSDNdKVtDQEBIXShbQ0gzXSlbQ0gyXVtDQEhdMVtOSF1bQ0gyXVtDSDJdYzJbY0hdW2NIXVtjSF1bY0hdbjI=

> <s_epik_cmdline>
J2VwaWtfcHl0aG9uJywgJy1waCcsICc3LjAnLCAnLXRuJywgJzgnLCAnLW1hJywgJzIwMCcsICctbWV0YWxfYmluZGluZycsICctaW1hZScsICc8aW5maWxlLm1hZT4nLCAnLW9tYWUnLCAnPG91dGZpbGUubWFlPic=

> <r_epik_Ionization_Penalty>
0.0769462

> <r_epik_Ionization_Penalty_Charging>
0.0759813

> <r_epik_Ionization_Penalty_Neutral>
0.000964829

> <r_epik_State_Penalty>
0.0654373

> <r_epik_Charging_Adjusted_Penalty>
0.141419

> <i_epik_Tot_Q>
2

> <i_epik_Tot_abs_Q>
2

> <r_epik_Metal_State_Penalty>
0.0656439

> <b_epik_Metal_Only>
0

> <s_lp_Force_Field>
OPLS_2005

> <r_lp_Energy>
29.1913

> <b_lp_Chiralities_Consistent>
1

> <s_lp_Variant>
AV-unprocessed.smi:3303-1

> <Gold.Version>
5.8.1

> <Gold.Id.Protein>
6NUR|6NUR_protein|mol2

> <Gold.PLP.Fitness>
47.5818

> <Gold.PLP.PLP>
-34.8457

> <Gold.PLP.part.hbond>
-1.9580

> <Gold.PLP.part.metal>
0.0000

> <Gold.PLP.part.buried>
-3.6148

> <Gold.PLP.part.nonpolar>
-28.2191

> <Gold.PLP.part.repulsive>
1.4203

> <Gold.PLP.ligand.clash>
0.0000

> <Gold.PLP.ligand.torsion>
0.9944

> <Gold.PLP.Chemscore.Hbond>
3.2100

> <Gold.PLP.Chemscore.CHOScore>
1.6924

> <Gold.PLP.Chemscore.Metal>
0.0000

> <Gold.Chemscore.Hbonds>
donor molecule, donor type, donor heavy atom, donor atom, acceptor molecule, acceptor atom, score
      L1  H     4    45       P1 10747  1.00
      L1  H    10    35       P1  7948  1.98
      L1  H    10    44       P1  7921  0.23
      L1  C    17    43       P1 10160  1.00
      L1  C    17    43       P1 10175  0.70

> <Gold.PLP.Chemscore.Internal.Correction>
0.0177

> <Gold.Rescore>
     Score         DG    S(hbond)    S(metal)    S(lipo)     H(rot)  DE(clash)    DE(int)     intcor
     18.16     -19.51       1.96        0.00      93.95       1.37       0.20       1.14       ----

> <Gold.Chemscore.Fitness>
18.1625

> <Gold.Chemscore.DG>
-19.5057

> <Gold.Chemscore.ZeroCoef>
-5.4800

> <Gold.Chemscore.Hbond>
1.9617

> <Gold.Chemscore.Metal>
0.0000

> <Gold.Chemscore.Lipo>
93.9500

> <Gold.Chemscore.Internal_Hbond>
0.0000

> <Gold.Chemscore.DEClash>
0.2017

> <Gold.Chemscore.DEInternal>
1.1415

> <Gold.Chemscore.Rot>
1.3744

> <Gold.Chemscore.Internal.Correction>
   9.000000E+99

> <Gold.Chemscore.Hbonds>
donor molecule, donor type, donor heavy atom, donor atom, acceptor molecule, acceptor atom, score
      L1  H     4    45       P1 10747  0.99
      L1  H    10    35       P1  7948  0.81
      L1  H    10    44       P1  7921  0.10

> <Gold.Chemscore.Hbond.Weighted>
-6.5521

> <Gold.Chemscore.Metal.Weighted>
-0.0000

> <Gold.Chemscore.Lipo.Weighted>
-10.9922

> <Gold.Chemscore.Internal_Hbond.Weighted>
0.0000

> <Gold.Chemscore.DEClash.Weighted>
0.2017

> <Gold.Chemscore.DEInternal.Weighted>
1.1415

> <Gold.Chemscore.Rot.Weighted>
3.5185

> <Gold.Chemscore.Internal.Correction.Weighted>
   9.000000E+99

> <Gold.Protein.RotatedTorsions>
[ 6907 6896 6895 6894 ] final   83.65 input  -60.11 | X-H torsion
[ 7974 7965 7964 7962 ] final -145.75 input  175.53 | X-H torsion
[ 8008 7997 7996 7995 ] final   57.44 input   59.86 | X-H torsion
[ 10167 10162 10161 10158 ] final  -24.46 input  -65.29 | X-H torsion
[ 10718 10713 10712 10709 ] final   57.46 input   66.30 | X-H torsion
[ 10763 10752 10751 10750 ] final   76.91 input  -60.55 | X-H torsion
[ 11005 11000 10999 10996 ] final -157.90 input  -57.11 | X-H torsion

> <Gold.Protein.ActiveResidues>
 VAL166  LYS551  ARG553  GLY616  TRP617  ASP618  TYR619  PRO620  LYS621  CYS622 
 ASP623  PHE694  ASN695  SER759  ASP760  ASP761  ALA762  ILE779  LEU786  VAL792 
 PHE793  MET794  SER795  GLU796  ALA797  LYS798  CYS799  TRP800  GLU811  SER814 

> <Gold.Protein.RotatedAtoms>
  152.5332  134.2863  159.9026 H   0  0  0  0  0  0  0  0  0  0  0  0  # atno 6907 bound_to 6896
  151.2816  133.4200  159.2635 H   0  0  0  0  0  0  0  0  0  0  0  0  # atno 6908 bound_to 6896
  151.0279  134.9533  159.8152 H   0  0  0  0  0  0  0  0  0  0  0  0  # atno 6909 bound_to 6896
  144.8206  140.5543  143.5581 H   0  0  0  0  0  0  0  0  0  0  0  0  # atno 7974 bound_to 7965
  155.5338  140.3482  155.4432 H   0  0  0  0  0  0  0  0  0  0  0  0  # atno 8008 bound_to 7997
  156.0699  140.1360  156.9867 H   0  0  0  0  0  0  0  0  0  0  0  0  # atno 8009 bound_to 7997
  154.4523  140.0968  156.6629 H   0  0  0  0  0  0  0  0  0  0  0  0  # atno 8010 bound_to 7997
  140.7288  143.4351  151.0741 H   0  0  0  0  0  0  0  0  0  0  0  0  # atno 10167 bound_to 10162
  157.5516  130.8770  149.8972 H   0  0  0  0  0  0  0  0  0  0  0  0  # atno 10718 bound_to 10713
  153.0760  135.4933  154.8405 H   0  0  0  0  0  0  0  0  0  0  0  0  # atno 10763 bound_to 10752
  154.7088  135.3016  154.9232 H   0  0  0  0  0  0  0  0  0  0  0  0  # atno 10764 bound_to 10752
  153.9932  135.6775  153.4808 H   0  0  0  0  0  0  0  0  0  0  0  0  # atno 10765 bound_to 10752
  140.6595  134.4364  157.5234 H   0  0  0  0  0  0  0  0  0  0  0  0  # atno 11005 bound_to 11000
  145.5115  139.1479  143.3602 LP  0  0  0  0  0  0  0  0  0  0  0  0  # atno 17320 bound_to 7965
  146.2511  140.5255  142.8893 LP  0  0  0  0  0  0  0  0  0  0  0  0  # atno 17321 bound_to 7965
  139.8013  143.8080  152.3163 LP  0  0  0  0  0  0  0  0  0  0  0  0  # atno 17342 bound_to 10162
  139.8098  144.7340  150.9713 LP  0  0  0  0  0  0  0  0  0  0  0  0  # atno 17343 bound_to 10162
  156.0581  130.3704  150.1043 LP  0  0  0  0  0  0  0  0  0  0  0  0  # atno 17370 bound_to 10713
  156.9216  130.9684  151.3547 LP  0  0  0  0  0  0  0  0  0  0  0  0  # atno 17371 bound_to 10713
  139.9018  134.8539  156.1866 LP  0  0  0  0  0  0  0  0  0  0  0  0  # atno 17394 bound_to 11000
  141.0476  133.6905  156.1712 LP  0  0  0  0  0  0  0  0  0  0  0  0  # atno 17395 bound_to 11000

$$$$
