AV-unprocessed.smi:1032|AV-procd|sdf|4488|dock3
  -GOLD-   22720 2473D 1   1.00000     0.00000
 Structure written by MMmdl.
 47 48  0  0  0  0  0  0  0  0  3 V2000
  145.1768  143.6015  156.8267 C   0  0  0  0  0  0  0  0  0  0  0  0
  144.3941  142.9980  155.6474 C   0  0  2  0  0  0  0  0  0  0  0  0
  144.3878  141.4586  155.6624 C   0  0  0  0  0  0  0  0  0  0  0  0
  145.7429  140.8644  155.2377 C   0  0  0  0  0  0  0  0  0  0  0  0
  146.1634  141.3736  153.9069 N   0  3  2  0  0  0  0  0  0  0  0  0
  147.4005  140.7127  153.4163 C   0  0  0  0  0  0  0  0  0  0  0  0
  147.2498  139.1816  153.3051 C   0  0  2  0  0  0  0  0  0  0  0  0
  148.5487  138.6225  153.2683 O   0  0  0  0  0  0  0  0  0  0  0  0
  146.5143  138.7754  152.0111 C   0  0  0  0  0  0  0  0  0  0  0  0
  146.7620  137.3815  151.6539 N   0  0  0  0  0  0  0  0  0  0  0  0
  145.8164  136.4369  151.5461 C   0  0  0  0  0  0  0  0  0  0  0  0
  144.6223  136.6492  151.7578 O   0  0  0  0  0  0  0  0  0  0  0  0
  146.3461  135.2489  151.2070 N   0  0  0  0  0  0  0  0  0  0  0  0
  145.6760  134.0164  150.9773 C   0  0  0  0  0  0  0  0  0  0  0  0
  144.2752  133.9884  151.1581 C   0  0  0  0  0  0  0  0  0  0  0  0
  143.5715  132.7834  150.9569 C   0  0  0  0  0  0  0  0  0  0  0  0
  144.2405  131.6647  150.6044 N   0  3  0  0  0  0  0  0  0  0  0  0
  145.5799  131.6382  150.4350 C   0  0  0  0  0  0  0  0  0  0  0  0
  146.3369  132.8129  150.6214 C   0  0  0  0  0  0  0  0  0  0  0  0
  146.2456  142.8586  153.8912 C   0  0  0  0  0  0  0  0  0  0  0  0
  144.8989  143.4941  154.2804 C   0  0  0  0  0  0  0  0  0  0  0  0
  146.2308  143.3261  156.8070 H   0  0  0  0  0  0  0  0  0  0  0  0
  144.7670  143.2648  157.7793 H   0  0  0  0  0  0  0  0  0  0  0  0
  145.1208  144.6905  156.8149 H   0  0  0  0  0  0  0  0  0  0  0  0
  143.3621  143.3333  155.7594 H   0  0  0  0  0  0  0  0  0  0  0  0
  144.1121  141.0919  156.6517 H   0  0  0  0  0  0  0  0  0  0  0  0
  143.6157  141.0982  154.9813 H   0  0  0  0  0  0  0  0  0  0  0  0
  146.5115  141.0925  155.9772 H   0  0  0  0  0  0  0  0  0  0  0  0
  145.6546  139.7777  155.2020 H   0  0  0  0  0  0  0  0  0  0  0  0
  147.6712  141.1436  152.4510 H   0  0  0  0  0  0  0  0  0  0  0  0
  148.2338  140.9312  154.0864 H   0  0  0  0  0  0  0  0  0  0  0  0
  146.7191  138.7918  154.1729 H   0  0  0  0  0  0  0  0  0  0  0  0
  148.9483  138.8364  152.4387 H   0  0  0  0  0  0  0  0  0  0  0  0
  145.4379  138.9081  152.1354 H   0  0  0  0  0  0  0  0  0  0  0  0
  146.7999  139.4198  151.1786 H   0  0  0  0  0  0  0  0  0  0  0  0
  147.7210  137.1229  151.4722 H   0  0  0  0  0  0  0  0  0  0  0  0
  147.3538  135.2106  151.1581 H   0  0  0  0  0  0  0  0  0  0  0  0
  143.7390  134.8823  151.4427 H   0  0  0  0  0  0  0  0  0  0  0  0
  142.5018  132.6814  151.0692 H   0  0  0  0  0  0  0  0  0  0  0  0
  146.0050  130.6830  150.1633 H   0  0  0  0  0  0  0  0  0  0  0  0
  147.4082  132.7639  150.5005 H   0  0  0  0  0  0  0  0  0  0  0  0
  147.0331  143.1900  154.5691 H   0  0  0  0  0  0  0  0  0  0  0  0
  146.5242  143.2130  152.8996 H   0  0  0  0  0  0  0  0  0  0  0  0
  144.1595  143.2490  153.5165 H   0  0  0  0  0  0  0  0  0  0  0  0
  144.9832  144.5814  154.2803 H   0  0  0  0  0  0  0  0  0  0  0  0
  145.4306  141.1116  153.2624 H   0  0  0  0  0  0  0  0  0  0  0  0
  143.7127  130.8024  150.4652 H   0  0  0  0  0  0  0  0  0  0  0  0
  1  2  1  0  0  0  0
  1 22  1  0  0  0  0
  1 23  1  0  0  0  0
  1 24  1  0  0  0  0
  2 21  1  0  0  0  0
  2  3  1  0  0  0  0
  2 25  1  0  0  0  0
  3  4  1  0  0  0  0
  3 26  1  0  0  0  0
  3 27  1  0  0  0  0
  4  5  1  0  0  0  0
  4 28  1  0  0  0  0
  4 29  1  0  0  0  0
  5  6  1  0  0  0  0
  5 20  1  0  0  0  0
  5 46  1  0  0  0  0
  6  7  1  0  0  0  0
  6 30  1  0  0  0  0
  6 31  1  0  0  0  0
  7  8  1  0  0  0  0
  7  9  1  0  0  0  0
  7 32  1  0  0  0  0
  8 33  1  0  0  0  0
  9 10  1  0  0  0  0
  9 34  1  0  0  0  0
  9 35  1  0  0  0  0
 10 11  1  0  0  0  0
 10 36  1  0  0  0  0
 11 12  2  0  0  0  0
 11 13  1  0  0  0  0
 13 14  1  0  0  0  0
 13 37  1  0  0  0  0
 14 19  1  0  0  0  0
 14 15  2  0  0  0  0
 15 16  1  0  0  0  0
 15 38  1  0  0  0  0
 16 17  2  0  0  0  0
 16 39  1  0  0  0  0
 17 18  1  0  0  0  0
 17 47  1  0  0  0  0
 18 19  2  0  0  0  0
 18 40  1  0  0  0  0
 19 41  1  0  0  0  0
 20 21  1  0  0  0  0
 20 42  1  0  0  0  0
 20 43  1  0  0  0  0
 21 44  1  0  0  0  0
 21 45  1  0  0  0  0
M  CHG  1   5   1
M  CHG  1  17   1
M  END
> <s_m_source_file>
AV-unprocessed.smi

> <i_m_source_file_index>
1032

> <i_lp_mmshare_version>
43012

> <i_f3d_flags>
0

> <s_epik_input>
W0NIM11bQ0hdMVtDSDJdW0NIMl1OKFtDSDJdW0NIMl0xKVtDSDJdW0NASF0oW09IXSlbQ0gyXVtOSF1DKD1PKVtOSF1jMltjSF1bY0hdbltjSF1bY0hdMg==

> <s_epik_cmdline>
J2VwaWtfcHl0aG9uJywgJy1waCcsICc3LjAnLCAnLXRuJywgJzgnLCAnLW1hJywgJzIwMCcsICctbWV0YWxfYmluZGluZycsICctaW1hZScsICc8aW5maWxlLm1hZT4nLCAnLW9tYWUnLCAnPG91dGZpbGUubWFlPic=

> <r_epik_Ionization_Penalty>
1.02509

> <r_epik_Ionization_Penalty_Charging>
1.02507

> <r_epik_Ionization_Penalty_Neutral>
1.85474e-05

> <r_epik_State_Penalty>
1.07411

> <r_epik_Charging_Adjusted_Penalty>
2.09917

> <i_epik_Tot_Q>
2

> <i_epik_Tot_abs_Q>
2

> <r_epik_Metal_State_Penalty>
1.1725

> <b_epik_Metal_Only>
0

> <s_lp_Force_Field>
OPLS_2005

> <r_lp_Energy>
33.8521

> <b_lp_Chiralities_Consistent>
1

> <s_lp_Variant>
AV-unprocessed.smi:1032-7

> <Gold.Version>
5.8.1

> <Gold.Id.Protein>
6NUR|6NUR_protein|mol2

> <Gold.PLP.Fitness>
53.2264

> <Gold.PLP.PLP>
-39.4882

> <Gold.PLP.part.hbond>
-4.8354

> <Gold.PLP.part.metal>
0.0000

> <Gold.PLP.part.buried>
-6.3142

> <Gold.PLP.part.nonpolar>
-30.9897

> <Gold.PLP.part.repulsive>
2.0803

> <Gold.PLP.ligand.clash>
0.0193

> <Gold.PLP.ligand.torsion>
0.3645

> <Gold.PLP.Chemscore.Hbond>
4.8160

> <Gold.PLP.Chemscore.CHOScore>
0.0000

> <Gold.PLP.Chemscore.Metal>
0.0000

> <Gold.Chemscore.Hbonds>
donor molecule, donor type, donor heavy atom, donor atom, acceptor molecule, acceptor atom, score
      L1  H     5    46       P1 10175  2.00
      L1  H     8    33       P1  7957  1.00
      L1  H    10    36       P1  7948  0.99
      L1  H    13    37       P1  7948  0.82

> <Gold.PLP.Chemscore.Internal.Correction>
0.0386

> <Gold.Rescore>
     Score         DG    S(hbond)    S(metal)    S(lipo)     H(rot)  DE(clash)    DE(int)     intcor
     16.51     -18.86       3.10        0.00      76.95       2.34       0.57       1.78       ----

> <Gold.Chemscore.Fitness>
16.5051

> <Gold.Chemscore.DG>
-18.8599

> <Gold.Chemscore.ZeroCoef>
-5.4800

> <Gold.Chemscore.Hbond>
3.1034

> <Gold.Chemscore.Metal>
0.0000

> <Gold.Chemscore.Lipo>
76.9502

> <Gold.Chemscore.Internal_Hbond>
0.0000

> <Gold.Chemscore.DEClash>
0.5706

> <Gold.Chemscore.DEInternal>
1.7842

> <Gold.Chemscore.Rot>
2.3393

> <Gold.Chemscore.Internal.Correction>
   9.000000E+99

> <Gold.Chemscore.Hbonds>
donor molecule, donor type, donor heavy atom, donor atom, acceptor molecule, acceptor atom, score
      L1  H     5    46       P1 10175  0.33
      L1  H     8    33       P1  7957  0.93
      L1  H    10    36       P1  7948  0.88
      L1  H    13    37       P1  7948  0.44

> <Gold.Chemscore.Hbond.Weighted>
-10.3654

> <Gold.Chemscore.Metal.Weighted>
-0.0000

> <Gold.Chemscore.Lipo.Weighted>
-9.0032

> <Gold.Chemscore.Internal_Hbond.Weighted>
0.0000

> <Gold.Chemscore.DEClash.Weighted>
0.5706

> <Gold.Chemscore.DEInternal.Weighted>
1.7842

> <Gold.Chemscore.Rot.Weighted>
5.9886

> <Gold.Chemscore.Internal.Correction.Weighted>
   9.000000E+99

> <Gold.Protein.RotatedTorsions>
[ 6907 6896 6895 6894 ] final -138.91 input  -60.11 | X-H torsion
[ 7974 7965 7964 7962 ] final -101.90 input  175.53 | X-H torsion
[ 8008 7997 7996 7995 ] final  -78.75 input   59.86 | X-H torsion
[ 10167 10162 10161 10158 ] final -127.53 input  -65.29 | X-H torsion
[ 10718 10713 10712 10709 ] final  124.50 input   66.30 | X-H torsion
[ 10763 10752 10751 10750 ] final  -92.82 input  -60.55 | X-H torsion
[ 11005 11000 10999 10996 ] final -110.71 input  -57.11 | X-H torsion

> <Gold.Protein.ActiveResidues>
 VAL166  LYS551  ARG553  GLY616  TRP617  ASP618  TYR619  PRO620  LYS621  CYS622 
 ASP623  PHE694  ASN695  SER759  ASP760  ASP761  ALA762  ILE779  LEU786  VAL792 
 PHE793  MET794  SER795  GLU796  ALA797  LYS798  CYS799  TRP800  GLU811  SER814 

> <Gold.Protein.RotatedAtoms>
  151.0411  133.5705  159.2650 H   0  0  0  0  0  0  0  0  0  0  0  0  # atno 6907 bound_to 6896
  151.2751  135.0696  159.9158 H   0  0  0  0  0  0  0  0  0  0  0  0  # atno 6908 bound_to 6896
  152.5364  134.0135  159.8003 H   0  0  0  0  0  0  0  0  0  0  0  0  # atno 6909 bound_to 6896
  145.2756  140.9311  143.2961 H   0  0  0  0  0  0  0  0  0  0  0  0  # atno 7974 bound_to 7965
  154.5719  140.0689  156.8977 H   0  0  0  0  0  0  0  0  0  0  0  0  # atno 8008 bound_to 7997
  155.2619  140.3359  155.4254 H   0  0  0  0  0  0  0  0  0  0  0  0  # atno 8009 bound_to 7997
  156.2125  140.1765  156.7649 H   0  0  0  0  0  0  0  0  0  0  0  0  # atno 8010 bound_to 7997
  139.9599  143.5962  152.2448 H   0  0  0  0  0  0  0  0  0  0  0  0  # atno 10167 bound_to 10162
  157.5580  131.1091  150.8588 H   0  0  0  0  0  0  0  0  0  0  0  0  # atno 10718 bound_to 10713
  154.6899  135.5217  153.8377 H   0  0  0  0  0  0  0  0  0  0  0  0  # atno 10763 bound_to 10752
  153.0624  135.6573  154.0441 H   0  0  0  0  0  0  0  0  0  0  0  0  # atno 10764 bound_to 10752
  154.0317  135.2985  155.3347 H   0  0  0  0  0  0  0  0  0  0  0  0  # atno 10765 bound_to 10752
  141.0776  133.9275  157.2357 H   0  0  0  0  0  0  0  0  0  0  0  0  # atno 11005 bound_to 11000
  144.9297  139.4313  143.6501 LP  0  0  0  0  0  0  0  0  0  0  0  0  # atno 17320 bound_to 7965
  146.3233  139.8202  142.8928 LP  0  0  0  0  0  0  0  0  0  0  0  0  # atno 17321 bound_to 7965
  139.6562  144.7662  151.2051 LP  0  0  0  0  0  0  0  0  0  0  0  0  # atno 17342 bound_to 10162
  140.7556  143.6082  150.8632 LP  0  0  0  0  0  0  0  0  0  0  0  0  # atno 17343 bound_to 10162
  156.9094  130.5275  149.5280 LP  0  0  0  0  0  0  0  0  0  0  0  0  # atno 17370 bound_to 10713
  156.0636  130.5684  150.9244 LP  0  0  0  0  0  0  0  0  0  0  0  0  # atno 17371 bound_to 10713
  139.9588  135.0159  156.9204 LP  0  0  0  0  0  0  0  0  0  0  0  0  # atno 17394 bound_to 11000
  140.5539  134.0600  155.7378 LP  0  0  0  0  0  0  0  0  0  0  0  0  # atno 17395 bound_to 11000

$$$$
