AV-unprocessed.smi:161|AV-procd|sdf|1375|dock8
  -GOLD-   2262019 93D 1   1.00000     0.00000
 Structure written by MMmdl.
 52 55  0  0  0  0  0  0  0  0  1 V2000
  146.7268  135.5078  162.4805 C   0  0  0  0  0  0  0  0  0  0  0  0
  147.7161  136.4814  161.8364 C   0  0  0  0  0  0  0  0  0  0  0  0
  147.3583  136.6717  160.4774 O   0  0  0  0  0  0  0  0  0  0  0  0
  148.1580  137.3735  159.6559 C   0  0  0  0  0  0  0  0  0  0  0  0
  149.3115  137.6967  159.9429 O   0  0  0  0  0  0  0  0  0  0  0  0
  147.4544  137.6885  158.3565 C   0  0  2  0  0  0  0  0  0  0  0  0
  146.0169  138.2148  158.4313 C   0  0  0  0  0  0  0  0  0  0  0  0
  146.1182  137.7117  156.9797 C   0  0  2  0  0  0  0  0  0  0  0  0
  144.8999  137.5660  156.0820 C   0  0  0  0  0  0  0  0  0  0  0  0
  146.8108  136.5029  157.6220 C   0  0  0  0  0  0  0  0  0  0  0  0
  147.1789  138.4648  156.3678 O   0  0  0  0  0  0  0  0  0  0  0  0
  148.2285  138.5213  157.3365 C   0  0  0  0  0  0  0  0  0  0  0  0
  149.5145  137.8429  156.7818 C   0  0  0  0  0  0  0  0  0  0  0  0
  150.2371  138.7269  155.7506 C   0  0  0  0  0  0  0  0  0  0  0  0
  150.5078  140.0320  156.3640 N   0  0  0  0  0  0  0  0  0  0  0  0
  151.6735  140.4190  156.9406 C   0  0  0  0  0  0  0  0  0  0  0  0
  152.7169  139.7778  156.8112 O   0  0  0  0  0  0  0  0  0  0  0  0
  151.7081  141.6875  157.7043 C   0  0  0  0  0  0  0  0  0  0  0  0
  151.1112  142.9089  157.5555 C   0  0  0  0  0  0  0  0  0  0  0  0
  151.4954  143.7329  158.6092 N   0  0  0  0  0  0  0  0  0  0  0  0
  152.2840  143.0750  159.3974 N   0  0  0  0  0  0  0  0  0  0  0  0
  152.4276  141.8282  158.8845 N   0  0  0  0  0  0  0  0  0  0  0  0
  153.2817  140.8802  159.5887 C   0  0  0  0  0  0  0  0  0  0  0  0
  153.8011  141.4467  160.9168 C   0  0  0  0  0  0  0  0  0  0  0  0
  149.2548  140.7527  156.6021 C   0  0  0  0  0  0  0  0  0  0  0  0
  148.4857  140.0124  157.7101 C   0  0  0  0  0  0  0  0  0  0  0  0
  146.9831  135.3284  163.5245 H   0  0  0  0  0  0  0  0  0  0  0  0
  146.7295  134.5472  161.9652 H   0  0  0  0  0  0  0  0  0  0  0  0
  145.7116  135.9041  162.4487 H   0  0  0  0  0  0  0  0  0  0  0  0
  147.6976  137.4310  162.3732 H   0  0  0  0  0  0  0  0  0  0  0  0
  148.7315  136.0887  161.8955 H   0  0  0  0  0  0  0  0  0  0  0  0
  145.3269  137.6721  159.0843 H   0  0  0  0  0  0  0  0  0  0  0  0
  145.8970  139.2913  158.5403 H   0  0  0  0  0  0  0  0  0  0  0  0
  144.1145  136.9901  156.5720 H   0  0  0  0  0  0  0  0  0  0  0  0
  145.1538  137.0553  155.1531 H   0  0  0  0  0  0  0  0  0  0  0  0
  144.4833  138.5392  155.8223 H   0  0  0  0  0  0  0  0  0  0  0  0
  147.4525  135.9317  156.9534 H   0  0  0  0  0  0  0  0  0  0  0  0
  146.1730  135.8415  158.2161 H   0  0  0  0  0  0  0  0  0  0  0  0
  150.2004  137.6329  157.6026 H   0  0  0  0  0  0  0  0  0  0  0  0
  149.2945  136.8810  156.3225 H   0  0  0  0  0  0  0  0  0  0  0  0
  151.1251  138.2163  155.3871 H   0  0  0  0  0  0  0  0  0  0  0  0
  149.6067  138.8613  154.8705 H   0  0  0  0  0  0  0  0  0  0  0  0
  150.4433  143.2593  156.7825 H   0  0  0  0  0  0  0  0  0  0  0  0
  152.7179  139.9655  159.7775 H   0  0  0  0  0  0  0  0  0  0  0  0
  154.1114  140.5959  158.9421 H   0  0  0  0  0  0  0  0  0  0  0  0
  154.3826  140.6975  161.4538 H   0  0  0  0  0  0  0  0  0  0  0  0
  152.9800  141.7566  161.5635 H   0  0  0  0  0  0  0  0  0  0  0  0
  154.4477  142.3092  160.7575 H   0  0  0  0  0  0  0  0  0  0  0  0
  149.4177  141.7941  156.8838 H   0  0  0  0  0  0  0  0  0  0  0  0
  148.6621  140.7862  155.6869 H   0  0  0  0  0  0  0  0  0  0  0  0
  147.5570  140.5436  157.9100 H   0  0  0  0  0  0  0  0  0  0  0  0
  149.0762  140.0764  158.6232 H   0  0  0  0  0  0  0  0  0  0  0  0
  1  2  1  0  0  0  0
  1 27  1  0  0  0  0
  1 28  1  0  0  0  0
  1 29  1  0  0  0  0
  2  3  1  0  0  0  0
  2 30  1  0  0  0  0
  2 31  1  0  0  0  0
  3  4  1  0  0  0  0
  4  5  2  0  0  0  0
  4  6  1  0  0  0  0
  6 10  1  0  0  0  0
  6 12  1  0  0  0  0
  6  7  1  0  0  0  0
  7  8  1  0  0  0  0
  7 32  1  0  0  0  0
  7 33  1  0  0  0  0
  8  9  1  0  0  0  0
  8 10  1  0  0  0  0
  8 11  1  0  0  0  0
  9 34  1  0  0  0  0
  9 35  1  0  0  0  0
  9 36  1  0  0  0  0
 10 37  1  0  0  0  0
 10 38  1  0  0  0  0
 11 12  1  0  0  0  0
 12 26  1  0  0  0  0
 12 13  1  0  0  0  0
 13 14  1  0  0  0  0
 13 39  1  0  0  0  0
 13 40  1  0  0  0  0
 14 15  1  0  0  0  0
 14 41  1  0  0  0  0
 14 42  1  0  0  0  0
 15 16  1  0  0  0  0
 15 25  1  0  0  0  0
 16 17  2  0  0  0  0
 16 18  1  0  0  0  0
 18 22  1  0  0  0  0
 18 19  2  0  0  0  0
 19 20  1  0  0  0  0
 19 43  1  0  0  0  0
 20 21  2  0  0  0  0
 21 22  1  0  0  0  0
 22 23  1  0  0  0  0
 23 24  1  0  0  0  0
 23 44  1  0  0  0  0
 23 45  1  0  0  0  0
 24 46  1  0  0  0  0
 24 47  1  0  0  0  0
 24 48  1  0  0  0  0
 25 26  1  0  0  0  0
 25 49  1  0  0  0  0
 25 50  1  0  0  0  0
 26 51  1  0  0  0  0
 26 52  1  0  0  0  0
M  END
> <s_m_source_file>
AV-unprocessed.smi

> <i_m_source_file_index>
161

> <i_lp_mmshare_version>
43012

> <i_f3d_flags>
2

> <s_epik_input>
W0NIM11bQ0gyXU9DKD1PKVtDQEBdMShbQ0gyXVtDQF0oTzIpKFtDSDNdKVtDSDJdMSlDMjNbQ0gyXVtDSDJdTihbQ0gyXVtDSDJdMylDKD1PKWM0W2NIXW5ubjRbQ0gyXVtDSDNd

> <s_epik_cmdline>
J2VwaWtfcHl0aG9uJywgJy1waCcsICc3LjAnLCAnLXRuJywgJzgnLCAnLW1hJywgJzIwMCcsICctbWV0YWxfYmluZGluZycsICctaW1hZScsICc8aW5maWxlLm1hZT4nLCAnLW9tYWUnLCAnPG91dGZpbGUubWFlPic=

> <r_lp_tautomer_probability>
1

> <r_epik_Ionization_Penalty>
1.75517e-07

> <r_epik_Ionization_Penalty_Charging>
0

> <r_epik_Ionization_Penalty_Neutral>
1.75517e-07

> <r_epik_State_Penalty>
-0

> <r_epik_Charging_Adjusted_Penalty>
0

> <i_epik_Tot_Q>
0

> <i_epik_Tot_abs_Q>
0

> <r_epik_Metal_State_Penalty>
-0

> <b_epik_Metal_Only>
0

> <s_epik_Chemistry_Notes>
This compound has an ester and may undergo hydrolysis at high or low pH.

> <s_lp_Force_Field>
OPLS_2005

> <r_lp_Energy>
59.4881

> <b_lp_Chiralities_Consistent>
0

> <s_lp_Variant>
AV-unprocessed.smi:161-1

> <Gold.Version>
5.8.1

> <Gold.Id.Protein>
6NUR|6NUR_protein|mol2

> <Gold.PLP.Fitness>
36.9484

> <Gold.PLP.PLP>
-31.9638

> <Gold.PLP.part.hbond>
-2.0000

> <Gold.PLP.part.metal>
0.0000

> <Gold.PLP.part.buried>
-5.0484

> <Gold.PLP.part.nonpolar>
-24.3209

> <Gold.PLP.part.repulsive>
0.0807

> <Gold.PLP.ligand.clash>
0.0000

> <Gold.PLP.ligand.torsion>
1.0367

> <Gold.PLP.Chemscore.Hbond>
1.0786

> <Gold.PLP.Chemscore.CHOScore>
1.0000

> <Gold.PLP.Chemscore.Metal>
0.0000

> <Gold.Chemscore.Hbonds>
donor molecule, donor type, donor heavy atom, donor atom, acceptor molecule, acceptor atom, score
      P1  H  6931  6943       L1     5  0.16
      P1  H  7997  8009       L1    17  1.00
      L1  C    19    43       P1  8028  1.00

> <Gold.PLP.Chemscore.Internal.Correction>
0.8222

> <Gold.Rescore>
     Score         DG    S(hbond)    S(metal)    S(lipo)     H(rot)  DE(clash)    DE(int)     intcor
     11.60     -12.94       1.05        0.00      65.97       1.47       0.01       1.33       ----

> <Gold.Chemscore.Fitness>
11.6023

> <Gold.Chemscore.DG>
-12.9413

> <Gold.Chemscore.ZeroCoef>
-5.4800

> <Gold.Chemscore.Hbond>
1.0460

> <Gold.Chemscore.Metal>
0.0000

> <Gold.Chemscore.Lipo>
65.9719

> <Gold.Chemscore.Internal_Hbond>
0.0000

> <Gold.Chemscore.DEClash>
0.0073

> <Gold.Chemscore.DEInternal>
1.3317

> <Gold.Chemscore.Rot>
1.4652

> <Gold.Chemscore.Internal.Correction>
   9.000000E+99

> <Gold.Chemscore.Hbonds>
donor molecule, donor type, donor heavy atom, donor atom, acceptor molecule, acceptor atom, score
      P1  H  6931  6943       L1     5  0.05
      P1  H  7997  8009       L1    17  0.99

> <Gold.Chemscore.Hbond.Weighted>
-3.4936

> <Gold.Chemscore.Metal.Weighted>
-0.0000

> <Gold.Chemscore.Lipo.Weighted>
-7.7187

> <Gold.Chemscore.Internal_Hbond.Weighted>
0.0000

> <Gold.Chemscore.DEClash.Weighted>
0.0073

> <Gold.Chemscore.DEInternal.Weighted>
1.3317

> <Gold.Chemscore.Rot.Weighted>
3.7510

> <Gold.Chemscore.Internal.Correction.Weighted>
   9.000000E+99

> <Gold.Protein.RotatedTorsions>
[ 6907 6896 6895 6894 ] final    9.99 input  -60.11 | X-H torsion
[ 7974 7965 7964 7962 ] final  -25.82 input  175.53 | X-H torsion
[ 8008 7997 7996 7995 ] final -162.43 input   59.86 | X-H torsion
[ 10167 10162 10161 10158 ] final  144.76 input  -65.29 | X-H torsion
[ 10718 10713 10712 10709 ] final  -16.48 input   66.30 | X-H torsion
[ 10763 10752 10751 10750 ] final  -48.07 input  -60.55 | X-H torsion
[ 11005 11000 10999 10996 ] final  -20.84 input  -57.11 | X-H torsion

> <Gold.Protein.ActiveResidues>
 VAL166  LYS551  ARG553  GLY616  TRP617  ASP618  TYR619  PRO620  LYS621  CYS622 
 ASP623  PHE694  ASN695  SER759  ASP760  ASP761  ALA762  ILE779  LEU786  VAL792 
 PHE793  MET794  SER795  GLU796  ALA797  LYS798  CYS799  TRP800  GLU811  SER814 

> <Gold.Protein.RotatedAtoms>
  151.7310  135.0875  160.0299 H   0  0  0  0  0  0  0  0  0  0  0  0  # atno 6907 bound_to 6896
  152.3541  133.6211  159.5975 H   0  0  0  0  0  0  0  0  0  0  0  0  # atno 6908 bound_to 6896
  150.7559  133.9444  159.3508 H   0  0  0  0  0  0  0  0  0  0  0  0  # atno 6909 bound_to 6896
  146.1466  140.4937  142.8629 H   0  0  0  0  0  0  0  0  0  0  0  0  # atno 7974 bound_to 7965
  155.8067  140.0899  157.1927 H   0  0  0  0  0  0  0  0  0  0  0  0  # atno 8008 bound_to 7997
  154.3980  140.1462  156.3397 H   0  0  0  0  0  0  0  0  0  0  0  0  # atno 8009 bound_to 7997
  155.8407  140.3439  155.5633 H   0  0  0  0  0  0  0  0  0  0  0  0  # atno 8010 bound_to 7997
  139.4940  144.5949  151.6603 H   0  0  0  0  0  0  0  0  0  0  0  0  # atno 10167 bound_to 10162
  156.5870  130.4789  149.6295 H   0  0  0  0  0  0  0  0  0  0  0  0  # atno 10718 bound_to 10713
  154.0717  135.6603  153.4825 H   0  0  0  0  0  0  0  0  0  0  0  0  # atno 10763 bound_to 10752
  153.0388  135.5159  154.7560 H   0  0  0  0  0  0  0  0  0  0  0  0  # atno 10764 bound_to 10752
  154.6628  135.3017  154.9812 H   0  0  0  0  0  0  0  0  0  0  0  0  # atno 10765 bound_to 10752
  140.8503  133.7861  155.9959 H   0  0  0  0  0  0  0  0  0  0  0  0  # atno 11005 bound_to 11000
  144.7854  140.5925  143.6577 LP  0  0  0  0  0  0  0  0  0  0  0  0  # atno 17320 bound_to 7965
  145.4922  139.1488  143.3703 LP  0  0  0  0  0  0  0  0  0  0  0  0  # atno 17321 bound_to 7965
  140.5585  144.0308  150.6159 LP  0  0  0  0  0  0  0  0  0  0  0  0  # atno 17342 bound_to 10162
  140.3386  143.3033  152.0612 LP  0  0  0  0  0  0  0  0  0  0  0  0  # atno 17343 bound_to 10162
  156.2582  130.6947  151.1707 LP  0  0  0  0  0  0  0  0  0  0  0  0  # atno 17370 bound_to 10713
  157.7313  131.0609  150.5686 LP  0  0  0  0  0  0  0  0  0  0  0  0  # atno 17371 bound_to 10713
  140.8797  134.2626  157.5150 LP  0  0  0  0  0  0  0  0  0  0  0  0  # atno 17394 bound_to 11000
  139.8704  134.9609  156.4378 LP  0  0  0  0  0  0  0  0  0  0  0  0  # atno 17395 bound_to 11000

$$$$
