AV-unprocessed.smi:463|AV-procd|sdf|2634|dock1
  -GOLD-   2262023 43D 1   1.00000     0.00000
 Structure written by MMmdl.
 42 44  0  0  0  0  0  0  0  0  1 V2000
  153.7318  140.8625  161.6439 C   0  0  0  0  0  0  0  0  0  0  0  0
  153.0005  141.9548  160.8915 C   0  0  0  0  0  0  0  0  0  0  0  0
  152.7041  143.1771  161.5265 C   0  0  0  0  0  0  0  0  0  0  0  0
  152.0189  144.1857  160.8243 C   0  0  0  0  0  0  0  0  0  0  0  0
  151.6274  143.9775  159.4874 C   0  0  0  0  0  0  0  0  0  0  0  0
  151.9213  142.7523  158.8378 C   0  0  0  0  0  0  0  0  0  0  0  0
  151.5792  142.4638  157.5351 O   0  0  0  0  0  0  0  0  0  0  0  0
  151.3238  141.1098  157.1861 C   0  0  0  0  0  0  0  0  0  0  0  0
  151.8260  140.8494  155.7594 C   0  0  0  0  0  0  0  0  0  0  0  0
  150.8486  140.1167  154.9668 N   0  0  0  0  0  0  0  0  0  0  0  0
  150.9733  138.9058  154.3639 C   0  0  0  0  0  0  0  0  0  0  0  0
  152.2249  138.0795  154.4401 C   0  0  0  0  0  0  0  0  0  0  0  0
  153.4621  138.7931  153.8724 C   0  0  0  0  0  0  0  0  0  0  0  0
  154.6526  138.1848  154.3273 O   0  0  0  0  0  0  0  0  0  0  0  0
  149.9005  138.4805  153.6944 N   0  0  0  0  0  0  0  0  0  0  0  0
  149.0003  139.5125  153.8711 C   0  0  0  0  0  0  0  0  0  0  0  0
  147.6765  139.6681  153.4007 C   0  0  0  0  0  0  0  0  0  0  0  0
  146.9402  140.8299  153.7126 C   0  0  0  0  0  0  0  0  0  0  0  0
  147.5156  141.8504  154.4971 C   0  0  0  0  0  0  0  0  0  0  0  0
  148.8326  141.7146  154.9765 C   0  0  0  0  0  0  0  0  0  0  0  0
  149.5630  140.5527  154.6629 C   0  0  0  0  0  0  0  0  0  0  0  0
  152.6077  141.7498  159.5532 C   0  0  0  0  0  0  0  0  0  0  0  0
  154.3671  141.2831  162.4239 H   0  0  0  0  0  0  0  0  0  0  0  0
  154.3635  140.2837  160.9695 H   0  0  0  0  0  0  0  0  0  0  0  0
  153.0169  140.1850  162.1110 H   0  0  0  0  0  0  0  0  0  0  0  0
  152.9994  143.3444  162.5519 H   0  0  0  0  0  0  0  0  0  0  0  0
  151.7918  145.1221  161.3122 H   0  0  0  0  0  0  0  0  0  0  0  0
  151.1031  144.7739  158.9820 H   0  0  0  0  0  0  0  0  0  0  0  0
  151.8322  140.4401  157.8810 H   0  0  0  0  0  0  0  0  0  0  0  0
  150.2539  140.9008  157.2369 H   0  0  0  0  0  0  0  0  0  0  0  0
  152.0785  141.7864  155.2653 H   0  0  0  0  0  0  0  0  0  0  0  0
  152.7482  140.2688  155.7914 H   0  0  0  0  0  0  0  0  0  0  0  0
  152.4054  137.8585  155.4927 H   0  0  0  0  0  0  0  0  0  0  0  0
  152.0832  137.1099  153.9642 H   0  0  0  0  0  0  0  0  0  0  0  0
  153.4427  138.8059  152.7822 H   0  0  0  0  0  0  0  0  0  0  0  0
  153.4721  139.8311  154.2055 H   0  0  0  0  0  0  0  0  0  0  0  0
  155.2246  138.8579  154.6636 H   0  0  0  0  0  0  0  0  0  0  0  0
  147.2275  138.8929  152.7976 H   0  0  0  0  0  0  0  0  0  0  0  0
  145.9295  140.9390  153.3471 H   0  0  0  0  0  0  0  0  0  0  0  0
  146.9456  142.7378  154.7305 H   0  0  0  0  0  0  0  0  0  0  0  0
  149.2769  142.4947  155.5767 H   0  0  0  0  0  0  0  0  0  0  0  0
  152.8333  140.8125  159.0659 H   0  0  0  0  0  0  0  0  0  0  0  0
  1  2  1  0  0  0  0
  1 23  1  0  0  0  0
  1 24  1  0  0  0  0
  1 25  1  0  0  0  0
  2 22  1  0  0  0  0
  2  3  2  0  0  0  0
  3  4  1  0  0  0  0
  3 26  1  0  0  0  0
  4  5  2  0  0  0  0
  4 27  1  0  0  0  0
  5  6  1  0  0  0  0
  5 28  1  0  0  0  0
  6  7  1  0  0  0  0
  6 22  2  0  0  0  0
  7  8  1  0  0  0  0
  8  9  1  0  0  0  0
  8 29  1  0  0  0  0
  8 30  1  0  0  0  0
  9 10  1  0  0  0  0
  9 31  1  0  0  0  0
  9 32  1  0  0  0  0
 10 21  1  0  0  0  0
 10 11  1  0  0  0  0
 11 12  1  0  0  0  0
 11 15  2  0  0  0  0
 12 13  1  0  0  0  0
 12 33  1  0  0  0  0
 12 34  1  0  0  0  0
 13 14  1  0  0  0  0
 13 35  1  0  0  0  0
 13 36  1  0  0  0  0
 14 37  1  0  0  0  0
 15 16  1  0  0  0  0
 16 21  2  0  0  0  0
 16 17  1  0  0  0  0
 17 18  2  0  0  0  0
 17 38  1  0  0  0  0
 18 19  1  0  0  0  0
 18 39  1  0  0  0  0
 19 20  2  0  0  0  0
 19 40  1  0  0  0  0
 20 21  1  0  0  0  0
 20 41  1  0  0  0  0
 22 42  1  0  0  0  0
M  END
> <s_m_source_file>
AV-unprocessed.smi

> <i_m_source_file_index>
463

> <i_lp_mmshare_version>
43012

> <i_f3d_flags>
0

> <s_epik_input>
W0NIM11jMVtjSF1bY0hdW2NIXWMoW2NIXTEpT1tDSDJdW0NIMl1uKGMobjIpW0NIMl1bQ0gyXVtPSF0pYyhjMjMpW2NIXVtjSF1bY0hdW2NIXTM=

> <s_epik_cmdline>
J2VwaWtfcHl0aG9uJywgJy1waCcsICc3LjAnLCAnLXRuJywgJzgnLCAnLW1hJywgJzIwMCcsICctbWV0YWxfYmluZGluZycsICctaW1hZScsICc8aW5maWxlLm1hZT4nLCAnLW9tYWUnLCAnPG91dGZpbGUubWFlPic=

> <r_lp_tautomer_probability>
1

> <r_epik_Ionization_Penalty>
0.206757

> <r_epik_Ionization_Penalty_Charging>
0

> <r_epik_Ionization_Penalty_Neutral>
0.206757

> <r_epik_State_Penalty>
0.196743

> <r_epik_Charging_Adjusted_Penalty>
0.196743

> <i_epik_Tot_Q>
0

> <i_epik_Tot_abs_Q>
0

> <r_epik_Metal_State_Penalty>
0.000233299

> <b_epik_Metal_Only>
0

> <s_lp_Force_Field>
OPLS_2005

> <r_lp_Energy>
15.5684

> <b_lp_Chiralities_Consistent>
1

> <s_lp_Variant>
AV-unprocessed.smi:463-1

> <Gold.Version>
5.8.1

> <Gold.Id.Protein>
6NUR|6NUR_protein|mol2

> <Gold.PLP.Fitness>
53.7707

> <Gold.PLP.PLP>
-55.7075

> <Gold.PLP.part.hbond>
-2.0000

> <Gold.PLP.part.metal>
0.0000

> <Gold.PLP.part.buried>
-3.0644

> <Gold.PLP.part.nonpolar>
-50.8145

> <Gold.PLP.part.repulsive>
0.3346

> <Gold.PLP.ligand.clash>
0.0000

> <Gold.PLP.ligand.torsion>
1.0221

> <Gold.PLP.Chemscore.Hbond>
0.0000

> <Gold.PLP.Chemscore.CHOScore>
0.0000

> <Gold.PLP.Chemscore.Metal>
0.0000

> <Gold.PLP.Chemscore.Internal.Correction>
0.1073

> <Gold.Rescore>
     Score         DG    S(hbond)    S(metal)    S(lipo)     H(rot)  DE(clash)    DE(int)     intcor
     15.00     -16.21       0.00        0.00     141.62       2.28       0.12       1.09       ----

> <Gold.Chemscore.Fitness>
15.0029

> <Gold.Chemscore.DG>
-16.2079

> <Gold.Chemscore.ZeroCoef>
-5.4800

> <Gold.Chemscore.Hbond>
0.0000

> <Gold.Chemscore.Metal>
0.0000

> <Gold.Chemscore.Lipo>
141.6242

> <Gold.Chemscore.Internal_Hbond>
0.0000

> <Gold.Chemscore.DEClash>
0.1194

> <Gold.Chemscore.DEInternal>
1.0856

> <Gold.Chemscore.Rot>
2.2821

> <Gold.Chemscore.Internal.Correction>
   9.000000E+99

> <Gold.Chemscore.Hbond.Weighted>
-0.0000

> <Gold.Chemscore.Metal.Weighted>
-0.0000

> <Gold.Chemscore.Lipo.Weighted>
-16.5700

> <Gold.Chemscore.Internal_Hbond.Weighted>
0.0000

> <Gold.Chemscore.DEClash.Weighted>
0.1194

> <Gold.Chemscore.DEInternal.Weighted>
1.0856

> <Gold.Chemscore.Rot.Weighted>
5.8421

> <Gold.Chemscore.Internal.Correction.Weighted>
   9.000000E+99

> <Gold.Protein.RotatedTorsions>
[ 6907 6896 6895 6894 ] final    7.84 input  -60.11 | X-H torsion
[ 7974 7965 7964 7962 ] final  124.48 input  175.53 | X-H torsion
[ 8008 7997 7996 7995 ] final  -58.47 input   59.86 | X-H torsion
[ 10167 10162 10161 10158 ] final   90.87 input  -65.29 | X-H torsion
[ 10718 10713 10712 10709 ] final  148.67 input   66.30 | X-H torsion
[ 10763 10752 10751 10750 ] final -159.56 input  -60.55 | X-H torsion
[ 11005 11000 10999 10996 ] final  170.84 input  -57.11 | X-H torsion

> <Gold.Protein.ActiveResidues>
 VAL166  LYS551  ARG553  GLY616  TRP617  ASP618  TYR619  PRO620  LYS621  CYS622 
 ASP623  PHE694  ASN695  SER759  ASP760  ASP761  ALA762  ILE779  LEU786  VAL792 
 PHE793  MET794  SER795  GLU796  ALA797  LYS798  CYS799  TRP800  GLU811  SER814 

> <Gold.Protein.RotatedAtoms>
  151.6964  135.0937  160.0242 H   0  0  0  0  0  0  0  0  0  0  0  0  # atno 6907 bound_to 6896
  152.3747  133.6461  159.6123 H   0  0  0  0  0  0  0  0  0  0  0  0  # atno 6908 bound_to 6896
  150.7700  133.9129  159.3416 H   0  0  0  0  0  0  0  0  0  0  0  0  # atno 6909 bound_to 6896
  145.0839  139.3636  143.4895 H   0  0  0  0  0  0  0  0  0  0  0  0  # atno 7974 bound_to 7965
  154.4310  140.1083  156.5962 H   0  0  0  0  0  0  0  0  0  0  0  0  # atno 8008 bound_to 7997
  155.5960  140.3492  155.4561 H   0  0  0  0  0  0  0  0  0  0  0  0  # atno 8009 bound_to 7997
  156.0210  140.1239  157.0347 H   0  0  0  0  0  0  0  0  0  0  0  0  # atno 8010 bound_to 7997
  139.8430  144.6632  150.9260 H   0  0  0  0  0  0  0  0  0  0  0  0  # atno 10167 bound_to 10162
  157.3057  131.0879  151.1355 H   0  0  0  0  0  0  0  0  0  0  0  0  # atno 10718 bound_to 10713
  154.7465  135.3081  154.8636 H   0  0  0  0  0  0  0  0  0  0  0  0  # atno 10763 bound_to 10752
  153.9435  135.6772  153.4748 H   0  0  0  0  0  0  0  0  0  0  0  0  # atno 10764 bound_to 10752
  153.1061  135.4888  154.8880 H   0  0  0  0  0  0  0  0  0  0  0  0  # atno 10765 bound_to 10752
  140.3126  134.7504  157.4003 H   0  0  0  0  0  0  0  0  0  0  0  0  # atno 11005 bound_to 11000
  146.3531  140.0643  142.8627 LP  0  0  0  0  0  0  0  0  0  0  0  0  # atno 17320 bound_to 7965
  145.1145  140.9425  143.4637 LP  0  0  0  0  0  0  0  0  0  0  0  0  # atno 17321 bound_to 7965
  140.7796  143.3895  151.1334 LP  0  0  0  0  0  0  0  0  0  0  0  0  # atno 17342 bound_to 10162
  139.7540  143.8735  152.3084 LP  0  0  0  0  0  0  0  0  0  0  0  0  # atno 17343 bound_to 10162
  157.2697  130.6698  149.6013 LP  0  0  0  0  0  0  0  0  0  0  0  0  # atno 17370 bound_to 10713
  155.9674  130.4483  150.5614 LP  0  0  0  0  0  0  0  0  0  0  0  0  # atno 17371 bound_to 10713
  140.1012  134.5471  155.8351 LP  0  0  0  0  0  0  0  0  0  0  0  0  # atno 17394 bound_to 11000
  141.2105  133.6695  156.6512 LP  0  0  0  0  0  0  0  0  0  0  0  0  # atno 17395 bound_to 11000

$$$$
