AV-unprocessed.smi:1396|AV-procd|sdf|5674|dock8
  -GOLD-   22720 5293D 1   1.00000     0.00000
 Structure written by MMmdl.
 46 47  0  0  0  0  0  0  0  0  1 V2000
  143.1891  136.5360  153.2245 C   0  0  0  0  0  0  0  0  0  0  0  0
  144.0893  137.5837  152.7682 N   0  0  0  0  0  0  0  0  0  0  0  0
  145.4269  137.4954  152.7982 C   0  0  0  0  0  0  0  0  0  0  0  0
  146.0308  136.5052  153.2097 O   0  0  0  0  0  0  0  0  0  0  0  0
  146.2067  138.7097  152.2795 C   0  0  0  0  0  0  0  0  0  0  0  0
  146.8651  139.5206  153.3302 N   0  0  0  0  0  0  0  0  0  0  0  0
  147.0155  140.8992  152.8520 C   0  0  0  0  0  0  0  0  0  0  0  0
  147.5761  141.8013  153.9651 C   0  0  0  0  0  0  0  0  0  0  0  0
  148.9310  141.2828  154.4658 C   0  0  0  0  0  0  0  0  0  0  0  0
  149.3860  142.0885  155.5946 N   0  0  0  0  0  0  0  0  0  0  0  0
  150.2949  141.7014  156.5006 C   0  0  0  0  0  0  0  0  0  0  0  0
  150.8701  140.6140  156.4630 O   0  0  0  0  0  0  0  0  0  0  0  0
  150.4971  142.6559  157.4248 N   0  0  0  0  0  0  0  0  0  0  0  0
  151.3138  142.6021  158.5866 C   0  0  0  0  0  0  0  0  0  0  0  0
  152.1911  141.5084  158.7284 C   0  0  0  0  0  0  0  0  0  0  0  0
  153.0307  141.4427  159.8563 C   0  0  0  0  0  0  0  0  0  0  0  0
  152.9729  142.4810  160.8068 C   0  0  0  0  0  0  0  0  0  0  0  0
  153.8002  142.4141  161.9094 O   0  0  0  0  0  0  0  0  0  0  0  0
  153.3829  143.0603  163.1072 C   0  0  0  0  0  0  0  0  0  0  0  0
  152.1410  143.5434  160.6743 N   0  0  0  0  0  0  0  0  0  0  0  0
  151.3369  143.6000  159.5914 C   0  0  0  0  0  0  0  0  0  0  0  0
  148.7802  139.8063  154.8684 C   0  0  0  0  0  0  0  0  0  0  0  0
  148.1721  138.9751  153.7257 C   0  0  0  0  0  0  0  0  0  0  0  0
  142.1541  136.8435  153.0755 H   0  0  0  0  0  0  0  0  0  0  0  0
  143.3358  136.3350  154.2865 H   0  0  0  0  0  0  0  0  0  0  0  0
  143.3534  135.6121  152.6687 H   0  0  0  0  0  0  0  0  0  0  0  0
  143.6733  138.4341  152.4165 H   0  0  0  0  0  0  0  0  0  0  0  0
  146.9513  138.3700  151.5571 H   0  0  0  0  0  0  0  0  0  0  0  0
  145.5024  139.3334  151.7269 H   0  0  0  0  0  0  0  0  0  0  0  0
  147.6671  140.9301  151.9769 H   0  0  0  0  0  0  0  0  0  0  0  0
  146.0466  141.2898  152.5381 H   0  0  0  0  0  0  0  0  0  0  0  0
  147.6808  142.8218  153.5948 H   0  0  0  0  0  0  0  0  0  0  0  0
  146.8630  141.8429  154.7903 H   0  0  0  0  0  0  0  0  0  0  0  0
  149.6539  141.3617  153.6517 H   0  0  0  0  0  0  0  0  0  0  0  0
  148.9677  143.0012  155.6986 H   0  0  0  0  0  0  0  0  0  0  0  0
  150.0274  143.5352  157.2665 H   0  0  0  0  0  0  0  0  0  0  0  0
  152.2220  140.7262  157.9839 H   0  0  0  0  0  0  0  0  0  0  0  0
  153.7087  140.6125  159.9884 H   0  0  0  0  0  0  0  0  0  0  0  0
  154.1427  142.9207  163.8761 H   0  0  0  0  0  0  0  0  0  0  0  0
  152.4495  142.6388  163.4836 H   0  0  0  0  0  0  0  0  0  0  0  0
  153.2566  144.1338  162.9586 H   0  0  0  0  0  0  0  0  0  0  0  0
  150.7225  144.4847  159.5351 H   0  0  0  0  0  0  0  0  0  0  0  0
  149.7495  139.3898  155.1450 H   0  0  0  0  0  0  0  0  0  0  0  0
  148.1458  139.7235  155.7524 H   0  0  0  0  0  0  0  0  0  0  0  0
  148.0783  137.9464  154.0730 H   0  0  0  0  0  0  0  0  0  0  0  0
  148.8479  138.9580  152.8688 H   0  0  0  0  0  0  0  0  0  0  0  0
  1  2  1  0  0  0  0
  1 24  1  0  0  0  0
  1 25  1  0  0  0  0
  1 26  1  0  0  0  0
  2  3  1  0  0  0  0
  2 27  1  0  0  0  0
  3  4  2  0  0  0  0
  3  5  1  0  0  0  0
  5  6  1  0  0  0  0
  5 28  1  0  0  0  0
  5 29  1  0  0  0  0
  6 23  1  0  0  0  0
  6  7  1  0  0  0  0
  7  8  1  0  0  0  0
  7 30  1  0  0  0  0
  7 31  1  0  0  0  0
  8  9  1  0  0  0  0
  8 32  1  0  0  0  0
  8 33  1  0  0  0  0
  9 10  1  0  0  0  0
  9 22  1  0  0  0  0
  9 34  1  0  0  0  0
 10 11  1  0  0  0  0
 10 35  1  0  0  0  0
 11 12  2  0  0  0  0
 11 13  1  0  0  0  0
 13 14  1  0  0  0  0
 13 36  1  0  0  0  0
 14 21  1  0  0  0  0
 14 15  2  0  0  0  0
 15 16  1  0  0  0  0
 15 37  1  0  0  0  0
 16 17  2  0  0  0  0
 16 38  1  0  0  0  0
 17 18  1  0  0  0  0
 17 20  1  0  0  0  0
 18 19  1  0  0  0  0
 19 39  1  0  0  0  0
 19 40  1  0  0  0  0
 19 41  1  0  0  0  0
 20 21  2  0  0  0  0
 21 42  1  0  0  0  0
 22 23  1  0  0  0  0
 22 43  1  0  0  0  0
 22 44  1  0  0  0  0
 23 45  1  0  0  0  0
 23 46  1  0  0  0  0
M  END
> <s_m_source_file>
AV-unprocessed.smi

> <i_m_source_file_index>
1396

> <i_lp_mmshare_version>
43012

> <i_f3d_flags>
0

> <s_epik_input>
W0NIM11bTkhdQyg9TylbQ0gyXU4xW0NIMl1bQ0gyXVtDSF0oW0NIMl1bQ0gyXTEpW05IXUMoPU8pW05IXWMyW2NIXVtjSF1jKE9bQ0gzXSluW2NIXTI=

> <s_epik_cmdline>
J2VwaWtfcHl0aG9uJywgJy1waCcsICc3LjAnLCAnLXRuJywgJzgnLCAnLW1hJywgJzIwMCcsICctbWV0YWxfYmluZGluZycsICctaW1hZScsICc8aW5maWxlLm1hZT4nLCAnLW9tYWUnLCAnPG91dGZpbGUubWFlPic=

> <r_lp_tautomer_probability>
1

> <r_epik_Ionization_Penalty>
0.16483

> <r_epik_Ionization_Penalty_Charging>
0

> <r_epik_Ionization_Penalty_Neutral>
0.16483

> <r_epik_State_Penalty>
0.154069

> <r_epik_Charging_Adjusted_Penalty>
0.154069

> <i_epik_Tot_Q>
0

> <i_epik_Tot_abs_Q>
0

> <r_epik_Metal_State_Penalty>
0.158584

> <b_epik_Metal_Only>
0

> <s_lp_Force_Field>
OPLS_2005

> <r_lp_Energy>
15.765

> <b_lp_Chiralities_Consistent>
1

> <s_lp_Variant>
AV-unprocessed.smi:1396-1

> <Gold.Version>
5.8.1

> <Gold.Id.Protein>
6NUR|6NUR_protein|mol2

> <Gold.PLP.Fitness>
46.1010

> <Gold.PLP.PLP>
-41.2642

> <Gold.PLP.part.hbond>
-4.1963

> <Gold.PLP.part.metal>
0.0000

> <Gold.PLP.part.buried>
-3.0210

> <Gold.PLP.part.nonpolar>
-34.3679

> <Gold.PLP.part.repulsive>
0.6882

> <Gold.PLP.ligand.clash>
0.0000

> <Gold.PLP.ligand.torsion>
1.1114

> <Gold.PLP.Chemscore.Hbond>
2.3493

> <Gold.PLP.Chemscore.CHOScore>
0.0000

> <Gold.PLP.Chemscore.Metal>
0.0000

> <Gold.Chemscore.Hbonds>
donor molecule, donor type, donor heavy atom, donor atom, acceptor molecule, acceptor atom, score
      L1  H     2    27       P1 10175  0.96
      L1  H    10    35       P1  8028  1.00
      L1  H    13    36       P1  8028  0.31

> <Gold.PLP.Chemscore.Internal.Correction>
0.0115

> <Gold.Rescore>
     Score         DG    S(hbond)    S(metal)    S(lipo)     H(rot)  DE(clash)    DE(int)     intcor
     14.33     -18.83       2.18        0.00      94.81       1.96       0.35       4.16       ----

> <Gold.Chemscore.Fitness>
14.3291

> <Gold.Chemscore.DG>
-18.8349

> <Gold.Chemscore.ZeroCoef>
-5.4800

> <Gold.Chemscore.Hbond>
2.1829

> <Gold.Chemscore.Metal>
0.0000

> <Gold.Chemscore.Lipo>
94.8130

> <Gold.Chemscore.Internal_Hbond>
0.0000

> <Gold.Chemscore.DEClash>
0.3478

> <Gold.Chemscore.DEInternal>
4.1580

> <Gold.Chemscore.Rot>
1.9645

> <Gold.Chemscore.Internal.Correction>
   9.000000E+99

> <Gold.Chemscore.Hbonds>
donor molecule, donor type, donor heavy atom, donor atom, acceptor molecule, acceptor atom, score
      L1  H     2    27       P1 10175  0.89
      L1  H    10    35       P1  8028  0.99
      L1  H    13    36       P1  8028  0.29

> <Gold.Chemscore.Hbond.Weighted>
-7.2908

> <Gold.Chemscore.Metal.Weighted>
-0.0000

> <Gold.Chemscore.Lipo.Weighted>
-11.0931

> <Gold.Chemscore.Internal_Hbond.Weighted>
0.0000

> <Gold.Chemscore.DEClash.Weighted>
0.3478

> <Gold.Chemscore.DEInternal.Weighted>
4.1580

> <Gold.Chemscore.Rot.Weighted>
5.0290

> <Gold.Chemscore.Internal.Correction.Weighted>
   9.000000E+99

> <Gold.Protein.RotatedTorsions>
[ 6907 6896 6895 6894 ] final -118.32 input  -60.11 | X-H torsion
[ 7974 7965 7964 7962 ] final  -29.86 input  175.53 | X-H torsion
[ 8008 7997 7996 7995 ] final  -53.17 input   59.86 | X-H torsion
[ 10167 10162 10161 10158 ] final -107.55 input  -65.29 | X-H torsion
[ 10718 10713 10712 10709 ] final  -14.73 input   66.30 | X-H torsion
[ 10763 10752 10751 10750 ] final   10.00 input  -60.55 | X-H torsion
[ 11005 11000 10999 10996 ] final   26.30 input  -57.11 | X-H torsion

> <Gold.Protein.ActiveResidues>
 VAL166  LYS551  ARG553  GLY616  TRP617  ASP618  TYR619  PRO620  LYS621  CYS622 
 ASP623  PHE694  ASN695  SER759  ASP760  ASP761  ALA762  ILE779  LEU786  VAL792 
 PHE793  MET794  SER795  GLU796  ALA797  LYS798  CYS799  TRP800  GLU811  SER814 

> <Gold.Protein.RotatedAtoms>
  150.8210  133.8253  159.3138 H   0  0  0  0  0  0  0  0  0  0  0  0  # atno 6907 bound_to 6896
  151.6011  135.1045  160.0070 H   0  0  0  0  0  0  0  0  0  0  0  0  # atno 6908 bound_to 6896
  152.4299  133.7219  159.6594 H   0  0  0  0  0  0  0  0  0  0  0  0  # atno 6909 bound_to 6896
  146.1186  140.5466  142.8745 H   0  0  0  0  0  0  0  0  0  0  0  0  # atno 7974 bound_to 7965
  154.4126  140.1206  156.5110 H   0  0  0  0  0  0  0  0  0  0  0  0  # atno 8008 bound_to 7997
  155.6799  140.3496  155.4832 H   0  0  0  0  0  0  0  0  0  0  0  0  # atno 8009 bound_to 7997
  155.9560  140.1114  157.0926 H   0  0  0  0  0  0  0  0  0  0  0  0  # atno 8010 bound_to 7997
  140.1757  143.4007  152.1320 H   0  0  0  0  0  0  0  0  0  0  0  0  # atno 10167 bound_to 10162
  156.6118  130.4851  149.6198 H   0  0  0  0  0  0  0  0  0  0  0  0  # atno 10718 bound_to 10713
  153.2079  135.6865  153.8149 H   0  0  0  0  0  0  0  0  0  0  0  0  # atno 10763 bound_to 10752
  153.7392  135.3240  155.3302 H   0  0  0  0  0  0  0  0  0  0  0  0  # atno 10764 bound_to 10752
  154.8207  135.4654  154.0874 H   0  0  0  0  0  0  0  0  0  0  0  0  # atno 10765 bound_to 10752
  140.3385  134.2359  155.7693 H   0  0  0  0  0  0  0  0  0  0  0  0  # atno 11005 bound_to 11000
  144.7576  140.5344  143.6758 LP  0  0  0  0  0  0  0  0  0  0  0  0  # atno 17320 bound_to 7965
  145.5514  139.1477  143.3392 LP  0  0  0  0  0  0  0  0  0  0  0  0  # atno 17321 bound_to 7965
  139.5318  144.7167  151.5030 LP  0  0  0  0  0  0  0  0  0  0  0  0  # atno 17342 bound_to 10162
  140.6553  143.8613  150.6828 LP  0  0  0  0  0  0  0  0  0  0  0  0  # atno 17343 bound_to 10162
  156.2383  130.6836  151.1531 LP  0  0  0  0  0  0  0  0  0  0  0  0  # atno 17370 bound_to 10713
  157.7252  131.0655  150.5963 LP  0  0  0  0  0  0  0  0  0  0  0  0  # atno 17371 bound_to 10713
  141.2045  133.7885  157.0285 LP  0  0  0  0  0  0  0  0  0  0  0  0  # atno 17394 bound_to 11000
  140.0801  134.9653  157.1610 LP  0  0  0  0  0  0  0  0  0  0  0  0  # atno 17395 bound_to 11000

$$$$
