AV-unprocessed.smi:1883|AV-procd|sdf|7644|dock2
  -GOLD-   22720 9373D 1   1.00000     0.00000
 Structure written by MMmdl.
 36 38  0  0  0  0  0  0  0  0  2 V2000
  151.9705  138.1152  154.5614 C   0  0  0  0  0  0  0  0  0  0  0  0
  150.7141  138.9034  154.3966 C   0  0  0  0  0  0  0  0  0  0  0  0
  149.6394  138.5461  153.6385 N   0  3  0  0  0  0  0  0  0  0  0  0
  148.6494  139.5257  153.7304 C   0  0  0  0  0  0  0  0  0  0  0  0
  147.3892  139.6068  153.1461 C   0  0  0  0  0  0  0  0  0  0  0  0
  146.6234  140.7517  153.4501 C   0  0  0  0  0  0  0  0  0  0  0  0
  147.1167  141.7605  154.3031 C   0  0  0  0  0  0  0  0  0  0  0  0
  148.3962  141.6674  154.8891 C   0  0  0  0  0  0  0  0  0  0  0  0
  149.1455  140.5312  154.5848 C   0  0  0  0  0  0  0  0  0  0  0  0
  150.4182  140.1024  154.9764 N   0  0  0  0  0  0  0  0  0  0  0  0
  151.2031  140.9375  155.8981 C   0  0  0  0  0  0  0  0  0  0  0  0
  150.9694  140.5735  157.3786 C   0  0  2  0  0  0  0  0  0  0  0  0
  149.5763  140.5821  157.6143 O   0  0  0  0  0  0  0  0  0  0  0  0
  151.7263  141.4964  158.3272 C   0  0  0  0  0  0  0  0  0  0  0  0
  151.5395  142.8956  158.2622 C   0  0  0  0  0  0  0  0  0  0  0  0
  152.2520  143.7505  159.1247 C   0  0  0  0  0  0  0  0  0  0  0  0
  152.0676  145.0898  159.0540 F   0  0  0  0  0  0  0  0  0  0  0  0
  153.1589  143.2131  160.0573 C   0  0  0  0  0  0  0  0  0  0  0  0
  153.3548  141.8207  160.1247 C   0  0  0  0  0  0  0  0  0  0  0  0
  152.6429  140.9636  159.2630 C   0  0  0  0  0  0  0  0  0  0  0  0
  152.8546  139.6271  159.3324 F   0  0  0  0  0  0  0  0  0  0  0  0
  151.9607  137.2394  153.9123 H   0  0  0  0  0  0  0  0  0  0  0  0
  152.0719  137.7786  155.5928 H   0  0  0  0  0  0  0  0  0  0  0  0
  152.8367  138.7258  154.3057 H   0  0  0  0  0  0  0  0  0  0  0  0
  147.0085  138.8360  152.4921 H   0  0  0  0  0  0  0  0  0  0  0  0
  145.6380  140.8587  153.0203 H   0  0  0  0  0  0  0  0  0  0  0  0
  146.5014  142.6235  154.5128 H   0  0  0  0  0  0  0  0  0  0  0  0
  148.7649  142.4447  155.5420 H   0  0  0  0  0  0  0  0  0  0  0  0
  152.2570  140.8310  155.6382 H   0  0  0  0  0  0  0  0  0  0  0  0
  150.9444  141.9801  155.7080 H   0  0  0  0  0  0  0  0  0  0  0  0
  151.2927  139.5474  157.5538 H   0  0  0  0  0  0  0  0  0  0  0  0
  149.3140  139.7198  157.8989 H   0  0  0  0  0  0  0  0  0  0  0  0
  150.8528  143.3208  157.5448 H   0  0  0  0  0  0  0  0  0  0  0  0
  153.7060  143.8686  160.7188 H   0  0  0  0  0  0  0  0  0  0  0  0
  154.0545  141.4097  160.8373 H   0  0  0  0  0  0  0  0  0  0  0  0
  149.5890  137.6917  153.0985 H   0  0  0  0  0  0  0  0  0  0  0  0
  1  2  1  0  0  0  0
  1 22  1  0  0  0  0
  1 23  1  0  0  0  0
  1 24  1  0  0  0  0
  2 10  1  0  0  0  0
  2  3  2  0  0  0  0
  3  4  1  0  0  0  0
  3 36  1  0  0  0  0
  4  9  2  0  0  0  0
  4  5  1  0  0  0  0
  5  6  2  0  0  0  0
  5 25  1  0  0  0  0
  6  7  1  0  0  0  0
  6 26  1  0  0  0  0
  7  8  2  0  0  0  0
  7 27  1  0  0  0  0
  8  9  1  0  0  0  0
  8 28  1  0  0  0  0
  9 10  1  0  0  0  0
 10 11  1  0  0  0  0
 11 12  1  0  0  0  0
 11 29  1  0  0  0  0
 11 30  1  0  0  0  0
 12 13  1  0  0  0  0
 12 14  1  0  0  0  0
 12 31  1  0  0  0  0
 13 32  1  0  0  0  0
 14 20  1  0  0  0  0
 14 15  2  0  0  0  0
 15 16  1  0  0  0  0
 15 33  1  0  0  0  0
 16 17  1  0  0  0  0
 16 18  2  0  0  0  0
 18 19  1  0  0  0  0
 18 34  1  0  0  0  0
 19 20  2  0  0  0  0
 19 35  1  0  0  0  0
 20 21  1  0  0  0  0
M  CHG  1   3   1
M  END
> <s_m_source_file>
AV-unprocessed.smi

> <i_m_source_file_index>
1883

> <i_lp_mmshare_version>
43012

> <i_f3d_flags>
0

> <s_epik_input>
W2NIXTFbY0hdW2NIXVtjSF1jKGMxMiluKGMobjIpW0NIM10pW0NIMl1bQ0BIXShbT0hdKWMzW2NIXWMoRilbY0hdW2NIXWMzRg==

> <s_epik_cmdline>
J2VwaWtfcHl0aG9uJywgJy1waCcsICc3LjAnLCAnLXRuJywgJzgnLCAnLW1hJywgJzIwMCcsICctbWV0YWxfYmluZGluZycsICctaW1hZScsICc8aW5maWxlLm1hZT4nLCAnLW9tYWUnLCAnPG91dGZpbGUubWFlPic=

> <r_epik_Ionization_Penalty>
0.963871

> <r_epik_Ionization_Penalty_Charging>
0.963868

> <r_epik_Ionization_Penalty_Neutral>
3.53208e-06

> <r_epik_State_Penalty>
1.00924

> <r_epik_Charging_Adjusted_Penalty>
1.9731

> <i_epik_Tot_Q>
1

> <i_epik_Tot_abs_Q>
1

> <r_epik_Metal_State_Penalty>
4.98304

> <b_epik_Metal_Only>
0

> <s_lp_Force_Field>
OPLS_2005

> <r_lp_Energy>
15.3962

> <b_lp_Chiralities_Consistent>
1

> <s_lp_Variant>
AV-unprocessed.smi:1883-3

> <Gold.Version>
5.8.1

> <Gold.Id.Protein>
6NUR|6NUR_protein|mol2

> <Gold.PLP.Fitness>
56.8923

> <Gold.PLP.PLP>
-51.7448

> <Gold.PLP.part.hbond>
-2.0000

> <Gold.PLP.part.metal>
0.0000

> <Gold.PLP.part.buried>
2.6929

> <Gold.PLP.part.nonpolar>
-52.1656

> <Gold.PLP.part.repulsive>
0.0702

> <Gold.PLP.ligand.clash>
0.0000

> <Gold.PLP.ligand.torsion>
0.4368

> <Gold.PLP.Chemscore.Hbond>
2.0000

> <Gold.PLP.Chemscore.CHOScore>
0.0000

> <Gold.PLP.Chemscore.Metal>
0.0000

> <Gold.Chemscore.Hbonds>
donor molecule, donor type, donor heavy atom, donor atom, acceptor molecule, acceptor atom, score
      L1  H     3    36       P1  7948  2.00

> <Gold.PLP.Chemscore.Internal.Correction>
0.0210

> <Gold.Rescore>
     Score         DG    S(hbond)    S(metal)    S(lipo)     H(rot)  DE(clash)    DE(int)     intcor
     16.64     -18.07       0.92        0.00     123.74       1.94       0.29       1.15       ----

> <Gold.Chemscore.Fitness>
16.6369

> <Gold.Chemscore.DG>
-18.0693

> <Gold.Chemscore.ZeroCoef>
-5.4800

> <Gold.Chemscore.Hbond>
0.9196

> <Gold.Chemscore.Metal>
0.0000

> <Gold.Chemscore.Lipo>
123.7413

> <Gold.Chemscore.Internal_Hbond>
0.0000

> <Gold.Chemscore.DEClash>
0.2850

> <Gold.Chemscore.DEInternal>
1.1473

> <Gold.Chemscore.Rot>
1.9375

> <Gold.Chemscore.Internal.Correction>
   9.000000E+99

> <Gold.Chemscore.Hbonds>
donor molecule, donor type, donor heavy atom, donor atom, acceptor molecule, acceptor atom, score
      L1  H     3    36       P1  7948  0.77

> <Gold.Chemscore.Hbond.Weighted>
-3.0714

> <Gold.Chemscore.Metal.Weighted>
-0.0000

> <Gold.Chemscore.Lipo.Weighted>
-14.4777

> <Gold.Chemscore.Internal_Hbond.Weighted>
0.0000

> <Gold.Chemscore.DEClash.Weighted>
0.2850

> <Gold.Chemscore.DEInternal.Weighted>
1.1473

> <Gold.Chemscore.Rot.Weighted>
4.9599

> <Gold.Chemscore.Internal.Correction.Weighted>
   9.000000E+99

> <Gold.Protein.RotatedTorsions>
[ 6907 6896 6895 6894 ] final  160.43 input  -60.11 | X-H torsion
[ 7974 7965 7964 7962 ] final   90.45 input  175.53 | X-H torsion
[ 8008 7997 7996 7995 ] final  135.98 input   59.86 | X-H torsion
[ 10167 10162 10161 10158 ] final -170.16 input  -65.29 | X-H torsion
[ 10718 10713 10712 10709 ] final  -37.61 input   66.30 | X-H torsion
[ 10763 10752 10751 10750 ] final   -4.50 input  -60.55 | X-H torsion
[ 11005 11000 10999 10996 ] final  -64.99 input  -57.11 | X-H torsion

> <Gold.Protein.ActiveResidues>
 VAL166  LYS551  ARG553  GLY616  TRP617  ASP618  TYR619  PRO620  LYS621  CYS622 
 ASP623  PHE694  ASN695  SER759  ASP760  ASP761  ALA762  ILE779  LEU786  VAL792 
 PHE793  MET794  SER795  GLU796  ALA797  LYS798  CYS799  TRP800  GLU811  SER814 

> <Gold.Protein.RotatedAtoms>
  151.9708  133.3725  159.4070 H   0  0  0  0  0  0  0  0  0  0  0  0  # atno 6907 bound_to 6896
  150.6949  134.4142  159.5185 H   0  0  0  0  0  0  0  0  0  0  0  0  # atno 6908 bound_to 6896
  152.1846  134.8725  160.0574 H   0  0  0  0  0  0  0  0  0  0  0  0  # atno 6909 bound_to 6896
  145.5188  139.2279  143.2683 H   0  0  0  0  0  0  0  0  0  0  0  0  # atno 7974 bound_to 7965
  156.3004  140.2457  156.3670 H   0  0  0  0  0  0  0  0  0  0  0  0  # atno 8008 bound_to 7997
  154.8824  140.0412  157.1810 H   0  0  0  0  0  0  0  0  0  0  0  0  # atno 8009 bound_to 7997
  154.8682  140.2931  155.5501 H   0  0  0  0  0  0  0  0  0  0  0  0  # atno 8010 bound_to 7997
  139.5878  144.1279  152.1597 H   0  0  0  0  0  0  0  0  0  0  0  0  # atno 10167 bound_to 10162
  156.3132  130.4255  149.8030 H   0  0  0  0  0  0  0  0  0  0  0  0  # atno 10718 bound_to 10713
  153.3857  135.7000  153.6532 H   0  0  0  0  0  0  0  0  0  0  0  0  # atno 10763 bound_to 10752
  153.5125  135.3629  155.2594 H   0  0  0  0  0  0  0  0  0  0  0  0  # atno 10764 bound_to 10752
  154.8697  135.4138  154.3164 H   0  0  0  0  0  0  0  0  0  0  0  0  # atno 10765 bound_to 10752
  141.1441  133.6674  156.5917 H   0  0  0  0  0  0  0  0  0  0  0  0  # atno 11005 bound_to 11000
  146.2119  140.5999  142.9055 LP  0  0  0  0  0  0  0  0  0  0  0  0  # atno 17320 bound_to 7965
  144.7687  140.5589  143.6685 LP  0  0  0  0  0  0  0  0  0  0  0  0  # atno 17321 bound_to 7965
  140.0847  144.5671  150.7097 LP  0  0  0  0  0  0  0  0  0  0  0  0  # atno 17342 bound_to 10162
  140.7147  143.2534  151.4472 LP  0  0  0  0  0  0  0  0  0  0  0  0  # atno 17343 bound_to 10162
  156.5366  130.8281  151.3255 LP  0  0  0  0  0  0  0  0  0  0  0  0  # atno 17370 bound_to 10713
  157.7396  130.9834  150.2322 LP  0  0  0  0  0  0  0  0  0  0  0  0  # atno 17371 bound_to 10713
  140.3758  134.7566  157.4629 LP  0  0  0  0  0  0  0  0  0  0  0  0  # atno 17394 bound_to 11000
  140.0675  134.5908  155.8678 LP  0  0  0  0  0  0  0  0  0  0  0  0  # atno 17395 bound_to 11000

$$$$
