AV-unprocessed.smi:1831|AV-procd|sdf|7457|dock1
  -GOLD-   22720 9143D 1   1.00000     0.00000
 Structure written by MMmdl.
 41 42  0  0  0  0  0  0  0  0  2 V2000
  151.5699  140.9883  156.9817 C   0  0  0  0  0  0  0  0  0  0  0  0
  151.0804  139.9146  156.0712 C   0  0  0  0  0  0  0  0  0  0  0  0
  151.1862  139.9889  154.7384 N   0  0  0  0  0  0  0  0  0  0  0  0
  150.6620  138.8709  154.1031 N   0  0  0  0  0  0  0  0  0  0  0  0
  150.1790  137.9820  154.9754 C   0  0  0  0  0  0  0  0  0  0  0  0
  149.6123  136.7869  154.4657 N   0  0  0  0  0  0  0  0  0  0  0  0
  149.1461  135.7348  155.1574 C   0  0  0  0  0  0  0  0  0  0  0  0
  149.1331  135.6382  156.3844 O   0  0  0  0  0  0  0  0  0  0  0  0
  148.6817  134.7806  154.3373 N   0  0  0  0  0  0  0  0  0  0  0  0
  148.1371  133.4933  154.7590 C   0  0  0  0  0  0  0  0  0  0  0  0
  148.1015  132.4655  153.6107 C   0  0  1  0  0  0  0  0  0  0  0  0
  147.6220  131.0820  154.0435 C   0  0  0  0  0  0  0  0  0  0  0  0
  147.0866  130.4332  152.7603 C   0  0  0  0  0  0  0  0  0  0  0  0
  146.9244  131.5153  151.7563 N   0  3  1  0  0  0  0  0  0  0  0  0
  145.6842  131.4384  150.9333 C   0  0  0  0  0  0  0  0  0  0  0  0
  145.8850  132.1096  149.5614 C   0  0  0  0  0  0  0  0  0  0  0  0
  144.4824  132.0839  151.6501 C   0  0  0  0  0  0  0  0  0  0  0  0
  147.1347  132.7926  152.4715 C   0  0  0  0  0  0  0  0  0  0  0  0
  150.3219  138.4454  156.6711 S   0  0  0  0  0  0  0  0  0  0  0  0
  151.7896  141.8976  156.4213 H   0  0  0  0  0  0  0  0  0  0  0  0
  152.4779  140.6606  157.4880 H   0  0  0  0  0  0  0  0  0  0  0  0
  150.8127  141.2163  157.7320 H   0  0  0  0  0  0  0  0  0  0  0  0
  149.5648  136.7254  153.4592 H   0  0  0  0  0  0  0  0  0  0  0  0
  148.7335  134.9458  153.3424 H   0  0  0  0  0  0  0  0  0  0  0  0
  148.7722  133.1169  155.5613 H   0  0  0  0  0  0  0  0  0  0  0  0
  147.1443  133.6212  155.1941 H   0  0  0  0  0  0  0  0  0  0  0  0
  149.1045  132.3617  153.1925 H   0  0  0  0  0  0  0  0  0  0  0  0
  148.4112  130.4936  154.5125 H   0  0  0  0  0  0  0  0  0  0  0  0
  146.8095  131.1775  154.7654 H   0  0  0  0  0  0  0  0  0  0  0  0
  147.7870  129.6939  152.3709 H   0  0  0  0  0  0  0  0  0  0  0  0
  146.1465  129.9216  152.9710 H   0  0  0  0  0  0  0  0  0  0  0  0
  145.4513  130.3852  150.7691 H   0  0  0  0  0  0  0  0  0  0  0  0
  144.9709  132.0650  148.9684 H   0  0  0  0  0  0  0  0  0  0  0  0
  146.6651  131.6246  148.9750 H   0  0  0  0  0  0  0  0  0  0  0  0
  146.1554  133.1604  149.6706 H   0  0  0  0  0  0  0  0  0  0  0  0
  143.5943  132.0626  151.0178 H   0  0  0  0  0  0  0  0  0  0  0  0
  144.6823  133.1260  151.9018 H   0  0  0  0  0  0  0  0  0  0  0  0
  144.2240  131.5599  152.5704 H   0  0  0  0  0  0  0  0  0  0  0  0
  146.1847  133.1435  152.8786 H   0  0  0  0  0  0  0  0  0  0  0  0
  147.5277  133.5632  151.8076 H   0  0  0  0  0  0  0  0  0  0  0  0
  147.7052  131.4244  151.1222 H   0  0  0  0  0  0  0  0  0  0  0  0
  1  2  1  0  0  0  0
  1 20  1  0  0  0  0
  1 21  1  0  0  0  0
  1 22  1  0  0  0  0
  2 19  1  0  0  0  0
  2  3  2  0  0  0  0
  3  4  1  0  0  0  0
  4  5  2  0  0  0  0
  5  6  1  0  0  0  0
  5 19  1  0  0  0  0
  6  7  1  0  0  0  0
  6 23  1  0  0  0  0
  7  8  2  0  0  0  0
  7  9  1  0  0  0  0
  9 10  1  0  0  0  0
  9 24  1  0  0  0  0
 10 11  1  0  0  0  0
 10 25  1  0  0  0  0
 10 26  1  0  0  0  0
 11 18  1  0  0  0  0
 11 12  1  0  0  0  0
 11 27  1  0  0  0  0
 12 13  1  0  0  0  0
 12 28  1  0  0  0  0
 12 29  1  0  0  0  0
 13 14  1  0  0  0  0
 13 30  1  0  0  0  0
 13 31  1  0  0  0  0
 14 15  1  0  0  0  0
 14 18  1  0  0  0  0
 14 41  1  0  0  0  0
 15 16  1  0  0  0  0
 15 17  1  0  0  0  0
 15 32  1  0  0  0  0
 16 33  1  0  0  0  0
 16 34  1  0  0  0  0
 16 35  1  0  0  0  0
 17 36  1  0  0  0  0
 17 37  1  0  0  0  0
 17 38  1  0  0  0  0
 18 39  1  0  0  0  0
 18 40  1  0  0  0  0
M  CHG  1  14   1
M  END
> <s_m_source_file>
AV-unprocessed.smi

> <i_m_source_file_index>
1831

> <i_lp_mmshare_version>
43012

> <i_f3d_flags>
0

> <s_epik_input>
W0NIM11jMW5uYyhzMSlbTkhdQyg9TylbTkhdW0NIMl1bQ0BASF0yW0NIMl1bQ0gyXU4oW0NIMl0yKVtDSF0oW0NIM10pW0NIM10=

> <s_epik_cmdline>
J2VwaWtfcHl0aG9uJywgJy1waCcsICc3LjAnLCAnLXRuJywgJzgnLCAnLW1hJywgJzIwMCcsICctbWV0YWxfYmluZGluZycsICctaW1hZScsICc8aW5maWxlLm1hZT4nLCAnLW9tYWUnLCAnPG91dGZpbGUubWFlPic=

> <r_lp_tautomer_probability>
1

> <r_epik_Ionization_Penalty>
0.00080807

> <r_epik_Ionization_Penalty_Charging>
0.000218981

> <r_epik_Ionization_Penalty_Neutral>
0.00058909

> <r_epik_State_Penalty>
-0

> <r_epik_Charging_Adjusted_Penalty>
0.000218981

> <i_epik_Tot_Q>
1

> <i_epik_Tot_abs_Q>
1

> <r_epik_Metal_State_Penalty>
0.236062

> <b_epik_Metal_Only>
0

> <s_lp_Force_Field>
OPLS_2005

> <r_lp_Energy>
27.4223

> <b_lp_Chiralities_Consistent>
1

> <s_lp_Variant>
AV-unprocessed.smi:1831-2

> <Gold.Version>
5.8.1

> <Gold.Id.Protein>
6NUR|6NUR_protein|mol2

> <Gold.PLP.Fitness>
40.0544

> <Gold.PLP.PLP>
-29.3090

> <Gold.PLP.part.hbond>
-4.3022

> <Gold.PLP.part.metal>
0.0000

> <Gold.PLP.part.buried>
-4.1519

> <Gold.PLP.part.nonpolar>
-21.1903

> <Gold.PLP.part.repulsive>
0.3310

> <Gold.PLP.ligand.clash>
0.0000

> <Gold.PLP.ligand.torsion>
0.6272

> <Gold.PLP.Chemscore.Hbond>
3.9920

> <Gold.PLP.Chemscore.CHOScore>
0.0000

> <Gold.PLP.Chemscore.Metal>
0.0000

> <Gold.Chemscore.Hbonds>
donor molecule, donor type, donor heavy atom, donor atom, acceptor molecule, acceptor atom, score
      L1  H     6    23       P1  7948  1.00
      L1  H     9    24       P1  7948  0.99
      L1  H    14    41       P1 10747  1.00
      P1  H  7989  7998       L1     3  1.00

> <Gold.PLP.Chemscore.Internal.Correction>
0.0238

> <Gold.Rescore>
     Score         DG    S(hbond)    S(metal)    S(lipo)     H(rot)  DE(clash)    DE(int)     intcor
     19.70     -21.16       3.41        0.00      70.28       1.54       0.31       1.15       ----

> <Gold.Chemscore.Fitness>
19.6987

> <Gold.Chemscore.DG>
-21.1582

> <Gold.Chemscore.ZeroCoef>
-5.4800

> <Gold.Chemscore.Hbond>
3.4122

> <Gold.Chemscore.Metal>
0.0000

> <Gold.Chemscore.Lipo>
70.2804

> <Gold.Chemscore.Internal_Hbond>
0.0000

> <Gold.Chemscore.DEClash>
0.3098

> <Gold.Chemscore.DEInternal>
1.1497

> <Gold.Chemscore.Rot>
1.5396

> <Gold.Chemscore.Internal.Correction>
   9.000000E+99

> <Gold.Chemscore.Hbonds>
donor molecule, donor type, donor heavy atom, donor atom, acceptor molecule, acceptor atom, score
      L1  H     6    23       P1  7948  0.70
      L1  H     9    24       P1  7948  0.47
      L1  H    14    41       P1 10747  0.99
      P1  H  7989  7998       L1     3  0.29

> <Gold.Chemscore.Hbond.Weighted>
-11.3967

> <Gold.Chemscore.Metal.Weighted>
-0.0000

> <Gold.Chemscore.Lipo.Weighted>
-8.2228

> <Gold.Chemscore.Internal_Hbond.Weighted>
0.0000

> <Gold.Chemscore.DEClash.Weighted>
0.3098

> <Gold.Chemscore.DEInternal.Weighted>
1.1497

> <Gold.Chemscore.Rot.Weighted>
3.9413

> <Gold.Chemscore.Internal.Correction.Weighted>
   9.000000E+99

> <Gold.Protein.RotatedTorsions>
[ 6907 6896 6895 6894 ] final   60.05 input  -60.11 | X-H torsion
[ 7974 7965 7964 7962 ] final -140.69 input  175.53 | X-H torsion
[ 8008 7997 7996 7995 ] final   -9.05 input   59.86 | X-H torsion
[ 10167 10162 10161 10158 ] final -126.37 input  -65.29 | X-H torsion
[ 10718 10713 10712 10709 ] final  -17.44 input   66.30 | X-H torsion
[ 10763 10752 10751 10750 ] final  102.47 input  -60.55 | X-H torsion
[ 11005 11000 10999 10996 ] final   54.91 input  -57.11 | X-H torsion

> <Gold.Protein.ActiveResidues>
 VAL166  LYS551  ARG553  GLY616  TRP617  ASP618  TYR619  PRO620  LYS621  CYS622 
 ASP623  PHE694  ASN695  SER759  ASP760  ASP761  ALA762  ILE779  LEU786  VAL792 
 PHE793  MET794  SER795  GLU796  ALA797  LYS798  CYS799  TRP800  GLU811  SER814 

> <Gold.Protein.RotatedAtoms>
  152.3969  134.6350  160.0085 H   0  0  0  0  0  0  0  0  0  0  0  0  # atno 6907 bound_to 6896
  151.6567  133.3313  159.3172 H   0  0  0  0  0  0  0  0  0  0  0  0  # atno 6908 bound_to 6896
  150.7875  134.6915  159.6544 H   0  0  0  0  0  0  0  0  0  0  0  0  # atno 6909 bound_to 6896
  144.8577  140.6169  143.5349 H   0  0  0  0  0  0  0  0  0  0  0  0  # atno 7974 bound_to 7965
  154.5683  140.2365  155.8230 H   0  0  0  0  0  0  0  0  0  0  0  0  # atno 8008 bound_to 7997
  156.2086  140.3032  155.9641 H   0  0  0  0  0  0  0  0  0  0  0  0  # atno 8009 bound_to 7997
  155.2759  140.0420  157.3002 H   0  0  0  0  0  0  0  0  0  0  0  0  # atno 8010 bound_to 7997
  139.9722  143.5833  152.2408 H   0  0  0  0  0  0  0  0  0  0  0  0  # atno 10167 bound_to 10162
  156.5736  130.4756  149.6352 H   0  0  0  0  0  0  0  0  0  0  0  0  # atno 10718 bound_to 10713
  153.3400  135.4009  155.1564 H   0  0  0  0  0  0  0  0  0  0  0  0  # atno 10763 bound_to 10752
  154.8641  135.3631  154.5359 H   0  0  0  0  0  0  0  0  0  0  0  0  # atno 10764 bound_to 10752
  153.5803  135.7076  153.5526 H   0  0  0  0  0  0  0  0  0  0  0  0  # atno 10765 bound_to 10752
  140.0649  134.5550  155.9110 H   0  0  0  0  0  0  0  0  0  0  0  0  # atno 11005 bound_to 11000
  145.4374  139.1540  143.3989 LP  0  0  0  0  0  0  0  0  0  0  0  0  # atno 17320 bound_to 7965
  146.2836  140.4493  142.8767 LP  0  0  0  0  0  0  0  0  0  0  0  0  # atno 17321 bound_to 7965
  139.6472  144.7659  151.2219 LP  0  0  0  0  0  0  0  0  0  0  0  0  # atno 17342 bound_to 10162
  140.7518  143.6219  150.8505 LP  0  0  0  0  0  0  0  0  0  0  0  0  # atno 17343 bound_to 10162
  156.2693  130.7008  151.1800 LP  0  0  0  0  0  0  0  0  0  0  0  0  # atno 17370 bound_to 10713
  157.7342  131.0583  150.5533 LP  0  0  0  0  0  0  0  0  0  0  0  0  # atno 17371 bound_to 10713
  141.1988  133.6603  156.5814 LP  0  0  0  0  0  0  0  0  0  0  0  0  # atno 17394 bound_to 11000
  140.3714  134.7602  157.4601 LP  0  0  0  0  0  0  0  0  0  0  0  0  # atno 17395 bound_to 11000

$$$$
