AV-unprocessed.smi:1178|AV-procd|sdf|4957|dock8
  -GOLD-   22720 3553D 1   1.00000     0.00000
 Structure written by MMmdl.
 32 33  0  0  0  0  0  0  0  0  2 V2000
  151.9068  139.8383  155.1883 O   0  0  0  0  0  0  0  0  0  0  0  0
  150.7471  139.6259  155.5412 C   0  0  0  0  0  0  0  0  0  0  0  0
  149.6864  139.3077  154.4726 C   0  0  0  0  0  0  0  0  0  0  0  0
  148.5038  140.1886  154.4869 N   0  0  0  0  0  0  0  0  0  0  0  0
  148.4577  141.2301  153.5433 C   0  0  0  0  0  0  0  0  0  0  0  0
  147.4173  142.0822  153.4752 C   0  0  0  0  0  0  0  0  0  0  0  0
  146.3168  141.9039  154.4143 C   0  0  0  0  0  0  0  0  0  0  0  0
  145.3584  142.6723  154.3664 O   0  0  0  0  0  0  0  0  0  0  0  0
  146.4071  140.8779  155.3103 N   0  5  0  0  0  0  0  0  0  0  0  0
  147.4711  140.0184  155.3673 C   0  0  0  0  0  0  0  0  0  0  0  0
  147.5282  139.0936  156.1779 O   0  0  0  0  0  0  0  0  0  0  0  0
  150.3654  139.6551  156.8280 N   0  0  0  0  0  0  0  0  0  0  0  0
  151.2460  139.9494  157.9474 C   0  0  0  0  0  0  0  0  0  0  0  0
  151.6362  141.4360  157.9472 C   0  0  0  0  0  0  0  0  0  0  0  0
  152.0615  141.8750  159.2823 N   0  0  0  0  0  0  0  0  0  0  0  0
  151.5097  142.9367  159.9140 C   0  0  0  0  0  0  0  0  0  0  0  0
  150.6039  143.6340  159.4581 O   0  0  0  0  0  0  0  0  0  0  0  0
  152.1129  143.2394  161.2909 C   0  0  0  0  0  0  0  0  0  0  0  0
  153.3913  142.0003  161.5172 S   0  0  0  0  0  0  0  0  0  0  0  0
  153.0550  141.2813  159.9654 C   0  0  0  0  0  0  0  0  0  0  0  0
  153.7019  140.3147  159.5631 O   0  0  0  0  0  0  0  0  0  0  0  0
  150.1648  139.3350  153.4922 H   0  0  0  0  0  0  0  0  0  0  0  0
  149.3779  138.2697  154.6043 H   0  0  0  0  0  0  0  0  0  0  0  0
  149.3100  141.2894  152.8822 H   0  0  0  0  0  0  0  0  0  0  0  0
  147.3967  142.8760  152.7433 H   0  0  0  0  0  0  0  0  0  0  0  0
  149.3935  139.4774  157.0383 H   0  0  0  0  0  0  0  0  0  0  0  0
  150.7416  139.6896  158.8794 H   0  0  0  0  0  0  0  0  0  0  0  0
  152.1392  139.3264  157.8768 H   0  0  0  0  0  0  0  0  0  0  0  0
  152.4347  141.6099  157.2234 H   0  0  0  0  0  0  0  0  0  0  0  0
  150.7970  142.0405  157.5981 H   0  0  0  0  0  0  0  0  0  0  0  0
  152.5421  144.2414  161.3120 H   0  0  0  0  0  0  0  0  0  0  0  0
  151.3560  143.1579  162.0712 H   0  0  0  0  0  0  0  0  0  0  0  0
  1  2  2  0  0  0  0
  2  3  1  0  0  0  0
  2 12  1  0  0  0  0
  3  4  1  0  0  0  0
  3 22  1  0  0  0  0
  3 23  1  0  0  0  0
  4 10  1  0  0  0  0
  4  5  1  0  0  0  0
  5  6  2  0  0  0  0
  5 24  1  0  0  0  0
  6  7  1  0  0  0  0
  6 25  1  0  0  0  0
  7  8  2  0  0  0  0
  7  9  1  0  0  0  0
  9 10  1  0  0  0  0
 10 11  2  0  0  0  0
 12 13  1  0  0  0  0
 12 26  1  0  0  0  0
 13 14  1  0  0  0  0
 13 27  1  0  0  0  0
 13 28  1  0  0  0  0
 14 15  1  0  0  0  0
 14 29  1  0  0  0  0
 14 30  1  0  0  0  0
 15 20  1  0  0  0  0
 15 16  1  0  0  0  0
 16 17  2  0  0  0  0
 16 18  1  0  0  0  0
 18 19  1  0  0  0  0
 18 31  1  0  0  0  0
 18 32  1  0  0  0  0
 19 20  1  0  0  0  0
 20 21  2  0  0  0  0
M  CHG  1   9  -1
M  END
> <s_m_source_file>
AV-unprocessed.smi

> <i_m_source_file_index>
1178

> <i_lp_mmshare_version>
43012

> <i_f3d_flags>
0

> <s_epik_input>
Tz1jMVtuSF1jKD1PKVtjSF1bY0hdbjFbQ0gyXUMoPU8pW05IXVtDSDJdW0NIMl1OMkMoPU8pW0NIMl1TQzI9Tw==

> <s_epik_cmdline>
J2VwaWtfcHl0aG9uJywgJy1waCcsICc3LjAnLCAnLXRuJywgJzgnLCAnLW1hJywgJzIwMCcsICctbWV0YWxfYmluZGluZycsICctaW1hZScsICc8aW5maWxlLm1hZT4nLCAnLW9tYWUnLCAnPG91dGZpbGUubWFlPic=

> <r_lp_tautomer_probability>
0.999537

> <r_epik_Ionization_Penalty>
3.05962

> <r_epik_Ionization_Penalty_Charging>
2.46074e-08

> <r_epik_Ionization_Penalty_Neutral>
3.05962

> <r_epik_State_Penalty>
3.05863

> <r_epik_Charging_Adjusted_Penalty>
3.05863

> <i_epik_Tot_Q>
-1

> <i_epik_Tot_abs_Q>
1

> <r_epik_Metal_State_Penalty>
0.458209

> <b_epik_Metal_Only>
1

> <s_lp_Force_Field>
OPLS_2005

> <r_lp_Energy>
17.4268

> <b_lp_Chiralities_Consistent>
1

> <s_lp_Variant>
AV-unprocessed.smi:1178-2

> <Gold.Version>
5.8.1

> <Gold.Id.Protein>
6NUR|6NUR_protein|mol2

> <Gold.PLP.Fitness>
45.0257

> <Gold.PLP.PLP>
-37.1173

> <Gold.PLP.part.hbond>
-2.0118

> <Gold.PLP.part.metal>
0.0000

> <Gold.PLP.part.buried>
-5.1695

> <Gold.PLP.part.nonpolar>
-30.4622

> <Gold.PLP.part.repulsive>
0.3445

> <Gold.PLP.ligand.clash>
0.0000

> <Gold.PLP.ligand.torsion>
0.4993

> <Gold.PLP.Chemscore.Hbond>
1.9600

> <Gold.PLP.Chemscore.CHOScore>
1.0000

> <Gold.PLP.Chemscore.Metal>
0.0000

> <Gold.Chemscore.Hbonds>
donor molecule, donor type, donor heavy atom, donor atom, acceptor molecule, acceptor atom, score
      P1  H  7989  7998       L1     1  0.91
      L1  C     5    24       P1  7957  0.91

> <Gold.PLP.Chemscore.Internal.Correction>
0.0271

> <Gold.Rescore>
     Score         DG    S(hbond)    S(metal)    S(lipo)     H(rot)  DE(clash)    DE(int)     intcor
     10.05     -10.66       1.90        0.00      53.67       2.91       0.08       0.53       ----

> <Gold.Chemscore.Fitness>
10.0485

> <Gold.Chemscore.DG>
-10.6590

> <Gold.Chemscore.ZeroCoef>
-5.4800

> <Gold.Chemscore.Hbond>
1.9003

> <Gold.Chemscore.Metal>
0.0000

> <Gold.Chemscore.Lipo>
53.6698

> <Gold.Chemscore.Internal_Hbond>
0.0000

> <Gold.Chemscore.DEClash>
0.0849

> <Gold.Chemscore.DEInternal>
0.5256

> <Gold.Chemscore.Rot>
2.9092

> <Gold.Chemscore.Internal.Correction>
   9.000000E+99

> <Gold.Chemscore.Hbonds>
donor molecule, donor type, donor heavy atom, donor atom, acceptor molecule, acceptor atom, score
      P1  H  7989  7998       L1     1  0.35

> <Gold.Chemscore.Hbond.Weighted>
-6.3471

> <Gold.Chemscore.Metal.Weighted>
-0.0000

> <Gold.Chemscore.Lipo.Weighted>
-6.2794

> <Gold.Chemscore.Internal_Hbond.Weighted>
0.0000

> <Gold.Chemscore.DEClash.Weighted>
0.0849

> <Gold.Chemscore.DEInternal.Weighted>
0.5256

> <Gold.Chemscore.Rot.Weighted>
7.4474

> <Gold.Chemscore.Internal.Correction.Weighted>
   9.000000E+99

> <Gold.Protein.RotatedTorsions>
[ 6907 6896 6895 6894 ] final -140.86 input  -60.11 | X-H torsion
[ 7974 7965 7964 7962 ] final  156.23 input  175.53 | X-H torsion
[ 8008 7997 7996 7995 ] final  129.92 input   59.86 | X-H torsion
[ 10167 10162 10161 10158 ] final -173.75 input  -65.29 | X-H torsion
[ 10718 10713 10712 10709 ] final    5.76 input   66.30 | X-H torsion
[ 10763 10752 10751 10750 ] final  -69.26 input  -60.55 | X-H torsion
[ 11005 11000 10999 10996 ] final   97.86 input  -57.11 | X-H torsion

> <Gold.Protein.ActiveResidues>
 VAL166  LYS551  ARG553  GLY616  TRP617  ASP618  TYR619  PRO620  LYS621  CYS622 
 ASP623  PHE694  ASN695  SER759  ASP760  ASP761  ALA762  ILE779  LEU786  VAL792 
 PHE793  MET794  SER795  GLU796  ALA797  LYS798  CYS799  TRP800  GLU811  SER814 

> <Gold.Protein.RotatedAtoms>
  151.0662  133.5503  159.2630 H   0  0  0  0  0  0  0  0  0  0  0  0  # atno 6907 bound_to 6896
  151.2460  135.0605  159.9053 H   0  0  0  0  0  0  0  0  0  0  0  0  # atno 6908 bound_to 6896
  152.5405  134.0430  159.8130 H   0  0  0  0  0  0  0  0  0  0  0  0  # atno 6909 bound_to 6896
  144.7976  139.7175  143.6195 H   0  0  0  0  0  0  0  0  0  0  0  0  # atno 7974 bound_to 7965
  156.2945  140.2609  156.2677 H   0  0  0  0  0  0  0  0  0  0  0  0  # atno 8008 bound_to 7997
  154.9726  140.0391  157.2260 H   0  0  0  0  0  0  0  0  0  0  0  0  # atno 8009 bound_to 7997
  154.7845  140.2801  155.6043 H   0  0  0  0  0  0  0  0  0  0  0  0  # atno 8010 bound_to 7997
  139.5671  144.1729  152.1329 H   0  0  0  0  0  0  0  0  0  0  0  0  # atno 10167 bound_to 10162
  156.9122  130.5760  149.5647 H   0  0  0  0  0  0  0  0  0  0  0  0  # atno 10718 bound_to 10713
  154.4008  135.6031  153.5896 H   0  0  0  0  0  0  0  0  0  0  0  0  # atno 10763 bound_to 10752
  152.9788  135.5906  154.4186 H   0  0  0  0  0  0  0  0  0  0  0  0  # atno 10764 bound_to 10752
  154.3985  135.2842  155.2089 H   0  0  0  0  0  0  0  0  0  0  0  0  # atno 10765 bound_to 10752
  139.8774  134.9021  156.4370 H   0  0  0  0  0  0  0  0  0  0  0  0  # atno 11005 bound_to 11000
  146.2248  139.5703  142.9594 LP  0  0  0  0  0  0  0  0  0  0  0  0  # atno 17320 bound_to 7965
  145.5634  141.0402  143.2214 LP  0  0  0  0  0  0  0  0  0  0  0  0  # atno 17321 bound_to 7965
  140.1254  144.5336  150.6836 LP  0  0  0  0  0  0  0  0  0  0  0  0  # atno 17342 bound_to 10162
  140.6955  143.2401  151.5013 LP  0  0  0  0  0  0  0  0  0  0  0  0  # atno 17343 bound_to 10162
  156.0530  130.5597  150.9032 LP  0  0  0  0  0  0  0  0  0  0  0  0  # atno 17370 bound_to 10713
  157.5960  131.0943  150.9040 LP  0  0  0  0  0  0  0  0  0  0  0  0  # atno 17371 bound_to 10713
  140.9026  133.7768  155.9698 LP  0  0  0  0  0  0  0  0  0  0  0  0  # atno 17394 bound_to 11000
  140.8634  134.2813  157.5224 LP  0  0  0  0  0  0  0  0  0  0  0  0  # atno 17395 bound_to 11000

$$$$
