AV-unprocessed.smi:1099|AV-procd|sdf|4758|dock7
  -GOLD-   22720 3293D 1   1.00000     0.00000
 Structure written by MMmdl.
 41 43  0  0  0  0  0  0  0  0  1 V2000
  152.4231  137.6312  158.1050 C   0  0  0  0  0  0  0  0  0  0  0  0
  151.1967  136.8745  157.5871 C   0  0  0  0  0  0  0  0  0  0  0  0
  150.5560  137.5443  156.4176 C   0  0  0  0  0  0  0  0  0  0  0  0
  149.9641  138.7396  156.4858 N   0  0  0  0  0  0  0  0  0  0  0  0
  149.4340  139.1495  155.2579 C   0  0  0  0  0  0  0  0  0  0  0  0
  148.7407  140.4768  155.1446 C   0  0  0  0  0  0  0  0  0  0  0  0
  149.6989  141.6737  154.9882 C   0  0  0  0  0  0  0  0  0  0  0  0
  149.9246  142.3905  156.2419 N   0  0  0  0  0  0  0  0  0  0  0  0
  150.7178  141.9765  157.2435 C   0  0  0  0  0  0  0  0  0  0  0  0
  151.3456  140.9177  157.2077 O   0  0  0  0  0  0  0  0  0  0  0  0
  150.8043  142.9024  158.4696 C   0  0  1  0  0  0  0  0  0  0  0  0
  151.8729  142.4600  159.4990 C   0  0  0  0  0  0  0  0  0  0  0  0
  152.7642  143.7089  159.6451 C   0  0  2  0  0  0  0  0  0  0  0  0
  151.9766  144.8162  160.3704 C   0  0  0  0  0  0  0  0  0  0  0  0
  150.9633  145.2679  159.3003 C   0  0  0  0  0  0  0  0  0  0  0  0
  151.2839  144.3335  158.1177 C   0  0  1  0  0  0  0  0  0  0  0  0
  152.8062  144.2402  158.2194 C   0  0  0  0  0  0  0  0  0  0  0  0
  149.6599  138.2514  154.2447 C   0  0  0  0  0  0  0  0  0  0  0  0
  150.5507  136.8601  154.7966 S   0  0  0  0  0  0  0  0  0  0  0  0
  152.8773  137.1067  158.9458 H   0  0  0  0  0  0  0  0  0  0  0  0
  152.1477  138.6287  158.4464 H   0  0  0  0  0  0  0  0  0  0  0  0
  153.1802  137.7365  157.3273 H   0  0  0  0  0  0  0  0  0  0  0  0
  151.4818  135.8632  157.2960 H   0  0  0  0  0  0  0  0  0  0  0  0
  150.4582  136.7732  158.3832 H   0  0  0  0  0  0  0  0  0  0  0  0
  148.0527  140.4616  154.2989 H   0  0  0  0  0  0  0  0  0  0  0  0
  148.1156  140.6408  156.0236 H   0  0  0  0  0  0  0  0  0  0  0  0
  150.6466  141.3317  154.5693 H   0  0  0  0  0  0  0  0  0  0  0  0
  149.2886  142.3760  154.2624 H   0  0  0  0  0  0  0  0  0  0  0  0
  149.4387  143.2681  156.3576 H   0  0  0  0  0  0  0  0  0  0  0  0
  149.8223  142.9432  158.9444 H   0  0  0  0  0  0  0  0  0  0  0  0
  151.4245  142.1737  160.4505 H   0  0  0  0  0  0  0  0  0  0  0  0
  152.4616  141.6109  159.1475 H   0  0  0  0  0  0  0  0  0  0  0  0
  153.7379  143.5012  160.0896 H   0  0  0  0  0  0  0  0  0  0  0  0
  151.4920  144.4523  161.2773 H   0  0  0  0  0  0  0  0  0  0  0  0
  152.6324  145.6418  160.6495 H   0  0  0  0  0  0  0  0  0  0  0  0
  149.9299  145.1786  159.6377 H   0  0  0  0  0  0  0  0  0  0  0  0
  151.1350  146.3099  159.0272 H   0  0  0  0  0  0  0  0  0  0  0  0
  150.9151  144.7054  157.1607 H   0  0  0  0  0  0  0  0  0  0  0  0
  153.3048  145.2073  158.1338 H   0  0  0  0  0  0  0  0  0  0  0  0
  153.2641  143.5475  157.5131 H   0  0  0  0  0  0  0  0  0  0  0  0
  149.3730  138.3326  153.2068 H   0  0  0  0  0  0  0  0  0  0  0  0
  1  2  1  0  0  0  0
  1 20  1  0  0  0  0
  1 21  1  0  0  0  0
  1 22  1  0  0  0  0
  2  3  1  0  0  0  0
  2 23  1  0  0  0  0
  2 24  1  0  0  0  0
  3 19  1  0  0  0  0
  3  4  2  0  0  0  0
  4  5  1  0  0  0  0
  5  6  1  0  0  0  0
  5 18  2  0  0  0  0
  6  7  1  0  0  0  0
  6 25  1  0  0  0  0
  6 26  1  0  0  0  0
  7  8  1  0  0  0  0
  7 27  1  0  0  0  0
  7 28  1  0  0  0  0
  8  9  1  0  0  0  0
  8 29  1  0  0  0  0
  9 10  2  0  0  0  0
  9 11  1  0  0  0  0
 11 16  1  0  0  0  0
 11 12  1  0  0  0  0
 11 30  1  0  0  0  0
 12 13  1  0  0  0  0
 12 31  1  0  0  0  0
 12 32  1  0  0  0  0
 13 17  1  0  0  0  0
 13 14  1  0  0  0  0
 13 33  1  0  0  0  0
 14 15  1  0  0  0  0
 14 34  1  0  0  0  0
 14 35  1  0  0  0  0
 15 16  1  0  0  0  0
 15 36  1  0  0  0  0
 15 37  1  0  0  0  0
 16 17  1  0  0  0  0
 16 38  1  0  0  0  0
 17 39  1  0  0  0  0
 17 40  1  0  0  0  0
 18 19  1  0  0  0  0
 18 41  1  0  0  0  0
M  END
> <s_m_source_file>
AV-unprocessed.smi

> <i_m_source_file_index>
1099

> <i_lp_mmshare_version>
43012

> <i_f3d_flags>
0

> <s_epik_input>
W0NIM11bQ0gyXWMxbmMoW2NIXXMxKVtDSDJdW0NIMl1bTkhdQyg9TylbQ0BIXShbQ0gyXVtDQEBIXTIzKVtDQEBIXShbQ0gyXTMpW0NIMl1bQ0gyXTI=

> <s_epik_cmdline>
J2VwaWtfcHl0aG9uJywgJy1waCcsICc3LjAnLCAnLXRuJywgJzgnLCAnLW1hJywgJzIwMCcsICctbWV0YWxfYmluZGluZycsICctaW1hZScsICc8aW5maWxlLm1hZT4nLCAnLW9tYWUnLCAnPG91dGZpbGUubWFlPic=

> <r_epik_Ionization_Penalty>
0.00110131

> <r_epik_Ionization_Penalty_Charging>
0

> <r_epik_Ionization_Penalty_Neutral>
0.00110131

> <r_epik_State_Penalty>
0.00072257

> <r_epik_Charging_Adjusted_Penalty>
0.00072257

> <i_epik_Tot_Q>
0

> <i_epik_Tot_abs_Q>
0

> <r_epik_Metal_State_Penalty>
-0

> <b_epik_Metal_Only>
0

> <s_lp_Force_Field>
OPLS_2005

> <r_lp_Energy>
38.7505

> <b_lp_Chiralities_Consistent>
1

> <s_lp_Variant>
AV-unprocessed.smi:1099-4

> <Gold.Version>
5.8.1

> <Gold.Id.Protein>
6NUR|6NUR_protein|mol2

> <Gold.PLP.Fitness>
45.1009

> <Gold.PLP.PLP>
-38.6199

> <Gold.PLP.part.hbond>
-1.0000

> <Gold.PLP.part.metal>
0.0000

> <Gold.PLP.part.buried>
-3.2156

> <Gold.PLP.part.nonpolar>
-34.6332

> <Gold.PLP.part.repulsive>
0.1109

> <Gold.PLP.ligand.clash>
0.0000

> <Gold.PLP.ligand.torsion>
0.8093

> <Gold.PLP.Chemscore.Hbond>
0.9920

> <Gold.PLP.Chemscore.CHOScore>
1.6893

> <Gold.PLP.Chemscore.Metal>
0.0000

> <Gold.Chemscore.Hbonds>
donor molecule, donor type, donor heavy atom, donor atom, acceptor molecule, acceptor atom, score
      L1  H     8    29       P1  8028  0.98
      L1  C    18    41       P1  7948  0.80
      L1  C    18    41       P1  7957  0.67

> <Gold.PLP.Chemscore.Internal.Correction>
0.0557

> <Gold.Rescore>
     Score         DG    S(hbond)    S(metal)    S(lipo)     H(rot)  DE(clash)    DE(int)     intcor
     17.18     -19.63       0.90        0.00     126.35       1.42       0.30       2.14       ----

> <Gold.Chemscore.Fitness>
17.1819

> <Gold.Chemscore.DG>
-19.6275

> <Gold.Chemscore.ZeroCoef>
-5.4800

> <Gold.Chemscore.Hbond>
0.8955

> <Gold.Chemscore.Metal>
0.0000

> <Gold.Chemscore.Lipo>
126.3483

> <Gold.Chemscore.Internal_Hbond>
0.0000

> <Gold.Chemscore.DEClash>
0.3022

> <Gold.Chemscore.DEInternal>
2.1434

> <Gold.Chemscore.Rot>
1.4165

> <Gold.Chemscore.Internal.Correction>
   9.000000E+99

> <Gold.Chemscore.Hbonds>
donor molecule, donor type, donor heavy atom, donor atom, acceptor molecule, acceptor atom, score
      L1  H     8    29       P1  8028  0.93

> <Gold.Chemscore.Hbond.Weighted>
-2.9909

> <Gold.Chemscore.Metal.Weighted>
-0.0000

> <Gold.Chemscore.Lipo.Weighted>
-14.7827

> <Gold.Chemscore.Internal_Hbond.Weighted>
0.0000

> <Gold.Chemscore.DEClash.Weighted>
0.3022

> <Gold.Chemscore.DEInternal.Weighted>
2.1434

> <Gold.Chemscore.Rot.Weighted>
3.6262

> <Gold.Chemscore.Internal.Correction.Weighted>
   9.000000E+99

> <Gold.Protein.RotatedTorsions>
[ 6907 6896 6895 6894 ] final   68.75 input  -60.11 | X-H torsion
[ 7974 7965 7964 7962 ] final  -44.69 input  175.53 | X-H torsion
[ 8008 7997 7996 7995 ] final  145.42 input   59.86 | X-H torsion
[ 10167 10162 10161 10158 ] final -145.47 input  -65.29 | X-H torsion
[ 10718 10713 10712 10709 ] final  174.79 input   66.30 | X-H torsion
[ 10763 10752 10751 10750 ] final   91.06 input  -60.55 | X-H torsion
[ 11005 11000 10999 10996 ] final  -72.31 input  -57.11 | X-H torsion

> <Gold.Protein.ActiveResidues>
 VAL166  LYS551  ARG553  GLY616  TRP617  ASP618  TYR619  PRO620  LYS621  CYS622 
 ASP623  PHE694  ASN695  SER759  ASP760  ASP761  ALA762  ILE779  LEU786  VAL792 
 PHE793  MET794  SER795  GLU796  ALA797  LYS798  CYS799  TRP800  GLU811  SER814 

> <Gold.Protein.RotatedAtoms>
  152.4641  134.5116  159.9755 H   0  0  0  0  0  0  0  0  0  0  0  0  # atno 6907 bound_to 6896
  151.5158  133.3470  159.2900 H   0  0  0  0  0  0  0  0  0  0  0  0  # atno 6908 bound_to 6896
  150.8617  134.8000  159.7150 H   0  0  0  0  0  0  0  0  0  0  0  0  # atno 6909 bound_to 6896
  145.9895  140.7196  142.9324 H   0  0  0  0  0  0  0  0  0  0  0  0  # atno 7974 bound_to 7965
  156.2883  140.2210  156.5211 H   0  0  0  0  0  0  0  0  0  0  0  0  # atno 8008 bound_to 7997
  154.7527  140.0479  157.0929 H   0  0  0  0  0  0  0  0  0  0  0  0  # atno 8009 bound_to 7997
  155.0089  140.3110  155.4841 H   0  0  0  0  0  0  0  0  0  0  0  0  # atno 8010 bound_to 7997
  139.7802  143.8111  152.2637 H   0  0  0  0  0  0  0  0  0  0  0  0  # atno 10167 bound_to 10162
  156.9444  131.0011  151.2962 H   0  0  0  0  0  0  0  0  0  0  0  0  # atno 10718 bound_to 10713
  153.2042  135.4411  155.0303 H   0  0  0  0  0  0  0  0  0  0  0  0  # atno 10763 bound_to 10752
  154.8164  135.3317  154.7166 H   0  0  0  0  0  0  0  0  0  0  0  0  # atno 10764 bound_to 10752
  153.7609  135.6991  153.4981 H   0  0  0  0  0  0  0  0  0  0  0  0  # atno 10765 bound_to 10752
  141.1606  133.6843  156.7039 H   0  0  0  0  0  0  0  0  0  0  0  0  # atno 11005 bound_to 11000
  144.6884  140.3045  143.7258 LP  0  0  0  0  0  0  0  0  0  0  0  0  # atno 17320 bound_to 7965
  145.7651  139.1838  143.2244 LP  0  0  0  0  0  0  0  0  0  0  0  0  # atno 17321 bound_to 7965
  139.8172  144.7311  150.9620 LP  0  0  0  0  0  0  0  0  0  0  0  0  # atno 17342 bound_to 10162
  140.7818  143.4194  151.0866 LP  0  0  0  0  0  0  0  0  0  0  0  0  # atno 17343 bound_to 10162
  157.5763  130.8345  149.8461 LP  0  0  0  0  0  0  0  0  0  0  0  0  # atno 17370 bound_to 10713
  156.0390  130.3744  150.1485 LP  0  0  0  0  0  0  0  0  0  0  0  0  # atno 17371 bound_to 10713
  140.2938  134.8219  157.4040 LP  0  0  0  0  0  0  0  0  0  0  0  0  # atno 17394 bound_to 11000
  140.1323  134.5079  155.8096 LP  0  0  0  0  0  0  0  0  0  0  0  0  # atno 17395 bound_to 11000

$$$$
