AV-unprocessed.smi:184|AV-procd|sdf|1464|dock3
  -GOLD-   2262019273D 1   1.00000     0.00000
 Structure written by MMmdl.
 54 58  0  0  0  0  0  0  0  0  1 V2000
  147.8085  143.4669  159.9482 O   0  0  0  0  0  0  0  0  0  0  0  0
  148.7052  143.3139  159.1223 C   0  0  0  0  0  0  0  0  0  0  0  0
  148.6033  142.1692  158.0979 C   0  0  0  0  0  0  0  0  0  0  0  0
  149.6937  142.1465  157.1085 N   0  0  0  0  0  0  0  0  0  0  0  0
  149.6484  141.2101  156.1254 C   0  0  0  0  0  0  0  0  0  0  0  0
  150.7501  140.4557  155.8693 N   0  0  0  0  0  0  0  0  0  0  0  0
  150.7324  139.5399  154.8969 C   0  0  0  0  0  0  0  0  0  0  0  0
  149.7325  139.2139  154.0765 N   0  0  0  0  0  0  0  0  0  0  0  0
  148.6167  139.9522  154.3392 C   0  0  0  0  0  0  0  0  0  0  0  0
  148.4894  140.9625  155.3348 C   0  0  0  0  0  0  0  0  0  0  0  0
  147.2013  141.4857  155.3109 N   0  0  0  0  0  0  0  0  0  0  0  0
  146.6089  140.8367  154.3467 C   0  0  0  0  0  0  0  0  0  0  0  0
  147.3824  139.8888  153.7164 N   0  0  0  0  0  0  0  0  0  0  0  0
  146.9742  139.0217  152.6217 C   0  0  0  0  0  0  0  0  0  0  0  0
  146.1064  137.8154  153.0598 C   0  0  0  0  0  0  0  0  0  0  0  0
  144.8755  138.3219  153.5452 O   0  0  0  0  0  0  0  0  0  0  0  0
  145.8071  136.8411  151.8991 C   0  0  0  0  0  0  0  0  0  0  0  0
  145.1333  135.5462  152.3872 C   0  0  0  0  0  0  0  0  0  0  0  0
  145.9262  134.9309  153.3949 O   0  0  0  0  0  0  0  0  0  0  0  0
  146.0646  135.7412  154.5554 C   0  0  0  0  0  0  0  0  0  0  0  0
  146.8009  137.0450  154.2009 C   0  0  0  0  0  0  0  0  0  0  0  0
  151.0145  142.6160  157.5311 C   0  0  2  0  0  0  0  0  0  0  0  0
  151.6731  141.6309  158.5274 C   0  0  0  0  0  0  0  0  0  0  0  0
  153.0047  142.1731  159.0656 C   0  0  0  0  0  0  0  0  0  0  0  0
  152.8142  143.5522  159.7135 C   0  0  0  0  0  0  0  0  0  0  0  0
  152.1990  144.5462  158.7156 C   0  0  0  0  0  0  0  0  0  0  0  0
  150.8700  144.0367  158.1241 C   0  0  2  0  0  0  0  0  0  0  0  0
  149.7855  144.1133  159.1027 N   0  0  0  0  0  0  0  0  0  0  0  0
  148.5859  141.2317  158.6553 H   0  0  0  0  0  0  0  0  0  0  0  0
  147.6476  142.2546  157.5790 H   0  0  0  0  0  0  0  0  0  0  0  0
  151.6511  138.9898  154.7561 H   0  0  0  0  0  0  0  0  0  0  0  0
  145.5808  141.0253  154.0739 H   0  0  0  0  0  0  0  0  0  0  0  0
  146.4259  139.6315  151.9026 H   0  0  0  0  0  0  0  0  0  0  0  0
  147.8703  138.6771  152.1033 H   0  0  0  0  0  0  0  0  0  0  0  0
  144.6872  139.1340  153.1003 H   0  0  0  0  0  0  0  0  0  0  0  0
  145.1780  137.3152  151.1450 H   0  0  0  0  0  0  0  0  0  0  0  0
  146.7409  136.5792  151.4000 H   0  0  0  0  0  0  0  0  0  0  0  0
  144.1306  135.7444  152.7684 H   0  0  0  0  0  0  0  0  0  0  0  0
  145.0215  134.8494  151.5564 H   0  0  0  0  0  0  0  0  0  0  0  0
  145.0853  135.9465  154.9898 H   0  0  0  0  0  0  0  0  0  0  0  0
  146.6304  135.1863  155.3039 H   0  0  0  0  0  0  0  0  0  0  0  0
  147.8181  136.7925  153.8983 H   0  0  0  0  0  0  0  0  0  0  0  0
  146.8947  137.6746  155.0869 H   0  0  0  0  0  0  0  0  0  0  0  0
  151.6836  142.6982  156.6760 H   0  0  0  0  0  0  0  0  0  0  0  0
  151.0083  141.4357  159.3693 H   0  0  0  0  0  0  0  0  0  0  0  0
  151.8394  140.6683  158.0427 H   0  0  0  0  0  0  0  0  0  0  0  0
  153.4227  141.4754  159.7918 H   0  0  0  0  0  0  0  0  0  0  0  0
  153.7281  142.2451  158.2526 H   0  0  0  0  0  0  0  0  0  0  0  0
  152.1734  143.4623  160.5914 H   0  0  0  0  0  0  0  0  0  0  0  0
  153.7733  143.9302  160.0683 H   0  0  0  0  0  0  0  0  0  0  0  0
  152.0530  145.5155  159.1940 H   0  0  0  0  0  0  0  0  0  0  0  0
  152.9068  144.7145  157.9029 H   0  0  0  0  0  0  0  0  0  0  0  0
  150.5844  144.7131  157.3170 H   0  0  0  0  0  0  0  0  0  0  0  0
  149.8430  144.8473  159.7937 H   0  0  0  0  0  0  0  0  0  0  0  0
  1  2  2  0  0  0  0
  2 28  1  0  0  0  0
  2  3  1  0  0  0  0
  3  4  1  0  0  0  0
  3 29  1  0  0  0  0
  3 30  1  0  0  0  0
  4  5  1  0  0  0  0
  4 22  1  0  0  0  0
  5 10  1  0  0  0  0
  5  6  2  0  0  0  0
  6  7  1  0  0  0  0
  7  8  2  0  0  0  0
  7 31  1  0  0  0  0
  8  9  1  0  0  0  0
  9 13  1  0  0  0  0
  9 10  2  0  0  0  0
 10 11  1  0  0  0  0
 11 12  2  0  0  0  0
 12 13  1  0  0  0  0
 12 32  1  0  0  0  0
 13 14  1  0  0  0  0
 14 15  1  0  0  0  0
 14 33  1  0  0  0  0
 14 34  1  0  0  0  0
 15 21  1  0  0  0  0
 15 16  1  0  0  0  0
 15 17  1  0  0  0  0
 16 35  1  0  0  0  0
 17 18  1  0  0  0  0
 17 36  1  0  0  0  0
 17 37  1  0  0  0  0
 18 19  1  0  0  0  0
 18 38  1  0  0  0  0
 18 39  1  0  0  0  0
 19 20  1  0  0  0  0
 20 21  1  0  0  0  0
 20 40  1  0  0  0  0
 20 41  1  0  0  0  0
 21 42  1  0  0  0  0
 21 43  1  0  0  0  0
 22 27  1  0  0  0  0
 22 23  1  0  0  0  0
 22 44  1  0  0  0  0
 23 24  1  0  0  0  0
 23 45  1  0  0  0  0
 23 46  1  0  0  0  0
 24 25  1  0  0  0  0
 24 47  1  0  0  0  0
 24 48  1  0  0  0  0
 25 26  1  0  0  0  0
 25 49  1  0  0  0  0
 25 50  1  0  0  0  0
 26 27  1  0  0  0  0
 26 51  1  0  0  0  0
 26 52  1  0  0  0  0
 27 28  1  0  0  0  0
 27 53  1  0  0  0  0
 28 54  1  0  0  0  0
M  END
> <s_m_source_file>
AV-unprocessed.smi

> <i_m_source_file_index>
184

> <i_lp_mmshare_version>
43012

> <i_f3d_flags>
0

> <s_epik_input>
W0NIMl0xW0NIMl1bQ0gyXVtDSDJdW0NASF0oW0NASF0xMilbTkhdQyg9TylbQ0gyXU4yYyhuW2NIXW4zKWMoYzM0KW5bY0hdbjRbQ0gyXUM1KFtPSF0pW0NIMl1bQ0gyXU9bQ0gyXVtDSDJdNQ==

> <s_epik_cmdline>
J2VwaWtfcHl0aG9uJywgJy1waCcsICc3LjAnLCAnLXRuJywgJzgnLCAnLW1hJywgJzIwMCcsICctbWV0YWxfYmluZGluZycsICctaW1hZScsICc8aW5maWxlLm1hZT4nLCAnLW9tYWUnLCAnPG91dGZpbGUubWFlPic=

> <r_lp_tautomer_probability>
1

> <r_epik_Ionization_Penalty>
0.000822761

> <r_epik_Ionization_Penalty_Charging>
0

> <r_epik_Ionization_Penalty_Neutral>
0.000822761

> <r_epik_State_Penalty>
0.000403048

> <r_epik_Charging_Adjusted_Penalty>
0.000403048

> <i_epik_Tot_Q>
0

> <i_epik_Tot_abs_Q>
0

> <r_epik_Metal_State_Penalty>
-0

> <b_epik_Metal_Only>
0

> <s_lp_Force_Field>
OPLS_2005

> <r_lp_Energy>
36.9453

> <b_lp_Chiralities_Consistent>
1

> <s_lp_Variant>
AV-unprocessed.smi:184-4

> <Gold.Version>
5.8.1

> <Gold.Id.Protein>
6NUR|6NUR_protein|mol2

> <Gold.PLP.Fitness>
49.0747

> <Gold.PLP.PLP>
-41.6434

> <Gold.PLP.part.hbond>
-2.4302

> <Gold.PLP.part.metal>
0.0000

> <Gold.PLP.part.buried>
-1.6942

> <Gold.PLP.part.nonpolar>
-40.2674

> <Gold.PLP.part.repulsive>
1.4193

> <Gold.PLP.ligand.clash>
0.0000

> <Gold.PLP.ligand.torsion>
0.7905

> <Gold.PLP.Chemscore.Hbond>
1.9417

> <Gold.PLP.Chemscore.CHOScore>
1.0000

> <Gold.PLP.Chemscore.Metal>
0.0000

> <Gold.Chemscore.Hbonds>
donor molecule, donor type, donor heavy atom, donor atom, acceptor molecule, acceptor atom, score
      L1  H    16    35       P1 10175  1.00
      P1  H  6933  6944       L1     1  0.99
      L1  C    12    32       P1 10175  1.00

> <Gold.PLP.Chemscore.Internal.Correction>
0.1871

> <Gold.Rescore>
     Score         DG    S(hbond)    S(metal)    S(lipo)     H(rot)  DE(clash)    DE(int)     intcor
     14.68     -17.00       1.46        0.00      96.74       1.83       0.62       1.70       ----

> <Gold.Chemscore.Fitness>
14.6834

> <Gold.Chemscore.DG>
-16.9964

> <Gold.Chemscore.ZeroCoef>
-5.4800

> <Gold.Chemscore.Hbond>
1.4583

> <Gold.Chemscore.Metal>
0.0000

> <Gold.Chemscore.Lipo>
96.7435

> <Gold.Chemscore.Internal_Hbond>
0.0000

> <Gold.Chemscore.DEClash>
0.6158

> <Gold.Chemscore.DEInternal>
1.6971

> <Gold.Chemscore.Rot>
1.8255

> <Gold.Chemscore.Internal.Correction>
   9.000000E+99

> <Gold.Chemscore.Hbonds>
donor molecule, donor type, donor heavy atom, donor atom, acceptor molecule, acceptor atom, score
      L1  H    16    35       P1 10175  0.99
      P1  H  6933  6944       L1     1  0.24

> <Gold.Chemscore.Hbond.Weighted>
-4.8706

> <Gold.Chemscore.Metal.Weighted>
-0.0000

> <Gold.Chemscore.Lipo.Weighted>
-11.3190

> <Gold.Chemscore.Internal_Hbond.Weighted>
0.0000

> <Gold.Chemscore.DEClash.Weighted>
0.6158

> <Gold.Chemscore.DEInternal.Weighted>
1.6971

> <Gold.Chemscore.Rot.Weighted>
4.6732

> <Gold.Chemscore.Internal.Correction.Weighted>
   9.000000E+99

> <Gold.Protein.RotatedTorsions>
[ 6907 6896 6895 6894 ] final    4.17 input  -60.11 | X-H torsion
[ 7974 7965 7964 7962 ] final   30.24 input  175.53 | X-H torsion
[ 8008 7997 7996 7995 ] final -178.53 input   59.86 | X-H torsion
[ 10167 10162 10161 10158 ] final  -40.75 input  -65.29 | X-H torsion
[ 10718 10713 10712 10709 ] final   -8.14 input   66.30 | X-H torsion
[ 10763 10752 10751 10750 ] final  144.07 input  -60.55 | X-H torsion
[ 11005 11000 10999 10996 ] final  -76.84 input  -57.11 | X-H torsion

> <Gold.Protein.ActiveResidues>
 VAL166  LYS551  ARG553  GLY616  TRP617  ASP618  TYR619  PRO620  LYS621  CYS622 
 ASP623  PHE694  ASN695  SER759  ASP760  ASP761  ALA762  ILE779  LEU786  VAL792 
 PHE793  MET794  SER795  GLU796  ALA797  LYS798  CYS799  TRP800  GLU811  SER814 

> <Gold.Protein.RotatedAtoms>
  151.6370  135.1017  160.0133 H   0  0  0  0  0  0  0  0  0  0  0  0  # atno 6907 bound_to 6896
  152.4075  133.6907  159.6377 H   0  0  0  0  0  0  0  0  0  0  0  0  # atno 6908 bound_to 6896
  150.7968  133.8600  159.3270 H   0  0  0  0  0  0  0  0  0  0  0  0  # atno 6909 bound_to 6896
  146.1624  139.6815  142.9025 H   0  0  0  0  0  0  0  0  0  0  0  0  # atno 7974 bound_to 7965
  156.0199  140.1259  157.0368 H   0  0  0  0  0  0  0  0  0  0  0  0  # atno 8008 bound_to 7997
  154.4307  140.1071  156.6019 H   0  0  0  0  0  0  0  0  0  0  0  0  # atno 8009 bound_to 7997
  155.5959  140.3470  155.4582 H   0  0  0  0  0  0  0  0  0  0  0  0  # atno 8010 bound_to 7997
  140.7024  143.3135  151.2968 H   0  0  0  0  0  0  0  0  0  0  0  0  # atno 10167 bound_to 10162
  156.7070  130.5110  149.5902 H   0  0  0  0  0  0  0  0  0  0  0  0  # atno 10718 bound_to 10713
  153.9828  135.2939  155.3419 H   0  0  0  0  0  0  0  0  0  0  0  0  # atno 10763 bound_to 10752
  154.7259  135.5089  153.8889 H   0  0  0  0  0  0  0  0  0  0  0  0  # atno 10764 bound_to 10752
  153.0846  135.6689  154.0089 H   0  0  0  0  0  0  0  0  0  0  0  0  # atno 10765 bound_to 10752
  141.1656  133.6999  156.7731 H   0  0  0  0  0  0  0  0  0  0  0  0  # atno 11005 bound_to 11000
  145.4555  141.0430  143.2780 LP  0  0  0  0  0  0  0  0  0  0  0  0  # atno 17320 bound_to 7965
  144.8045  139.6078  143.7057 LP  0  0  0  0  0  0  0  0  0  0  0  0  # atno 17321 bound_to 7965
  139.6566  144.0266  152.2663 LP  0  0  0  0  0  0  0  0  0  0  0  0  # atno 17342 bound_to 10162
  139.9819  144.6422  150.7893 LP  0  0  0  0  0  0  0  0  0  0  0  0  # atno 17343 bound_to 10162
  156.1688  130.6423  151.0811 LP  0  0  0  0  0  0  0  0  0  0  0  0  # atno 17370 bound_to 10713
  157.6951  131.0797  150.6993 LP  0  0  0  0  0  0  0  0  0  0  0  0  # atno 17371 bound_to 10713
  140.2450  134.8585  157.3611 LP  0  0  0  0  0  0  0  0  0  0  0  0  # atno 17394 bound_to 11000
  140.1759  134.4551  155.7802 LP  0  0  0  0  0  0  0  0  0  0  0  0  # atno 17395 bound_to 11000

$$$$
