AV-unprocessed.smi:704|AV-procd|sdf|3444|dock2
  -GOLD-   22720 0433D 1   1.00000     0.00000
 Structure written by MMmdl.
 38 39  0  0  0  0  0  0  0  0  1 V2000
  145.8714  143.1968  153.7327 C   0  0  0  0  0  0  0  0  0  0  0  0
  147.0759  142.7928  154.3747 O   0  0  0  0  0  0  0  0  0  0  0  0
  147.5280  141.5021  154.1771 C   0  0  0  0  0  0  0  0  0  0  0  0
  146.8076  140.6822  153.3708 N   0  0  0  0  0  0  0  0  0  0  0  0
  147.2466  139.4213  153.1792 C   0  0  0  0  0  0  0  0  0  0  0  0
  148.4125  138.9117  153.7795 C   0  0  0  0  0  0  0  0  0  0  0  0
  149.1611  139.7599  154.6160 C   0  0  0  0  0  0  0  0  0  0  0  0
  148.7211  141.0906  154.8155 C   0  0  0  0  0  0  0  0  0  0  0  0
  149.3899  142.0202  155.6581 N   0  0  0  0  0  0  0  0  0  0  0  0
  150.4845  141.8250  156.4119 C   0  0  0  0  0  0  0  0  0  0  0  0
  151.1300  140.7786  156.4732 O   0  0  0  0  0  0  0  0  0  0  0  0
  150.8165  142.9385  157.0799 N   0  0  0  0  0  0  0  0  0  0  0  0
  151.9768  143.0736  157.9623 C   0  0  2  0  0  0  0  0  0  0  0  0
  152.0593  141.9020  158.9590 C   0  0  0  0  0  0  0  0  0  0  0  0
  152.4684  142.4974  160.3127 C   0  0  0  0  0  0  0  0  0  0  0  0
  152.8264  143.9608  160.0388 C   0  0  0  0  0  0  0  0  0  0  0  0
  152.0006  144.3727  158.8109 C   0  0  2  0  0  0  0  0  0  0  0  0
  150.6134  144.9068  159.2301 C   0  0  0  0  0  0  0  0  0  0  0  0
  149.6214  144.7708  158.3465 N   0  0  0  0  0  0  0  0  0  0  0  0
  150.4353  145.4247  160.3316 O   0  0  0  0  0  0  0  0  0  0  0  0
  145.6628  144.2372  153.9807 H   0  0  0  0  0  0  0  0  0  0  0  0
  145.0221  142.5998  154.0679 H   0  0  0  0  0  0  0  0  0  0  0  0
  145.9538  143.1261  152.6471 H   0  0  0  0  0  0  0  0  0  0  0  0
  146.6467  138.7977  152.5330 H   0  0  0  0  0  0  0  0  0  0  0  0
  148.7222  137.8918  153.6069 H   0  0  0  0  0  0  0  0  0  0  0  0
  150.0446  139.3708  155.0982 H   0  0  0  0  0  0  0  0  0  0  0  0
  149.0296  142.9630  155.6317 H   0  0  0  0  0  0  0  0  0  0  0  0
  150.2373  143.7568  156.9615 H   0  0  0  0  0  0  0  0  0  0  0  0
  152.8827  143.0524  157.3529 H   0  0  0  0  0  0  0  0  0  0  0  0
  151.1018  141.3885  159.0600 H   0  0  0  0  0  0  0  0  0  0  0  0
  152.7844  141.1622  158.6182 H   0  0  0  0  0  0  0  0  0  0  0  0
  151.6286  142.4448  161.0064 H   0  0  0  0  0  0  0  0  0  0  0  0
  153.2979  141.9556  160.7679 H   0  0  0  0  0  0  0  0  0  0  0  0
  152.6514  144.5936  160.9101 H   0  0  0  0  0  0  0  0  0  0  0  0
  153.8876  144.0367  159.7979 H   0  0  0  0  0  0  0  0  0  0  0  0
  152.5190  145.1614  158.2628 H   0  0  0  0  0  0  0  0  0  0  0  0
  148.6964  145.1084  158.5705 H   0  0  0  0  0  0  0  0  0  0  0  0
  149.8020  144.3345  157.4539 H   0  0  0  0  0  0  0  0  0  0  0  0
  1  2  1  0  0  0  0
  1 21  1  0  0  0  0
  1 22  1  0  0  0  0
  1 23  1  0  0  0  0
  2  3  1  0  0  0  0
  3  8  1  0  0  0  0
  3  4  2  0  0  0  0
  4  5  1  0  0  0  0
  5  6  2  0  0  0  0
  5 24  1  0  0  0  0
  6  7  1  0  0  0  0
  6 25  1  0  0  0  0
  7  8  2  0  0  0  0
  7 26  1  0  0  0  0
  8  9  1  0  0  0  0
  9 10  1  0  0  0  0
  9 27  1  0  0  0  0
 10 11  2  0  0  0  0
 10 12  1  0  0  0  0
 12 13  1  0  0  0  0
 12 28  1  0  0  0  0
 13 17  1  0  0  0  0
 13 14  1  0  0  0  0
 13 29  1  0  0  0  0
 14 15  1  0  0  0  0
 14 30  1  0  0  0  0
 14 31  1  0  0  0  0
 15 16  1  0  0  0  0
 15 32  1  0  0  0  0
 15 33  1  0  0  0  0
 16 17  1  0  0  0  0
 16 34  1  0  0  0  0
 16 35  1  0  0  0  0
 17 18  1  0  0  0  0
 17 36  1  0  0  0  0
 18 19  1  0  0  0  0
 18 20  2  0  0  0  0
 19 37  1  0  0  0  0
 19 38  1  0  0  0  0
M  END
> <s_m_source_file>
AV-unprocessed.smi

> <i_m_source_file_index>
704

> <i_lp_mmshare_version>
43012

> <i_f3d_flags>
0

> <s_epik_input>
W0NIM11PYzFuW2NIXVtjSF1bY0hdYzFbTkhdQyg9TylbTkhdW0NAQEhdMltDSDJdW0NIMl1bQ0gyXVtDQEhdMkMoPU8pW05IMl0=

> <s_epik_cmdline>
J2VwaWtfcHl0aG9uJywgJy1waCcsICc3LjAnLCAnLXRuJywgJzgnLCAnLW1hJywgJzIwMCcsICctbWV0YWxfYmluZGluZycsICctaW1hZScsICc8aW5maWxlLm1hZT4nLCAnLW9tYWUnLCAnPG91dGZpbGUubWFlPic=

> <r_lp_tautomer_probability>
1

> <r_epik_Ionization_Penalty>
9.09123e-05

> <r_epik_Ionization_Penalty_Charging>
0

> <r_epik_Ionization_Penalty_Neutral>
9.09123e-05

> <r_epik_State_Penalty>
-0

> <r_epik_Charging_Adjusted_Penalty>
0

> <i_epik_Tot_Q>
0

> <i_epik_Tot_abs_Q>
0

> <r_epik_Metal_State_Penalty>
-0

> <b_epik_Metal_Only>
0

> <s_lp_Force_Field>
OPLS_2005

> <r_lp_Energy>
16.4905

> <b_lp_Chiralities_Consistent>
1

> <s_lp_Variant>
AV-unprocessed.smi:704-3

> <Gold.Version>
5.8.1

> <Gold.Id.Protein>
6NUR|6NUR_protein|mol2

> <Gold.PLP.Fitness>
43.8095

> <Gold.PLP.PLP>
-37.7398

> <Gold.PLP.part.hbond>
-4.0599

> <Gold.PLP.part.metal>
0.0000

> <Gold.PLP.part.buried>
-4.5929

> <Gold.PLP.part.nonpolar>
-32.1146

> <Gold.PLP.part.repulsive>
2.3673

> <Gold.PLP.ligand.clash>
0.0000

> <Gold.PLP.ligand.torsion>
0.8085

> <Gold.PLP.Chemscore.Hbond>
2.5538

> <Gold.PLP.Chemscore.CHOScore>
0.0000

> <Gold.PLP.Chemscore.Metal>
0.0000

> <Gold.Chemscore.Hbonds>
donor molecule, donor type, donor heavy atom, donor atom, acceptor molecule, acceptor atom, score
      L1  H     9    27       P1  8028  1.00
      L1  H    12    28       P1  8028  0.76
      L1  H    19    37       P1  8029  0.29
      L1  H    19    38       P1  8028  0.53

> <Gold.PLP.Chemscore.Internal.Correction>
0.0251

> <Gold.Rescore>
     Score         DG    S(hbond)    S(metal)    S(lipo)     H(rot)  DE(clash)    DE(int)     intcor
     11.66     -18.18       2.12        0.00      88.88       1.86       1.42       5.11       ----

> <Gold.Chemscore.Fitness>
11.6574

> <Gold.Chemscore.DG>
-18.1826

> <Gold.Chemscore.ZeroCoef>
-5.4800

> <Gold.Chemscore.Hbond>
2.1190

> <Gold.Chemscore.Metal>
0.0000

> <Gold.Chemscore.Lipo>
88.8798

> <Gold.Chemscore.Internal_Hbond>
0.0000

> <Gold.Chemscore.DEClash>
1.4156

> <Gold.Chemscore.DEInternal>
5.1096

> <Gold.Chemscore.Rot>
1.8648

> <Gold.Chemscore.Internal.Correction>
   9.000000E+99

> <Gold.Chemscore.Hbonds>
donor molecule, donor type, donor heavy atom, donor atom, acceptor molecule, acceptor atom, score
      L1  H     9    27       P1  8028  1.00
      L1  H    12    28       P1  8028  0.72
      L1  H    19    37       P1  8029  0.28
      L1  H    19    38       P1  8028  0.13

> <Gold.Chemscore.Hbond.Weighted>
-7.0776

> <Gold.Chemscore.Metal.Weighted>
-0.0000

> <Gold.Chemscore.Lipo.Weighted>
-10.3989

> <Gold.Chemscore.Internal_Hbond.Weighted>
0.0000

> <Gold.Chemscore.DEClash.Weighted>
1.4156

> <Gold.Chemscore.DEInternal.Weighted>
5.1096

> <Gold.Chemscore.Rot.Weighted>
4.7739

> <Gold.Chemscore.Internal.Correction.Weighted>
   9.000000E+99

> <Gold.Protein.RotatedTorsions>
[ 6907 6896 6895 6894 ] final -150.83 input  -60.11 | X-H torsion
[ 7974 7965 7964 7962 ] final  123.65 input  175.53 | X-H torsion
[ 8008 7997 7996 7995 ] final  174.52 input   59.86 | X-H torsion
[ 10167 10162 10161 10158 ] final -148.73 input  -65.29 | X-H torsion
[ 10718 10713 10712 10709 ] final -153.02 input   66.30 | X-H torsion
[ 10763 10752 10751 10750 ] final -129.48 input  -60.55 | X-H torsion
[ 11005 11000 10999 10996 ] final  152.90 input  -57.11 | X-H torsion

> <Gold.Protein.ActiveResidues>
 VAL166  LYS551  ARG553  GLY616  TRP617  ASP618  TYR619  PRO620  LYS621  CYS622 
 ASP623  PHE694  ASN695  SER759  ASP760  ASP761  ALA762  ILE779  LEU786  VAL792 
 PHE793  MET794  SER795  GLU796  ALA797  LYS798  CYS799  TRP800  GLU811  SER814 

> <Gold.Protein.RotatedAtoms>
  151.2042  133.4593  159.2596 H   0  0  0  0  0  0  0  0  0  0  0  0  # atno 6907 bound_to 6896
  151.1039  134.9988  159.8472 H   0  0  0  0  0  0  0  0  0  0  0  0  # atno 6908 bound_to 6896
  152.5445  134.1967  159.8748 H   0  0  0  0  0  0  0  0  0  0  0  0  # atno 6909 bound_to 6896
  145.0935  139.3569  143.4848 H   0  0  0  0  0  0  0  0  0  0  0  0  # atno 7974 bound_to 7965
  156.0966  140.1432  156.9523 H   0  0  0  0  0  0  0  0  0  0  0  0  # atno 8008 bound_to 7997
  154.4675  140.0921  156.7105 H   0  0  0  0  0  0  0  0  0  0  0  0  # atno 8009 bound_to 7997
  155.4831  140.3445  155.4345 H   0  0  0  0  0  0  0  0  0  0  0  0  # atno 8010 bound_to 7997
  139.7505  143.8525  152.2585 H   0  0  0  0  0  0  0  0  0  0  0  0  # atno 10167 bound_to 10162
  156.4803  130.8300  151.2527 H   0  0  0  0  0  0  0  0  0  0  0  0  # atno 10718 bound_to 10713
  154.8757  135.3894  154.3926 H   0  0  0  0  0  0  0  0  0  0  0  0  # atno 10763 bound_to 10752
  153.4660  135.7029  153.6027 H   0  0  0  0  0  0  0  0  0  0  0  0  # atno 10764 bound_to 10752
  153.4505  135.3835  155.2249 H   0  0  0  0  0  0  0  0  0  0  0  0  # atno 10765 bound_to 10752
  140.1349  134.8777  157.2253 H   0  0  0  0  0  0  0  0  0  0  0  0  # atno 11005 bound_to 11000
  146.3531  140.0780  142.8619 LP  0  0  0  0  0  0  0  0  0  0  0  0  # atno 17320 bound_to 7965
  145.1038  140.9362  143.4697 LP  0  0  0  0  0  0  0  0  0  0  0  0  # atno 17321 bound_to 7965
  139.8502  144.7168  150.9223 LP  0  0  0  0  0  0  0  0  0  0  0  0  # atno 17342 bound_to 10162
  140.7797  143.3906  151.1317 LP  0  0  0  0  0  0  0  0  0  0  0  0  # atno 17343 bound_to 10162
  157.7484  131.0047  150.3086 LP  0  0  0  0  0  0  0  0  0  0  0  0  # atno 17370 bound_to 10713
  156.3528  130.3834  149.7314 LP  0  0  0  0  0  0  0  0  0  0  0  0  # atno 17371 bound_to 10713
  140.2795  134.3366  155.7347 LP  0  0  0  0  0  0  0  0  0  0  0  0  # atno 17394 bound_to 11000
  141.2176  133.7470  156.9343 LP  0  0  0  0  0  0  0  0  0  0  0  0  # atno 17395 bound_to 11000

$$$$
