AV-unprocessed.smi:1165|AV-procd|sdf|4929|dock8
  -GOLD-   22720 3513D 1   1.00000     0.00000
 Structure written by MMmdl.
 41 42  0  0  0  0  0  0  0  0  1 V2000
  153.6142  136.8040  164.6149 C   0  0  0  0  0  0  0  0  0  0  0  0
  153.5702  136.4411  163.1267 C   0  0  1  0  0  0  0  0  0  0  0  0
  154.4697  137.3655  162.2814 C   0  0  0  0  0  0  0  0  0  0  0  0
  154.5290  136.9117  160.8819 N   0  0  0  0  0  0  0  0  0  0  0  0
  153.4806  137.6487  159.7071 S   0  0  0  0  0  0  0  0  0  0  0  0
  154.2237  137.8396  158.4521 O   0  0  0  0  0  0  0  0  0  0  0  0
  152.1862  136.9503  159.7173 O   0  0  0  0  0  0  0  0  0  0  0  0
  153.2594  139.1922  160.4361 N   0  0  0  0  0  0  0  0  0  0  0  0
  153.7521  140.3751  159.7383 C   0  0  0  0  0  0  0  0  0  0  0  0
  153.3480  141.6417  160.5027 C   0  0  0  0  0  0  0  0  0  0  0  0
  152.6050  142.6276  159.6235 C   0  0  0  0  0  0  0  0  0  0  0  0
  151.8681  142.1849  158.5057 C   0  0  0  0  0  0  0  0  0  0  0  0
  151.1940  143.1371  157.7174 C   0  0  0  0  0  0  0  0  0  0  0  0
  151.2866  144.4954  158.0813 C   0  0  0  0  0  0  0  0  0  0  0  0
  151.9907  144.9307  159.1487 N   0  0  0  0  0  0  0  0  0  0  0  0
  152.6342  144.0110  159.8994 C   0  0  0  0  0  0  0  0  0  0  0  0
  154.8516  135.4809  160.7536 C   0  0  0  0  0  0  0  0  0  0  0  0
  153.9318  134.6253  161.6476 C   0  0  1  0  0  0  0  0  0  0  0  0
  154.3319  133.1462  161.6355 C   0  0  0  0  0  0  0  0  0  0  0  0
  154.0077  135.0943  162.9884 O   0  0  0  0  0  0  0  0  0  0  0  0
  153.2721  137.8259  164.7797 H   0  0  0  0  0  0  0  0  0  0  0  0
  154.6266  136.7215  165.0117 H   0  0  0  0  0  0  0  0  0  0  0  0
  152.9735  136.1409  165.1969 H   0  0  0  0  0  0  0  0  0  0  0  0
  152.5355  136.5162  162.7909 H   0  0  0  0  0  0  0  0  0  0  0  0
  154.1220  138.3971  162.3320 H   0  0  0  0  0  0  0  0  0  0  0  0
  155.4832  137.3601  162.6842 H   0  0  0  0  0  0  0  0  0  0  0  0
  153.5009  139.1868  161.4266 H   0  0  0  0  0  0  0  0  0  0  0  0
  154.8369  140.3098  159.6473 H   0  0  0  0  0  0  0  0  0  0  0  0
  153.3397  140.3908  158.7286 H   0  0  0  0  0  0  0  0  0  0  0  0
  152.7146  141.3804  161.3516 H   0  0  0  0  0  0  0  0  0  0  0  0
  154.2323  142.1280  160.9168 H   0  0  0  0  0  0  0  0  0  0  0  0
  151.8199  141.1352  158.2555 H   0  0  0  0  0  0  0  0  0  0  0  0
  150.6198  142.8345  156.8540 H   0  0  0  0  0  0  0  0  0  0  0  0
  150.7821  145.2523  157.4992 H   0  0  0  0  0  0  0  0  0  0  0  0
  153.1889  144.3915  160.7445 H   0  0  0  0  0  0  0  0  0  0  0  0
  154.7815  135.1676  159.7122 H   0  0  0  0  0  0  0  0  0  0  0  0
  155.8908  135.3372  161.0521 H   0  0  0  0  0  0  0  0  0  0  0  0
  152.9001  134.6971  161.3023 H   0  0  0  0  0  0  0  0  0  0  0  0
  154.2775  132.7333  160.6279 H   0  0  0  0  0  0  0  0  0  0  0  0
  153.6695  132.5585  162.2716 H   0  0  0  0  0  0  0  0  0  0  0  0
  155.3505  133.0092  161.9995 H   0  0  0  0  0  0  0  0  0  0  0  0
  1  2  1  0  0  0  0
  1 21  1  0  0  0  0
  1 22  1  0  0  0  0
  1 23  1  0  0  0  0
  2 20  1  0  0  0  0
  2  3  1  0  0  0  0
  2 24  1  0  0  0  0
  3  4  1  0  0  0  0
  3 25  1  0  0  0  0
  3 26  1  0  0  0  0
  4  5  1  0  0  0  0
  4 17  1  0  0  0  0
  5  6  2  0  0  0  0
  5  7  2  0  0  0  0
  5  8  1  0  0  0  0
  8  9  1  0  0  0  0
  8 27  1  0  0  0  0
  9 10  1  0  0  0  0
  9 28  1  0  0  0  0
  9 29  1  0  0  0  0
 10 11  1  0  0  0  0
 10 30  1  0  0  0  0
 10 31  1  0  0  0  0
 11 16  1  0  0  0  0
 11 12  2  0  0  0  0
 12 13  1  0  0  0  0
 12 32  1  0  0  0  0
 13 14  2  0  0  0  0
 13 33  1  0  0  0  0
 14 15  1  0  0  0  0
 14 34  1  0  0  0  0
 15 16  2  0  0  0  0
 16 35  1  0  0  0  0
 17 18  1  0  0  0  0
 17 36  1  0  0  0  0
 17 37  1  0  0  0  0
 18 19  1  0  0  0  0
 18 20  1  0  0  0  0
 18 38  1  0  0  0  0
 19 39  1  0  0  0  0
 19 40  1  0  0  0  0
 19 41  1  0  0  0  0
M  END
> <s_m_source_file>
AV-unprocessed.smi

> <i_m_source_file_index>
1165

> <i_lp_mmshare_version>
43012

> <i_f3d_flags>
0

> <s_epik_input>
W0NIM11bQ0BASF0xW0NIMl1OKFtDSDJdW0NASF0oTzEpW0NIM10pUyg9TykoPU8pW05IXVtDSDJdW0NIMl1jMltjSF1bY0hdW2NIXW5bY0hdMg==

> <s_epik_cmdline>
J2VwaWtfcHl0aG9uJywgJy1waCcsICc3LjAnLCAnLXRuJywgJzgnLCAnLW1hJywgJzIwMCcsICctbWV0YWxfYmluZGluZycsICctaW1hZScsICc8aW5maWxlLm1hZT4nLCAnLW9tYWUnLCAnPG91dGZpbGUubWFlPic=

> <r_epik_Ionization_Penalty>
0.0861056

> <r_epik_Ionization_Penalty_Charging>
0

> <r_epik_Ionization_Penalty_Neutral>
0.0861056

> <r_epik_State_Penalty>
0.0574425

> <r_epik_Charging_Adjusted_Penalty>
0.0574425

> <i_epik_Tot_Q>
0

> <i_epik_Tot_abs_Q>
0

> <r_epik_Metal_State_Penalty>
0.317425

> <b_epik_Metal_Only>
0

> <s_lp_Force_Field>
OPLS_2005

> <r_lp_Energy>
3.52917

> <b_lp_Chiralities_Consistent>
1

> <s_lp_Variant>
AV-unprocessed.smi:1165-2

> <Gold.Version>
5.8.1

> <Gold.Id.Protein>
6NUR|6NUR_protein|mol2

> <Gold.PLP.Fitness>
42.7360

> <Gold.PLP.PLP>
-38.6917

> <Gold.PLP.part.hbond>
-1.1920

> <Gold.PLP.part.metal>
0.0000

> <Gold.PLP.part.buried>
-5.4031

> <Gold.PLP.part.nonpolar>
-33.3989

> <Gold.PLP.part.repulsive>
0.0660

> <Gold.PLP.ligand.clash>
0.0000

> <Gold.PLP.ligand.torsion>
2.0311

> <Gold.PLP.Chemscore.Hbond>
1.0000

> <Gold.PLP.Chemscore.CHOScore>
1.0000

> <Gold.PLP.Chemscore.Metal>
0.0000

> <Gold.Chemscore.Hbonds>
donor molecule, donor type, donor heavy atom, donor atom, acceptor molecule, acceptor atom, score
      P1  H  6896  6909       L1     7  1.00
      L1  C    14    34       P1  8028  0.56

> <Gold.PLP.Chemscore.Internal.Correction>
2.1065

> <Gold.Rescore>
     Score         DG    S(hbond)    S(metal)    S(lipo)     H(rot)  DE(clash)    DE(int)     intcor
     16.43     -18.36       1.00        0.00     114.86       1.52       0.02       1.91       ----

> <Gold.Chemscore.Fitness>
16.4345

> <Gold.Chemscore.DG>
-18.3623

> <Gold.Chemscore.ZeroCoef>
-5.4800

> <Gold.Chemscore.Hbond>
0.9964

> <Gold.Chemscore.Metal>
0.0000

> <Gold.Chemscore.Lipo>
114.8577

> <Gold.Chemscore.Internal_Hbond>
0.0000

> <Gold.Chemscore.DEClash>
0.0199

> <Gold.Chemscore.DEInternal>
1.9078

> <Gold.Chemscore.Rot>
1.5172

> <Gold.Chemscore.Internal.Correction>
   9.000000E+99

> <Gold.Chemscore.Hbonds>
donor molecule, donor type, donor heavy atom, donor atom, acceptor molecule, acceptor atom, score
      P1  H  6896  6909       L1     7  1.00

> <Gold.Chemscore.Hbond.Weighted>
-3.3280

> <Gold.Chemscore.Metal.Weighted>
-0.0000

> <Gold.Chemscore.Lipo.Weighted>
-13.4384

> <Gold.Chemscore.Internal_Hbond.Weighted>
0.0000

> <Gold.Chemscore.DEClash.Weighted>
0.0199

> <Gold.Chemscore.DEInternal.Weighted>
1.9078

> <Gold.Chemscore.Rot.Weighted>
3.8841

> <Gold.Chemscore.Internal.Correction.Weighted>
   9.000000E+99

> <Gold.Protein.RotatedTorsions>
[ 6907 6896 6895 6894 ] final  138.14 input  -60.11 | X-H torsion
[ 7974 7965 7964 7962 ] final   40.17 input  175.53 | X-H torsion
[ 8008 7997 7996 7995 ] final -162.96 input   59.86 | X-H torsion
[ 10167 10162 10161 10158 ] final  -21.36 input  -65.29 | X-H torsion
[ 10718 10713 10712 10709 ] final  -38.87 input   66.30 | X-H torsion
[ 10763 10752 10751 10750 ] final -170.12 input  -60.55 | X-H torsion
[ 11005 11000 10999 10996 ] final   44.70 input  -57.11 | X-H torsion

> <Gold.Protein.ActiveResidues>
 VAL166  LYS551  ARG553  GLY616  TRP617  ASP618  TYR619  PRO620  LYS621  CYS622 
 ASP623  PHE694  ASN695  SER759  ASP760  ASP761  ALA762  ILE779  LEU786  VAL792 
 PHE793  MET794  SER795  GLU796  ALA797  LYS798  CYS799  TRP800  GLU811  SER814 

> <Gold.Protein.RotatedAtoms>
  152.2701  133.5374  159.5433 H   0  0  0  0  0  0  0  0  0  0  0  0  # atno 6907 bound_to 6896
  150.7156  134.0710  159.3873 H   0  0  0  0  0  0  0  0  0  0  0  0  # atno 6908 bound_to 6896
  151.8625  135.0519  160.0521 H   0  0  0  0  0  0  0  0  0  0  0  0  # atno 6909 bound_to 6896
  146.0926  139.5564  142.9466 H   0  0  0  0  0  0  0  0  0  0  0  0  # atno 7974 bound_to 7965
  155.8143  140.0910  157.1886 H   0  0  0  0  0  0  0  0  0  0  0  0  # atno 8008 bound_to 7997
  154.3979  140.1448  156.3484 H   0  0  0  0  0  0  0  0  0  0  0  0  # atno 8009 bound_to 7997
  155.8332  140.3442  155.5588 H   0  0  0  0  0  0  0  0  0  0  0  0  # atno 8010 bound_to 7997
  140.7281  143.4635  151.0346 H   0  0  0  0  0  0  0  0  0  0  0  0  # atno 10167 bound_to 10162
  156.2988  130.4237  149.8164 H   0  0  0  0  0  0  0  0  0  0  0  0  # atno 10718 bound_to 10713
  154.6449  135.2903  155.0058 H   0  0  0  0  0  0  0  0  0  0  0  0  # atno 10763 bound_to 10752
  154.1171  135.6553  153.4900 H   0  0  0  0  0  0  0  0  0  0  0  0  # atno 10764 bound_to 10752
  153.0346  135.5279  154.7332 H   0  0  0  0  0  0  0  0  0  0  0  0  # atno 10765 bound_to 10752
  140.1527  134.4441  155.8370 H   0  0  0  0  0  0  0  0  0  0  0  0  # atno 11005 bound_to 11000
  145.6010  141.0355  143.2018 LP  0  0  0  0  0  0  0  0  0  0  0  0  # atno 17320 bound_to 7965
  144.7371  139.7554  143.7325 LP  0  0  0  0  0  0  0  0  0  0  0  0  # atno 17321 bound_to 7965
  139.8322  143.7676  152.3180 LP  0  0  0  0  0  0  0  0  0  0  0  0  # atno 17342 bound_to 10162
  139.7795  144.7449  151.0108 LP  0  0  0  0  0  0  0  0  0  0  0  0  # atno 17343 bound_to 10162
  156.5550  130.8358  151.3311 LP  0  0  0  0  0  0  0  0  0  0  0  0  # atno 17370 bound_to 10713
  157.7362  130.9775  150.2125 LP  0  0  0  0  0  0  0  0  0  0  0  0  # atno 17371 bound_to 10713
  141.2201  133.6879  156.7451 LP  0  0  0  0  0  0  0  0  0  0  0  0  # atno 17394 bound_to 11000
  140.2585  134.8485  157.3736 LP  0  0  0  0  0  0  0  0  0  0  0  0  # atno 17395 bound_to 11000

$$$$
