AV-unprocessed.smi:471|AV-procd|sdf|2659|dock3
  -GOLD-   2262023 73D 1   1.00000     0.00000
 Structure written by MMmdl.
 16 16  0  0  0  0  0  0  0  0  3 V2000
  152.8351  139.5256  155.0550 O   0  0  0  0  0  0  0  0  0  0  0  0
  151.6545  139.1585  154.8673 C   0  0  0  0  0  0  0  0  0  0  0  0
  150.7251  139.8856  154.4517 O   0  5  0  0  0  0  0  0  0  0  0  0
  151.3187  137.6938  155.1670 C   0  0  0  0  0  0  0  0  0  0  0  0
  150.8469  137.5006  156.5496 N   0  0  0  0  0  0  0  0  0  0  0  0
  149.7854  138.3139  156.9888 C   0  0  0  0  0  0  0  0  0  0  0  0
  149.2608  138.1986  158.2234 C   0  0  0  0  0  0  0  0  0  0  0  0
  149.8155  137.1896  159.1161 C   0  0  0  0  0  0  0  0  0  0  0  0
  149.3534  137.0726  160.2497 O   0  0  0  0  0  0  0  0  0  0  0  0
  150.8311  136.4118  158.6404 N   0  5  0  0  0  0  0  0  0  0  0  0
  151.3531  136.5380  157.3799 C   0  0  0  0  0  0  0  0  0  0  0  0
  152.2611  135.8107  156.9767 O   0  0  0  0  0  0  0  0  0  0  0  0
  150.5353  137.3615  154.4842 H   0  0  0  0  0  0  0  0  0  0  0  0
  152.1893  137.0847  154.9207 H   0  0  0  0  0  0  0  0  0  0  0  0
  149.4278  139.0295  156.2630 H   0  0  0  0  0  0  0  0  0  0  0  0
  148.4470  138.8331  158.5422 H   0  0  0  0  0  0  0  0  0  0  0  0
  1  2  2  0  0  0  0
  2  3  1  0  0  0  0
  2  4  1  0  0  0  0
  4  5  1  0  0  0  0
  4 13  1  0  0  0  0
  4 14  1  0  0  0  0
  5 11  1  0  0  0  0
  5  6  1  0  0  0  0
  6  7  2  0  0  0  0
  6 15  1  0  0  0  0
  7  8  1  0  0  0  0
  7 16  1  0  0  0  0
  8  9  2  0  0  0  0
  8 10  1  0  0  0  0
 10 11  1  0  0  0  0
 11 12  2  0  0  0  0
M  CHG  1   3  -1
M  CHG  1  10  -1
M  END
> <s_m_source_file>
AV-unprocessed.smi

> <i_m_source_file_index>
471

> <i_lp_mmshare_version>
43012

> <i_f3d_flags>
0

> <s_epik_input>
Tz1DKFtPSF0pW0NIMl1uMVtjSF1bY0hdYyg9TylbbkhdYzE9Tw==

> <s_epik_cmdline>
J2VwaWtfcHl0aG9uJywgJy1waCcsICc3LjAnLCAnLXRuJywgJzgnLCAnLW1hJywgJzIwMCcsICctbWV0YWxfYmluZGluZycsICctaW1hZScsICc8aW5maWxlLm1hZT4nLCAnLW9tYWUnLCAnPG91dGZpbGUubWFlPic=

> <r_lp_tautomer_probability>
1

> <r_epik_Ionization_Penalty>
3.94908

> <r_epik_Ionization_Penalty_Charging>
0.000183212

> <r_epik_Ionization_Penalty_Neutral>
3.94889

> <r_epik_State_Penalty>
3.94814

> <r_epik_Charging_Adjusted_Penalty>
3.94832

> <i_epik_Tot_Q>
-2

> <i_epik_Tot_abs_Q>
2

> <r_epik_Metal_State_Penalty>
0.342776

> <b_epik_Metal_Only>
1

> <s_lp_Force_Field>
OPLS_2005

> <r_lp_Energy>
13.443

> <b_lp_Chiralities_Consistent>
1

> <s_lp_Variant>
AV-unprocessed.smi:471-2

> <Gold.Version>
5.8.1

> <Gold.Id.Protein>
6NUR|6NUR_protein|mol2

> <Gold.PLP.Fitness>
34.3828

> <Gold.PLP.PLP>
-16.8256

> <Gold.PLP.part.hbond>
-5.9272

> <Gold.PLP.part.metal>
0.0000

> <Gold.PLP.part.buried>
-3.1312

> <Gold.PLP.part.nonpolar>
-8.3259

> <Gold.PLP.part.repulsive>
0.1201

> <Gold.PLP.ligand.clash>
0.0000

> <Gold.PLP.ligand.torsion>
0.4492

> <Gold.PLP.Chemscore.Hbond>
6.1502

> <Gold.PLP.Chemscore.CHOScore>
0.0000

> <Gold.PLP.Chemscore.Metal>
0.0000

> <Gold.Chemscore.Hbonds>
donor molecule, donor type, donor heavy atom, donor atom, acceptor molecule, acceptor atom, score
      P1  H  6896  6908       L1    10  1.76
      P1  H  6931  6943       L1     9  0.50
      P1  H  7989  7998       L1     3  0.90
      P1  H  7997  8009       L1     1  2.00
      P1  H 10752 10765       L1    12  0.86

> <Gold.PLP.Chemscore.Internal.Correction>
0.0048

> <Gold.Rescore>
     Score         DG    S(hbond)    S(metal)    S(lipo)     H(rot)  DE(clash)    DE(int)     intcor
     14.90     -15.29       3.82        0.00      10.69       1.64       0.00       0.39       ----

> <Gold.Chemscore.Fitness>
14.9000

> <Gold.Chemscore.DG>
-15.2858

> <Gold.Chemscore.ZeroCoef>
-5.4800

> <Gold.Chemscore.Hbond>
3.8188

> <Gold.Chemscore.Metal>
0.0000

> <Gold.Chemscore.Lipo>
10.6870

> <Gold.Chemscore.Internal_Hbond>
0.0000

> <Gold.Chemscore.DEClash>
0.0000

> <Gold.Chemscore.DEInternal>
0.3858

> <Gold.Chemscore.Rot>
1.6404

> <Gold.Chemscore.Internal.Correction>
   9.000000E+99

> <Gold.Chemscore.Hbonds>
donor molecule, donor type, donor heavy atom, donor atom, acceptor molecule, acceptor atom, score
      P1  H  6896  6908       L1    10  0.56
      P1  H  6931  6943       L1     9  0.45
      P1  H  7989  7998       L1     3  0.18
      P1  H  7997  8009       L1     1  0.92
      P1  H 10752 10765       L1    12  0.84

> <Gold.Chemscore.Hbond.Weighted>
-12.7548

> <Gold.Chemscore.Metal.Weighted>
-0.0000

> <Gold.Chemscore.Lipo.Weighted>
-1.2504

> <Gold.Chemscore.Internal_Hbond.Weighted>
0.0000

> <Gold.Chemscore.DEClash.Weighted>
0.0000

> <Gold.Chemscore.DEInternal.Weighted>
0.3858

> <Gold.Chemscore.Rot.Weighted>
4.1994

> <Gold.Chemscore.Internal.Correction.Weighted>
   9.000000E+99

> <Gold.Protein.RotatedTorsions>
[ 6907 6896 6895 6894 ] final -153.33 input  -60.11 | X-H torsion
[ 7974 7965 7964 7962 ] final   74.90 input  175.53 | X-H torsion
[ 8008 7997 7996 7995 ] final -119.08 input   59.86 | X-H torsion
[ 10167 10162 10161 10158 ] final   -9.44 input  -65.29 | X-H torsion
[ 10718 10713 10712 10709 ] final -110.65 input   66.30 | X-H torsion
[ 10763 10752 10751 10750 ] final -137.39 input  -60.55 | X-H torsion
[ 11005 11000 10999 10996 ] final  -52.10 input  -57.11 | X-H torsion

> <Gold.Protein.ActiveResidues>
 VAL166  LYS551  ARG553  GLY616  TRP617  ASP618  TYR619  PRO620  LYS621  CYS622 
 ASP623  PHE694  ASN695  SER759  ASP760  ASP761  ALA762  ILE779  LEU786  VAL792 
 PHE793  MET794  SER795  GLU796  ALA797  LYS798  CYS799  TRP800  GLU811  SER814 

> <Gold.Protein.RotatedAtoms>
  151.2410  133.4399  159.2607 H   0  0  0  0  0  0  0  0  0  0  0  0  # atno 6907 bound_to 6896
  151.0705  134.9796  159.8316 H   0  0  0  0  0  0  0  0  0  0  0  0  # atno 6908 bound_to 6896
  152.5411  134.2355  159.8894 H   0  0  0  0  0  0  0  0  0  0  0  0  # atno 6909 bound_to 6896
  145.7223  139.2653  143.1588 H   0  0  0  0  0  0  0  0  0  0  0  0  # atno 7974 bound_to 7965
  155.1099  140.0397  157.2721 H   0  0  0  0  0  0  0  0  0  0  0  0  # atno 8008 bound_to 7997
  154.6693  140.2608  155.6998 H   0  0  0  0  0  0  0  0  0  0  0  0  # atno 8009 bound_to 7997
  156.2652  140.2801  156.1196 H   0  0  0  0  0  0  0  0  0  0  0  0  # atno 8010 bound_to 7997
  140.7087  143.5858  150.8945 H   0  0  0  0  0  0  0  0  0  0  0  0  # atno 10167 bound_to 10162
  156.0602  130.5826  150.8265 H   0  0  0  0  0  0  0  0  0  0  0  0  # atno 10718 bound_to 10713
  154.8663  135.3643  154.5215 H   0  0  0  0  0  0  0  0  0  0  0  0  # atno 10763 bound_to 10752
  153.5845  135.7017  153.5454 H   0  0  0  0  0  0  0  0  0  0  0  0  # atno 10764 bound_to 10752
  153.3427  135.4093  155.1547 H   0  0  0  0  0  0  0  0  0  0  0  0  # atno 10765 bound_to 10752
  141.0906  133.6633  156.3974 H   0  0  0  0  0  0  0  0  0  0  0  0  # atno 11005 bound_to 11000
  146.0614  140.7967  142.9733 LP  0  0  0  0  0  0  0  0  0  0  0  0  # atno 17320 bound_to 7965
  144.6913  140.3202  143.7233 LP  0  0  0  0  0  0  0  0  0  0  0  0  # atno 17321 bound_to 7965
  139.9583  143.6192  152.3009 LP  0  0  0  0  0  0  0  0  0  0  0  0  # atno 17342 bound_to 10162
  139.6736  144.7660  151.1737 LP  0  0  0  0  0  0  0  0  0  0  0  0  # atno 17343 bound_to 10162
  157.5605  131.0946  150.9566 LP  0  0  0  0  0  0  0  0  0  0  0  0  # atno 17370 bound_to 10713
  156.9804  130.5525  149.5296 LP  0  0  0  0  0  0  0  0  0  0  0  0  # atno 17371 bound_to 10713
  140.5260  134.6258  157.5334 LP  0  0  0  0  0  0  0  0  0  0  0  0  # atno 17394 bound_to 11000
  139.9732  134.7259  156.0001 LP  0  0  0  0  0  0  0  0  0  0  0  0  # atno 17395 bound_to 11000

$$$$
