AV-unprocessed.smi:3237|AV-procd|sdf|12365|dock4
  -GOLD-   2272018223D 1   1.00000     0.00000
 Structure written by MMmdl.
 37 39  0  0  0  0  0  0  0  0  2 V2000
  148.3441  124.0103  151.0188 C   0  0  0  0  0  0  0  0  0  0  0  0
  147.9969  125.4112  151.3903 C   0  0  0  0  0  0  0  0  0  0  0  0
  148.2498  126.6188  150.8036 C   0  0  0  0  0  0  0  0  0  0  0  0
  147.6276  127.5423  151.6936 C   0  0  0  0  0  0  0  0  0  0  0  0
  147.5910  128.9536  151.5510 N   0  0  0  0  0  0  0  0  0  0  0  0
  146.8734  129.8453  152.2547 C   0  0  0  0  0  0  0  0  0  0  0  0
  146.0974  129.5751  153.1710 O   0  0  0  0  0  0  0  0  0  0  0  0
  147.1048  131.0969  151.8333 N   0  0  0  0  0  0  0  0  0  0  0  0
  146.4803  132.2891  152.3963 C   0  0  2  0  0  0  0  0  0  0  0  0
  145.8253  133.2090  151.3704 C   0  0  0  0  0  0  0  0  0  0  0  0
  145.7432  134.5408  152.1245 C   0  0  0  0  0  0  0  0  0  0  0  0
  146.8601  134.5478  153.1024 N   0  3  1  0  0  0  0  0  0  0  0  0
  146.4515  134.9573  154.4638 C   0  0  0  0  0  0  0  0  0  0  0  0
  146.5131  136.4491  154.6908 C   0  0  0  0  0  0  0  0  0  0  0  0
  147.5766  135.5479  155.2796 C   0  0  0  0  0  0  0  0  0  0  0  0
  147.5027  133.2158  153.0527 C   0  0  0  0  0  0  0  0  0  0  0  0
  147.0531  126.9487  152.7235 N   0  0  0  0  0  0  0  0  0  0  0  0
  147.2849  125.5808  152.5370 O   0  0  0  0  0  0  0  0  0  0  0  0
  148.8454  123.9763  150.0514 H   0  0  0  0  0  0  0  0  0  0  0  0
  147.4476  123.3933  150.9566 H   0  0  0  0  0  0  0  0  0  0  0  0
  149.0094  123.5681  151.7605 H   0  0  0  0  0  0  0  0  0  0  0  0
  148.7927  126.7928  149.8869 H   0  0  0  0  0  0  0  0  0  0  0  0
  148.1868  129.3263  150.8266 H   0  0  0  0  0  0  0  0  0  0  0  0
  147.7578  131.2323  151.0751 H   0  0  0  0  0  0  0  0  0  0  0  0
  145.7402  131.9967  153.1443 H   0  0  0  0  0  0  0  0  0  0  0  0
  146.4647  133.3156  150.4924 H   0  0  0  0  0  0  0  0  0  0  0  0
  144.8501  132.8518  151.0378 H   0  0  0  0  0  0  0  0  0  0  0  0
  145.8058  135.3971  151.4526 H   0  0  0  0  0  0  0  0  0  0  0  0
  144.7864  134.6024  152.6459 H   0  0  0  0  0  0  0  0  0  0  0  0
  145.6785  134.3564  154.9402 H   0  0  0  0  0  0  0  0  0  0  0  0
  146.7997  137.0862  153.8558 H   0  0  0  0  0  0  0  0  0  0  0  0
  145.7907  136.8827  155.3795 H   0  0  0  0  0  0  0  0  0  0  0  0
  147.5543  135.3873  156.3555 H   0  0  0  0  0  0  0  0  0  0  0  0
  148.5699  135.5869  154.8358 H   0  0  0  0  0  0  0  0  0  0  0  0
  147.8183  132.8595  154.0346 H   0  0  0  0  0  0  0  0  0  0  0  0
  148.3957  133.2986  152.4311 H   0  0  0  0  0  0  0  0  0  0  0  0
  147.5455  135.2178  152.7836 H   0  0  0  0  0  0  0  0  0  0  0  0
  1  2  1  0  0  0  0
  1 19  1  0  0  0  0
  1 20  1  0  0  0  0
  1 21  1  0  0  0  0
  2 18  1  0  0  0  0
  2  3  2  0  0  0  0
  3  4  1  0  0  0  0
  3 22  1  0  0  0  0
  4  5  1  0  0  0  0
  4 17  2  0  0  0  0
  5  6  1  0  0  0  0
  5 23  1  0  0  0  0
  6  7  2  0  0  0  0
  6  8  1  0  0  0  0
  8  9  1  0  0  0  0
  8 24  1  0  0  0  0
  9 16  1  0  0  0  0
  9 10  1  0  0  0  0
  9 25  1  0  0  0  0
 10 11  1  0  0  0  0
 10 26  1  0  0  0  0
 10 27  1  0  0  0  0
 11 12  1  0  0  0  0
 11 28  1  0  0  0  0
 11 29  1  0  0  0  0
 12 13  1  0  0  0  0
 12 16  1  0  0  0  0
 12 37  1  0  0  0  0
 13 15  1  0  0  0  0
 13 14  1  0  0  0  0
 13 30  1  0  0  0  0
 14 15  1  0  0  0  0
 14 31  1  0  0  0  0
 14 32  1  0  0  0  0
 15 33  1  0  0  0  0
 15 34  1  0  0  0  0
 16 35  1  0  0  0  0
 16 36  1  0  0  0  0
 17 18  1  0  0  0  0
M  CHG  1  12   1
M  END
> <s_m_source_file>
AV-unprocessed.smi

> <i_m_source_file_index>
3237

> <i_lp_mmshare_version>
43012

> <i_f3d_flags>
0

> <s_epik_input>
W0NIM11jMVtjSF1jKG5vMSlbTkhdQyg9TylbTkhdW0NAQEhdMltDSDJdW0NIMl1OKFtDSDJdMilbQ0hdM1tDSDJdW0NIMl0z

> <s_epik_cmdline>
J2VwaWtfcHl0aG9uJywgJy1waCcsICc3LjAnLCAnLXRuJywgJzgnLCAnLW1hJywgJzIwMCcsICctbWV0YWxfYmluZGluZycsICctaW1hZScsICc8aW5maWxlLm1hZT4nLCAnLW9tYWUnLCAnPG91dGZpbGUubWFlPic=

> <r_epik_Ionization_Penalty>
0.000720579

> <r_epik_Ionization_Penalty_Charging>
0.000680516

> <r_epik_Ionization_Penalty_Neutral>
4.00628e-05

> <r_epik_State_Penalty>
0.000432256

> <r_epik_Charging_Adjusted_Penalty>
0.00111277

> <i_epik_Tot_Q>
1

> <i_epik_Tot_abs_Q>
1

> <r_epik_Metal_State_Penalty>
0.0255091

> <b_epik_Metal_Only>
0

> <s_lp_Force_Field>
OPLS_2005

> <r_lp_Energy>
36.5214

> <b_lp_Chiralities_Consistent>
1

> <s_lp_Variant>
AV-unprocessed.smi:3237-3

> <Gold.Version>
5.8.1

> <Gold.Id.Protein>
6NUR|6NUR_protein|mol2

> <Gold.PLP.Fitness>
37.7621

> <Gold.PLP.PLP>
-26.7676

> <Gold.PLP.part.hbond>
-3.6937

> <Gold.PLP.part.metal>
0.0000

> <Gold.PLP.part.buried>
-3.1822

> <Gold.PLP.part.nonpolar>
-19.9567

> <Gold.PLP.part.repulsive>
0.2796

> <Gold.PLP.ligand.clash>
0.0000

> <Gold.PLP.ligand.torsion>
0.6936

> <Gold.PLP.Chemscore.Hbond>
3.7057

> <Gold.PLP.Chemscore.CHOScore>
0.0000

> <Gold.PLP.Chemscore.Metal>
0.0000

> <Gold.Chemscore.Hbonds>
donor molecule, donor type, donor heavy atom, donor atom, acceptor molecule, acceptor atom, score
      L1  H     5    23       P1 10747  0.88
      L1  H     8    24       P1 10747  0.94
      L1  H    12    37       P1  7948  2.00

> <Gold.PLP.Chemscore.Internal.Correction>
1.2644

> <Gold.Rescore>
     Score         DG    S(hbond)    S(metal)    S(lipo)     H(rot)  DE(clash)    DE(int)     intcor
     13.81     -16.00       2.63        0.00      42.26       1.26       0.03       2.17       ----

> <Gold.Chemscore.Fitness>
13.8069

> <Gold.Chemscore.DG>
-15.9974

> <Gold.Chemscore.ZeroCoef>
-5.4800

> <Gold.Chemscore.Hbond>
2.6337

> <Gold.Chemscore.Metal>
0.0000

> <Gold.Chemscore.Lipo>
42.2603

> <Gold.Chemscore.Internal_Hbond>
0.0000

> <Gold.Chemscore.DEClash>
0.0252

> <Gold.Chemscore.DEInternal>
2.1653

> <Gold.Chemscore.Rot>
1.2593

> <Gold.Chemscore.Internal.Correction>
   9.000000E+99

> <Gold.Chemscore.Hbonds>
donor molecule, donor type, donor heavy atom, donor atom, acceptor molecule, acceptor atom, score
      L1  H     5    23       P1 10747  0.22
      L1  H     8    24       P1 10747  0.87
      L1  H    12    37       P1  7948  0.99

> <Gold.Chemscore.Hbond.Weighted>
-8.7967

> <Gold.Chemscore.Metal.Weighted>
-0.0000

> <Gold.Chemscore.Lipo.Weighted>
-4.9445

> <Gold.Chemscore.Internal_Hbond.Weighted>
0.0000

> <Gold.Chemscore.DEClash.Weighted>
0.0252

> <Gold.Chemscore.DEInternal.Weighted>
2.1653

> <Gold.Chemscore.Rot.Weighted>
3.2237

> <Gold.Chemscore.Internal.Correction.Weighted>
   9.000000E+99

> <Gold.Protein.RotatedTorsions>
[ 6907 6896 6895 6894 ] final -107.44 input  -60.11 | X-H torsion
[ 7974 7965 7964 7962 ] final -166.33 input  175.53 | X-H torsion
[ 8008 7997 7996 7995 ] final  -99.90 input   59.86 | X-H torsion
[ 10167 10162 10161 10158 ] final  -45.10 input  -65.29 | X-H torsion
[ 10718 10713 10712 10709 ] final   42.29 input   66.30 | X-H torsion
[ 10763 10752 10751 10750 ] final -140.08 input  -60.55 | X-H torsion
[ 11005 11000 10999 10996 ] final -148.47 input  -57.11 | X-H torsion

> <Gold.Protein.ActiveResidues>
 VAL166  LYS551  ARG553  GLY616  TRP617  ASP618  TYR619  PRO620  LYS621  CYS622 
 ASP623  PHE694  ASN695  SER759  ASP760  ASP761  ALA762  ILE779  LEU786  VAL792 
 PHE793  MET794  SER795  GLU796  ALA797  LYS798  CYS799  TRP800  GLU811  SER814 

> <Gold.Protein.RotatedAtoms>
  150.7444  133.9827  159.3581 H   0  0  0  0  0  0  0  0  0  0  0  0  # atno 6907 bound_to 6896
  151.7769  135.0770  160.0377 H   0  0  0  0  0  0  0  0  0  0  0  0  # atno 6908 bound_to 6896
  152.3301  133.5912  159.5840 H   0  0  0  0  0  0  0  0  0  0  0  0  # atno 6909 bound_to 6896
  144.7248  140.2682  143.6254 H   0  0  0  0  0  0  0  0  0  0  0  0  # atno 7974 bound_to 7965
  154.8212  140.0444  157.1412 H   0  0  0  0  0  0  0  0  0  0  0  0  # atno 8008 bound_to 7997
  154.9257  140.3033  155.5173 H   0  0  0  0  0  0  0  0  0  0  0  0  # atno 8009 bound_to 7997
  156.2980  140.2332  156.4312 H   0  0  0  0  0  0  0  0  0  0  0  0  # atno 8010 bound_to 7997
  140.6871  143.2896  151.3591 H   0  0  0  0  0  0  0  0  0  0  0  0  # atno 10167 bound_to 10162
  157.4032  130.7872  149.7366 H   0  0  0  0  0  0  0  0  0  0  0  0  # atno 10718 bound_to 10713
  154.8590  135.3564  154.5649 H   0  0  0  0  0  0  0  0  0  0  0  0  # atno 10763 bound_to 10752
  153.6263  135.7004  153.5296 H   0  0  0  0  0  0  0  0  0  0  0  0  # atno 10764 bound_to 10752
  153.3086  135.4185  155.1276 H   0  0  0  0  0  0  0  0  0  0  0  0  # atno 10765 bound_to 10752
  140.7609  134.3299  157.5102 H   0  0  0  0  0  0  0  0  0  0  0  0  # atno 11005 bound_to 11000
  145.8068  139.1987  143.2016 LP  0  0  0  0  0  0  0  0  0  0  0  0  # atno 17320 bound_to 7965
  146.0629  140.7951  142.9726 LP  0  0  0  0  0  0  0  0  0  0  0  0  # atno 17321 bound_to 7965
  139.6239  144.0852  152.2416 LP  0  0  0  0  0  0  0  0  0  0  0  0  # atno 17342 bound_to 10162
  140.0305  144.6084  150.7491 LP  0  0  0  0  0  0  0  0  0  0  0  0  # atno 17343 bound_to 10162
  155.9829  130.4005  150.3391 LP  0  0  0  0  0  0  0  0  0  0  0  0  # atno 17370 bound_to 10713
  157.1521  131.0323  151.2880 LP  0  0  0  0  0  0  0  0  0  0  0  0  # atno 17371 bound_to 10713
  139.8771  134.9201  156.3243 LP  0  0  0  0  0  0  0  0  0  0  0  0  # atno 17394 bound_to 11000
  140.9664  133.7355  156.0473 LP  0  0  0  0  0  0  0  0  0  0  0  0  # atno 17395 bound_to 11000

$$$$
