AV-unprocessed.smi:2061|AV-procd|sdf|8395|dock1
  -GOLD-   2272011 83D 1   1.00000     0.00000
 Structure written by MMmdl.
 45 46  0  0  0  0  0  0  0  0  3 V2000
  152.1125  128.3367  154.4625 C   0  0  0  0  0  0  0  0  0  0  0  0
  151.6455  129.5621  155.1703 C   0  0  0  0  0  0  0  0  0  0  0  0
  151.0054  130.6931  154.7485 C   0  0  0  0  0  0  0  0  0  0  0  0
  150.8674  131.4492  155.9430 C   0  0  0  0  0  0  0  0  0  0  0  0
  150.2418  132.7237  155.9238 N   0  0  0  0  0  0  0  0  0  0  0  0
  149.7277  133.4266  156.9496 C   0  0  0  0  0  0  0  0  0  0  0  0
  149.7423  132.9613  158.0954 O   0  0  0  0  0  0  0  0  0  0  0  0
  149.2327  134.6298  156.5500 N   0  5  0  0  0  0  0  0  0  0  0  0
  149.7754  135.4281  155.4512 C   0  0  0  0  0  0  0  0  0  0  0  0
  149.0394  136.7975  155.3594 C   0  0  1  0  0  0  0  0  0  0  0  0
  149.0990  137.5439  156.7240 C   0  0  0  0  0  0  0  0  0  0  0  0
  149.5746  137.5912  154.1956 N   0  3  1  0  0  0  0  0  0  0  0  0
  148.9612  138.9417  154.0239 C   0  0  0  0  0  0  0  0  0  0  0  0
  149.5890  139.9797  154.9782 C   0  0  2  0  0  0  0  0  0  0  0  0
  149.0273  141.3865  154.7460 C   0  0  0  0  0  0  0  0  0  0  0  0
  150.9938  140.0236  154.7582 O   0  0  0  0  0  0  0  0  0  0  0  0
  151.6269  138.7765  155.0183 C   0  0  2  0  0  0  0  0  0  0  0  0
  153.1364  138.9635  154.8331 C   0  0  0  0  0  0  0  0  0  0  0  0
  151.0523  137.7152  154.0555 C   0  0  0  0  0  0  0  0  0  0  0  0
  151.3772  130.8329  156.9993 N   0  0  0  0  0  0  0  0  0  0  0  0
  151.8776  129.6206  156.5097 O   0  0  0  0  0  0  0  0  0  0  0  0
  151.9306  128.4128  153.3904 H   0  0  0  0  0  0  0  0  0  0  0  0
  151.5900  127.4545  154.8328 H   0  0  0  0  0  0  0  0  0  0  0  0
  153.1816  128.1870  154.6140 H   0  0  0  0  0  0  0  0  0  0  0  0
  150.6888  130.9394  153.7460 H   0  0  0  0  0  0  0  0  0  0  0  0
  150.1843  133.1666  155.0190 H   0  0  0  0  0  0  0  0  0  0  0  0
  150.8460  135.6038  155.5617 H   0  0  0  0  0  0  0  0  0  0  0  0
  149.6674  134.9036  154.5012 H   0  0  0  0  0  0  0  0  0  0  0  0
  147.9844  136.6063  155.1607 H   0  0  0  0  0  0  0  0  0  0  0  0
  148.6849  136.9495  157.5413 H   0  0  0  0  0  0  0  0  0  0  0  0
  148.5083  138.4581  156.7159 H   0  0  0  0  0  0  0  0  0  0  0  0
  150.1183  137.8137  157.0078 H   0  0  0  0  0  0  0  0  0  0  0  0
  149.1235  139.2559  152.9919 H   0  0  0  0  0  0  0  0  0  0  0  0
  147.8799  138.9150  154.1585 H   0  0  0  0  0  0  0  0  0  0  0  0
  149.3971  139.7053  156.0163 H   0  0  0  0  0  0  0  0  0  0  0  0
  147.9502  141.4106  154.9133 H   0  0  0  0  0  0  0  0  0  0  0  0
  149.2162  141.7255  153.7271 H   0  0  0  0  0  0  0  0  0  0  0  0
  149.4841  142.1057  155.4265 H   0  0  0  0  0  0  0  0  0  0  0  0
  151.4406  138.4966  156.0556 H   0  0  0  0  0  0  0  0  0  0  0  0
  153.6733  138.0353  155.0302 H   0  0  0  0  0  0  0  0  0  0  0  0
  153.5218  139.7214  155.5155 H   0  0  0  0  0  0  0  0  0  0  0  0
  153.3740  139.2791  153.8168 H   0  0  0  0  0  0  0  0  0  0  0  0
  151.5609  136.7577  154.1573 H   0  0  0  0  0  0  0  0  0  0  0  0
  151.2567  138.0283  153.0305 H   0  0  0  0  0  0  0  0  0  0  0  0
  149.2844  137.0501  153.3932 H   0  0  0  0  0  0  0  0  0  0  0  0
  1  2  1  0  0  0  0
  1 22  1  0  0  0  0
  1 23  1  0  0  0  0
  1 24  1  0  0  0  0
  2 21  1  0  0  0  0
  2  3  2  0  0  0  0
  3  4  1  0  0  0  0
  3 25  1  0  0  0  0
  4  5  1  0  0  0  0
  4 20  2  0  0  0  0
  5  6  1  0  0  0  0
  5 26  1  0  0  0  0
  6  7  2  0  0  0  0
  6  8  1  0  0  0  0
  8  9  1  0  0  0  0
  9 10  1  0  0  0  0
  9 27  1  0  0  0  0
  9 28  1  0  0  0  0
 10 11  1  0  0  0  0
 10 12  1  0  0  0  0
 10 29  1  0  0  0  0
 11 30  1  0  0  0  0
 11 31  1  0  0  0  0
 11 32  1  0  0  0  0
 12 19  1  0  0  0  0
 12 13  1  0  0  0  0
 12 45  1  0  0  0  0
 13 14  1  0  0  0  0
 13 33  1  0  0  0  0
 13 34  1  0  0  0  0
 14 15  1  0  0  0  0
 14 16  1  0  0  0  0
 14 35  1  0  0  0  0
 15 36  1  0  0  0  0
 15 37  1  0  0  0  0
 15 38  1  0  0  0  0
 16 17  1  0  0  0  0
 17 18  1  0  0  0  0
 17 19  1  0  0  0  0
 17 39  1  0  0  0  0
 18 40  1  0  0  0  0
 18 41  1  0  0  0  0
 18 42  1  0  0  0  0
 19 43  1  0  0  0  0
 19 44  1  0  0  0  0
 20 21  1  0  0  0  0
M  CHG  1   8  -1
M  CHG  1  12   1
M  END
> <s_m_source_file>
AV-unprocessed.smi

> <i_m_source_file_index>
2061

> <i_lp_mmshare_version>
43012

> <i_f3d_flags>
0

> <s_epik_input>
W0NIM11jMVtjSF1jKG5vMSlbTkhdQyg9TylbTkhdW0NIMl1bQ0BIXShbQ0gzXSlOMltDSDJdW0NAQEhdKFtDSDNdKU9bQ0BASF0oW0NIM10pW0NIMl0y

> <s_epik_cmdline>
J2VwaWtfcHl0aG9uJywgJy1waCcsICc3LjAnLCAnLXRuJywgJzgnLCAnLW1hJywgJzIwMCcsICctbWV0YWxfYmluZGluZycsICctaW1hZScsICc8aW5maWxlLm1hZT4nLCAnLW9tYWUnLCAnPG91dGZpbGUubWFlPic=

> <r_epik_Ionization_Penalty>
6.8073

> <r_epik_Ionization_Penalty_Charging>
6.80729

> <r_epik_Ionization_Penalty_Neutral>
5.65391e-06

> <r_epik_State_Penalty>
7.47323

> <r_epik_Charging_Adjusted_Penalty>
14.2805

> <i_epik_Tot_Q>
0

> <i_epik_Tot_abs_Q>
2

> <r_epik_Metal_State_Penalty>
3.40035

> <b_epik_Metal_Only>
1

> <s_lp_Force_Field>
OPLS_2005

> <r_lp_Energy>
21.1883

> <b_lp_Chiralities_Consistent>
1

> <s_lp_Variant>
AV-unprocessed.smi:2061-36

> <Gold.Version>
5.8.1

> <Gold.Id.Protein>
6NUR|6NUR_protein|mol2

> <Gold.PLP.Fitness>
39.8981

> <Gold.PLP.PLP>
-28.5568

> <Gold.PLP.part.hbond>
-3.0000

> <Gold.PLP.part.metal>
0.0000

> <Gold.PLP.part.buried>
-0.4378

> <Gold.PLP.part.nonpolar>
-25.3085

> <Gold.PLP.part.repulsive>
0.1413

> <Gold.PLP.ligand.clash>
0.0000

> <Gold.PLP.ligand.torsion>
0.4163

> <Gold.PLP.Chemscore.Hbond>
4.0000

> <Gold.PLP.Chemscore.CHOScore>
0.0000

> <Gold.PLP.Chemscore.Metal>
0.0000

> <Gold.Chemscore.Hbonds>
donor molecule, donor type, donor heavy atom, donor atom, acceptor molecule, acceptor atom, score
      L1  H    12    45       P1  7948  2.00
      P1  H  6896  6908       L1     7  1.00
      P1  H  7989  7998       L1    16  1.00

> <Gold.PLP.Chemscore.Internal.Correction>
0.1740

> <Gold.Rescore>
     Score         DG    S(hbond)    S(metal)    S(lipo)     H(rot)  DE(clash)    DE(int)     intcor
     16.18     -19.28       2.87        0.00      69.92       1.56       0.30       2.79       ----

> <Gold.Chemscore.Fitness>
16.1847

> <Gold.Chemscore.DG>
-19.2786

> <Gold.Chemscore.ZeroCoef>
-5.4800

> <Gold.Chemscore.Hbond>
2.8740

> <Gold.Chemscore.Metal>
0.0000

> <Gold.Chemscore.Lipo>
69.9168

> <Gold.Chemscore.Internal_Hbond>
0.0000

> <Gold.Chemscore.DEClash>
0.3012

> <Gold.Chemscore.DEInternal>
2.7927

> <Gold.Chemscore.Rot>
1.5550

> <Gold.Chemscore.Internal.Correction>
   9.000000E+99

> <Gold.Chemscore.Hbonds>
donor molecule, donor type, donor heavy atom, donor atom, acceptor molecule, acceptor atom, score
      L1  H    12    45       P1  7948  0.98
      P1  H  6896  6908       L1     7  0.94
      P1  H  7989  7998       L1    16  0.89

> <Gold.Chemscore.Hbond.Weighted>
-9.5992

> <Gold.Chemscore.Metal.Weighted>
-0.0000

> <Gold.Chemscore.Lipo.Weighted>
-8.1803

> <Gold.Chemscore.Internal_Hbond.Weighted>
0.0000

> <Gold.Chemscore.DEClash.Weighted>
0.3012

> <Gold.Chemscore.DEInternal.Weighted>
2.7927

> <Gold.Chemscore.Rot.Weighted>
3.9809

> <Gold.Chemscore.Internal.Correction.Weighted>
   9.000000E+99

> <Gold.Protein.RotatedTorsions>
[ 6907 6896 6895 6894 ] final  113.78 input  -60.11 | X-H torsion
[ 7974 7965 7964 7962 ] final   68.44 input  175.53 | X-H torsion
[ 8008 7997 7996 7995 ] final -128.18 input   59.86 | X-H torsion
[ 10167 10162 10161 10158 ] final  122.56 input  -65.29 | X-H torsion
[ 10718 10713 10712 10709 ] final   41.94 input   66.30 | X-H torsion
[ 10763 10752 10751 10750 ] final  138.14 input  -60.55 | X-H torsion
[ 11005 11000 10999 10996 ] final  -99.82 input  -57.11 | X-H torsion

> <Gold.Protein.ActiveResidues>
 VAL166  LYS551  ARG553  GLY616  TRP617  ASP618  TYR619  PRO620  LYS621  CYS622 
 ASP623  PHE694  ASN695  SER759  ASP760  ASP761  ALA762  ILE779  LEU786  VAL792 
 PHE793  MET794  SER795  GLU796  ALA797  LYS798  CYS799  TRP800  GLU811  SER814 

> <Gold.Protein.RotatedAtoms>
  152.4841  133.8327  159.7111 H   0  0  0  0  0  0  0  0  0  0  0  0  # atno 6907 bound_to 6896
  150.8913  133.7230  159.2910 H   0  0  0  0  0  0  0  0  0  0  0  0  # atno 6908 bound_to 6896
  151.4702  135.1049  159.9801 H   0  0  0  0  0  0  0  0  0  0  0  0  # atno 6909 bound_to 6896
  145.8026  139.2990  143.1146 H   0  0  0  0  0  0  0  0  0  0  0  0  # atno 7974 bound_to 7965
  155.2583  140.0435  157.2994 H   0  0  0  0  0  0  0  0  0  0  0  0  # atno 8008 bound_to 7997
  154.5726  140.2378  155.8139 H   0  0  0  0  0  0  0  0  0  0  0  0  # atno 8009 bound_to 7997
  156.2134  140.2992  155.9792 H   0  0  0  0  0  0  0  0  0  0  0  0  # atno 8010 bound_to 7997
  139.5851  144.7003  151.3429 H   0  0  0  0  0  0  0  0  0  0  0  0  # atno 10167 bound_to 10162
  157.3992  130.7850  149.7334 H   0  0  0  0  0  0  0  0  0  0  0  0  # atno 10718 bound_to 10713
  153.8846  135.3040  155.3446 H   0  0  0  0  0  0  0  0  0  0  0  0  # atno 10763 bound_to 10752
  154.7745  135.4868  153.9719 H   0  0  0  0  0  0  0  0  0  0  0  0  # atno 10764 bound_to 10752
  153.1332  135.6808  153.9242 H   0  0  0  0  0  0  0  0  0  0  0  0  # atno 10765 bound_to 10752
  141.1294  133.8351  157.1022 H   0  0  0  0  0  0  0  0  0  0  0  0  # atno 11005 bound_to 11000
  145.9862  140.8641  143.0089 LP  0  0  0  0  0  0  0  0  0  0  0  0  # atno 17320 bound_to 7965
  144.6767  140.2150  143.7373 LP  0  0  0  0  0  0  0  0  0  0  0  0  # atno 17321 bound_to 7965
  140.7124  143.7355  150.7591 LP  0  0  0  0  0  0  0  0  0  0  0  0  # atno 17342 bound_to 10162
  140.0898  143.4889  152.2485 LP  0  0  0  0  0  0  0  0  0  0  0  0  # atno 17343 bound_to 10162
  155.9819  130.4015  150.3448 LP  0  0  0  0  0  0  0  0  0  0  0  0  # atno 17370 bound_to 10713
  157.1573  131.0336  151.2857 LP  0  0  0  0  0  0  0  0  0  0  0  0  # atno 17371 bound_to 10713
  140.0326  134.9893  157.0810 LP  0  0  0  0  0  0  0  0  0  0  0  0  # atno 17394 bound_to 11000
  140.4260  134.1830  155.7166 LP  0  0  0  0  0  0  0  0  0  0  0  0  # atno 17395 bound_to 11000

$$$$
