AV-unprocessed.smi:152|AV-procd|sdf|1249|dock2
  -GOLD-   2262018473D 1   1.00000     0.00000
 Structure written by MMmdl.
 58 61  0  0  0  0  0  0  0  0  2 V2000
  147.6049  142.2396  157.8471 C   0  0  0  0  0  0  0  0  0  0  0  0
  148.3460  143.2052  158.7816 C   0  0  0  0  0  0  0  0  0  0  0  0
  149.6644  143.6085  158.2341 N   0  3  1  0  0  0  0  0  0  0  0  0
  150.3935  144.6061  159.0577 C   0  0  0  0  0  0  0  0  0  0  0  0
  151.8046  144.0559  159.2822 C   0  0  0  0  0  0  0  0  0  0  0  0
  151.9884  143.0552  158.1511 C   0  0  0  0  0  0  0  0  0  0  0  0
  150.5831  142.4754  157.9728 C   0  0  2  0  0  0  0  0  0  0  0  0
  150.3524  141.8634  156.5729 C   0  0  0  0  0  0  0  0  0  0  0  0
  150.6277  140.4286  156.5073 N   0  0  0  0  0  0  0  0  0  0  0  0
  151.5817  139.9848  155.5004 C   0  0  0  0  0  0  0  0  0  0  0  0
  149.5967  139.5613  156.6507 C   0  0  0  0  0  0  0  0  0  0  0  0
  148.5892  139.6534  155.7470 N   0  0  0  0  0  0  0  0  0  0  0  0
  147.5431  138.8255  155.8193 C   0  0  0  0  0  0  0  0  0  0  0  0
  147.3083  137.8536  156.7024 N   0  0  0  0  0  0  0  0  0  0  0  0
  148.3089  137.7680  157.6248 C   0  0  0  0  0  0  0  0  0  0  0  0
  149.4817  138.5744  157.6737 C   0  0  0  0  0  0  0  0  0  0  0  0
  150.2680  138.1928  158.7554 N   0  0  0  0  0  0  0  0  0  0  0  0
  149.6021  137.2170  159.3091 C   0  0  0  0  0  0  0  0  0  0  0  0
  148.4098  136.9011  158.6989 N   0  0  0  0  0  0  0  0  0  0  0  0
  147.4730  135.8648  159.1053 C   0  0  0  0  0  0  0  0  0  0  0  0
  147.0059  135.9757  160.5785 C   0  0  0  0  0  0  0  0  0  0  0  0
  146.3854  137.2386  160.7434 O   0  0  0  0  0  0  0  0  0  0  0  0
  145.9677  134.8797  160.8931 C   0  0  0  0  0  0  0  0  0  0  0  0
  145.5995  134.8388  162.3867 C   0  0  0  0  0  0  0  0  0  0  0  0
  146.7749  134.6786  163.1716 O   0  0  0  0  0  0  0  0  0  0  0  0
  147.6775  135.7698  163.0383 C   0  0  0  0  0  0  0  0  0  0  0  0
  148.1733  135.8740  161.5848 C   0  0  0  0  0  0  0  0  0  0  0  0
  146.6593  141.9262  158.2901 H   0  0  0  0  0  0  0  0  0  0  0  0
  148.1956  141.3426  157.6592 H   0  0  0  0  0  0  0  0  0  0  0  0
  147.3784  142.6997  156.8851 H   0  0  0  0  0  0  0  0  0  0  0  0
  147.7382  144.0891  158.9809 H   0  0  0  0  0  0  0  0  0  0  0  0
  148.4939  142.7077  159.7404 H   0  0  0  0  0  0  0  0  0  0  0  0
  150.4315  145.5439  158.5027 H   0  0  0  0  0  0  0  0  0  0  0  0
  149.9038  144.8086  160.0113 H   0  0  0  0  0  0  0  0  0  0  0  0
  152.5672  144.8354  159.2869 H   0  0  0  0  0  0  0  0  0  0  0  0
  151.8505  143.5370  160.2408 H   0  0  0  0  0  0  0  0  0  0  0  0
  152.3045  143.5769  157.2466 H   0  0  0  0  0  0  0  0  0  0  0  0
  152.7346  142.2930  158.3784 H   0  0  0  0  0  0  0  0  0  0  0  0
  150.4219  141.7338  158.7567 H   0  0  0  0  0  0  0  0  0  0  0  0
  149.3345  142.0484  156.2312 H   0  0  0  0  0  0  0  0  0  0  0  0
  150.9975  142.3701  155.8544 H   0  0  0  0  0  0  0  0  0  0  0  0
  151.0974  139.8857  154.5278 H   0  0  0  0  0  0  0  0  0  0  0  0
  152.0132  139.0199  155.7693 H   0  0  0  0  0  0  0  0  0  0  0  0
  152.4006  140.6973  155.4011 H   0  0  0  0  0  0  0  0  0  0  0  0
  146.7846  138.9615  155.0624 H   0  0  0  0  0  0  0  0  0  0  0  0
  149.9604  136.7021  160.1889 H   0  0  0  0  0  0  0  0  0  0  0  0
  146.6154  135.8933  158.4316 H   0  0  0  0  0  0  0  0  0  0  0  0
  147.9542  134.8998  158.9410 H   0  0  0  0  0  0  0  0  0  0  0  0
  145.4519  137.1091  160.8131 H   0  0  0  0  0  0  0  0  0  0  0  0
  145.0698  135.0175  160.2892 H   0  0  0  0  0  0  0  0  0  0  0  0
  146.3756  133.9072  160.6146 H   0  0  0  0  0  0  0  0  0  0  0  0
  145.0663  135.7420  162.6872 H   0  0  0  0  0  0  0  0  0  0  0  0
  144.9310  134.0002  162.5822 H   0  0  0  0  0  0  0  0  0  0  0  0
  147.1953  136.6952  163.3566 H   0  0  0  0  0  0  0  0  0  0  0  0
  148.5220  135.6095  163.7087 H   0  0  0  0  0  0  0  0  0  0  0  0
  148.7680  134.9887  161.3564 H   0  0  0  0  0  0  0  0  0  0  0  0
  148.8449  136.7282  161.4900 H   0  0  0  0  0  0  0  0  0  0  0  0
  149.4971  144.0465  157.3395 H   0  0  0  0  0  0  0  0  0  0  0  0
  1  2  1  0  0  0  0
  1 28  1  0  0  0  0
  1 29  1  0  0  0  0
  1 30  1  0  0  0  0
  2  3  1  0  0  0  0
  2 31  1  0  0  0  0
  2 32  1  0  0  0  0
  3  7  1  0  0  0  0
  3  4  1  0  0  0  0
  3 58  1  0  0  0  0
  4  5  1  0  0  0  0
  4 33  1  0  0  0  0
  4 34  1  0  0  0  0
  5  6  1  0  0  0  0
  5 35  1  0  0  0  0
  5 36  1  0  0  0  0
  6  7  1  0  0  0  0
  6 37  1  0  0  0  0
  6 38  1  0  0  0  0
  7  8  1  0  0  0  0
  7 39  1  0  0  0  0
  8  9  1  0  0  0  0
  8 40  1  0  0  0  0
  8 41  1  0  0  0  0
  9 10  1  0  0  0  0
  9 11  1  0  0  0  0
 10 42  1  0  0  0  0
 10 43  1  0  0  0  0
 10 44  1  0  0  0  0
 11 16  1  0  0  0  0
 11 12  2  0  0  0  0
 12 13  1  0  0  0  0
 13 14  2  0  0  0  0
 13 45  1  0  0  0  0
 14 15  1  0  0  0  0
 15 19  1  0  0  0  0
 15 16  2  0  0  0  0
 16 17  1  0  0  0  0
 17 18  2  0  0  0  0
 18 19  1  0  0  0  0
 18 46  1  0  0  0  0
 19 20  1  0  0  0  0
 20 21  1  0  0  0  0
 20 47  1  0  0  0  0
 20 48  1  0  0  0  0
 21 27  1  0  0  0  0
 21 22  1  0  0  0  0
 21 23  1  0  0  0  0
 22 49  1  0  0  0  0
 23 24  1  0  0  0  0
 23 50  1  0  0  0  0
 23 51  1  0  0  0  0
 24 25  1  0  0  0  0
 24 52  1  0  0  0  0
 24 53  1  0  0  0  0
 25 26  1  0  0  0  0
 26 27  1  0  0  0  0
 26 54  1  0  0  0  0
 26 55  1  0  0  0  0
 27 56  1  0  0  0  0
 27 57  1  0  0  0  0
M  CHG  1   3   1
M  END
> <s_m_source_file>
AV-unprocessed.smi

> <i_m_source_file_index>
152

> <i_lp_mmshare_version>
43012

> <i_f3d_flags>
0

> <s_epik_input>
W0NIM11bQ0gyXU4xW0NIMl1bQ0gyXVtDSDJdW0NASF0xW0NIMl1OKFtDSDNdKWMobltjSF1uMiljKGMyMyluW2NIXW4zW0NIMl1DNChbT0hdKVtDSDJdW0NIMl1PW0NIMl1bQ0gyXTQ=

> <s_epik_cmdline>
J2VwaWtfcHl0aG9uJywgJy1waCcsICc3LjAnLCAnLXRuJywgJzgnLCAnLW1hJywgJzIwMCcsICctbWV0YWxfYmluZGluZycsICctaW1hZScsICc8aW5maWxlLm1hZT4nLCAnLW9tYWUnLCAnPG91dGZpbGUubWFlPic=

> <r_lp_tautomer_probability>
1

> <r_epik_Ionization_Penalty>
0.00152183

> <r_epik_Ionization_Penalty_Charging>
0.00112577

> <r_epik_Ionization_Penalty_Neutral>
0.000396066

> <r_epik_State_Penalty>
-0

> <r_epik_Charging_Adjusted_Penalty>
0.00112577

> <i_epik_Tot_Q>
1

> <i_epik_Tot_abs_Q>
1

> <r_epik_Metal_State_Penalty>
-0

> <b_epik_Metal_Only>
0

> <s_lp_Force_Field>
OPLS_2005

> <r_lp_Energy>
45.0855

> <b_lp_Chiralities_Consistent>
1

> <s_lp_Variant>
AV-unprocessed.smi:152-4

> <Gold.Version>
5.8.1

> <Gold.Id.Protein>
6NUR|6NUR_protein|mol2

> <Gold.PLP.Fitness>
45.4476

> <Gold.PLP.PLP>
-38.3061

> <Gold.PLP.part.hbond>
-3.3235

> <Gold.PLP.part.metal>
0.0000

> <Gold.PLP.part.buried>
-5.7301

> <Gold.PLP.part.nonpolar>
-30.2300

> <Gold.PLP.part.repulsive>
0.0678

> <Gold.PLP.ligand.clash>
0.0000

> <Gold.PLP.ligand.torsion>
1.3671

> <Gold.PLP.Chemscore.Hbond>
3.0000

> <Gold.PLP.Chemscore.CHOScore>
0.0000

> <Gold.PLP.Chemscore.Metal>
0.0000

> <Gold.Chemscore.Hbonds>
donor molecule, donor type, donor heavy atom, donor atom, acceptor molecule, acceptor atom, score
      L1  H     3    58       P1  8028  2.00
      P1  H  6934  6947       L1    22  1.00

> <Gold.PLP.Chemscore.Internal.Correction>
0.8756

> <Gold.Rescore>
     Score         DG    S(hbond)    S(metal)    S(lipo)     H(rot)  DE(clash)    DE(int)     intcor
     14.46     -16.01       1.83        0.00      97.46       2.73       0.12       1.42       ----

> <Gold.Chemscore.Fitness>
14.4589

> <Gold.Chemscore.DG>
-16.0050

> <Gold.Chemscore.ZeroCoef>
-5.4800

> <Gold.Chemscore.Hbond>
1.8335

> <Gold.Chemscore.Metal>
0.0000

> <Gold.Chemscore.Lipo>
97.4562

> <Gold.Chemscore.Internal_Hbond>
0.0000

> <Gold.Chemscore.DEClash>
0.1228

> <Gold.Chemscore.DEInternal>
1.4234

> <Gold.Chemscore.Rot>
2.7348

> <Gold.Chemscore.Internal.Correction>
   9.000000E+99

> <Gold.Chemscore.Hbonds>
donor molecule, donor type, donor heavy atom, donor atom, acceptor molecule, acceptor atom, score
      L1  H     3    58       P1  8028  0.35
      P1  H  6934  6947       L1    22  0.96

> <Gold.Chemscore.Hbond.Weighted>
-6.1237

> <Gold.Chemscore.Metal.Weighted>
-0.0000

> <Gold.Chemscore.Lipo.Weighted>
-11.4024

> <Gold.Chemscore.Internal_Hbond.Weighted>
0.0000

> <Gold.Chemscore.DEClash.Weighted>
0.1228

> <Gold.Chemscore.DEInternal.Weighted>
1.4234

> <Gold.Chemscore.Rot.Weighted>
7.0010

> <Gold.Chemscore.Internal.Correction.Weighted>
   9.000000E+99

> <Gold.Protein.RotatedTorsions>
[ 6907 6896 6895 6894 ] final  -75.00 input  -60.11 | X-H torsion
[ 7974 7965 7964 7962 ] final  105.75 input  175.53 | X-H torsion
[ 8008 7997 7996 7995 ] final -172.18 input   59.86 | X-H torsion
[ 10167 10162 10161 10158 ] final  -80.23 input  -65.29 | X-H torsion
[ 10718 10713 10712 10709 ] final -136.63 input   66.30 | X-H torsion
[ 10763 10752 10751 10750 ] final  -74.22 input  -60.55 | X-H torsion
[ 11005 11000 10999 10996 ] final   78.14 input  -57.11 | X-H torsion

> <Gold.Protein.ActiveResidues>
 VAL166  LYS551  ARG553  GLY616  TRP617  ASP618  TYR619  PRO620  LYS621  CYS622 
 ASP623  PHE694  ASN695  SER759  ASP760  ASP761  ALA762  ILE779  LEU786  VAL792 
 PHE793  MET794  SER795  GLU796  ALA797  LYS798  CYS799  TRP800  GLU811  SER814 

> <Gold.Protein.RotatedAtoms>
  150.7074  134.4786  159.5459 H   0  0  0  0  0  0  0  0  0  0  0  0  # atno 6907 bound_to 6896
  152.2428  134.8209  160.0467 H   0  0  0  0  0  0  0  0  0  0  0  0  # atno 6908 bound_to 6896
  151.8984  133.3497  159.3859 H   0  0  0  0  0  0  0  0  0  0  0  0  # atno 6909 bound_to 6896
  145.3156  139.2527  143.3739 H   0  0  0  0  0  0  0  0  0  0  0  0  # atno 7974 bound_to 7965
  155.9413  140.1109  157.1053 H   0  0  0  0  0  0  0  0  0  0  0  0  # atno 8008 bound_to 7997
  154.4090  140.1218  156.4997 H   0  0  0  0  0  0  0  0  0  0  0  0  # atno 8009 bound_to 7997
  155.6958  140.3472  155.4915 H   0  0  0  0  0  0  0  0  0  0  0  0  # atno 8010 bound_to 7997
  140.4522  143.2479  151.8472 H   0  0  0  0  0  0  0  0  0  0  0  0  # atno 10167 bound_to 10162
  156.2792  130.7311  151.1303 H   0  0  0  0  0  0  0  0  0  0  0  0  # atno 10718 bound_to 10713
  154.4701  135.5872  153.6315 H   0  0  0  0  0  0  0  0  0  0  0  0  # atno 10763 bound_to 10752
  152.9833  135.6064  154.3378 H   0  0  0  0  0  0  0  0  0  0  0  0  # atno 10764 bound_to 10752
  154.3259  135.2843  155.2475 H   0  0  0  0  0  0  0  0  0  0  0  0  # atno 10765 bound_to 10752
  139.9225  134.7739  156.1611 H   0  0  0  0  0  0  0  0  0  0  0  0  # atno 11005 bound_to 11000
  146.3101  140.3702  142.8673 LP  0  0  0  0  0  0  0  0  0  0  0  0  # atno 17320 bound_to 7965
  144.8980  140.7607  143.5884 LP  0  0  0  0  0  0  0  0  0  0  0  0  # atno 17321 bound_to 7965
  139.4798  144.5107  151.8937 LP  0  0  0  0  0  0  0  0  0  0  0  0  # atno 17342 bound_to 10162
  140.4194  144.2264  150.5887 LP  0  0  0  0  0  0  0  0  0  0  0  0  # atno 17343 bound_to 10162
  157.7309  131.0612  150.5704 LP  0  0  0  0  0  0  0  0  0  0  0  0  # atno 17370 bound_to 10713
  156.5808  130.4304  149.5978 LP  0  0  0  0  0  0  0  0  0  0  0  0  # atno 17371 bound_to 10713
  141.0757  133.6776  156.2232 LP  0  0  0  0  0  0  0  0  0  0  0  0  # atno 17394 bound_to 11000
  140.6432  134.5144  157.5571 LP  0  0  0  0  0  0  0  0  0  0  0  0  # atno 17395 bound_to 11000

$$$$
