AV-unprocessed.smi:247|AV-procd|sdf|1889|dock6
  -GOLD-   2262020553D 1   1.00000     0.00000
 Structure written by MMmdl.
 61 65  0  0  0  0  0  0  0  0  1 V2000
  145.8692  128.6529  155.0815 O   0  0  0  0  0  0  0  0  0  0  0  0
  147.0699  129.3707  154.8750 C   0  0  0  0  0  0  0  0  0  0  0  0
  147.9351  128.8081  153.7126 C   0  0  0  0  0  0  0  0  0  0  0  0
  149.2002  129.7093  153.5507 C   0  0  0  0  0  0  0  0  0  0  0  0
  148.9739  131.1344  153.7473 N   0  0  0  0  0  0  0  0  0  0  0  0
  148.1659  131.9546  152.9918 C   0  0  0  0  0  0  0  0  0  0  0  0
  148.1270  133.2024  153.3715 N   0  0  0  0  0  0  0  0  0  0  0  0
  148.9528  133.2432  154.4881 C   0  0  0  0  0  0  0  0  0  0  0  0
  149.3636  134.2737  155.3786 C   0  0  0  0  0  0  0  0  0  0  0  0
  148.9361  135.5546  155.2503 N   0  0  0  0  0  0  0  0  0  0  0  0
  147.6036  135.7075  154.6893 C   0  0  0  0  0  0  0  0  0  0  0  0
  147.2504  137.1734  154.9100 C   0  0  0  0  0  0  0  0  0  0  0  0
  147.9295  137.4959  156.2393 C   0  0  0  0  0  0  0  0  0  0  0  0
  149.1425  136.5472  156.3120 C   0  0  2  0  0  0  0  0  0  0  0  0
  150.5103  137.2810  156.2019 C   0  0  2  0  0  0  0  0  0  0  0  0
  150.5608  138.5890  157.0288 C   0  0  0  0  0  0  0  0  0  0  0  0
  151.8523  139.1830  156.9573 O   0  0  0  0  0  0  0  0  0  0  0  0
  152.2155  139.5676  155.6373 C   0  0  0  0  0  0  0  0  0  0  0  0
  152.2928  138.3218  154.7447 C   0  0  0  0  0  0  0  0  0  0  0  0
  150.9511  137.5773  154.7501 C   0  0  1  0  0  0  0  0  0  0  0  0
  151.1028  136.3791  154.0152 O   0  0  0  0  0  0  0  0  0  0  0  0
  150.2115  133.9302  156.3839 N   0  0  0  0  0  0  0  0  0  0  0  0
  150.6316  132.6687  156.5121 C   0  0  0  0  0  0  0  0  0  0  0  0
  150.3344  131.6104  155.7565 N   0  0  0  0  0  0  0  0  0  0  0  0
  149.4871  131.9488  154.7427 C   0  0  0  0  0  0  0  0  0  0  0  0
  148.3078  127.3310  154.0032 C   0  0  0  0  0  0  0  0  0  0  0  0
  148.9634  126.6430  152.7923 C   0  0  0  0  0  0  0  0  0  0  0  0
  148.0966  126.7171  151.6669 O   0  0  0  0  0  0  0  0  0  0  0  0
  147.8299  128.0523  151.2549 C   0  0  0  0  0  0  0  0  0  0  0  0
  147.1305  128.8290  152.3871 C   0  0  0  0  0  0  0  0  0  0  0  0
  145.1722  129.0949  154.6211 H   0  0  0  0  0  0  0  0  0  0  0  0
  146.8105  130.4125  154.6847 H   0  0  0  0  0  0  0  0  0  0  0  0
  147.6215  129.3484  155.8149 H   0  0  0  0  0  0  0  0  0  0  0  0
  149.9919  129.4132  154.2367 H   0  0  0  0  0  0  0  0  0  0  0  0
  149.6208  129.5745  152.5533 H   0  0  0  0  0  0  0  0  0  0  0  0
  147.6087  131.5982  152.1377 H   0  0  0  0  0  0  0  0  0  0  0  0
  147.5730  135.4506  153.6305 H   0  0  0  0  0  0  0  0  0  0  0  0
  146.9046  135.0593  155.2205 H   0  0  0  0  0  0  0  0  0  0  0  0
  147.6829  137.7809  154.1144 H   0  0  0  0  0  0  0  0  0  0  0  0
  146.1753  137.3528  154.9241 H   0  0  0  0  0  0  0  0  0  0  0  0
  148.1911  138.5506  156.3294 H   0  0  0  0  0  0  0  0  0  0  0  0
  147.2447  137.2649  157.0561 H   0  0  0  0  0  0  0  0  0  0  0  0
  149.0935  136.0713  157.2912 H   0  0  0  0  0  0  0  0  0  0  0  0
  151.2610  136.6111  156.6252 H   0  0  0  0  0  0  0  0  0  0  0  0
  149.8114  139.3048  156.6867 H   0  0  0  0  0  0  0  0  0  0  0  0
  150.3474  138.3880  158.0781 H   0  0  0  0  0  0  0  0  0  0  0  0
  151.4975  140.2884  155.2427 H   0  0  0  0  0  0  0  0  0  0  0  0
  153.1839  140.0670  155.6697 H   0  0  0  0  0  0  0  0  0  0  0  0
  152.5645  138.6062  153.7275 H   0  0  0  0  0  0  0  0  0  0  0  0
  153.0856  137.6672  155.1100 H   0  0  0  0  0  0  0  0  0  0  0  0
  150.2083  138.1987  154.2498 H   0  0  0  0  0  0  0  0  0  0  0  0
  150.3475  136.2743  153.4566 H   0  0  0  0  0  0  0  0  0  0  0  0
  151.3041  132.4813  157.3362 H   0  0  0  0  0  0  0  0  0  0  0  0
  148.9500  127.2504  154.8794 H   0  0  0  0  0  0  0  0  0  0  0  0
  147.4091  126.7654  154.2508 H   0  0  0  0  0  0  0  0  0  0  0  0
  149.9323  127.0822  152.5538 H   0  0  0  0  0  0  0  0  0  0  0  0
  149.1465  125.5927  153.0187 H   0  0  0  0  0  0  0  0  0  0  0  0
  148.7519  128.5398  150.9378 H   0  0  0  0  0  0  0  0  0  0  0  0
  147.1834  128.0193  150.3778 H   0  0  0  0  0  0  0  0  0  0  0  0
  146.1506  128.3741  152.5332 H   0  0  0  0  0  0  0  0  0  0  0  0
  146.9392  129.8554  152.0725 H   0  0  0  0  0  0  0  0  0  0  0  0
  1  2  1  0  0  0  0
  1 31  1  0  0  0  0
  2  3  1  0  0  0  0
  2 32  1  0  0  0  0
  2 33  1  0  0  0  0
  3 30  1  0  0  0  0
  3  4  1  0  0  0  0
  3 26  1  0  0  0  0
  4  5  1  0  0  0  0
  4 34  1  0  0  0  0
  4 35  1  0  0  0  0
  5 25  1  0  0  0  0
  5  6  1  0  0  0  0
  6  7  2  0  0  0  0
  6 36  1  0  0  0  0
  7  8  1  0  0  0  0
  8 25  2  0  0  0  0
  8  9  1  0  0  0  0
  9 10  1  0  0  0  0
  9 22  2  0  0  0  0
 10 14  1  0  0  0  0
 10 11  1  0  0  0  0
 11 12  1  0  0  0  0
 11 37  1  0  0  0  0
 11 38  1  0  0  0  0
 12 13  1  0  0  0  0
 12 39  1  0  0  0  0
 12 40  1  0  0  0  0
 13 14  1  0  0  0  0
 13 41  1  0  0  0  0
 13 42  1  0  0  0  0
 14 15  1  0  0  0  0
 14 43  1  0  0  0  0
 15 20  1  0  0  0  0
 15 16  1  0  0  0  0
 15 44  1  0  0  0  0
 16 17  1  0  0  0  0
 16 45  1  0  0  0  0
 16 46  1  0  0  0  0
 17 18  1  0  0  0  0
 18 19  1  0  0  0  0
 18 47  1  0  0  0  0
 18 48  1  0  0  0  0
 19 20  1  0  0  0  0
 19 49  1  0  0  0  0
 19 50  1  0  0  0  0
 20 21  1  0  0  0  0
 20 51  1  0  0  0  0
 21 52  1  0  0  0  0
 22 23  1  0  0  0  0
 23 24  2  0  0  0  0
 23 53  1  0  0  0  0
 24 25  1  0  0  0  0
 26 27  1  0  0  0  0
 26 54  1  0  0  0  0
 26 55  1  0  0  0  0
 27 28  1  0  0  0  0
 27 56  1  0  0  0  0
 27 57  1  0  0  0  0
 28 29  1  0  0  0  0
 29 30  1  0  0  0  0
 29 58  1  0  0  0  0
 29 59  1  0  0  0  0
 30 60  1  0  0  0  0
 30 61  1  0  0  0  0
M  END
> <s_m_source_file>
AV-unprocessed.smi

> <i_m_source_file_index>
247

> <i_lp_mmshare_version>
43012

> <i_f3d_flags>
0

> <s_epik_input>
W0NIMl0xW0NIMl1PW0NIMl1bQ0gyXUMxKFtDSDJdW09IXSlbQ0gyXW4oW2NIXW4yKWMoYzIzKW5bY0hdbmMzTjRbQ0gyXVtDSDJdW0NIMl1bQ0BIXTRbQ0BASF01W0NIMl1PW0NIMl1bQ0gyXVtDQEhdNVtPSF0=

> <s_epik_cmdline>
J2VwaWtfcHl0aG9uJywgJy1waCcsICc3LjAnLCAnLXRuJywgJzgnLCAnLW1hJywgJzIwMCcsICctbWV0YWxfYmluZGluZycsICctaW1hZScsICc8aW5maWxlLm1hZT4nLCAnLW9tYWUnLCAnPG91dGZpbGUubWFlPic=

> <r_lp_tautomer_probability>
1

> <r_epik_Ionization_Penalty>
0.00362597

> <r_epik_Ionization_Penalty_Charging>
0

> <r_epik_Ionization_Penalty_Neutral>
0.00362597

> <r_epik_State_Penalty>
0.00241433

> <r_epik_Charging_Adjusted_Penalty>
0.00241433

> <i_epik_Tot_Q>
0

> <i_epik_Tot_abs_Q>
0

> <r_epik_Metal_State_Penalty>
-0

> <b_epik_Metal_Only>
0

> <s_lp_Force_Field>
OPLS_2005

> <r_lp_Energy>
60.2507

> <b_lp_Chiralities_Consistent>
1

> <s_lp_Variant>
AV-unprocessed.smi:247-2

> <Gold.Version>
5.8.1

> <Gold.Id.Protein>
6NUR|6NUR_protein|mol2

> <Gold.PLP.Fitness>
45.2727

> <Gold.PLP.PLP>
-38.7891

> <Gold.PLP.part.hbond>
-3.8862

> <Gold.PLP.part.metal>
0.0000

> <Gold.PLP.part.buried>
-4.6647

> <Gold.PLP.part.nonpolar>
-30.8863

> <Gold.PLP.part.repulsive>
0.3331

> <Gold.PLP.ligand.clash>
0.0000

> <Gold.PLP.ligand.torsion>
1.2377

> <Gold.PLP.Chemscore.Hbond>
2.3731

> <Gold.PLP.Chemscore.CHOScore>
0.5079

> <Gold.PLP.Chemscore.Metal>
0.0000

> <Gold.Chemscore.Hbonds>
donor molecule, donor type, donor heavy atom, donor atom, acceptor molecule, acceptor atom, score
      L1  H     1    31       P1 10956  0.83
      L1  H    21    52       P1  7948  0.23
      P1  H 10752 10764       L1    21  1.00
      L1  C     6    36       P1 10747  0.68

> <Gold.PLP.Chemscore.Internal.Correction>
0.3160

> <Gold.Rescore>
     Score         DG    S(hbond)    S(metal)    S(lipo)     H(rot)  DE(clash)    DE(int)     intcor
      8.99     -12.08       1.77        0.00      76.43       3.23       0.06       3.03       ----

> <Gold.Chemscore.Fitness>
8.9905

> <Gold.Chemscore.DG>
-12.0793

> <Gold.Chemscore.ZeroCoef>
-5.4800

> <Gold.Chemscore.Hbond>
1.7724

> <Gold.Chemscore.Metal>
0.0000

> <Gold.Chemscore.Lipo>
76.4338

> <Gold.Chemscore.Internal_Hbond>
0.0000

> <Gold.Chemscore.DEClash>
0.0556

> <Gold.Chemscore.DEInternal>
3.0332

> <Gold.Chemscore.Rot>
3.2278

> <Gold.Chemscore.Internal.Correction>
   9.000000E+99

> <Gold.Chemscore.Hbonds>
donor molecule, donor type, donor heavy atom, donor atom, acceptor molecule, acceptor atom, score
      L1  H     1    31       P1 10956  0.81
      P1  H 10752 10764       L1    21  0.72

> <Gold.Chemscore.Hbond.Weighted>
-5.9198

> <Gold.Chemscore.Metal.Weighted>
-0.0000

> <Gold.Chemscore.Lipo.Weighted>
-8.9428

> <Gold.Chemscore.Internal_Hbond.Weighted>
0.0000

> <Gold.Chemscore.DEClash.Weighted>
0.0556

> <Gold.Chemscore.DEInternal.Weighted>
3.0332

> <Gold.Chemscore.Rot.Weighted>
8.2633

> <Gold.Chemscore.Internal.Correction.Weighted>
   9.000000E+99

> <Gold.Protein.RotatedTorsions>
[ 6907 6896 6895 6894 ] final -148.09 input  -60.11 | X-H torsion
[ 7974 7965 7964 7962 ] final   -8.45 input  175.53 | X-H torsion
[ 8008 7997 7996 7995 ] final   96.36 input   59.86 | X-H torsion
[ 10167 10162 10161 10158 ] final  -24.11 input  -65.29 | X-H torsion
[ 10718 10713 10712 10709 ] final -127.95 input   66.30 | X-H torsion
[ 10763 10752 10751 10750 ] final  -78.30 input  -60.55 | X-H torsion
[ 11005 11000 10999 10996 ] final -143.74 input  -57.11 | X-H torsion

> <Gold.Protein.ActiveResidues>
 VAL166  LYS551  ARG553  GLY616  TRP617  ASP618  TYR619  PRO620  LYS621  CYS622 
 ASP623  PHE694  ASN695  SER759  ASP760  ASP761  ALA762  ILE779  LEU786  VAL792 
 PHE793  MET794  SER795  GLU796  ALA797  LYS798  CYS799  TRP800  GLU811  SER814 

> <Gold.Protein.RotatedAtoms>
  151.1649  133.4821  159.2593 H   0  0  0  0  0  0  0  0  0  0  0  0  # atno 6907 bound_to 6896
  151.1415  135.0182  159.8638 H   0  0  0  0  0  0  0  0  0  0  0  0  # atno 6908 bound_to 6896
  152.5462  134.1542  159.8584 H   0  0  0  0  0  0  0  0  0  0  0  0  # atno 6909 bound_to 6896
  146.2280  140.2470  142.8346 H   0  0  0  0  0  0  0  0  0  0  0  0  # atno 7974 bound_to 7965
  156.0788  140.3273  155.7667 H   0  0  0  0  0  0  0  0  0  0  0  0  # atno 8008 bound_to 7997
  155.5187  140.0583  157.2928 H   0  0  0  0  0  0  0  0  0  0  0  0  # atno 8009 bound_to 7997
  154.4570  140.1948  156.0368 H   0  0  0  0  0  0  0  0  0  0  0  0  # atno 8010 bound_to 7997
  140.7288  143.4383  151.0696 H   0  0  0  0  0  0  0  0  0  0  0  0  # atno 10167 bound_to 10162
  156.1905  130.6792  151.0418 H   0  0  0  0  0  0  0  0  0  0  0  0  # atno 10718 bound_to 10713
  154.5241  135.5734  153.6705 H   0  0  0  0  0  0  0  0  0  0  0  0  # atno 10763 bound_to 10752
  152.9924  135.6189  154.2715 H   0  0  0  0  0  0  0  0  0  0  0  0  # atno 10764 bound_to 10752
  154.2638  135.2855  155.2747 H   0  0  0  0  0  0  0  0  0  0  0  0  # atno 10765 bound_to 10752
  140.8095  134.2762  157.4947 H   0  0  0  0  0  0  0  0  0  0  0  0  # atno 11005 bound_to 11000
  144.9441  140.8109  143.5612 LP  0  0  0  0  0  0  0  0  0  0  0  0  # atno 17320 bound_to 7965
  145.2424  139.2067  143.4985 LP  0  0  0  0  0  0  0  0  0  0  0  0  # atno 17321 bound_to 7965
  139.8047  143.8034  152.3166 LP  0  0  0  0  0  0  0  0  0  0  0  0  # atno 17342 bound_to 10162
  139.8063  144.7354  150.9757 LP  0  0  0  0  0  0  0  0  0  0  0  0  # atno 17343 bound_to 10162
  157.6926  131.0805  150.7063 LP  0  0  0  0  0  0  0  0  0  0  0  0  # atno 17370 bound_to 10713
  156.7120  130.4654  149.5545 LP  0  0  0  0  0  0  0  0  0  0  0  0  # atno 17371 bound_to 10713
  139.8715  134.9475  156.3968 LP  0  0  0  0  0  0  0  0  0  0  0  0  # atno 17394 bound_to 11000
  140.9213  133.7643  155.9910 LP  0  0  0  0  0  0  0  0  0  0  0  0  # atno 17395 bound_to 11000

$$$$
