AV-unprocessed.smi:2377|AV-procd|sdf|9447|dock8
  -GOLD-   2272013 73D 1   1.00000     0.00000
 Structure written by MMmdl.
 23 23  0  0  0  0  0  0  0  0  1 V2000
  150.9952  138.7547  154.5917 C   0  0  0  0  0  0  0  0  0  0  0  0
  150.7270  140.1675  154.8286 N   0  0  0  0  0  0  0  0  0  0  0  0
  151.3051  140.6621  156.0754 C   0  0  0  0  0  0  0  0  0  0  0  0
  150.5148  141.8605  156.6309 C   0  0  2  0  0  0  0  0  0  0  0  0
  150.2578  142.7631  155.5728 O   0  0  0  0  0  0  0  0  0  0  0  0
  151.2761  142.5360  157.7601 C   0  0  0  0  0  0  0  0  0  0  0  0
  151.6164  143.9052  157.7011 C   0  0  0  0  0  0  0  0  0  0  0  0
  152.3320  144.4759  158.7712 C   0  0  0  0  0  0  0  0  0  0  0  0
  152.6813  143.6520  159.8593 C   0  0  0  0  0  0  0  0  0  0  0  0
  152.3655  142.3410  159.9272 N   0  0  0  0  0  0  0  0  0  0  0  0
  151.6793  141.8016  158.8967 C   0  0  0  0  0  0  0  0  0  0  0  0
  150.5583  138.4337  153.6460 H   0  0  0  0  0  0  0  0  0  0  0  0
  150.5707  138.1365  155.3832 H   0  0  0  0  0  0  0  0  0  0  0  0
  152.0674  138.5610  154.5470 H   0  0  0  0  0  0  0  0  0  0  0  0
  149.7249  140.3283  154.8342 H   0  0  0  0  0  0  0  0  0  0  0  0
  151.2849  139.8587  156.8132 H   0  0  0  0  0  0  0  0  0  0  0  0
  152.3541  140.9279  155.9361 H   0  0  0  0  0  0  0  0  0  0  0  0
  149.5540  141.5171  157.0176 H   0  0  0  0  0  0  0  0  0  0  0  0
  149.5617  143.3451  155.8369 H   0  0  0  0  0  0  0  0  0  0  0  0
  151.3371  144.5089  156.8500 H   0  0  0  0  0  0  0  0  0  0  0  0
  152.6079  145.5201  158.7577 H   0  0  0  0  0  0  0  0  0  0  0  0
  153.2307  144.0566  160.6964 H   0  0  0  0  0  0  0  0  0  0  0  0
  151.4467  140.7504  158.9837 H   0  0  0  0  0  0  0  0  0  0  0  0
  1  2  1  0  0  0  0
  1 12  1  0  0  0  0
  1 13  1  0  0  0  0
  1 14  1  0  0  0  0
  2  3  1  0  0  0  0
  2 15  1  0  0  0  0
  3  4  1  0  0  0  0
  3 16  1  0  0  0  0
  3 17  1  0  0  0  0
  4  5  1  0  0  0  0
  4  6  1  0  0  0  0
  4 18  1  0  0  0  0
  5 19  1  0  0  0  0
  6 11  1  0  0  0  0
  6  7  2  0  0  0  0
  7  8  1  0  0  0  0
  7 20  1  0  0  0  0
  8  9  2  0  0  0  0
  8 21  1  0  0  0  0
  9 10  1  0  0  0  0
  9 22  1  0  0  0  0
 10 11  2  0  0  0  0
 11 23  1  0  0  0  0
M  END
> <s_m_source_file>
AV-unprocessed.smi

> <i_m_source_file_index>
2377

> <i_lp_mmshare_version>
43012

> <i_f3d_flags>
0

> <s_epik_input>
W0NIM11bTkhdW0NIMl1bQ0BIXShbT0hdKWMxW2NIXVtjSF1bY0hdbltjSF0x

> <s_epik_cmdline>
J2VwaWtfcHl0aG9uJywgJy1waCcsICc3LjAnLCAnLXRuJywgJzgnLCAnLW1hJywgJzIwMCcsICctbWV0YWxfYmluZGluZycsICctaW1hZScsICc8aW5maWxlLm1hZT4nLCAnLW9tYWUnLCAnPG91dGZpbGUubWFlPic=

> <r_epik_Ionization_Penalty>
2.4626

> <r_epik_Ionization_Penalty_Charging>
0

> <r_epik_Ionization_Penalty_Neutral>
2.4626

> <r_epik_State_Penalty>
2.6219

> <r_epik_Charging_Adjusted_Penalty>
2.6219

> <i_epik_Tot_Q>
0

> <i_epik_Tot_abs_Q>
0

> <r_epik_Metal_State_Penalty>
2.61964

> <b_epik_Metal_Only>
0

> <s_lp_Force_Field>
OPLS_2005

> <r_lp_Energy>
11.5551

> <b_lp_Chiralities_Consistent>
1

> <s_lp_Variant>
AV-unprocessed.smi:2377-3

> <Gold.Version>
5.8.1

> <Gold.Id.Protein>
6NUR|6NUR_protein|mol2

> <Gold.PLP.Fitness>
33.1150

> <Gold.PLP.PLP>
-27.6867

> <Gold.PLP.part.hbond>
-1.5183

> <Gold.PLP.part.metal>
0.0000

> <Gold.PLP.part.buried>
-2.6094

> <Gold.PLP.part.nonpolar>
-23.9713

> <Gold.PLP.part.repulsive>
0.0000

> <Gold.PLP.ligand.clash>
0.0000

> <Gold.PLP.ligand.torsion>
0.2518

> <Gold.PLP.Chemscore.Hbond>
1.9760

> <Gold.PLP.Chemscore.CHOScore>
0.0000

> <Gold.PLP.Chemscore.Metal>
0.0000

> <Gold.Chemscore.Hbonds>
donor molecule, donor type, donor heavy atom, donor atom, acceptor molecule, acceptor atom, score
      L1  H     5    19       P1  8028  0.93
      P1  H  7989  7998       L1     2  1.00

> <Gold.PLP.Chemscore.Internal.Correction>
0.0039

> <Gold.Rescore>
     Score         DG    S(hbond)    S(metal)    S(lipo)     H(rot)  DE(clash)    DE(int)     intcor
     12.27     -13.77       1.27        0.00      76.91       1.94       1.24       0.26       ----

> <Gold.Chemscore.Fitness>
12.2651

> <Gold.Chemscore.DG>
-13.7675

> <Gold.Chemscore.ZeroCoef>
-5.4800

> <Gold.Chemscore.Hbond>
1.2712

> <Gold.Chemscore.Metal>
0.0000

> <Gold.Chemscore.Lipo>
76.9122

> <Gold.Chemscore.Internal_Hbond>
0.0000

> <Gold.Chemscore.DEClash>
1.2439

> <Gold.Chemscore.DEInternal>
0.2586

> <Gold.Chemscore.Rot>
1.9363

> <Gold.Chemscore.Internal.Correction>
   9.000000E+99

> <Gold.Chemscore.Hbonds>
donor molecule, donor type, donor heavy atom, donor atom, acceptor molecule, acceptor atom, score
      L1  H     5    19       P1  8028  0.86
      P1  H  7989  7998       L1     2  0.16

> <Gold.Chemscore.Hbond.Weighted>
-4.2458

> <Gold.Chemscore.Metal.Weighted>
-0.0000

> <Gold.Chemscore.Lipo.Weighted>
-8.9987

> <Gold.Chemscore.Internal_Hbond.Weighted>
0.0000

> <Gold.Chemscore.DEClash.Weighted>
1.2439

> <Gold.Chemscore.DEInternal.Weighted>
0.2586

> <Gold.Chemscore.Rot.Weighted>
4.9570

> <Gold.Chemscore.Internal.Correction.Weighted>
   9.000000E+99

> <Gold.Protein.RotatedTorsions>
[ 6907 6896 6895 6894 ] final   26.69 input  -60.11 | X-H torsion
[ 7974 7965 7964 7962 ] final   66.83 input  175.53 | X-H torsion
[ 8008 7997 7996 7995 ] final -112.15 input   59.86 | X-H torsion
[ 10167 10162 10161 10158 ] final  112.00 input  -65.29 | X-H torsion
[ 10718 10713 10712 10709 ] final -123.12 input   66.30 | X-H torsion
[ 10763 10752 10751 10750 ] final  179.90 input  -60.55 | X-H torsion
[ 11005 11000 10999 10996 ] final -133.99 input  -57.11 | X-H torsion

> <Gold.Protein.ActiveResidues>
 VAL166  LYS551  ARG553  GLY616  TRP617  ASP618  TYR619  PRO620  LYS621  CYS622 
 ASP623  PHE694  ASN695  SER759  ASP760  ASP761  ALA762  ILE779  LEU786  VAL792 
 PHE793  MET794  SER795  GLU796  ALA797  LYS798  CYS799  TRP800  GLU811  SER814 

> <Gold.Protein.RotatedAtoms>
  151.9912  134.9978  160.0561 H   0  0  0  0  0  0  0  0  0  0  0  0  # atno 6907 bound_to 6896
  152.1607  133.4575  159.4867 H   0  0  0  0  0  0  0  0  0  0  0  0  # atno 6908 bound_to 6896
  150.6887  134.1993  159.4359 H   0  0  0  0  0  0  0  0  0  0  0  0  # atno 6909 bound_to 6896
  145.8219  139.3089  143.1038 H   0  0  0  0  0  0  0  0  0  0  0  0  # atno 7974 bound_to 7965
  155.0008  140.0394  157.2359 H   0  0  0  0  0  0  0  0  0  0  0  0  # atno 8008 bound_to 7997
  154.7545  140.2773  155.6242 H   0  0  0  0  0  0  0  0  0  0  0  0  # atno 8009 bound_to 7997
  156.2892  140.2640  156.2307 H   0  0  0  0  0  0  0  0  0  0  0  0  # atno 8010 bound_to 7997
  139.6569  144.7129  151.1940 H   0  0  0  0  0  0  0  0  0  0  0  0  # atno 10167 bound_to 10162
  156.1476  130.6511  150.9865 H   0  0  0  0  0  0  0  0  0  0  0  0  # atno 10718 bound_to 10713
  154.5267  135.2797  155.1216 H   0  0  0  0  0  0  0  0  0  0  0  0  # atno 10763 bound_to 10752
  154.2752  135.6296  153.5329 H   0  0  0  0  0  0  0  0  0  0  0  0  # atno 10764 bound_to 10752
  152.9948  135.5638  154.5769 H   0  0  0  0  0  0  0  0  0  0  0  0  # atno 10765 bound_to 10752
  140.9030  134.1665  157.4446 H   0  0  0  0  0  0  0  0  0  0  0  0  # atno 11005 bound_to 11000
  145.9666  140.8794  143.0184 LP  0  0  0  0  0  0  0  0  0  0  0  0  # atno 17320 bound_to 7965
  144.6747  140.1887  143.7399 LP  0  0  0  0  0  0  0  0  0  0  0  0  # atno 17321 bound_to 7965
  140.7563  143.6058  150.8654 LP  0  0  0  0  0  0  0  0  0  0  0  0  # atno 17342 bound_to 10162
  139.9712  143.6055  152.2973 LP  0  0  0  0  0  0  0  0  0  0  0  0  # atno 17343 bound_to 10162
  157.6629  131.0877  150.7795 LP  0  0  0  0  0  0  0  0  0  0  0  0  # atno 17370 bound_to 10713
  156.7866  130.4876  149.5392 LP  0  0  0  0  0  0  0  0  0  0  0  0  # atno 17371 bound_to 10713
  139.8745  134.9906  156.5509 LP  0  0  0  0  0  0  0  0  0  0  0  0  # atno 17394 bound_to 11000
  140.8206  133.8357  155.8892 LP  0  0  0  0  0  0  0  0  0  0  0  0  # atno 17395 bound_to 11000

$$$$
