AV-unprocessed.smi:3278|AV-procd|sdf|12542|dock6
  -GOLD-   2272018453D 1   1.00000     0.00000
 Structure written by MMmdl.
 39 40  0  0  0  0  0  0  0  0  2 V2000
  144.9021  143.9959  153.9480 C   0  0  0  0  0  0  0  0  0  0  0  0
  145.7538  142.9339  154.4390 N   0  0  0  0  0  0  0  0  0  0  0  0
  146.9653  142.5031  153.9442 C   0  0  0  0  0  0  0  0  0  0  0  0
  147.3967  141.4756  154.7380 C   0  0  0  0  0  0  0  0  0  0  0  0
  148.6629  140.6541  154.6149 C   0  0  1  0  0  0  0  0  0  0  0  0
  148.3153  139.1876  154.3037 C   0  0  0  0  0  0  0  0  0  0  0  0
  149.4752  141.0944  153.5423 O   0  0  0  0  0  0  0  0  0  0  0  0
  149.5119  140.7473  155.9010 C   0  0  0  0  0  0  0  0  0  0  0  0
  150.1120  142.0910  156.0667 N   0  3  0  0  0  0  0  0  0  0  0  0
  150.7321  142.3553  157.3835 C   0  0  1  0  0  0  0  0  0  0  0  0
  151.7194  141.2310  157.7684 C   0  0  0  0  0  0  0  0  0  0  0  0
  152.3532  141.4408  159.1536 C   0  0  0  0  0  0  0  0  0  0  0  0
  153.1604  142.7427  159.2394 C   0  0  0  0  0  0  0  0  0  0  0  0
  152.0973  144.1849  158.9684 S   0  0  0  0  0  0  0  0  0  0  0  0
  151.4336  143.7250  157.3445 C   0  0  0  0  0  0  0  0  0  0  0  0
  146.3570  141.3595  155.7079 C   0  0  0  0  0  0  0  0  0  0  0  0
  145.3767  142.2274  155.5230 N   0  0  0  0  0  0  0  0  0  0  0  0
  145.3422  144.4483  153.0588 H   0  0  0  0  0  0  0  0  0  0  0  0
  144.7876  144.7619  154.7157 H   0  0  0  0  0  0  0  0  0  0  0  0
  143.9207  143.5945  153.6926 H   0  0  0  0  0  0  0  0  0  0  0  0
  147.4171  142.9587  153.0750 H   0  0  0  0  0  0  0  0  0  0  0  0
  147.7133  138.7432  155.0969 H   0  0  0  0  0  0  0  0  0  0  0  0
  149.2132  138.5773  154.1976 H   0  0  0  0  0  0  0  0  0  0  0  0
  147.7484  139.1031  153.3755 H   0  0  0  0  0  0  0  0  0  0  0  0
  149.6103  140.3724  152.9471 H   0  0  0  0  0  0  0  0  0  0  0  0
  148.8859  140.5389  156.7699 H   0  0  0  0  0  0  0  0  0  0  0  0
  150.2930  139.9870  155.8877 H   0  0  0  0  0  0  0  0  0  0  0  0
  150.7997  142.2380  155.3416 H   0  0  0  0  0  0  0  0  0  0  0  0
  149.9355  142.4069  158.1278 H   0  0  0  0  0  0  0  0  0  0  0  0
  151.2112  140.2674  157.7717 H   0  0  0  0  0  0  0  0  0  0  0  0
  152.5063  141.1560  157.0165 H   0  0  0  0  0  0  0  0  0  0  0  0
  151.5769  141.4378  159.9200 H   0  0  0  0  0  0  0  0  0  0  0  0
  153.0077  140.5985  159.3800 H   0  0  0  0  0  0  0  0  0  0  0  0
  153.6303  142.8323  160.2190 H   0  0  0  0  0  0  0  0  0  0  0  0
  153.9608  142.7448  158.4986 H   0  0  0  0  0  0  0  0  0  0  0  0
  152.2481  143.7200  156.6188 H   0  0  0  0  0  0  0  0  0  0  0  0
  150.7348  144.5022  157.0331 H   0  0  0  0  0  0  0  0  0  0  0  0
  146.2834  140.6681  156.5345 H   0  0  0  0  0  0  0  0  0  0  0  0
  149.3682  142.7622  155.9371 H   0  0  0  0  0  0  0  0  0  0  0  0
  1  2  1  0  0  0  0
  1 18  1  0  0  0  0
  1 19  1  0  0  0  0
  1 20  1  0  0  0  0
  2 17  1  0  0  0  0
  2  3  1  0  0  0  0
  3  4  2  0  0  0  0
  3 21  1  0  0  0  0
  4  5  1  0  0  0  0
  4 16  1  0  0  0  0
  5  6  1  0  0  0  0
  5  7  1  0  0  0  0
  5  8  1  0  0  0  0
  6 22  1  0  0  0  0
  6 23  1  0  0  0  0
  6 24  1  0  0  0  0
  7 25  1  0  0  0  0
  8  9  1  0  0  0  0
  8 26  1  0  0  0  0
  8 27  1  0  0  0  0
  9 10  1  0  0  0  0
  9 28  1  0  0  0  0
  9 39  1  0  0  0  0
 10 15  1  0  0  0  0
 10 11  1  0  0  0  0
 10 29  1  0  0  0  0
 11 12  1  0  0  0  0
 11 30  1  0  0  0  0
 11 31  1  0  0  0  0
 12 13  1  0  0  0  0
 12 32  1  0  0  0  0
 12 33  1  0  0  0  0
 13 14  1  0  0  0  0
 13 34  1  0  0  0  0
 13 35  1  0  0  0  0
 14 15  1  0  0  0  0
 15 36  1  0  0  0  0
 15 37  1  0  0  0  0
 16 17  2  0  0  0  0
 16 38  1  0  0  0  0
M  CHG  1   9   1
M  END
> <s_m_source_file>
AV-unprocessed.smi

> <i_m_source_file_index>
3278

> <i_lp_mmshare_version>
43012

> <i_f3d_flags>
0

> <s_epik_input>
W0NIM11uMVtjSF1jKFtjSF1uMSlbQ0BAXShbQ0gzXSkoW09IXSlbQ0gyXVtOSF1bQ0BASF0yW0NIMl1bQ0gyXVtDSDJdU1tDSDJdMg==

> <s_epik_cmdline>
J2VwaWtfcHl0aG9uJywgJy1waCcsICc3LjAnLCAnLXRuJywgJzgnLCAnLW1hJywgJzIwMCcsICctbWV0YWxfYmluZGluZycsICctaW1hZScsICc8aW5maWxlLm1hZT4nLCAnLW9tYWUnLCAnPG91dGZpbGUubWFlPic=

> <r_lp_tautomer_probability>
1

> <r_epik_Ionization_Penalty>
0.0185703

> <r_epik_Ionization_Penalty_Charging>
0.0185619

> <r_epik_Ionization_Penalty_Neutral>
8.47286e-06

> <r_epik_State_Penalty>
0.0147768

> <r_epik_Charging_Adjusted_Penalty>
0.0333386

> <i_epik_Tot_Q>
1

> <i_epik_Tot_abs_Q>
1

> <r_epik_Metal_State_Penalty>
0.0147782

> <b_epik_Metal_Only>
0

> <s_lp_Force_Field>
OPLS_2005

> <r_lp_Energy>
8.69556

> <b_lp_Chiralities_Consistent>
1

> <s_lp_Variant>
AV-unprocessed.smi:3278-3

> <Gold.Version>
5.8.1

> <Gold.Id.Protein>
6NUR|6NUR_protein|mol2

> <Gold.PLP.Fitness>
50.5654

> <Gold.PLP.PLP>
-39.7650

> <Gold.PLP.part.hbond>
-4.0000

> <Gold.PLP.part.metal>
0.0000

> <Gold.PLP.part.buried>
-5.6991

> <Gold.PLP.part.nonpolar>
-31.2651

> <Gold.PLP.part.repulsive>
0.2736

> <Gold.PLP.ligand.clash>
0.0000

> <Gold.PLP.ligand.torsion>
0.1676

> <Gold.PLP.Chemscore.Hbond>
3.7040

> <Gold.PLP.Chemscore.CHOScore>
0.0000

> <Gold.PLP.Chemscore.Metal>
0.0000

> <Gold.Chemscore.Hbonds>
donor molecule, donor type, donor heavy atom, donor atom, acceptor molecule, acceptor atom, score
      L1  H     7    25       P1  7957  0.78
      L1  H     9    39       P1  8028  1.84
      P1  H  8011  8017       L1     7  0.80

> <Gold.PLP.Chemscore.Internal.Correction>
0.0237

> <Gold.Rescore>
     Score         DG    S(hbond)    S(metal)    S(lipo)     H(rot)  DE(clash)    DE(int)     intcor
     17.92     -18.55       1.90        0.00     101.36       2.00       0.50       0.14       ----

> <Gold.Chemscore.Fitness>
17.9150

> <Gold.Chemscore.DG>
-18.5532

> <Gold.Chemscore.ZeroCoef>
-5.4800

> <Gold.Chemscore.Hbond>
1.8993

> <Gold.Chemscore.Metal>
0.0000

> <Gold.Chemscore.Lipo>
101.3612

> <Gold.Chemscore.Internal_Hbond>
0.0000

> <Gold.Chemscore.DEClash>
0.5010

> <Gold.Chemscore.DEInternal>
0.1372

> <Gold.Chemscore.Rot>
2.0038

> <Gold.Chemscore.Internal.Correction>
   9.000000E+99

> <Gold.Chemscore.Hbonds>
donor molecule, donor type, donor heavy atom, donor atom, acceptor molecule, acceptor atom, score
      L1  H     7    25       P1  7957  0.78
      L1  H     9    39       P1  8028  0.83
      P1  H  8011  8017       L1     7  0.11

> <Gold.Chemscore.Hbond.Weighted>
-6.3436

> <Gold.Chemscore.Metal.Weighted>
-0.0000

> <Gold.Chemscore.Lipo.Weighted>
-11.8593

> <Gold.Chemscore.Internal_Hbond.Weighted>
0.0000

> <Gold.Chemscore.DEClash.Weighted>
0.5010

> <Gold.Chemscore.DEInternal.Weighted>
0.1372

> <Gold.Chemscore.Rot.Weighted>
5.1296

> <Gold.Chemscore.Internal.Correction.Weighted>
   9.000000E+99

> <Gold.Protein.RotatedTorsions>
[ 6907 6896 6895 6894 ] final  -40.08 input  -60.11 | X-H torsion
[ 7974 7965 7964 7962 ] final   92.18 input  175.53 | X-H torsion
[ 8008 7997 7996 7995 ] final  -73.01 input   59.86 | X-H torsion
[ 10167 10162 10161 10158 ] final  106.81 input  -65.29 | X-H torsion
[ 10718 10713 10712 10709 ] final  179.97 input   66.30 | X-H torsion
[ 10763 10752 10751 10750 ] final  123.04 input  -60.55 | X-H torsion
[ 11005 11000 10999 10996 ] final  178.62 input  -57.11 | X-H torsion

> <Gold.Protein.ActiveResidues>
 VAL166  LYS551  ARG553  GLY616  TRP617  ASP618  TYR619  PRO620  LYS621  CYS622 
 ASP623  PHE694  ASN695  SER759  ASP760  ASP761  ALA762  ILE779  LEU786  VAL792 
 PHE793  MET794  SER795  GLU796  ALA797  LYS798  CYS799  TRP800  GLU811  SER814 

> <Gold.Protein.RotatedAtoms>
  150.9826  134.9178  159.7852 H   0  0  0  0  0  0  0  0  0  0  0  0  # atno 6907 bound_to 6896
  152.5226  134.3389  159.9220 H   0  0  0  0  0  0  0  0  0  0  0  0  # atno 6908 bound_to 6896
  151.3396  133.3926  159.2704 H   0  0  0  0  0  0  0  0  0  0  0  0  # atno 6909 bound_to 6896
  145.4957  139.2276  143.2805 H   0  0  0  0  0  0  0  0  0  0  0  0  # atno 7974 bound_to 7965
  154.5212  140.0787  156.8176 H   0  0  0  0  0  0  0  0  0  0  0  0  # atno 8008 bound_to 7997
  155.3571  140.3416  155.4222 H   0  0  0  0  0  0  0  0  0  0  0  0  # atno 8009 bound_to 7997
  156.1683  140.1611  156.8479 H   0  0  0  0  0  0  0  0  0  0  0  0  # atno 8010 bound_to 7997
  139.6978  144.7099  151.1236 H   0  0  0  0  0  0  0  0  0  0  0  0  # atno 10167 bound_to 10162
  156.8678  130.9773  151.3076 H   0  0  0  0  0  0  0  0  0  0  0  0  # atno 10718 bound_to 10713
  153.6393  135.3382  155.3066 H   0  0  0  0  0  0  0  0  0  0  0  0  # atno 10763 bound_to 10752
  154.8563  135.4314  154.2022 H   0  0  0  0  0  0  0  0  0  0  0  0  # atno 10764 bound_to 10752
  153.2937  135.7019  153.7343 H   0  0  0  0  0  0  0  0  0  0  0  0  # atno 10765 bound_to 10752
  140.3971  134.6810  157.4541 H   0  0  0  0  0  0  0  0  0  0  0  0  # atno 11005 bound_to 11000
  146.2257  140.5754  142.8997 LP  0  0  0  0  0  0  0  0  0  0  0  0  # atno 17320 bound_to 7965
  144.7808  140.5837  143.6606 LP  0  0  0  0  0  0  0  0  0  0  0  0  # atno 17321 bound_to 7965
  140.7701  143.5466  150.9252 LP  0  0  0  0  0  0  0  0  0  0  0  0  # atno 17342 bound_to 10162
  139.9147  143.6678  152.3108 LP  0  0  0  0  0  0  0  0  0  0  0  0  # atno 17343 bound_to 10162
  157.6213  130.8657  149.9114 LP  0  0  0  0  0  0  0  0  0  0  0  0  # atno 17370 bound_to 10713
  156.0742  130.3681  150.0712 LP  0  0  0  0  0  0  0  0  0  0  0  0  # atno 17371 bound_to 10713
  140.0363  134.6332  155.9038 LP  0  0  0  0  0  0  0  0  0  0  0  0  # atno 17394 bound_to 11000
  141.1870  133.6559  156.5263 LP  0  0  0  0  0  0  0  0  0  0  0  0  # atno 17395 bound_to 11000

$$$$
