AV-unprocessed.smi:2668|AV-procd|sdf|10339|dock8
  -GOLD-   2272014363D 1   1.00000     0.00000
 Structure written by MMmdl.
 54 55  0  0  0  0  0  0  0  0  3 V2000
  144.5166  144.5426  157.8857 C   0  0  0  0  0  0  0  0  0  0  0  0
  144.2761  143.0963  157.6538 N   0  3  0  0  0  0  0  0  0  0  0  0
  143.5737  142.5025  158.8187 C   0  0  0  0  0  0  0  0  0  0  0  0
  143.6184  142.7983  156.3389 C   0  0  2  0  0  0  0  0  0  0  0  0
  143.2949  141.3013  156.1377 C   0  0  0  0  0  0  0  0  0  0  0  0
  144.5655  140.4462  155.9730 C   0  0  0  0  0  0  0  0  0  0  0  0
  145.3997  140.9166  154.8254 N   0  3  2  0  0  0  0  0  0  0  0  0
  146.5668  140.0316  154.4592 C   0  0  0  0  0  0  0  0  0  0  0  0
  146.0987  138.6229  154.0246 C   0  0  0  0  0  0  0  0  0  0  0  0
  147.3683  140.6415  153.2822 C   0  0  0  0  0  0  0  0  0  0  0  0
  147.5471  139.8733  155.6610 C   0  0  0  0  0  0  0  0  0  0  0  0
  148.4122  141.0341  155.8791 N   0  0  0  0  0  0  0  0  0  0  0  0
  149.3645  141.1314  156.8179 C   0  0  0  0  0  0  0  0  0  0  0  0
  149.6413  140.2225  157.5991 O   0  0  0  0  0  0  0  0  0  0  0  0
  149.9478  142.3420  156.7942 N   0  0  0  0  0  0  0  0  0  0  0  0
  151.0055  142.8277  157.6096 C   0  0  0  0  0  0  0  0  0  0  0  0
  151.6749  141.9070  158.4424 C   0  0  0  0  0  0  0  0  0  0  0  0
  152.7148  142.3634  159.2743 C   0  0  0  0  0  0  0  0  0  0  0  0
  153.0412  143.7331  159.2476 C   0  0  0  0  0  0  0  0  0  0  0  0
  152.4012  144.6307  158.4691 N   0  0  0  0  0  0  0  0  0  0  0  0
  151.4063  144.1859  157.6716 C   0  0  0  0  0  0  0  0  0  0  0  0
  145.7310  142.3662  154.9704 C   0  0  0  0  0  0  0  0  0  0  0  0
  144.4615  143.2238  155.1164 C   0  0  0  0  0  0  0  0  0  0  0  0
  143.5925  145.1145  157.7918 H   0  0  0  0  0  0  0  0  0  0  0  0
  145.2504  144.9470  157.1901 H   0  0  0  0  0  0  0  0  0  0  0  0
  144.9195  144.7176  158.8840 H   0  0  0  0  0  0  0  0  0  0  0  0
  142.5291  142.8153  158.8484 H   0  0  0  0  0  0  0  0  0  0  0  0
  144.0422  142.8073  159.7552 H   0  0  0  0  0  0  0  0  0  0  0  0
  143.6123  141.4144  158.8031 H   0  0  0  0  0  0  0  0  0  0  0  0
  142.6809  143.3563  156.3169 H   0  0  0  0  0  0  0  0  0  0  0  0
  142.6684  140.9062  156.9358 H   0  0  0  0  0  0  0  0  0  0  0  0
  142.6893  141.1925  155.2366 H   0  0  0  0  0  0  0  0  0  0  0  0
  145.1479  140.4634  156.8942 H   0  0  0  0  0  0  0  0  0  0  0  0
  144.2354  139.4197  155.8265 H   0  0  0  0  0  0  0  0  0  0  0  0
  146.9493  138.0053  153.7333 H   0  0  0  0  0  0  0  0  0  0  0  0
  145.4265  138.6588  153.1674 H   0  0  0  0  0  0  0  0  0  0  0  0
  145.5868  138.0897  154.8254 H   0  0  0  0  0  0  0  0  0  0  0  0
  148.3160  140.1215  153.1366 H   0  0  0  0  0  0  0  0  0  0  0  0
  147.5981  141.6943  153.4490 H   0  0  0  0  0  0  0  0  0  0  0  0
  146.8369  140.5630  152.3337 H   0  0  0  0  0  0  0  0  0  0  0  0
  146.9947  139.7098  156.5862 H   0  0  0  0  0  0  0  0  0  0  0  0
  148.1488  138.9695  155.5472 H   0  0  0  0  0  0  0  0  0  0  0  0
  148.2430  141.8421  155.2979 H   0  0  0  0  0  0  0  0  0  0  0  0
  149.5512  143.0164  156.1564 H   0  0  0  0  0  0  0  0  0  0  0  0
  151.4004  140.8622  158.4427 H   0  0  0  0  0  0  0  0  0  0  0  0
  153.2495  141.6804  159.9177 H   0  0  0  0  0  0  0  0  0  0  0  0
  153.8332  144.1186  159.8724 H   0  0  0  0  0  0  0  0  0  0  0  0
  150.9175  144.9542  157.0933 H   0  0  0  0  0  0  0  0  0  0  0  0
  146.3762  142.5205  155.8353 H   0  0  0  0  0  0  0  0  0  0  0  0
  146.2763  142.7335  154.1036 H   0  0  0  0  0  0  0  0  0  0  0  0
  143.8593  143.1072  154.2139 H   0  0  0  0  0  0  0  0  0  0  0  0
  144.7146  144.2826  155.1416 H   0  0  0  0  0  0  0  0  0  0  0  0
  145.1887  142.6644  157.6311 H   0  0  0  0  0  0  0  0  0  0  0  0
  144.7885  140.8620  154.0228 H   0  0  0  0  0  0  0  0  0  0  0  0
  1  2  1  0  0  0  0
  1 24  1  0  0  0  0
  1 25  1  0  0  0  0
  1 26  1  0  0  0  0
  2  3  1  0  0  0  0
  2  4  1  0  0  0  0
  2 53  1  0  0  0  0
  3 27  1  0  0  0  0
  3 28  1  0  0  0  0
  3 29  1  0  0  0  0
  4 23  1  0  0  0  0
  4  5  1  0  0  0  0
  4 30  1  0  0  0  0
  5  6  1  0  0  0  0
  5 31  1  0  0  0  0
  5 32  1  0  0  0  0
  6  7  1  0  0  0  0
  6 33  1  0  0  0  0
  6 34  1  0  0  0  0
  7  8  1  0  0  0  0
  7 22  1  0  0  0  0
  7 54  1  0  0  0  0
  8  9  1  0  0  0  0
  8 10  1  0  0  0  0
  8 11  1  0  0  0  0
  9 35  1  0  0  0  0
  9 36  1  0  0  0  0
  9 37  1  0  0  0  0
 10 38  1  0  0  0  0
 10 39  1  0  0  0  0
 10 40  1  0  0  0  0
 11 12  1  0  0  0  0
 11 41  1  0  0  0  0
 11 42  1  0  0  0  0
 12 13  1  0  0  0  0
 12 43  1  0  0  0  0
 13 14  2  0  0  0  0
 13 15  1  0  0  0  0
 15 16  1  0  0  0  0
 15 44  1  0  0  0  0
 16 21  1  0  0  0  0
 16 17  2  0  0  0  0
 17 18  1  0  0  0  0
 17 45  1  0  0  0  0
 18 19  2  0  0  0  0
 18 46  1  0  0  0  0
 19 20  1  0  0  0  0
 19 47  1  0  0  0  0
 20 21  2  0  0  0  0
 21 48  1  0  0  0  0
 22 23  1  0  0  0  0
 22 49  1  0  0  0  0
 22 50  1  0  0  0  0
 23 51  1  0  0  0  0
 23 52  1  0  0  0  0
M  CHG  1   2   1
M  CHG  1   7   1
M  END
> <s_m_source_file>
AV-unprocessed.smi

> <i_m_source_file_index>
2668

> <i_lp_mmshare_version>
43012

> <i_f3d_flags>
0

> <s_epik_input>
W0NIM11OKFtDSDNdKVtDSF0xW0NIMl1bQ0gyXU4oW0NIMl1bQ0gyXTEpQyhbQ0gzXSkoW0NIM10pW0NIMl1bTkhdQyg9TylbTkhdYzJbY0hdW2NIXVtjSF1uW2NIXTI=

> <s_epik_cmdline>
J2VwaWtfcHl0aG9uJywgJy1waCcsICc3LjAnLCAnLXRuJywgJzgnLCAnLW1hJywgJzIwMCcsICctbWV0YWxfYmluZGluZycsICctaW1hZScsICc8aW5maWxlLm1hZT4nLCAnLW9tYWUnLCAnPG91dGZpbGUubWFlPic=

> <r_epik_Ionization_Penalty>
0.210461

> <r_epik_Ionization_Penalty_Charging>
0.206231

> <r_epik_Ionization_Penalty_Neutral>
0.00422959

> <r_epik_State_Penalty>
0.176025

> <r_epik_Charging_Adjusted_Penalty>
0.382256

> <i_epik_Tot_Q>
2

> <i_epik_Tot_abs_Q>
2

> <r_epik_Metal_State_Penalty>
0.176152

> <b_epik_Metal_Only>
0

> <s_lp_Force_Field>
OPLS_2005

> <r_lp_Energy>
56.664

> <b_lp_Chiralities_Consistent>
1

> <s_lp_Variant>
AV-unprocessed.smi:2668-2

> <Gold.Version>
5.8.1

> <Gold.Id.Protein>
6NUR|6NUR_protein|mol2

> <Gold.PLP.Fitness>
43.3877

> <Gold.PLP.PLP>
-32.2563

> <Gold.PLP.part.hbond>
-2.0000

> <Gold.PLP.part.metal>
0.0000

> <Gold.PLP.part.buried>
-5.4981

> <Gold.PLP.part.nonpolar>
-26.8468

> <Gold.PLP.part.repulsive>
0.0863

> <Gold.PLP.ligand.clash>
0.0000

> <Gold.PLP.ligand.torsion>
0.4181

> <Gold.PLP.Chemscore.Hbond>
3.0000

> <Gold.PLP.Chemscore.CHOScore>
0.9408

> <Gold.PLP.Chemscore.Metal>
0.0000

> <Gold.Chemscore.Hbonds>
donor molecule, donor type, donor heavy atom, donor atom, acceptor molecule, acceptor atom, score
      L1  H     7    54       P1 10175  2.00
      L1  H    15    44       P1  8028  1.00
      L1  C    21    48       P1  8028  0.98

> <Gold.PLP.Chemscore.Internal.Correction>
0.1451

> <Gold.Rescore>
     Score         DG    S(hbond)    S(metal)    S(lipo)     H(rot)  DE(clash)    DE(int)     intcor
     15.90     -17.81       1.95        0.00      86.62       1.69       0.04       1.86       ----

> <Gold.Chemscore.Fitness>
15.8999

> <Gold.Chemscore.DG>
-17.8054

> <Gold.Chemscore.ZeroCoef>
-5.4800

> <Gold.Chemscore.Hbond>
1.9496

> <Gold.Chemscore.Metal>
0.0000

> <Gold.Chemscore.Lipo>
86.6184

> <Gold.Chemscore.Internal_Hbond>
0.0000

> <Gold.Chemscore.DEClash>
0.0436

> <Gold.Chemscore.DEInternal>
1.8619

> <Gold.Chemscore.Rot>
1.6877

> <Gold.Chemscore.Internal.Correction>
   9.000000E+99

> <Gold.Chemscore.Hbonds>
donor molecule, donor type, donor heavy atom, donor atom, acceptor molecule, acceptor atom, score
      L1  H     7    54       P1 10175  0.94
      L1  H    15    44       P1  8028  0.98

> <Gold.Chemscore.Hbond.Weighted>
-6.5115

> <Gold.Chemscore.Metal.Weighted>
-0.0000

> <Gold.Chemscore.Lipo.Weighted>
-10.1344

> <Gold.Chemscore.Internal_Hbond.Weighted>
0.0000

> <Gold.Chemscore.DEClash.Weighted>
0.0436

> <Gold.Chemscore.DEInternal.Weighted>
1.8619

> <Gold.Chemscore.Rot.Weighted>
4.3205

> <Gold.Chemscore.Internal.Correction.Weighted>
   9.000000E+99

> <Gold.Protein.RotatedTorsions>
[ 6907 6896 6895 6894 ] final  -35.17 input  -60.11 | X-H torsion
[ 7974 7965 7964 7962 ] final  146.72 input  175.53 | X-H torsion
[ 8008 7997 7996 7995 ] final -175.96 input   59.86 | X-H torsion
[ 10167 10162 10161 10158 ] final -158.35 input  -65.29 | X-H torsion
[ 10718 10713 10712 10709 ] final  139.45 input   66.30 | X-H torsion
[ 10763 10752 10751 10750 ] final   21.14 input  -60.55 | X-H torsion
[ 11005 11000 10999 10996 ] final   79.29 input  -57.11 | X-H torsion

> <Gold.Protein.ActiveResidues>
 VAL166  LYS551  ARG553  GLY616  TRP617  ASP618  TYR619  PRO620  LYS621  CYS622 
 ASP623  PHE694  ASN695  SER759  ASP760  ASP761  ALA762  ILE779  LEU786  VAL792 
 PHE793  MET794  SER795  GLU796  ALA797  LYS798  CYS799  TRP800  GLU811  SER814 

> <Gold.Protein.RotatedAtoms>
  151.0433  134.9622  159.8172 H   0  0  0  0  0  0  0  0  0  0  0  0  # atno 6907 bound_to 6896
  152.5368  134.2631  159.8953 H   0  0  0  0  0  0  0  0  0  0  0  0  # atno 6908 bound_to 6896
  151.2644  133.4243  159.2651 H   0  0  0  0  0  0  0  0  0  0  0  0  # atno 6909 bound_to 6896
  144.8649  139.5939  143.5914 H   0  0  0  0  0  0  0  0  0  0  0  0  # atno 7974 bound_to 7965
  155.9890  140.1197  157.0656 H   0  0  0  0  0  0  0  0  0  0  0  0  # atno 8008 bound_to 7997
  154.4205  140.1129  156.5607 H   0  0  0  0  0  0  0  0  0  0  0  0  # atno 8009 bound_to 7997
  155.6369  140.3473  155.4704 H   0  0  0  0  0  0  0  0  0  0  0  0  # atno 8010 bound_to 7997
  139.6699  143.9764  152.2277 H   0  0  0  0  0  0  0  0  0  0  0  0  # atno 10167 bound_to 10162
  157.4142  131.1031  151.0422 H   0  0  0  0  0  0  0  0  0  0  0  0  # atno 10718 bound_to 10713
  153.1019  135.6675  153.9657 H   0  0  0  0  0  0  0  0  0  0  0  0  # atno 10763 bound_to 10752
  153.9225  135.3013  155.3449 H   0  0  0  0  0  0  0  0  0  0  0  0  # atno 10764 bound_to 10752
  154.7440  135.5066  153.9247 H   0  0  0  0  0  0  0  0  0  0  0  0  # atno 10765 bound_to 10752
  139.9178  134.7831  156.1759 H   0  0  0  0  0  0  0  0  0  0  0  0  # atno 11005 bound_to 11000
  146.2888  139.7079  142.9176 LP  0  0  0  0  0  0  0  0  0  0  0  0  # atno 17320 bound_to 7965
  145.4241  141.0409  143.2947 LP  0  0  0  0  0  0  0  0  0  0  0  0  # atno 17321 bound_to 7965
  139.9525  144.6611  150.8157 LP  0  0  0  0  0  0  0  0  0  0  0  0  # atno 17342 bound_to 10162
  140.7614  143.3173  151.2704 LP  0  0  0  0  0  0  0  0  0  0  0  0  # atno 17343 bound_to 10162
  157.1376  130.6129  149.5546 LP  0  0  0  0  0  0  0  0  0  0  0  0  # atno 17370 bound_to 10713
  155.9860  130.4892  150.7058 LP  0  0  0  0  0  0  0  0  0  0  0  0  # atno 17371 bound_to 10713
  141.0672  133.6814  156.2067 LP  0  0  0  0  0  0  0  0  0  0  0  0  # atno 17394 bound_to 11000
  140.6566  134.5011  157.5581 LP  0  0  0  0  0  0  0  0  0  0  0  0  # atno 17395 bound_to 11000

$$$$
