AV-unprocessed.smi:1866|AV-procd|sdf|7559|dock6
  -GOLD-   22720 9273D 1   1.00000     0.00000
 Structure written by MMmdl.
 29 30  0  0  0  0  0  0  0  0  2 V2000
  152.6370  143.8133  162.3462 C   0  0  0  0  0  0  0  0  0  0  0  0
  152.1279  143.9558  160.9529 C   0  0  0  0  0  0  0  0  0  0  0  0
  151.6393  145.1033  160.4767 N   0  0  0  0  0  0  0  0  0  0  0  0
  151.2294  144.9888  159.1561 N   0  0  0  0  0  0  0  0  0  0  0  0
  151.4215  143.7624  158.6502 C   0  0  0  0  0  0  0  0  0  0  0  0
  151.0872  143.4430  157.3890 N   0  5  0  0  0  0  0  0  0  0  0  0
  150.7521  142.1694  157.0804 C   0  0  0  0  0  0  0  0  0  0  0  0
  151.4116  141.1589  157.3338 O   0  0  0  0  0  0  0  0  0  0  0  0
  149.5756  142.0625  156.4443 N   0  0  0  0  0  0  0  0  0  0  0  0
  148.9452  140.8306  155.9662 C   0  0  1  0  0  0  0  0  0  0  0  0
  147.4126  141.0113  156.0310 C   0  0  0  0  0  0  0  0  0  0  0  0
  146.8835  141.9017  154.9024 C   0  0  0  0  0  0  0  0  0  0  0  0
  147.2330  141.2822  153.5441 C   0  0  0  0  0  0  0  0  0  0  0  0
  148.6090  140.7949  153.4822 N   0  0  0  0  0  0  0  0  0  0  0  0
  149.4192  140.5319  154.5242 C   0  0  0  0  0  0  0  0  0  0  0  0
  150.5369  140.0530  154.3437 O   0  0  0  0  0  0  0  0  0  0  0  0
  152.1211  142.6277  159.8049 S   0  0  0  0  0  0  0  0  0  0  0  0
  153.6299  144.2560  162.4267 H   0  0  0  0  0  0  0  0  0  0  0  0
  152.6990  142.7603  162.6213 H   0  0  0  0  0  0  0  0  0  0  0  0
  151.9691  144.3170  163.0454 H   0  0  0  0  0  0  0  0  0  0  0  0
  149.0778  142.9211  156.2614 H   0  0  0  0  0  0  0  0  0  0  0  0
  149.2284  139.9995  156.6145 H   0  0  0  0  0  0  0  0  0  0  0  0
  146.9329  140.0337  155.9671 H   0  0  0  0  0  0  0  0  0  0  0  0
  147.1227  141.4227  156.9989 H   0  0  0  0  0  0  0  0  0  0  0  0
  145.8044  142.0301  154.9901 H   0  0  0  0  0  0  0  0  0  0  0  0
  147.3220  142.8974  154.9801 H   0  0  0  0  0  0  0  0  0  0  0  0
  146.5732  140.4373  153.3444 H   0  0  0  0  0  0  0  0  0  0  0  0
  147.0700  142.0046  152.7442 H   0  0  0  0  0  0  0  0  0  0  0  0
  148.9726  140.6008  152.5605 H   0  0  0  0  0  0  0  0  0  0  0  0
  1  2  1  0  0  0  0
  1 18  1  0  0  0  0
  1 19  1  0  0  0  0
  1 20  1  0  0  0  0
  2 17  1  0  0  0  0
  2  3  2  0  0  0  0
  3  4  1  0  0  0  0
  4  5  2  0  0  0  0
  5  6  1  0  0  0  0
  5 17  1  0  0  0  0
  6  7  1  0  0  0  0
  7  8  2  0  0  0  0
  7  9  1  0  0  0  0
  9 10  1  0  0  0  0
  9 21  1  0  0  0  0
 10 15  1  0  0  0  0
 10 11  1  0  0  0  0
 10 22  1  0  0  0  0
 11 12  1  0  0  0  0
 11 23  1  0  0  0  0
 11 24  1  0  0  0  0
 12 13  1  0  0  0  0
 12 25  1  0  0  0  0
 12 26  1  0  0  0  0
 13 14  1  0  0  0  0
 13 27  1  0  0  0  0
 13 28  1  0  0  0  0
 14 15  1  0  0  0  0
 14 29  1  0  0  0  0
 15 16  2  0  0  0  0
M  CHG  1   6  -1
M  END
> <s_m_source_file>
AV-unprocessed.smi

> <i_m_source_file_index>
1866

> <i_lp_mmshare_version>
43012

> <i_f3d_flags>
0

> <s_epik_input>
W0NIM11jMW5uYyhzMSlbTkhdQyg9TylbTkhdW0NAQEhdMltDSDJdW0NIMl1bQ0gyXVtOSF1DMj1P

> <s_epik_cmdline>
J2VwaWtfcHl0aG9uJywgJy1waCcsICc3LjAnLCAnLXRuJywgJzgnLCAnLW1hJywgJzIwMCcsICctbWV0YWxfYmluZGluZycsICctaW1hZScsICc8aW5maWxlLm1hZT4nLCAnLW9tYWUnLCAnPG91dGZpbGUubWFlPic=

> <r_lp_tautomer_probability>
1

> <r_epik_Ionization_Penalty>
3.97471

> <r_epik_Ionization_Penalty_Charging>
3.84029

> <r_epik_Ionization_Penalty_Neutral>
0.134427

> <r_epik_State_Penalty>
3.83938

> <r_epik_Charging_Adjusted_Penalty>
7.67966

> <i_epik_Tot_Q>
-1

> <i_epik_Tot_abs_Q>
1

> <r_epik_Metal_State_Penalty>
0.577306

> <b_epik_Metal_Only>
1

> <s_lp_Force_Field>
OPLS_2005

> <r_lp_Energy>
8.91558

> <b_lp_Chiralities_Consistent>
1

> <s_lp_Variant>
AV-unprocessed.smi:1866-4

> <Gold.Version>
5.8.1

> <Gold.Id.Protein>
6NUR|6NUR_protein|mol2

> <Gold.PLP.Fitness>
39.8793

> <Gold.PLP.PLP>
-32.8893

> <Gold.PLP.part.hbond>
-3.0000

> <Gold.PLP.part.metal>
0.0000

> <Gold.PLP.part.buried>
-7.8871

> <Gold.PLP.part.nonpolar>
-22.4361

> <Gold.PLP.part.repulsive>
0.7579

> <Gold.PLP.ligand.clash>
0.0000

> <Gold.PLP.ligand.torsion>
1.0071

> <Gold.PLP.Chemscore.Hbond>
3.0000

> <Gold.PLP.Chemscore.CHOScore>
0.0000

> <Gold.PLP.Chemscore.Metal>
0.0000

> <Gold.Chemscore.Hbonds>
donor molecule, donor type, donor heavy atom, donor atom, acceptor molecule, acceptor atom, score
      L1  H     9    21       P1  8028  1.00
      L1  H    14    29       P1  7957  1.00
      P1  H  7989  7998       L1    16  1.00

> <Gold.PLP.Chemscore.Internal.Correction>
0.0042

> <Gold.Rescore>
     Score         DG    S(hbond)    S(metal)    S(lipo)     H(rot)  DE(clash)    DE(int)     intcor
     17.09     -19.22       2.97        0.00      54.64       1.00       0.19       1.93       ----

> <Gold.Chemscore.Fitness>
17.0922

> <Gold.Chemscore.DG>
-19.2215

> <Gold.Chemscore.ZeroCoef>
-5.4800

> <Gold.Chemscore.Hbond>
2.9666

> <Gold.Chemscore.Metal>
0.0000

> <Gold.Chemscore.Lipo>
54.6423

> <Gold.Chemscore.Internal_Hbond>
0.0000

> <Gold.Chemscore.DEClash>
0.1949

> <Gold.Chemscore.DEInternal>
1.9343

> <Gold.Chemscore.Rot>
1.0000

> <Gold.Chemscore.Internal.Correction>
   9.000000E+99

> <Gold.Chemscore.Hbonds>
donor molecule, donor type, donor heavy atom, donor atom, acceptor molecule, acceptor atom, score
      L1  H     9    21       P1  8028  0.98
      L1  H    14    29       P1  7957  0.99
      P1  H  7989  7998       L1    16  0.96

> <Gold.Chemscore.Hbond.Weighted>
-9.9083

> <Gold.Chemscore.Metal.Weighted>
-0.0000

> <Gold.Chemscore.Lipo.Weighted>
-6.3931

> <Gold.Chemscore.Internal_Hbond.Weighted>
0.0000

> <Gold.Chemscore.DEClash.Weighted>
0.1949

> <Gold.Chemscore.DEInternal.Weighted>
1.9343

> <Gold.Chemscore.Rot.Weighted>
2.5600

> <Gold.Chemscore.Internal.Correction.Weighted>
   9.000000E+99

> <Gold.Protein.RotatedTorsions>
[ 6907 6896 6895 6894 ] final  110.64 input  -60.11 | X-H torsion
[ 7974 7965 7964 7962 ] final  125.67 input  175.53 | X-H torsion
[ 8008 7997 7996 7995 ] final -156.04 input   59.86 | X-H torsion
[ 10167 10162 10161 10158 ] final -149.66 input  -65.29 | X-H torsion
[ 10718 10713 10712 10709 ] final   14.17 input   66.30 | X-H torsion
[ 10763 10752 10751 10750 ] final  -16.37 input  -60.55 | X-H torsion
[ 11005 11000 10999 10996 ] final  136.79 input  -57.11 | X-H torsion

> <Gold.Protein.ActiveResidues>
 VAL166  LYS551  ARG553  GLY616  TRP617  ASP618  TYR619  PRO620  LYS621  CYS622 
 ASP623  PHE694  ASN695  SER759  ASP760  ASP761  ALA762  ILE779  LEU786  VAL792 
 PHE793  MET794  SER795  GLU796  ALA797  LYS798  CYS799  TRP800  GLU811  SER814 

> <Gold.Protein.RotatedAtoms>
  152.5010  133.8772  159.7327 H   0  0  0  0  0  0  0  0  0  0  0  0  # atno 6907 bound_to 6896
  150.9243  133.6833  159.2831 H   0  0  0  0  0  0  0  0  0  0  0  0  # atno 6908 bound_to 6896
  151.4199  135.1001  159.9663 H   0  0  0  0  0  0  0  0  0  0  0  0  # atno 6909 bound_to 6896
  145.0704  139.3735  143.4961 H   0  0  0  0  0  0  0  0  0  0  0  0  # atno 7974 bound_to 7965
  155.7110  140.0778  157.2371 H   0  0  0  0  0  0  0  0  0  0  0  0  # atno 8008 bound_to 7997
  154.4058  140.1630  156.2350 H   0  0  0  0  0  0  0  0  0  0  0  0  # atno 8009 bound_to 7997
  155.9282  140.3393  155.6230 H   0  0  0  0  0  0  0  0  0  0  0  0  # atno 8010 bound_to 7997
  139.7423  143.8643  152.2565 H   0  0  0  0  0  0  0  0  0  0  0  0  # atno 10167 bound_to 10162
  157.0353  130.6209  149.5742 H   0  0  0  0  0  0  0  0  0  0  0  0  # atno 10718 bound_to 10713
  153.5575  135.7010  153.5562 H   0  0  0  0  0  0  0  0  0  0  0  0  # atno 10763 bound_to 10752
  153.3459  135.4008  155.1608 H   0  0  0  0  0  0  0  0  0  0  0  0  # atno 10764 bound_to 10752
  154.8652  135.3753  154.5090 H   0  0  0  0  0  0  0  0  0  0  0  0  # atno 10765 bound_to 10752
  140.0070  134.9455  157.0196 H   0  0  0  0  0  0  0  0  0  0  0  0  # atno 11005 bound_to 11000
  146.3528  140.0445  142.8640 LP  0  0  0  0  0  0  0  0  0  0  0  0  # atno 17320 bound_to 7965
  145.1300  140.9512  143.4550 LP  0  0  0  0  0  0  0  0  0  0  0  0  # atno 17321 bound_to 7965
  139.8597  144.7123  150.9114 LP  0  0  0  0  0  0  0  0  0  0  0  0  # atno 17342 bound_to 10162
  140.7787  143.3828  151.1447 LP  0  0  0  0  0  0  0  0  0  0  0  0  # atno 17343 bound_to 10162
  156.0056  130.5142  150.7817 LP  0  0  0  0  0  0  0  0  0  0  0  0  # atno 17370 bound_to 10713
  157.5146  131.0927  151.0155 LP  0  0  0  0  0  0  0  0  0  0  0  0  # atno 17371 bound_to 10713
  140.4623  134.1471  155.7193 LP  0  0  0  0  0  0  0  0  0  0  0  0  # atno 17394 bound_to 11000
  141.1684  133.8658  157.1646 LP  0  0  0  0  0  0  0  0  0  0  0  0  # atno 17395 bound_to 11000

$$$$
