AV-unprocessed.smi:2162|AV-procd|sdf|8802|dock4
  -GOLD-   2272011583D 1   1.00000     0.00000
 Structure written by MMmdl.
 41 42  0  0  0  0  0  0  0  0  1 V2000
  146.5348  130.4558  151.6069 C   0  0  0  0  0  0  0  0  0  0  0  0
  147.1107  131.6827  152.2263 C   0  0  0  0  0  0  0  0  0  0  0  0
  148.3578  131.7578  152.6984 N   0  0  0  0  0  0  0  0  0  0  0  0
  148.6580  133.0168  153.2276 C   0  0  0  0  0  0  0  0  0  0  0  0
  150.0219  133.2871  153.7943 C   0  0  0  0  0  0  0  0  0  0  0  0
  150.0396  134.4200  154.8354 C   0  0  0  0  0  0  0  0  0  0  0  0
  150.3438  135.7082  154.2204 N   0  0  0  0  0  0  0  0  0  0  0  0
  151.3343  136.5335  154.5873 C   0  0  0  0  0  0  0  0  0  0  0  0
  152.1159  136.2885  155.5068 O   0  0  0  0  0  0  0  0  0  0  0  0
  151.4588  137.8432  153.7926 C   0  0  2  0  0  0  0  0  0  0  0  0
  152.5867  138.7357  154.3427 C   0  0  0  0  0  0  0  0  0  0  0  0
  151.8514  139.9021  154.9819 C   0  0  0  0  0  0  0  0  0  0  0  0
  152.4272  140.7633  155.6453 O   0  0  0  0  0  0  0  0  0  0  0  0
  150.5351  139.8381  154.7417 N   0  0  0  0  0  0  0  0  0  0  0  0
  149.5266  140.7686  155.2670 C   0  0  0  0  0  0  0  0  0  0  0  0
  149.4970  140.7053  156.8025 C   0  0  0  0  0  0  0  0  0  0  0  0
  148.1313  140.5402  154.6577 C   0  0  0  0  0  0  0  0  0  0  0  0
  150.1861  138.7095  153.8879 C   0  0  0  0  0  0  0  0  0  0  0  0
  147.6097  133.8999  153.1507 C   0  0  0  0  0  0  0  0  0  0  0  0
  146.2084  133.1822  152.4058 S   0  0  0  0  0  0  0  0  0  0  0  0
  147.2571  129.6387  151.6269 H   0  0  0  0  0  0  0  0  0  0  0  0
  146.2614  130.6554  150.5707 H   0  0  0  0  0  0  0  0  0  0  0  0
  145.6426  130.1471  152.1519 H   0  0  0  0  0  0  0  0  0  0  0  0
  150.4119  132.3792  154.2562 H   0  0  0  0  0  0  0  0  0  0  0  0
  150.7182  133.5285  152.9903 H   0  0  0  0  0  0  0  0  0  0  0  0
  149.0832  134.4435  155.3601 H   0  0  0  0  0  0  0  0  0  0  0  0
  150.8047  134.2189  155.5862 H   0  0  0  0  0  0  0  0  0  0  0  0
  149.7549  135.9906  153.4501 H   0  0  0  0  0  0  0  0  0  0  0  0
  151.6574  137.6048  152.7460 H   0  0  0  0  0  0  0  0  0  0  0  0
  153.2251  138.2370  155.0741 H   0  0  0  0  0  0  0  0  0  0  0  0
  153.2226  139.1058  153.5381 H   0  0  0  0  0  0  0  0  0  0  0  0
  149.8257  141.7795  154.9846 H   0  0  0  0  0  0  0  0  0  0  0  0
  148.7805  141.4185  157.2105 H   0  0  0  0  0  0  0  0  0  0  0  0
  150.4729  140.9422  157.2276 H   0  0  0  0  0  0  0  0  0  0  0  0
  149.2143  139.7118  157.1522 H   0  0  0  0  0  0  0  0  0  0  0  0
  147.4307  141.3016  155.0017 H   0  0  0  0  0  0  0  0  0  0  0  0
  147.7181  139.5704  154.9366 H   0  0  0  0  0  0  0  0  0  0  0  0
  148.1621  140.5945  153.5692 H   0  0  0  0  0  0  0  0  0  0  0  0
  149.9020  139.0727  152.8994 H   0  0  0  0  0  0  0  0  0  0  0  0
  149.3340  138.1640  154.2974 H   0  0  0  0  0  0  0  0  0  0  0  0
  147.5787  134.9271  153.4825 H   0  0  0  0  0  0  0  0  0  0  0  0
  1  2  1  0  0  0  0
  1 21  1  0  0  0  0
  1 22  1  0  0  0  0
  1 23  1  0  0  0  0
  2 20  1  0  0  0  0
  2  3  2  0  0  0  0
  3  4  1  0  0  0  0
  4  5  1  0  0  0  0
  4 19  2  0  0  0  0
  5  6  1  0  0  0  0
  5 24  1  0  0  0  0
  5 25  1  0  0  0  0
  6  7  1  0  0  0  0
  6 26  1  0  0  0  0
  6 27  1  0  0  0  0
  7  8  1  0  0  0  0
  7 28  1  0  0  0  0
  8  9  2  0  0  0  0
  8 10  1  0  0  0  0
 10 18  1  0  0  0  0
 10 11  1  0  0  0  0
 10 29  1  0  0  0  0
 11 12  1  0  0  0  0
 11 30  1  0  0  0  0
 11 31  1  0  0  0  0
 12 13  2  0  0  0  0
 12 14  1  0  0  0  0
 14 15  1  0  0  0  0
 14 18  1  0  0  0  0
 15 16  1  0  0  0  0
 15 17  1  0  0  0  0
 15 32  1  0  0  0  0
 16 33  1  0  0  0  0
 16 34  1  0  0  0  0
 16 35  1  0  0  0  0
 17 36  1  0  0  0  0
 17 37  1  0  0  0  0
 17 38  1  0  0  0  0
 18 39  1  0  0  0  0
 18 40  1  0  0  0  0
 19 20  1  0  0  0  0
 19 41  1  0  0  0  0
M  END
> <s_m_source_file>
AV-unprocessed.smi

> <i_m_source_file_index>
2162

> <i_lp_mmshare_version>
43012

> <i_f3d_flags>
0

> <s_epik_input>
W0NIM11jMW5jKFtjSF1zMSlbQ0gyXVtDSDJdW05IXUMoPU8pW0NAQEhdMltDSDJdQyg9TylOKFtDSDJdMilbQ0hdKFtDSDNdKVtDSDNd

> <s_epik_cmdline>
J2VwaWtfcHl0aG9uJywgJy1waCcsICc3LjAnLCAnLXRuJywgJzgnLCAnLW1hJywgJzIwMCcsICctbWV0YWxfYmluZGluZycsICctaW1hZScsICc8aW5maWxlLm1hZT4nLCAnLW9tYWUnLCAnPG91dGZpbGUubWFlPic=

> <r_epik_Ionization_Penalty>
0.000973993

> <r_epik_Ionization_Penalty_Charging>
0

> <r_epik_Ionization_Penalty_Neutral>
0.000973993

> <r_epik_State_Penalty>
0.000633765

> <r_epik_Charging_Adjusted_Penalty>
0.000633765

> <i_epik_Tot_Q>
0

> <i_epik_Tot_abs_Q>
0

> <r_epik_Metal_State_Penalty>
-0

> <b_epik_Metal_Only>
0

> <s_lp_Force_Field>
OPLS_2005

> <r_lp_Energy>
15.0968

> <b_lp_Chiralities_Consistent>
1

> <s_lp_Variant>
AV-unprocessed.smi:2162-1

> <Gold.Version>
5.8.1

> <Gold.Id.Protein>
6NUR|6NUR_protein|mol2

> <Gold.PLP.Fitness>
44.4415

> <Gold.PLP.PLP>
-35.2940

> <Gold.PLP.part.hbond>
-3.2872

> <Gold.PLP.part.metal>
0.0000

> <Gold.PLP.part.buried>
2.0398

> <Gold.PLP.part.nonpolar>
-34.9652

> <Gold.PLP.part.repulsive>
0.9531

> <Gold.PLP.ligand.clash>
0.0000

> <Gold.PLP.ligand.torsion>
0.6515

> <Gold.PLP.Chemscore.Hbond>
2.9833

> <Gold.PLP.Chemscore.CHOScore>
0.4749

> <Gold.PLP.Chemscore.Metal>
0.0000

> <Gold.Chemscore.Hbonds>
donor molecule, donor type, donor heavy atom, donor atom, acceptor molecule, acceptor atom, score
      L1  H     7    28       P1  7948  0.80
      P1  H  7997  8008       L1    13  0.69
      P1  H 10752 10765       L1     9  0.69
      L1  C    19    41       P1  7948  0.51

> <Gold.PLP.Chemscore.Internal.Correction>
0.0757

> <Gold.Rescore>
     Score         DG    S(hbond)    S(metal)    S(lipo)     H(rot)  DE(clash)    DE(int)     intcor
     15.74     -17.96       2.32        0.00      76.61       1.66       0.82       1.40       ----

> <Gold.Chemscore.Fitness>
15.7362

> <Gold.Chemscore.DG>
-17.9569

> <Gold.Chemscore.ZeroCoef>
-5.4800

> <Gold.Chemscore.Hbond>
2.3233

> <Gold.Chemscore.Metal>
0.0000

> <Gold.Chemscore.Lipo>
76.6061

> <Gold.Chemscore.Internal_Hbond>
0.0000

> <Gold.Chemscore.DEClash>
0.8192

> <Gold.Chemscore.DEInternal>
1.4016

> <Gold.Chemscore.Rot>
1.6585

> <Gold.Chemscore.Internal.Correction>
   9.000000E+99

> <Gold.Chemscore.Hbonds>
donor molecule, donor type, donor heavy atom, donor atom, acceptor molecule, acceptor atom, score
      L1  H     7    28       P1  7948  0.12
      P1  H  7997  8008       L1    13  0.57
      P1  H 10752 10765       L1     9  0.61

> <Gold.Chemscore.Hbond.Weighted>
-7.7597

> <Gold.Chemscore.Metal.Weighted>
-0.0000

> <Gold.Chemscore.Lipo.Weighted>
-8.9629

> <Gold.Chemscore.Internal_Hbond.Weighted>
0.0000

> <Gold.Chemscore.DEClash.Weighted>
0.8192

> <Gold.Chemscore.DEInternal.Weighted>
1.4016

> <Gold.Chemscore.Rot.Weighted>
4.2457

> <Gold.Chemscore.Internal.Correction.Weighted>
   9.000000E+99

> <Gold.Protein.RotatedTorsions>
[ 6907 6896 6895 6894 ] final   53.72 input  -60.11 | X-H torsion
[ 7974 7965 7964 7962 ] final  -27.63 input  175.53 | X-H torsion
[ 8008 7997 7996 7995 ] final  -38.85 input   59.86 | X-H torsion
[ 10167 10162 10161 10158 ] final  129.30 input  -65.29 | X-H torsion
[ 10718 10713 10712 10709 ] final   27.03 input   66.30 | X-H torsion
[ 10763 10752 10751 10750 ] final -138.78 input  -60.55 | X-H torsion
[ 11005 11000 10999 10996 ] final  -21.09 input  -57.11 | X-H torsion

> <Gold.Protein.ActiveResidues>
 VAL166  LYS551  ARG553  GLY616  TRP617  ASP618  TYR619  PRO620  LYS621  CYS622 
 ASP623  PHE694  ASN695  SER759  ASP760  ASP761  ALA762  ILE779  LEU786  VAL792 
 PHE793  MET794  SER795  GLU796  ALA797  LYS798  CYS799  TRP800  GLU811  SER814 

> <Gold.Protein.RotatedAtoms>
  152.3366  134.7190  160.0275 H   0  0  0  0  0  0  0  0  0  0  0  0  # atno 6907 bound_to 6896
  151.7589  133.3327  159.3420 H   0  0  0  0  0  0  0  0  0  0  0  0  # atno 6908 bound_to 6896
  150.7454  134.6056  159.6104 H   0  0  0  0  0  0  0  0  0  0  0  0  # atno 6909 bound_to 6896
  146.1344  140.5177  142.8679 H   0  0  0  0  0  0  0  0  0  0  0  0  # atno 7974 bound_to 7965
  154.4031  140.1567  156.2767 H   0  0  0  0  0  0  0  0  0  0  0  0  # atno 8008 bound_to 7997
  155.8905  140.3439  155.5931 H   0  0  0  0  0  0  0  0  0  0  0  0  # atno 8009 bound_to 7997
  155.7563  140.0811  157.2167 H   0  0  0  0  0  0  0  0  0  0  0  0  # atno 8010 bound_to 7997
  139.5484  144.6793  151.4400 H   0  0  0  0  0  0  0  0  0  0  0  0  # atno 10167 bound_to 10162
  157.2148  130.6951  149.6244 H   0  0  0  0  0  0  0  0  0  0  0  0  # atno 10718 bound_to 10713
  154.8627  135.3602  154.5440 H   0  0  0  0  0  0  0  0  0  0  0  0  # atno 10763 bound_to 10752
  153.6060  135.7011  153.5370 H   0  0  0  0  0  0  0  0  0  0  0  0  # atno 10764 bound_to 10752
  153.3249  135.4140  155.1409 H   0  0  0  0  0  0  0  0  0  0  0  0  # atno 10765 bound_to 10752
  140.8527  133.7845  155.9984 H   0  0  0  0  0  0  0  0  0  0  0  0  # atno 11005 bound_to 11000
  144.7724  140.5667  143.6661 LP  0  0  0  0  0  0  0  0  0  0  0  0  # atno 17320 bound_to 7965
  145.5189  139.1477  143.3563 LP  0  0  0  0  0  0  0  0  0  0  0  0  # atno 17321 bound_to 7965
  140.6740  143.8232  150.7034 LP  0  0  0  0  0  0  0  0  0  0  0  0  # atno 17342 bound_to 10162
  140.1664  143.4231  152.2031 LP  0  0  0  0  0  0  0  0  0  0  0  0  # atno 17343 bound_to 10162
  155.9687  130.4539  150.5830 LP  0  0  0  0  0  0  0  0  0  0  0  0  # atno 17370 bound_to 10713
  157.3636  131.0754  151.1616 LP  0  0  0  0  0  0  0  0  0  0  0  0  # atno 17371 bound_to 10713
  140.8772  134.2655  157.5162 LP  0  0  0  0  0  0  0  0  0  0  0  0  # atno 17394 bound_to 11000
  139.8704  134.9597  156.4339 LP  0  0  0  0  0  0  0  0  0  0  0  0  # atno 17395 bound_to 11000

$$$$
