AV-unprocessed.smi:794|AV-procd|sdf|3760|dock10
  -GOLD-   22720 1193D 1   1.00000     0.00000
 Structure written by MMmdl.
 41 43  0  0  0  0  0  0  0  0  1 V2000
  147.4103  136.7162  163.2806 C   0  0  0  0  0  0  0  0  0  0  0  0
  147.7105  136.2554  161.8870 C   0  0  0  0  0  0  0  0  0  0  0  0
  148.0867  137.1893  160.9170 N   0  0  0  0  0  0  0  0  0  0  0  0
  148.3170  136.6212  159.7289 C   0  0  0  0  0  0  0  0  0  0  0  0
  148.7173  137.3299  158.5658 N   0  0  0  0  0  0  0  0  0  0  0  0
  148.2407  138.4978  158.1004 C   0  0  0  0  0  0  0  0  0  0  0  0
  147.3288  139.1489  158.6106 O   0  0  0  0  0  0  0  0  0  0  0  0
  148.8964  138.8838  156.9962 N   0  0  0  0  0  0  0  0  0  0  0  0
  148.6257  140.1046  156.2351 C   0  0  2  0  0  0  0  0  0  0  0  0
  147.2053  140.0530  155.6316 C   0  0  1  0  0  0  0  0  0  0  0  0
  146.7964  141.4686  155.1855 C   0  0  0  0  0  0  0  0  0  0  0  0
  147.6803  141.6961  153.9445 C   0  0  0  0  0  0  0  0  0  0  0  0
  148.4761  140.3791  153.8433 C   0  0  2  0  0  0  0  0  0  0  0  0
  147.4356  139.3618  154.2934 C   0  0  0  0  0  0  0  0  0  0  0  0
  149.5262  140.3228  154.9803 C   0  0  2  0  0  0  0  0  0  0  0  0
  150.6324  139.2703  154.7386 C   0  0  0  0  0  0  0  0  0  0  0  0
  151.9010  139.8889  154.6943 O   0  0  0  0  0  0  0  0  0  0  0  0
  148.0844  134.8816  159.7239 S   0  0  0  0  0  0  0  0  0  0  0  0
  147.6629  134.9631  161.4167 C   0  0  0  0  0  0  0  0  0  0  0  0
  147.3050  133.7291  162.1762 C   0  0  0  0  0  0  0  0  0  0  0  0
  146.4209  136.3868  163.5987 H   0  0  0  0  0  0  0  0  0  0  0  0
  147.4351  137.8033  163.3616 H   0  0  0  0  0  0  0  0  0  0  0  0
  148.1356  136.3171  163.9899 H   0  0  0  0  0  0  0  0  0  0  0  0
  149.4646  136.9062  158.0363 H   0  0  0  0  0  0  0  0  0  0  0  0
  149.6319  138.2874  156.6463 H   0  0  0  0  0  0  0  0  0  0  0  0
  148.7027  140.9602  156.9089 H   0  0  0  0  0  0  0  0  0  0  0  0
  146.4649  139.5766  156.2755 H   0  0  0  0  0  0  0  0  0  0  0  0
  145.7406  141.5007  154.9139 H   0  0  0  0  0  0  0  0  0  0  0  0
  146.9646  142.2166  155.9611 H   0  0  0  0  0  0  0  0  0  0  0  0
  147.0625  141.8449  153.0578 H   0  0  0  0  0  0  0  0  0  0  0  0
  148.3283  142.5670  154.0478 H   0  0  0  0  0  0  0  0  0  0  0  0
  148.8846  140.2047  152.8476 H   0  0  0  0  0  0  0  0  0  0  0  0
  147.8265  138.3479  154.3890 H   0  0  0  0  0  0  0  0  0  0  0  0
  146.5481  139.3416  153.6586 H   0  0  0  0  0  0  0  0  0  0  0  0
  150.0193  141.2925  155.0679 H   0  0  0  0  0  0  0  0  0  0  0  0
  150.6518  138.5427  155.5500 H   0  0  0  0  0  0  0  0  0  0  0  0
  150.4696  138.7210  153.8112 H   0  0  0  0  0  0  0  0  0  0  0  0
  152.0124  140.4030  155.4795 H   0  0  0  0  0  0  0  0  0  0  0  0
  147.7885  133.7205  163.1533 H   0  0  0  0  0  0  0  0  0  0  0  0
  147.6176  132.8317  161.6417 H   0  0  0  0  0  0  0  0  0  0  0  0
  146.2277  133.6711  162.3316 H   0  0  0  0  0  0  0  0  0  0  0  0
  1  2  1  0  0  0  0
  1 21  1  0  0  0  0
  1 22  1  0  0  0  0
  1 23  1  0  0  0  0
  2 19  2  0  0  0  0
  2  3  1  0  0  0  0
  3  4  2  0  0  0  0
  4  5  1  0  0  0  0
  4 18  1  0  0  0  0
  5  6  1  0  0  0  0
  5 24  1  0  0  0  0
  6  7  2  0  0  0  0
  6  8  1  0  0  0  0
  8  9  1  0  0  0  0
  8 25  1  0  0  0  0
  9 15  1  0  0  0  0
  9 10  1  0  0  0  0
  9 26  1  0  0  0  0
 10 14  1  0  0  0  0
 10 11  1  0  0  0  0
 10 27  1  0  0  0  0
 11 12  1  0  0  0  0
 11 28  1  0  0  0  0
 11 29  1  0  0  0  0
 12 13  1  0  0  0  0
 12 30  1  0  0  0  0
 12 31  1  0  0  0  0
 13 14  1  0  0  0  0
 13 15  1  0  0  0  0
 13 32  1  0  0  0  0
 14 33  1  0  0  0  0
 14 34  1  0  0  0  0
 15 16  1  0  0  0  0
 15 35  1  0  0  0  0
 16 17  1  0  0  0  0
 16 36  1  0  0  0  0
 16 37  1  0  0  0  0
 17 38  1  0  0  0  0
 18 19  1  0  0  0  0
 19 20  1  0  0  0  0
 20 39  1  0  0  0  0
 20 40  1  0  0  0  0
 20 41  1  0  0  0  0
M  END
> <s_m_source_file>
AV-unprocessed.smi

> <i_m_source_file_index>
794

> <i_lp_mmshare_version>
43012

> <i_f3d_flags>
0

> <s_epik_input>
W0NIM11jMW5jKHNjMVtDSDNdKVtOSF1DKD1PKVtOSF1bQ0BIXShbQ0BASF0yMylbQ0BIXShbQ0gyXVtPSF0pW0NAQEhdKFtDSDJdMylbQ0gyXVtDSDJdMg==

> <s_epik_cmdline>
J2VwaWtfcHl0aG9uJywgJy1waCcsICc3LjAnLCAnLXRuJywgJzgnLCAnLW1hJywgJzIwMCcsICctbWV0YWxfYmluZGluZycsICctaW1hZScsICc8aW5maWxlLm1hZT4nLCAnLW9tYWUnLCAnPG91dGZpbGUubWFlPic=

> <r_lp_tautomer_probability>
0.999

> <r_epik_Ionization_Penalty>
0.000713029

> <r_epik_Ionization_Penalty_Charging>
0

> <r_epik_Ionization_Penalty_Neutral>
0.000713029

> <r_epik_State_Penalty>
0.000177984

> <r_epik_Charging_Adjusted_Penalty>
0.000177984

> <i_epik_Tot_Q>
0

> <i_epik_Tot_abs_Q>
0

> <r_epik_Metal_State_Penalty>
-0

> <b_epik_Metal_Only>
0

> <s_lp_Force_Field>
OPLS_2005

> <r_lp_Energy>
48.2777

> <b_lp_Chiralities_Consistent>
1

> <s_lp_Variant>
AV-unprocessed.smi:794-5

> <Gold.Version>
5.8.1

> <Gold.Id.Protein>
6NUR|6NUR_protein|mol2

> <Gold.PLP.Fitness>
39.0475

> <Gold.PLP.PLP>
-33.4969

> <Gold.PLP.part.hbond>
-3.7961

> <Gold.PLP.part.metal>
0.0000

> <Gold.PLP.part.buried>
-2.2335

> <Gold.PLP.part.nonpolar>
-27.6023

> <Gold.PLP.part.repulsive>
0.1731

> <Gold.PLP.ligand.clash>
0.0000

> <Gold.PLP.ligand.torsion>
1.1098

> <Gold.PLP.Chemscore.Hbond>
2.5857

> <Gold.PLP.Chemscore.CHOScore>
0.0000

> <Gold.PLP.Chemscore.Metal>
0.0000

> <Gold.Chemscore.Hbonds>
donor molecule, donor type, donor heavy atom, donor atom, acceptor molecule, acceptor atom, score
      P1  H  6931  6943       L1     3  0.93
      P1  H  6934  6947       L1     3  0.70
      P1  H  7989  7998       L1    17  0.94

> <Gold.PLP.Chemscore.Internal.Correction>
0.0131

> <Gold.Rescore>
     Score         DG    S(hbond)    S(metal)    S(lipo)     H(rot)  DE(clash)    DE(int)     intcor
     14.23     -15.72       1.63        0.00      79.87       1.78       0.40       1.09       ----

> <Gold.Chemscore.Fitness>
14.2306

> <Gold.Chemscore.DG>
-15.7221

> <Gold.Chemscore.ZeroCoef>
-5.4800

> <Gold.Chemscore.Hbond>
1.6328

> <Gold.Chemscore.Metal>
0.0000

> <Gold.Chemscore.Lipo>
79.8698

> <Gold.Chemscore.Internal_Hbond>
0.0000

> <Gold.Chemscore.DEClash>
0.3971

> <Gold.Chemscore.DEInternal>
1.0943

> <Gold.Chemscore.Rot>
1.7798

> <Gold.Chemscore.Internal.Correction>
   9.000000E+99

> <Gold.Chemscore.Hbonds>
donor molecule, donor type, donor heavy atom, donor atom, acceptor molecule, acceptor atom, score
      P1  H  6931  6943       L1     3  0.23
      P1  H  6934  6947       L1     3  0.60
      P1  H  7989  7998       L1    17  0.15

> <Gold.Chemscore.Hbond.Weighted>
-5.4535

> <Gold.Chemscore.Metal.Weighted>
-0.0000

> <Gold.Chemscore.Lipo.Weighted>
-9.3448

> <Gold.Chemscore.Internal_Hbond.Weighted>
0.0000

> <Gold.Chemscore.DEClash.Weighted>
0.3971

> <Gold.Chemscore.DEInternal.Weighted>
1.0943

> <Gold.Chemscore.Rot.Weighted>
4.5562

> <Gold.Chemscore.Internal.Correction.Weighted>
   9.000000E+99

> <Gold.Protein.RotatedTorsions>
[ 6907 6896 6895 6894 ] final  -90.67 input  -60.11 | X-H torsion
[ 7974 7965 7964 7962 ] final  -77.05 input  175.53 | X-H torsion
[ 8008 7997 7996 7995 ] final  -22.34 input   59.86 | X-H torsion
[ 10167 10162 10161 10158 ] final  171.70 input  -65.29 | X-H torsion
[ 10718 10713 10712 10709 ] final  -50.58 input   66.30 | X-H torsion
[ 10763 10752 10751 10750 ] final -147.51 input  -60.55 | X-H torsion
[ 11005 11000 10999 10996 ] final  -43.28 input  -57.11 | X-H torsion

> <Gold.Protein.ActiveResidues>
 VAL166  LYS551  ARG553  GLY616  TRP617  ASP618  TYR619  PRO620  LYS621  CYS622 
 ASP623  PHE694  ASN695  SER759  ASP760  ASP761  ALA762  ILE779  LEU786  VAL792 
 PHE793  MET794  SER795  GLU796  ALA797  LYS798  CYS799  TRP800  GLU811  SER814 

> <Gold.Protein.RotatedAtoms>
  150.6884  134.2395  159.4466 H   0  0  0  0  0  0  0  0  0  0  0  0  # atno 6907 bound_to 6896
  152.0341  134.9748  160.0582 H   0  0  0  0  0  0  0  0  0  0  0  0  # atno 6908 bound_to 6896
  152.1276  133.4354  159.4742 H   0  0  0  0  0  0  0  0  0  0  0  0  # atno 6909 bound_to 6896
  145.6048  140.9400  143.1221 H   0  0  0  0  0  0  0  0  0  0  0  0  # atno 7974 bound_to 7965
  154.4650  140.2010  156.0142 H   0  0  0  0  0  0  0  0  0  0  0  0  # atno 8008 bound_to 7997
  156.0910  140.3258  155.7787 H   0  0  0  0  0  0  0  0  0  0  0  0  # atno 8009 bound_to 7997
  155.4956  140.0549  157.2938 H   0  0  0  0  0  0  0  0  0  0  0  0  # atno 8010 bound_to 7997
  139.5054  144.3456  151.9974 H   0  0  0  0  0  0  0  0  0  0  0  0  # atno 10167 bound_to 10162
  156.1787  130.4150  149.9538 H   0  0  0  0  0  0  0  0  0  0  0  0  # atno 10718 bound_to 10713
  154.8282  135.3358  154.6829 H   0  0  0  0  0  0  0  0  0  0  0  0  # atno 10763 bound_to 10752
  153.7452  135.6943  153.4962 H   0  0  0  0  0  0  0  0  0  0  0  0  # atno 10764 bound_to 10752
  153.2215  135.4447  155.0446 H   0  0  0  0  0  0  0  0  0  0  0  0  # atno 10765 bound_to 10752
  141.0373  133.6794  156.2711 H   0  0  0  0  0  0  0  0  0  0  0  0  # atno 11005 bound_to 11000
  144.7295  139.7771  143.7352 LP  0  0  0  0  0  0  0  0  0  0  0  0  # atno 17320 bound_to 7965
  146.1549  139.4644  143.0025 LP  0  0  0  0  0  0  0  0  0  0  0  0  # atno 17321 bound_to 7965
  140.2894  144.3771  150.6093 LP  0  0  0  0  0  0  0  0  0  0  0  0  # atno 17342 bound_to 10162
  140.5958  143.2167  151.7167 LP  0  0  0  0  0  0  0  0  0  0  0  0  # atno 17343 bound_to 10162
  156.7316  130.9045  151.3626 LP  0  0  0  0  0  0  0  0  0  0  0  0  # atno 17370 bound_to 10713
  157.6853  130.9180  150.0372 LP  0  0  0  0  0  0  0  0  0  0  0  0  # atno 17371 bound_to 10713
  140.6299  134.5275  157.5558 LP  0  0  0  0  0  0  0  0  0  0  0  0  # atno 17394 bound_to 11000
  139.9250  134.8074  156.1096 LP  0  0  0  0  0  0  0  0  0  0  0  0  # atno 17395 bound_to 11000

$$$$
