AV-unprocessed.smi:72|AV-procd|sdf|694|dock10
  -GOLD-   2262017 13D 1   1.00000     0.00000
 Structure written by MMmdl.
 29 30  0  0  0  0  0  0  0  0  1 V2000
  151.3432  137.3552  158.6978 N   0  0  0  0  0  0  0  0  0  0  0  0
  150.7956  137.9804  157.7181 C   0  0  0  0  0  0  0  0  0  0  0  0
  149.4169  138.0470  157.4662 N   0  0  0  0  0  0  0  0  0  0  0  0
  149.0067  138.7079  156.4275 C   0  0  0  0  0  0  0  0  0  0  0  0
  149.9280  139.3692  155.5162 N   0  0  0  0  0  0  0  0  0  0  0  0
  149.4269  140.1430  154.3186 C   0  0  1  0  0  0  0  0  0  0  0  0
  148.8168  139.2575  153.4254 O   0  0  0  0  0  0  0  0  0  0  0  0
  147.5822  139.8025  152.9710 C   0  0  1  0  0  0  0  0  0  0  0  0
  146.6384  138.6679  152.5440 C   0  0  0  0  0  0  0  0  0  0  0  0
  147.1909  137.9611  151.4543 O   0  0  0  0  0  0  0  0  0  0  0  0
  147.0955  140.5752  154.1978 C   0  0  2  0  0  0  0  0  0  0  0  0
  146.1030  141.5370  153.8935 O   0  0  0  0  0  0  0  0  0  0  0  0
  148.3813  141.1850  154.7470 C   0  0  2  0  0  0  0  0  0  0  0  0
  148.6710  142.4504  154.1819 O   0  0  0  0  0  0  0  0  0  0  0  0
  151.3196  139.3401  155.7753 C   0  0  0  0  0  0  0  0  0  0  0  0
  152.1376  139.9231  155.0640 O   0  0  0  0  0  0  0  0  0  0  0  0
  151.6936  138.6344  156.8645 N   0  0  0  0  0  0  0  0  0  0  0  0
  150.3062  140.5725  153.8352 H   0  0  0  0  0  0  0  0  0  0  0  0
  147.7715  140.4960  152.1489 H   0  0  0  0  0  0  0  0  0  0  0  0
  146.6934  139.8756  154.9323 H   0  0  0  0  0  0  0  0  0  0  0  0
  148.3471  141.2903  155.8324 H   0  0  0  0  0  0  0  0  0  0  0  0
  152.3469  137.4616  158.6588 H   0  0  0  0  0  0  0  0  0  0  0  0
  147.9507  138.8125  156.1757 H   0  0  0  0  0  0  0  0  0  0  0  0
  146.4326  137.9898  153.3728 H   0  0  0  0  0  0  0  0  0  0  0  0
  145.6829  139.0779  152.2161 H   0  0  0  0  0  0  0  0  0  0  0  0
  147.5942  137.1714  151.7811 H   0  0  0  0  0  0  0  0  0  0  0  0
  145.3690  141.0948  153.4952 H   0  0  0  0  0  0  0  0  0  0  0  0
  148.9007  143.0453  154.8795 H   0  0  0  0  0  0  0  0  0  0  0  0
  152.6795  138.5852  157.0754 H   0  0  0  0  0  0  0  0  0  0  0  0
  1  2  2  0  0  0  0
  1 22  1  0  0  0  0
  2 17  1  0  0  0  0
  2  3  1  0  0  0  0
  3  4  2  0  0  0  0
  4  5  1  0  0  0  0
  4 23  1  0  0  0  0
  5  6  1  0  0  0  0
  5 15  1  0  0  0  0
  6 18  1  0  0  0  0
  6 13  1  0  0  0  0
  6  7  1  0  0  0  0
  7  8  1  0  0  0  0
  8 19  1  0  0  0  0
  8  9  1  0  0  0  0
  8 11  1  0  0  0  0
  9 10  1  0  0  0  0
  9 24  1  0  0  0  0
  9 25  1  0  0  0  0
 10 26  1  0  0  0  0
 11 20  1  0  0  0  0
 11 12  1  0  0  0  0
 11 13  1  0  0  0  0
 12 27  1  0  0  0  0
 13 21  1  0  0  0  0
 13 14  1  0  0  0  0
 14 28  1  0  0  0  0
 15 16  2  0  0  0  0
 15 17  1  0  0  0  0
 17 29  1  0  0  0  0
M  END
> <s_m_source_file>
AV-unprocessed.smi

> <i_m_source_file_index>
72

> <i_lp_mmshare_version>
43012

> <i_f3d_flags>
0

> <s_epik_input>
W05IMl1jMW5bY0hdbihjKD1PKW4xKVtDQEBIXTJPW0NASF0oW0NIMl1bT0hdKVtDQEBIXShbT0hdKVtDQEhdMltPSF0=

> <s_epik_cmdline>
J2VwaWtfcHl0aG9uJywgJy1waCcsICc3LjAnLCAnLXRuJywgJzgnLCAnLW1hJywgJzIwMCcsICctbWV0YWxfYmluZGluZycsICctaW1hZScsICc8aW5maWxlLm1hZT4nLCAnLW9tYWUnLCAnPG91dGZpbGUubWFlPic=

> <r_lp_tautomer_probability>
7.17554e-07

> <r_epik_Ionization_Penalty>
0.0066451

> <r_epik_Ionization_Penalty_Charging>
0.00663793

> <r_epik_Ionization_Penalty_Neutral>
7.17052e-06

> <r_epik_State_Penalty>
0.419231

> <r_epik_Charging_Adjusted_Penalty>
0.425868

> <i_epik_Tot_Q>
0

> <i_epik_Tot_abs_Q>
0

> <r_epik_Metal_State_Penalty>
1.44144

> <b_epik_Metal_Only>
0

> <s_epik_Chemistry_Notes>
This compound contains an acetal/aminal-like group ( X-CH(R)-Y where X, Y are N, S, or O) that may be acid/base labile, releasing an aldehyde.

> <s_lp_Force_Field>
OPLS_2005

> <r_lp_Energy>
41.633

> <b_lp_Chiralities_Consistent>
1

> <s_lp_Variant>
AV-unprocessed.smi:72-32

> <Gold.Version>
5.8.1

> <Gold.Id.Protein>
6NUR|6NUR_protein|mol2

> <Gold.PLP.Fitness>
33.9674

> <Gold.PLP.PLP>
-20.3491

> <Gold.PLP.part.hbond>
-6.1471

> <Gold.PLP.part.metal>
0.0000

> <Gold.PLP.part.buried>
-3.0928

> <Gold.PLP.part.nonpolar>
-15.4178

> <Gold.PLP.part.repulsive>
3.6360

> <Gold.PLP.ligand.clash>
0.0000

> <Gold.PLP.ligand.torsion>
0.0561

> <Gold.PLP.Chemscore.Hbond>
4.5708

> <Gold.PLP.Chemscore.CHOScore>
0.0000

> <Gold.PLP.Chemscore.Metal>
0.0000

> <Gold.Chemscore.Hbonds>
donor molecule, donor type, donor heavy atom, donor atom, acceptor molecule, acceptor atom, score
      L1  H    10    26       P1  7948  0.91
      L1  H    12    27       P1 10175  0.94
      L1  H    14    28       P1  8028  1.00
      P1  H  7954  7966       L1    10  0.55
      P1  H  7989  7998       L1    16  0.78
      P1  H  8011  8017       L1    14  0.11

> <Gold.PLP.Chemscore.Internal.Correction>
0.0180

> <Gold.Rescore>
     Score         DG    S(hbond)    S(metal)    S(lipo)     H(rot)  DE(clash)    DE(int)     intcor
      9.03     -10.44       3.76        0.00      23.82       4.06       1.28       0.13       ----

> <Gold.Chemscore.Fitness>
9.0289

> <Gold.Chemscore.DG>
-10.4385

> <Gold.Chemscore.ZeroCoef>
-5.4800

> <Gold.Chemscore.Hbond>
3.7619

> <Gold.Chemscore.Metal>
0.0000

> <Gold.Chemscore.Lipo>
23.8239

> <Gold.Chemscore.Internal_Hbond>
0.0000

> <Gold.Chemscore.DEClash>
1.2804

> <Gold.Chemscore.DEInternal>
0.1292

> <Gold.Chemscore.Rot>
4.0600

> <Gold.Chemscore.Internal.Correction>
   9.000000E+99

> <Gold.Chemscore.Hbonds>
donor molecule, donor type, donor heavy atom, donor atom, acceptor molecule, acceptor atom, score
      L1  H    10    26       P1  7948  0.89
      L1  H    12    27       P1 10175  0.45
      L1  H    14    28       P1  8028  0.94
      P1  H  7954  7966       L1    10  0.03
      P1  H  7989  7998       L1    16  0.77
      P1  H  8011  8017       L1    14  0.11

> <Gold.Chemscore.Hbond.Weighted>
-12.5647

> <Gold.Chemscore.Metal.Weighted>
-0.0000

> <Gold.Chemscore.Lipo.Weighted>
-2.7874

> <Gold.Chemscore.Internal_Hbond.Weighted>
0.0000

> <Gold.Chemscore.DEClash.Weighted>
1.2804

> <Gold.Chemscore.DEInternal.Weighted>
0.1292

> <Gold.Chemscore.Rot.Weighted>
10.3936

> <Gold.Chemscore.Internal.Correction.Weighted>
   9.000000E+99

> <Gold.Protein.RotatedTorsions>
[ 6907 6896 6895 6894 ] final   94.48 input  -60.11 | X-H torsion
[ 7974 7965 7964 7962 ] final   31.99 input  175.53 | X-H torsion
[ 8008 7997 7996 7995 ] final  155.53 input   59.86 | X-H torsion
[ 10167 10162 10161 10158 ] final  127.26 input  -65.29 | X-H torsion
[ 10718 10713 10712 10709 ] final    3.42 input   66.30 | X-H torsion
[ 10763 10752 10751 10750 ] final  -83.11 input  -60.55 | X-H torsion
[ 11005 11000 10999 10996 ] final  111.36 input  -57.11 | X-H torsion

> <Gold.Protein.ActiveResidues>
 VAL166  LYS551  ARG553  GLY616  TRP617  ASP618  TYR619  PRO620  LYS621  CYS622 
 ASP623  PHE694  ASN695  SER759  ASP760  ASP761  ALA762  ILE779  LEU786  VAL792 
 PHE793  MET794  SER795  GLU796  ALA797  LYS798  CYS799  TRP800  GLU811  SER814 

> <Gold.Protein.RotatedAtoms>
  152.5449  134.1187  159.8389 H   0  0  0  0  0  0  0  0  0  0  0  0  # atno 6907 bound_to 6896
  151.1245  133.5073  159.2608 H   0  0  0  0  0  0  0  0  0  0  0  0  # atno 6908 bound_to 6896
  151.1742  135.0341  159.8819 H   0  0  0  0  0  0  0  0  0  0  0  0  # atno 6909 bound_to 6896
  146.1515  139.6585  142.9095 H   0  0  0  0  0  0  0  0  0  0  0  0  # atno 7974 bound_to 7965
  156.2473  140.1937  156.6815 H   0  0  0  0  0  0  0  0  0  0  0  0  # atno 8008 bound_to 7997
  154.6318  140.0595  156.9768 H   0  0  0  0  0  0  0  0  0  0  0  0  # atno 8009 bound_to 7997
  155.1698  140.3267  155.4397 H   0  0  0  0  0  0  0  0  0  0  0  0  # atno 8010 bound_to 7997
  139.5588  144.6867  151.4104 H   0  0  0  0  0  0  0  0  0  0  0  0  # atno 10167 bound_to 10162
  156.8776  130.5642  149.5654 H   0  0  0  0  0  0  0  0  0  0  0  0  # atno 10718 bound_to 10713
  154.5839  135.5567  153.7212 H   0  0  0  0  0  0  0  0  0  0  0  0  # atno 10763 bound_to 10752
  153.0091  135.6326  154.1944 H   0  0  0  0  0  0  0  0  0  0  0  0  # atno 10764 bound_to 10752
  154.1885  135.2883  155.3009 H   0  0  0  0  0  0  0  0  0  0  0  0  # atno 10765 bound_to 10752
  139.8902  134.9506  156.6421 H   0  0  0  0  0  0  0  0  0  0  0  0  # atno 11005 bound_to 11000
  145.4811  141.0438  143.2645 LP  0  0  0  0  0  0  0  0  0  0  0  0  # atno 17320 bound_to 7965
  144.7910  139.6328  143.7113 LP  0  0  0  0  0  0  0  0  0  0  0  0  # atno 17321 bound_to 7965
  140.6865  143.7962  150.7193 LP  0  0  0  0  0  0  0  0  0  0  0  0  # atno 17342 bound_to 10162
  140.1432  143.4423  152.2180 LP  0  0  0  0  0  0  0  0  0  0  0  0  # atno 17343 bound_to 10162
  156.0694  130.5730  150.9353 LP  0  0  0  0  0  0  0  0  0  0  0  0  # atno 17370 bound_to 10713
  157.6159  131.0933  150.8711 LP  0  0  0  0  0  0  0  0  0  0  0  0  # atno 17371 bound_to 10713
  140.7586  133.8837  155.8400 LP  0  0  0  0  0  0  0  0  0  0  0  0  # atno 17394 bound_to 11000
  140.9941  134.1239  157.4380 LP  0  0  0  0  0  0  0  0  0  0  0  0  # atno 17395 bound_to 11000

$$$$
