AV-unprocessed.smi:3056|AV-procd|sdf|11645|dock1
  -GOLD-   2272017 43D 1   1.00000     0.00000
 Structure written by MMmdl.
 48 49  0  0  0  0  0  0  0  0  2 V2000
  144.9301  133.6896  151.3299 C   0  0  0  0  0  0  0  0  0  0  0  0
  145.4329  134.9480  151.9771 C   0  0  0  0  0  0  0  0  0  0  0  0
  146.1624  135.0766  153.1921 C   0  0  0  0  0  0  0  0  0  0  0  0
  146.4599  136.3328  153.4813 N   0  0  0  0  0  0  0  0  0  0  0  0
  145.9194  137.0555  152.4757 N   0  0  0  0  0  0  0  0  0  0  0  0
  146.0892  138.5065  152.4709 C   0  0  2  0  0  0  0  0  0  0  0  0
  146.5133  139.0216  151.0829 C   0  0  0  0  0  0  0  0  0  0  0  0
  147.0389  138.9984  153.5990 C   0  0  2  0  0  0  0  0  0  0  0  0
  146.9114  140.5015  153.9053 C   0  0  0  0  0  0  0  0  0  0  0  0
  148.4546  138.6952  153.2770 N   0  3  0  0  0  0  0  0  0  0  0  0
  149.3985  138.7111  154.4197 C   0  0  0  0  0  0  0  0  0  0  0  0
  149.9433  140.1137  154.7436 C   0  0  0  0  0  0  0  0  0  0  0  0
  149.6607  141.0483  153.9916 O   0  0  0  0  0  0  0  0  0  0  0  0
  150.7193  140.2799  155.8414 N   0  0  0  0  0  0  0  0  0  0  0  0
  151.0906  139.2378  156.8036 C   0  0  0  0  0  0  0  0  0  0  0  0
  150.4854  139.6033  158.1703 C   0  0  0  0  0  0  0  0  0  0  0  0
  150.9490  140.8905  158.5707 O   0  0  0  0  0  0  0  0  0  0  0  0
  150.6231  141.9246  157.6433 C   0  0  1  0  0  0  0  0  0  0  0  0
  151.1490  143.2518  158.2005 C   0  0  0  0  0  0  0  0  0  0  0  0
  151.2366  141.5827  156.2702 C   0  0  0  0  0  0  0  0  0  0  0  0
  145.3059  136.2376  151.5453 C   0  0  0  0  0  0  0  0  0  0  0  0
  145.0136  132.8294  151.9947 H   0  0  0  0  0  0  0  0  0  0  0  0
  145.4888  133.4521  150.4246 H   0  0  0  0  0  0  0  0  0  0  0  0
  143.8804  133.7741  151.0475 H   0  0  0  0  0  0  0  0  0  0  0  0
  146.4865  134.2975  153.8665 H   0  0  0  0  0  0  0  0  0  0  0  0
  145.1013  138.9357  152.6424 H   0  0  0  0  0  0  0  0  0  0  0  0
  146.5335  140.1114  151.0618 H   0  0  0  0  0  0  0  0  0  0  0  0
  145.8126  138.6950  150.3138 H   0  0  0  0  0  0  0  0  0  0  0  0
  147.5047  138.6712  150.7967 H   0  0  0  0  0  0  0  0  0  0  0  0
  146.7850  138.4654  154.5164 H   0  0  0  0  0  0  0  0  0  0  0  0
  145.8891  140.7718  154.1684 H   0  0  0  0  0  0  0  0  0  0  0  0
  147.2129  141.1178  153.0579 H   0  0  0  0  0  0  0  0  0  0  0  0
  147.5446  140.7785  154.7487 H   0  0  0  0  0  0  0  0  0  0  0  0
  148.4807  137.7834  152.8424 H   0  0  0  0  0  0  0  0  0  0  0  0
  148.9292  138.2726  155.3001 H   0  0  0  0  0  0  0  0  0  0  0  0
  150.2422  138.0747  154.1510 H   0  0  0  0  0  0  0  0  0  0  0  0
  150.7729  138.2368  156.5177 H   0  0  0  0  0  0  0  0  0  0  0  0
  152.1781  139.1923  156.8784 H   0  0  0  0  0  0  0  0  0  0  0  0
  149.3950  139.5950  158.1285 H   0  0  0  0  0  0  0  0  0  0  0  0
  150.7825  138.8724  158.9225 H   0  0  0  0  0  0  0  0  0  0  0  0
  149.5372  141.9908  157.5536 H   0  0  0  0  0  0  0  0  0  0  0  0
  150.9053  144.0806  157.5354 H   0  0  0  0  0  0  0  0  0  0  0  0
  152.2321  143.2277  158.3234 H   0  0  0  0  0  0  0  0  0  0  0  0
  150.7083  143.4668  159.1743 H   0  0  0  0  0  0  0  0  0  0  0  0
  152.3245  141.5332  156.3407 H   0  0  0  0  0  0  0  0  0  0  0  0
  151.0166  142.3802  155.5592 H   0  0  0  0  0  0  0  0  0  0  0  0
  144.8321  136.6311  150.6583 H   0  0  0  0  0  0  0  0  0  0  0  0
  148.7831  139.3785  152.6095 H   0  0  0  0  0  0  0  0  0  0  0  0
  1  2  1  0  0  0  0
  1 22  1  0  0  0  0
  1 23  1  0  0  0  0
  1 24  1  0  0  0  0
  2 21  2  0  0  0  0
  2  3  1  0  0  0  0
  3  4  2  0  0  0  0
  3 25  1  0  0  0  0
  4  5  1  0  0  0  0
  5  6  1  0  0  0  0
  5 21  1  0  0  0  0
  6  7  1  0  0  0  0
  6  8  1  0  0  0  0
  6 26  1  0  0  0  0
  7 27  1  0  0  0  0
  7 28  1  0  0  0  0
  7 29  1  0  0  0  0
  8  9  1  0  0  0  0
  8 10  1  0  0  0  0
  8 30  1  0  0  0  0
  9 31  1  0  0  0  0
  9 32  1  0  0  0  0
  9 33  1  0  0  0  0
 10 11  1  0  0  0  0
 10 34  1  0  0  0  0
 10 48  1  0  0  0  0
 11 12  1  0  0  0  0
 11 35  1  0  0  0  0
 11 36  1  0  0  0  0
 12 13  2  0  0  0  0
 12 14  1  0  0  0  0
 14 20  1  0  0  0  0
 14 15  1  0  0  0  0
 15 16  1  0  0  0  0
 15 37  1  0  0  0  0
 15 38  1  0  0  0  0
 16 17  1  0  0  0  0
 16 39  1  0  0  0  0
 16 40  1  0  0  0  0
 17 18  1  0  0  0  0
 18 19  1  0  0  0  0
 18 20  1  0  0  0  0
 18 41  1  0  0  0  0
 19 42  1  0  0  0  0
 19 43  1  0  0  0  0
 19 44  1  0  0  0  0
 20 45  1  0  0  0  0
 20 46  1  0  0  0  0
 21 47  1  0  0  0  0
M  CHG  1  10   1
M  END
> <s_m_source_file>
AV-unprocessed.smi

> <i_m_source_file_index>
3056

> <i_lp_mmshare_version>
43012

> <i_f3d_flags>
0

> <s_epik_input>
W0NIM11jMVtjSF1ubihbY0hdMSlbQ0BIXShbQ0gzXSlbQ0BIXShbQ0gzXSlbTkhdW0NIMl1DKD1PKU4yW0NIMl1bQ0gyXU9bQ0BASF0oW0NIM10pW0NIMl0y

> <s_epik_cmdline>
J2VwaWtfcHl0aG9uJywgJy1waCcsICc3LjAnLCAnLXRuJywgJzgnLCAnLW1hJywgJzIwMCcsICctbWV0YWxfYmluZGluZycsICctaW1hZScsICc8aW5maWxlLm1hZT4nLCAnLW9tYWUnLCAnPG91dGZpbGUubWFlPic=

> <r_lp_tautomer_probability>
1

> <r_epik_Ionization_Penalty>
0.233715

> <r_epik_Ionization_Penalty_Charging>
0.233698

> <r_epik_Ionization_Penalty_Neutral>
1.68157e-05

> <r_epik_State_Penalty>
0.225221

> <r_epik_Charging_Adjusted_Penalty>
0.458919

> <i_epik_Tot_Q>
1

> <i_epik_Tot_abs_Q>
1

> <r_epik_Metal_State_Penalty>
0.225535

> <b_epik_Metal_Only>
0

> <s_lp_Force_Field>
OPLS_2005

> <r_lp_Energy>
27.9094

> <b_lp_Chiralities_Consistent>
1

> <s_lp_Variant>
AV-unprocessed.smi:3056-1

> <Gold.Version>
5.8.1

> <Gold.Id.Protein>
6NUR|6NUR_protein|mol2

> <Gold.PLP.Fitness>
46.4336

> <Gold.PLP.PLP>
-33.2668

> <Gold.PLP.part.hbond>
-4.0000

> <Gold.PLP.part.metal>
0.0000

> <Gold.PLP.part.buried>
0.6670

> <Gold.PLP.part.nonpolar>
-30.6364

> <Gold.PLP.part.repulsive>
2.2159

> <Gold.PLP.ligand.clash>
0.0000

> <Gold.PLP.ligand.torsion>
0.7281

> <Gold.PLP.Chemscore.Hbond>
3.7199

> <Gold.PLP.Chemscore.CHOScore>
1.0000

> <Gold.PLP.Chemscore.Metal>
0.0000

> <Gold.Chemscore.Hbonds>
donor molecule, donor type, donor heavy atom, donor atom, acceptor molecule, acceptor atom, score
      L1  H    10    34       P1  7948  2.00
      L1  H    10    48       P1  7957  1.00
      P1  H  7989  7998       L1    13  0.06
      P1  H  8011  8017       L1    13  0.59
      L1  C    21    47       P1 10171  1.00

> <Gold.PLP.Chemscore.Internal.Correction>
0.4635

> <Gold.Rescore>
     Score         DG    S(hbond)    S(metal)    S(lipo)     H(rot)  DE(clash)    DE(int)     intcor
     15.79     -20.34       2.72        0.00      87.30       1.74       2.28       2.26       ----

> <Gold.Chemscore.Fitness>
15.7944

> <Gold.Chemscore.DG>
-20.3371

> <Gold.Chemscore.ZeroCoef>
-5.4800

> <Gold.Chemscore.Hbond>
2.7201

> <Gold.Chemscore.Metal>
0.0000

> <Gold.Chemscore.Lipo>
87.3036

> <Gold.Chemscore.Internal_Hbond>
0.0000

> <Gold.Chemscore.DEClash>
2.2817

> <Gold.Chemscore.DEInternal>
2.2610

> <Gold.Chemscore.Rot>
1.7354

> <Gold.Chemscore.Internal.Correction>
   9.000000E+99

> <Gold.Chemscore.Hbonds>
donor molecule, donor type, donor heavy atom, donor atom, acceptor molecule, acceptor atom, score
      L1  H    10    34       P1  7948  1.00
      L1  H    10    48       P1  7957  0.99
      P1  H  8011  8017       L1    13  0.58

> <Gold.Chemscore.Hbond.Weighted>
-9.0852

> <Gold.Chemscore.Metal.Weighted>
-0.0000

> <Gold.Chemscore.Lipo.Weighted>
-10.2145

> <Gold.Chemscore.Internal_Hbond.Weighted>
0.0000

> <Gold.Chemscore.DEClash.Weighted>
2.2817

> <Gold.Chemscore.DEInternal.Weighted>
2.2610

> <Gold.Chemscore.Rot.Weighted>
4.4426

> <Gold.Chemscore.Internal.Correction.Weighted>
   9.000000E+99

> <Gold.Protein.RotatedTorsions>
[ 6907 6896 6895 6894 ] final  127.20 input  -60.11 | X-H torsion
[ 7974 7965 7964 7962 ] final -168.36 input  175.53 | X-H torsion
[ 8008 7997 7996 7995 ] final  142.60 input   59.86 | X-H torsion
[ 10167 10162 10161 10158 ] final  102.95 input  -65.29 | X-H torsion
[ 10718 10713 10712 10709 ] final  150.44 input   66.30 | X-H torsion
[ 10763 10752 10751 10750 ] final  -86.05 input  -60.55 | X-H torsion
[ 11005 11000 10999 10996 ] final -113.93 input  -57.11 | X-H torsion

> <Gold.Protein.ActiveResidues>
 VAL166  LYS551  ARG553  GLY616  TRP617  ASP618  TYR619  PRO620  LYS621  CYS622 
 ASP623  PHE694  ASN695  SER759  ASP760  ASP761  ALA762  ILE779  LEU786  VAL792 
 PHE793  MET794  SER795  GLU796  ALA797  LYS798  CYS799  TRP800  GLU811  SER814 

> <Gold.Protein.RotatedAtoms>
  152.3834  133.6577  159.6179 H   0  0  0  0  0  0  0  0  0  0  0  0  # atno 6907 bound_to 6896
  150.7759  133.9076  159.3368 H   0  0  0  0  0  0  0  0  0  0  0  0  # atno 6908 bound_to 6896
  151.6877  135.0953  160.0279 H   0  0  0  0  0  0  0  0  0  0  0  0  # atno 6909 bound_to 6896
  144.7204  140.2382  143.6295 H   0  0  0  0  0  0  0  0  0  0  0  0  # atno 7974 bound_to 7965
  156.2946  140.2284  156.4755 H   0  0  0  0  0  0  0  0  0  0  0  0  # atno 8008 bound_to 7997
  154.7898  140.0455  157.1213 H   0  0  0  0  0  0  0  0  0  0  0  0  # atno 8009 bound_to 7997
  154.9659  140.3060  155.5013 H   0  0  0  0  0  0  0  0  0  0  0  0  # atno 8010 bound_to 7997
  139.7305  144.7037  151.0730 H   0  0  0  0  0  0  0  0  0  0  0  0  # atno 10167 bound_to 10162
  157.2834  131.0840  151.1515 H   0  0  0  0  0  0  0  0  0  0  0  0  # atno 10718 bound_to 10713
  154.6180  135.5463  153.7545 H   0  0  0  0  0  0  0  0  0  0  0  0  # atno 10763 bound_to 10752
  153.0225  135.6406  154.1481 H   0  0  0  0  0  0  0  0  0  0  0  0  # atno 10764 bound_to 10752
  154.1417  135.2908  155.3139 H   0  0  0  0  0  0  0  0  0  0  0  0  # atno 10765 bound_to 10752
  141.0584  133.9576  157.2713 H   0  0  0  0  0  0  0  0  0  0  0  0  # atno 11005 bound_to 11000
  145.8345  139.2101  143.1863 LP  0  0  0  0  0  0  0  0  0  0  0  0  # atno 17320 bound_to 7965
  146.0401  140.8173  142.9833 LP  0  0  0  0  0  0  0  0  0  0  0  0  # atno 17321 bound_to 7965
  140.7770  143.5050  150.9724 LP  0  0  0  0  0  0  0  0  0  0  0  0  # atno 17342 bound_to 10162
  139.8738  143.7159  152.3164 LP  0  0  0  0  0  0  0  0  0  0  0  0  # atno 17343 bound_to 10162
  157.2940  130.6810  149.6129 LP  0  0  0  0  0  0  0  0  0  0  0  0  # atno 17370 bound_to 10713
  155.9665  130.4412  150.5331 LP  0  0  0  0  0  0  0  0  0  0  0  0  # atno 17371 bound_to 10713
  139.9410  135.0191  156.8708 LP  0  0  0  0  0  0  0  0  0  0  0  0  # atno 17394 bound_to 11000
  140.5919  134.0254  155.7503 LP  0  0  0  0  0  0  0  0  0  0  0  0  # atno 17395 bound_to 11000

$$$$
