AV-unprocessed.smi:1809|AV-procd|sdf|7315|dock6
  -GOLD-   22720 8573D 1   1.00000     0.00000
 Structure written by MMmdl.
 40 42  0  0  0  0  0  0  0  0  2 V2000
  151.0851  142.6383  157.0982 C   0  0  0  0  0  0  0  0  0  0  0  0
  150.7556  141.4626  156.2432 C   0  0  0  0  0  0  0  0  0  0  0  0
  151.4327  140.3095  156.3049 N   0  0  0  0  0  0  0  0  0  0  0  0
  150.9447  139.3644  155.4134 N   0  0  0  0  0  0  0  0  0  0  0  0
  149.9090  139.8339  154.7043 C   0  0  0  0  0  0  0  0  0  0  0  0
  149.2207  139.0777  153.7188 N   0  0  0  0  0  0  0  0  0  0  0  0
  147.9254  139.1541  153.3665 C   0  0  0  0  0  0  0  0  0  0  0  0
  147.0977  139.9238  153.8546 O   0  0  0  0  0  0  0  0  0  0  0  0
  147.6289  138.2726  152.4006 N   0  0  0  0  0  0  0  0  0  0  0  0
  146.3041  138.0952  151.8154 C   0  0  0  0  0  0  0  0  0  0  0  0
  145.3765  137.2559  152.7233 C   0  0  2  0  0  0  0  0  0  0  0  0
  146.1505  136.2450  153.6040 C   0  0  0  0  0  0  0  0  0  0  0  0
  146.5892  135.1127  152.7676 N   0  3  1  0  0  0  0  0  0  0  0  0
  147.3539  134.0303  153.4102 C   0  0  0  0  0  0  0  0  0  0  0  0
  147.1341  132.8008  152.5064 C   0  0  0  0  0  0  0  0  0  0  0  0
  146.0742  133.2252  151.4736 C   0  0  0  0  0  0  0  0  0  0  0  0
  145.4547  134.4704  152.1011 C   0  0  2  0  0  0  0  0  0  0  0  0
  144.7802  135.4853  151.1713 C   0  0  0  0  0  0  0  0  0  0  0  0
  144.3505  136.5951  151.9651 O   0  0  0  0  0  0  0  0  0  0  0  0
  149.4383  141.4836  155.0769 S   0  0  0  0  0  0  0  0  0  0  0  0
  152.1016  142.5583  157.4854 H   0  0  0  0  0  0  0  0  0  0  0  0
  150.3932  142.6922  157.9388 H   0  0  0  0  0  0  0  0  0  0  0  0
  151.0058  143.5578  156.5181 H   0  0  0  0  0  0  0  0  0  0  0  0
  149.7785  138.3896  153.2350 H   0  0  0  0  0  0  0  0  0  0  0  0
  148.3669  137.6774  152.0532 H   0  0  0  0  0  0  0  0  0  0  0  0
  145.8803  139.0801  151.6218 H   0  0  0  0  0  0  0  0  0  0  0  0
  146.4025  137.6174  150.8391 H   0  0  0  0  0  0  0  0  0  0  0  0
  144.8656  137.9430  153.3986 H   0  0  0  0  0  0  0  0  0  0  0  0
  147.0108  136.7189  154.0778 H   0  0  0  0  0  0  0  0  0  0  0  0
  145.5068  135.8771  154.4044 H   0  0  0  0  0  0  0  0  0  0  0  0
  148.4064  134.2978  153.5073 H   0  0  0  0  0  0  0  0  0  0  0  0
  146.9578  133.8364  154.4086 H   0  0  0  0  0  0  0  0  0  0  0  0
  148.0568  132.4948  152.0118 H   0  0  0  0  0  0  0  0  0  0  0  0
  146.7839  131.9555  153.0995 H   0  0  0  0  0  0  0  0  0  0  0  0
  146.5586  133.4795  150.5296 H   0  0  0  0  0  0  0  0  0  0  0  0
  145.3397  132.4440  151.2754 H   0  0  0  0  0  0  0  0  0  0  0  0
  144.7379  134.1516  152.8612 H   0  0  0  0  0  0  0  0  0  0  0  0
  145.4533  135.8104  150.3777 H   0  0  0  0  0  0  0  0  0  0  0  0
  143.9112  135.0385  150.6882 H   0  0  0  0  0  0  0  0  0  0  0  0
  147.1783  135.4855  152.0368 H   0  0  0  0  0  0  0  0  0  0  0  0
  1  2  1  0  0  0  0
  1 21  1  0  0  0  0
  1 22  1  0  0  0  0
  1 23  1  0  0  0  0
  2 20  1  0  0  0  0
  2  3  2  0  0  0  0
  3  4  1  0  0  0  0
  4  5  2  0  0  0  0
  5  6  1  0  0  0  0
  5 20  1  0  0  0  0
  6  7  1  0  0  0  0
  6 24  1  0  0  0  0
  7  8  2  0  0  0  0
  7  9  1  0  0  0  0
  9 10  1  0  0  0  0
  9 25  1  0  0  0  0
 10 11  1  0  0  0  0
 10 26  1  0  0  0  0
 10 27  1  0  0  0  0
 11 19  1  0  0  0  0
 11 12  1  0  0  0  0
 11 28  1  0  0  0  0
 12 13  1  0  0  0  0
 12 29  1  0  0  0  0
 12 30  1  0  0  0  0
 13 17  1  0  0  0  0
 13 14  1  0  0  0  0
 13 40  1  0  0  0  0
 14 15  1  0  0  0  0
 14 31  1  0  0  0  0
 14 32  1  0  0  0  0
 15 16  1  0  0  0  0
 15 33  1  0  0  0  0
 15 34  1  0  0  0  0
 16 17  1  0  0  0  0
 16 35  1  0  0  0  0
 16 36  1  0  0  0  0
 17 18  1  0  0  0  0
 17 37  1  0  0  0  0
 18 19  1  0  0  0  0
 18 38  1  0  0  0  0
 18 39  1  0  0  0  0
M  CHG  1  13   1
M  END
> <s_m_source_file>
AV-unprocessed.smi

> <i_m_source_file_index>
1809

> <i_lp_mmshare_version>
43012

> <i_f3d_flags>
0

> <s_epik_input>
W0NIM11jMW5uYyhzMSlbTkhdQyg9TylbTkhdW0NIMl1bQ0BIXShbQ0gyXTIpT1tDSDJdW0NAQEhdKE4yMylbQ0gyXVtDSDJdW0NIMl0z

> <s_epik_cmdline>
J2VwaWtfcHl0aG9uJywgJy1waCcsICc3LjAnLCAnLXRuJywgJzgnLCAnLW1hJywgJzIwMCcsICctbWV0YWxfYmluZGluZycsICctaW1hZScsICc8aW5maWxlLm1hZT4nLCAnLW9tYWUnLCAnPG91dGZpbGUubWFlPic=

> <r_lp_tautomer_probability>
1

> <r_epik_Ionization_Penalty>
0.112474

> <r_epik_Ionization_Penalty_Charging>
0.108916

> <r_epik_Ionization_Penalty_Neutral>
0.00355844

> <r_epik_State_Penalty>
0.0565397

> <r_epik_Charging_Adjusted_Penalty>
0.165456

> <i_epik_Tot_Q>
1

> <i_epik_Tot_abs_Q>
1

> <r_epik_Metal_State_Penalty>
0.422831

> <b_epik_Metal_Only>
0

> <s_lp_Force_Field>
OPLS_2005

> <r_lp_Energy>
36.9848

> <b_lp_Chiralities_Consistent>
1

> <s_lp_Variant>
AV-unprocessed.smi:1809-7

> <Gold.Version>
5.8.1

> <Gold.Id.Protein>
6NUR|6NUR_protein|mol2

> <Gold.PLP.Fitness>
38.0006

> <Gold.PLP.PLP>
-31.6326

> <Gold.PLP.part.hbond>
-3.8228

> <Gold.PLP.part.metal>
0.0000

> <Gold.PLP.part.buried>
-2.5556

> <Gold.PLP.part.nonpolar>
-27.3922

> <Gold.PLP.part.repulsive>
1.3223

> <Gold.PLP.ligand.clash>
0.0000

> <Gold.PLP.ligand.torsion>
0.6726

> <Gold.PLP.Chemscore.Hbond>
2.5680

> <Gold.PLP.Chemscore.CHOScore>
0.0000

> <Gold.PLP.Chemscore.Metal>
0.0000

> <Gold.Chemscore.Hbonds>
donor molecule, donor type, donor heavy atom, donor atom, acceptor molecule, acceptor atom, score
      L1  H     9    25       P1  7948  1.00
      L1  H    13    40       P1  7948  1.57

> <Gold.PLP.Chemscore.Internal.Correction>
0.0091

> <Gold.Rescore>
     Score         DG    S(hbond)    S(metal)    S(lipo)     H(rot)  DE(clash)    DE(int)     intcor
     14.71     -15.55       1.83        0.00      63.07       1.34       0.11       0.73       ----

> <Gold.Chemscore.Fitness>
14.7066

> <Gold.Chemscore.DG>
-15.5518

> <Gold.Chemscore.ZeroCoef>
-5.4800

> <Gold.Chemscore.Hbond>
1.8326

> <Gold.Chemscore.Metal>
0.0000

> <Gold.Chemscore.Lipo>
63.0666

> <Gold.Chemscore.Internal_Hbond>
0.0000

> <Gold.Chemscore.DEClash>
0.1128

> <Gold.Chemscore.DEInternal>
0.7324

> <Gold.Chemscore.Rot>
1.3391

> <Gold.Chemscore.Internal.Correction>
   9.000000E+99

> <Gold.Chemscore.Hbonds>
donor molecule, donor type, donor heavy atom, donor atom, acceptor molecule, acceptor atom, score
      L1  H     9    25       P1  7948  0.90
      L1  H    13    40       P1  7948  0.78

> <Gold.Chemscore.Hbond.Weighted>
-6.1210

> <Gold.Chemscore.Metal.Weighted>
-0.0000

> <Gold.Chemscore.Lipo.Weighted>
-7.3788

> <Gold.Chemscore.Internal_Hbond.Weighted>
0.0000

> <Gold.Chemscore.DEClash.Weighted>
0.1128

> <Gold.Chemscore.DEInternal.Weighted>
0.7324

> <Gold.Chemscore.Rot.Weighted>
3.4281

> <Gold.Chemscore.Internal.Correction.Weighted>
   9.000000E+99

> <Gold.Protein.RotatedTorsions>
[ 6907 6896 6895 6894 ] final  138.47 input  -60.11 | X-H torsion
[ 7974 7965 7964 7962 ] final -110.84 input  175.53 | X-H torsion
[ 8008 7997 7996 7995 ] final  -47.50 input   59.86 | X-H torsion
[ 10167 10162 10161 10158 ] final  155.38 input  -65.29 | X-H torsion
[ 10718 10713 10712 10709 ] final  -67.00 input   66.30 | X-H torsion
[ 10763 10752 10751 10750 ] final  113.42 input  -60.55 | X-H torsion
[ 11005 11000 10999 10996 ] final  -65.62 input  -57.11 | X-H torsion

> <Gold.Protein.ActiveResidues>
 VAL166  LYS551  ARG553  GLY616  TRP617  ASP618  TYR619  PRO620  LYS621  CYS622 
 ASP623  PHE694  ASN695  SER759  ASP760  ASP761  ALA762  ILE779  LEU786  VAL792 
 PHE793  MET794  SER795  GLU796  ALA797  LYS798  CYS799  TRP800  GLU811  SER814 

> <Gold.Protein.RotatedAtoms>
  152.2662  133.5341  159.5411 H   0  0  0  0  0  0  0  0  0  0  0  0  # atno 6907 bound_to 6896
  150.7143  134.0761  159.3890 H   0  0  0  0  0  0  0  0  0  0  0  0  # atno 6908 bound_to 6896
  151.8677  135.0501  160.0527 H   0  0  0  0  0  0  0  0  0  0  0  0  # atno 6909 bound_to 6896
  145.1633  140.8889  143.3578 H   0  0  0  0  0  0  0  0  0  0  0  0  # atno 7974 bound_to 7965
  154.4017  140.1345  156.4185 H   0  0  0  0  0  0  0  0  0  0  0  0  # atno 8008 bound_to 7997
  155.7665  140.3485  155.5204 H   0  0  0  0  0  0  0  0  0  0  0  0  # atno 8009 bound_to 7997
  155.8808  140.0987  157.1476 H   0  0  0  0  0  0  0  0  0  0  0  0  # atno 8010 bound_to 7997
  139.4821  144.5104  151.8033 H   0  0  0  0  0  0  0  0  0  0  0  0  # atno 10167 bound_to 10162
  156.0581  130.4271  150.1790 H   0  0  0  0  0  0  0  0  0  0  0  0  # atno 10718 bound_to 10713
  153.4922  135.3656  155.2497 H   0  0  0  0  0  0  0  0  0  0  0  0  # atno 10763 bound_to 10752
  154.8751  135.3980  154.3576 H   0  0  0  0  0  0  0  0  0  0  0  0  # atno 10764 bound_to 10752
  153.4197  135.7080  153.6368 H   0  0  0  0  0  0  0  0  0  0  0  0  # atno 10765 bound_to 10752
  141.1459  133.6685  156.6014 H   0  0  0  0  0  0  0  0  0  0  0  0  # atno 11005 bound_to 11000
  145.0308  139.3342  143.6025 LP  0  0  0  0  0  0  0  0  0  0  0  0  # atno 17320 bound_to 7965
  146.3479  139.9645  142.8713 LP  0  0  0  0  0  0  0  0  0  0  0  0  # atno 17321 bound_to 7965
  140.4606  144.1727  150.5906 LP  0  0  0  0  0  0  0  0  0  0  0  0  # atno 17342 bound_to 10162
  140.4488  143.2495  151.9375 LP  0  0  0  0  0  0  0  0  0  0  0  0  # atno 17343 bound_to 10162
  156.9863  130.9879  151.3425 LP  0  0  0  0  0  0  0  0  0  0  0  0  # atno 17370 bound_to 10713
  157.5569  130.8219  149.8215 LP  0  0  0  0  0  0  0  0  0  0  0  0  # atno 17371 bound_to 10713
  140.3685  134.7626  157.4583 LP  0  0  0  0  0  0  0  0  0  0  0  0  # atno 17394 bound_to 11000
  140.0729  134.5838  155.8623 LP  0  0  0  0  0  0  0  0  0  0  0  0  # atno 17395 bound_to 11000

$$$$
