AV-unprocessed.smi:2499|AV-procd|sdf|9840|dock5
  -GOLD-   2272013463D 1   1.00000     0.00000
 Structure written by MMmdl.
 26 27  0  0  0  0  0  0  0  0  2 V2000
  151.9982  144.3290  157.4485 C   0  0  0  0  0  0  0  0  0  0  0  0
  151.7463  143.3341  158.5897 C   0  0  1  0  0  0  0  0  0  0  0  0
  152.1237  141.9991  158.1336 N   0  0  0  0  0  0  0  0  0  0  0  0
  151.7157  141.3997  157.0052 C   0  0  0  0  0  0  0  0  0  0  0  0
  150.9498  141.9862  156.2372 O   0  0  0  0  0  0  0  0  0  0  0  0
  152.2212  140.1567  156.8371 N   0  5  0  0  0  0  0  0  0  0  0  0
  151.7717  139.3824  155.8365 C   0  0  0  0  0  0  0  0  0  0  0  0
  152.2059  138.1596  155.5261 N   0  0  0  0  0  0  0  0  0  0  0  0
  151.4503  137.7540  154.4369 C   0  0  0  0  0  0  0  0  0  0  0  0
  150.5736  138.7603  154.1364 C   0  0  0  0  0  0  0  0  0  0  0  0
  150.7643  139.7915  155.0142 O   0  0  0  0  0  0  0  0  0  0  0  0
  152.4676  143.7691  159.8550 C   0  0  0  0  0  0  0  0  0  0  0  0
  151.8045  143.6824  161.2098 C   0  0  0  0  0  0  0  0  0  0  0  0
  152.0676  145.0314  160.5824 C   0  0  0  0  0  0  0  0  0  0  0  0
  151.6761  145.3334  157.7244 H   0  0  0  0  0  0  0  0  0  0  0  0
  151.4491  144.0442  156.5504 H   0  0  0  0  0  0  0  0  0  0  0  0
  153.0568  144.3780  157.1908 H   0  0  0  0  0  0  0  0  0  0  0  0
  150.6735  143.3400  158.7918 H   0  0  0  0  0  0  0  0  0  0  0  0
  152.7518  141.4787  158.7281 H   0  0  0  0  0  0  0  0  0  0  0  0
  151.5938  136.7918  153.9685 H   0  0  0  0  0  0  0  0  0  0  0  0
  149.8069  138.8928  153.3880 H   0  0  0  0  0  0  0  0  0  0  0  0
  153.5362  143.5627  159.8360 H   0  0  0  0  0  0  0  0  0  0  0  0
  150.7714  143.3430  161.2508 H   0  0  0  0  0  0  0  0  0  0  0  0
  152.4256  143.3866  162.0525 H   0  0  0  0  0  0  0  0  0  0  0  0
  152.8635  145.6386  161.0089 H   0  0  0  0  0  0  0  0  0  0  0  0
  151.2097  145.5845  160.2052 H   0  0  0  0  0  0  0  0  0  0  0  0
  1  2  1  0  0  0  0
  1 15  1  0  0  0  0
  1 16  1  0  0  0  0
  1 17  1  0  0  0  0
  2  3  1  0  0  0  0
  2 12  1  0  0  0  0
  2 18  1  0  0  0  0
  3 19  1  0  0  0  0
  3  4  1  0  0  0  0
  4  6  1  0  0  0  0
  4  5  2  0  0  0  0
  6  7  1  0  0  0  0
  7 11  1  0  0  0  0
  7  8  2  0  0  0  0
  8  9  1  0  0  0  0
  9 20  1  0  0  0  0
  9 10  2  0  0  0  0
 10 21  1  0  0  0  0
 10 11  1  0  0  0  0
 12 14  1  0  0  0  0
 12 13  1  0  0  0  0
 12 22  1  0  0  0  0
 13 14  1  0  0  0  0
 13 23  1  0  0  0  0
 13 24  1  0  0  0  0
 14 25  1  0  0  0  0
 14 26  1  0  0  0  0
M  CHG  1   6  -1
M  END
> <s_m_source_file>
AV-unprocessed.smi

> <i_m_source_file_index>
2499

> <i_lp_mmshare_version>
43012

> <i_f3d_flags>
0

> <s_epik_input>
W0NIMl0xW0NIMl1bQ0hdMVtDQEhdKFtDSDNdKVtOSF1DKD1PKVtOSF1jMm5bY0hdW2NIXW8y

> <s_epik_cmdline>
J2VwaWtfcHl0aG9uJywgJy1waCcsICc3LjAnLCAnLXRuJywgJzgnLCAnLW1hJywgJzIwMCcsICctbWV0YWxfYmluZGluZycsICctaW1hZScsICc8aW5maWxlLm1hZT4nLCAnLW9tYWUnLCAnPG91dGZpbGUubWFlPic=

> <r_lp_tautomer_probability>
0.107061

> <r_epik_Ionization_Penalty>
11.2144

> <r_epik_Ionization_Penalty_Charging>
7.87172

> <r_epik_Ionization_Penalty_Neutral>
3.3427

> <r_epik_State_Penalty>
5.96777

> <r_epik_Charging_Adjusted_Penalty>
13.8395

> <i_epik_Tot_Q>
-1

> <i_epik_Tot_abs_Q>
1

> <r_epik_Metal_State_Penalty>
1.88989

> <b_epik_Metal_Only>
1

> <s_lp_Force_Field>
OPLS_2005

> <r_lp_Energy>
7.96156

> <b_lp_Chiralities_Consistent>
1

> <s_lp_Variant>
AV-unprocessed.smi:2499-10

> <Gold.Version>
5.8.1

> <Gold.Id.Protein>
6NUR|6NUR_protein|mol2

> <Gold.PLP.Fitness>
42.5270

> <Gold.PLP.PLP>
-29.5469

> <Gold.PLP.part.hbond>
-1.9891

> <Gold.PLP.part.metal>
0.0000

> <Gold.PLP.part.buried>
-2.9468

> <Gold.PLP.part.nonpolar>
-23.3373

> <Gold.PLP.part.repulsive>
0.2214

> <Gold.PLP.ligand.clash>
0.0000

> <Gold.PLP.ligand.torsion>
0.6714

> <Gold.PLP.Chemscore.Hbond>
2.4461

> <Gold.PLP.Chemscore.CHOScore>
1.9688

> <Gold.PLP.Chemscore.Metal>
0.0000

> <Gold.Chemscore.Hbonds>
donor molecule, donor type, donor heavy atom, donor atom, acceptor molecule, acceptor atom, score
      P1  H  7989  7998       L1    11  0.42
      P1  H  7997  8010       L1     6  1.43
      L1  C     9    20       P1  7949  0.73
      L1  C    10    21       P1  7957  1.00

> <Gold.PLP.Chemscore.Internal.Correction>
1.0783

> <Gold.Rescore>
     Score         DG    S(hbond)    S(metal)    S(lipo)     H(rot)  DE(clash)    DE(int)     intcor
     10.17     -14.12       0.90        0.00      76.06       1.28       0.21       3.74       ----

> <Gold.Chemscore.Fitness>
10.1674

> <Gold.Chemscore.DG>
-14.1170

> <Gold.Chemscore.ZeroCoef>
-5.4800

> <Gold.Chemscore.Hbond>
0.9010

> <Gold.Chemscore.Metal>
0.0000

> <Gold.Chemscore.Lipo>
76.0575

> <Gold.Chemscore.Internal_Hbond>
0.0000

> <Gold.Chemscore.DEClash>
0.2057

> <Gold.Chemscore.DEInternal>
3.7439

> <Gold.Chemscore.Rot>
1.2778

> <Gold.Chemscore.Internal.Correction>
   9.000000E+99

> <Gold.Chemscore.Hbonds>
donor molecule, donor type, donor heavy atom, donor atom, acceptor molecule, acceptor atom, score
      P1  H  7989  7998       L1    11  0.01
      P1  H  7997  8010       L1     6  0.21

> <Gold.Chemscore.Hbond.Weighted>
-3.0093

> <Gold.Chemscore.Metal.Weighted>
-0.0000

> <Gold.Chemscore.Lipo.Weighted>
-8.8987

> <Gold.Chemscore.Internal_Hbond.Weighted>
0.0000

> <Gold.Chemscore.DEClash.Weighted>
0.2057

> <Gold.Chemscore.DEInternal.Weighted>
3.7439

> <Gold.Chemscore.Rot.Weighted>
3.2711

> <Gold.Chemscore.Internal.Correction.Weighted>
   9.000000E+99

> <Gold.Protein.RotatedTorsions>
[ 6907 6896 6895 6894 ] final   62.74 input  -60.11 | X-H torsion
[ 7974 7965 7964 7962 ] final -123.42 input  175.53 | X-H torsion
[ 8008 7997 7996 7995 ] final   66.68 input   59.86 | X-H torsion
[ 10167 10162 10161 10158 ] final   53.12 input  -65.29 | X-H torsion
[ 10718 10713 10712 10709 ] final   96.38 input   66.30 | X-H torsion
[ 10763 10752 10751 10750 ] final   63.46 input  -60.55 | X-H torsion
[ 11005 11000 10999 10996 ] final -147.06 input  -57.11 | X-H torsion

> <Gold.Protein.ActiveResidues>
 VAL166  LYS551  ARG553  GLY616  TRP617  ASP618  TYR619  PRO620  LYS621  CYS622 
 ASP623  PHE694  ASN695  SER759  ASP760  ASP761  ALA762  ILE779  LEU786  VAL792 
 PHE793  MET794  SER795  GLU796  ALA797  LYS798  CYS799  TRP800  GLU811  SER814 

> <Gold.Protein.RotatedAtoms>
  152.4197  134.5978  159.9991 H   0  0  0  0  0  0  0  0  0  0  0  0  # atno 6907 bound_to 6896
  151.6132  133.3340  159.3080 H   0  0  0  0  0  0  0  0  0  0  0  0  # atno 6908 bound_to 6896
  150.8085  134.7263  159.6732 H   0  0  0  0  0  0  0  0  0  0  0  0  # atno 6909 bound_to 6896
  145.0189  140.7971  143.4393 H   0  0  0  0  0  0  0  0  0  0  0  0  # atno 7974 bound_to 7965
  155.6811  140.3496  155.4855 H   0  0  0  0  0  0  0  0  0  0  0  0  # atno 8008 bound_to 7997
  155.9606  140.1136  157.0921 H   0  0  0  0  0  0  0  0  0  0  0  0  # atno 8009 bound_to 7997
  154.4142  140.1176  156.5160 H   0  0  0  0  0  0  0  0  0  0  0  0  # atno 8010 bound_to 7997
  140.2441  144.3551  150.6370 H   0  0  0  0  0  0  0  0  0  0  0  0  # atno 10167 bound_to 10162
  157.6927  131.0576  150.4482 H   0  0  0  0  0  0  0  0  0  0  0  0  # atno 10718 bound_to 10713
  153.0019  135.5428  154.6355 H   0  0  0  0  0  0  0  0  0  0  0  0  # atno 10763 bound_to 10752
  154.5623  135.2835  155.0910 H   0  0  0  0  0  0  0  0  0  0  0  0  # atno 10764 bound_to 10752
  154.2108  135.6468  153.5167 H   0  0  0  0  0  0  0  0  0  0  0  0  # atno 10765 bound_to 10752
  140.7755  134.3139  157.5062 H   0  0  0  0  0  0  0  0  0  0  0  0  # atno 11005 bound_to 11000
  145.1922  139.2295  143.5236 LP  0  0  0  0  0  0  0  0  0  0  0  0  # atno 17320 bound_to 7965
  146.3482  140.1721  142.8589 LP  0  0  0  0  0  0  0  0  0  0  0  0  # atno 17321 bound_to 7965
  140.6091  143.2169  151.6922 LP  0  0  0  0  0  0  0  0  0  0  0  0  # atno 17342 bound_to 10162
  139.5067  144.3671  152.0506 LP  0  0  0  0  0  0  0  0  0  0  0  0  # atno 17343 bound_to 10162
  156.4835  130.4079  149.6447 LP  0  0  0  0  0  0  0  0  0  0  0  0  # atno 17370 bound_to 10713
  156.3484  130.7419  151.2375 LP  0  0  0  0  0  0  0  0  0  0  0  0  # atno 17371 bound_to 10713
  139.8749  134.9287  156.3457 LP  0  0  0  0  0  0  0  0  0  0  0  0  # atno 17394 bound_to 11000
  140.9533  133.7437  156.0301 LP  0  0  0  0  0  0  0  0  0  0  0  0  # atno 17395 bound_to 11000

$$$$
