AV-unprocessed.smi:1|AV-procd|sdf|16|dock9
  -GOLD-   2262015113D 1   1.00000     0.00000
 Structure written by MMmdl.
 57 62  0  0  0  0  0  0  0  0  1 V2000
  154.9923  139.6056  160.8108 O   0  0  0  0  0  0  0  0  0  0  0  0
  154.2411  140.2852  160.1057 C   0  0  0  0  0  0  0  0  0  0  0  0
  153.7983  140.0351  158.8133 N   0  0  0  0  0  0  0  0  0  0  0  0
  152.8867  139.1352  158.5991 C   0  0  0  0  0  0  0  0  0  0  0  0
  152.1727  138.2876  159.4563 N   0  0  0  0  0  0  0  0  0  0  0  0
  151.1867  137.3662  159.0699 C   0  0  0  0  0  0  0  0  0  0  0  0
  150.7946  137.1629  157.8404 N   0  0  0  0  0  0  0  0  0  0  0  0
  151.4826  137.9728  156.9478 C   0  0  0  0  0  0  0  0  0  0  0  0
  152.4619  138.9083  157.2011 C   0  0  0  0  0  0  0  0  0  0  0  0
  152.8977  139.4988  156.0201 N   0  0  0  0  0  0  0  0  0  0  0  0
  152.1582  138.8872  155.0985 C   0  0  0  0  0  0  0  0  0  0  0  0
  151.2965  137.9633  155.5690 N   0  0  0  0  0  0  0  0  0  0  0  0
  150.3338  137.1099  154.7972 C   0  0  1  0  0  0  0  0  0  0  0  0
  149.8731  136.0879  155.6313 O   0  0  0  0  0  0  0  0  0  0  0  0
  148.5750  136.4137  156.1088 C   0  0  2  0  0  0  0  0  0  0  0  0
  147.8406  135.1671  156.6204 C   0  0  0  0  0  0  0  0  0  0  0  0
  147.1870  135.4475  157.8483 O   0  0  0  0  0  0  0  0  0  0  0  0
  147.8826  135.4444  159.0010 C   0  0  0  0  0  0  0  0  0  0  0  0
  149.1088  135.5574  159.0587 O   0  0  0  0  0  0  0  0  0  0  0  0
  147.0117  135.2941  160.2023 C   0  0  0  0  0  0  0  0  0  0  0  0
  145.6304  135.0431  160.0299 C   0  0  0  0  0  0  0  0  0  0  0  0
  144.7837  134.8929  161.1454 C   0  0  0  0  0  0  0  0  0  0  0  0
  145.3080  134.9932  162.4473 C   0  0  0  0  0  0  0  0  0  0  0  0
  146.6801  135.2440  162.6323 C   0  0  0  0  0  0  0  0  0  0  0  0
  147.5286  135.3937  161.5179 C   0  0  0  0  0  0  0  0  0  0  0  0
  147.9220  137.1285  154.9242 C   0  0  1  0  0  0  0  0  0  0  0  0
  146.9127  138.0328  155.3374 O   0  0  0  0  0  0  0  0  0  0  0  0
  147.5843  139.5524  155.5100 S   0  0  0  0  0  0  0  0  0  0  0  0
  146.8833  140.4719  154.6010 O   0  0  0  0  0  0  0  0  0  0  0  0
  147.7442  139.8263  156.9463 O   0  0  0  0  0  0  0  0  0  0  0  0
  149.0928  139.2330  154.8720 O   0  0  0  0  0  0  0  0  0  0  0  0
  149.1003  137.9181  154.3349 C   0  0  1  0  0  0  0  0  0  0  0  0
  153.6654  141.5315  160.6957 C   0  0  0  0  0  0  0  0  0  0  0  0
  153.7230  141.7456  162.0894 C   0  0  0  0  0  0  0  0  0  0  0  0
  153.1742  142.9169  162.6475 C   0  0  0  0  0  0  0  0  0  0  0  0
  152.5650  143.8758  161.8151 C   0  0  0  0  0  0  0  0  0  0  0  0
  152.5026  143.6631  160.4241 C   0  0  0  0  0  0  0  0  0  0  0  0
  153.0514  142.4926  159.8644 C   0  0  0  0  0  0  0  0  0  0  0  0
  150.7511  136.8090  159.9007 H   0  0  0  0  0  0  0  0  0  0  0  0
  152.2509  139.1229  154.0488 H   0  0  0  0  0  0  0  0  0  0  0  0
  150.9263  136.6989  153.9791 H   0  0  0  0  0  0  0  0  0  0  0  0
  148.6944  137.1150  156.9355 H   0  0  0  0  0  0  0  0  0  0  0  0
  147.1111  134.8323  155.8820 H   0  0  0  0  0  0  0  0  0  0  0  0
  148.5558  134.3560  156.7648 H   0  0  0  0  0  0  0  0  0  0  0  0
  145.2051  134.9618  159.0400 H   0  0  0  0  0  0  0  0  0  0  0  0
  143.7308  134.7002  161.0013 H   0  0  0  0  0  0  0  0  0  0  0  0
  144.6588  134.8781  163.3027 H   0  0  0  0  0  0  0  0  0  0  0  0
  147.0837  135.3216  163.6311 H   0  0  0  0  0  0  0  0  0  0  0  0
  148.5766  135.5856  161.6959 H   0  0  0  0  0  0  0  0  0  0  0  0
  147.5372  136.4232  154.1872 H   0  0  0  0  0  0  0  0  0  0  0  0
  149.0623  137.9637  153.2461 H   0  0  0  0  0  0  0  0  0  0  0  0
  154.1864  141.0134  162.7347 H   0  0  0  0  0  0  0  0  0  0  0  0
  153.2193  143.0789  163.7145 H   0  0  0  0  0  0  0  0  0  0  0  0
  152.1438  144.7732  162.2440 H   0  0  0  0  0  0  0  0  0  0  0  0
  152.0332  144.3972  159.7862 H   0  0  0  0  0  0  0  0  0  0  0  0
  152.9979  142.3358  158.7966 H   0  0  0  0  0  0  0  0  0  0  0  0
  152.3832  138.3506  160.4420 H   0  0  0  0  0  0  0  0  0  0  0  0
  1  2  2  0  0  0  0
  2  3  1  0  0  0  0
  2 33  1  0  0  0  0
  3  4  2  0  0  0  0
  4  9  1  0  0  0  0
  4  5  1  0  0  0  0
  5  6  1  0  0  0  0
  5 57  1  0  0  0  0
  6  7  2  0  0  0  0
  6 39  1  0  0  0  0
  7  8  1  0  0  0  0
  8 12  1  0  0  0  0
  8  9  2  0  0  0  0
  9 10  1  0  0  0  0
 10 11  2  0  0  0  0
 11 12  1  0  0  0  0
 11 40  1  0  0  0  0
 12 13  1  0  0  0  0
 13 32  1  0  0  0  0
 13 14  1  0  0  0  0
 13 41  1  0  0  0  0
 14 15  1  0  0  0  0
 15 16  1  0  0  0  0
 15 26  1  0  0  0  0
 15 42  1  0  0  0  0
 16 17  1  0  0  0  0
 16 43  1  0  0  0  0
 16 44  1  0  0  0  0
 17 18  1  0  0  0  0
 18 19  2  0  0  0  0
 18 20  1  0  0  0  0
 20 25  1  0  0  0  0
 20 21  2  0  0  0  0
 21 22  1  0  0  0  0
 21 45  1  0  0  0  0
 22 23  2  0  0  0  0
 22 46  1  0  0  0  0
 23 24  1  0  0  0  0
 23 47  1  0  0  0  0
 24 25  2  0  0  0  0
 24 48  1  0  0  0  0
 25 49  1  0  0  0  0
 26 32  1  0  0  0  0
 26 27  1  0  0  0  0
 26 50  1  0  0  0  0
 27 28  1  0  0  0  0
 28 29  2  0  0  0  0
 28 30  2  0  0  0  0
 28 31  1  0  0  0  0
 31 32  1  0  0  0  0
 32 51  1  0  0  0  0
 33 38  1  0  0  0  0
 33 34  2  0  0  0  0
 34 35  1  0  0  0  0
 34 52  1  0  0  0  0
 35 36  2  0  0  0  0
 35 53  1  0  0  0  0
 36 37  1  0  0  0  0
 36 54  1  0  0  0  0
 37 38  2  0  0  0  0
 37 55  1  0  0  0  0
 38 56  1  0  0  0  0
M  END
> <s_m_source_file>
AV-unprocessed.smi

> <i_m_source_file_index>
1

> <i_lp_mmshare_version>
43012

> <i_f3d_flags>
0

> <s_epik_input>
W2NIXTFbY0hdW2NIXVtjSF1bY0hdYzFDKD1PKVtOSF1jKG5bY0hdbjIpYyhjMjMpbltjSF1uM1tDQEBIXShbQ0BIXShbQ0BIXTQ1KU9TKE81KSg9Tyk9TylPW0NASF00W0NIMl1PQyg9TyljNltjSF1bY0hdW2NIXVtjSF1bY0hdNg==

> <s_epik_cmdline>
J2VwaWtfcHl0aG9uJywgJy1waCcsICc3LjAnLCAnLXRuJywgJzgnLCAnLW1hJywgJzIwMCcsICctbWV0YWxfYmluZGluZycsICctaW1hZScsICc8aW5maWxlLm1hZT4nLCAnLW9tYWUnLCAnPG91dGZpbGUubWFlPic=

> <r_epik_Ionization_Penalty>
0.122545

> <r_epik_Ionization_Penalty_Charging>
0.122545

> <r_epik_Ionization_Penalty_Neutral>
7.8935e-16

> <r_epik_State_Penalty>
2.69178

> <r_epik_Charging_Adjusted_Penalty>
2.81433

> <i_epik_Tot_Q>
0

> <i_epik_Tot_abs_Q>
0

> <r_epik_Metal_State_Penalty>
3.02665

> <b_epik_Metal_Only>
0

> <s_epik_Chemistry_Notes>
This compound has an ester and may undergo hydrolysis at high or low pH. This compound contains an acetal/aminal-like group ( X-CH(R)-Y where X, Y are N, S, or O) that may be acid/base labile, releasing an aldehyde.

> <s_lp_Force_Field>
OPLS_2005

> <r_lp_Energy>
59.1261

> <b_lp_Chiralities_Consistent>
1

> <s_lp_Variant>
AV-unprocessed.smi:1-16

> <Gold.Version>
5.8.1

> <Gold.Id.Protein>
6NUR|6NUR_protein|mol2

> <Gold.PLP.Fitness>
56.6852

> <Gold.PLP.PLP>
-54.0505

> <Gold.PLP.part.hbond>
-3.0000

> <Gold.PLP.part.metal>
0.0000

> <Gold.PLP.part.buried>
-6.1482

> <Gold.PLP.part.nonpolar>
-44.6419

> <Gold.PLP.part.repulsive>
0.3738

> <Gold.PLP.ligand.clash>
0.0000

> <Gold.PLP.ligand.torsion>
2.2101

> <Gold.PLP.Chemscore.Hbond>
2.2184

> <Gold.PLP.Chemscore.CHOScore>
0.0000

> <Gold.PLP.Chemscore.Metal>
0.0000

> <Gold.Chemscore.Hbonds>
donor molecule, donor type, donor heavy atom, donor atom, acceptor molecule, acceptor atom, score
      P1  H  6896  6908       L1    19  1.00
      P1  H  7997  8008       L1     3  0.31
      P1  H  7997  8009       L1    10  1.00

> <Gold.PLP.Chemscore.Internal.Correction>
0.3996

> <Gold.Rescore>
     Score         DG    S(hbond)    S(metal)    S(lipo)     H(rot)  DE(clash)    DE(int)     intcor
     14.34     -19.93       1.92        0.00     115.53       2.13       0.39       5.20       ----

> <Gold.Chemscore.Fitness>
14.3431

> <Gold.Chemscore.DG>
-19.9340

> <Gold.Chemscore.ZeroCoef>
-5.4800

> <Gold.Chemscore.Hbond>
1.9156

> <Gold.Chemscore.Metal>
0.0000

> <Gold.Chemscore.Lipo>
115.5318

> <Gold.Chemscore.Internal_Hbond>
0.0000

> <Gold.Chemscore.DEClash>
0.3921

> <Gold.Chemscore.DEInternal>
5.1989

> <Gold.Chemscore.Rot>
2.1333

> <Gold.Chemscore.Internal.Correction>
   9.000000E+99

> <Gold.Chemscore.Hbonds>
donor molecule, donor type, donor heavy atom, donor atom, acceptor molecule, acceptor atom, score
      P1  H  6896  6908       L1    19  1.00
      P1  H  7997  8008       L1     3  0.24
      P1  H  7997  8009       L1    10  0.91

> <Gold.Chemscore.Hbond.Weighted>
-6.3982

> <Gold.Chemscore.Metal.Weighted>
-0.0000

> <Gold.Chemscore.Lipo.Weighted>
-13.5172

> <Gold.Chemscore.Internal_Hbond.Weighted>
0.0000

> <Gold.Chemscore.DEClash.Weighted>
0.3921

> <Gold.Chemscore.DEInternal.Weighted>
5.1989

> <Gold.Chemscore.Rot.Weighted>
5.4614

> <Gold.Chemscore.Internal.Correction.Weighted>
   9.000000E+99

> <Gold.Protein.RotatedTorsions>
[ 6907 6896 6895 6894 ] final  179.98 input  -60.11 | X-H torsion
[ 7974 7965 7964 7962 ] final  169.94 input  175.53 | X-H torsion
[ 8008 7997 7996 7995 ] final -138.08 input   59.86 | X-H torsion
[ 10167 10162 10161 10158 ] final   47.59 input  -65.29 | X-H torsion
[ 10718 10713 10712 10709 ] final   86.82 input   66.30 | X-H torsion
[ 10763 10752 10751 10750 ] final  -88.29 input  -60.55 | X-H torsion
[ 11005 11000 10999 10996 ] final    5.86 input  -57.11 | X-H torsion

> <Gold.Protein.ActiveResidues>
 VAL166  LYS551  ARG553  GLY616  TRP617  ASP618  TYR619  PRO620  LYS621  CYS622 
 ASP623  PHE694  ASN695  SER759  ASP760  ASP761  ALA762  ILE779  LEU786  VAL792 
 PHE793  MET794  SER795  GLU796  ALA797  LYS798  CYS799  TRP800  GLU811  SER814 

> <Gold.Protein.RotatedAtoms>
  151.6629  133.3316  159.3178 H   0  0  0  0  0  0  0  0  0  0  0  0  # atno 6907 bound_to 6896
  150.7904  134.6928  159.6516 H   0  0  0  0  0  0  0  0  0  0  0  0  # atno 6908 bound_to 6896
  152.3983  134.6332  160.0132 H   0  0  0  0  0  0  0  0  0  0  0  0  # atno 6909 bound_to 6896
  144.7339  139.9129  143.6416 H   0  0  0  0  0  0  0  0  0  0  0  0  # atno 7974 bound_to 7965
  155.4225  140.0519  157.3024 H   0  0  0  0  0  0  0  0  0  0  0  0  # atno 8008 bound_to 7997
  154.4896  140.2115  155.9536 H   0  0  0  0  0  0  0  0  0  0  0  0  # atno 8009 bound_to 7997
  156.1324  140.3169  155.8374 H   0  0  0  0  0  0  0  0  0  0  0  0  # atno 8010 bound_to 7997
  140.3021  144.2921  150.6217 H   0  0  0  0  0  0  0  0  0  0  0  0  # atno 10167 bound_to 10162
  157.6933  131.0231  150.3030 H   0  0  0  0  0  0  0  0  0  0  0  0  # atno 10718 bound_to 10713
  154.6430  135.5382  153.7811 H   0  0  0  0  0  0  0  0  0  0  0  0  # atno 10763 bound_to 10752
  153.0344  135.6464  154.1131 H   0  0  0  0  0  0  0  0  0  0  0  0  # atno 10764 bound_to 10752
  154.1054  135.2930  155.3222 H   0  0  0  0  0  0  0  0  0  0  0  0  # atno 10765 bound_to 10752
  140.5660  134.0147  155.7990 H   0  0  0  0  0  0  0  0  0  0  0  0  # atno 11005 bound_to 11000
  146.0987  139.3981  143.0360 LP  0  0  0  0  0  0  0  0  0  0  0  0  # atno 17320 bound_to 7965
  145.7609  140.9936  143.1200 LP  0  0  0  0  0  0  0  0  0  0  0  0  # atno 17321 bound_to 7965
  140.5642  143.2188  151.7713 LP  0  0  0  0  0  0  0  0  0  0  0  0  # atno 17342 bound_to 10162
  139.4912  144.4307  151.9875 LP  0  0  0  0  0  0  0  0  0  0  0  0  # atno 17343 bound_to 10162
  156.3543  130.3836  149.7303 LP  0  0  0  0  0  0  0  0  0  0  0  0  # atno 17370 bound_to 10713
  156.4771  130.8023  151.3039 LP  0  0  0  0  0  0  0  0  0  0  0  0  # atno 17371 bound_to 10713
  141.1086  133.9654  157.2952 LP  0  0  0  0  0  0  0  0  0  0  0  0  # atno 17394 bound_to 11000
  139.9385  135.0194  156.8632 LP  0  0  0  0  0  0  0  0  0  0  0  0  # atno 17395 bound_to 11000

$$$$
