AV-unprocessed.smi:620|AV-procd|sdf|3088|dock1
  -GOLD-   22720 0 13D 1   1.00000     0.00000
 Structure written by MMmdl.
 32 34  0  0  0  0  0  0  0  0  2 V2000
  150.7052  135.0399  156.7758 C   0  0  0  0  0  0  0  0  0  0  0  0
  151.3645  136.3681  156.6266 C   0  0  0  0  0  0  0  0  0  0  0  0
  151.9630  136.7597  155.5008 N   0  0  0  0  0  0  0  0  0  0  0  0
  152.5018  138.0319  155.6137 N   0  0  0  0  0  0  0  0  0  0  0  0
  152.3076  138.5957  156.8206 C   0  0  0  0  0  0  0  0  0  0  0  0
  152.7250  139.8219  157.2094 N   0  5  0  0  0  0  0  0  0  0  0  0
  152.5086  140.3792  158.4285 C   0  0  0  0  0  0  0  0  0  0  0  0
  152.5407  139.8162  159.5244 O   0  0  0  0  0  0  0  0  0  0  0  0
  152.2337  141.6908  158.3606 N   0  0  0  0  0  0  0  0  0  0  0  0
  151.9474  142.5930  159.4738 C   0  0  0  0  0  0  0  0  0  0  0  0
  151.4973  143.9588  158.9882 C   0  0  0  0  0  0  0  0  0  0  0  0
  152.4665  144.9315  158.3590 C   0  0  0  0  0  0  0  0  0  0  0  0
  151.8897  145.2148  159.7281 C   0  0  0  0  0  0  0  0  0  0  0  0
  153.1345  142.7258  160.4103 C   0  0  0  0  0  0  0  0  0  0  0  0
  153.4889  141.6225  161.3778 C   0  0  0  0  0  0  0  0  0  0  0  0
  152.9486  142.9373  161.8942 C   0  0  0  0  0  0  0  0  0  0  0  0
  151.4164  137.5471  157.9240 S   0  0  0  0  0  0  0  0  0  0  0  0
  150.7812  134.4663  155.8513 H   0  0  0  0  0  0  0  0  0  0  0  0
  149.6511  135.1726  157.0190 H   0  0  0  0  0  0  0  0  0  0  0  0
  151.1823  134.4756  157.5771 H   0  0  0  0  0  0  0  0  0  0  0  0
  152.2214  142.1022  157.4390 H   0  0  0  0  0  0  0  0  0  0  0  0
  151.1262  142.1877  160.0674 H   0  0  0  0  0  0  0  0  0  0  0  0
  150.4943  143.9573  158.5648 H   0  0  0  0  0  0  0  0  0  0  0  0
  153.5160  144.6485  158.3095 H   0  0  0  0  0  0  0  0  0  0  0  0
  152.1056  145.5313  157.5263 H   0  0  0  0  0  0  0  0  0  0  0  0
  151.1434  146.0025  159.8090 H   0  0  0  0  0  0  0  0  0  0  0  0
  152.5526  145.1104  160.5851 H   0  0  0  0  0  0  0  0  0  0  0  0
  153.9790  143.2491  159.9650 H   0  0  0  0  0  0  0  0  0  0  0  0
  152.8310  140.7565  161.4199 H   0  0  0  0  0  0  0  0  0  0  0  0
  154.5452  141.4138  161.5346 H   0  0  0  0  0  0  0  0  0  0  0  0
  153.6447  143.6055  162.3966 H   0  0  0  0  0  0  0  0  0  0  0  0
  151.9343  142.9387  162.2879 H   0  0  0  0  0  0  0  0  0  0  0  0
  1  2  1  0  0  0  0
  1 18  1  0  0  0  0
  1 19  1  0  0  0  0
  1 20  1  0  0  0  0
  2 17  1  0  0  0  0
  2  3  2  0  0  0  0
  3  4  1  0  0  0  0
  4  5  2  0  0  0  0
  5  6  1  0  0  0  0
  5 17  1  0  0  0  0
  6  7  1  0  0  0  0
  7  8  2  0  0  0  0
  7  9  1  0  0  0  0
  9 10  1  0  0  0  0
  9 21  1  0  0  0  0
 10 11  1  0  0  0  0
 10 14  1  0  0  0  0
 10 22  1  0  0  0  0
 11 13  1  0  0  0  0
 11 12  1  0  0  0  0
 11 23  1  0  0  0  0
 12 13  1  0  0  0  0
 12 24  1  0  0  0  0
 12 25  1  0  0  0  0
 13 26  1  0  0  0  0
 13 27  1  0  0  0  0
 14 16  1  0  0  0  0
 14 15  1  0  0  0  0
 14 28  1  0  0  0  0
 15 16  1  0  0  0  0
 15 29  1  0  0  0  0
 15 30  1  0  0  0  0
 16 31  1  0  0  0  0
 16 32  1  0  0  0  0
M  CHG  1   6  -1
M  END
> <s_m_source_file>
AV-unprocessed.smi

> <i_m_source_file_index>
620

> <i_lp_mmshare_version>
43012

> <i_f3d_flags>
0

> <s_epik_input>
W0NIM11jMW5uYyhzMSlbTkhdQyg9TylbTkhdW0NIXShbQ0hdMltDSDJdW0NIMl0yKVtDSF0zW0NIMl1bQ0gyXTM=

> <s_epik_cmdline>
J2VwaWtfcHl0aG9uJywgJy1waCcsICc3LjAnLCAnLXRuJywgJzgnLCAnLW1hJywgJzIwMCcsICctbWV0YWxfYmluZGluZycsICctaW1hZScsICc8aW5maWxlLm1hZT4nLCAnLW9tYWUnLCAnPG91dGZpbGUubWFlPic=

> <r_lp_tautomer_probability>
1

> <r_epik_Ionization_Penalty>
4.60723

> <r_epik_Ionization_Penalty_Charging>
4.45392

> <r_epik_Ionization_Penalty_Neutral>
0.153307

> <r_epik_State_Penalty>
4.4536

> <r_epik_Charging_Adjusted_Penalty>
8.90752

> <i_epik_Tot_Q>
-1

> <i_epik_Tot_abs_Q>
1

> <r_epik_Metal_State_Penalty>
0.796734

> <b_epik_Metal_Only>
1

> <s_lp_Force_Field>
OPLS_2005

> <r_lp_Energy>
26.5225

> <b_lp_Chiralities_Consistent>
1

> <s_lp_Variant>
AV-unprocessed.smi:620-2

> <Gold.Version>
5.8.1

> <Gold.Id.Protein>
6NUR|6NUR_protein|mol2

> <Gold.PLP.Fitness>
45.2085

> <Gold.PLP.PLP>
-36.9671

> <Gold.PLP.part.hbond>
-2.0000

> <Gold.PLP.part.metal>
0.0000

> <Gold.PLP.part.buried>
-5.4395

> <Gold.PLP.part.nonpolar>
-29.0400

> <Gold.PLP.part.repulsive>
0.1719

> <Gold.PLP.ligand.clash>
0.0000

> <Gold.PLP.ligand.torsion>
1.4549

> <Gold.PLP.Chemscore.Hbond>
3.0000

> <Gold.PLP.Chemscore.CHOScore>
0.0000

> <Gold.PLP.Chemscore.Metal>
0.0000

> <Gold.Chemscore.Hbonds>
donor molecule, donor type, donor heavy atom, donor atom, acceptor molecule, acceptor atom, score
      P1  H  7997  8008       L1     6  2.00
      P1  H 10752 10763       L1     3  1.00

> <Gold.PLP.Chemscore.Internal.Correction>
2.1512

> <Gold.Rescore>
     Score         DG    S(hbond)    S(metal)    S(lipo)     H(rot)  DE(clash)    DE(int)     intcor
     14.70     -18.23       1.66        0.00      92.60       1.41       0.00       3.53       ----

> <Gold.Chemscore.Fitness>
14.7034

> <Gold.Chemscore.DG>
-18.2332

> <Gold.Chemscore.ZeroCoef>
-5.4800

> <Gold.Chemscore.Hbond>
1.6572

> <Gold.Chemscore.Metal>
0.0000

> <Gold.Chemscore.Lipo>
92.6034

> <Gold.Chemscore.Internal_Hbond>
0.0000

> <Gold.Chemscore.DEClash>
0.0015

> <Gold.Chemscore.DEInternal>
3.5283

> <Gold.Chemscore.Rot>
1.4127

> <Gold.Chemscore.Internal.Correction>
   9.000000E+99

> <Gold.Chemscore.Hbonds>
donor molecule, donor type, donor heavy atom, donor atom, acceptor molecule, acceptor atom, score
      P1  H  7997  8008       L1     6  0.58
      P1  H 10752 10763       L1     3  0.84

> <Gold.Chemscore.Hbond.Weighted>
-5.5351

> <Gold.Chemscore.Metal.Weighted>
-0.0000

> <Gold.Chemscore.Lipo.Weighted>
-10.8346

> <Gold.Chemscore.Internal_Hbond.Weighted>
0.0000

> <Gold.Chemscore.DEClash.Weighted>
0.0015

> <Gold.Chemscore.DEInternal.Weighted>
3.5283

> <Gold.Chemscore.Rot.Weighted>
3.6165

> <Gold.Chemscore.Internal.Correction.Weighted>
   9.000000E+99

> <Gold.Protein.RotatedTorsions>
[ 6907 6896 6895 6894 ] final   20.85 input  -60.11 | X-H torsion
[ 7974 7965 7964 7962 ] final   -3.65 input  175.53 | X-H torsion
[ 8008 7997 7996 7995 ] final  -62.34 input   59.86 | X-H torsion
[ 10167 10162 10161 10158 ] final -114.18 input  -65.29 | X-H torsion
[ 10718 10713 10712 10709 ] final  -68.08 input   66.30 | X-H torsion
[ 10763 10752 10751 10750 ] final   68.25 input  -60.55 | X-H torsion
[ 11005 11000 10999 10996 ] final  -36.91 input  -57.11 | X-H torsion

> <Gold.Protein.ActiveResidues>
 VAL166  LYS551  ARG553  GLY616  TRP617  ASP618  TYR619  PRO620  LYS621  CYS622 
 ASP623  PHE694  ASN695  SER759  ASP760  ASP761  ALA762  ILE779  LEU786  VAL792 
 PHE793  MET794  SER795  GLU796  ALA797  LYS798  CYS799  TRP800  GLU811  SER814 

> <Gold.Protein.RotatedAtoms>
  151.9028  135.0371  160.0507 H   0  0  0  0  0  0  0  0  0  0  0  0  # atno 6907 bound_to 6896
  152.2344  133.5080  159.5242 H   0  0  0  0  0  0  0  0  0  0  0  0  # atno 6908 bound_to 6896
  150.7035  134.1090  159.4035 H   0  0  0  0  0  0  0  0  0  0  0  0  # atno 6909 bound_to 6896
  146.2386  140.1753  142.8332 H   0  0  0  0  0  0  0  0  0  0  0  0  # atno 7974 bound_to 7965
  154.4495  140.0998  156.6572 H   0  0  0  0  0  0  0  0  0  0  0  0  # atno 8008 bound_to 7997
  155.5333  140.3482  155.4412 H   0  0  0  0  0  0  0  0  0  0  0  0  # atno 8009 bound_to 7997
  156.0649  140.1335  156.9887 H   0  0  0  0  0  0  0  0  0  0  0  0  # atno 8010 bound_to 7997
  140.1038  143.4589  152.1796 H   0  0  0  0  0  0  0  0  0  0  0  0  # atno 10167 bound_to 10162
  156.0524  130.4288  150.1948 H   0  0  0  0  0  0  0  0  0  0  0  0  # atno 10718 bound_to 10713
  153.0226  135.5254  154.7105 H   0  0  0  0  0  0  0  0  0  0  0  0  # atno 10763 bound_to 10752
  154.6188  135.2886  155.0351 H   0  0  0  0  0  0  0  0  0  0  0  0  # atno 10764 bound_to 10752
  154.1345  135.6587  153.4981 H   0  0  0  0  0  0  0  0  0  0  0  0  # atno 10765 bound_to 10752
  140.9911  133.7004  156.1852 H   0  0  0  0  0  0  0  0  0  0  0  0  # atno 11005 bound_to 11000
  144.9979  140.8605  143.5300 LP  0  0  0  0  0  0  0  0  0  0  0  0  # atno 17320 bound_to 7965
  145.1768  139.2374  143.5313 LP  0  0  0  0  0  0  0  0  0  0  0  0  # atno 17321 bound_to 7965
  139.5657  144.7433  151.4030 LP  0  0  0  0  0  0  0  0  0  0  0  0  # atno 17342 bound_to 10162
  140.6963  143.7740  150.7332 LP  0  0  0  0  0  0  0  0  0  0  0  0  # atno 17343 bound_to 10162
  157.0030  130.9928  151.3386 LP  0  0  0  0  0  0  0  0  0  0  0  0  # atno 17370 bound_to 10713
  157.5462  130.8152  149.8089 LP  0  0  0  0  0  0  0  0  0  0  0  0  # atno 17371 bound_to 10713
  140.7038  134.4535  157.5585 LP  0  0  0  0  0  0  0  0  0  0  0  0  # atno 17394 bound_to 11000
  139.8993  134.8595  156.1967 LP  0  0  0  0  0  0  0  0  0  0  0  0  # atno 17395 bound_to 11000

$$$$
