AV-unprocessed.smi:21|AV-procd|sdf|136|dock8
  -GOLD-   2262015333D 1   1.00000     0.00000
 Structure written by MMmdl.
 62 65  0  0  0  0  0  0  0  0  2 V2000
  145.3352  131.8050  150.6945 C   0  0  0  0  0  0  0  0  0  0  0  0
  146.0549  131.5897  151.8982 O   0  0  0  0  0  0  0  0  0  0  0  0
  147.0123  132.5997  152.1789 C   0  0  2  0  0  0  0  0  0  0  0  0
  147.8128  132.3352  153.4487 C   0  0  0  0  0  0  0  0  0  0  0  0
  148.2989  133.7281  153.8823 C   0  0  2  0  0  0  0  0  0  0  0  0
  148.5792  133.8532  155.4042 C   0  0  0  0  0  0  0  0  0  0  0  0
  149.7136  134.7226  155.7237 N   0  0  0  0  0  0  0  0  0  0  0  0
  151.0248  134.0966  155.8714 C   0  0  0  0  0  0  0  0  0  0  0  0
  149.4687  135.8628  156.4245 C   0  0  0  0  0  0  0  0  0  0  0  0
  148.1832  136.2829  156.5721 N   0  0  0  0  0  0  0  0  0  0  0  0
  147.9105  137.4299  157.1991 C   0  0  0  0  0  0  0  0  0  0  0  0
  148.7587  138.3034  157.7414 N   0  0  0  0  0  0  0  0  0  0  0  0
  150.0498  137.8845  157.6153 C   0  0  0  0  0  0  0  0  0  0  0  0
  150.4892  136.6814  156.9919 C   0  0  0  0  0  0  0  0  0  0  0  0
  151.8728  136.5842  157.0891 N   0  0  0  0  0  0  0  0  0  0  0  0
  152.2303  137.6699  157.7175 C   0  0  0  0  0  0  0  0  0  0  0  0
  151.2018  138.5271  158.0353 N   0  0  0  0  0  0  0  0  0  0  0  0
  151.3188  139.8063  158.7147 C   0  0  0  0  0  0  0  0  0  0  0  0
  151.4914  141.0309  157.7716 C   0  0  1  0  0  0  0  0  0  0  0  0
  150.5131  140.8977  156.5798 C   0  0  0  0  0  0  0  0  0  0  0  0
  151.1774  140.4469  155.4171 O   0  0  0  0  0  0  0  0  0  0  0  0
  151.3026  142.4044  158.4816 C   0  0  1  0  0  0  0  0  0  0  0  0
  152.3727  142.8141  159.4833 C   0  0  0  0  0  0  0  0  0  0  0  0
  152.1543  144.3160  159.5891 C   0  0  0  0  0  0  0  0  0  0  0  0
  151.8479  144.7238  158.2660 O   0  0  0  0  0  0  0  0  0  0  0  0
  151.3392  143.6142  157.5312 C   0  0  0  0  0  0  0  0  0  0  0  0
  147.2948  134.6864  153.3285 N   0  3  2  0  0  0  0  0  0  0  0  0
  146.6503  135.6374  154.2646 C   0  0  0  0  0  0  0  0  0  0  0  0
  146.3220  133.9163  152.5208 C   0  0  0  0  0  0  0  0  0  0  0  0
  147.6826  132.7500  151.3304 H   0  0  0  0  0  0  0  0  0  0  0  0
  149.2216  133.9454  153.3427 H   0  0  0  0  0  0  0  0  0  0  0  0
  144.5884  131.0206  150.5722 H   0  0  0  0  0  0  0  0  0  0  0  0
  145.9914  131.7748  149.8241 H   0  0  0  0  0  0  0  0  0  0  0  0
  144.8159  132.7640  150.7098 H   0  0  0  0  0  0  0  0  0  0  0  0
  147.1534  131.9133  154.2089 H   0  0  0  0  0  0  0  0  0  0  0  0
  148.6322  131.6345  153.2872 H   0  0  0  0  0  0  0  0  0  0  0  0
  147.7128  134.2899  155.9007 H   0  0  0  0  0  0  0  0  0  0  0  0
  148.7002  132.8674  155.8469 H   0  0  0  0  0  0  0  0  0  0  0  0
  151.8211  134.8287  155.7310 H   0  0  0  0  0  0  0  0  0  0  0  0
  151.1626  133.3120  155.1271 H   0  0  0  0  0  0  0  0  0  0  0  0
  151.1351  133.6491  156.8597 H   0  0  0  0  0  0  0  0  0  0  0  0
  146.8641  137.6894  157.2670 H   0  0  0  0  0  0  0  0  0  0  0  0
  153.2637  137.8879  157.9452 H   0  0  0  0  0  0  0  0  0  0  0  0
  150.4205  139.9144  159.3227 H   0  0  0  0  0  0  0  0  0  0  0  0
  152.1533  139.7571  159.4153 H   0  0  0  0  0  0  0  0  0  0  0  0
  152.4998  141.0140  157.3575 H   0  0  0  0  0  0  0  0  0  0  0  0
  149.7001  140.2117  156.8205 H   0  0  0  0  0  0  0  0  0  0  0  0
  150.0566  141.8537  156.3268 H   0  0  0  0  0  0  0  0  0  0  0  0
  151.9995  140.0560  155.6720 H   0  0  0  0  0  0  0  0  0  0  0  0
  150.3417  142.4059  158.9988 H   0  0  0  0  0  0  0  0  0  0  0  0
  152.2662  142.3356  160.4549 H   0  0  0  0  0  0  0  0  0  0  0  0
  153.3703  142.6022  159.0955 H   0  0  0  0  0  0  0  0  0  0  0  0
  151.2997  144.5328  160.2318 H   0  0  0  0  0  0  0  0  0  0  0  0
  153.0198  144.8451  159.9855 H   0  0  0  0  0  0  0  0  0  0  0  0
  152.0127  143.4349  156.6919 H   0  0  0  0  0  0  0  0  0  0  0  0
  150.3532  143.8442  157.1262 H   0  0  0  0  0  0  0  0  0  0  0  0
  146.0912  135.1168  155.0431 H   0  0  0  0  0  0  0  0  0  0  0  0
  145.9525  136.2773  153.7235 H   0  0  0  0  0  0  0  0  0  0  0  0
  147.3870  136.2898  154.7332 H   0  0  0  0  0  0  0  0  0  0  0  0
  146.0068  134.4676  151.6345 H   0  0  0  0  0  0  0  0  0  0  0  0
  145.4327  133.7124  153.1206 H   0  0  0  0  0  0  0  0  0  0  0  0
  147.8105  135.2535  152.6705 H   0  0  0  0  0  0  0  0  0  0  0  0
  1  2  1  0  0  0  0
  1 32  1  0  0  0  0
  1 33  1  0  0  0  0
  1 34  1  0  0  0  0
  2  3  1  0  0  0  0
  3 30  1  0  0  0  0
  3 29  1  0  0  0  0
  3  4  1  0  0  0  0
  4  5  1  0  0  0  0
  4 35  1  0  0  0  0
  4 36  1  0  0  0  0
  5 31  1  0  0  0  0
  5  6  1  0  0  0  0
  5 27  1  0  0  0  0
  6  7  1  0  0  0  0
  6 37  1  0  0  0  0
  6 38  1  0  0  0  0
  7  8  1  0  0  0  0
  7  9  1  0  0  0  0
  8 39  1  0  0  0  0
  8 40  1  0  0  0  0
  8 41  1  0  0  0  0
  9 14  1  0  0  0  0
  9 10  2  0  0  0  0
 10 11  1  0  0  0  0
 11 12  2  0  0  0  0
 11 42  1  0  0  0  0
 12 13  1  0  0  0  0
 13 17  1  0  0  0  0
 13 14  2  0  0  0  0
 14 15  1  0  0  0  0
 15 16  2  0  0  0  0
 16 17  1  0  0  0  0
 16 43  1  0  0  0  0
 17 18  1  0  0  0  0
 18 19  1  0  0  0  0
 18 44  1  0  0  0  0
 18 45  1  0  0  0  0
 19 20  1  0  0  0  0
 19 22  1  0  0  0  0
 19 46  1  0  0  0  0
 20 21  1  0  0  0  0
 20 47  1  0  0  0  0
 20 48  1  0  0  0  0
 21 49  1  0  0  0  0
 22 26  1  0  0  0  0
 22 23  1  0  0  0  0
 22 50  1  0  0  0  0
 23 24  1  0  0  0  0
 23 51  1  0  0  0  0
 23 52  1  0  0  0  0
 24 25  1  0  0  0  0
 24 53  1  0  0  0  0
 24 54  1  0  0  0  0
 25 26  1  0  0  0  0
 26 55  1  0  0  0  0
 26 56  1  0  0  0  0
 27 28  1  0  0  0  0
 27 29  1  0  0  0  0
 27 62  1  0  0  0  0
 28 57  1  0  0  0  0
 28 58  1  0  0  0  0
 28 59  1  0  0  0  0
 29 60  1  0  0  0  0
 29 61  1  0  0  0  0
M  CHG  1  27   1
M  END
> <s_m_source_file>
AV-unprocessed.smi

> <i_m_source_file_index>
21

> <i_lp_mmshare_version>
43012

> <i_f3d_flags>
0

> <s_epik_input>
W0NIM11PW0NASF0xW0NIMl1bQ0BIXShOKFtDSDNdKVtDSDJdMSlbQ0gyXU4oW0NIM10pYyhuW2NIXW4yKWMoYzIzKW5bY0hdbjNbQ0gyXVtDQEhdKFtDSDJdW09IXSlbQ0BASF00W0NIMl1bQ0gyXU9bQ0gyXTQ=

> <s_epik_cmdline>
J2VwaWtfcHl0aG9uJywgJy1waCcsICc3LjAnLCAnLXRuJywgJzgnLCAnLW1hJywgJzIwMCcsICctbWV0YWxfYmluZGluZycsICctaW1hZScsICc8aW5maWxlLm1hZT4nLCAnLW9tYWUnLCAnPG91dGZpbGUubWFlPic=

> <r_lp_tautomer_probability>
1

> <r_epik_Ionization_Penalty>
0.0157465

> <r_epik_Ionization_Penalty_Charging>
0.015354

> <r_epik_Ionization_Penalty_Neutral>
0.000392529

> <r_epik_State_Penalty>
0.0120612

> <r_epik_Charging_Adjusted_Penalty>
0.0274152

> <i_epik_Tot_Q>
1

> <i_epik_Tot_abs_Q>
1

> <r_epik_Metal_State_Penalty>
0.0121253

> <b_epik_Metal_Only>
0

> <s_lp_Force_Field>
OPLS_2005

> <r_lp_Energy>
61.1925

> <b_lp_Chiralities_Consistent>
1

> <s_lp_Variant>
AV-unprocessed.smi:21-16

> <Gold.Version>
5.8.1

> <Gold.Id.Protein>
6NUR|6NUR_protein|mol2

> <Gold.PLP.Fitness>
46.0475

> <Gold.PLP.PLP>
-40.1787

> <Gold.PLP.part.hbond>
-2.0000

> <Gold.PLP.part.metal>
0.0000

> <Gold.PLP.part.buried>
-6.6563

> <Gold.PLP.part.nonpolar>
-32.0794

> <Gold.PLP.part.repulsive>
0.2166

> <Gold.PLP.ligand.clash>
0.0000

> <Gold.PLP.ligand.torsion>
1.9676

> <Gold.PLP.Chemscore.Hbond>
2.9120

> <Gold.PLP.Chemscore.CHOScore>
0.0000

> <Gold.PLP.Chemscore.Metal>
0.0000

> <Gold.Chemscore.Hbonds>
donor molecule, donor type, donor heavy atom, donor atom, acceptor molecule, acceptor atom, score
      L1  H    27    62       P1  7948  2.00
      P1  H  7989  7998       L1    21  0.85

> <Gold.PLP.Chemscore.Internal.Correction>
1.0680

> <Gold.Rescore>
     Score         DG    S(hbond)    S(metal)    S(lipo)     H(rot)  DE(clash)    DE(int)     intcor
     12.49     -15.99       1.83        0.00     104.89       3.08       0.07       3.43       ----

> <Gold.Chemscore.Fitness>
12.4892

> <Gold.Chemscore.DG>
-15.9918

> <Gold.Chemscore.ZeroCoef>
-5.4800

> <Gold.Chemscore.Hbond>
1.8304

> <Gold.Chemscore.Metal>
0.0000

> <Gold.Chemscore.Lipo>
104.8915

> <Gold.Chemscore.Internal_Hbond>
0.0000

> <Gold.Chemscore.DEClash>
0.0734

> <Gold.Chemscore.DEInternal>
3.4293

> <Gold.Chemscore.Rot>
3.0758

> <Gold.Chemscore.Internal.Correction>
   9.000000E+99

> <Gold.Chemscore.Hbonds>
donor molecule, donor type, donor heavy atom, donor atom, acceptor molecule, acceptor atom, score
      L1  H    27    62       P1  7948  1.00
      P1  H  7989  7998       L1    21  0.15

> <Gold.Chemscore.Hbond.Weighted>
-6.1137

> <Gold.Chemscore.Metal.Weighted>
-0.0000

> <Gold.Chemscore.Lipo.Weighted>
-12.2723

> <Gold.Chemscore.Internal_Hbond.Weighted>
0.0000

> <Gold.Chemscore.DEClash.Weighted>
0.0734

> <Gold.Chemscore.DEInternal.Weighted>
3.4293

> <Gold.Chemscore.Rot.Weighted>
7.8741

> <Gold.Chemscore.Internal.Correction.Weighted>
   9.000000E+99

> <Gold.Protein.RotatedTorsions>
[ 6907 6896 6895 6894 ] final   76.12 input  -60.11 | X-H torsion
[ 7974 7965 7964 7962 ] final   72.65 input  175.53 | X-H torsion
[ 8008 7997 7996 7995 ] final   77.69 input   59.86 | X-H torsion
[ 10167 10162 10161 10158 ] final -166.77 input  -65.29 | X-H torsion
[ 10718 10713 10712 10709 ] final  -15.25 input   66.30 | X-H torsion
[ 10763 10752 10751 10750 ] final   85.01 input  -60.55 | X-H torsion
[ 11005 11000 10999 10996 ] final  -46.02 input  -57.11 | X-H torsion

> <Gold.Protein.ActiveResidues>
 VAL166  LYS551  ARG553  GLY616  TRP617  ASP618  TYR619  PRO620  LYS621  CYS622 
 ASP623  PHE694  ASN695  SER759  ASP760  ASP761  ALA762  ILE779  LEU786  VAL792 
 PHE793  MET794  SER795  GLU796  ALA797  LYS798  CYS799  TRP800  GLU811  SER814 

> <Gold.Protein.RotatedAtoms>
  152.5058  134.4018  159.9418 H   0  0  0  0  0  0  0  0  0  0  0  0  # atno 6907 bound_to 6896
  151.3982  133.3760  159.2737 H   0  0  0  0  0  0  0  0  0  0  0  0  # atno 6908 bound_to 6896
  150.9381  134.8814  159.7654 H   0  0  0  0  0  0  0  0  0  0  0  0  # atno 6909 bound_to 6896
  145.7507  139.2759  143.1433 H   0  0  0  0  0  0  0  0  0  0  0  0  # atno 7974 bound_to 7965
  155.8452  140.3460  155.5658 H   0  0  0  0  0  0  0  0  0  0  0  0  # atno 8008 bound_to 7997
  155.8097  140.0897  157.1930 H   0  0  0  0  0  0  0  0  0  0  0  0  # atno 8009 bound_to 7997
  154.4006  140.1450  156.3360 H   0  0  0  0  0  0  0  0  0  0  0  0  # atno 8010 bound_to 7997
  139.6093  144.0848  152.1825 H   0  0  0  0  0  0  0  0  0  0  0  0  # atno 10167 bound_to 10162
  156.6044  130.4832  149.6227 H   0  0  0  0  0  0  0  0  0  0  0  0  # atno 10718 bound_to 10713
  153.1435  135.4633  154.9531 H   0  0  0  0  0  0  0  0  0  0  0  0  # atno 10763 bound_to 10752
  154.7767  135.3175  154.8079 H   0  0  0  0  0  0  0  0  0  0  0  0  # atno 10764 bound_to 10752
  153.8598  135.6913  153.4838 H   0  0  0  0  0  0  0  0  0  0  0  0  # atno 10765 bound_to 10752
  141.0552  133.6728  156.3095 H   0  0  0  0  0  0  0  0  0  0  0  0  # atno 11005 bound_to 11000
  146.0359  140.8212  142.9853 LP  0  0  0  0  0  0  0  0  0  0  0  0  # atno 17320 bound_to 7965
  144.6850  140.2838  143.7288 LP  0  0  0  0  0  0  0  0  0  0  0  0  # atno 17321 bound_to 7965
  140.0463  144.5968  150.7371 LP  0  0  0  0  0  0  0  0  0  0  0  0  # atno 17342 bound_to 10162
  140.7307  143.2686  151.3961 LP  0  0  0  0  0  0  0  0  0  0  0  0  # atno 17343 bound_to 10162
  156.2442  130.6869  151.1585 LP  0  0  0  0  0  0  0  0  0  0  0  0  # atno 17370 bound_to 10713
  157.7271  131.0641  150.5880 LP  0  0  0  0  0  0  0  0  0  0  0  0  # atno 17371 bound_to 10713
  140.5977  134.5586  157.5512 LP  0  0  0  0  0  0  0  0  0  0  0  0  # atno 17394 bound_to 11000
  139.9384  134.7832  156.0742 LP  0  0  0  0  0  0  0  0  0  0  0  0  # atno 17395 bound_to 11000

$$$$
