AV-unprocessed.smi:1393|AV-procd|sdf|5664|dock1
  -GOLD-   22720 5283D 1   1.00000     0.00000
 Structure written by MMmdl.
 39 40  0  0  0  0  0  0  0  0  1 V2000
  150.4652  140.7478  157.8050 O   0  0  0  0  0  0  0  0  0  0  0  0
  150.4154  141.8441  157.2447 C   0  0  0  0  0  0  0  0  0  0  0  0
  151.2425  143.0343  157.7523 C   0  0  0  0  0  0  0  0  0  0  0  0
  151.9737  142.7535  159.0001 N   0  0  0  0  0  0  0  0  0  0  0  0
  151.7584  143.6386  160.0715 C   0  0  0  0  0  0  0  0  0  0  0  0
  152.3616  143.4727  161.2561 C   0  0  0  0  0  0  0  0  0  0  0  0
  153.2511  142.3486  161.4166 C   0  0  0  0  0  0  0  0  0  0  0  0
  153.4758  141.4779  160.4054 C   0  0  0  0  0  0  0  0  0  0  0  0
  154.4115  140.2811  160.5606 C   0  0  0  0  0  0  0  0  0  0  0  0
  155.4306  140.3686  159.7048 F   0  0  0  0  0  0  0  0  0  0  0  0
  154.9194  140.2059  161.7918 F   0  0  0  0  0  0  0  0  0  0  0  0
  153.7604  139.1428  160.3185 F   0  0  0  0  0  0  0  0  0  0  0  0
  152.8056  141.6707  159.1030 C   0  0  0  0  0  0  0  0  0  0  0  0
  152.9767  140.9041  158.1537 O   0  0  0  0  0  0  0  0  0  0  0  0
  149.6473  142.0832  156.1700 N   0  0  0  0  0  0  0  0  0  0  0  0
  148.7888  141.0991  155.5062 C   0  0  1  0  0  0  0  0  0  0  0  0
  147.9625  141.8445  154.4334 C   0  0  0  0  0  0  0  0  0  0  0  0
  146.6668  141.1162  154.0356 C   0  0  0  0  0  0  0  0  0  0  0  0
  146.8706  139.7636  153.3354 C   0  0  0  0  0  0  0  0  0  0  0  0
  147.5830  138.7151  154.2071 C   0  0  0  0  0  0  0  0  0  0  0  0
  149.0201  138.9457  154.2783 N   0  0  0  0  0  0  0  0  0  0  0  0
  149.6399  140.0052  154.8199 C   0  0  0  0  0  0  0  0  0  0  0  0
  150.8657  140.1040  154.7644 O   0  0  0  0  0  0  0  0  0  0  0  0
  151.9318  143.3454  156.9651 H   0  0  0  0  0  0  0  0  0  0  0  0
  150.5724  143.8838  157.8927 H   0  0  0  0  0  0  0  0  0  0  0  0
  151.0716  144.4482  159.8706 H   0  0  0  0  0  0  0  0  0  0  0  0
  152.1824  144.1588  162.0708 H   0  0  0  0  0  0  0  0  0  0  0  0
  153.7375  142.2125  162.3710 H   0  0  0  0  0  0  0  0  0  0  0  0
  149.6721  143.0085  155.7671 H   0  0  0  0  0  0  0  0  0  0  0  0
  148.1238  140.6481  156.2451 H   0  0  0  0  0  0  0  0  0  0  0  0
  147.6715  142.8211  154.8239 H   0  0  0  0  0  0  0  0  0  0  0  0
  148.5660  142.0535  153.5482 H   0  0  0  0  0  0  0  0  0  0  0  0
  146.0453  140.9755  154.9210 H   0  0  0  0  0  0  0  0  0  0  0  0
  146.0936  141.7653  153.3728 H   0  0  0  0  0  0  0  0  0  0  0  0
  145.8896  139.3744  153.0608 H   0  0  0  0  0  0  0  0  0  0  0  0
  147.4094  139.9020  152.3970 H   0  0  0  0  0  0  0  0  0  0  0  0
  147.1512  138.6722  155.2081 H   0  0  0  0  0  0  0  0  0  0  0  0
  147.4385  137.7273  153.7689 H   0  0  0  0  0  0  0  0  0  0  0  0
  149.6054  138.2443  153.8479 H   0  0  0  0  0  0  0  0  0  0  0  0
  1  2  2  0  0  0  0
  2  3  1  0  0  0  0
  2 15  1  0  0  0  0
  3  4  1  0  0  0  0
  3 24  1  0  0  0  0
  3 25  1  0  0  0  0
  4 13  1  0  0  0  0
  4  5  1  0  0  0  0
  5  6  2  0  0  0  0
  5 26  1  0  0  0  0
  6  7  1  0  0  0  0
  6 27  1  0  0  0  0
  7  8  2  0  0  0  0
  7 28  1  0  0  0  0
  8  9  1  0  0  0  0
  8 13  1  0  0  0  0
  9 10  1  0  0  0  0
  9 11  1  0  0  0  0
  9 12  1  0  0  0  0
 13 14  2  0  0  0  0
 15 16  1  0  0  0  0
 15 29  1  0  0  0  0
 16 22  1  0  0  0  0
 16 17  1  0  0  0  0
 16 30  1  0  0  0  0
 17 18  1  0  0  0  0
 17 31  1  0  0  0  0
 17 32  1  0  0  0  0
 18 19  1  0  0  0  0
 18 33  1  0  0  0  0
 18 34  1  0  0  0  0
 19 20  1  0  0  0  0
 19 35  1  0  0  0  0
 19 36  1  0  0  0  0
 20 21  1  0  0  0  0
 20 37  1  0  0  0  0
 20 38  1  0  0  0  0
 21 22  1  0  0  0  0
 21 39  1  0  0  0  0
 22 23  2  0  0  0  0
M  END
> <s_m_source_file>
AV-unprocessed.smi

> <i_m_source_file_index>
1393

> <i_lp_mmshare_version>
43012

> <i_f3d_flags>
0

> <s_epik_input>
RkMoRikoRiljKGMxPU8pW2NIXVtjSF1bY0hdbjFbQ0gyXUMoPU8pW05IXVtDQEBIXTJbQ0gyXVtDSDJdW0NIMl1bQ0gyXVtOSF1DMj1P

> <s_epik_cmdline>
J2VwaWtfcHl0aG9uJywgJy1waCcsICc3LjAnLCAnLXRuJywgJzgnLCAnLW1hJywgJzIwMCcsICctbWV0YWxfYmluZGluZycsICctaW1hZScsICc8aW5maWxlLm1hZT4nLCAnLW9tYWUnLCAnPG91dGZpbGUubWFlPic=

> <r_lp_tautomer_probability>
1

> <r_epik_Ionization_Penalty>
5.5009e-08

> <r_epik_Ionization_Penalty_Charging>
1.68727e-09

> <r_epik_Ionization_Penalty_Neutral>
5.33217e-08

> <r_epik_State_Penalty>
-0

> <r_epik_Charging_Adjusted_Penalty>
1.68727e-09

> <i_epik_Tot_Q>
0

> <i_epik_Tot_abs_Q>
0

> <r_epik_Metal_State_Penalty>
-0

> <b_epik_Metal_Only>
0

> <s_lp_Force_Field>
OPLS_2005

> <r_lp_Energy>
21.4226

> <b_lp_Chiralities_Consistent>
1

> <s_lp_Variant>
AV-unprocessed.smi:1393-2

> <Gold.Version>
5.8.1

> <Gold.Id.Protein>
6NUR|6NUR_protein|mol2

> <Gold.PLP.Fitness>
55.1058

> <Gold.PLP.PLP>
-48.4901

> <Gold.PLP.part.hbond>
-3.4053

> <Gold.PLP.part.metal>
0.0000

> <Gold.PLP.part.buried>
-0.3924

> <Gold.PLP.part.nonpolar>
-44.1681

> <Gold.PLP.part.repulsive>
0.2381

> <Gold.PLP.ligand.clash>
0.3159

> <Gold.PLP.ligand.torsion>
0.1226

> <Gold.PLP.Chemscore.Hbond>
2.2745

> <Gold.PLP.Chemscore.CHOScore>
0.0000

> <Gold.PLP.Chemscore.Metal>
0.0000

> <Gold.Chemscore.Hbonds>
donor molecule, donor type, donor heavy atom, donor atom, acceptor molecule, acceptor atom, score
      L1  H    15    29       P1  8028  0.96
      P1  H  7989  7998       L1    23  1.00
      P1  H  7997  8009       L1    14  0.46

> <Gold.PLP.Chemscore.Internal.Correction>
0.3532

> <Gold.Rescore>
     Score         DG    S(hbond)    S(metal)    S(lipo)     H(rot)  DE(clash)    DE(int)     intcor
     12.29     -19.26       2.34        0.00      88.60       1.72       0.15       6.81       ----

> <Gold.Chemscore.Fitness>
12.2946

> <Gold.Chemscore.DG>
-19.2552

> <Gold.Chemscore.ZeroCoef>
-5.4800

> <Gold.Chemscore.Hbond>
2.3399

> <Gold.Chemscore.Metal>
0.0000

> <Gold.Chemscore.Lipo>
88.5995

> <Gold.Chemscore.Internal_Hbond>
0.0000

> <Gold.Chemscore.DEClash>
0.1499

> <Gold.Chemscore.DEInternal>
6.8107

> <Gold.Chemscore.Rot>
1.7212

> <Gold.Chemscore.Internal.Correction>
   9.000000E+99

> <Gold.Chemscore.Hbonds>
donor molecule, donor type, donor heavy atom, donor atom, acceptor molecule, acceptor atom, score
      L1  H    15    29       P1  8028  0.92
      P1  H  7989  7998       L1    23  0.99
      P1  H  7997  8009       L1    14  0.45

> <Gold.Chemscore.Hbond.Weighted>
-7.8153

> <Gold.Chemscore.Metal.Weighted>
-0.0000

> <Gold.Chemscore.Lipo.Weighted>
-10.3661

> <Gold.Chemscore.Internal_Hbond.Weighted>
0.0000

> <Gold.Chemscore.DEClash.Weighted>
0.1499

> <Gold.Chemscore.DEInternal.Weighted>
6.8107

> <Gold.Chemscore.Rot.Weighted>
4.4062

> <Gold.Chemscore.Internal.Correction.Weighted>
   9.000000E+99

> <Gold.Protein.RotatedTorsions>
[ 6907 6896 6895 6894 ] final  131.43 input  -60.11 | X-H torsion
[ 7974 7965 7964 7962 ] final   18.32 input  175.53 | X-H torsion
[ 8008 7997 7996 7995 ] final  158.64 input   59.86 | X-H torsion
[ 10167 10162 10161 10158 ] final   50.86 input  -65.29 | X-H torsion
[ 10718 10713 10712 10709 ] final  -60.10 input   66.30 | X-H torsion
[ 10763 10752 10751 10750 ] final  -42.81 input  -60.55 | X-H torsion
[ 11005 11000 10999 10996 ] final  136.77 input  -57.11 | X-H torsion

> <Gold.Protein.ActiveResidues>
 VAL166  LYS551  ARG553  GLY616  TRP617  ASP618  TYR619  PRO620  LYS621  CYS622 
 ASP623  PHE694  ASN695  SER759  ASP760  ASP761  ALA762  ILE779  LEU786  VAL792 
 PHE793  MET794  SER795  GLU796  ALA797  LYS798  CYS799  TRP800  GLU811  SER814 

> <Gold.Protein.RotatedAtoms>
  152.3426  133.6085  159.5887 H   0  0  0  0  0  0  0  0  0  0  0  0  # atno 6907 bound_to 6896
  150.7488  133.9698  159.3551 H   0  0  0  0  0  0  0  0  0  0  0  0  # atno 6908 bound_to 6896
  151.7560  135.0822  160.0389 H   0  0  0  0  0  0  0  0  0  0  0  0  # atno 6909 bound_to 6896
  146.2189  139.8475  142.8629 H   0  0  0  0  0  0  0  0  0  0  0  0  # atno 7974 bound_to 7965
  156.2290  140.1853  156.7291 H   0  0  0  0  0  0  0  0  0  0  0  0  # atno 8008 bound_to 7997
  154.5989  140.0639  156.9370 H   0  0  0  0  0  0  0  0  0  0  0  0  # atno 8009 bound_to 7997
  155.2208  140.3307  155.4318 H   0  0  0  0  0  0  0  0  0  0  0  0  # atno 8010 bound_to 7997
  140.2680  144.3298  150.6298 H   0  0  0  0  0  0  0  0  0  0  0  0  # atno 10167 bound_to 10162
  156.1014  130.4186  150.0808 H   0  0  0  0  0  0  0  0  0  0  0  0  # atno 10718 bound_to 10713
  153.9852  135.6712  153.4751 H   0  0  0  0  0  0  0  0  0  0  0  0  # atno 10763 bound_to 10752
  153.0730  135.4964  154.8342 H   0  0  0  0  0  0  0  0  0  0  0  0  # atno 10764 bound_to 10752
  154.7141  135.3103  154.9112 H   0  0  0  0  0  0  0  0  0  0  0  0  # atno 10765 bound_to 10752
  140.0069  134.9455  157.0194 H   0  0  0  0  0  0  0  0  0  0  0  0  # atno 11005 bound_to 11000
  145.2836  141.0146  143.3703 LP  0  0  0  0  0  0  0  0  0  0  0  0  # atno 17320 bound_to 7965
  144.9131  139.4504  143.6577 LP  0  0  0  0  0  0  0  0  0  0  0  0  # atno 17321 bound_to 7965
  140.5913  143.2168  151.7248 LP  0  0  0  0  0  0  0  0  0  0  0  0  # atno 17342 bound_to 10162
  139.4997  144.3935  152.0255 LP  0  0  0  0  0  0  0  0  0  0  0  0  # atno 17343 bound_to 10162
  156.8794  130.9551  151.3601 LP  0  0  0  0  0  0  0  0  0  0  0  0  # atno 17370 bound_to 10713
  157.6185  130.8636  149.9068 LP  0  0  0  0  0  0  0  0  0  0  0  0  # atno 17371 bound_to 10713
  140.4625  134.1469  155.7193 LP  0  0  0  0  0  0  0  0  0  0  0  0  # atno 17394 bound_to 11000
  141.1683  133.8659  157.1648 LP  0  0  0  0  0  0  0  0  0  0  0  0  # atno 17395 bound_to 11000

$$$$
