AV-unprocessed.smi:701|AV-procd|sdf|3415|dock2
  -GOLD-   22720 0393D 1   1.00000     0.00000
 Structure written by MMmdl.
 48 50  0  0  0  0  0  0  0  0  2 V2000
  145.2982  132.1433  149.9977 C   0  0  0  0  0  0  0  0  0  0  0  0
  144.6868  133.1401  150.9843 C   0  0  0  0  0  0  0  0  0  0  0  0
  145.4661  133.1443  152.1684 O   0  0  0  0  0  0  0  0  0  0  0  0
  145.9896  134.4236  152.4845 C   0  0  1  0  0  0  0  0  0  0  0  0
  144.9265  135.4890  152.7658 C   0  0  0  0  0  0  0  0  0  0  0  0
  145.8260  135.9784  153.9062 C   0  0  2  0  0  0  0  0  0  0  0  0
  146.7325  137.0350  153.4566 N   0  0  0  0  0  0  0  0  0  0  0  0
  146.7087  138.3012  153.8933 C   0  0  0  0  0  0  0  0  0  0  0  0
  145.8887  138.7201  154.7107 O   0  0  0  0  0  0  0  0  0  0  0  0
  147.7550  139.2450  153.2891 C   0  0  0  0  0  0  0  0  0  0  0  0
  148.9670  139.3333  154.1176 N   0  0  0  0  0  0  0  0  0  0  0  0
  149.5284  138.1342  154.5906 C   0  0  0  0  0  0  0  0  0  0  0  0
  150.6399  138.1219  155.3508 C   0  0  0  0  0  0  0  0  0  0  0  0
  151.2639  139.3970  155.6817 C   0  0  0  0  0  0  0  0  0  0  0  0
  152.2764  139.4052  156.3791 O   0  0  0  0  0  0  0  0  0  0  0  0
  150.6844  140.5331  155.1940 N   0  5  0  0  0  0  0  0  0  0  0  0
  149.5551  140.5303  154.4201 C   0  0  0  0  0  0  0  0  0  0  0  0
  149.0494  141.5671  153.9879 O   0  0  0  0  0  0  0  0  0  0  0  0
  146.4866  134.5701  153.9477 C   0  0  0  0  0  0  0  0  0  0  0  0
  145.8463  133.6331  154.9995 C   0  0  0  0  0  0  0  0  0  0  0  0
  146.4078  132.1986  154.9990 C   0  0  0  0  0  0  0  0  0  0  0  0
  147.9332  132.1892  155.1396 C   0  0  0  0  0  0  0  0  0  0  0  0
  148.5839  133.0910  154.0863 C   0  0  0  0  0  0  0  0  0  0  0  0
  148.0149  134.5165  154.1533 C   0  0  0  0  0  0  0  0  0  0  0  0
  144.7264  132.1114  149.0703 H   0  0  0  0  0  0  0  0  0  0  0  0
  145.3132  131.1370  150.4167 H   0  0  0  0  0  0  0  0  0  0  0  0
  146.3236  132.4190  149.7496 H   0  0  0  0  0  0  0  0  0  0  0  0
  144.6695  134.1369  150.5413 H   0  0  0  0  0  0  0  0  0  0  0  0
  143.6570  132.8590  151.2082 H   0  0  0  0  0  0  0  0  0  0  0  0
  146.7378  134.7628  151.7645 H   0  0  0  0  0  0  0  0  0  0  0  0
  144.7671  136.2000  151.9541 H   0  0  0  0  0  0  0  0  0  0  0  0
  143.9837  135.0707  153.1207 H   0  0  0  0  0  0  0  0  0  0  0  0
  145.2759  136.2251  154.8161 H   0  0  0  0  0  0  0  0  0  0  0  0
  147.4414  136.7780  152.7852 H   0  0  0  0  0  0  0  0  0  0  0  0
  148.0121  138.9291  152.2759 H   0  0  0  0  0  0  0  0  0  0  0  0
  147.2980  140.2286  153.1739 H   0  0  0  0  0  0  0  0  0  0  0  0
  149.0090  137.2346  154.2947 H   0  0  0  0  0  0  0  0  0  0  0  0
  151.0604  137.1921  155.7038 H   0  0  0  0  0  0  0  0  0  0  0  0
  145.9879  134.0577  155.9944 H   0  0  0  0  0  0  0  0  0  0  0  0
  144.7660  133.5816  154.8614 H   0  0  0  0  0  0  0  0  0  0  0  0
  145.9600  131.6279  155.8129 H   0  0  0  0  0  0  0  0  0  0  0  0
  146.1261  131.6832  154.0815 H   0  0  0  0  0  0  0  0  0  0  0  0
  148.2095  132.5362  156.1361 H   0  0  0  0  0  0  0  0  0  0  0  0
  148.3121  131.1708  155.0492 H   0  0  0  0  0  0  0  0  0  0  0  0
  149.6635  133.1148  154.2356 H   0  0  0  0  0  0  0  0  0  0  0  0
  148.4169  132.6757  153.0914 H   0  0  0  0  0  0  0  0  0  0  0  0
  148.5282  135.1153  153.4005 H   0  0  0  0  0  0  0  0  0  0  0  0
  148.2769  134.9638  155.1133 H   0  0  0  0  0  0  0  0  0  0  0  0
  1  2  1  0  0  0  0
  1 25  1  0  0  0  0
  1 26  1  0  0  0  0
  1 27  1  0  0  0  0
  2  3  1  0  0  0  0
  2 28  1  0  0  0  0
  2 29  1  0  0  0  0
  3  4  1  0  0  0  0
  4 19  1  0  0  0  0
  4  5  1  0  0  0  0
  4 30  1  0  0  0  0
  5  6  1  0  0  0  0
  5 31  1  0  0  0  0
  5 32  1  0  0  0  0
  6  7  1  0  0  0  0
  6 19  1  0  0  0  0
  6 33  1  0  0  0  0
  7  8  1  0  0  0  0
  7 34  1  0  0  0  0
  8  9  2  0  0  0  0
  8 10  1  0  0  0  0
 10 11  1  0  0  0  0
 10 35  1  0  0  0  0
 10 36  1  0  0  0  0
 11 17  1  0  0  0  0
 11 12  1  0  0  0  0
 12 13  2  0  0  0  0
 12 37  1  0  0  0  0
 13 14  1  0  0  0  0
 13 38  1  0  0  0  0
 14 15  2  0  0  0  0
 14 16  1  0  0  0  0
 16 17  1  0  0  0  0
 17 18  2  0  0  0  0
 19 24  1  0  0  0  0
 19 20  1  0  0  0  0
 20 21  1  0  0  0  0
 20 39  1  0  0  0  0
 20 40  1  0  0  0  0
 21 22  1  0  0  0  0
 21 41  1  0  0  0  0
 21 42  1  0  0  0  0
 22 23  1  0  0  0  0
 22 43  1  0  0  0  0
 22 44  1  0  0  0  0
 23 24  1  0  0  0  0
 23 45  1  0  0  0  0
 23 46  1  0  0  0  0
 24 47  1  0  0  0  0
 24 48  1  0  0  0  0
M  CHG  1  16  -1
M  END
> <s_m_source_file>
AV-unprocessed.smi

> <i_m_source_file_index>
701

> <i_lp_mmshare_version>
43012

> <i_f3d_flags>
0

> <s_epik_input>
W0NIMl0xW0NIMl1bQ0gyXVtDSDJdW0NIMl1DMTJbQ0BIXShPW0NIMl1bQ0gzXSlbQ0gyXVtDQEhdMltOSF1DKD1PKVtDSDJdbjNbY0hdW2NIXWMoPU8pW25IXWMzPU8=

> <s_epik_cmdline>
J2VwaWtfcHl0aG9uJywgJy1waCcsICc3LjAnLCAnLXRuJywgJzgnLCAnLW1hJywgJzIwMCcsICctbWV0YWxfYmluZGluZycsICctaW1hZScsICc8aW5maWxlLm1hZT4nLCAnLW9tYWUnLCAnPG91dGZpbGUubWFlPic=

> <r_lp_tautomer_probability>
0.999537

> <r_epik_Ionization_Penalty>
3.12423

> <r_epik_Ionization_Penalty_Charging>
2.92877e-08

> <r_epik_Ionization_Penalty_Neutral>
3.12423

> <r_epik_State_Penalty>
3.12332

> <r_epik_Charging_Adjusted_Penalty>
3.12332

> <i_epik_Tot_Q>
-1

> <i_epik_Tot_abs_Q>
1

> <r_epik_Metal_State_Penalty>
0.463873

> <b_epik_Metal_Only>
1

> <s_lp_Force_Field>
OPLS_2005

> <r_lp_Energy>
37.69

> <b_lp_Chiralities_Consistent>
1

> <s_lp_Variant>
AV-unprocessed.smi:701-8

> <Gold.Version>
5.8.1

> <Gold.Id.Protein>
6NUR|6NUR_protein|mol2

> <Gold.PLP.Fitness>
42.1781

> <Gold.PLP.PLP>
-32.3145

> <Gold.PLP.part.hbond>
-4.1218

> <Gold.PLP.part.metal>
0.0000

> <Gold.PLP.part.buried>
2.2473

> <Gold.PLP.part.nonpolar>
-28.9293

> <Gold.PLP.part.repulsive>
0.3975

> <Gold.PLP.ligand.clash>
0.0000

> <Gold.PLP.ligand.torsion>
1.1603

> <Gold.PLP.Chemscore.Hbond>
2.9451

> <Gold.PLP.Chemscore.CHOScore>
0.9859

> <Gold.PLP.Chemscore.Metal>
0.0000

> <Gold.Chemscore.Hbonds>
donor molecule, donor type, donor heavy atom, donor atom, acceptor molecule, acceptor atom, score
      L1  H     7    34       P1  7948  1.00
      P1  H  7989  7998       L1    16  0.24
      P1  H  7997  8010       L1    15  0.60
      P1  H  8011  8017       L1    18  0.66
      L1  C    12    37       P1  7948  0.70

> <Gold.PLP.Chemscore.Internal.Correction>
0.3912

> <Gold.Rescore>
     Score         DG    S(hbond)    S(metal)    S(lipo)     H(rot)  DE(clash)    DE(int)     intcor
     13.45     -14.76       2.00        0.00      66.88       2.04       0.10       1.21       ----

> <Gold.Chemscore.Fitness>
13.4540

> <Gold.Chemscore.DG>
-14.7634

> <Gold.Chemscore.ZeroCoef>
-5.4800

> <Gold.Chemscore.Hbond>
2.0000

> <Gold.Chemscore.Metal>
0.0000

> <Gold.Chemscore.Lipo>
66.8838

> <Gold.Chemscore.Internal_Hbond>
0.0000

> <Gold.Chemscore.DEClash>
0.0962

> <Gold.Chemscore.DEInternal>
1.2131

> <Gold.Chemscore.Rot>
2.0399

> <Gold.Chemscore.Internal.Correction>
   9.000000E+99

> <Gold.Chemscore.Hbonds>
donor molecule, donor type, donor heavy atom, donor atom, acceptor molecule, acceptor atom, score
      L1  H     7    34       P1  7948  1.00
      P1  H  7997  8010       L1    15  0.60
      P1  H  8011  8017       L1    18  0.62

> <Gold.Chemscore.Hbond.Weighted>
-6.6801

> <Gold.Chemscore.Metal.Weighted>
-0.0000

> <Gold.Chemscore.Lipo.Weighted>
-7.8254

> <Gold.Chemscore.Internal_Hbond.Weighted>
0.0000

> <Gold.Chemscore.DEClash.Weighted>
0.0962

> <Gold.Chemscore.DEInternal.Weighted>
1.2131

> <Gold.Chemscore.Rot.Weighted>
5.2222

> <Gold.Chemscore.Internal.Correction.Weighted>
   9.000000E+99

> <Gold.Protein.RotatedTorsions>
[ 6907 6896 6895 6894 ] final  -54.57 input  -60.11 | X-H torsion
[ 7974 7965 7964 7962 ] final  101.09 input  175.53 | X-H torsion
[ 8008 7997 7996 7995 ] final   66.51 input   59.86 | X-H torsion
[ 10167 10162 10161 10158 ] final -112.51 input  -65.29 | X-H torsion
[ 10718 10713 10712 10709 ] final   93.72 input   66.30 | X-H torsion
[ 10763 10752 10751 10750 ] final -141.80 input  -60.55 | X-H torsion
[ 11005 11000 10999 10996 ] final  -65.73 input  -57.11 | X-H torsion

> <Gold.Protein.ActiveResidues>
 VAL166  LYS551  ARG553  GLY616  TRP617  ASP618  TYR619  PRO620  LYS621  CYS622 
 ASP623  PHE694  ASN695  SER759  ASP760  ASP761  ALA762  ILE779  LEU786  VAL792 
 PHE793  MET794  SER795  GLU796  ALA797  LYS798  CYS799  TRP800  GLU811  SER814 

> <Gold.Protein.RotatedAtoms>
  150.8326  134.7586  159.6866 H   0  0  0  0  0  0  0  0  0  0  0  0  # atno 6907 bound_to 6896
  152.4428  134.5552  159.9888 H   0  0  0  0  0  0  0  0  0  0  0  0  # atno 6908 bound_to 6896
  151.5710  133.3352  159.3025 H   0  0  0  0  0  0  0  0  0  0  0  0  # atno 6909 bound_to 6896
  145.3769  139.2387  143.3424 H   0  0  0  0  0  0  0  0  0  0  0  0  # atno 7974 bound_to 7965
  155.6785  140.3496  155.4846 H   0  0  0  0  0  0  0  0  0  0  0  0  # atno 8008 bound_to 7997
  155.9627  140.1140  157.0904 H   0  0  0  0  0  0  0  0  0  0  0  0  # atno 8009 bound_to 7997
  154.4147  140.1172  156.5186 H   0  0  0  0  0  0  0  0  0  0  0  0  # atno 8010 bound_to 7997
  140.1219  143.4436  152.1685 H   0  0  0  0  0  0  0  0  0  0  0  0  # atno 10167 bound_to 10162
  157.6953  131.0488  150.4077 H   0  0  0  0  0  0  0  0  0  0  0  0  # atno 10718 bound_to 10713
  154.8532  135.3514  154.5925 H   0  0  0  0  0  0  0  0  0  0  0  0  # atno 10763 bound_to 10752
  153.6535  135.6993  153.5206 H   0  0  0  0  0  0  0  0  0  0  0  0  # atno 10764 bound_to 10752
  153.2875  135.4245  155.1094 H   0  0  0  0  0  0  0  0  0  0  0  0  # atno 10765 bound_to 10752
  141.1462  133.6686  156.6030 H   0  0  0  0  0  0  0  0  0  0  0  0  # atno 11005 bound_to 11000
  146.2860  140.4430  142.8758 LP  0  0  0  0  0  0  0  0  0  0  0  0  # atno 17320 bound_to 7965
  144.8535  140.7037  143.6153 LP  0  0  0  0  0  0  0  0  0  0  0  0  # atno 17321 bound_to 7965
  139.5564  144.7376  151.4281 LP  0  0  0  0  0  0  0  0  0  0  0  0  # atno 17342 bound_to 10162
  140.6867  143.7957  150.7196 LP  0  0  0  0  0  0  0  0  0  0  0  0  # atno 17343 bound_to 10162
  156.4464  130.4002  149.6664 LP  0  0  0  0  0  0  0  0  0  0  0  0  # atno 17370 bound_to 10713
  156.3829  130.7588  151.2582 LP  0  0  0  0  0  0  0  0  0  0  0  0  # atno 17371 bound_to 10713
  140.3673  134.7636  157.4575 LP  0  0  0  0  0  0  0  0  0  0  0  0  # atno 17394 bound_to 11000
  140.0738  134.5826  155.8613 LP  0  0  0  0  0  0  0  0  0  0  0  0  # atno 17395 bound_to 11000

$$$$
