AV-unprocessed.smi:2587|AV-procd|sdf|10147|dock1
  -GOLD-   2272014163D 1   1.00000     0.00000
 Structure written by MMmdl.
 40 41  0  0  0  0  0  0  0  0  2 V2000
  154.9382  139.3609  161.0299 C   0  0  0  0  0  0  0  0  0  0  0  0
  154.1024  140.4076  161.0989 C   0  0  0  0  0  0  0  0  0  0  0  0
  154.1884  141.6328  160.2115 C   0  0  0  0  0  0  0  0  0  0  0  0
  153.0643  142.5474  160.3976 N   0  0  0  0  0  0  0  0  0  0  0  0
  153.0616  143.4091  161.5802 C   0  0  0  0  0  0  0  0  0  0  0  0
  153.1215  142.6076  162.8895 C   0  0  0  0  0  0  0  0  0  0  0  0
  153.3794  143.4842  163.9635 O   0  0  0  0  0  0  0  0  0  0  0  0
  152.1422  142.7721  159.3457 C   0  0  0  0  0  0  0  0  0  0  0  0
  151.8305  141.7772  158.3925 C   0  0  0  0  0  0  0  0  0  0  0  0
  150.8985  142.0902  157.3742 C   0  0  0  0  0  0  0  0  0  0  0  0
  150.4956  141.1749  156.3758 N   0  0  0  0  0  0  0  0  0  0  0  0
  151.4104  140.0941  156.0168 C   0  0  0  0  0  0  0  0  0  0  0  0
  150.6894  139.0331  155.1687 C   0  0  0  0  0  0  0  0  0  0  0  0
  150.0828  139.6517  154.0404 O   0  0  0  0  0  0  0  0  0  0  0  0
  149.0947  140.5992  154.4282 C   0  0  0  0  0  0  0  0  0  0  0  0
  149.7485  141.7258  155.2456 C   0  0  0  0  0  0  0  0  0  0  0  0
  150.3465  143.3314  157.3550 N   0  3  0  0  0  0  0  0  0  0  0  0
  150.6761  144.2360  158.2854 C   0  0  0  0  0  0  0  0  0  0  0  0
  151.5475  143.9830  159.2642 N   0  0  0  0  0  0  0  0  0  0  0  0
  155.7438  139.3320  160.3111 H   0  0  0  0  0  0  0  0  0  0  0  0
  154.8262  138.5174  161.6954 H   0  0  0  0  0  0  0  0  0  0  0  0
  153.3111  140.4032  161.8345 H   0  0  0  0  0  0  0  0  0  0  0  0
  155.1145  142.1530  160.4586 H   0  0  0  0  0  0  0  0  0  0  0  0
  154.2823  141.3431  159.1644 H   0  0  0  0  0  0  0  0  0  0  0  0
  153.8786  144.1302  161.5337 H   0  0  0  0  0  0  0  0  0  0  0  0
  152.1484  144.0054  161.5647 H   0  0  0  0  0  0  0  0  0  0  0  0
  152.1796  142.0899  163.0736 H   0  0  0  0  0  0  0  0  0  0  0  0
  153.9081  141.8535  162.8520 H   0  0  0  0  0  0  0  0  0  0  0  0
  154.1327  144.0122  163.7473 H   0  0  0  0  0  0  0  0  0  0  0  0
  152.2920  140.8048  158.4410 H   0  0  0  0  0  0  0  0  0  0  0  0
  152.2557  140.5065  155.4645 H   0  0  0  0  0  0  0  0  0  0  0  0
  151.8034  139.6146  156.9138 H   0  0  0  0  0  0  0  0  0  0  0  0
  151.4002  138.2824  154.8230 H   0  0  0  0  0  0  0  0  0  0  0  0
  149.9352  138.5090  155.7583 H   0  0  0  0  0  0  0  0  0  0  0  0
  148.6253  141.0089  153.5339 H   0  0  0  0  0  0  0  0  0  0  0  0
  148.3079  140.1074  155.0027 H   0  0  0  0  0  0  0  0  0  0  0  0
  148.9705  142.4142  155.5752 H   0  0  0  0  0  0  0  0  0  0  0  0
  150.4337  142.2950  154.6162 H   0  0  0  0  0  0  0  0  0  0  0  0
  150.1983  145.2022  158.2168 H   0  0  0  0  0  0  0  0  0  0  0  0
  149.6701  143.5670  156.6284 H   0  0  0  0  0  0  0  0  0  0  0  0
  1  2  2  0  0  0  0
  1 20  1  0  0  0  0
  1 21  1  0  0  0  0
  2  3  1  0  0  0  0
  2 22  1  0  0  0  0
  3  4  1  0  0  0  0
  3 23  1  0  0  0  0
  3 24  1  0  0  0  0
  4  5  1  0  0  0  0
  4  8  1  0  0  0  0
  5  6  1  0  0  0  0
  5 25  1  0  0  0  0
  5 26  1  0  0  0  0
  6  7  1  0  0  0  0
  6 27  1  0  0  0  0
  6 28  1  0  0  0  0
  7 29  1  0  0  0  0
  8 19  1  0  0  0  0
  8  9  2  0  0  0  0
  9 10  1  0  0  0  0
  9 30  1  0  0  0  0
 10 11  1  0  0  0  0
 10 17  2  0  0  0  0
 11 16  1  0  0  0  0
 11 12  1  0  0  0  0
 12 13  1  0  0  0  0
 12 31  1  0  0  0  0
 12 32  1  0  0  0  0
 13 14  1  0  0  0  0
 13 33  1  0  0  0  0
 13 34  1  0  0  0  0
 14 15  1  0  0  0  0
 15 16  1  0  0  0  0
 15 35  1  0  0  0  0
 15 36  1  0  0  0  0
 16 37  1  0  0  0  0
 16 38  1  0  0  0  0
 17 18  1  0  0  0  0
 17 40  1  0  0  0  0
 18 19  2  0  0  0  0
 18 39  1  0  0  0  0
M  CHG  1  17   1
M  END
> <s_m_source_file>
AV-unprocessed.smi

> <i_m_source_file_index>
2587

> <i_lp_mmshare_version>
43012

> <i_f3d_flags>
0

> <s_epik_input>
W0NIMl09W0NIXVtDSDJdTihbQ0gyXVtDSDJdW09IXSljMVtjSF1jKG5bY0hdbjEpTjJbQ0gyXVtDSDJdT1tDSDJdW0NIMl0y

> <s_epik_cmdline>
J2VwaWtfcHl0aG9uJywgJy1waCcsICc3LjAnLCAnLXRuJywgJzgnLCAnLW1hJywgJzIwMCcsICctbWV0YWxfYmluZGluZycsICctaW1hZScsICc8aW5maWxlLm1hZT4nLCAnLW9tYWUnLCAnPG91dGZpbGUubWFlPic=

> <r_lp_tautomer_probability>
0.999336

> <r_epik_Ionization_Penalty>
3.67622

> <r_epik_Ionization_Penalty_Charging>
3.67622

> <r_epik_Ionization_Penalty_Neutral>
1.25637e-07

> <r_epik_State_Penalty>
2.4309

> <r_epik_Charging_Adjusted_Penalty>
6.10712

> <i_epik_Tot_Q>
1

> <i_epik_Tot_abs_Q>
1

> <r_epik_Metal_State_Penalty>
2.43203

> <b_epik_Metal_Only>
0

> <s_lp_Force_Field>
OPLS_2005

> <r_lp_Energy>
13.6673

> <b_lp_Chiralities_Consistent>
1

> <s_lp_Variant>
AV-unprocessed.smi:2587-2

> <Gold.Version>
5.8.1

> <Gold.Id.Protein>
6NUR|6NUR_protein|mol2

> <Gold.PLP.Fitness>
51.4031

> <Gold.PLP.PLP>
-42.1751

> <Gold.PLP.part.hbond>
-2.8605

> <Gold.PLP.part.metal>
0.0000

> <Gold.PLP.part.buried>
-5.5085

> <Gold.PLP.part.nonpolar>
-34.4383

> <Gold.PLP.part.repulsive>
1.5983

> <Gold.PLP.ligand.clash>
1.1727

> <Gold.PLP.ligand.torsion>
1.0346

> <Gold.PLP.Chemscore.Hbond>
2.9840

> <Gold.PLP.Chemscore.CHOScore>
0.9464

> <Gold.PLP.Chemscore.Metal>
0.0000

> <Gold.Chemscore.Hbonds>
donor molecule, donor type, donor heavy atom, donor atom, acceptor molecule, acceptor atom, score
      L1  H    17    40       P1  8028  1.98
      P1  H  7989  7998       L1    14  0.94
      L1  C    18    39       P1  8028  0.02
      L1  C    18    39       P1  8029  0.82

> <Gold.PLP.Chemscore.Internal.Correction>
0.6788

> <Gold.Rescore>
     Score         DG    S(hbond)    S(metal)    S(lipo)     H(rot)  DE(clash)    DE(int)     intcor
     10.11     -12.67       1.08        0.00      86.64       2.57       1.52       1.04       ----

> <Gold.Chemscore.Fitness>
10.1109

> <Gold.Chemscore.DG>
-12.6657

> <Gold.Chemscore.ZeroCoef>
-5.4800

> <Gold.Chemscore.Hbond>
1.0827

> <Gold.Chemscore.Metal>
0.0000

> <Gold.Chemscore.Lipo>
86.6380

> <Gold.Chemscore.Internal_Hbond>
0.0000

> <Gold.Chemscore.DEClash>
1.5167

> <Gold.Chemscore.DEInternal>
1.0381

> <Gold.Chemscore.Rot>
2.5653

> <Gold.Chemscore.Internal.Correction>
   9.000000E+99

> <Gold.Chemscore.Hbonds>
donor molecule, donor type, donor heavy atom, donor atom, acceptor molecule, acceptor atom, score
      L1  H    17    40       P1  8028  0.93
      P1  H  7989  7998       L1    14  0.07

> <Gold.Chemscore.Hbond.Weighted>
-3.6162

> <Gold.Chemscore.Metal.Weighted>
-0.0000

> <Gold.Chemscore.Lipo.Weighted>
-10.1367

> <Gold.Chemscore.Internal_Hbond.Weighted>
0.0000

> <Gold.Chemscore.DEClash.Weighted>
1.5167

> <Gold.Chemscore.DEInternal.Weighted>
1.0381

> <Gold.Chemscore.Rot.Weighted>
6.5671

> <Gold.Chemscore.Internal.Correction.Weighted>
   9.000000E+99

> <Gold.Protein.RotatedTorsions>
[ 6907 6896 6895 6894 ] final  169.89 input  -60.11 | X-H torsion
[ 7974 7965 7964 7962 ] final  -39.49 input  175.53 | X-H torsion
[ 8008 7997 7996 7995 ] final  -92.54 input   59.86 | X-H torsion
[ 10167 10162 10161 10158 ] final   40.50 input  -65.29 | X-H torsion
[ 10718 10713 10712 10709 ] final  142.52 input   66.30 | X-H torsion
[ 10763 10752 10751 10750 ] final -167.48 input  -60.55 | X-H torsion
[ 11005 11000 10999 10996 ] final  -35.51 input  -57.11 | X-H torsion

> <Gold.Protein.ActiveResidues>
 VAL166  LYS551  ARG553  GLY616  TRP617  ASP618  TYR619  PRO620  LYS621  CYS622 
 ASP623  PHE694  ASN695  SER759  ASP760  ASP761  ALA762  ILE779  LEU786  VAL792 
 PHE793  MET794  SER795  GLU796  ALA797  LYS798  CYS799  TRP800  GLU811  SER814 

> <Gold.Protein.RotatedAtoms>
  151.8248  133.3400  159.3594 H   0  0  0  0  0  0  0  0  0  0  0  0  # atno 6907 bound_to 6896
  150.7283  134.5539  159.5818 H   0  0  0  0  0  0  0  0  0  0  0  0  # atno 6908 bound_to 6896
  152.2979  134.7646  160.0415 H   0  0  0  0  0  0  0  0  0  0  0  0  # atno 6909 bound_to 6896
  146.0391  140.6632  142.9095 H   0  0  0  0  0  0  0  0  0  0  0  0  # atno 7974 bound_to 7965
  154.7243  140.0508  157.0669 H   0  0  0  0  0  0  0  0  0  0  0  0  # atno 8008 bound_to 7997
  155.0385  140.3166  155.4714 H   0  0  0  0  0  0  0  0  0  0  0  0  # atno 8009 bound_to 7997
  156.2825  140.2137  156.5508 H   0  0  0  0  0  0  0  0  0  0  0  0  # atno 8010 bound_to 7997
  140.3736  144.2073  150.6132 H   0  0  0  0  0  0  0  0  0  0  0  0  # atno 10167 bound_to 10162
  157.3796  131.0990  151.0751 H   0  0  0  0  0  0  0  0  0  0  0  0  # atno 10718 bound_to 10713
  154.6727  135.2942  154.9720 H   0  0  0  0  0  0  0  0  0  0  0  0  # atno 10763 bound_to 10752
  154.0741  135.6614  153.4832 H   0  0  0  0  0  0  0  0  0  0  0  0  # atno 10764 bound_to 10752
  153.0497  135.5182  154.7731 H   0  0  0  0  0  0  0  0  0  0  0  0  # atno 10765 bound_to 10752
  140.9802  133.7060  156.1671 H   0  0  0  0  0  0  0  0  0  0  0  0  # atno 11005 bound_to 11000
  144.7066  140.3876  143.7113 LP  0  0  0  0  0  0  0  0  0  0  0  0  # atno 17320 bound_to 7965
  145.6914  139.1640  143.2645 LP  0  0  0  0  0  0  0  0  0  0  0  0  # atno 17321 bound_to 7965
  140.5009  143.2318  151.8680 LP  0  0  0  0  0  0  0  0  0  0  0  0  # atno 17342 bound_to 10162
  139.4801  144.5061  151.8996 LP  0  0  0  0  0  0  0  0  0  0  0  0  # atno 17343 bound_to 10162
  157.1825  130.6315  149.5676 LP  0  0  0  0  0  0  0  0  0  0  0  0  # atno 17370 bound_to 10713
  155.9773  130.4749  150.6583 LP  0  0  0  0  0  0  0  0  0  0  0  0  # atno 17371 bound_to 10713
  140.7198  134.4371  157.5575 LP  0  0  0  0  0  0  0  0  0  0  0  0  # atno 17394 bound_to 11000
  139.8947  134.8700  156.2165 LP  0  0  0  0  0  0  0  0  0  0  0  0  # atno 17395 bound_to 11000

$$$$
