AV-unprocessed.smi:40|AV-procd|sdf|368|dock10
  -GOLD-   2262016213D 1   1.00000     0.00000
 Structure written by MMmdl.
 47 48  0  0  0  0  0  0  0  0  1 V2000
  152.3490  143.3674  160.9410 C   0  0  0  0  0  0  0  0  0  0  0  0
  152.1068  144.8810  161.0092 C   0  0  0  0  0  0  0  0  0  0  0  0
  151.5803  145.4844  159.6966 C   0  0  0  0  0  0  0  0  0  0  0  0
  152.5534  145.3376  158.5130 C   0  0  0  0  0  0  0  0  0  0  0  0
  152.6582  143.8961  157.9973 C   0  0  0  0  0  0  0  0  0  0  0  0
  151.6166  143.6465  157.0682 O   0  0  0  0  0  0  0  0  0  0  0  0
  150.8576  142.5415  157.1755 C   0  0  0  0  0  0  0  0  0  0  0  0
  150.9522  141.7296  158.0957 O   0  0  0  0  0  0  0  0  0  0  0  0
  149.9431  142.4055  156.0529 N   0  0  0  0  0  0  0  0  0  0  0  0
  149.0273  141.4378  155.7996 C   0  0  0  0  0  0  0  0  0  0  0  0
  148.6763  140.5278  156.6953 N   0  0  0  0  0  0  0  0  0  0  0  0
  147.7684  139.5311  156.4598 C   0  0  0  0  0  0  0  0  0  0  0  0
  147.4895  138.7126  157.3350 O   0  0  0  0  0  0  0  0  0  0  0  0
  147.1780  139.4793  155.1758 N   0  0  0  0  0  0  0  0  0  0  0  0
  146.1769  138.3790  154.8884 C   0  0  1  0  0  0  0  0  0  0  0  0
  145.6351  138.5637  153.6112 O   0  0  0  0  0  0  0  0  0  0  0  0
  146.0423  137.5068  152.7476 C   0  0  2  0  0  0  0  0  0  0  0  0
  145.0036  137.3049  151.6386 C   0  0  0  0  0  0  0  0  0  0  0  0
  146.1858  136.3197  153.6969 C   0  0  1  0  0  0  0  0  0  0  0  0
  146.9702  135.2729  153.1567 O   0  0  0  0  0  0  0  0  0  0  0  0
  146.7982  136.9630  154.9364 C   0  0  1  0  0  0  0  0  0  0  0  0
  148.2180  136.9620  154.8945 O   0  0  0  0  0  0  0  0  0  0  0  0
  147.5472  140.4087  154.2143 C   0  0  0  0  0  0  0  0  0  0  0  0
  148.4477  141.3809  154.4743 C   0  0  0  0  0  0  0  0  0  0  0  0
  148.7916  142.2688  153.5253 F   0  0  0  0  0  0  0  0  0  0  0  0
  145.3630  138.5144  155.6026 H   0  0  0  0  0  0  0  0  0  0  0  0
  147.0114  137.7581  152.3141 H   0  0  0  0  0  0  0  0  0  0  0  0
  145.1982  135.9305  153.9487 H   0  0  0  0  0  0  0  0  0  0  0  0
  146.4822  136.4565  155.8489 H   0  0  0  0  0  0  0  0  0  0  0  0
  152.7756  143.0028  161.8758 H   0  0  0  0  0  0  0  0  0  0  0  0
  153.0443  143.1158  160.1398 H   0  0  0  0  0  0  0  0  0  0  0  0
  151.4232  142.8192  160.7688 H   0  0  0  0  0  0  0  0  0  0  0  0
  151.4196  145.1099  161.8246 H   0  0  0  0  0  0  0  0  0  0  0  0
  153.0484  145.3688  161.2634 H   0  0  0  0  0  0  0  0  0  0  0  0
  150.6422  144.9874  159.4460 H   0  0  0  0  0  0  0  0  0  0  0  0
  151.3334  146.5359  159.8478 H   0  0  0  0  0  0  0  0  0  0  0  0
  152.2270  145.9727  157.6900 H   0  0  0  0  0  0  0  0  0  0  0  0
  153.5434  145.6933  158.8010 H   0  0  0  0  0  0  0  0  0  0  0  0
  153.6272  143.7306  157.5248 H   0  0  0  0  0  0  0  0  0  0  0  0
  152.5767  143.1991  158.8324 H   0  0  0  0  0  0  0  0  0  0  0  0
  149.9837  143.1723  155.3972 H   0  0  0  0  0  0  0  0  0  0  0  0
  145.2867  136.4814  150.9829 H   0  0  0  0  0  0  0  0  0  0  0  0
  144.9107  138.2019  151.0264 H   0  0  0  0  0  0  0  0  0  0  0  0
  144.0203  137.0803  152.0530 H   0  0  0  0  0  0  0  0  0  0  0  0
  147.8665  135.5678  153.1022 H   0  0  0  0  0  0  0  0  0  0  0  0
  148.4906  136.6404  154.0489 H   0  0  0  0  0  0  0  0  0  0  0  0
  147.1210  140.3713  153.2235 H   0  0  0  0  0  0  0  0  0  0  0  0
  1  2  1  0  0  0  0
  1 30  1  0  0  0  0
  1 31  1  0  0  0  0
  1 32  1  0  0  0  0
  2  3  1  0  0  0  0
  2 33  1  0  0  0  0
  2 34  1  0  0  0  0
  3  4  1  0  0  0  0
  3 35  1  0  0  0  0
  3 36  1  0  0  0  0
  4  5  1  0  0  0  0
  4 37  1  0  0  0  0
  4 38  1  0  0  0  0
  5  6  1  0  0  0  0
  5 39  1  0  0  0  0
  5 40  1  0  0  0  0
  6  7  1  0  0  0  0
  7  8  2  0  0  0  0
  7  9  1  0  0  0  0
  9 10  1  0  0  0  0
  9 41  1  0  0  0  0
 10 24  1  0  0  0  0
 10 11  2  0  0  0  0
 11 12  1  0  0  0  0
 12 13  2  0  0  0  0
 12 14  1  0  0  0  0
 14 15  1  0  0  0  0
 14 23  1  0  0  0  0
 15 26  1  0  0  0  0
 15 21  1  0  0  0  0
 15 16  1  0  0  0  0
 16 17  1  0  0  0  0
 17 27  1  0  0  0  0
 17 18  1  0  0  0  0
 17 19  1  0  0  0  0
 18 42  1  0  0  0  0
 18 43  1  0  0  0  0
 18 44  1  0  0  0  0
 19 28  1  0  0  0  0
 19 20  1  0  0  0  0
 19 21  1  0  0  0  0
 20 45  1  0  0  0  0
 21 29  1  0  0  0  0
 21 22  1  0  0  0  0
 22 46  1  0  0  0  0
 23 24  2  0  0  0  0
 23 47  1  0  0  0  0
 24 25  1  0  0  0  0
M  END
> <s_m_source_file>
AV-unprocessed.smi

> <i_m_source_file_index>
40

> <i_lp_mmshare_version>
43012

> <i_f3d_flags>
0

> <s_epik_input>
W0NIM11bQ0gyXVtDSDJdW0NIMl1bQ0gyXU9DKD1PKVtOSF1jMW5jKD1PKW4oW2NIXWMxRilbQ0BASF0yT1tDQEhdKFtDSDNdKVtDQEBIXShbT0hdKVtDQEhdMltPSF0=

> <s_epik_cmdline>
J2VwaWtfcHl0aG9uJywgJy1waCcsICc3LjAnLCAnLXRuJywgJzgnLCAnLW1hJywgJzIwMCcsICctbWV0YWxfYmluZGluZycsICctaW1hZScsICc8aW5maWxlLm1hZT4nLCAnLW9tYWUnLCAnPG91dGZpbGUubWFlPic=

> <r_lp_tautomer_probability>
1

> <r_epik_Ionization_Penalty>
2.29506e-06

> <r_epik_Ionization_Penalty_Charging>
8.26867e-09

> <r_epik_Ionization_Penalty_Neutral>
2.2868e-06

> <r_epik_State_Penalty>
-0

> <r_epik_Charging_Adjusted_Penalty>
8.26867e-09

> <i_epik_Tot_Q>
0

> <i_epik_Tot_abs_Q>
0

> <r_epik_Metal_State_Penalty>
-0

> <b_epik_Metal_Only>
0

> <s_epik_Chemistry_Notes>
This compound has an ester and may undergo hydrolysis at high or low pH. This compound contains an acetal/aminal-like group ( X-CH(R)-Y where X, Y are N, S, or O) that may be acid/base labile, releasing an aldehyde.

> <s_lp_Force_Field>
OPLS_2005

> <r_lp_Energy>
42.3286

> <b_lp_Chiralities_Consistent>
1

> <s_lp_Variant>
AV-unprocessed.smi:40-2

> <Gold.Version>
5.8.1

> <Gold.Id.Protein>
6NUR|6NUR_protein|mol2

> <Gold.PLP.Fitness>
43.6244

> <Gold.PLP.PLP>
-35.8086

> <Gold.PLP.part.hbond>
-2.7654

> <Gold.PLP.part.metal>
0.0000

> <Gold.PLP.part.buried>
-3.3222

> <Gold.PLP.part.nonpolar>
-28.9479

> <Gold.PLP.part.repulsive>
0.3225

> <Gold.PLP.ligand.clash>
0.0000

> <Gold.PLP.ligand.torsion>
0.6365

> <Gold.PLP.Chemscore.Hbond>
3.0000

> <Gold.PLP.Chemscore.CHOScore>
0.0000

> <Gold.PLP.Chemscore.Metal>
0.0000

> <Gold.Chemscore.Hbonds>
donor molecule, donor type, donor heavy atom, donor atom, acceptor molecule, acceptor atom, score
      L1  H     9    41       P1  8028  0.42
      L1  H    20    45       P1  7948  0.75
      L1  H    22    46       P1  7948  0.41

> <Gold.PLP.Chemscore.Internal.Correction>
0.0889

> <Gold.Rescore>
     Score         DG    S(hbond)    S(metal)    S(lipo)     H(rot)  DE(clash)    DE(int)     intcor
     12.44     -15.76       2.96        0.00      84.05       3.70       1.54       1.78       ----

> <Gold.Chemscore.Fitness>
12.4385

> <Gold.Chemscore.DG>
-15.7559

> <Gold.Chemscore.ZeroCoef>
-5.4800

> <Gold.Chemscore.Hbond>
2.9648

> <Gold.Chemscore.Metal>
0.0000

> <Gold.Chemscore.Lipo>
84.0546

> <Gold.Chemscore.Internal_Hbond>
0.0000

> <Gold.Chemscore.DEClash>
1.5382

> <Gold.Chemscore.DEInternal>
1.7793

> <Gold.Chemscore.Rot>
3.6957

> <Gold.Chemscore.Internal.Correction>
   9.000000E+99

> <Gold.Chemscore.Hbonds>
donor molecule, donor type, donor heavy atom, donor atom, acceptor molecule, acceptor atom, score
      L1  H     9    41       P1  8028  0.42
      L1  H    20    45       P1  7948  0.74
      L1  H    22    46       P1  7948  0.41

> <Gold.Chemscore.Hbond.Weighted>
-9.9025

> <Gold.Chemscore.Metal.Weighted>
-0.0000

> <Gold.Chemscore.Lipo.Weighted>
-9.8344

> <Gold.Chemscore.Internal_Hbond.Weighted>
0.0000

> <Gold.Chemscore.DEClash.Weighted>
1.5382

> <Gold.Chemscore.DEInternal.Weighted>
1.7793

> <Gold.Chemscore.Rot.Weighted>
9.4610

> <Gold.Chemscore.Internal.Correction.Weighted>
   9.000000E+99

> <Gold.Protein.RotatedTorsions>
[ 6907 6896 6895 6894 ] final   31.26 input  -60.11 | X-H torsion
[ 7974 7965 7964 7962 ] final  -13.57 input  175.53 | X-H torsion
[ 8008 7997 7996 7995 ] final   73.23 input   59.86 | X-H torsion
[ 10167 10162 10161 10158 ] final   89.66 input  -65.29 | X-H torsion
[ 10718 10713 10712 10709 ] final  -21.74 input   66.30 | X-H torsion
[ 10763 10752 10751 10750 ] final  123.96 input  -60.55 | X-H torsion
[ 11005 11000 10999 10996 ] final  146.77 input  -57.11 | X-H torsion

> <Gold.Protein.ActiveResidues>
 VAL166  LYS551  ARG553  GLY616  TRP617  ASP618  TYR619  PRO620  LYS621  CYS622 
 ASP623  PHE694  ASN695  SER759  ASP760  ASP761  ALA762  ILE779  LEU786  VAL792 
 PHE793  MET794  SER795  GLU796  ALA797  LYS798  CYS799  TRP800  GLU811  SER814 

> <Gold.Protein.RotatedAtoms>
  152.0578  134.9613  160.0574 H   0  0  0  0  0  0  0  0  0  0  0  0  # atno 6907 bound_to 6896
  152.0989  133.4234  159.4586 H   0  0  0  0  0  0  0  0  0  0  0  0  # atno 6908 bound_to 6896
  150.6839  134.2703  159.4629 H   0  0  0  0  0  0  0  0  0  0  0  0  # atno 6909 bound_to 6896
  146.2109  140.3222  142.8391 H   0  0  0  0  0  0  0  0  0  0  0  0  # atno 7974 bound_to 7965
  155.7806  140.3482  155.5295 H   0  0  0  0  0  0  0  0  0  0  0  0  # atno 8008 bound_to 7997
  155.8732  140.0990  157.1557 H   0  0  0  0  0  0  0  0  0  0  0  0  # atno 8009 bound_to 7997
  154.4019  140.1336  156.4091 H   0  0  0  0  0  0  0  0  0  0  0  0  # atno 8010 bound_to 7997
  139.8550  144.6573  150.9124 H   0  0  0  0  0  0  0  0  0  0  0  0  # atno 10167 bound_to 10162
  156.5140  130.4617  149.6632 H   0  0  0  0  0  0  0  0  0  0  0  0  # atno 10718 bound_to 10713
  153.6537  135.3358  155.3107 H   0  0  0  0  0  0  0  0  0  0  0  0  # atno 10763 bound_to 10752
  154.8531  135.4347  154.1877 H   0  0  0  0  0  0  0  0  0  0  0  0  # atno 10764 bound_to 10752
  153.2826  135.7010  153.7446 H   0  0  0  0  0  0  0  0  0  0  0  0  # atno 10765 bound_to 10752
  140.0820  134.9091  157.1516 H   0  0  0  0  0  0  0  0  0  0  0  0  # atno 11005 bound_to 11000
  144.8912  140.7525  143.5926 LP  0  0  0  0  0  0  0  0  0  0  0  0  # atno 17320 bound_to 7965
  145.3145  139.1808  143.4621 LP  0  0  0  0  0  0  0  0  0  0  0  0  # atno 17321 bound_to 7965
  140.7782  143.3793  151.1505 LP  0  0  0  0  0  0  0  0  0  0  0  0  # atno 17342 bound_to 10162
  139.7428  143.8898  152.3055 LP  0  0  0  0  0  0  0  0  0  0  0  0  # atno 17343 bound_to 10162
  156.3213  130.7282  151.2194 LP  0  0  0  0  0  0  0  0  0  0  0  0  # atno 17370 bound_to 10713
  157.7446  131.0455  150.4846 LP  0  0  0  0  0  0  0  0  0  0  0  0  # atno 17371 bound_to 10713
  140.3474  134.2636  155.7203 LP  0  0  0  0  0  0  0  0  0  0  0  0  # atno 17394 bound_to 11000
  141.2050  133.7872  157.0257 LP  0  0  0  0  0  0  0  0  0  0  0  0  # atno 17395 bound_to 11000

$$$$
