AV-unprocessed.smi:2467|AV-procd|sdf|9726|dock3
  -GOLD-   2272013363D 1   1.00000     0.00000
 Structure written by MMmdl.
 46 47  0  0  0  0  0  0  0  0  1 V2000
  152.2049  140.3071  159.6425 C   0  0  0  0  0  0  0  0  0  0  0  0
  151.3180  140.1838  158.3940 C   0  0  0  0  0  0  0  0  0  0  0  0
  151.6027  141.2446  157.3007 C   0  0  0  0  0  0  0  0  0  0  0  0
  151.1136  142.6464  157.7440 C   0  0  0  0  0  0  0  0  0  0  0  0
  151.9721  143.3122  158.8304 C   0  0  0  0  0  0  0  0  0  0  0  0
  151.0063  140.8454  155.9248 C   0  0  1  0  0  0  0  0  0  0  0  0
  151.2363  139.3688  155.5320 C   0  0  0  0  0  0  0  0  0  0  0  0
  150.6210  139.0779  154.1553 C   0  0  1  0  0  0  0  0  0  0  0  0
  150.7390  137.6559  153.8478 N   0  0  0  0  0  0  0  0  0  0  0  0
  150.3702  136.6481  154.6556 C   0  0  0  0  0  0  0  0  0  0  0  0
  149.8690  136.8343  155.7635 O   0  0  0  0  0  0  0  0  0  0  0  0
  150.5774  135.3979  154.1885 N   0  0  0  0  0  0  0  0  0  0  0  0
  150.3152  134.1171  154.7588 C   0  0  0  0  0  0  0  0  0  0  0  0
  149.9665  133.1202  153.8193 C   0  0  0  0  0  0  0  0  0  0  0  0
  149.6777  131.8150  154.2623 C   0  0  0  0  0  0  0  0  0  0  0  0
  149.7438  131.5371  155.6388 C   0  0  0  0  0  0  0  0  0  0  0  0
  150.0974  132.5839  156.5095 C   0  0  0  0  0  0  0  0  0  0  0  0
  150.3745  133.8353  156.0857 N   0  0  0  0  0  0  0  0  0  0  0  0
  149.1466  139.5144  154.1579 C   0  0  0  0  0  0  0  0  0  0  0  0
  149.0124  140.9715  154.6279 C   0  0  0  0  0  0  0  0  0  0  0  0
  149.6094  141.1330  155.9107 O   0  0  0  0  0  0  0  0  0  0  0  0
  152.0103  139.4850  160.3316 H   0  0  0  0  0  0  0  0  0  0  0  0
  152.0232  141.2322  160.1878 H   0  0  0  0  0  0  0  0  0  0  0  0
  153.2625  140.2718  159.3795 H   0  0  0  0  0  0  0  0  0  0  0  0
  151.4723  139.1823  157.9983 H   0  0  0  0  0  0  0  0  0  0  0  0
  150.2681  140.2254  158.6861 H   0  0  0  0  0  0  0  0  0  0  0  0
  152.6852  141.3009  157.1770 H   0  0  0  0  0  0  0  0  0  0  0  0
  151.0428  143.3066  156.8787 H   0  0  0  0  0  0  0  0  0  0  0  0
  150.1027  142.5754  158.1417 H   0  0  0  0  0  0  0  0  0  0  0  0
  151.5057  144.2367  159.1717 H   0  0  0  0  0  0  0  0  0  0  0  0
  152.9665  143.5711  158.4692 H   0  0  0  0  0  0  0  0  0  0  0  0
  152.0854  142.6617  159.6981 H   0  0  0  0  0  0  0  0  0  0  0  0
  151.4850  141.4506  155.1555 H   0  0  0  0  0  0  0  0  0  0  0  0
  152.3042  139.1479  155.5170 H   0  0  0  0  0  0  0  0  0  0  0  0
  150.7898  138.6990  156.2660 H   0  0  0  0  0  0  0  0  0  0  0  0
  151.1647  139.6573  153.4067 H   0  0  0  0  0  0  0  0  0  0  0  0
  151.1435  137.4147  152.9537 H   0  0  0  0  0  0  0  0  0  0  0  0
  150.9657  135.3639  153.2575 H   0  0  0  0  0  0  0  0  0  0  0  0
  149.9191  133.3489  152.7642 H   0  0  0  0  0  0  0  0  0  0  0  0
  149.4095  131.0419  153.5575 H   0  0  0  0  0  0  0  0  0  0  0  0
  149.5292  130.5485  156.0171 H   0  0  0  0  0  0  0  0  0  0  0  0
  150.1599  132.4131  157.5740 H   0  0  0  0  0  0  0  0  0  0  0  0
  148.7142  139.4040  153.1627 H   0  0  0  0  0  0  0  0  0  0  0  0
  148.5704  138.8690  154.8226 H   0  0  0  0  0  0  0  0  0  0  0  0
  149.4740  141.6539  153.9125 H   0  0  0  0  0  0  0  0  0  0  0  0
  147.9598  141.2470  154.6939 H   0  0  0  0  0  0  0  0  0  0  0  0
  1  2  1  0  0  0  0
  1 22  1  0  0  0  0
  1 23  1  0  0  0  0
  1 24  1  0  0  0  0
  2  3  1  0  0  0  0
  2 25  1  0  0  0  0
  2 26  1  0  0  0  0
  3  4  1  0  0  0  0
  3  6  1  0  0  0  0
  3 27  1  0  0  0  0
  4  5  1  0  0  0  0
  4 28  1  0  0  0  0
  4 29  1  0  0  0  0
  5 30  1  0  0  0  0
  5 31  1  0  0  0  0
  5 32  1  0  0  0  0
  6 21  1  0  0  0  0
  6  7  1  0  0  0  0
  6 33  1  0  0  0  0
  7  8  1  0  0  0  0
  7 34  1  0  0  0  0
  7 35  1  0  0  0  0
  8  9  1  0  0  0  0
  8 19  1  0  0  0  0
  8 36  1  0  0  0  0
  9 10  1  0  0  0  0
  9 37  1  0  0  0  0
 10 11  2  0  0  0  0
 10 12  1  0  0  0  0
 12 13  1  0  0  0  0
 12 38  1  0  0  0  0
 13 18  1  0  0  0  0
 13 14  2  0  0  0  0
 14 15  1  0  0  0  0
 14 39  1  0  0  0  0
 15 16  2  0  0  0  0
 15 40  1  0  0  0  0
 16 17  1  0  0  0  0
 16 41  1  0  0  0  0
 17 18  2  0  0  0  0
 17 42  1  0  0  0  0
 19 20  1  0  0  0  0
 19 43  1  0  0  0  0
 19 44  1  0  0  0  0
 20 21  1  0  0  0  0
 20 45  1  0  0  0  0
 20 46  1  0  0  0  0
M  END
> <s_m_source_file>
AV-unprocessed.smi

> <i_m_source_file_index>
2467

> <i_lp_mmshare_version>
43012

> <i_f3d_flags>
0

> <s_epik_input>
W0NIM11bQ0gyXVtDSF0oW0NIMl1bQ0gzXSlbQ0BASF0xW0NIMl1bQ0BIXShbQ0gyXVtDSDJdTzEpW05IXUMoPU8pW05IXWMyW2NIXVtjSF1bY0hdW2NIXW4y

> <s_epik_cmdline>
J2VwaWtfcHl0aG9uJywgJy1waCcsICc3LjAnLCAnLXRuJywgJzgnLCAnLW1hJywgJzIwMCcsICctbWV0YWxfYmluZGluZycsICctaW1hZScsICc8aW5maWxlLm1hZT4nLCAnLW9tYWUnLCAnPG91dGZpbGUubWFlPic=

> <r_lp_tautomer_probability>
1

> <r_epik_Ionization_Penalty>
4.80427e-05

> <r_epik_Ionization_Penalty_Charging>
0

> <r_epik_Ionization_Penalty_Neutral>
4.80427e-05

> <r_epik_State_Penalty>
-0

> <r_epik_Charging_Adjusted_Penalty>
0

> <i_epik_Tot_Q>
0

> <i_epik_Tot_abs_Q>
0

> <r_epik_Metal_State_Penalty>
-0

> <b_epik_Metal_Only>
0

> <s_lp_Force_Field>
OPLS_2005

> <r_lp_Energy>
20.6132

> <b_lp_Chiralities_Consistent>
1

> <s_lp_Variant>
AV-unprocessed.smi:2467-2

> <Gold.Version>
5.8.1

> <Gold.Id.Protein>
6NUR|6NUR_protein|mol2

> <Gold.PLP.Fitness>
40.1688

> <Gold.PLP.PLP>
-37.3273

> <Gold.PLP.part.hbond>
-4.0000

> <Gold.PLP.part.metal>
0.0000

> <Gold.PLP.part.buried>
-1.9037

> <Gold.PLP.part.nonpolar>
-30.9395

> <Gold.PLP.part.repulsive>
0.3064

> <Gold.PLP.ligand.clash>
0.0000

> <Gold.PLP.ligand.torsion>
0.7628

> <Gold.PLP.Chemscore.Hbond>
1.4219

> <Gold.PLP.Chemscore.CHOScore>
0.0000

> <Gold.PLP.Chemscore.Metal>
0.0000

> <Gold.Chemscore.Hbonds>
donor molecule, donor type, donor heavy atom, donor atom, acceptor molecule, acceptor atom, score
      L1  H     9    37       P1  7949  0.86
      L1  H    12    38       P1  7949  0.65

> <Gold.PLP.Chemscore.Internal.Correction>
0.1016

> <Gold.Rescore>
     Score         DG    S(hbond)    S(metal)    S(lipo)     H(rot)  DE(clash)    DE(int)     intcor
     12.05     -15.09       0.70        0.00      94.53       1.49       0.19       2.85       ----

> <Gold.Chemscore.Fitness>
12.0458

> <Gold.Chemscore.DG>
-15.0889

> <Gold.Chemscore.ZeroCoef>
-5.4800

> <Gold.Chemscore.Hbond>
0.7041

> <Gold.Chemscore.Metal>
0.0000

> <Gold.Chemscore.Lipo>
94.5312

> <Gold.Chemscore.Internal_Hbond>
0.0000

> <Gold.Chemscore.DEClash>
0.1900

> <Gold.Chemscore.DEInternal>
2.8532

> <Gold.Chemscore.Rot>
1.4856

> <Gold.Chemscore.Internal.Correction>
   9.000000E+99

> <Gold.Chemscore.Hbonds>
donor molecule, donor type, donor heavy atom, donor atom, acceptor molecule, acceptor atom, score
      L1  H     9    37       P1  7949  0.39
      L1  H    12    38       P1  7949  0.06

> <Gold.Chemscore.Hbond.Weighted>
-2.3518

> <Gold.Chemscore.Metal.Weighted>
-0.0000

> <Gold.Chemscore.Lipo.Weighted>
-11.0602

> <Gold.Chemscore.Internal_Hbond.Weighted>
0.0000

> <Gold.Chemscore.DEClash.Weighted>
0.1900

> <Gold.Chemscore.DEInternal.Weighted>
2.8532

> <Gold.Chemscore.Rot.Weighted>
3.8031

> <Gold.Chemscore.Internal.Correction.Weighted>
   9.000000E+99

> <Gold.Protein.RotatedTorsions>
[ 6907 6896 6895 6894 ] final  102.93 input  -60.11 | X-H torsion
[ 7974 7965 7964 7962 ] final  -54.21 input  175.53 | X-H torsion
[ 8008 7997 7996 7995 ] final -142.23 input   59.86 | X-H torsion
[ 10167 10162 10161 10158 ] final  -87.79 input  -65.29 | X-H torsion
[ 10718 10713 10712 10709 ] final  -22.89 input   66.30 | X-H torsion
[ 10763 10752 10751 10750 ] final  -84.82 input  -60.55 | X-H torsion
[ 11005 11000 10999 10996 ] final   -0.61 input  -57.11 | X-H torsion

> <Gold.Protein.ActiveResidues>
 VAL166  LYS551  ARG553  GLY616  TRP617  ASP618  TYR619  PRO620  LYS621  CYS622 
 ASP623  PHE694  ASN695  SER759  ASP760  ASP761  ALA762  ILE779  LEU786  VAL792 
 PHE793  MET794  SER795  GLU796  ALA797  LYS798  CYS799  TRP800  GLU811  SER814 

> <Gold.Protein.RotatedAtoms>
  152.5310  133.9902  159.7846 H   0  0  0  0  0  0  0  0  0  0  0  0  # atno 6907 bound_to 6896
  151.0139  133.5931  159.2686 H   0  0  0  0  0  0  0  0  0  0  0  0  # atno 6908 bound_to 6896
  151.2996  135.0771  159.9287 H   0  0  0  0  0  0  0  0  0  0  0  0  # atno 6909 bound_to 6896
  145.8881  140.8092  142.9805 H   0  0  0  0  0  0  0  0  0  0  0  0  # atno 7974 bound_to 7965
  155.4908  140.0567  157.2954 H   0  0  0  0  0  0  0  0  0  0  0  0  # atno 8008 bound_to 7997
  154.4624  140.2002  156.0160 H   0  0  0  0  0  0  0  0  0  0  0  0  # atno 8009 bound_to 7997
  156.0914  140.3233  155.7824 H   0  0  0  0  0  0  0  0  0  0  0  0  # atno 8010 bound_to 7997
  140.3810  143.2749  151.9384 H   0  0  0  0  0  0  0  0  0  0  0  0  # atno 10167 bound_to 10162
  156.4984  130.4582  149.6715 H   0  0  0  0  0  0  0  0  0  0  0  0  # atno 10718 bound_to 10713
  154.6040  135.5507  153.7404 H   0  0  0  0  0  0  0  0  0  0  0  0  # atno 10763 bound_to 10752
  153.0166  135.6373  154.1674 H   0  0  0  0  0  0  0  0  0  0  0  0  # atno 10764 bound_to 10752
  154.1613  135.2897  155.3088 H   0  0  0  0  0  0  0  0  0  0  0  0  # atno 10765 bound_to 10752
  140.6381  133.9514  155.8311 H   0  0  0  0  0  0  0  0  0  0  0  0  # atno 11005 bound_to 11000
  144.6729  140.1488  143.7431 LP  0  0  0  0  0  0  0  0  0  0  0  0  # atno 17320 bound_to 7965
  145.8941  139.2393  143.1532 LP  0  0  0  0  0  0  0  0  0  0  0  0  # atno 17321 bound_to 7965
  139.4795  144.5818  151.7919 LP  0  0  0  0  0  0  0  0  0  0  0  0  # atno 17342 bound_to 10162
  140.4938  144.1271  150.5956 LP  0  0  0  0  0  0  0  0  0  0  0  0  # atno 17343 bound_to 10162
  156.3357  130.7355  151.2292 LP  0  0  0  0  0  0  0  0  0  0  0  0  # atno 17370 bound_to 10713
  157.7466  131.0417  150.4661 LP  0  0  0  0  0  0  0  0  0  0  0  0  # atno 17371 bound_to 10713
  141.0626  134.0323  157.3637 LP  0  0  0  0  0  0  0  0  0  0  0  0  # atno 17394 bound_to 11000
  139.9090  135.0186  156.7612 LP  0  0  0  0  0  0  0  0  0  0  0  0  # atno 17395 bound_to 11000

$$$$
