AV-unprocessed.smi:3333|AV-procd|sdf|12831|dock7
  -GOLD-   2272019213D 1   1.00000     0.00000
 Structure written by MMmdl.
 41 43  0  0  0  0  0  0  0  0  1 V2000
  144.1512  144.8192  155.8880 C   0  0  0  0  0  0  0  0  0  0  0  0
  144.5210  144.0792  154.5981 C   0  0  0  0  0  0  0  0  0  0  0  0
  145.5212  142.9956  154.8261 C   0  0  0  0  0  0  0  0  0  0  0  0
  146.6993  142.9374  154.1999 N   0  0  0  0  0  0  0  0  0  0  0  0
  147.4480  141.8122  154.5602 C   0  0  0  0  0  0  0  0  0  0  0  0
  148.8062  141.5913  153.9569 C   0  0  0  0  0  0  0  0  0  0  0  0
  149.8356  141.2403  155.0356 C   0  0  0  0  0  0  0  0  0  0  0  0
  150.5276  140.2271  154.9301 O   0  0  0  0  0  0  0  0  0  0  0  0
  149.9217  142.0841  156.0760 N   0  0  0  0  0  0  0  0  0  0  0  0
  150.8230  141.9250  157.2126 C   0  0  0  0  0  0  0  0  0  0  0  0
  150.8341  143.1720  158.1219 C   0  0  2  0  0  0  0  0  0  0  0  0
  151.5188  144.4053  157.4873 C   0  0  0  0  0  0  0  0  0  0  0  0
  152.5792  144.7908  158.5346 C   0  0  1  0  0  0  0  0  0  0  0  0
  151.8848  145.3448  159.7928 C   0  0  0  0  0  0  0  0  0  0  0  0
  151.2665  144.0820  160.4225 C   0  0  0  0  0  0  0  0  0  0  0  0
  151.6529  142.9790  159.4186 C   0  0  2  0  0  0  0  0  0  0  0  0
  153.0538  143.4235  159.0089 C   0  0  0  0  0  0  0  0  0  0  0  0
  146.8021  141.0008  155.4607 C   0  0  0  0  0  0  0  0  0  0  0  0
  145.2361  141.6278  155.8954 S   0  0  0  0  0  0  0  0  0  0  0  0
  143.4221  145.6047  155.6898 H   0  0  0  0  0  0  0  0  0  0  0  0
  145.0280  145.2837  156.3396 H   0  0  0  0  0  0  0  0  0  0  0  0
  143.7172  144.1385  156.6211 H   0  0  0  0  0  0  0  0  0  0  0  0
  143.6272  143.6458  154.1479 H   0  0  0  0  0  0  0  0  0  0  0  0
  144.9279  144.7821  153.8708 H   0  0  0  0  0  0  0  0  0  0  0  0
  148.7603  140.7968  153.2107 H   0  0  0  0  0  0  0  0  0  0  0  0
  149.1496  142.4844  153.4335 H   0  0  0  0  0  0  0  0  0  0  0  0
  149.3150  142.8910  156.0847 H   0  0  0  0  0  0  0  0  0  0  0  0
  150.5372  141.0421  157.7868 H   0  0  0  0  0  0  0  0  0  0  0  0
  151.8223  141.7261  156.8247 H   0  0  0  0  0  0  0  0  0  0  0  0
  149.8026  143.4141  158.3822 H   0  0  0  0  0  0  0  0  0  0  0  0
  152.0011  144.1511  156.5425 H   0  0  0  0  0  0  0  0  0  0  0  0
  150.8147  145.2145  157.2908 H   0  0  0  0  0  0  0  0  0  0  0  0
  153.3626  145.4413  158.1446 H   0  0  0  0  0  0  0  0  0  0  0  0
  152.6086  145.7969  160.4719 H   0  0  0  0  0  0  0  0  0  0  0  0
  151.1348  146.0989  159.5511 H   0  0  0  0  0  0  0  0  0  0  0  0
  151.7089  143.8865  161.4001 H   0  0  0  0  0  0  0  0  0  0  0  0
  150.1876  144.1672  160.5571 H   0  0  0  0  0  0  0  0  0  0  0  0
  151.5907  141.9740  159.8372 H   0  0  0  0  0  0  0  0  0  0  0  0
  153.4924  142.8174  158.2149 H   0  0  0  0  0  0  0  0  0  0  0  0
  153.7534  143.4746  159.8452 H   0  0  0  0  0  0  0  0  0  0  0  0
  147.1530  140.0762  155.8943 H   0  0  0  0  0  0  0  0  0  0  0  0
  1  2  1  0  0  0  0
  1 20  1  0  0  0  0
  1 21  1  0  0  0  0
  1 22  1  0  0  0  0
  2  3  1  0  0  0  0
  2 23  1  0  0  0  0
  2 24  1  0  0  0  0
  3 19  1  0  0  0  0
  3  4  2  0  0  0  0
  4  5  1  0  0  0  0
  5  6  1  0  0  0  0
  5 18  2  0  0  0  0
  6  7  1  0  0  0  0
  6 25  1  0  0  0  0
  6 26  1  0  0  0  0
  7  8  2  0  0  0  0
  7  9  1  0  0  0  0
  9 10  1  0  0  0  0
  9 27  1  0  0  0  0
 10 11  1  0  0  0  0
 10 28  1  0  0  0  0
 10 29  1  0  0  0  0
 11 16  1  0  0  0  0
 11 12  1  0  0  0  0
 11 30  1  0  0  0  0
 12 13  1  0  0  0  0
 12 31  1  0  0  0  0
 12 32  1  0  0  0  0
 13 17  1  0  0  0  0
 13 14  1  0  0  0  0
 13 33  1  0  0  0  0
 14 15  1  0  0  0  0
 14 34  1  0  0  0  0
 14 35  1  0  0  0  0
 15 16  1  0  0  0  0
 15 36  1  0  0  0  0
 15 37  1  0  0  0  0
 16 17  1  0  0  0  0
 16 38  1  0  0  0  0
 17 39  1  0  0  0  0
 17 40  1  0  0  0  0
 18 19  1  0  0  0  0
 18 41  1  0  0  0  0
M  END
> <s_m_source_file>
AV-unprocessed.smi

> <i_m_source_file_index>
3333

> <i_lp_mmshare_version>
43012

> <i_f3d_flags>
0

> <s_epik_input>
W0NIM11bQ0gyXWMxbmMoW2NIXXMxKVtDSDJdQyg9TylbTkhdW0NIMl1bQ0BIXShbQ0gyXVtDQEBIXTIzKVtDQEBIXShbQ0gyXTMpW0NIMl1bQ0gyXTI=

> <s_epik_cmdline>
J2VwaWtfcHl0aG9uJywgJy1waCcsICc3LjAnLCAnLXRuJywgJzgnLCAnLW1hJywgJzIwMCcsICctbWV0YWxfYmluZGluZycsICctaW1hZScsICc8aW5maWxlLm1hZT4nLCAnLW9tYWUnLCAnPG91dGZpbGUubWFlPic=

> <r_lp_tautomer_probability>
1

> <r_epik_Ionization_Penalty>
6.68371e-05

> <r_epik_Ionization_Penalty_Charging>
0

> <r_epik_Ionization_Penalty_Neutral>
6.68371e-05

> <r_epik_State_Penalty>
-0

> <r_epik_Charging_Adjusted_Penalty>
0

> <i_epik_Tot_Q>
0

> <i_epik_Tot_abs_Q>
0

> <r_epik_Metal_State_Penalty>
-0

> <b_epik_Metal_Only>
0

> <s_lp_Force_Field>
OPLS_2005

> <r_lp_Energy>
44.1536

> <b_lp_Chiralities_Consistent>
1

> <s_lp_Variant>
AV-unprocessed.smi:3333-1

> <Gold.Version>
5.8.1

> <Gold.Id.Protein>
6NUR|6NUR_protein|mol2

> <Gold.PLP.Fitness>
49.7987

> <Gold.PLP.PLP>
-44.8998

> <Gold.PLP.part.hbond>
-2.0695

> <Gold.PLP.part.metal>
0.0000

> <Gold.PLP.part.buried>
-3.2165

> <Gold.PLP.part.nonpolar>
-40.8359

> <Gold.PLP.part.repulsive>
0.5151

> <Gold.PLP.ligand.clash>
0.0000

> <Gold.PLP.ligand.torsion>
0.2620

> <Gold.PLP.Chemscore.Hbond>
1.8000

> <Gold.PLP.Chemscore.CHOScore>
0.0000

> <Gold.PLP.Chemscore.Metal>
0.0000

> <Gold.Chemscore.Hbonds>
donor molecule, donor type, donor heavy atom, donor atom, acceptor molecule, acceptor atom, score
      L1  H     9    27       P1  8028  1.00
      P1  H  7989  7998       L1     8  0.80

> <Gold.PLP.Chemscore.Internal.Correction>
0.0229

> <Gold.Rescore>
     Score         DG    S(hbond)    S(metal)    S(lipo)     H(rot)  DE(clash)    DE(int)     intcor
     19.95     -20.29       0.98        0.00     129.60       1.42       0.13       0.20       ----

> <Gold.Chemscore.Fitness>
19.9540

> <Gold.Chemscore.DG>
-20.2859

> <Gold.Chemscore.ZeroCoef>
-5.4800

> <Gold.Chemscore.Hbond>
0.9835

> <Gold.Chemscore.Metal>
0.0000

> <Gold.Chemscore.Lipo>
129.5988

> <Gold.Chemscore.Internal_Hbond>
0.0000

> <Gold.Chemscore.DEClash>
0.1302

> <Gold.Chemscore.DEInternal>
0.2018

> <Gold.Chemscore.Rot>
1.4227

> <Gold.Chemscore.Internal.Correction>
   9.000000E+99

> <Gold.Chemscore.Hbonds>
donor molecule, donor type, donor heavy atom, donor atom, acceptor molecule, acceptor atom, score
      L1  H     9    27       P1  8028  0.96
      P1  H  7989  7998       L1     8  0.12

> <Gold.Chemscore.Hbond.Weighted>
-3.2850

> <Gold.Chemscore.Metal.Weighted>
-0.0000

> <Gold.Chemscore.Lipo.Weighted>
-15.1631

> <Gold.Chemscore.Internal_Hbond.Weighted>
0.0000

> <Gold.Chemscore.DEClash.Weighted>
0.1302

> <Gold.Chemscore.DEInternal.Weighted>
0.2018

> <Gold.Chemscore.Rot.Weighted>
3.6421

> <Gold.Chemscore.Internal.Correction.Weighted>
   9.000000E+99

> <Gold.Protein.RotatedTorsions>
[ 6907 6896 6895 6894 ] final   65.13 input  -60.11 | X-H torsion
[ 7974 7965 7964 7962 ] final   59.12 input  175.53 | X-H torsion
[ 8008 7997 7996 7995 ] final   71.64 input   59.86 | X-H torsion
[ 10167 10162 10161 10158 ] final -111.65 input  -65.29 | X-H torsion
[ 10718 10713 10712 10709 ] final    0.60 input   66.30 | X-H torsion
[ 10763 10752 10751 10750 ] final  174.78 input  -60.55 | X-H torsion
[ 11005 11000 10999 10996 ] final   -5.27 input  -57.11 | X-H torsion

> <Gold.Protein.ActiveResidues>
 VAL166  LYS551  ARG553  GLY616  TRP617  ASP618  TYR619  PRO620  LYS621  CYS622 
 ASP623  PHE694  ASN695  SER759  ASP760  ASP761  ALA762  ILE779  LEU786  VAL792 
 PHE793  MET794  SER795  GLU796  ALA797  LYS798  CYS799  TRP800  GLU811  SER814 

> <Gold.Protein.RotatedAtoms>
  152.4384  134.5639  159.9901 H   0  0  0  0  0  0  0  0  0  0  0  0  # atno 6907 bound_to 6896
  151.5743  133.3380  159.3004 H   0  0  0  0  0  0  0  0  0  0  0  0  # atno 6908 bound_to 6896
  150.8286  134.7563  159.6899 H   0  0  0  0  0  0  0  0  0  0  0  0  # atno 6909 bound_to 6896
  145.9107  139.3652  143.0537 H   0  0  0  0  0  0  0  0  0  0  0  0  # atno 7974 bound_to 7965
  155.7569  140.3487  155.5178 H   0  0  0  0  0  0  0  0  0  0  0  0  # atno 8008 bound_to 7997
  155.8951  140.1024  157.1412 H   0  0  0  0  0  0  0  0  0  0  0  0  # atno 8009 bound_to 7997
  154.4037  140.1297  156.4352 H   0  0  0  0  0  0  0  0  0  0  0  0  # atno 8010 bound_to 7997
  140.1312  143.4359  152.1626 H   0  0  0  0  0  0  0  0  0  0  0  0  # atno 10167 bound_to 10162
  156.8358  130.5504  149.5682 H   0  0  0  0  0  0  0  0  0  0  0  0  # atno 10718 bound_to 10713
  154.4586  135.2767  155.1729 H   0  0  0  0  0  0  0  0  0  0  0  0  # atno 10763 bound_to 10752
  154.3527  135.6146  153.5654 H   0  0  0  0  0  0  0  0  0  0  0  0  # atno 10764 bound_to 10752
  152.9853  135.5815  154.4944 H   0  0  0  0  0  0  0  0  0  0  0  0  # atno 10765 bound_to 10752
  140.6893  133.9085  155.8607 H   0  0  0  0  0  0  0  0  0  0  0  0  # atno 11005 bound_to 11000
  145.8675  140.9439  143.0668 LP  0  0  0  0  0  0  0  0  0  0  0  0  # atno 17320 bound_to 7965
  144.6743  140.0611  143.7476 LP  0  0  0  0  0  0  0  0  0  0  0  0  # atno 17321 bound_to 7965
  139.5518  144.7343  151.4411 LP  0  0  0  0  0  0  0  0  0  0  0  0  # atno 17342 bound_to 10162
  140.6815  143.8070  150.7128 LP  0  0  0  0  0  0  0  0  0  0  0  0  # atno 17343 bound_to 10162
  156.0908  130.5894  150.9730 LP  0  0  0  0  0  0  0  0  0  0  0  0  # atno 17370 bound_to 10713
  157.6382  131.0913  150.8305 LP  0  0  0  0  0  0  0  0  0  0  0  0  # atno 17371 bound_to 10713
  141.0254  134.0830  157.4074 LP  0  0  0  0  0  0  0  0  0  0  0  0  # atno 17394 bound_to 11000
  139.8928  135.0127  156.6866 LP  0  0  0  0  0  0  0  0  0  0  0  0  # atno 17395 bound_to 11000

$$$$
