AV-unprocessed.smi:591|AV-procd|sdf|3009|dock1
  -GOLD-   2262023513D 1   1.00000     0.00000
 Structure written by MMmdl.
 42 43  0  0  0  0  0  0  0  0  1 V2000
  145.8476  138.4341  154.2325 O   0  0  0  0  0  0  0  0  0  0  0  0
  146.4081  138.2280  153.1550 C   0  0  0  0  0  0  0  0  0  0  0  0
  147.2324  139.3283  152.4710 C   0  0  0  0  0  0  0  0  0  0  0  0
  148.2884  139.8868  153.3324 N   0  0  0  0  0  0  0  0  0  0  0  0
  149.3771  139.0468  153.6392 C   0  0  0  0  0  0  0  0  0  0  0  0
  150.4032  139.4329  154.4215 C   0  0  0  0  0  0  0  0  0  0  0  0
  151.5946  138.5249  154.6845 C   0  0  0  0  0  0  0  0  0  0  0  0
  152.1971  138.1812  153.5459 F   0  0  0  0  0  0  0  0  0  0  0  0
  152.4837  139.1559  155.4506 F   0  0  0  0  0  0  0  0  0  0  0  0
  151.2214  137.4100  155.3143 F   0  0  0  0  0  0  0  0  0  0  0  0
  150.3565  140.7927  154.9220 C   0  0  0  0  0  0  0  0  0  0  0  0
  149.3292  141.6133  154.6275 C   0  0  0  0  0  0  0  0  0  0  0  0
  148.2113  141.1726  153.7901 C   0  0  0  0  0  0  0  0  0  0  0  0
  147.2659  141.9123  153.5163 O   0  0  0  0  0  0  0  0  0  0  0  0
  146.3289  137.0609  152.5007 N   0  0  0  0  0  0  0  0  0  0  0  0
  145.5941  135.8985  152.9796 C   0  0  0  0  0  0  0  0  0  0  0  0
  146.4546  134.6315  152.8650 C   0  0  0  0  0  0  0  0  0  0  0  0
  145.7385  133.4950  152.1538 C   0  0  0  0  0  0  0  0  0  0  0  0
  146.2444  132.2466  152.1154 C   0  0  0  0  0  0  0  0  0  0  0  0
  145.5663  131.0713  151.4334 C   0  0  0  0  0  0  0  0  0  0  0  0
  144.0962  131.3619  151.0882 C   0  0  0  0  0  0  0  0  0  0  0  0
  143.9336  132.7686  150.4989 C   0  0  0  0  0  0  0  0  0  0  0  0
  144.4140  133.8480  151.4854 C   0  0  0  0  0  0  0  0  0  0  0  0
  147.6678  138.9353  151.5501 H   0  0  0  0  0  0  0  0  0  0  0  0
  146.5479  140.1140  152.1483 H   0  0  0  0  0  0  0  0  0  0  0  0
  149.3294  138.0671  153.1864 H   0  0  0  0  0  0  0  0  0  0  0  0
  151.1579  141.1596  155.5463 H   0  0  0  0  0  0  0  0  0  0  0  0
  149.3275  142.6204  155.0188 H   0  0  0  0  0  0  0  0  0  0  0  0
  146.8117  136.9704  151.6183 H   0  0  0  0  0  0  0  0  0  0  0  0
  145.3020  136.0595  154.0187 H   0  0  0  0  0  0  0  0  0  0  0  0
  144.6776  135.7923  152.3977 H   0  0  0  0  0  0  0  0  0  0  0  0
  147.3781  134.8511  152.3280 H   0  0  0  0  0  0  0  0  0  0  0  0
  146.7498  134.3025  153.8624 H   0  0  0  0  0  0  0  0  0  0  0  0
  147.1956  132.0372  152.5829 H   0  0  0  0  0  0  0  0  0  0  0  0
  146.1271  130.8383  150.5279 H   0  0  0  0  0  0  0  0  0  0  0  0
  145.6287  130.1955  152.0798 H   0  0  0  0  0  0  0  0  0  0  0  0
  143.7209  130.6113  150.3920 H   0  0  0  0  0  0  0  0  0  0  0  0
  143.4867  131.2797  151.9892 H   0  0  0  0  0  0  0  0  0  0  0  0
  144.5089  132.8379  149.5745 H   0  0  0  0  0  0  0  0  0  0  0  0
  142.8927  132.9488  150.2285 H   0  0  0  0  0  0  0  0  0  0  0  0
  143.6657  133.9902  152.2655 H   0  0  0  0  0  0  0  0  0  0  0  0
  144.5104  134.8002  150.9629 H   0  0  0  0  0  0  0  0  0  0  0  0
  1  2  2  0  0  0  0
  2  3  1  0  0  0  0
  2 15  1  0  0  0  0
  3  4  1  0  0  0  0
  3 24  1  0  0  0  0
  3 25  1  0  0  0  0
  4 13  1  0  0  0  0
  4  5  1  0  0  0  0
  5  6  2  0  0  0  0
  5 26  1  0  0  0  0
  6  7  1  0  0  0  0
  6 11  1  0  0  0  0
  7  8  1  0  0  0  0
  7  9  1  0  0  0  0
  7 10  1  0  0  0  0
 11 12  2  0  0  0  0
 11 27  1  0  0  0  0
 12 13  1  0  0  0  0
 12 28  1  0  0  0  0
 13 14  2  0  0  0  0
 15 16  1  0  0  0  0
 15 29  1  0  0  0  0
 16 17  1  0  0  0  0
 16 30  1  0  0  0  0
 16 31  1  0  0  0  0
 17 18  1  0  0  0  0
 17 32  1  0  0  0  0
 17 33  1  0  0  0  0
 18 23  1  0  0  0  0
 18 19  2  0  0  0  0
 19 20  1  0  0  0  0
 19 34  1  0  0  0  0
 20 21  1  0  0  0  0
 20 35  1  0  0  0  0
 20 36  1  0  0  0  0
 21 22  1  0  0  0  0
 21 37  1  0  0  0  0
 21 38  1  0  0  0  0
 22 23  1  0  0  0  0
 22 39  1  0  0  0  0
 22 40  1  0  0  0  0
 23 41  1  0  0  0  0
 23 42  1  0  0  0  0
M  END
> <s_m_source_file>
AV-unprocessed.smi

> <i_m_source_file_index>
591

> <i_lp_mmshare_version>
43012

> <i_f3d_flags>
0

> <s_epik_input>
Tz1jMVtjSF1bY0hdYyhDKEYpKEYpRilbY0hdbjFbQ0gyXUMoPU8pW05IXVtDSDJdW0NIMl1DMj1bQ0hdW0NIMl1bQ0gyXVtDSDJdW0NIMl0y

> <s_epik_cmdline>
J2VwaWtfcHl0aG9uJywgJy1waCcsICc3LjAnLCAnLXRuJywgJzgnLCAnLW1hJywgJzIwMCcsICctbWV0YWxfYmluZGluZycsICctaW1hZScsICc8aW5maWxlLm1hZT4nLCAnLW9tYWUnLCAnPG91dGZpbGUubWFlPic=

> <r_lp_tautomer_probability>
1

> <r_epik_Ionization_Penalty>
3.65086e-08

> <r_epik_Ionization_Penalty_Charging>
1.84051e-08

> <r_epik_Ionization_Penalty_Neutral>
1.81035e-08

> <r_epik_State_Penalty>
-0

> <r_epik_Charging_Adjusted_Penalty>
1.84051e-08

> <i_epik_Tot_Q>
0

> <i_epik_Tot_abs_Q>
0

> <r_epik_Metal_State_Penalty>
-0

> <b_epik_Metal_Only>
0

> <s_lp_Force_Field>
OPLS_2005

> <r_lp_Energy>
19.2896

> <b_lp_Chiralities_Consistent>
1

> <s_lp_Variant>
AV-unprocessed.smi:591-1

> <Gold.Version>
5.8.1

> <Gold.Id.Protein>
6NUR|6NUR_protein|mol2

> <Gold.PLP.Fitness>
42.7712

> <Gold.PLP.PLP>
-40.6800

> <Gold.PLP.part.hbond>
-1.0000

> <Gold.PLP.part.metal>
0.0000

> <Gold.PLP.part.buried>
-2.4256

> <Gold.PLP.part.nonpolar>
-38.2807

> <Gold.PLP.part.repulsive>
0.2829

> <Gold.PLP.ligand.clash>
0.5211

> <Gold.PLP.ligand.torsion>
0.6276

> <Gold.PLP.Chemscore.Hbond>
0.2210

> <Gold.PLP.Chemscore.CHOScore>
1.0000

> <Gold.PLP.Chemscore.Metal>
0.0000

> <Gold.Chemscore.Hbonds>
donor molecule, donor type, donor heavy atom, donor atom, acceptor molecule, acceptor atom, score
      L1  H    15    29       P1  7948  0.13
      L1  C     5    26       P1  7948  1.00

> <Gold.PLP.Chemscore.Internal.Correction>
0.2045

> <Gold.Rescore>
     Score         DG    S(hbond)    S(metal)    S(lipo)     H(rot)  DE(clash)    DE(int)     intcor
     11.48     -12.42       0.31        0.00      92.99       1.94       0.30       0.64       ----

> <Gold.Chemscore.Fitness>
11.4777

> <Gold.Chemscore.DG>
-12.4177

> <Gold.Chemscore.ZeroCoef>
-5.4800

> <Gold.Chemscore.Hbond>
0.3058

> <Gold.Chemscore.Metal>
0.0000

> <Gold.Chemscore.Lipo>
92.9942

> <Gold.Chemscore.Internal_Hbond>
0.0000

> <Gold.Chemscore.DEClash>
0.3021

> <Gold.Chemscore.DEInternal>
0.6379

> <Gold.Chemscore.Rot>
1.9390

> <Gold.Chemscore.Internal.Correction>
   9.000000E+99

> <Gold.Chemscore.Hbonds>
donor molecule, donor type, donor heavy atom, donor atom, acceptor molecule, acceptor atom, score
      L1  H    15    29       P1  7948  0.13

> <Gold.Chemscore.Hbond.Weighted>
-1.0213

> <Gold.Chemscore.Metal.Weighted>
-0.0000

> <Gold.Chemscore.Lipo.Weighted>
-10.8803

> <Gold.Chemscore.Internal_Hbond.Weighted>
0.0000

> <Gold.Chemscore.DEClash.Weighted>
0.3021

> <Gold.Chemscore.DEInternal.Weighted>
0.6379

> <Gold.Chemscore.Rot.Weighted>
4.9639

> <Gold.Chemscore.Internal.Correction.Weighted>
   9.000000E+99

> <Gold.Protein.RotatedTorsions>
[ 6907 6896 6895 6894 ] final   89.77 input  -60.11 | X-H torsion
[ 7974 7965 7964 7962 ] final  148.33 input  175.53 | X-H torsion
[ 8008 7997 7996 7995 ] final  161.68 input   59.86 | X-H torsion
[ 10167 10162 10161 10158 ] final  147.95 input  -65.29 | X-H torsion
[ 10718 10713 10712 10709 ] final    4.22 input   66.30 | X-H torsion
[ 10763 10752 10751 10750 ] final  135.78 input  -60.55 | X-H torsion
[ 11005 11000 10999 10996 ] final  160.34 input  -57.11 | X-H torsion

> <Gold.Protein.ActiveResidues>
 VAL166  LYS551  ARG553  GLY616  TRP617  ASP618  TYR619  PRO620  LYS621  CYS622 
 ASP623  PHE694  ASN695  SER759  ASP760  ASP761  ALA762  ILE779  LEU786  VAL792 
 PHE793  MET794  SER795  GLU796  ALA797  LYS798  CYS799  TRP800  GLU811  SER814 

> <Gold.Protein.RotatedAtoms>
  152.5439  134.1915  159.8675 H   0  0  0  0  0  0  0  0  0  0  0  0  # atno 6907 bound_to 6896
  151.1910  133.4660  159.2602 H   0  0  0  0  0  0  0  0  0  0  0  0  # atno 6908 bound_to 6896
  151.1083  135.0024  159.8537 H   0  0  0  0  0  0  0  0  0  0  0  0  # atno 6909 bound_to 6896
  144.8522  139.6140  143.5968 H   0  0  0  0  0  0  0  0  0  0  0  0  # atno 7974 bound_to 7965
  156.2086  140.1770  156.7746 H   0  0  0  0  0  0  0  0  0  0  0  0  # atno 8008 bound_to 7997
  154.5689  140.0686  156.8965 H   0  0  0  0  0  0  0  0  0  0  0  0  # atno 8009 bound_to 7997
  155.2709  140.3342  155.4268 H   0  0  0  0  0  0  0  0  0  0  0  0  # atno 8010 bound_to 7997
  139.4882  144.5716  151.7044 H   0  0  0  0  0  0  0  0  0  0  0  0  # atno 10167 bound_to 10162
  156.8894  130.5682  149.5650 H   0  0  0  0  0  0  0  0  0  0  0  0  # atno 10718 bound_to 10713
  153.8457  135.3085  155.3429 H   0  0  0  0  0  0  0  0  0  0  0  0  # atno 10763 bound_to 10752
  154.7913  135.4781  154.0063 H   0  0  0  0  0  0  0  0  0  0  0  0  # atno 10764 bound_to 10752
  153.1549  135.6850  153.8920 H   0  0  0  0  0  0  0  0  0  0  0  0  # atno 10765 bound_to 10752
  140.2050  134.8310  157.3059 H   0  0  0  0  0  0  0  0  0  0  0  0  # atno 11005 bound_to 11000
  146.2794  139.6837  142.9240 LP  0  0  0  0  0  0  0  0  0  0  0  0  # atno 17320 bound_to 7965
  145.4477  141.0426  143.2822 LP  0  0  0  0  0  0  0  0  0  0  0  0  # atno 17321 bound_to 7965
  140.5304  144.0738  150.6052 LP  0  0  0  0  0  0  0  0  0  0  0  0  # atno 17342 bound_to 10162
  140.3727  143.2846  152.0260 LP  0  0  0  0  0  0  0  0  0  0  0  0  # atno 17343 bound_to 10162
  156.0636  130.5684  150.9244 LP  0  0  0  0  0  0  0  0  0  0  0  0  # atno 17370 bound_to 10713
  157.6093  131.0937  150.8824 LP  0  0  0  0  0  0  0  0  0  0  0  0  # atno 17371 bound_to 10713
  140.2013  134.4251  155.7661 LP  0  0  0  0  0  0  0  0  0  0  0  0  # atno 17394 bound_to 11000
  141.2227  133.7073  156.8188 LP  0  0  0  0  0  0  0  0  0  0  0  0  # atno 17395 bound_to 11000

$$$$
