AV-unprocessed.smi:34|AV-procd|sdf|231|dock1
  -GOLD-   2262015563D 1   1.00000     0.00000
 Structure written by MMmdl.
 54 58  0  0  0  0  0  0  0  0  2 V2000
  153.6955  139.7717  159.9008 O   0  0  0  0  0  0  0  0  0  0  0  0
  153.0645  140.1075  158.8963 C   0  0  0  0  0  0  0  0  0  0  0  0
  152.7416  139.3456  157.8209 N   0  5  0  0  0  0  0  0  0  0  0  0
  151.8512  138.3502  157.9477 C   0  0  0  0  0  0  0  0  0  0  0  0
  151.2996  138.0701  159.1563 N   0  0  0  0  0  0  0  0  0  0  0  0
  150.4197  137.0694  159.2825 C   0  0  0  0  0  0  0  0  0  0  0  0
  149.9621  136.2292  158.3488 N   0  0  0  0  0  0  0  0  0  0  0  0
  150.5178  136.4953  157.1309 C   0  0  0  0  0  0  0  0  0  0  0  0
  151.4602  137.5281  156.8558 C   0  0  0  0  0  0  0  0  0  0  0  0
  151.8205  137.5200  155.5170 N   0  0  0  0  0  0  0  0  0  0  0  0
  151.0983  136.5036  155.0507 C   0  0  0  0  0  0  0  0  0  0  0  0
  150.3072  135.8475  155.9263 N   0  0  0  0  0  0  0  0  0  0  0  0
  149.4012  134.6785  155.6973 C   0  0  2  0  0  0  0  0  0  0  0  0
  150.0731  133.5242  156.1123 O   0  0  0  0  0  0  0  0  0  0  0  0
  150.5060  132.7851  154.9737 C   0  0  1  0  0  0  0  0  0  0  0  0
  150.7408  131.3139  155.3348 C   0  0  0  0  0  0  0  0  0  0  0  0
  152.1369  131.0935  155.4491 O   0  0  0  0  0  0  0  0  0  0  0  0
  152.6226  129.8395  155.5086 C   0  0  0  0  0  0  0  0  0  0  0  0
  151.9780  128.8779  155.9317 O   0  0  0  0  0  0  0  0  0  0  0  0
  154.0236  129.7367  155.0068 C   0  0  0  0  0  0  0  0  0  0  0  0
  154.7416  130.9179  154.7073 C   0  0  0  0  0  0  0  0  0  0  0  0
  156.0645  130.8514  154.2282 C   0  0  0  0  0  0  0  0  0  0  0  0
  156.6856  129.6028  154.0423 C   0  0  0  0  0  0  0  0  0  0  0  0
  155.9820  128.4204  154.3363 C   0  0  0  0  0  0  0  0  0  0  0  0
  154.6592  128.4848  154.8158 C   0  0  0  0  0  0  0  0  0  0  0  0
  149.3694  133.0303  153.9849 C   0  0  1  0  0  0  0  0  0  0  0  0
  148.3123  132.2992  154.3520 F   0  0  0  0  0  0  0  0  0  0  0  0
  149.1038  134.5140  154.1975 C   0  0  1  0  0  0  0  0  0  0  0  0
  147.7772  134.8458  153.8417 O   0  0  0  0  0  0  0  0  0  0  0  0
  152.6260  141.5406  158.7600 C   0  0  0  0  0  0  0  0  0  0  0  0
  153.2074  142.5327  159.5822 C   0  0  0  0  0  0  0  0  0  0  0  0
  152.7929  143.8754  159.4865 C   0  0  0  0  0  0  0  0  0  0  0  0
  151.7844  144.2390  158.5746 C   0  0  0  0  0  0  0  0  0  0  0  0
  151.1879  143.2578  157.7609 C   0  0  0  0  0  0  0  0  0  0  0  0
  151.6028  141.9150  157.8551 C   0  0  0  0  0  0  0  0  0  0  0  0
  150.0275  136.9186  160.2772 H   0  0  0  0  0  0  0  0  0  0  0  0
  151.1561  136.2259  154.0101 H   0  0  0  0  0  0  0  0  0  0  0  0
  148.5229  134.8513  156.3206 H   0  0  0  0  0  0  0  0  0  0  0  0
  151.4237  133.2164  154.5733 H   0  0  0  0  0  0  0  0  0  0  0  0
  150.2355  131.0576  156.2670 H   0  0  0  0  0  0  0  0  0  0  0  0
  150.3397  130.6702  154.5508 H   0  0  0  0  0  0  0  0  0  0  0  0
  154.2857  131.8883  154.8413 H   0  0  0  0  0  0  0  0  0  0  0  0
  156.6026  131.7601  154.0022 H   0  0  0  0  0  0  0  0  0  0  0  0
  157.6996  129.5522  153.6740 H   0  0  0  0  0  0  0  0  0  0  0  0
  156.4567  127.4611  154.1926 H   0  0  0  0  0  0  0  0  0  0  0  0
  154.1477  127.5575  155.0286 H   0  0  0  0  0  0  0  0  0  0  0  0
  149.6199  132.7739  152.9552 H   0  0  0  0  0  0  0  0  0  0  0  0
  149.8067  135.1064  153.6092 H   0  0  0  0  0  0  0  0  0  0  0  0
  147.8028  135.3931  153.0715 H   0  0  0  0  0  0  0  0  0  0  0  0
  153.9812  142.2696  160.2888 H   0  0  0  0  0  0  0  0  0  0  0  0
  153.2483  144.6262  160.1149 H   0  0  0  0  0  0  0  0  0  0  0  0
  151.4660  145.2683  158.5022 H   0  0  0  0  0  0  0  0  0  0  0  0
  150.4092  143.5335  157.0653 H   0  0  0  0  0  0  0  0  0  0  0  0
  151.1249  141.1756  157.2287 H   0  0  0  0  0  0  0  0  0  0  0  0
  1  2  2  0  0  0  0
  2  3  1  0  0  0  0
  2 30  1  0  0  0  0
  3  4  1  0  0  0  0
  4  9  1  0  0  0  0
  4  5  2  0  0  0  0
  5  6  1  0  0  0  0
  6  7  2  0  0  0  0
  6 36  1  0  0  0  0
  7  8  1  0  0  0  0
  8 12  1  0  0  0  0
  8  9  2  0  0  0  0
  9 10  1  0  0  0  0
 10 11  2  0  0  0  0
 11 12  1  0  0  0  0
 11 37  1  0  0  0  0
 12 13  1  0  0  0  0
 13 28  1  0  0  0  0
 13 14  1  0  0  0  0
 13 38  1  0  0  0  0
 14 15  1  0  0  0  0
 15 16  1  0  0  0  0
 15 26  1  0  0  0  0
 15 39  1  0  0  0  0
 16 17  1  0  0  0  0
 16 40  1  0  0  0  0
 16 41  1  0  0  0  0
 17 18  1  0  0  0  0
 18 19  2  0  0  0  0
 18 20  1  0  0  0  0
 20 25  1  0  0  0  0
 20 21  2  0  0  0  0
 21 22  1  0  0  0  0
 21 42  1  0  0  0  0
 22 23  2  0  0  0  0
 22 43  1  0  0  0  0
 23 24  1  0  0  0  0
 23 44  1  0  0  0  0
 24 25  2  0  0  0  0
 24 45  1  0  0  0  0
 25 46  1  0  0  0  0
 26 27  1  0  0  0  0
 26 28  1  0  0  0  0
 26 47  1  0  0  0  0
 28 29  1  0  0  0  0
 28 48  1  0  0  0  0
 29 49  1  0  0  0  0
 30 35  1  0  0  0  0
 30 31  2  0  0  0  0
 31 32  1  0  0  0  0
 31 50  1  0  0  0  0
 32 33  2  0  0  0  0
 32 51  1  0  0  0  0
 33 34  1  0  0  0  0
 33 52  1  0  0  0  0
 34 35  2  0  0  0  0
 34 53  1  0  0  0  0
 35 54  1  0  0  0  0
M  CHG  1   3  -1
M  END
> <s_m_source_file>
AV-unprocessed.smi

> <i_m_source_file_index>
34

> <i_lp_mmshare_version>
43012

> <i_f3d_flags>
0

> <s_epik_input>
W2NIXTFbY0hdW2NIXVtjSF1bY0hdYzFDKD1PKVtOSF1jKG5bY0hdbjIpYyhjMjMpbltjSF1uM1tDQEBIXTRPW0NASF0oW0NAQEhdKEYpW0NASF00W09IXSlbQ0gyXU9DKD1PKWM1W2NIXVtjSF1bY0hdW2NIXVtjSF01

> <s_epik_cmdline>
J2VwaWtfcHl0aG9uJywgJy1waCcsICc3LjAnLCAnLXRuJywgJzgnLCAnLW1hJywgJzIwMCcsICctbWV0YWxfYmluZGluZycsICctaW1hZScsICc8aW5maWxlLm1hZT4nLCAnLW9tYWUnLCAnPG91dGZpbGUubWFlPic=

> <r_lp_tautomer_probability>
1

> <r_epik_Ionization_Penalty>
4.33227

> <r_epik_Ionization_Penalty_Charging>
3.41027

> <r_epik_Ionization_Penalty_Neutral>
0.922001

> <r_epik_State_Penalty>
3.41358

> <r_epik_Charging_Adjusted_Penalty>
6.82385

> <i_epik_Tot_Q>
-1

> <i_epik_Tot_abs_Q>
1

> <r_epik_Metal_State_Penalty>
0.496292

> <b_epik_Metal_Only>
1

> <s_epik_Chemistry_Notes>
This compound has an ester and may undergo hydrolysis at high or low pH. This compound contains an acetal/aminal-like group ( X-CH(R)-Y where X, Y are N, S, or O) that may be acid/base labile, releasing an aldehyde.

> <s_lp_Force_Field>
OPLS_2005

> <r_lp_Energy>
43.1366

> <b_lp_Chiralities_Consistent>
1

> <s_lp_Variant>
AV-unprocessed.smi:34-17

> <Gold.Version>
5.8.1

> <Gold.Id.Protein>
6NUR|6NUR_protein|mol2

> <Gold.PLP.Fitness>
54.4646

> <Gold.PLP.PLP>
-49.3441

> <Gold.PLP.part.hbond>
-2.5031

> <Gold.PLP.part.metal>
0.0000

> <Gold.PLP.part.buried>
-3.2907

> <Gold.PLP.part.nonpolar>
-41.8652

> <Gold.PLP.part.repulsive>
0.0610

> <Gold.PLP.ligand.clash>
0.0000

> <Gold.PLP.ligand.torsion>
2.3189

> <Gold.PLP.Chemscore.Hbond>
2.0593

> <Gold.PLP.Chemscore.CHOScore>
0.9846

> <Gold.PLP.Chemscore.Metal>
0.0000

> <Gold.Chemscore.Hbonds>
donor molecule, donor type, donor heavy atom, donor atom, acceptor molecule, acceptor atom, score
      L1  H    29    49       P1  7948  0.86
      P1  H  6896  6908       L1     7  0.26
      P1  H  7997  8009       L1     3  0.90
      L1  C    11    37       P1  7949  1.00

> <Gold.PLP.Chemscore.Internal.Correction>
0.6269

> <Gold.Rescore>
     Score         DG    S(hbond)    S(metal)    S(lipo)     H(rot)  DE(clash)    DE(int)     intcor
     12.21     -15.69       0.95        0.00     119.13       2.69       0.21       3.27       ----

> <Gold.Chemscore.Fitness>
12.2123

> <Gold.Chemscore.DG>
-15.6884

> <Gold.Chemscore.ZeroCoef>
-5.4800

> <Gold.Chemscore.Hbond>
0.9484

> <Gold.Chemscore.Metal>
0.0000

> <Gold.Chemscore.Lipo>
119.1296

> <Gold.Chemscore.Internal_Hbond>
0.0000

> <Gold.Chemscore.DEClash>
0.2102

> <Gold.Chemscore.DEInternal>
3.2658

> <Gold.Chemscore.Rot>
2.6944

> <Gold.Chemscore.Internal.Correction>
   9.000000E+99

> <Gold.Chemscore.Hbonds>
donor molecule, donor type, donor heavy atom, donor atom, acceptor molecule, acceptor atom, score
      L1  H    29    49       P1  7948  0.85
      P1  H  7997  8009       L1     3  0.03

> <Gold.Chemscore.Hbond.Weighted>
-3.1677

> <Gold.Chemscore.Metal.Weighted>
-0.0000

> <Gold.Chemscore.Lipo.Weighted>
-13.9382

> <Gold.Chemscore.Internal_Hbond.Weighted>
0.0000

> <Gold.Chemscore.DEClash.Weighted>
0.2102

> <Gold.Chemscore.DEInternal.Weighted>
3.2658

> <Gold.Chemscore.Rot.Weighted>
6.8975

> <Gold.Chemscore.Internal.Correction.Weighted>
   9.000000E+99

> <Gold.Protein.RotatedTorsions>
[ 6907 6896 6895 6894 ] final  173.05 input  -60.11 | X-H torsion
[ 7974 7965 7964 7962 ] final  -33.40 input  175.53 | X-H torsion
[ 8008 7997 7996 7995 ] final  177.92 input   59.86 | X-H torsion
[ 10167 10162 10161 10158 ] final  -25.28 input  -65.29 | X-H torsion
[ 10718 10713 10712 10709 ] final  -32.68 input   66.30 | X-H torsion
[ 10763 10752 10751 10750 ] final   62.39 input  -60.55 | X-H torsion
[ 11005 11000 10999 10996 ] final -102.30 input  -57.11 | X-H torsion

> <Gold.Protein.ActiveResidues>
 VAL166  LYS551  ARG553  GLY616  TRP617  ASP618  TYR619  PRO620  LYS621  CYS622 
 ASP623  PHE694  ASN695  SER759  ASP760  ASP761  ALA762  ILE779  LEU786  VAL792 
 PHE793  MET794  SER795  GLU796  ALA797  LYS798  CYS799  TRP800  GLU811  SER814 

> <Gold.Protein.RotatedAtoms>
  151.7745  133.3344  159.3453 H   0  0  0  0  0  0  0  0  0  0  0  0  # atno 6907 bound_to 6896
  150.7449  134.5988  159.6035 H   0  0  0  0  0  0  0  0  0  0  0  0  # atno 6908 bound_to 6896
  152.3319  134.7250  160.0338 H   0  0  0  0  0  0  0  0  0  0  0  0  # atno 6909 bound_to 6896
  146.0913  140.5912  142.8863 H   0  0  0  0  0  0  0  0  0  0  0  0  # atno 7974 bound_to 7965
  156.0604  140.1346  156.9948 H   0  0  0  0  0  0  0  0  0  0  0  0  # atno 8008 bound_to 7997
  154.4479  140.0992  156.6579 H   0  0  0  0  0  0  0  0  0  0  0  0  # atno 8009 bound_to 7997
  155.5386  140.3460  155.4444 H   0  0  0  0  0  0  0  0  0  0  0  0  # atno 8010 bound_to 7997
  140.7287  143.4279  151.0848 H   0  0  0  0  0  0  0  0  0  0  0  0  # atno 10167 bound_to 10162
  156.3720  130.4341  149.7538 H   0  0  0  0  0  0  0  0  0  0  0  0  # atno 10718 bound_to 10713
  152.9981  135.5466  154.6186 H   0  0  0  0  0  0  0  0  0  0  0  0  # atno 10763 bound_to 10752
  154.5490  135.2825  155.1028 H   0  0  0  0  0  0  0  0  0  0  0  0  # atno 10764 bound_to 10752
  154.2275  135.6439  153.5217 H   0  0  0  0  0  0  0  0  0  0  0  0  # atno 10765 bound_to 10752
  141.1195  133.8547  157.1342 H   0  0  0  0  0  0  0  0  0  0  0  0  # atno 11005 bound_to 11000
  144.7362  140.4816  143.6902 LP  0  0  0  0  0  0  0  0  0  0  0  0  # atno 17320 bound_to 7965
  145.6033  139.1506  143.3117 LP  0  0  0  0  0  0  0  0  0  0  0  0  # atno 17321 bound_to 7965
  139.7932  143.8188  152.3154 LP  0  0  0  0  0  0  0  0  0  0  0  0  # atno 17342 bound_to 10162
  139.8179  144.7308  150.9611 LP  0  0  0  0  0  0  0  0  0  0  0  0  # atno 17343 bound_to 10162
  156.4662  130.7975  151.2994 LP  0  0  0  0  0  0  0  0  0  0  0  0  # atno 17370 bound_to 10713
  157.7485  131.0050  150.3098 LP  0  0  0  0  0  0  0  0  0  0  0  0  # atno 17371 bound_to 10713
  140.0141  134.9975  157.0457 LP  0  0  0  0  0  0  0  0  0  0  0  0  # atno 17394 bound_to 11000
  140.4549  134.1544  155.7185 LP  0  0  0  0  0  0  0  0  0  0  0  0  # atno 17395 bound_to 11000

$$$$
