AV-unprocessed.smi:3161|AV-procd|sdf|12056|dock6
  -GOLD-   2272017483D 1   1.00000     0.00000
 Structure written by MMmdl.
 41 42  0  0  0  0  0  0  0  0  2 V2000
  152.8544  142.7575  162.6641 C   0  0  0  0  0  0  0  0  0  0  0  0
  152.3566  143.4039  161.4035 C   0  0  0  0  0  0  0  0  0  0  0  0
  151.8130  144.7107  161.2466 C   0  0  0  0  0  0  0  0  0  0  0  0
  151.4649  144.9765  159.9978 N   0  0  0  0  0  0  0  0  0  0  0  0
  151.7779  143.8551  159.3151 N   0  0  0  0  0  0  0  0  0  0  0  0
  151.5214  143.7862  157.8877 C   0  0  0  0  0  0  0  0  0  0  0  0
  150.6104  142.6002  157.4917 C   0  0  1  0  0  0  0  0  0  0  0  0
  149.2251  142.6734  158.1567 C   0  0  0  0  0  0  0  0  0  0  0  0
  150.4401  142.5221  156.0237 N   0  3  0  0  0  0  0  0  0  0  0  0
  149.5776  141.4236  155.5383 C   0  0  0  0  0  0  0  0  0  0  0  0
  150.4219  140.2873  154.9439 C   0  0  2  0  0  0  0  0  0  0  0  0
  149.7013  138.9274  155.0299 C   0  0  0  0  0  0  0  0  0  0  0  0
  150.6069  137.8038  154.5124 C   0  0  0  0  0  0  0  0  0  0  0  0
  151.9535  137.8478  155.2423 C   0  0  0  0  0  0  0  0  0  0  0  0
  152.5599  139.2574  155.1592 C   0  0  0  0  0  0  0  0  0  0  0  0
  151.6407  140.2124  155.6810 O   0  0  0  0  0  0  0  0  0  0  0  0
  152.3107  142.8871  160.1397 C   0  0  0  0  0  0  0  0  0  0  0  0
  153.1755  143.4968  163.3982 H   0  0  0  0  0  0  0  0  0  0  0  0
  153.7063  142.1042  162.4745 H   0  0  0  0  0  0  0  0  0  0  0  0
  152.0816  142.1500  163.1354 H   0  0  0  0  0  0  0  0  0  0  0  0
  151.6610  145.4696  162.0000 H   0  0  0  0  0  0  0  0  0  0  0  0
  151.0664  144.7279  157.5772 H   0  0  0  0  0  0  0  0  0  0  0  0
  152.4854  143.7253  157.3823 H   0  0  0  0  0  0  0  0  0  0  0  0
  151.0782  141.6710  157.8212 H   0  0  0  0  0  0  0  0  0  0  0  0
  149.2968  142.6296  159.2437 H   0  0  0  0  0  0  0  0  0  0  0  0
  148.5959  141.8393  157.8441 H   0  0  0  0  0  0  0  0  0  0  0  0
  148.7078  143.5969  157.8942 H   0  0  0  0  0  0  0  0  0  0  0  0
  150.0204  143.3890  155.7203 H   0  0  0  0  0  0  0  0  0  0  0  0
  148.9583  141.0387  156.3485 H   0  0  0  0  0  0  0  0  0  0  0  0
  148.9042  141.8175  154.7761 H   0  0  0  0  0  0  0  0  0  0  0  0
  150.6416  140.5154  153.8991 H   0  0  0  0  0  0  0  0  0  0  0  0
  149.4229  138.7220  156.0646 H   0  0  0  0  0  0  0  0  0  0  0  0
  148.7745  138.9518  154.4560 H   0  0  0  0  0  0  0  0  0  0  0  0
  150.1293  136.8336  154.6523 H   0  0  0  0  0  0  0  0  0  0  0  0
  150.7664  137.9239  153.4401 H   0  0  0  0  0  0  0  0  0  0  0  0
  151.8124  137.5729  156.2884 H   0  0  0  0  0  0  0  0  0  0  0  0
  152.6396  137.1154  154.8157 H   0  0  0  0  0  0  0  0  0  0  0  0
  153.4824  139.3030  155.7382 H   0  0  0  0  0  0  0  0  0  0  0  0
  152.8181  139.5103  154.1296 H   0  0  0  0  0  0  0  0  0  0  0  0
  152.6132  141.9208  159.7633 H   0  0  0  0  0  0  0  0  0  0  0  0
  151.3497  142.4408  155.5916 H   0  0  0  0  0  0  0  0  0  0  0  0
  1  2  1  0  0  0  0
  1 18  1  0  0  0  0
  1 19  1  0  0  0  0
  1 20  1  0  0  0  0
  2 17  2  0  0  0  0
  2  3  1  0  0  0  0
  3  4  2  0  0  0  0
  3 21  1  0  0  0  0
  4  5  1  0  0  0  0
  5  6  1  0  0  0  0
  5 17  1  0  0  0  0
  6  7  1  0  0  0  0
  6 22  1  0  0  0  0
  6 23  1  0  0  0  0
  7  8  1  0  0  0  0
  7  9  1  0  0  0  0
  7 24  1  0  0  0  0
  8 25  1  0  0  0  0
  8 26  1  0  0  0  0
  8 27  1  0  0  0  0
  9 10  1  0  0  0  0
  9 28  1  0  0  0  0
  9 41  1  0  0  0  0
 10 11  1  0  0  0  0
 10 29  1  0  0  0  0
 10 30  1  0  0  0  0
 11 16  1  0  0  0  0
 11 12  1  0  0  0  0
 11 31  1  0  0  0  0
 12 13  1  0  0  0  0
 12 32  1  0  0  0  0
 12 33  1  0  0  0  0
 13 14  1  0  0  0  0
 13 34  1  0  0  0  0
 13 35  1  0  0  0  0
 14 15  1  0  0  0  0
 14 36  1  0  0  0  0
 14 37  1  0  0  0  0
 15 16  1  0  0  0  0
 15 38  1  0  0  0  0
 15 39  1  0  0  0  0
 17 40  1  0  0  0  0
M  CHG  1   9   1
M  END
> <s_m_source_file>
AV-unprocessed.smi

> <i_m_source_file_index>
3161

> <i_lp_mmshare_version>
43012

> <i_f3d_flags>
0

> <s_epik_input>
W0NIM11jMVtjSF1ubihbY0hdMSlbQ0gyXVtDQEhdKFtDSDNdKVtOSF1bQ0gyXVtDQEBIXTJbQ0gyXVtDSDJdW0NIMl1bQ0gyXU8y

> <s_epik_cmdline>
J2VwaWtfcHl0aG9uJywgJy1waCcsICc3LjAnLCAnLXRuJywgJzgnLCAnLW1hJywgJzIwMCcsICctbWV0YWxfYmluZGluZycsICctaW1hZScsICc8aW5maWxlLm1hZT4nLCAnLW9tYWUnLCAnPG91dGZpbGUubWFlPic=

> <r_lp_tautomer_probability>
1

> <r_epik_Ionization_Penalty>
0.00849661

> <r_epik_Ionization_Penalty_Charging>
0.00848754

> <r_epik_Ionization_Penalty_Neutral>
9.06711e-06

> <r_epik_State_Penalty>
0.00639836

> <r_epik_Charging_Adjusted_Penalty>
0.0148859

> <i_epik_Tot_Q>
1

> <i_epik_Tot_abs_Q>
1

> <r_epik_Metal_State_Penalty>
0.00639921

> <b_epik_Metal_Only>
0

> <s_lp_Force_Field>
OPLS_2005

> <r_lp_Energy>
12.4763

> <b_lp_Chiralities_Consistent>
1

> <s_lp_Variant>
AV-unprocessed.smi:3161-2

> <Gold.Version>
5.8.1

> <Gold.Id.Protein>
6NUR|6NUR_protein|mol2

> <Gold.PLP.Fitness>
47.5391

> <Gold.PLP.PLP>
-42.7906

> <Gold.PLP.part.hbond>
-1.9139

> <Gold.PLP.part.metal>
0.0000

> <Gold.PLP.part.buried>
-2.0673

> <Gold.PLP.part.nonpolar>
-39.8865

> <Gold.PLP.part.repulsive>
0.2337

> <Gold.PLP.ligand.clash>
0.0000

> <Gold.PLP.ligand.torsion>
0.6393

> <Gold.PLP.Chemscore.Hbond>
2.0000

> <Gold.PLP.Chemscore.CHOScore>
0.0000

> <Gold.PLP.Chemscore.Metal>
0.0000

> <Gold.Chemscore.Hbonds>
donor molecule, donor type, donor heavy atom, donor atom, acceptor molecule, acceptor atom, score
      L1  H     9    28       P1  8028  2.00

> <Gold.PLP.Chemscore.Internal.Correction>
0.0271

> <Gold.Rescore>
     Score         DG    S(hbond)    S(metal)    S(lipo)     H(rot)  DE(clash)    DE(int)     intcor
     16.33     -16.94       0.98        0.00     104.26       1.57       0.03       0.58       ----

> <Gold.Chemscore.Fitness>
16.3275

> <Gold.Chemscore.DG>
-16.9384

> <Gold.Chemscore.ZeroCoef>
-5.4800

> <Gold.Chemscore.Hbond>
0.9827

> <Gold.Chemscore.Metal>
0.0000

> <Gold.Chemscore.Lipo>
104.2645

> <Gold.Chemscore.Internal_Hbond>
0.0000

> <Gold.Chemscore.DEClash>
0.0270

> <Gold.Chemscore.DEInternal>
0.5839

> <Gold.Chemscore.Rot>
1.5714

> <Gold.Chemscore.Internal.Correction>
   9.000000E+99

> <Gold.Chemscore.Hbonds>
donor molecule, donor type, donor heavy atom, donor atom, acceptor molecule, acceptor atom, score
      L1  H     9    28       P1  8028  1.00

> <Gold.Chemscore.Hbond.Weighted>
-3.2823

> <Gold.Chemscore.Metal.Weighted>
-0.0000

> <Gold.Chemscore.Lipo.Weighted>
-12.1989

> <Gold.Chemscore.Internal_Hbond.Weighted>
0.0000

> <Gold.Chemscore.DEClash.Weighted>
0.0270

> <Gold.Chemscore.DEInternal.Weighted>
0.5839

> <Gold.Chemscore.Rot.Weighted>
4.0228

> <Gold.Chemscore.Internal.Correction.Weighted>
   9.000000E+99

> <Gold.Protein.RotatedTorsions>
[ 6907 6896 6895 6894 ] final   -8.12 input  -60.11 | X-H torsion
[ 7974 7965 7964 7962 ] final   70.87 input  175.53 | X-H torsion
[ 8008 7997 7996 7995 ] final   87.24 input   59.86 | X-H torsion
[ 10167 10162 10161 10158 ] final  149.00 input  -65.29 | X-H torsion
[ 10718 10713 10712 10709 ] final   77.30 input   66.30 | X-H torsion
[ 10763 10752 10751 10750 ] final   50.00 input  -60.55 | X-H torsion
[ 11005 11000 10999 10996 ] final   86.76 input  -57.11 | X-H torsion

> <Gold.Protein.ActiveResidues>
 VAL166  LYS551  ARG553  GLY616  TRP617  ASP618  TYR619  PRO620  LYS621  CYS622 
 ASP623  PHE694  ASN695  SER759  ASP760  ASP761  ALA762  ILE779  LEU786  VAL792 
 PHE793  MET794  SER795  GLU796  ALA797  LYS798  CYS799  TRP800  GLU811  SER814 

> <Gold.Protein.RotatedAtoms>
  151.4387  135.1018  159.9663 H   0  0  0  0  0  0  0  0  0  0  0  0  # atno 6907 bound_to 6896
  152.4930  133.8549  159.7231 H   0  0  0  0  0  0  0  0  0  0  0  0  # atno 6908 bound_to 6896
  150.9103  133.6947  159.2884 H   0  0  0  0  0  0  0  0  0  0  0  0  # atno 6909 bound_to 6896
  145.7728  139.2851  143.1311 H   0  0  0  0  0  0  0  0  0  0  0  0  # atno 7974 bound_to 7965
  155.9729  140.3384  155.6592 H   0  0  0  0  0  0  0  0  0  0  0  0  # atno 8008 bound_to 7997
  155.6651  140.0720  157.2558 H   0  0  0  0  0  0  0  0  0  0  0  0  # atno 8009 bound_to 7997
  154.4171  140.1701  156.1806 H   0  0  0  0  0  0  0  0  0  0  0  0  # atno 8010 bound_to 7997
  139.4867  144.5636  151.7186 H   0  0  0  0  0  0  0  0  0  0  0  0  # atno 10167 bound_to 10162
  157.6705  130.9815  150.1621 H   0  0  0  0  0  0  0  0  0  0  0  0  # atno 10718 bound_to 10713
  152.9785  135.5893  154.4181 H   0  0  0  0  0  0  0  0  0  0  0  0  # atno 10763 bound_to 10752
  154.3808  135.2767  155.2214 H   0  0  0  0  0  0  0  0  0  0  0  0  # atno 10764 bound_to 10752
  154.4128  135.6077  153.6017 H   0  0  0  0  0  0  0  0  0  0  0  0  # atno 10765 bound_to 10752
  139.8936  134.8377  156.2765 H   0  0  0  0  0  0  0  0  0  0  0  0  # atno 11005 bound_to 11000
  146.0153  140.8398  142.9950 LP  0  0  0  0  0  0  0  0  0  0  0  0  # atno 17320 bound_to 7965
  144.6809  140.2549  143.7327 LP  0  0  0  0  0  0  0  0  0  0  0  0  # atno 17321 bound_to 7965
  140.5210  144.0879  150.6022 LP  0  0  0  0  0  0  0  0  0  0  0  0  # atno 17342 bound_to 10162
  140.3837  143.2789  152.0141 LP  0  0  0  0  0  0  0  0  0  0  0  0  # atno 17343 bound_to 10162
  156.2395  130.3689  149.8353 LP  0  0  0  0  0  0  0  0  0  0  0  0  # atno 17370 bound_to 10713
  156.6158  130.8605  151.3464 LP  0  0  0  0  0  0  0  0  0  0  0  0  # atno 17371 bound_to 10713
  141.0067  133.7120  156.1045 LP  0  0  0  0  0  0  0  0  0  0  0  0  # atno 17394 bound_to 11000
  140.7424  134.4135  157.5553 LP  0  0  0  0  0  0  0  0  0  0  0  0  # atno 17395 bound_to 11000

$$$$
