AV-unprocessed.smi:243|AV-procd|sdf|1859|dock4
  -GOLD-   2262020493D 1   1.00000     0.00000
 Structure written by MMmdl.
 58 61  0  0  0  0  0  0  0  0  2 V2000
  151.8182  144.4806  158.0785 C   0  0  0  0  0  0  0  0  0  0  0  0
  150.4877  143.8655  158.5356 C   0  0  0  0  0  0  0  0  0  0  0  0
  149.9506  142.8850  157.5588 N   0  3  1  0  0  0  0  0  0  0  0  0
  151.0149  142.0176  156.9925 C   0  0  0  0  0  0  0  0  0  0  0  0
  150.4623  141.1177  155.8768 C   0  0  0  0  0  0  0  0  0  0  0  0
  149.2761  140.2777  156.3884 C   0  0  2  0  0  0  0  0  0  0  0  0
  148.7806  139.3011  155.4046 N   0  0  0  0  0  0  0  0  0  0  0  0
  148.3041  139.7294  154.0871 C   0  0  0  0  0  0  0  0  0  0  0  0
  148.2288  138.1647  155.9109 C   0  0  0  0  0  0  0  0  0  0  0  0
  147.4686  137.3796  155.1004 N   0  0  0  0  0  0  0  0  0  0  0  0
  146.8969  136.2684  155.5723 C   0  0  0  0  0  0  0  0  0  0  0  0
  146.9532  135.7613  156.8042 N   0  0  0  0  0  0  0  0  0  0  0  0
  147.7192  136.5364  157.6234 C   0  0  0  0  0  0  0  0  0  0  0  0
  148.3847  137.7438  157.2642 C   0  0  0  0  0  0  0  0  0  0  0  0
  149.0705  138.2441  158.3656 N   0  0  0  0  0  0  0  0  0  0  0  0
  148.8158  137.3916  159.3195 C   0  0  0  0  0  0  0  0  0  0  0  0
  148.0202  136.3290  158.9581 N   0  0  0  0  0  0  0  0  0  0  0  0
  147.5914  135.2301  159.8098 C   0  0  0  0  0  0  0  0  0  0  0  0
  146.8346  135.6952  161.0761 C   0  0  1  0  0  0  0  0  0  0  0  0
  146.2314  134.5709  161.6930 O   0  0  0  0  0  0  0  0  0  0  0  0
  147.7141  136.3991  162.1066 C   0  0  0  0  0  0  0  0  0  0  0  0
  146.7613  137.4044  162.7379 C   0  0  0  0  0  0  0  0  0  0  0  0
  146.0115  137.8558  161.6234 O   0  0  0  0  0  0  0  0  0  0  0  0
  145.7380  136.7389  160.7831 C   0  0  0  0  0  0  0  0  0  0  0  0
  148.1830  141.1859  157.0138 C   0  0  2  0  0  0  0  0  0  0  0  0
  147.3662  142.0227  156.0108 C   0  0  0  0  0  0  0  0  0  0  0  0
  148.8197  142.0815  158.0975 C   0  0  0  0  0  0  0  0  0  0  0  0
  152.2292  145.1238  158.8572 H   0  0  0  0  0  0  0  0  0  0  0  0
  151.7041  145.0916  157.1837 H   0  0  0  0  0  0  0  0  0  0  0  0
  152.5572  143.7070  157.8668 H   0  0  0  0  0  0  0  0  0  0  0  0
  150.6673  143.3637  159.4873 H   0  0  0  0  0  0  0  0  0  0  0  0
  149.7487  144.6434  158.7327 H   0  0  0  0  0  0  0  0  0  0  0  0
  151.8179  142.6336  156.5857 H   0  0  0  0  0  0  0  0  0  0  0  0
  151.4527  141.4100  157.7862 H   0  0  0  0  0  0  0  0  0  0  0  0
  150.1619  141.7406  155.0339 H   0  0  0  0  0  0  0  0  0  0  0  0
  151.2546  140.4623  155.5131 H   0  0  0  0  0  0  0  0  0  0  0  0
  149.6941  139.7014  157.2108 H   0  0  0  0  0  0  0  0  0  0  0  0
  148.1417  138.8696  153.4355 H   0  0  0  0  0  0  0  0  0  0  0  0
  149.0408  140.3583  153.5888 H   0  0  0  0  0  0  0  0  0  0  0  0
  147.3698  140.2842  154.1502 H   0  0  0  0  0  0  0  0  0  0  0  0
  146.3100  135.7056  154.8612 H   0  0  0  0  0  0  0  0  0  0  0  0
  149.2110  137.5118  160.3176 H   0  0  0  0  0  0  0  0  0  0  0  0
  146.9606  134.5676  159.2160 H   0  0  0  0  0  0  0  0  0  0  0  0
  148.4693  134.6457  160.0889 H   0  0  0  0  0  0  0  0  0  0  0  0
  146.7865  134.2833  162.4016 H   0  0  0  0  0  0  0  0  0  0  0  0
  148.1727  135.7248  162.8315 H   0  0  0  0  0  0  0  0  0  0  0  0
  148.5154  136.9463  161.6086 H   0  0  0  0  0  0  0  0  0  0  0  0
  146.0998  136.9222  163.4594 H   0  0  0  0  0  0  0  0  0  0  0  0
  147.2794  138.2250  163.2348 H   0  0  0  0  0  0  0  0  0  0  0  0
  145.7417  137.0656  159.7426 H   0  0  0  0  0  0  0  0  0  0  0  0
  144.7392  136.3567  161.0004 H   0  0  0  0  0  0  0  0  0  0  0  0
  147.4681  140.5419  157.5279 H   0  0  0  0  0  0  0  0  0  0  0  0
  148.0016  142.6297  155.3666 H   0  0  0  0  0  0  0  0  0  0  0  0
  146.6865  142.6983  156.5308 H   0  0  0  0  0  0  0  0  0  0  0  0
  146.7460  141.3881  155.3795 H   0  0  0  0  0  0  0  0  0  0  0  0
  149.1839  141.4619  158.9189 H   0  0  0  0  0  0  0  0  0  0  0  0
  148.0553  142.7314  158.5219 H   0  0  0  0  0  0  0  0  0  0  0  0
  149.5870  143.4236  156.7856 H   0  0  0  0  0  0  0  0  0  0  0  0
  1  2  1  0  0  0  0
  1 28  1  0  0  0  0
  1 29  1  0  0  0  0
  1 30  1  0  0  0  0
  2  3  1  0  0  0  0
  2 31  1  0  0  0  0
  2 32  1  0  0  0  0
  3 27  1  0  0  0  0
  3  4  1  0  0  0  0
  3 58  1  0  0  0  0
  4  5  1  0  0  0  0
  4 33  1  0  0  0  0
  4 34  1  0  0  0  0
  5  6  1  0  0  0  0
  5 35  1  0  0  0  0
  5 36  1  0  0  0  0
  6  7  1  0  0  0  0
  6 25  1  0  0  0  0
  6 37  1  0  0  0  0
  7  8  1  0  0  0  0
  7  9  1  0  0  0  0
  8 38  1  0  0  0  0
  8 39  1  0  0  0  0
  8 40  1  0  0  0  0
  9 14  1  0  0  0  0
  9 10  2  0  0  0  0
 10 11  1  0  0  0  0
 11 12  2  0  0  0  0
 11 41  1  0  0  0  0
 12 13  1  0  0  0  0
 13 17  1  0  0  0  0
 13 14  2  0  0  0  0
 14 15  1  0  0  0  0
 15 16  2  0  0  0  0
 16 17  1  0  0  0  0
 16 42  1  0  0  0  0
 17 18  1  0  0  0  0
 18 19  1  0  0  0  0
 18 43  1  0  0  0  0
 18 44  1  0  0  0  0
 19 24  1  0  0  0  0
 19 20  1  0  0  0  0
 19 21  1  0  0  0  0
 20 45  1  0  0  0  0
 21 22  1  0  0  0  0
 21 46  1  0  0  0  0
 21 47  1  0  0  0  0
 22 23  1  0  0  0  0
 22 48  1  0  0  0  0
 22 49  1  0  0  0  0
 23 24  1  0  0  0  0
 24 50  1  0  0  0  0
 24 51  1  0  0  0  0
 25 26  1  0  0  0  0
 25 27  1  0  0  0  0
 25 52  1  0  0  0  0
 26 53  1  0  0  0  0
 26 54  1  0  0  0  0
 26 55  1  0  0  0  0
 27 56  1  0  0  0  0
 27 57  1  0  0  0  0
M  CHG  1   3   1
M  END
> <s_m_source_file>
AV-unprocessed.smi

> <i_m_source_file_index>
243

> <i_lp_mmshare_version>
43012

> <i_f3d_flags>
0

> <s_epik_input>
W0NIM11bQ0gyXU4xW0NIMl1bQ0gyXVtDQEhdKFtDQEBIXShbQ0gzXSlbQ0gyXTEpTihbQ0gzXSljKG5bY0hdbjIpYyhjMjMpbltjSF1uM1tDSDJdW0NAQF00KFtPSF0pW0NIMl1bQ0gyXU9bQ0gyXTQ=

> <s_epik_cmdline>
J2VwaWtfcHl0aG9uJywgJy1waCcsICc3LjAnLCAnLXRuJywgJzgnLCAnLW1hJywgJzIwMCcsICctbWV0YWxfYmluZGluZycsICctaW1hZScsICc8aW5maWxlLm1hZT4nLCAnLW9tYWUnLCAnPG91dGZpbGUubWFlPic=

> <r_lp_tautomer_probability>
1

> <r_epik_Ionization_Penalty>
0.00253099

> <r_epik_Ionization_Penalty_Charging>
0.00137877

> <r_epik_Ionization_Penalty_Neutral>
0.00115221

> <r_epik_State_Penalty>
-0

> <r_epik_Charging_Adjusted_Penalty>
0.00137877

> <i_epik_Tot_Q>
1

> <i_epik_Tot_abs_Q>
1

> <r_epik_Metal_State_Penalty>
-0

> <b_epik_Metal_Only>
0

> <s_lp_Force_Field>
OPLS_2005

> <r_lp_Energy>
49.5807

> <b_lp_Chiralities_Consistent>
1

> <s_lp_Variant>
AV-unprocessed.smi:243-12

> <Gold.Version>
5.8.1

> <Gold.Id.Protein>
6NUR|6NUR_protein|mol2

> <Gold.PLP.Fitness>
43.1593

> <Gold.PLP.PLP>
-34.8957

> <Gold.PLP.part.hbond>
-2.0000

> <Gold.PLP.part.metal>
0.0000

> <Gold.PLP.part.buried>
-4.4806

> <Gold.PLP.part.nonpolar>
-28.0124

> <Gold.PLP.part.repulsive>
0.0956

> <Gold.PLP.ligand.clash>
0.0000

> <Gold.PLP.ligand.torsion>
0.7014

> <Gold.PLP.Chemscore.Hbond>
2.9120

> <Gold.PLP.Chemscore.CHOScore>
0.0000

> <Gold.PLP.Chemscore.Metal>
0.0000

> <Gold.Chemscore.Hbonds>
donor molecule, donor type, donor heavy atom, donor atom, acceptor molecule, acceptor atom, score
      L1  H     3    58       P1  8028  2.00
      P1  H  6934  6947       L1    23  0.83

> <Gold.PLP.Chemscore.Internal.Correction>
0.9304

> <Gold.Rescore>
     Score         DG    S(hbond)    S(metal)    S(lipo)     H(rot)  DE(clash)    DE(int)     intcor
     13.60     -15.60       1.69        0.00      87.14       2.24       0.01       1.98       ----

> <Gold.Chemscore.Fitness>
13.6009

> <Gold.Chemscore.DG>
-15.6005

> <Gold.Chemscore.ZeroCoef>
-5.4800

> <Gold.Chemscore.Hbond>
1.6927

> <Gold.Chemscore.Metal>
0.0000

> <Gold.Chemscore.Lipo>
87.1446

> <Gold.Chemscore.Internal_Hbond>
0.0000

> <Gold.Chemscore.DEClash>
0.0147

> <Gold.Chemscore.DEInternal>
1.9849

> <Gold.Chemscore.Rot>
2.2379

> <Gold.Chemscore.Internal.Correction>
   9.000000E+99

> <Gold.Chemscore.Hbonds>
donor molecule, donor type, donor heavy atom, donor atom, acceptor molecule, acceptor atom, score
      L1  H     3    58       P1  8028  1.00
      P1  H  6934  6947       L1    23  0.19

> <Gold.Chemscore.Hbond.Weighted>
-5.6537

> <Gold.Chemscore.Metal.Weighted>
-0.0000

> <Gold.Chemscore.Lipo.Weighted>
-10.1959

> <Gold.Chemscore.Internal_Hbond.Weighted>
0.0000

> <Gold.Chemscore.DEClash.Weighted>
0.0147

> <Gold.Chemscore.DEInternal.Weighted>
1.9849

> <Gold.Chemscore.Rot.Weighted>
5.7291

> <Gold.Chemscore.Internal.Correction.Weighted>
   9.000000E+99

> <Gold.Protein.RotatedTorsions>
[ 6907 6896 6895 6894 ] final   56.99 input  -60.11 | X-H torsion
[ 7974 7965 7964 7962 ] final  -35.93 input  175.53 | X-H torsion
[ 8008 7997 7996 7995 ] final   36.23 input   59.86 | X-H torsion
[ 10167 10162 10161 10158 ] final  -19.62 input  -65.29 | X-H torsion
[ 10718 10713 10712 10709 ] final  -20.98 input   66.30 | X-H torsion
[ 10763 10752 10751 10750 ] final  -55.67 input  -60.55 | X-H torsion
[ 11005 11000 10999 10996 ] final  -70.24 input  -57.11 | X-H torsion

> <Gold.Protein.ActiveResidues>
 VAL166  LYS551  ARG553  GLY616  TRP617  ASP618  TYR619  PRO620  LYS621  CYS622 
 ASP623  PHE694  ASN695  SER759  ASP760  ASP761  ALA762  ILE779  LEU786  VAL792 
 PHE793  MET794  SER795  GLU796  ALA797  LYS798  CYS799  TRP800  GLU811  SER814 

> <Gold.Protein.RotatedAtoms>
  152.3689  134.6763  160.0182 H   0  0  0  0  0  0  0  0  0  0  0  0  # atno 6907 bound_to 6896
  151.7062  133.3306  159.3287 H   0  0  0  0  0  0  0  0  0  0  0  0  # atno 6908 bound_to 6896
  150.7659  134.6507  159.6331 H   0  0  0  0  0  0  0  0  0  0  0  0  # atno 6909 bound_to 6896
  146.0705  140.6218  142.8955 H   0  0  0  0  0  0  0  0  0  0  0  0  # atno 7974 bound_to 7965
  155.1840  140.3302  155.4370 H   0  0  0  0  0  0  0  0  0  0  0  0  # atno 8008 bound_to 7997
  156.2466  140.1922  156.6887 H   0  0  0  0  0  0  0  0  0  0  0  0  # atno 8009 bound_to 7997
  154.6251  140.0590  156.9650 H   0  0  0  0  0  0  0  0  0  0  0  0  # atno 8010 bound_to 7997
  140.7270  143.4801  151.0129 H   0  0  0  0  0  0  0  0  0  0  0  0  # atno 10167 bound_to 10162
  156.5244  130.4640  149.6580 H   0  0  0  0  0  0  0  0  0  0  0  0  # atno 10718 bound_to 10713
  154.1945  135.6421  153.5069 H   0  0  0  0  0  0  0  0  0  0  0  0  # atno 10763 bound_to 10752
  153.0027  135.5436  154.6380 H   0  0  0  0  0  0  0  0  0  0  0  0  # atno 10764 bound_to 10752
  154.5778  135.2922  155.0736 H   0  0  0  0  0  0  0  0  0  0  0  0  # atno 10765 bound_to 10752
  141.1570  133.6785  156.6723 H   0  0  0  0  0  0  0  0  0  0  0  0  # atno 11005 bound_to 11000
  144.7229  140.4430  143.6995 LP  0  0  0  0  0  0  0  0  0  0  0  0  # atno 17320 bound_to 7965
  145.6400  139.1548  143.2921 LP  0  0  0  0  0  0  0  0  0  0  0  0  # atno 17321 bound_to 7965
  139.8499  143.7452  152.3178 LP  0  0  0  0  0  0  0  0  0  0  0  0  # atno 17342 bound_to 10162
  139.7631  144.7500  151.0335 LP  0  0  0  0  0  0  0  0  0  0  0  0  # atno 17343 bound_to 10162
  156.3119  130.7233  151.2128 LP  0  0  0  0  0  0  0  0  0  0  0  0  # atno 17370 bound_to 10713
  157.7432  131.0479  150.4967 LP  0  0  0  0  0  0  0  0  0  0  0  0  # atno 17371 bound_to 10713
  140.3166  134.8043  157.4219 LP  0  0  0  0  0  0  0  0  0  0  0  0  # atno 17394 bound_to 11000
  140.1133  134.5316  155.8247 LP  0  0  0  0  0  0  0  0  0  0  0  0  # atno 17395 bound_to 11000

$$$$
