AV-unprocessed.smi:1485|AV-procd|sdf|6004|dock5
  -GOLD-   22720 6103D 1   1.00000     0.00000
 Structure written by MMmdl.
 44 45  0  0  0  0  0  0  0  0  1 V2000
  148.1798  135.2308  160.0073 C   0  0  0  0  0  0  0  0  0  0  0  0
  149.1288  135.2128  158.9557 O   0  0  0  0  0  0  0  0  0  0  0  0
  148.9901  136.3201  158.0799 C   0  0  0  0  0  0  0  0  0  0  0  0
  149.1396  137.6322  158.8771 C   0  0  0  0  0  0  0  0  0  0  0  0
  148.8718  138.8465  158.0850 N   0  0  0  0  0  0  0  0  0  0  0  0
  149.8396  139.8324  158.1933 N   0  0  0  0  0  0  0  0  0  0  0  0
  149.7418  140.9276  157.5132 C   0  0  0  0  0  0  0  0  0  0  0  0
  150.8006  141.9721  157.5635 C   0  0  0  0  0  0  0  0  0  0  0  0
  150.9620  142.7839  156.6509 O   0  0  0  0  0  0  0  0  0  0  0  0
  151.5743  141.9393  158.6630 N   0  0  0  0  0  0  0  0  0  0  0  0
  152.7534  142.7635  158.9130 C   0  0  1  0  0  0  0  0  0  0  0  0
  152.3743  144.2564  158.8805 C   0  0  0  0  0  0  0  0  0  0  0  0
  151.4993  144.6591  160.0806 C   0  0  0  0  0  0  0  0  0  0  0  0
  152.1672  144.2821  161.4123 C   0  0  0  0  0  0  0  0  0  0  0  0
  152.5143  142.7823  161.4678 C   0  0  2  0  0  0  0  0  0  0  0  0
  153.1787  142.4087  162.8002 C   0  0  0  0  0  0  0  0  0  0  0  0
  153.3983  142.3888  160.2645 C   0  0  0  0  0  0  0  0  0  0  0  0
  148.5956  141.1695  156.6556 C   0  0  0  0  0  0  0  0  0  0  0  0
  147.6401  140.2171  156.5836 C   0  0  0  0  0  0  0  0  0  0  0  0
  147.7340  138.9624  157.3333 C   0  0  0  0  0  0  0  0  0  0  0  0
  146.8625  138.0945  157.2917 O   0  0  0  0  0  0  0  0  0  0  0  0
  148.3231  134.3591  160.6455 H   0  0  0  0  0  0  0  0  0  0  0  0
  147.1605  135.2016  159.6204 H   0  0  0  0  0  0  0  0  0  0  0  0
  148.2950  136.1220  160.6258 H   0  0  0  0  0  0  0  0  0  0  0  0
  149.7623  136.2722  157.3107 H   0  0  0  0  0  0  0  0  0  0  0  0
  148.0303  136.2836  157.5612 H   0  0  0  0  0  0  0  0  0  0  0  0
  148.4809  137.5662  159.7443 H   0  0  0  0  0  0  0  0  0  0  0  0
  150.1532  137.7022  159.2732 H   0  0  0  0  0  0  0  0  0  0  0  0
  151.3600  141.2402  159.3596 H   0  0  0  0  0  0  0  0  0  0  0  0
  153.4794  142.5866  158.1177 H   0  0  0  0  0  0  0  0  0  0  0  0
  153.2859  144.8556  158.8884 H   0  0  0  0  0  0  0  0  0  0  0  0
  151.8629  144.4959  157.9473 H   0  0  0  0  0  0  0  0  0  0  0  0
  151.3078  145.7322  160.0535 H   0  0  0  0  0  0  0  0  0  0  0  0
  150.5257  144.1726  160.0096 H   0  0  0  0  0  0  0  0  0  0  0  0
  153.0730  144.8753  161.5442 H   0  0  0  0  0  0  0  0  0  0  0  0
  151.5048  144.5432  162.2381 H   0  0  0  0  0  0  0  0  0  0  0  0
  151.5814  142.2202  161.4050 H   0  0  0  0  0  0  0  0  0  0  0  0
  154.1311  142.9244  162.9275 H   0  0  0  0  0  0  0  0  0  0  0  0
  153.3696  141.3368  162.8556 H   0  0  0  0  0  0  0  0  0  0  0  0
  152.5409  142.6730  163.6442 H   0  0  0  0  0  0  0  0  0  0  0  0
  153.6130  141.3196  160.2908 H   0  0  0  0  0  0  0  0  0  0  0  0
  154.3630  142.8911  160.3470 H   0  0  0  0  0  0  0  0  0  0  0  0
  148.5008  142.0859  156.0912 H   0  0  0  0  0  0  0  0  0  0  0  0
  146.7799  140.3837  155.9519 H   0  0  0  0  0  0  0  0  0  0  0  0
  1  2  1  0  0  0  0
  1 22  1  0  0  0  0
  1 23  1  0  0  0  0
  1 24  1  0  0  0  0
  2  3  1  0  0  0  0
  3  4  1  0  0  0  0
  3 25  1  0  0  0  0
  3 26  1  0  0  0  0
  4  5  1  0  0  0  0
  4 27  1  0  0  0  0
  4 28  1  0  0  0  0
  5 20  1  0  0  0  0
  5  6  1  0  0  0  0
  6  7  2  0  0  0  0
  7  8  1  0  0  0  0
  7 18  1  0  0  0  0
  8  9  2  0  0  0  0
  8 10  1  0  0  0  0
 10 11  1  0  0  0  0
 10 29  1  0  0  0  0
 11 17  1  0  0  0  0
 11 12  1  0  0  0  0
 11 30  1  0  0  0  0
 12 13  1  0  0  0  0
 12 31  1  0  0  0  0
 12 32  1  0  0  0  0
 13 14  1  0  0  0  0
 13 33  1  0  0  0  0
 13 34  1  0  0  0  0
 14 15  1  0  0  0  0
 14 35  1  0  0  0  0
 14 36  1  0  0  0  0
 15 16  1  0  0  0  0
 15 17  1  0  0  0  0
 15 37  1  0  0  0  0
 16 38  1  0  0  0  0
 16 39  1  0  0  0  0
 16 40  1  0  0  0  0
 17 41  1  0  0  0  0
 17 42  1  0  0  0  0
 18 19  2  0  0  0  0
 18 43  1  0  0  0  0
 19 20  1  0  0  0  0
 19 44  1  0  0  0  0
 20 21  2  0  0  0  0
M  END
> <s_m_source_file>
AV-unprocessed.smi

> <i_m_source_file_index>
1485

> <i_lp_mmshare_version>
43012

> <i_f3d_flags>
0

> <s_epik_input>
W0NIM11PW0NIMl1bQ0gyXW4xbmMoW2NIXVtjSF1jMT1PKUMoPU8pW05IXVtDQEBIXTJbQ0gyXVtDSDJdW0NIMl1bQ0BASF0oW0NIM10pW0NIMl0y

> <s_epik_cmdline>
J2VwaWtfcHl0aG9uJywgJy1waCcsICc3LjAnLCAnLXRuJywgJzgnLCAnLW1hJywgJzIwMCcsICctbWV0YWxfYmluZGluZycsICctaW1hZScsICc8aW5maWxlLm1hZT4nLCAnLW9tYWUnLCAnPG91dGZpbGUubWFlPic=

> <r_lp_tautomer_probability>
1

> <r_epik_Ionization_Penalty>
6.4688e-07

> <r_epik_Ionization_Penalty_Charging>
6.63567e-09

> <r_epik_Ionization_Penalty_Neutral>
6.40245e-07

> <r_epik_State_Penalty>
-0

> <r_epik_Charging_Adjusted_Penalty>
6.63567e-09

> <i_epik_Tot_Q>
0

> <i_epik_Tot_abs_Q>
0

> <r_epik_Metal_State_Penalty>
-0

> <b_epik_Metal_Only>
0

> <s_lp_Force_Field>
OPLS_2005

> <r_lp_Energy>
30.8996

> <b_lp_Chiralities_Consistent>
1

> <s_lp_Variant>
AV-unprocessed.smi:1485-4

> <Gold.Version>
5.8.1

> <Gold.Id.Protein>
6NUR|6NUR_protein|mol2

> <Gold.PLP.Fitness>
41.7782

> <Gold.PLP.PLP>
-39.4209

> <Gold.PLP.part.hbond>
-1.0000

> <Gold.PLP.part.metal>
0.0000

> <Gold.PLP.part.buried>
-5.3749

> <Gold.PLP.part.nonpolar>
-33.8028

> <Gold.PLP.part.repulsive>
1.1286

> <Gold.PLP.ligand.clash>
0.0000

> <Gold.PLP.ligand.torsion>
0.3372

> <Gold.PLP.Chemscore.Hbond>
1.0000

> <Gold.PLP.Chemscore.CHOScore>
0.0000

> <Gold.PLP.Chemscore.Metal>
0.0000

> <Gold.Chemscore.Hbonds>
donor molecule, donor type, donor heavy atom, donor atom, acceptor molecule, acceptor atom, score
      P1  H  6896  6907       L1     2  1.00

> <Gold.PLP.Chemscore.Internal.Correction>
0.0318

> <Gold.Rescore>
     Score         DG    S(hbond)    S(metal)    S(lipo)     H(rot)  DE(clash)    DE(int)     intcor
     16.48     -17.16       0.99        0.00     105.47       1.55       0.49       0.19       ----

> <Gold.Chemscore.Fitness>
16.4845

> <Gold.Chemscore.DG>
-17.1610

> <Gold.Chemscore.ZeroCoef>
-5.4800

> <Gold.Chemscore.Hbond>
0.9891

> <Gold.Chemscore.Metal>
0.0000

> <Gold.Chemscore.Lipo>
105.4671

> <Gold.Chemscore.Internal_Hbond>
0.0000

> <Gold.Chemscore.DEClash>
0.4908

> <Gold.Chemscore.DEInternal>
0.1857

> <Gold.Chemscore.Rot>
1.5478

> <Gold.Chemscore.Internal.Correction>
   9.000000E+99

> <Gold.Chemscore.Hbonds>
donor molecule, donor type, donor heavy atom, donor atom, acceptor molecule, acceptor atom, score
      P1  H  6896  6907       L1     2  0.78

> <Gold.Chemscore.Hbond.Weighted>
-3.3036

> <Gold.Chemscore.Metal.Weighted>
-0.0000

> <Gold.Chemscore.Lipo.Weighted>
-12.3396

> <Gold.Chemscore.Internal_Hbond.Weighted>
0.0000

> <Gold.Chemscore.DEClash.Weighted>
0.4908

> <Gold.Chemscore.DEInternal.Weighted>
0.1857

> <Gold.Chemscore.Rot.Weighted>
3.9623

> <Gold.Chemscore.Internal.Correction.Weighted>
   9.000000E+99

> <Gold.Protein.RotatedTorsions>
[ 6907 6896 6895 6894 ] final  -82.23 input  -60.11 | X-H torsion
[ 7974 7965 7964 7962 ] final -174.29 input  175.53 | X-H torsion
[ 8008 7997 7996 7995 ] final  -85.21 input   59.86 | X-H torsion
[ 10167 10162 10161 10158 ] final -102.15 input  -65.29 | X-H torsion
[ 10718 10713 10712 10709 ] final  108.04 input   66.30 | X-H torsion
[ 10763 10752 10751 10750 ] final  106.88 input  -60.55 | X-H torsion
[ 11005 11000 10999 10996 ] final  -42.64 input  -57.11 | X-H torsion

> <Gold.Protein.ActiveResidues>
 VAL166  LYS551  ARG553  GLY616  TRP617  ASP618  TYR619  PRO620  LYS621  CYS622 
 ASP623  PHE694  ASN695  SER759  ASP760  ASP761  ALA762  ILE779  LEU786  VAL792 
 PHE793  MET794  SER795  GLU796  ALA797  LYS798  CYS799  TRP800  GLU811  SER814 

> <Gold.Protein.RotatedAtoms>
  150.6900  134.3697  159.4986 H   0  0  0  0  0  0  0  0  0  0  0  0  # atno 6907 bound_to 6896
  152.1515  134.8982  160.0557 H   0  0  0  0  0  0  0  0  0  0  0  0  # atno 6908 bound_to 6896
  152.0078  133.3815  159.4244 H   0  0  0  0  0  0  0  0  0  0  0  0  # atno 6909 bound_to 6896
  144.7133  140.1493  143.6385 H   0  0  0  0  0  0  0  0  0  0  0  0  # atno 7974 bound_to 7965
  154.6382  140.0594  156.9814 H   0  0  0  0  0  0  0  0  0  0  0  0  # atno 8008 bound_to 7997
  155.1558  140.3278  155.4403 H   0  0  0  0  0  0  0  0  0  0  0  0  # atno 8009 bound_to 7997
  156.2518  140.1939  156.6668 H   0  0  0  0  0  0  0  0  0  0  0  0  # atno 8010 bound_to 7997
  140.2337  143.3588  152.0864 H   0  0  0  0  0  0  0  0  0  0  0  0  # atno 10167 bound_to 10162
  157.6603  131.0885  150.6246 H   0  0  0  0  0  0  0  0  0  0  0  0  # atno 10718 bound_to 10713
  153.3991  135.3862  155.1975 H   0  0  0  0  0  0  0  0  0  0  0  0  # atno 10763 bound_to 10752
  154.8727  135.3767  154.4641 H   0  0  0  0  0  0  0  0  0  0  0  0  # atno 10764 bound_to 10752
  153.5137  135.7087  153.5829 H   0  0  0  0  0  0  0  0  0  0  0  0  # atno 10765 bound_to 10752
  141.0329  133.6812  156.2622 H   0  0  0  0  0  0  0  0  0  0  0  0  # atno 11005 bound_to 11000
  145.9130  139.2499  143.1426 LP  0  0  0  0  0  0  0  0  0  0  0  0  # atno 17320 bound_to 7965
  145.9697  140.8770  143.0169 LP  0  0  0  0  0  0  0  0  0  0  0  0  # atno 17321 bound_to 7965
  139.5101  144.6878  151.5840 LP  0  0  0  0  0  0  0  0  0  0  0  0  # atno 17342 bound_to 10162
  140.6166  143.9337  150.6493 LP  0  0  0  0  0  0  0  0  0  0  0  0  # atno 17343 bound_to 10162
  156.6550  130.4496  149.5706 LP  0  0  0  0  0  0  0  0  0  0  0  0  # atno 17370 bound_to 10713
  156.2109  130.6678  151.1269 LP  0  0  0  0  0  0  0  0  0  0  0  0  # atno 17371 bound_to 10713
  140.6374  134.5201  157.5566 LP  0  0  0  0  0  0  0  0  0  0  0  0  # atno 17394 bound_to 11000
  139.9220  134.8129  156.1181 LP  0  0  0  0  0  0  0  0  0  0  0  0  # atno 17395 bound_to 11000

$$$$
