AV-unprocessed.smi:557|AV-procd|sdf|2921|dock7
  -GOLD-   2262023413D 1   1.00000     0.00000
 Structure written by MMmdl.
 47 49  0  0  0  0  0  0  0  0  2 V2000
  153.5936  142.5501  160.0905 C   0  0  0  0  0  0  0  0  0  0  0  0
  152.6522  142.6608  158.9967 N   0  0  0  0  0  0  0  0  0  0  0  0
  151.8988  141.6692  158.4070 C   0  0  0  0  0  0  0  0  0  0  0  0
  151.1586  142.2505  157.4163 C   0  0  0  0  0  0  0  0  0  0  0  0
  150.1804  141.6053  156.4752 C   0  0  0  0  0  0  0  0  0  0  0  0
  150.8382  140.4793  155.6669 C   0  0  0  0  0  0  0  0  0  0  0  0
  149.8408  139.5001  155.2444 N   0  0  0  0  0  0  0  0  0  0  0  0
  148.7530  139.7253  154.4888 C   0  0  0  0  0  0  0  0  0  0  0  0
  148.4842  140.8421  154.0514 O   0  0  0  0  0  0  0  0  0  0  0  0
  148.0031  138.6350  154.2518 N   0  0  0  0  0  0  0  0  0  0  0  0
  146.7584  138.6143  153.4857 C   0  0  1  0  0  0  0  0  0  0  0  0
  146.9393  139.0589  152.0218 C   0  0  0  0  0  0  0  0  0  0  0  0
  146.0414  138.1119  151.2190 C   0  0  0  0  0  0  0  0  0  0  0  0
  146.1340  136.8584  151.9759 N   0  3  2  0  0  0  0  0  0  0  0  0
  145.2091  135.7566  151.6429 C   0  0  0  0  0  0  0  0  0  0  0  0
  145.6427  134.5040  152.4351 C   0  0  0  0  0  0  0  0  0  0  0  0
  145.7878  134.7862  153.9485 C   0  0  0  0  0  0  0  0  0  0  0  0
  146.6559  136.0340  154.2225 C   0  0  0  0  0  0  0  0  0  0  0  0
  146.1039  137.2153  153.4048 C   0  0  1  0  0  0  0  0  0  0  0  0
  151.5349  143.6224  157.4845 C   0  0  0  0  0  0  0  0  0  0  0  0
  152.4296  143.8639  158.4291 N   0  0  0  0  0  0  0  0  0  0  0  0
  153.6797  141.5100  160.4061 H   0  0  0  0  0  0  0  0  0  0  0  0
  153.2505  143.1494  160.9344 H   0  0  0  0  0  0  0  0  0  0  0  0
  154.5740  142.9057  159.7724 H   0  0  0  0  0  0  0  0  0  0  0  0
  151.9512  140.6418  158.7360 H   0  0  0  0  0  0  0  0  0  0  0  0
  149.3309  141.2041  157.0295 H   0  0  0  0  0  0  0  0  0  0  0  0
  149.7641  142.3453  155.7903 H   0  0  0  0  0  0  0  0  0  0  0  0
  151.3414  140.8931  154.7916 H   0  0  0  0  0  0  0  0  0  0  0  0
  151.5954  139.9816  156.2754 H   0  0  0  0  0  0  0  0  0  0  0  0
  150.0319  138.5394  155.4910 H   0  0  0  0  0  0  0  0  0  0  0  0
  148.3145  137.7575  154.6421 H   0  0  0  0  0  0  0  0  0  0  0  0
  146.0425  139.2967  153.9488 H   0  0  0  0  0  0  0  0  0  0  0  0
  146.6853  140.1079  151.8657 H   0  0  0  0  0  0  0  0  0  0  0  0
  147.9759  138.9208  151.7098 H   0  0  0  0  0  0  0  0  0  0  0  0
  145.0097  138.4675  151.2173 H   0  0  0  0  0  0  0  0  0  0  0  0
  146.3708  137.9923  150.1865 H   0  0  0  0  0  0  0  0  0  0  0  0
  144.1835  136.0383  151.8873 H   0  0  0  0  0  0  0  0  0  0  0  0
  145.2444  135.5558  150.5717 H   0  0  0  0  0  0  0  0  0  0  0  0
  144.9315  133.6936  152.2723 H   0  0  0  0  0  0  0  0  0  0  0  0
  146.5996  134.1520  152.0475 H   0  0  0  0  0  0  0  0  0  0  0  0
  144.7974  134.9361  154.3803 H   0  0  0  0  0  0  0  0  0  0  0  0
  146.2122  133.9169  154.4518 H   0  0  0  0  0  0  0  0  0  0  0  0
  146.6432  136.2660  155.2879 H   0  0  0  0  0  0  0  0  0  0  0  0
  147.6939  135.8352  153.9514 H   0  0  0  0  0  0  0  0  0  0  0  0
  145.0575  137.3533  153.6865 H   0  0  0  0  0  0  0  0  0  0  0  0
  151.1867  144.4450  156.8772 H   0  0  0  0  0  0  0  0  0  0  0  0
  147.0650  136.5104  151.7976 H   0  0  0  0  0  0  0  0  0  0  0  0
  1  2  1  0  0  0  0
  1 22  1  0  0  0  0
  1 23  1  0  0  0  0
  1 24  1  0  0  0  0
  2 21  1  0  0  0  0
  2  3  1  0  0  0  0
  3  4  2  0  0  0  0
  3 25  1  0  0  0  0
  4  5  1  0  0  0  0
  4 20  1  0  0  0  0
  5  6  1  0  0  0  0
  5 26  1  0  0  0  0
  5 27  1  0  0  0  0
  6  7  1  0  0  0  0
  6 28  1  0  0  0  0
  6 29  1  0  0  0  0
  7  8  1  0  0  0  0
  7 30  1  0  0  0  0
  8  9  2  0  0  0  0
  8 10  1  0  0  0  0
 10 11  1  0  0  0  0
 10 31  1  0  0  0  0
 11 19  1  0  0  0  0
 11 12  1  0  0  0  0
 11 32  1  0  0  0  0
 12 13  1  0  0  0  0
 12 33  1  0  0  0  0
 12 34  1  0  0  0  0
 13 14  1  0  0  0  0
 13 35  1  0  0  0  0
 13 36  1  0  0  0  0
 14 19  1  0  0  0  0
 14 15  1  0  0  0  0
 14 47  1  0  0  0  0
 15 16  1  0  0  0  0
 15 37  1  0  0  0  0
 15 38  1  0  0  0  0
 16 17  1  0  0  0  0
 16 39  1  0  0  0  0
 16 40  1  0  0  0  0
 17 18  1  0  0  0  0
 17 41  1  0  0  0  0
 17 42  1  0  0  0  0
 18 19  1  0  0  0  0
 18 43  1  0  0  0  0
 18 44  1  0  0  0  0
 19 45  1  0  0  0  0
 20 21  2  0  0  0  0
 20 46  1  0  0  0  0
M  CHG  1  14   1
M  END
> <s_m_source_file>
AV-unprocessed.smi

> <i_m_source_file_index>
557

> <i_lp_mmshare_version>
43012

> <i_f3d_flags>
0

> <s_epik_input>
W0NIM11uMVtjSF1jKFtjSF1uMSlbQ0gyXVtDSDJdW05IXUMoPU8pW05IXVtDQEhdKFtDSDJdW0NIMl0yKVtDQEhdKE4yMylbQ0gyXVtDSDJdW0NIMl1bQ0gyXTM=

> <s_epik_cmdline>
J2VwaWtfcHl0aG9uJywgJy1waCcsICc3LjAnLCAnLXRuJywgJzgnLCAnLW1hJywgJzIwMCcsICctbWV0YWxfYmluZGluZycsICctaW1hZScsICc8aW5maWxlLm1hZT4nLCAnLW9tYWUnLCAnPG91dGZpbGUubWFlPic=

> <r_lp_tautomer_probability>
1

> <r_epik_Ionization_Penalty>
0.000956547

> <r_epik_Ionization_Penalty_Charging>
0.000435796

> <r_epik_Ionization_Penalty_Neutral>
0.000520752

> <r_epik_State_Penalty>
-0

> <r_epik_Charging_Adjusted_Penalty>
0.000435796

> <i_epik_Tot_Q>
1

> <i_epik_Tot_abs_Q>
1

> <r_epik_Metal_State_Penalty>
-0

> <b_epik_Metal_Only>
0

> <s_lp_Force_Field>
OPLS_2005

> <r_lp_Energy>
46.7552

> <b_lp_Chiralities_Consistent>
1

> <s_lp_Variant>
AV-unprocessed.smi:557-8

> <Gold.Version>
5.8.1

> <Gold.Id.Protein>
6NUR|6NUR_protein|mol2

> <Gold.PLP.Fitness>
44.1300

> <Gold.PLP.PLP>
-35.5320

> <Gold.PLP.part.hbond>
-1.0000

> <Gold.PLP.part.metal>
0.0000

> <Gold.PLP.part.buried>
2.4745

> <Gold.PLP.part.nonpolar>
-38.1475

> <Gold.PLP.part.repulsive>
0.3014

> <Gold.PLP.ligand.clash>
0.0000

> <Gold.PLP.ligand.torsion>
0.1532

> <Gold.PLP.Chemscore.Hbond>
2.0000

> <Gold.PLP.Chemscore.CHOScore>
0.9635

> <Gold.PLP.Chemscore.Metal>
0.0000

> <Gold.Chemscore.Hbonds>
donor molecule, donor type, donor heavy atom, donor atom, acceptor molecule, acceptor atom, score
      L1  H    14    47       P1  7948  2.00
      L1  C    20    46       P1  8028  0.87

> <Gold.PLP.Chemscore.Internal.Correction>
0.0141

> <Gold.Rescore>
     Score         DG    S(hbond)    S(metal)    S(lipo)     H(rot)  DE(clash)    DE(int)     intcor
     13.52     -15.53       1.00        0.00      92.46       1.60       1.84       0.18       ----

> <Gold.Chemscore.Fitness>
13.5163

> <Gold.Chemscore.DG>
-15.5325

> <Gold.Chemscore.ZeroCoef>
-5.4800

> <Gold.Chemscore.Hbond>
0.9986

> <Gold.Chemscore.Metal>
0.0000

> <Gold.Chemscore.Lipo>
92.4605

> <Gold.Chemscore.Internal_Hbond>
0.0000

> <Gold.Chemscore.DEClash>
1.8357

> <Gold.Chemscore.DEInternal>
0.1805

> <Gold.Chemscore.Rot>
1.6018

> <Gold.Chemscore.Internal.Correction>
   9.000000E+99

> <Gold.Chemscore.Hbonds>
donor molecule, donor type, donor heavy atom, donor atom, acceptor molecule, acceptor atom, score
      L1  H    14    47       P1  7948  1.00

> <Gold.Chemscore.Hbond.Weighted>
-3.3352

> <Gold.Chemscore.Metal.Weighted>
-0.0000

> <Gold.Chemscore.Lipo.Weighted>
-10.8179

> <Gold.Chemscore.Internal_Hbond.Weighted>
0.0000

> <Gold.Chemscore.DEClash.Weighted>
1.8357

> <Gold.Chemscore.DEInternal.Weighted>
0.1805

> <Gold.Chemscore.Rot.Weighted>
4.1006

> <Gold.Chemscore.Internal.Correction.Weighted>
   9.000000E+99

> <Gold.Protein.RotatedTorsions>
[ 6907 6896 6895 6894 ] final -105.85 input  -60.11 | X-H torsion
[ 7974 7965 7964 7962 ] final  128.76 input  175.53 | X-H torsion
[ 8008 7997 7996 7995 ] final  110.95 input   59.86 | X-H torsion
[ 10167 10162 10161 10158 ] final   -5.04 input  -65.29 | X-H torsion
[ 10718 10713 10712 10709 ] final -103.59 input   66.30 | X-H torsion
[ 10763 10752 10751 10750 ] final   14.96 input  -60.55 | X-H torsion
[ 11005 11000 10999 10996 ] final -118.24 input  -57.11 | X-H torsion

> <Gold.Protein.ActiveResidues>
 VAL166  LYS551  ARG553  GLY616  TRP617  ASP618  TYR619  PRO620  LYS621  CYS622 
 ASP623  PHE694  ASN695  SER759  ASP760  ASP761  ALA762  ILE779  LEU786  VAL792 
 PHE793  MET794  SER795  GLU796  ALA797  LYS798  CYS799  TRP800  GLU811  SER814 

> <Gold.Protein.RotatedAtoms>
  150.7358  134.0065  159.3655 H   0  0  0  0  0  0  0  0  0  0  0  0  # atno 6907 bound_to 6896
  151.8022  135.0703  160.0411 H   0  0  0  0  0  0  0  0  0  0  0  0  # atno 6908 bound_to 6896
  152.3132  133.5738  159.5731 H   0  0  0  0  0  0  0  0  0  0  0  0  # atno 6909 bound_to 6896
  145.0360  139.4004  143.5126 H   0  0  0  0  0  0  0  0  0  0  0  0  # atno 7974 bound_to 7965
  156.2089  140.3029  155.9689 H   0  0  0  0  0  0  0  0  0  0  0  0  # atno 8008 bound_to 7997
  155.2772  140.0436  157.3029 H   0  0  0  0  0  0  0  0  0  0  0  0  # atno 8009 bound_to 7997
  154.5672  140.2337  155.8254 H   0  0  0  0  0  0  0  0  0  0  0  0  # atno 8010 bound_to 7997
  140.6949  143.6354  150.8484 H   0  0  0  0  0  0  0  0  0  0  0  0  # atno 10167 bound_to 10162
  156.0271  130.5474  150.7275 H   0  0  0  0  0  0  0  0  0  0  0  0  # atno 10718 bound_to 10713
  153.1571  135.6789  153.8796 H   0  0  0  0  0  0  0  0  0  0  0  0  # atno 10763 bound_to 10752
  153.8204  135.3131  155.3411 H   0  0  0  0  0  0  0  0  0  0  0  0  # atno 10764 bound_to 10752
  154.7905  135.4837  154.0131 H   0  0  0  0  0  0  0  0  0  0  0  0  # atno 10765 bound_to 10752
  141.0300  133.9996  157.3158 H   0  0  0  0  0  0  0  0  0  0  0  0  # atno 11005 bound_to 11000
  146.3504  139.9935  142.8683 LP  0  0  0  0  0  0  0  0  0  0  0  0  # atno 17320 bound_to 7965
  145.1709  140.9720  143.4322 LP  0  0  0  0  0  0  0  0  0  0  0  0  # atno 17321 bound_to 7965
  140.0071  143.5682  152.2853 LP  0  0  0  0  0  0  0  0  0  0  0  0  # atno 17342 bound_to 10162
  139.6392  144.7653  151.2374 LP  0  0  0  0  0  0  0  0  0  0  0  0  # atno 17343 bound_to 10162
  157.4875  131.0908  151.0465 LP  0  0  0  0  0  0  0  0  0  0  0  0  # atno 17370 bound_to 10713
  157.0881  130.5931  149.5434 LP  0  0  0  0  0  0  0  0  0  0  0  0  # atno 17371 bound_to 10713
  139.9201  135.0200  156.8032 LP  0  0  0  0  0  0  0  0  0  0  0  0  # atno 17394 bound_to 11000
  140.6424  133.9806  155.7714 LP  0  0  0  0  0  0  0  0  0  0  0  0  # atno 17395 bound_to 11000

$$$$
