AV-unprocessed.smi:1626|AV-procd|sdf|6509|dock10
  -GOLD-   22720 7183D 1   1.00000     0.00000
 Structure written by MMmdl.
 48 50  0  0  0  0  0  0  0  0  2 V2000
  152.0444  142.7011  160.9795 C   0  0  0  0  0  0  0  0  0  0  0  0
  151.9405  141.8960  159.6963 C   0  0  0  0  0  0  0  0  0  0  0  0
  151.0152  142.2974  158.7065 C   0  0  0  0  0  0  0  0  0  0  0  0
  150.8897  141.5777  157.4984 C   0  0  0  0  0  0  0  0  0  0  0  0
  150.0640  141.7887  156.4075 N   0  0  0  0  0  0  0  0  0  0  0  0
  150.4178  140.7889  155.6055 C   0  0  0  0  0  0  0  0  0  0  0  0
  151.3714  139.9485  156.0522 N   0  0  0  0  0  0  0  0  0  0  0  0
  151.9152  138.7918  155.3635 C   0  0  0  0  0  0  0  0  0  0  0  0
  150.8866  138.1238  154.4305 C   0  0  1  0  0  0  0  0  0  0  0  0
  151.3607  136.8456  154.0511 O   0  0  0  0  0  0  0  0  0  0  0  0
  149.5178  137.9572  155.1194 C   0  0  0  0  0  0  0  0  0  0  0  0
  148.4128  137.7410  154.1499 N   0  3  2  0  0  0  0  0  0  0  0  0
  147.7932  139.0050  153.6702 C   0  0  0  0  0  0  0  0  0  0  0  0
  146.7572  138.7341  152.5634 C   0  0  0  0  0  0  0  0  0  0  0  0
  145.6859  137.7260  153.0117 C   0  0  2  0  0  0  0  0  0  0  0  0
  144.8417  138.3105  153.9833 O   0  0  0  0  0  0  0  0  0  0  0  0
  146.3472  136.4601  153.5814 C   0  0  0  0  0  0  0  0  0  0  0  0
  147.3904  136.7933  154.6628 C   0  0  0  0  0  0  0  0  0  0  0  0
  151.7204  140.4349  157.3070 C   0  0  0  0  0  0  0  0  0  0  0  0
  152.6437  140.0244  158.2845 C   0  0  0  0  0  0  0  0  0  0  0  0
  152.7572  140.7560  159.4854 C   0  0  0  0  0  0  0  0  0  0  0  0
  153.7584  140.3068  160.5350 C   0  0  0  0  0  0  0  0  0  0  0  0
  151.3583  143.5487  160.9750 H   0  0  0  0  0  0  0  0  0  0  0  0
  153.0549  143.0904  161.1060 H   0  0  0  0  0  0  0  0  0  0  0  0
  151.8018  142.0790  161.8413 H   0  0  0  0  0  0  0  0  0  0  0  0
  150.3928  143.1656  158.8670 H   0  0  0  0  0  0  0  0  0  0  0  0
  149.9533  140.6564  154.6391 H   0  0  0  0  0  0  0  0  0  0  0  0
  152.7973  139.1032  154.8021 H   0  0  0  0  0  0  0  0  0  0  0  0
  152.2598  138.0805  156.1154 H   0  0  0  0  0  0  0  0  0  0  0  0
  150.7892  138.7306  153.5306 H   0  0  0  0  0  0  0  0  0  0  0  0
  150.9711  136.6154  153.2206 H   0  0  0  0  0  0  0  0  0  0  0  0
  149.5804  137.1082  155.8024 H   0  0  0  0  0  0  0  0  0  0  0  0
  149.2898  138.8264  155.7384 H   0  0  0  0  0  0  0  0  0  0  0  0
  147.3228  139.5214  154.5084 H   0  0  0  0  0  0  0  0  0  0  0  0
  148.5556  139.6774  153.2789 H   0  0  0  0  0  0  0  0  0  0  0  0
  146.2904  139.6680  152.2475 H   0  0  0  0  0  0  0  0  0  0  0  0
  147.2719  138.3407  151.6856 H   0  0  0  0  0  0  0  0  0  0  0  0
  145.0602  137.4556  152.1603 H   0  0  0  0  0  0  0  0  0  0  0  0
  144.2930  138.9535  153.5597 H   0  0  0  0  0  0  0  0  0  0  0  0
  145.5906  135.7850  153.9831 H   0  0  0  0  0  0  0  0  0  0  0  0
  146.8374  135.9180  152.7715 H   0  0  0  0  0  0  0  0  0  0  0  0
  147.8719  135.8690  154.9845 H   0  0  0  0  0  0  0  0  0  0  0  0
  146.9050  137.2191  155.5426 H   0  0  0  0  0  0  0  0  0  0  0  0
  153.2602  139.1550  158.1110 H   0  0  0  0  0  0  0  0  0  0  0  0
  154.2958  139.4130  160.2170 H   0  0  0  0  0  0  0  0  0  0  0  0
  153.2518  140.0766  161.4724 H   0  0  0  0  0  0  0  0  0  0  0  0
  154.4936  141.0902  160.7214 H   0  0  0  0  0  0  0  0  0  0  0  0
  148.8322  137.2919  153.3480 H   0  0  0  0  0  0  0  0  0  0  0  0
  1  2  1  0  0  0  0
  1 23  1  0  0  0  0
  1 24  1  0  0  0  0
  1 25  1  0  0  0  0
  2 21  1  0  0  0  0
  2  3  2  0  0  0  0
  3  4  1  0  0  0  0
  3 26  1  0  0  0  0
  4 19  2  0  0  0  0
  4  5  1  0  0  0  0
  5  6  2  0  0  0  0
  6  7  1  0  0  0  0
  6 27  1  0  0  0  0
  7  8  1  0  0  0  0
  7 19  1  0  0  0  0
  8  9  1  0  0  0  0
  8 28  1  0  0  0  0
  8 29  1  0  0  0  0
  9 10  1  0  0  0  0
  9 11  1  0  0  0  0
  9 30  1  0  0  0  0
 10 31  1  0  0  0  0
 11 12  1  0  0  0  0
 11 32  1  0  0  0  0
 11 33  1  0  0  0  0
 12 18  1  0  0  0  0
 12 13  1  0  0  0  0
 12 48  1  0  0  0  0
 13 14  1  0  0  0  0
 13 34  1  0  0  0  0
 13 35  1  0  0  0  0
 14 15  1  0  0  0  0
 14 36  1  0  0  0  0
 14 37  1  0  0  0  0
 15 16  1  0  0  0  0
 15 17  1  0  0  0  0
 15 38  1  0  0  0  0
 16 39  1  0  0  0  0
 17 18  1  0  0  0  0
 17 40  1  0  0  0  0
 17 41  1  0  0  0  0
 18 42  1  0  0  0  0
 18 43  1  0  0  0  0
 19 20  1  0  0  0  0
 20 21  2  0  0  0  0
 20 44  1  0  0  0  0
 21 22  1  0  0  0  0
 22 45  1  0  0  0  0
 22 46  1  0  0  0  0
 22 47  1  0  0  0  0
M  CHG  1  12   1
M  END
> <s_m_source_file>
AV-unprocessed.smi

> <i_m_source_file_index>
1626

> <i_lp_mmshare_version>
43012

> <i_f3d_flags>
0

> <s_epik_input>
W0NIM11jKFtjSF0xKWMoW0NIM10pW2NIXWMoYzEyKW4oW2NIXW4yKVtDSDJdW0NASF0oW09IXSlbQ0gyXU4zW0NIMl1bQ0gyXVtDSF0oW09IXSlbQ0gyXVtDSDJdMw==

> <s_epik_cmdline>
J2VwaWtfcHl0aG9uJywgJy1waCcsICc3LjAnLCAnLXRuJywgJzgnLCAnLW1hJywgJzIwMCcsICctbWV0YWxfYmluZGluZycsICctaW1hZScsICc8aW5maWxlLm1hZT4nLCAnLW9tYWUnLCAnPG91dGZpbGUubWFlPic=

> <r_epik_Ionization_Penalty>
0.106584

> <r_epik_Ionization_Penalty_Charging>
0.0185694

> <r_epik_Ionization_Penalty_Neutral>
0.0880147

> <r_epik_State_Penalty>
0.0908428

> <r_epik_Charging_Adjusted_Penalty>
0.109412

> <i_epik_Tot_Q>
1

> <i_epik_Tot_abs_Q>
1

> <r_epik_Metal_State_Penalty>
0.0153739

> <b_epik_Metal_Only>
0

> <s_lp_Force_Field>
OPLS_2005

> <r_lp_Energy>
22.63

> <b_lp_Chiralities_Consistent>
1

> <s_lp_Variant>
AV-unprocessed.smi:1626-4

> <Gold.Version>
5.8.1

> <Gold.Id.Protein>
6NUR|6NUR_protein|mol2

> <Gold.PLP.Fitness>
54.1030

> <Gold.PLP.PLP>
-41.3588

> <Gold.PLP.part.hbond>
-4.1728

> <Gold.PLP.part.metal>
0.0000

> <Gold.PLP.part.buried>
-2.5258

> <Gold.PLP.part.nonpolar>
-34.6597

> <Gold.PLP.part.repulsive>
0.1098

> <Gold.PLP.ligand.clash>
0.0000

> <Gold.PLP.ligand.torsion>
1.0594

> <Gold.PLP.Chemscore.Hbond>
4.9424

> <Gold.PLP.Chemscore.CHOScore>
0.0000

> <Gold.PLP.Chemscore.Metal>
0.0000

> <Gold.Chemscore.Hbonds>
donor molecule, donor type, donor heavy atom, donor atom, acceptor molecule, acceptor atom, score
      L1  H    10    31       P1  7949  0.94
      L1  H    12    48       P1  7948  2.00
      L1  H    16    39       P1 10175  1.00
      P1  H 10752 10763       L1    10  1.00

> <Gold.PLP.Chemscore.Internal.Correction>
0.0357

> <Gold.Rescore>
     Score         DG    S(hbond)    S(metal)    S(lipo)     H(rot)  DE(clash)    DE(int)     intcor
     18.01     -20.41       2.86        0.00     104.30       2.67       0.30       2.10       ----

> <Gold.Chemscore.Fitness>
18.0090

> <Gold.Chemscore.DG>
-20.4120

> <Gold.Chemscore.ZeroCoef>
-5.4800

> <Gold.Chemscore.Hbond>
2.8644

> <Gold.Chemscore.Metal>
0.0000

> <Gold.Chemscore.Lipo>
104.3013

> <Gold.Chemscore.Internal_Hbond>
0.0000

> <Gold.Chemscore.DEClash>
0.2994

> <Gold.Chemscore.DEInternal>
2.1036

> <Gold.Chemscore.Rot>
2.6712

> <Gold.Chemscore.Internal.Correction>
   9.000000E+99

> <Gold.Chemscore.Hbonds>
donor molecule, donor type, donor heavy atom, donor atom, acceptor molecule, acceptor atom, score
      L1  H    10    31       P1  7949  0.20
      L1  H    12    48       P1  7948  1.00
      L1  H    16    39       P1 10175  0.99
      P1  H 10752 10763       L1    10  0.38

> <Gold.Chemscore.Hbond.Weighted>
-9.5671

> <Gold.Chemscore.Metal.Weighted>
-0.0000

> <Gold.Chemscore.Lipo.Weighted>
-12.2033

> <Gold.Chemscore.Internal_Hbond.Weighted>
0.0000

> <Gold.Chemscore.DEClash.Weighted>
0.2994

> <Gold.Chemscore.DEInternal.Weighted>
2.1036

> <Gold.Chemscore.Rot.Weighted>
6.8383

> <Gold.Chemscore.Internal.Correction.Weighted>
   9.000000E+99

> <Gold.Protein.RotatedTorsions>
[ 6907 6896 6895 6894 ] final   78.05 input  -60.11 | X-H torsion
[ 7974 7965 7964 7962 ] final  107.66 input  175.53 | X-H torsion
[ 8008 7997 7996 7995 ] final  -87.63 input   59.86 | X-H torsion
[ 10167 10162 10161 10158 ] final -113.84 input  -65.29 | X-H torsion
[ 10718 10713 10712 10709 ] final  114.45 input   66.30 | X-H torsion
[ 10763 10752 10751 10750 ] final   31.56 input  -60.55 | X-H torsion
[ 11005 11000 10999 10996 ] final  172.63 input  -57.11 | X-H torsion

> <Gold.Protein.ActiveResidues>
 VAL166  LYS551  ARG553  GLY616  TRP617  ASP618  TYR619  PRO620  LYS621  CYS622 
 ASP623  PHE694  ASN695  SER759  ASP760  ASP761  ALA762  ILE779  LEU786  VAL792 
 PHE793  MET794  SER795  GLU796  ALA797  LYS798  CYS799  TRP800  GLU811  SER814 

> <Gold.Protein.RotatedAtoms>
  152.5143  134.3724  159.9322 H   0  0  0  0  0  0  0  0  0  0  0  0  # atno 6907 bound_to 6896
  151.3678  133.3859  159.2704 H   0  0  0  0  0  0  0  0  0  0  0  0  # atno 6908 bound_to 6896
  150.9601  134.9009  159.7783 H   0  0  0  0  0  0  0  0  0  0  0  0  # atno 6909 bound_to 6896
  145.2908  139.2601  143.3866 H   0  0  0  0  0  0  0  0  0  0  0  0  # atno 7974 bound_to 7965
  154.6654  140.0563  157.0108 H   0  0  0  0  0  0  0  0  0  0  0  0  # atno 8008 bound_to 7997
  155.1166  140.3243  155.4489 H   0  0  0  0  0  0  0  0  0  0  0  0  # atno 8009 bound_to 7997
  156.2636  140.2005  156.6289 H   0  0  0  0  0  0  0  0  0  0  0  0  # atno 8010 bound_to 7997
  140.1075  143.4557  152.1773 H   0  0  0  0  0  0  0  0  0  0  0  0  # atno 10167 bound_to 10162
  157.6280  131.0999  150.7188 H   0  0  0  0  0  0  0  0  0  0  0  0  # atno 10718 bound_to 10713
  153.0309  135.6436  154.1218 H   0  0  0  0  0  0  0  0  0  0  0  0  # atno 10763 bound_to 10752
  154.0940  135.2864  155.3267 H   0  0  0  0  0  0  0  0  0  0  0  0  # atno 10764 bound_to 10752
  154.6445  135.5448  153.7891 H   0  0  0  0  0  0  0  0  0  0  0  0  # atno 10765 bound_to 10752
  140.3318  134.7351  157.4140 H   0  0  0  0  0  0  0  0  0  0  0  0  # atno 11005 bound_to 11000
  146.3185  140.3398  142.8647 LP  0  0  0  0  0  0  0  0  0  0  0  0  # atno 17320 bound_to 7965
  144.9174  140.7829  143.5769 LP  0  0  0  0  0  0  0  0  0  0  0  0  # atno 17321 bound_to 7965
  139.5637  144.7422  151.4082 LP  0  0  0  0  0  0  0  0  0  0  0  0  # atno 17342 bound_to 10162
  140.6944  143.7785  150.7304 LP  0  0  0  0  0  0  0  0  0  0  0  0  # atno 17343 bound_to 10162
  156.7532  130.4775  149.5452 LP  0  0  0  0  0  0  0  0  0  0  0  0  # atno 17370 bound_to 10713
  156.1465  130.6280  151.0538 LP  0  0  0  0  0  0  0  0  0  0  0  0  # atno 17371 bound_to 10713
  140.0854  134.5673  155.8497 LP  0  0  0  0  0  0  0  0  0  0  0  0  # atno 17394 bound_to 11000
  141.2061  133.6653  156.6223 LP  0  0  0  0  0  0  0  0  0  0  0  0  # atno 17395 bound_to 11000

$$$$
