AV-unprocessed.smi:1840|AV-procd|sdf|7492|dock4
  -GOLD-   22720 9193D 1   1.00000     0.00000
 Structure written by MMmdl.
 43 44  0  0  0  0  0  0  0  0  1 V2000
  150.4269  139.7018  155.6441 C   0  0  0  0  0  0  0  0  0  0  0  0
  149.3650  140.2310  156.6172 C   0  0  2  0  0  0  0  0  0  0  0  0
  148.4149  141.2341  155.9270 C   0  0  0  0  0  0  0  0  0  0  0  0
  147.8324  140.7031  154.7055 N   0  0  0  0  0  0  0  0  0  0  0  0
  147.1194  141.3736  153.7342 C   0  0  0  0  0  0  0  0  0  0  0  0
  146.8063  140.4672  152.7620 C   0  0  0  0  0  0  0  0  0  0  0  0
  147.3759  139.2522  153.2354 C   0  0  0  0  0  0  0  0  0  0  0  0
  147.9847  139.3949  154.4013 N   0  0  0  0  0  0  0  0  0  0  0  0
  150.0293  140.8562  157.7600 N   0  0  0  0  0  0  0  0  0  0  0  0
  150.9592  141.8194  157.6829 C   0  0  0  0  0  0  0  0  0  0  0  0
  151.2859  142.3861  156.6397 O   0  0  0  0  0  0  0  0  0  0  0  0
  151.5287  142.0517  158.8726 N   0  0  0  0  0  0  0  0  0  0  0  0
  152.6649  142.9432  159.1072 C   0  0  2  0  0  0  0  0  0  0  0  0
  153.7946  142.2141  159.8709 C   0  0  0  0  0  0  0  0  0  0  0  0
  153.3977  141.8925  161.3214 C   0  0  0  0  0  0  0  0  0  0  0  0
  152.9631  143.1619  162.0693 C   0  0  0  0  0  0  0  0  0  0  0  0
  151.8322  143.8924  161.3265 C   0  0  0  0  0  0  0  0  0  0  0  0
  152.2235  144.2176  159.8689 C   0  0  2  0  0  0  0  0  0  0  0  0
  151.1097  144.9916  159.1429 C   0  0  0  0  0  0  0  0  0  0  0  0
  149.9631  139.2041  154.7922 H   0  0  0  0  0  0  0  0  0  0  0  0
  151.0801  138.9773  156.1316 H   0  0  0  0  0  0  0  0  0  0  0  0
  151.0513  140.5085  155.2585 H   0  0  0  0  0  0  0  0  0  0  0  0
  148.7788  139.3731  156.9518 H   0  0  0  0  0  0  0  0  0  0  0  0
  147.6130  141.5310  156.6056 H   0  0  0  0  0  0  0  0  0  0  0  0
  148.9562  142.1452  155.6700 H   0  0  0  0  0  0  0  0  0  0  0  0
  146.9061  142.4297  153.8105 H   0  0  0  0  0  0  0  0  0  0  0  0
  146.2576  140.6458  151.8492 H   0  0  0  0  0  0  0  0  0  0  0  0
  147.3660  138.2778  152.7694 H   0  0  0  0  0  0  0  0  0  0  0  0
  149.8349  140.4596  158.6677 H   0  0  0  0  0  0  0  0  0  0  0  0
  151.1922  141.5305  159.6690 H   0  0  0  0  0  0  0  0  0  0  0  0
  153.0532  143.2507  158.1343 H   0  0  0  0  0  0  0  0  0  0  0  0
  154.0836  141.2980  159.3543 H   0  0  0  0  0  0  0  0  0  0  0  0
  154.6845  142.8448  159.8775 H   0  0  0  0  0  0  0  0  0  0  0  0
  152.5866  141.1632  161.3299 H   0  0  0  0  0  0  0  0  0  0  0  0
  154.2353  141.4246  161.8395 H   0  0  0  0  0  0  0  0  0  0  0  0
  152.6403  142.9059  163.0789 H   0  0  0  0  0  0  0  0  0  0  0  0
  153.8180  143.8305  162.1787 H   0  0  0  0  0  0  0  0  0  0  0  0
  150.9309  143.2784  161.3427 H   0  0  0  0  0  0  0  0  0  0  0  0
  151.5851  144.8117  161.8583 H   0  0  0  0  0  0  0  0  0  0  0  0
  153.0890  144.8811  159.9092 H   0  0  0  0  0  0  0  0  0  0  0  0
  150.1805  144.4224  159.1030 H   0  0  0  0  0  0  0  0  0  0  0  0
  151.4005  145.2280  158.1190 H   0  0  0  0  0  0  0  0  0  0  0  0
  150.8956  145.9336  159.6487 H   0  0  0  0  0  0  0  0  0  0  0  0
  1  2  1  0  0  0  0
  1 20  1  0  0  0  0
  1 21  1  0  0  0  0
  1 22  1  0  0  0  0
  2  3  1  0  0  0  0
  2  9  1  0  0  0  0
  2 23  1  0  0  0  0
  3  4  1  0  0  0  0
  3 24  1  0  0  0  0
  3 25  1  0  0  0  0
  4  8  1  0  0  0  0
  4  5  1  0  0  0  0
  5  6  2  0  0  0  0
  5 26  1  0  0  0  0
  6  7  1  0  0  0  0
  6 27  1  0  0  0  0
  7  8  2  0  0  0  0
  7 28  1  0  0  0  0
  9 10  1  0  0  0  0
  9 29  1  0  0  0  0
 10 11  2  0  0  0  0
 10 12  1  0  0  0  0
 12 13  1  0  0  0  0
 12 30  1  0  0  0  0
 13 18  1  0  0  0  0
 13 14  1  0  0  0  0
 13 31  1  0  0  0  0
 14 15  1  0  0  0  0
 14 32  1  0  0  0  0
 14 33  1  0  0  0  0
 15 16  1  0  0  0  0
 15 34  1  0  0  0  0
 15 35  1  0  0  0  0
 16 17  1  0  0  0  0
 16 36  1  0  0  0  0
 16 37  1  0  0  0  0
 17 18  1  0  0  0  0
 17 38  1  0  0  0  0
 17 39  1  0  0  0  0
 18 19  1  0  0  0  0
 18 40  1  0  0  0  0
 19 41  1  0  0  0  0
 19 42  1  0  0  0  0
 19 43  1  0  0  0  0
M  END
> <s_m_source_file>
AV-unprocessed.smi

> <i_m_source_file_index>
1840

> <i_lp_mmshare_version>
43012

> <i_f3d_flags>
0

> <s_epik_input>
bjFbY0hdW2NIXVtjSF1uMVtDSDJdW0NAQEhdKFtDSDNdKVtOSF1DKD1PKVtOSF1bQ0BASF0yW0NIMl1bQ0gyXVtDSDJdW0NIMl1bQ0BIXTJbQ0gzXQ==

> <s_epik_cmdline>
J2VwaWtfcHl0aG9uJywgJy1waCcsICc3LjAnLCAnLXRuJywgJzgnLCAnLW1hJywgJzIwMCcsICctbWV0YWxfYmluZGluZycsICctaW1hZScsICc8aW5maWxlLm1hZT4nLCAnLW9tYWUnLCAnPG91dGZpbGUubWFlPic=

> <r_lp_tautomer_probability>
1

> <r_epik_Ionization_Penalty>
7.38659e-05

> <r_epik_Ionization_Penalty_Charging>
0

> <r_epik_Ionization_Penalty_Neutral>
7.38659e-05

> <r_epik_State_Penalty>
-0

> <r_epik_Charging_Adjusted_Penalty>
0

> <i_epik_Tot_Q>
0

> <i_epik_Tot_abs_Q>
0

> <r_epik_Metal_State_Penalty>
-0

> <b_epik_Metal_Only>
0

> <s_lp_Force_Field>
OPLS_2005

> <r_lp_Energy>
6.60397

> <b_lp_Chiralities_Consistent>
1

> <s_lp_Variant>
AV-unprocessed.smi:1840-5

> <Gold.Version>
5.8.1

> <Gold.Id.Protein>
6NUR|6NUR_protein|mol2

> <Gold.PLP.Fitness>
41.3293

> <Gold.PLP.PLP>
-38.8504

> <Gold.PLP.part.hbond>
0.0000

> <Gold.PLP.part.metal>
0.0000

> <Gold.PLP.part.buried>
-1.2985

> <Gold.PLP.part.nonpolar>
-37.4948

> <Gold.PLP.part.repulsive>
0.3960

> <Gold.PLP.ligand.clash>
0.0000

> <Gold.PLP.ligand.torsion>
0.2685

> <Gold.PLP.Chemscore.Hbond>
0.0000

> <Gold.PLP.Chemscore.CHOScore>
1.0000

> <Gold.PLP.Chemscore.Metal>
0.0000

> <Gold.Chemscore.Hbonds>
donor molecule, donor type, donor heavy atom, donor atom, acceptor molecule, acceptor atom, score
      L1  C     7    28       P1  7948  0.50

> <Gold.PLP.Chemscore.Internal.Correction>
0.0159

> <Gold.Rescore>
     Score         DG    S(hbond)    S(metal)    S(lipo)     H(rot)  DE(clash)    DE(int)     intcor
     12.25     -15.33       0.00        0.00     118.30       1.56       0.23       2.85       ----

> <Gold.Chemscore.Fitness>
12.2518

> <Gold.Chemscore.DG>
-15.3340

> <Gold.Chemscore.ZeroCoef>
-5.4800

> <Gold.Chemscore.Hbond>
0.0000

> <Gold.Chemscore.Metal>
0.0000

> <Gold.Chemscore.Lipo>
118.3039

> <Gold.Chemscore.Internal_Hbond>
0.0000

> <Gold.Chemscore.DEClash>
0.2341

> <Gold.Chemscore.DEInternal>
2.8482

> <Gold.Chemscore.Rot>
1.5576

> <Gold.Chemscore.Internal.Correction>
   9.000000E+99

> <Gold.Chemscore.Hbond.Weighted>
-0.0000

> <Gold.Chemscore.Metal.Weighted>
-0.0000

> <Gold.Chemscore.Lipo.Weighted>
-13.8416

> <Gold.Chemscore.Internal_Hbond.Weighted>
0.0000

> <Gold.Chemscore.DEClash.Weighted>
0.2341

> <Gold.Chemscore.DEInternal.Weighted>
2.8482

> <Gold.Chemscore.Rot.Weighted>
3.9875

> <Gold.Chemscore.Internal.Correction.Weighted>
   9.000000E+99

> <Gold.Protein.RotatedTorsions>
[ 6907 6896 6895 6894 ] final   11.23 input  -60.11 | X-H torsion
[ 7974 7965 7964 7962 ] final -123.88 input  175.53 | X-H torsion
[ 8008 7997 7996 7995 ] final   63.98 input   59.86 | X-H torsion
[ 10167 10162 10161 10158 ] final   10.30 input  -65.29 | X-H torsion
[ 10718 10713 10712 10709 ] final  177.32 input   66.30 | X-H torsion
[ 10763 10752 10751 10750 ] final  -80.68 input  -60.55 | X-H torsion
[ 11005 11000 10999 10996 ] final  138.94 input  -57.11 | X-H torsion

> <Gold.Protein.ActiveResidues>
 VAL166  LYS551  ARG553  GLY616  TRP617  ASP618  TYR619  PRO620  LYS621  CYS622 
 ASP623  PHE694  ASN695  SER759  ASP760  ASP761  ALA762  ILE779  LEU786  VAL792 
 PHE793  MET794  SER795  GLU796  ALA797  LYS798  CYS799  TRP800  GLU811  SER814 

> <Gold.Protein.RotatedAtoms>
  151.7510  135.0833  160.0330 H   0  0  0  0  0  0  0  0  0  0  0  0  # atno 6907 bound_to 6896
  152.3417  133.6070  159.5889 H   0  0  0  0  0  0  0  0  0  0  0  0  # atno 6908 bound_to 6896
  150.7483  133.9628  159.3563 H   0  0  0  0  0  0  0  0  0  0  0  0  # atno 6909 bound_to 6896
  145.0140  140.7931  143.4421 H   0  0  0  0  0  0  0  0  0  0  0  0  # atno 7974 bound_to 7965
  155.6388  140.3496  155.4708 H   0  0  0  0  0  0  0  0  0  0  0  0  # atno 8008 bound_to 7997
  155.9943  140.1200  157.0632 H   0  0  0  0  0  0  0  0  0  0  0  0  # atno 8009 bound_to 7997
  154.4228  140.1113  156.5595 H   0  0  0  0  0  0  0  0  0  0  0  0  # atno 8010 bound_to 7997
  140.6202  143.8220  150.7166 H   0  0  0  0  0  0  0  0  0  0  0  0  # atno 10167 bound_to 10162
  156.9072  130.9898  151.3026 H   0  0  0  0  0  0  0  0  0  0  0  0  # atno 10718 bound_to 10713
  154.5542  135.5652  153.6949 H   0  0  0  0  0  0  0  0  0  0  0  0  # atno 10763 bound_to 10752
  152.9998  135.6258  154.2333 H   0  0  0  0  0  0  0  0  0  0  0  0  # atno 10764 bound_to 10752
  154.2269  135.2867  155.2884 H   0  0  0  0  0  0  0  0  0  0  0  0  # atno 10765 bound_to 10752
  140.0219  134.9393  157.0491 H   0  0  0  0  0  0  0  0  0  0  0  0  # atno 11005 bound_to 11000
  145.1985  139.2264  143.5205 LP  0  0  0  0  0  0  0  0  0  0  0  0  # atno 17320 bound_to 7965
  146.3475  140.1797  142.8589 LP  0  0  0  0  0  0  0  0  0  0  0  0  # atno 17321 bound_to 7965
  140.1808  143.4116  152.1934 LP  0  0  0  0  0  0  0  0  0  0  0  0  # atno 17342 bound_to 10162
  139.5432  144.7276  151.4665 LP  0  0  0  0  0  0  0  0  0  0  0  0  # atno 17343 bound_to 10162
  157.5990  130.8499  149.8773 LP  0  0  0  0  0  0  0  0  0  0  0  0  # atno 17370 bound_to 10713
  156.0553  130.3709  150.1105 LP  0  0  0  0  0  0  0  0  0  0  0  0  # atno 17371 bound_to 10713
  140.4373  134.1718  155.7171 LP  0  0  0  0  0  0  0  0  0  0  0  0  # atno 17394 bound_to 11000
  141.1779  133.8476  157.1359 LP  0  0  0  0  0  0  0  0  0  0  0  0  # atno 17395 bound_to 11000

$$$$
