AV-unprocessed.smi:2718|AV-procd|sdf|10491|dock10
  -GOLD-   2272014543D 1   1.00000     0.00000
 Structure written by MMmdl.
 47 48  0  0  0  0  0  0  0  0  1 V2000
  143.2793  137.0189  161.7172 C   0  0  0  0  0  0  0  0  0  0  0  0
  144.2709  135.8729  161.6958 C   0  0  0  0  0  0  0  0  0  0  0  0
  144.1079  134.8725  162.8270 C   0  0  0  0  0  0  0  0  0  0  0  0
  145.2128  135.7708  160.7382 C   0  0  0  0  0  0  0  0  0  0  0  0
  146.2433  134.6979  160.6157 C   0  0  1  0  0  0  0  0  0  0  0  0
  147.6979  134.9615  160.2450 C   0  0  1  0  0  0  0  0  0  0  0  0
  148.1939  136.3588  160.0451 C   0  0  0  0  0  0  0  0  0  0  0  0
  148.1029  137.2256  160.9146 O   0  0  0  0  0  0  0  0  0  0  0  0
  148.8158  136.5613  158.8738 N   0  0  0  0  0  0  0  0  0  0  0  0
  149.4131  137.8225  158.4485 C   0  0  0  0  0  0  0  0  0  0  0  0
  150.3408  137.6537  157.2271 C   0  0  1  0  0  0  0  0  0  0  0  0
  149.8192  136.6209  156.2124 C   0  0  0  0  0  0  0  0  0  0  0  0
  150.6106  138.9779  156.5685 C   0  0  0  0  0  0  0  0  0  0  0  0
  150.3033  139.2471  155.2922 N   0  0  0  0  0  0  0  0  0  0  0  0
  150.6896  140.5553  155.0814 N   0  0  0  0  0  0  0  0  0  0  0  0
  151.1870  140.9498  156.2523 C   0  0  0  0  0  0  0  0  0  0  0  0
  151.1659  140.0216  157.2204 N   0  0  0  0  0  0  0  0  0  0  0  0
  151.6212  140.1405  158.5914 C   0  0  0  0  0  0  0  0  0  0  0  0
  147.3350  134.4908  161.6518 C   0  0  0  0  0  0  0  0  0  0  0  0
  147.4218  135.3938  162.8808 C   0  0  0  0  0  0  0  0  0  0  0  0
  147.7105  133.0737  162.0486 C   0  0  0  0  0  0  0  0  0  0  0  0
  143.3711  137.5802  162.6474 H   0  0  0  0  0  0  0  0  0  0  0  0
  142.2605  136.6382  161.6450 H   0  0  0  0  0  0  0  0  0  0  0  0
  143.4429  137.7077  160.8880 H   0  0  0  0  0  0  0  0  0  0  0  0
  143.1049  134.4451  162.8070 H   0  0  0  0  0  0  0  0  0  0  0  0
  144.2479  135.3676  163.7881 H   0  0  0  0  0  0  0  0  0  0  0  0
  144.8205  134.0505  162.7655 H   0  0  0  0  0  0  0  0  0  0  0  0
  145.2455  136.5388  159.9798 H   0  0  0  0  0  0  0  0  0  0  0  0
  145.8076  133.7965  160.1885 H   0  0  0  0  0  0  0  0  0  0  0  0
  148.1890  134.2223  159.6150 H   0  0  0  0  0  0  0  0  0  0  0  0
  148.8688  135.7891  158.2251 H   0  0  0  0  0  0  0  0  0  0  0  0
  148.6073  138.5196  158.2166 H   0  0  0  0  0  0  0  0  0  0  0  0
  149.9644  138.2607  159.2825 H   0  0  0  0  0  0  0  0  0  0  0  0
  151.2891  137.2645  157.5963 H   0  0  0  0  0  0  0  0  0  0  0  0
  150.5173  136.5039  155.3829 H   0  0  0  0  0  0  0  0  0  0  0  0
  148.8570  136.9226  155.7971 H   0  0  0  0  0  0  0  0  0  0  0  0
  149.6902  135.6394  156.6685 H   0  0  0  0  0  0  0  0  0  0  0  0
  151.5747  141.9459  156.4081 H   0  0  0  0  0  0  0  0  0  0  0  0
  152.0036  141.1449  158.7746 H   0  0  0  0  0  0  0  0  0  0  0  0
  152.4172  139.4195  158.7792 H   0  0  0  0  0  0  0  0  0  0  0  0
  150.7920  139.9479  159.2728 H   0  0  0  0  0  0  0  0  0  0  0  0
  148.4383  135.3959  163.2753 H   0  0  0  0  0  0  0  0  0  0  0  0
  146.7505  135.0344  163.6611 H   0  0  0  0  0  0  0  0  0  0  0  0
  147.1486  136.4240  162.6535 H   0  0  0  0  0  0  0  0  0  0  0  0
  148.7264  133.0464  162.4435 H   0  0  0  0  0  0  0  0  0  0  0  0
  147.6597  132.4040  161.1896 H   0  0  0  0  0  0  0  0  0  0  0  0
  147.0285  132.6993  162.8126 H   0  0  0  0  0  0  0  0  0  0  0  0
  1  2  1  0  0  0  0
  1 22  1  0  0  0  0
  1 23  1  0  0  0  0
  1 24  1  0  0  0  0
  2  3  1  0  0  0  0
  2  4  2  0  0  0  0
  3 25  1  0  0  0  0
  3 26  1  0  0  0  0
  3 27  1  0  0  0  0
  4  5  1  0  0  0  0
  4 28  1  0  0  0  0
  5 19  1  0  0  0  0
  5  6  1  0  0  0  0
  5 29  1  0  0  0  0
  6  7  1  0  0  0  0
  6 19  1  0  0  0  0
  6 30  1  0  0  0  0
  7  8  2  0  0  0  0
  7  9  1  0  0  0  0
  9 10  1  0  0  0  0
  9 31  1  0  0  0  0
 10 11  1  0  0  0  0
 10 32  1  0  0  0  0
 10 33  1  0  0  0  0
 11 12  1  0  0  0  0
 11 13  1  0  0  0  0
 11 34  1  0  0  0  0
 12 35  1  0  0  0  0
 12 36  1  0  0  0  0
 12 37  1  0  0  0  0
 13 17  1  0  0  0  0
 13 14  2  0  0  0  0
 14 15  1  0  0  0  0
 15 16  2  0  0  0  0
 16 17  1  0  0  0  0
 16 38  1  0  0  0  0
 17 18  1  0  0  0  0
 18 39  1  0  0  0  0
 18 40  1  0  0  0  0
 18 41  1  0  0  0  0
 19 20  1  0  0  0  0
 19 21  1  0  0  0  0
 20 42  1  0  0  0  0
 20 43  1  0  0  0  0
 20 44  1  0  0  0  0
 21 45  1  0  0  0  0
 21 46  1  0  0  0  0
 21 47  1  0  0  0  0
M  END
> <s_m_source_file>
AV-unprocessed.smi

> <i_m_source_file_index>
2718

> <i_lp_mmshare_version>
43012

> <i_f3d_flags>
0

> <s_epik_input>
W0NIM11DKFtDSDNdKT1bQ0hdW0NAQEhdKEMxKFtDSDNdKVtDSDNdKVtDQEhdMUMoPU8pW05IXVtDSDJdW0NASF0oW0NIM10pYzJubltjSF1uMltDSDNd

> <s_epik_cmdline>
J2VwaWtfcHl0aG9uJywgJy1waCcsICc3LjAnLCAnLXRuJywgJzgnLCAnLW1hJywgJzIwMCcsICctbWV0YWxfYmluZGluZycsICctaW1hZScsICc8aW5maWxlLm1hZT4nLCAnLW9tYWUnLCAnPG91dGZpbGUubWFlPic=

> <r_lp_tautomer_probability>
1

> <r_epik_Ionization_Penalty>
0.000449586

> <r_epik_Ionization_Penalty_Charging>
0

> <r_epik_Ionization_Penalty_Neutral>
0.000449586

> <r_epik_State_Penalty>
0.000243372

> <r_epik_Charging_Adjusted_Penalty>
0.000243372

> <i_epik_Tot_Q>
0

> <i_epik_Tot_abs_Q>
0

> <r_epik_Metal_State_Penalty>
-0

> <b_epik_Metal_Only>
0

> <s_lp_Force_Field>
OPLS_2005

> <r_lp_Energy>
17.9129

> <b_lp_Chiralities_Consistent>
1

> <s_lp_Variant>
AV-unprocessed.smi:2718-6

> <Gold.Version>
5.8.1

> <Gold.Id.Protein>
6NUR|6NUR_protein|mol2

> <Gold.PLP.Fitness>
38.3788

> <Gold.PLP.PLP>
-31.6314

> <Gold.PLP.part.hbond>
-3.0000

> <Gold.PLP.part.metal>
0.0000

> <Gold.PLP.part.buried>
-5.2038

> <Gold.PLP.part.nonpolar>
-23.8465

> <Gold.PLP.part.repulsive>
0.2590

> <Gold.PLP.ligand.clash>
0.0000

> <Gold.PLP.ligand.torsion>
0.6545

> <Gold.PLP.Chemscore.Hbond>
2.5828

> <Gold.PLP.Chemscore.CHOScore>
0.0000

> <Gold.PLP.Chemscore.Metal>
0.0000

> <Gold.Chemscore.Hbonds>
donor molecule, donor type, donor heavy atom, donor atom, acceptor molecule, acceptor atom, score
      P1  H  6931  6943       L1     8  0.91
      P1  H  6934  6947       L1     8  0.69
      P1  H  7989  7998       L1    15  0.98

> <Gold.PLP.Chemscore.Internal.Correction>
0.3079

> <Gold.Rescore>
     Score         DG    S(hbond)    S(metal)    S(lipo)     H(rot)  DE(clash)    DE(int)     intcor
     15.01     -17.19       2.61        0.00      68.26       1.95       0.06       2.12       ----

> <Gold.Chemscore.Fitness>
15.0093

> <Gold.Chemscore.DG>
-17.1871

> <Gold.Chemscore.ZeroCoef>
-5.4800

> <Gold.Chemscore.Hbond>
2.6112

> <Gold.Chemscore.Metal>
0.0000

> <Gold.Chemscore.Lipo>
68.2570

> <Gold.Chemscore.Internal_Hbond>
0.0000

> <Gold.Chemscore.DEClash>
0.0603

> <Gold.Chemscore.DEInternal>
2.1175

> <Gold.Chemscore.Rot>
1.9533

> <Gold.Chemscore.Internal.Correction>
   9.000000E+99

> <Gold.Chemscore.Hbonds>
donor molecule, donor type, donor heavy atom, donor atom, acceptor molecule, acceptor atom, score
      P1  H  6931  6943       L1     8  0.88
      P1  H  6934  6947       L1     8  0.65
      P1  H  7989  7998       L1    15  0.85

> <Gold.Chemscore.Hbond.Weighted>
-8.7215

> <Gold.Chemscore.Metal.Weighted>
-0.0000

> <Gold.Chemscore.Lipo.Weighted>
-7.9861

> <Gold.Chemscore.Internal_Hbond.Weighted>
0.0000

> <Gold.Chemscore.DEClash.Weighted>
0.0603

> <Gold.Chemscore.DEInternal.Weighted>
2.1175

> <Gold.Chemscore.Rot.Weighted>
5.0005

> <Gold.Chemscore.Internal.Correction.Weighted>
   9.000000E+99

> <Gold.Protein.RotatedTorsions>
[ 6907 6896 6895 6894 ] final   -2.34 input  -60.11 | X-H torsion
[ 7974 7965 7964 7962 ] final   87.77 input  175.53 | X-H torsion
[ 8008 7997 7996 7995 ] final -163.10 input   59.86 | X-H torsion
[ 10167 10162 10161 10158 ] final  -36.57 input  -65.29 | X-H torsion
[ 10718 10713 10712 10709 ] final -123.59 input   66.30 | X-H torsion
[ 10763 10752 10751 10750 ] final  -55.01 input  -60.55 | X-H torsion
[ 11005 11000 10999 10996 ] final   22.91 input  -57.11 | X-H torsion

> <Gold.Protein.ActiveResidues>
 VAL166  LYS551  ARG553  GLY616  TRP617  ASP618  TYR619  PRO620  LYS621  CYS622 
 ASP623  PHE694  ASN695  SER759  ASP760  ASP761  ALA762  ILE779  LEU786  VAL792 
 PHE793  MET794  SER795  GLU796  ALA797  LYS798  CYS799  TRP800  GLU811  SER814 

> <Gold.Protein.RotatedAtoms>
  151.5315  135.1068  159.9903 H   0  0  0  0  0  0  0  0  0  0  0  0  # atno 6907 bound_to 6896
  152.4576  133.7751  159.6831 H   0  0  0  0  0  0  0  0  0  0  0  0  # atno 6908 bound_to 6896
  150.8526  133.7699  159.3045 H   0  0  0  0  0  0  0  0  0  0  0  0  # atno 6909 bound_to 6896
  145.5546  139.2298  143.2493 H   0  0  0  0  0  0  0  0  0  0  0  0  # atno 7974 bound_to 7965
  155.8165  140.0913  157.1874 H   0  0  0  0  0  0  0  0  0  0  0  0  # atno 8008 bound_to 7997
  154.3979  140.1445  156.3508 H   0  0  0  0  0  0  0  0  0  0  0  0  # atno 8009 bound_to 7997
  155.8311  140.3442  155.5575 H   0  0  0  0  0  0  0  0  0  0  0  0  # atno 8010 bound_to 7997
  140.7139  143.3399  151.2379 H   0  0  0  0  0  0  0  0  0  0  0  0  # atno 10167 bound_to 10162
  156.1515  130.6538  150.9920 H   0  0  0  0  0  0  0  0  0  0  0  0  # atno 10718 bound_to 10713
  154.1840  135.6438  153.5041 H   0  0  0  0  0  0  0  0  0  0  0  0  # atno 10763 bound_to 10752
  153.0052  135.5412  154.6485 H   0  0  0  0  0  0  0  0  0  0  0  0  # atno 10764 bound_to 10752
  154.5856  135.2929  155.0660 H   0  0  0  0  0  0  0  0  0  0  0  0  # atno 10765 bound_to 10752
  140.3754  134.1978  155.7665 H   0  0  0  0  0  0  0  0  0  0  0  0  # atno 11005 bound_to 11000
  146.1893  140.6370  142.9153 LP  0  0  0  0  0  0  0  0  0  0  0  0  # atno 17320 bound_to 7965
  144.7512  140.5196  143.6800 LP  0  0  0  0  0  0  0  0  0  0  0  0  # atno 17321 bound_to 7965
  139.6904  143.9701  152.2856 LP  0  0  0  0  0  0  0  0  0  0  0  0  # atno 17342 bound_to 10162
  139.9361  144.6711  150.8313 LP  0  0  0  0  0  0  0  0  0  0  0  0  # atno 17343 bound_to 10162
  157.6661  131.0871  150.7726 LP  0  0  0  0  0  0  0  0  0  0  0  0  # atno 17370 bound_to 10713
  156.7793  130.4854  149.5404 LP  0  0  0  0  0  0  0  0  0  0  0  0  # atno 17371 bound_to 10713
  141.1941  133.8136  157.0771 LP  0  0  0  0  0  0  0  0  0  0  0  0  # atno 17394 bound_to 11000
  140.0519  134.9801  157.1152 LP  0  0  0  0  0  0  0  0  0  0  0  0  # atno 17395 bound_to 11000

$$$$
