AV-unprocessed.smi:1269|AV-procd|sdf|5327|dock8
  -GOLD-   22720 4453D 1   1.00000     0.00000
 Structure written by MMmdl.
 43 44  0  0  0  0  0  0  0  0  1 V2000
  144.6073  132.0102  151.4106 C   0  0  0  0  0  0  0  0  0  0  0  0
  143.5679  132.8506  151.8997 O   0  0  0  0  0  0  0  0  0  0  0  0
  143.8795  134.1538  152.2294 C   0  0  0  0  0  0  0  0  0  0  0  0
  142.8477  135.0009  152.6791 C   0  0  0  0  0  0  0  0  0  0  0  0
  143.1569  136.3313  153.0220 C   0  0  0  0  0  0  0  0  0  0  0  0
  144.4961  136.7760  152.9027 C   0  0  0  0  0  0  0  0  0  0  0  0
  144.9554  138.0861  153.2149 N   0  0  0  0  0  0  0  0  0  0  0  0
  146.1060  138.4791  153.7887 C   0  0  0  0  0  0  0  0  0  0  0  0
  146.9965  137.7335  154.1941 O   0  0  0  0  0  0  0  0  0  0  0  0
  146.1689  139.8170  153.8629 N   0  0  0  0  0  0  0  0  0  0  0  0
  147.2915  140.5954  154.3842 C   0  0  2  0  0  0  0  0  0  0  0  0
  147.1986  142.0279  153.8412 C   0  0  0  0  0  0  0  0  0  0  0  0
  148.6299  139.9368  153.9841 C   0  0  0  0  0  0  0  0  0  0  0  0
  149.6221  139.8137  155.0530 N   0  0  0  0  0  0  0  0  0  0  0  0
  150.1602  141.1055  155.4754 C   0  0  0  0  0  0  0  0  0  0  0  0
  151.2093  140.9508  156.5899 C   0  0  0  0  0  0  0  0  0  0  0  0
  152.2519  140.0871  156.1488 O   0  0  0  0  0  0  0  0  0  0  0  0
  151.7746  138.8012  155.7665 C   0  0  0  0  0  0  0  0  0  0  0  0
  150.7269  138.9512  154.6497 C   0  0  0  0  0  0  0  0  0  0  0  0
  145.4525  135.8483  152.4398 C   0  0  0  0  0  0  0  0  0  0  0  0
  145.1635  134.5719  152.1106 N   0  0  0  0  0  0  0  0  0  0  0  0
  144.2012  131.0216  151.1972 H   0  0  0  0  0  0  0  0  0  0  0  0
  145.4024  131.8887  152.1480 H   0  0  0  0  0  0  0  0  0  0  0  0
  145.0338  132.3991  150.4848 H   0  0  0  0  0  0  0  0  0  0  0  0
  141.8345  134.6363  152.7616 H   0  0  0  0  0  0  0  0  0  0  0  0
  142.3584  136.9683  153.3655 H   0  0  0  0  0  0  0  0  0  0  0  0
  144.3295  138.8301  152.9432 H   0  0  0  0  0  0  0  0  0  0  0  0
  145.3861  140.3443  153.5052 H   0  0  0  0  0  0  0  0  0  0  0  0
  147.2262  140.6697  155.4701 H   0  0  0  0  0  0  0  0  0  0  0  0
  148.0114  142.6452  154.2250 H   0  0  0  0  0  0  0  0  0  0  0  0
  146.2607  142.4998  154.1362 H   0  0  0  0  0  0  0  0  0  0  0  0
  147.2531  142.0460  152.7521 H   0  0  0  0  0  0  0  0  0  0  0  0
  148.4050  138.9422  153.5958 H   0  0  0  0  0  0  0  0  0  0  0  0
  149.0677  140.4860  153.1490 H   0  0  0  0  0  0  0  0  0  0  0  0
  150.6120  141.6151  154.6230 H   0  0  0  0  0  0  0  0  0  0  0  0
  149.3625  141.7521  155.8381 H   0  0  0  0  0  0  0  0  0  0  0  0
  151.6352  141.9206  156.8478 H   0  0  0  0  0  0  0  0  0  0  0  0
  150.7527  140.5492  157.4960 H   0  0  0  0  0  0  0  0  0  0  0  0
  152.6136  138.1971  155.4209 H   0  0  0  0  0  0  0  0  0  0  0  0
  151.3468  138.2924  156.6319 H   0  0  0  0  0  0  0  0  0  0  0  0
  150.3475  137.9648  154.3805 H   0  0  0  0  0  0  0  0  0  0  0  0
  151.2060  139.3556  153.7566 H   0  0  0  0  0  0  0  0  0  0  0  0
  146.4875  136.1381  152.3296 H   0  0  0  0  0  0  0  0  0  0  0  0
  1  2  1  0  0  0  0
  1 22  1  0  0  0  0
  1 23  1  0  0  0  0
  1 24  1  0  0  0  0
  2  3  1  0  0  0  0
  3 21  1  0  0  0  0
  3  4  2  0  0  0  0
  4  5  1  0  0  0  0
  4 25  1  0  0  0  0
  5  6  2  0  0  0  0
  5 26  1  0  0  0  0
  6  7  1  0  0  0  0
  6 20  1  0  0  0  0
  7  8  1  0  0  0  0
  7 27  1  0  0  0  0
  8  9  2  0  0  0  0
  8 10  1  0  0  0  0
 10 11  1  0  0  0  0
 10 28  1  0  0  0  0
 11 12  1  0  0  0  0
 11 13  1  0  0  0  0
 11 29  1  0  0  0  0
 12 30  1  0  0  0  0
 12 31  1  0  0  0  0
 12 32  1  0  0  0  0
 13 14  1  0  0  0  0
 13 33  1  0  0  0  0
 13 34  1  0  0  0  0
 14 19  1  0  0  0  0
 14 15  1  0  0  0  0
 15 16  1  0  0  0  0
 15 35  1  0  0  0  0
 15 36  1  0  0  0  0
 16 17  1  0  0  0  0
 16 37  1  0  0  0  0
 16 38  1  0  0  0  0
 17 18  1  0  0  0  0
 18 19  1  0  0  0  0
 18 39  1  0  0  0  0
 18 40  1  0  0  0  0
 19 41  1  0  0  0  0
 19 42  1  0  0  0  0
 20 21  2  0  0  0  0
 20 43  1  0  0  0  0
M  END
> <s_m_source_file>
AV-unprocessed.smi

> <i_m_source_file_index>
1269

> <i_lp_mmshare_version>
43012

> <i_f3d_flags>
0

> <s_epik_input>
W0NIM11PYzFbY0hdW2NIXWMoW2NIXW4xKVtOSF1DKD1PKVtOSF1bQ0BIXShbQ0gzXSlbQ0gyXU4yW0NIMl1bQ0gyXU9bQ0gyXVtDSDJdMg==

> <s_epik_cmdline>
J2VwaWtfcHl0aG9uJywgJy1waCcsICc3LjAnLCAnLXRuJywgJzgnLCAnLW1hJywgJzIwMCcsICctbWV0YWxfYmluZGluZycsICctaW1hZScsICc8aW5maWxlLm1hZT4nLCAnLW9tYWUnLCAnPG91dGZpbGUubWFlPic=

> <r_lp_tautomer_probability>
1

> <r_epik_Ionization_Penalty>
0.266086

> <r_epik_Ionization_Penalty_Charging>
0

> <r_epik_Ionization_Penalty_Neutral>
0.266086

> <r_epik_State_Penalty>
0.257924

> <r_epik_Charging_Adjusted_Penalty>
0.257924

> <i_epik_Tot_Q>
0

> <i_epik_Tot_abs_Q>
0

> <r_epik_Metal_State_Penalty>
0.25792

> <b_epik_Metal_Only>
0

> <s_lp_Force_Field>
OPLS_2005

> <r_lp_Energy>
28.3998

> <b_lp_Chiralities_Consistent>
1

> <s_lp_Variant>
AV-unprocessed.smi:1269-1

> <Gold.Version>
5.8.1

> <Gold.Id.Protein>
6NUR|6NUR_protein|mol2

> <Gold.PLP.Fitness>
43.0785

> <Gold.PLP.PLP>
-33.6349

> <Gold.PLP.part.hbond>
-3.0000

> <Gold.PLP.part.metal>
0.0000

> <Gold.PLP.part.buried>
-3.9102

> <Gold.PLP.part.nonpolar>
-27.2446

> <Gold.PLP.part.repulsive>
0.5561

> <Gold.PLP.ligand.clash>
0.0000

> <Gold.PLP.ligand.torsion>
1.2867

> <Gold.PLP.Chemscore.Hbond>
2.9913

> <Gold.PLP.Chemscore.CHOScore>
1.0000

> <Gold.PLP.Chemscore.Metal>
0.0000

> <Gold.Chemscore.Hbonds>
donor molecule, donor type, donor heavy atom, donor atom, acceptor molecule, acceptor atom, score
      L1  H     7    27       P1 10175  1.00
      L1  H    10    28       P1 10175  1.00
      P1  H  7997  8010       L1    17  0.84
      L1  C    20    43       P1  7948  1.00

> <Gold.PLP.Chemscore.Internal.Correction>
0.0434

> <Gold.Rescore>
     Score         DG    S(hbond)    S(metal)    S(lipo)     H(rot)  DE(clash)    DE(int)     intcor
     14.19     -18.57       2.75        0.00      70.98       1.72       0.60       3.77       ----

> <Gold.Chemscore.Fitness>
14.1915

> <Gold.Chemscore.DG>
-18.5702

> <Gold.Chemscore.ZeroCoef>
-5.4800

> <Gold.Chemscore.Hbond>
2.7503

> <Gold.Chemscore.Metal>
0.0000

> <Gold.Chemscore.Lipo>
70.9793

> <Gold.Chemscore.Internal_Hbond>
0.0000

> <Gold.Chemscore.DEClash>
0.6046

> <Gold.Chemscore.DEInternal>
3.7741

> <Gold.Chemscore.Rot>
1.7189

> <Gold.Chemscore.Internal.Correction>
   9.000000E+99

> <Gold.Chemscore.Hbonds>
donor molecule, donor type, donor heavy atom, donor atom, acceptor molecule, acceptor atom, score
      L1  H     7    27       P1 10175  1.00
      L1  H    10    28       P1 10175  0.93
      P1  H  7997  8010       L1    17  0.70

> <Gold.Chemscore.Hbond.Weighted>
-9.1861

> <Gold.Chemscore.Metal.Weighted>
-0.0000

> <Gold.Chemscore.Lipo.Weighted>
-8.3046

> <Gold.Chemscore.Internal_Hbond.Weighted>
0.0000

> <Gold.Chemscore.DEClash.Weighted>
0.6046

> <Gold.Chemscore.DEInternal.Weighted>
3.7741

> <Gold.Chemscore.Rot.Weighted>
4.4004

> <Gold.Chemscore.Internal.Correction.Weighted>
   9.000000E+99

> <Gold.Protein.RotatedTorsions>
[ 6907 6896 6895 6894 ] final   98.19 input  -60.11 | X-H torsion
[ 7974 7965 7964 7962 ] final  -89.33 input  175.53 | X-H torsion
[ 8008 7997 7996 7995 ] final   75.65 input   59.86 | X-H torsion
[ 10167 10162 10161 10158 ] final   -9.31 input  -65.29 | X-H torsion
[ 10718 10713 10712 10709 ] final   39.93 input   66.30 | X-H torsion
[ 10763 10752 10751 10750 ] final  122.19 input  -60.55 | X-H torsion
[ 11005 11000 10999 10996 ] final  -94.26 input  -57.11 | X-H torsion

> <Gold.Protein.ActiveResidues>
 VAL166  LYS551  ARG553  GLY616  TRP617  ASP618  TYR619  PRO620  LYS621  CYS622 
 ASP623  PHE694  ASN695  SER759  ASP760  ASP761  ALA762  ILE779  LEU786  VAL792 
 PHE793  MET794  SER795  GLU796  ALA797  LYS798  CYS799  TRP800  GLU811  SER814 

> <Gold.Protein.RotatedAtoms>
  152.5413  134.0618  159.8155 H   0  0  0  0  0  0  0  0  0  0  0  0  # atno 6907 bound_to 6896
  151.0745  133.5432  159.2632 H   0  0  0  0  0  0  0  0  0  0  0  0  # atno 6908 bound_to 6896
  151.2282  135.0553  159.9031 H   0  0  0  0  0  0  0  0  0  0  0  0  # atno 6909 bound_to 6896
  145.4413  140.9559  143.2074 H   0  0  0  0  0  0  0  0  0  0  0  0  # atno 7974 bound_to 7965
  155.8160  140.3471  155.5486 H   0  0  0  0  0  0  0  0  0  0  0  0  # atno 8008 bound_to 7997
  155.8391  140.0939  157.1765 H   0  0  0  0  0  0  0  0  0  0  0  0  # atno 8009 bound_to 7997
  154.4005  140.1398  156.3694 H   0  0  0  0  0  0  0  0  0  0  0  0  # atno 8010 bound_to 7997
  140.7084  143.5871  150.8931 H   0  0  0  0  0  0  0  0  0  0  0  0  # atno 10167 bound_to 10162
  157.3763  130.7729  149.7158 H   0  0  0  0  0  0  0  0  0  0  0  0  # atno 10718 bound_to 10713
  153.6258  135.3405  155.3026 H   0  0  0  0  0  0  0  0  0  0  0  0  # atno 10763 bound_to 10752
  154.8590  135.4284  154.2158 H   0  0  0  0  0  0  0  0  0  0  0  0  # atno 10764 bound_to 10752
  153.3042  135.7027  153.7248 H   0  0  0  0  0  0  0  0  0  0  0  0  # atno 10765 bound_to 10752
  141.1475  133.7944  157.0273 H   0  0  0  0  0  0  0  0  0  0  0  0  # atno 11005 bound_to 11000
  144.8120  139.5945  143.7025 LP  0  0  0  0  0  0  0  0  0  0  0  0  # atno 17320 bound_to 7965
  146.2555  139.6292  142.9398 LP  0  0  0  0  0  0  0  0  0  0  0  0  # atno 17321 bound_to 7965
  139.9597  143.6178  152.3006 LP  0  0  0  0  0  0  0  0  0  0  0  0  # atno 17342 bound_to 10162
  139.6726  144.7660  151.1755 LP  0  0  0  0  0  0  0  0  0  0  0  0  # atno 17343 bound_to 10162
  155.9766  130.4074  150.3769 LP  0  0  0  0  0  0  0  0  0  0  0  0  # atno 17370 bound_to 10713
  157.1867  131.0405  151.2721 LP  0  0  0  0  0  0  0  0  0  0  0  0  # atno 17371 bound_to 10713
  140.0776  134.9666  157.1572 LP  0  0  0  0  0  0  0  0  0  0  0  0  # atno 17394 bound_to 11000
  140.3621  134.2482  155.7186 LP  0  0  0  0  0  0  0  0  0  0  0  0  # atno 17395 bound_to 11000

$$$$
