AV-unprocessed.smi:692|AV-procd|sdf|3371|dock3
  -GOLD-   22720 0353D 1   1.00000     0.00000
 Structure written by MMmdl.
 36 37  0  0  0  0  0  0  0  0  2 V2000
  147.3865  139.9755  152.9604 C   0  0  0  0  0  0  0  0  0  0  0  0
  148.2494  140.7484  153.9640 C   0  0  0  0  0  0  0  0  0  0  0  0
  149.4501  139.9668  154.4031 C   0  0  0  0  0  0  0  0  0  0  0  0
  149.7855  138.6915  154.0290 C   0  0  0  0  0  0  0  0  0  0  0  0
  151.2620  138.1665  154.7864 S   0  0  0  0  0  0  0  0  0  0  0  0
  151.3880  139.7288  155.5981 C   0  0  0  0  0  0  0  0  0  0  0  0
  152.3733  140.0827  156.4391 N   0  5  0  0  0  0  0  0  0  0  0  0
  152.1526  140.0896  157.7734 C   0  0  0  0  0  0  0  0  0  0  0  0
  151.1893  139.5881  158.3576 O   0  0  0  0  0  0  0  0  0  0  0  0
  153.1064  140.7197  158.4742 N   0  0  0  0  0  0  0  0  0  0  0  0
  153.1349  140.8897  159.9243 C   0  0  1  0  0  0  0  0  0  0  0  0
  154.5136  140.5056  160.4641 C   0  0  0  0  0  0  0  0  0  0  0  0
  154.5461  140.6394  161.9912 C   0  0  0  0  0  0  0  0  0  0  0  0
  153.9647  141.9648  162.5066 C   0  0  0  0  0  0  0  0  0  0  0  0
  154.2562  142.3204  163.6491 O   0  0  0  0  0  0  0  0  0  0  0  0
  153.1325  142.6801  161.7114 N   0  0  0  0  0  0  0  0  0  0  0  0
  152.5393  143.9278  162.1953 C   0  0  0  0  0  0  0  0  0  0  0  0
  152.8125  142.3454  160.3150 C   0  0  0  0  0  0  0  0  0  0  0  0
  150.3644  140.5346  155.2945 N   0  0  0  0  0  0  0  0  0  0  0  0
  146.5218  140.5652  152.6557 H   0  0  0  0  0  0  0  0  0  0  0  0
  147.0187  139.0441  153.3920 H   0  0  0  0  0  0  0  0  0  0  0  0
  147.9548  139.7276  152.0635 H   0  0  0  0  0  0  0  0  0  0  0  0
  148.5616  141.6923  153.5162 H   0  0  0  0  0  0  0  0  0  0  0  0
  147.6420  141.0151  154.8298 H   0  0  0  0  0  0  0  0  0  0  0  0
  149.2559  138.0303  153.3597 H   0  0  0  0  0  0  0  0  0  0  0  0
  153.8763  141.1138  157.9537 H   0  0  0  0  0  0  0  0  0  0  0  0
  152.3966  140.2238  160.3754 H   0  0  0  0  0  0  0  0  0  0  0  0
  154.7567  139.4804  160.1821 H   0  0  0  0  0  0  0  0  0  0  0  0
  155.2820  141.1407  160.0204 H   0  0  0  0  0  0  0  0  0  0  0  0
  153.9679  139.8304  162.4389 H   0  0  0  0  0  0  0  0  0  0  0  0
  155.5691  140.5271  162.3514 H   0  0  0  0  0  0  0  0  0  0  0  0
  151.8737  143.7322  163.0371 H   0  0  0  0  0  0  0  0  0  0  0  0
  151.9572  144.4337  161.4239 H   0  0  0  0  0  0  0  0  0  0  0  0
  153.3132  144.6227  162.5248 H   0  0  0  0  0  0  0  0  0  0  0  0
  153.3780  143.0295  159.6801 H   0  0  0  0  0  0  0  0  0  0  0  0
  151.7572  142.5435  160.1210 H   0  0  0  0  0  0  0  0  0  0  0  0
  1  2  1  0  0  0  0
  1 20  1  0  0  0  0
  1 21  1  0  0  0  0
  1 22  1  0  0  0  0
  2  3  1  0  0  0  0
  2 23  1  0  0  0  0
  2 24  1  0  0  0  0
  3 19  1  0  0  0  0
  3  4  2  0  0  0  0
  4  5  1  0  0  0  0
  4 25  1  0  0  0  0
  5  6  1  0  0  0  0
  6  7  1  0  0  0  0
  6 19  2  0  0  0  0
  7  8  1  0  0  0  0
  8  9  2  0  0  0  0
  8 10  1  0  0  0  0
 10 11  1  0  0  0  0
 10 26  1  0  0  0  0
 11 18  1  0  0  0  0
 11 12  1  0  0  0  0
 11 27  1  0  0  0  0
 12 13  1  0  0  0  0
 12 28  1  0  0  0  0
 12 29  1  0  0  0  0
 13 14  1  0  0  0  0
 13 30  1  0  0  0  0
 13 31  1  0  0  0  0
 14 15  2  0  0  0  0
 14 16  1  0  0  0  0
 16 17  1  0  0  0  0
 16 18  1  0  0  0  0
 17 32  1  0  0  0  0
 17 33  1  0  0  0  0
 17 34  1  0  0  0  0
 18 35  1  0  0  0  0
 18 36  1  0  0  0  0
M  CHG  1   7  -1
M  END
> <s_m_source_file>
AV-unprocessed.smi

> <i_m_source_file_index>
692

> <i_lp_mmshare_version>
43012

> <i_f3d_flags>
0

> <s_epik_input>
W0NIM11bQ0gyXWMxW2NIXXNjKG4xKVtOSF1DKD1PKVtOSF1bQ0BASF0yW0NIMl1bQ0gyXUMoPU8pTihbQ0gzXSlbQ0gyXTI=

> <s_epik_cmdline>
J2VwaWtfcHl0aG9uJywgJy1waCcsICc3LjAnLCAnLXRuJywgJzgnLCAnLW1hJywgJzIwMCcsICctbWV0YWxfYmluZGluZycsICctaW1hZScsICc8aW5maWxlLm1hZT4nLCAnLW9tYWUnLCAnPG91dGZpbGUubWFlPic=

> <r_lp_tautomer_probability>
1

> <r_epik_Ionization_Penalty>
7.06728

> <r_epik_Ionization_Penalty_Charging>
5.78908

> <r_epik_Ionization_Penalty_Neutral>
1.2782

> <r_epik_State_Penalty>
5.78905

> <r_epik_Charging_Adjusted_Penalty>
11.5781

> <i_epik_Tot_Q>
-1

> <i_epik_Tot_abs_Q>
1

> <r_epik_Metal_State_Penalty>
1.76044

> <b_epik_Metal_Only>
1

> <s_lp_Force_Field>
OPLS_2005

> <r_lp_Energy>
4.22105

> <b_lp_Chiralities_Consistent>
1

> <s_lp_Variant>
AV-unprocessed.smi:692-4

> <Gold.Version>
5.8.1

> <Gold.Id.Protein>
6NUR|6NUR_protein|mol2

> <Gold.PLP.Fitness>
47.0697

> <Gold.PLP.PLP>
-39.8173

> <Gold.PLP.part.hbond>
-2.3082

> <Gold.PLP.part.metal>
0.0000

> <Gold.PLP.part.buried>
0.8867

> <Gold.PLP.part.nonpolar>
-37.5742

> <Gold.PLP.part.repulsive>
0.9453

> <Gold.PLP.ligand.clash>
0.0000

> <Gold.PLP.ligand.torsion>
0.8919

> <Gold.PLP.Chemscore.Hbond>
2.0000

> <Gold.PLP.Chemscore.CHOScore>
1.0000

> <Gold.PLP.Chemscore.Metal>
0.0000

> <Gold.Chemscore.Hbonds>
donor molecule, donor type, donor heavy atom, donor atom, acceptor molecule, acceptor atom, score
      P1  H  7989  7998       L1    19  0.01
      P1  H  7997  8010       L1     7  2.00
      L1  C     4    25       P1  7948  1.00

> <Gold.PLP.Chemscore.Internal.Correction>
0.0362

> <Gold.Rescore>
     Score         DG    S(hbond)    S(metal)    S(lipo)     H(rot)  DE(clash)    DE(int)     intcor
     13.50     -14.78       0.89        0.00      80.80       1.23       0.38       0.90       ----

> <Gold.Chemscore.Fitness>
13.4957

> <Gold.Chemscore.DG>
-14.7785

> <Gold.Chemscore.ZeroCoef>
-5.4800

> <Gold.Chemscore.Hbond>
0.8926

> <Gold.Chemscore.Metal>
0.0000

> <Gold.Chemscore.Lipo>
80.7996

> <Gold.Chemscore.Internal_Hbond>
0.0000

> <Gold.Chemscore.DEClash>
0.3840

> <Gold.Chemscore.DEInternal>
0.8988

> <Gold.Chemscore.Rot>
1.2251

> <Gold.Chemscore.Internal.Correction>
   9.000000E+99

> <Gold.Chemscore.Hbonds>
donor molecule, donor type, donor heavy atom, donor atom, acceptor molecule, acceptor atom, score
      P1  H  7997  8010       L1     7  0.34

> <Gold.Chemscore.Hbond.Weighted>
-2.9812

> <Gold.Chemscore.Metal.Weighted>
-0.0000

> <Gold.Chemscore.Lipo.Weighted>
-9.4535

> <Gold.Chemscore.Internal_Hbond.Weighted>
0.0000

> <Gold.Chemscore.DEClash.Weighted>
0.3840

> <Gold.Chemscore.DEInternal.Weighted>
0.8988

> <Gold.Chemscore.Rot.Weighted>
3.1362

> <Gold.Chemscore.Internal.Correction.Weighted>
   9.000000E+99

> <Gold.Protein.RotatedTorsions>
[ 6907 6896 6895 6894 ] final  -97.97 input  -60.11 | X-H torsion
[ 7974 7965 7964 7962 ] final  -96.28 input  175.53 | X-H torsion
[ 8008 7997 7996 7995 ] final   77.70 input   59.86 | X-H torsion
[ 10167 10162 10161 10158 ] final  112.26 input  -65.29 | X-H torsion
[ 10718 10713 10712 10709 ] final   27.50 input   66.30 | X-H torsion
[ 10763 10752 10751 10750 ] final  108.70 input  -60.55 | X-H torsion
[ 11005 11000 10999 10996 ] final   12.37 input  -57.11 | X-H torsion

> <Gold.Protein.ActiveResidues>
 VAL166  LYS551  ARG553  GLY616  TRP617  ASP618  TYR619  PRO620  LYS621  CYS622 
 ASP623  PHE694  ASN695  SER759  ASP760  ASP761  ALA762  ILE779  LEU786  VAL792 
 PHE793  MET794  SER795  GLU796  ALA797  LYS798  CYS799  TRP800  GLU811  SER814 

> <Gold.Protein.RotatedAtoms>
  150.7032  134.1266  159.4054 H   0  0  0  0  0  0  0  0  0  0  0  0  # atno 6907 bound_to 6896
  151.9252  135.0278  160.0534 H   0  0  0  0  0  0  0  0  0  0  0  0  # atno 6908 bound_to 6896
  152.2222  133.4957  159.5206 H   0  0  0  0  0  0  0  0  0  0  0  0  # atno 6909 bound_to 6896
  145.3489  140.9473  143.2565 H   0  0  0  0  0  0  0  0  0  0  0  0  # atno 7974 bound_to 7965
  155.8453  140.3460  155.5658 H   0  0  0  0  0  0  0  0  0  0  0  0  # atno 8008 bound_to 7997
  155.8097  140.0897  157.1930 H   0  0  0  0  0  0  0  0  0  0  0  0  # atno 8009 bound_to 7997
  154.4006  140.1450  156.3359 H   0  0  0  0  0  0  0  0  0  0  0  0  # atno 8010 bound_to 7997
  139.6549  144.7129  151.1977 H   0  0  0  0  0  0  0  0  0  0  0  0  # atno 10167 bound_to 10162
  157.2210  130.6979  149.6270 H   0  0  0  0  0  0  0  0  0  0  0  0  # atno 10718 bound_to 10713
  153.4244  135.3803  155.2131 H   0  0  0  0  0  0  0  0  0  0  0  0  # atno 10763 bound_to 10752
  154.8746  135.3825  154.4345 H   0  0  0  0  0  0  0  0  0  0  0  0  # atno 10764 bound_to 10752
  153.4869  135.7088  153.5969 H   0  0  0  0  0  0  0  0  0  0  0  0  # atno 10765 bound_to 10752
  140.4928  134.0824  155.7775 H   0  0  0  0  0  0  0  0  0  0  0  0  # atno 11005 bound_to 11000
  144.8733  139.5007  143.6757 LP  0  0  0  0  0  0  0  0  0  0  0  0  # atno 17320 bound_to 7965
  146.2976  139.7326  142.9115 LP  0  0  0  0  0  0  0  0  0  0  0  0  # atno 17321 bound_to 7965
  140.7554  143.6089  150.8625 LP  0  0  0  0  0  0  0  0  0  0  0  0  # atno 17342 bound_to 10162
  139.9741  143.6024  152.2964 LP  0  0  0  0  0  0  0  0  0  0  0  0  # atno 17343 bound_to 10162
  155.9682  130.4520  150.5756 LP  0  0  0  0  0  0  0  0  0  0  0  0  # atno 17370 bound_to 10713
  157.3576  131.0744  151.1663 LP  0  0  0  0  0  0  0  0  0  0  0  0  # atno 17371 bound_to 10713
  141.1475  133.9028  157.2179 LP  0  0  0  0  0  0  0  0  0  0  0  0  # atno 17394 bound_to 11000
  139.9759  135.0114  156.9630 LP  0  0  0  0  0  0  0  0  0  0  0  0  # atno 17395 bound_to 11000

$$$$
