AV-unprocessed.smi:2520|AV-procd|sdf|9912|dock5
  -GOLD-   2272013553D 1   1.00000     0.00000
 Structure written by MMmdl.
 41 44  0  0  0  0  0  0  0  0  1 V2000
  149.3817  135.8660  156.6287 O   0  0  0  0  0  0  0  0  0  0  0  0
  149.1539  136.1932  155.4654 C   0  0  0  0  0  0  0  0  0  0  0  0
  149.2037  135.2889  154.4639 N   0  0  0  0  0  0  0  0  0  0  0  0
  149.4977  133.8930  154.4684 C   0  0  0  0  0  0  0  0  0  0  0  0
  148.8179  133.1425  153.4853 C   0  0  0  0  0  0  0  0  0  0  0  0
  149.0470  131.7573  153.4221 C   0  0  0  0  0  0  0  0  0  0  0  0
  149.9447  131.2101  154.3543 C   0  0  0  0  0  0  0  0  0  0  0  0
  150.5729  131.9634  155.2820 N   0  0  0  0  0  0  0  0  0  0  0  0
  150.3493  133.2804  155.3338 N   0  0  0  0  0  0  0  0  0  0  0  0
  148.8404  137.4477  155.1101 N   0  0  0  0  0  0  0  0  0  0  0  0
  148.7310  138.5981  156.0059 C   0  0  1  0  0  0  0  0  0  0  0  0
  150.1088  139.1199  156.4751 C   0  0  1  0  0  0  0  0  0  0  0  0
  151.3851  138.3365  156.2838 C   0  0  0  0  0  0  0  0  0  0  0  0
  151.9607  138.9310  154.9947 C   0  0  0  0  0  0  0  0  0  0  0  0
  150.8530  139.5572  154.3499 O   0  0  0  0  0  0  0  0  0  0  0  0
  150.0348  140.1478  155.3571 C   0  0  1  0  0  0  0  0  0  0  0  0
  148.5143  139.9176  155.2281 C   0  0  0  0  0  0  0  0  0  0  0  0
  147.6389  140.9744  155.8996 C   0  0  0  0  0  0  0  0  0  0  0  0
  147.2962  142.0236  154.8370 C   0  0  0  0  0  0  0  0  0  0  0  0
  147.5163  141.3352  153.4866 C   0  0  0  0  0  0  0  0  0  0  0  0
  147.9164  139.8968  153.8207 C   0  0  0  0  0  0  0  0  0  0  0  0
  148.9815  135.6639  153.5533 H   0  0  0  0  0  0  0  0  0  0  0  0
  148.1361  133.6148  152.7930 H   0  0  0  0  0  0  0  0  0  0  0  0
  148.5535  131.1386  152.6876 H   0  0  0  0  0  0  0  0  0  0  0  0
  150.1623  130.1524  154.3580 H   0  0  0  0  0  0  0  0  0  0  0  0
  148.6672  137.6262  154.1305 H   0  0  0  0  0  0  0  0  0  0  0  0
  148.0283  138.4671  156.8307 H   0  0  0  0  0  0  0  0  0  0  0  0
  150.0282  139.5984  157.4526 H   0  0  0  0  0  0  0  0  0  0  0  0
  152.0760  138.4651  157.1171 H   0  0  0  0  0  0  0  0  0  0  0  0
  151.1998  137.2676  156.1790 H   0  0  0  0  0  0  0  0  0  0  0  0
  152.7105  139.6889  155.2254 H   0  0  0  0  0  0  0  0  0  0  0  0
  152.4209  138.1783  154.3543 H   0  0  0  0  0  0  0  0  0  0  0  0
  150.3519  141.1503  155.6478 H   0  0  0  0  0  0  0  0  0  0  0  0
  146.7173  140.5160  156.2613 H   0  0  0  0  0  0  0  0  0  0  0  0
  148.1216  141.4295  156.7652 H   0  0  0  0  0  0  0  0  0  0  0  0
  146.2725  142.3820  154.9499 H   0  0  0  0  0  0  0  0  0  0  0  0
  147.9576  142.8860  154.9261 H   0  0  0  0  0  0  0  0  0  0  0  0
  146.6282  141.3703  152.8550 H   0  0  0  0  0  0  0  0  0  0  0  0
  148.3241  141.8319  152.9477 H   0  0  0  0  0  0  0  0  0  0  0  0
  148.6014  139.4937  153.0744 H   0  0  0  0  0  0  0  0  0  0  0  0
  147.0285  139.2632  153.8050 H   0  0  0  0  0  0  0  0  0  0  0  0
  1  2  2  0  0  0  0
  2  3  1  0  0  0  0
  2 10  1  0  0  0  0
  3  4  1  0  0  0  0
  3 22  1  0  0  0  0
  4  9  1  0  0  0  0
  4  5  2  0  0  0  0
  5  6  1  0  0  0  0
  5 23  1  0  0  0  0
  6  7  2  0  0  0  0
  6 24  1  0  0  0  0
  7  8  1  0  0  0  0
  7 25  1  0  0  0  0
  8  9  2  0  0  0  0
 10 11  1  0  0  0  0
 10 26  1  0  0  0  0
 11 17  1  0  0  0  0
 11 12  1  0  0  0  0
 11 27  1  0  0  0  0
 12 16  1  0  0  0  0
 12 13  1  0  0  0  0
 12 28  1  0  0  0  0
 13 14  1  0  0  0  0
 13 29  1  0  0  0  0
 13 30  1  0  0  0  0
 14 15  1  0  0  0  0
 14 31  1  0  0  0  0
 14 32  1  0  0  0  0
 15 16  1  0  0  0  0
 16 17  1  0  0  0  0
 16 33  1  0  0  0  0
 17 21  1  0  0  0  0
 17 18  1  0  0  0  0
 18 19  1  0  0  0  0
 18 34  1  0  0  0  0
 18 35  1  0  0  0  0
 19 20  1  0  0  0  0
 19 36  1  0  0  0  0
 19 37  1  0  0  0  0
 20 21  1  0  0  0  0
 20 38  1  0  0  0  0
 20 39  1  0  0  0  0
 21 40  1  0  0  0  0
 21 41  1  0  0  0  0
M  END
> <s_m_source_file>
AV-unprocessed.smi

> <i_m_source_file_index>
2520

> <i_lp_mmshare_version>
43012

> <i_f3d_flags>
0

> <s_epik_input>
bjFuW2NIXVtjSF1bY0hdYzFbTkhdQyg9TylbTkhdW0NAQEhdMltDQEBIXShbQ0gyXVtDSDJdTzMpW0NASF0zQzI0W0NIMl1bQ0gyXVtDSDJdW0NIMl00

> <s_epik_cmdline>
J2VwaWtfcHl0aG9uJywgJy1waCcsICc3LjAnLCAnLXRuJywgJzgnLCAnLW1hJywgJzIwMCcsICctbWV0YWxfYmluZGluZycsICctaW1hZScsICc8aW5maWxlLm1hZT4nLCAnLW9tYWUnLCAnPG91dGZpbGUubWFlPic=

> <r_lp_tautomer_probability>
1

> <r_epik_Ionization_Penalty>
0.00552561

> <r_epik_Ionization_Penalty_Charging>
0

> <r_epik_Ionization_Penalty_Neutral>
0.00552561

> <r_epik_State_Penalty>
-0

> <r_epik_Charging_Adjusted_Penalty>
0

> <i_epik_Tot_Q>
0

> <i_epik_Tot_abs_Q>
0

> <r_epik_Metal_State_Penalty>
-0

> <b_epik_Metal_Only>
0

> <s_lp_Force_Field>
OPLS_2005

> <r_lp_Energy>
62.4045

> <b_lp_Chiralities_Consistent>
1

> <s_lp_Variant>
AV-unprocessed.smi:2520-6

> <Gold.Version>
5.8.1

> <Gold.Id.Protein>
6NUR|6NUR_protein|mol2

> <Gold.PLP.Fitness>
34.2081

> <Gold.PLP.PLP>
-28.6395

> <Gold.PLP.part.hbond>
-2.0000

> <Gold.PLP.part.metal>
0.0000

> <Gold.PLP.part.buried>
-4.3341

> <Gold.PLP.part.nonpolar>
-22.7303

> <Gold.PLP.part.repulsive>
0.1818

> <Gold.PLP.ligand.clash>
0.0000

> <Gold.PLP.ligand.torsion>
0.3185

> <Gold.PLP.Chemscore.Hbond>
2.0000

> <Gold.PLP.Chemscore.CHOScore>
0.0000

> <Gold.PLP.Chemscore.Metal>
0.0000

> <Gold.Chemscore.Hbonds>
donor molecule, donor type, donor heavy atom, donor atom, acceptor molecule, acceptor atom, score
      L1  H     3    22       P1  7948  1.00
      P1  H  7989  7998       L1    15  1.00

> <Gold.PLP.Chemscore.Internal.Correction>
0.2057

> <Gold.Rescore>
     Score         DG    S(hbond)    S(metal)    S(lipo)     H(rot)  DE(clash)    DE(int)     intcor
     14.16     -16.79       1.74        0.00      68.71       1.00       1.57       1.06       ----

> <Gold.Chemscore.Fitness>
14.1605

> <Gold.Chemscore.DG>
-16.7862

> <Gold.Chemscore.ZeroCoef>
-5.4800

> <Gold.Chemscore.Hbond>
1.7447

> <Gold.Chemscore.Metal>
0.0000

> <Gold.Chemscore.Lipo>
68.7086

> <Gold.Chemscore.Internal_Hbond>
0.0000

> <Gold.Chemscore.DEClash>
1.5692

> <Gold.Chemscore.DEInternal>
1.0564

> <Gold.Chemscore.Rot>
1.0000

> <Gold.Chemscore.Internal.Correction>
   9.000000E+99

> <Gold.Chemscore.Hbonds>
donor molecule, donor type, donor heavy atom, donor atom, acceptor molecule, acceptor atom, score
      L1  H     3    22       P1  7948  0.85
      P1  H  7989  7998       L1    15  0.23

> <Gold.Chemscore.Hbond.Weighted>
-5.8273

> <Gold.Chemscore.Metal.Weighted>
-0.0000

> <Gold.Chemscore.Lipo.Weighted>
-8.0389

> <Gold.Chemscore.Internal_Hbond.Weighted>
0.0000

> <Gold.Chemscore.DEClash.Weighted>
1.5692

> <Gold.Chemscore.DEInternal.Weighted>
1.0564

> <Gold.Chemscore.Rot.Weighted>
2.5600

> <Gold.Chemscore.Internal.Correction.Weighted>
   9.000000E+99

> <Gold.Protein.RotatedTorsions>
[ 6907 6896 6895 6894 ] final  -21.62 input  -60.11 | X-H torsion
[ 7974 7965 7964 7962 ] final -152.75 input  175.53 | X-H torsion
[ 8008 7997 7996 7995 ] final  114.79 input   59.86 | X-H torsion
[ 10167 10162 10161 10158 ] final  133.75 input  -65.29 | X-H torsion
[ 10718 10713 10712 10709 ] final   79.18 input   66.30 | X-H torsion
[ 10763 10752 10751 10750 ] final   86.28 input  -60.55 | X-H torsion
[ 11005 11000 10999 10996 ] final  -50.33 input  -57.11 | X-H torsion

> <Gold.Protein.ActiveResidues>
 VAL166  LYS551  ARG553  GLY616  TRP617  ASP618  TYR619  PRO620  LYS621  CYS622 
 ASP623  PHE694  ASN695  SER759  ASP760  ASP761  ALA762  ILE779  LEU786  VAL792 
 PHE793  MET794  SER795  GLU796  ALA797  LYS798  CYS799  TRP800  GLU811  SER814 

> <Gold.Protein.RotatedAtoms>
  151.2307  135.0553  159.8986 H   0  0  0  0  0  0  0  0  0  0  0  0  # atno 6907 bound_to 6896
  152.5405  134.0540  159.8133 H   0  0  0  0  0  0  0  0  0  0  0  0  # atno 6908 bound_to 6896
  151.0719  133.5410  159.2658 H   0  0  0  0  0  0  0  0  0  0  0  0  # atno 6909 bound_to 6896
  144.7777  140.4619  143.5861 H   0  0  0  0  0  0  0  0  0  0  0  0  # atno 7974 bound_to 7965
  156.2343  140.2952  156.0269 H   0  0  0  0  0  0  0  0  0  0  0  0  # atno 8008 bound_to 7997
  155.2138  140.0413  157.2955 H   0  0  0  0  0  0  0  0  0  0  0  0  # atno 8009 bound_to 7997
  154.6050  140.2437  155.7750 H   0  0  0  0  0  0  0  0  0  0  0  0  # atno 8010 bound_to 7997
  139.5284  144.6601  151.5040 H   0  0  0  0  0  0  0  0  0  0  0  0  # atno 10167 bound_to 10162
  157.6768  130.9902  150.1895 H   0  0  0  0  0  0  0  0  0  0  0  0  # atno 10718 bound_to 10713
  153.1555  135.4586  154.9698 H   0  0  0  0  0  0  0  0  0  0  0  0  # atno 10763 bound_to 10752
  154.7858  135.3203  154.7891 H   0  0  0  0  0  0  0  0  0  0  0  0  # atno 10764 bound_to 10752
  153.8389  135.6932  153.4859 H   0  0  0  0  0  0  0  0  0  0  0  0  # atno 10765 bound_to 10752
  141.0810  133.6653  156.3715 H   0  0  0  0  0  0  0  0  0  0  0  0  # atno 11005 bound_to 11000
  145.6138  139.1516  143.3061 LP  0  0  0  0  0  0  0  0  0  0  0  0  # atno 17320 bound_to 7965
  146.1967  140.6253  142.9121 LP  0  0  0  0  0  0  0  0  0  0  0  0  # atno 17321 bound_to 7965
  140.6445  143.8822  150.6724 LP  0  0  0  0  0  0  0  0  0  0  0  0  # atno 17342 bound_to 10162
  140.2167  143.3840  152.1675 LP  0  0  0  0  0  0  0  0  0  0  0  0  # atno 17343 bound_to 10162
  156.2609  130.3711  149.8131 LP  0  0  0  0  0  0  0  0  0  0  0  0  # atno 17370 bound_to 10713
  156.5876  130.8493  151.3400 LP  0  0  0  0  0  0  0  0  0  0  0  0  # atno 17371 bound_to 10713
  140.5469  134.6066  157.5396 LP  0  0  0  0  0  0  0  0  0  0  0  0  # atno 17394 bound_to 11000
  139.9624  134.7430  156.0209 LP  0  0  0  0  0  0  0  0  0  0  0  0  # atno 17395 bound_to 11000

$$$$
