AV-unprocessed.smi:54|AV-procd|sdf|546|dock1
  -GOLD-   2262016443D 1   1.00000     0.00000
 Structure written by MMmdl.
 43 45  0  0  0  0  0  0  0  0  2 V2000
  145.3703  136.4083  160.1306 C   0  0  0  0  0  0  0  0  0  0  0  0
  146.6767  135.5982  160.0910 C   0  0  0  0  0  0  0  0  0  0  0  0
  146.7951  134.6696  161.3112 C   0  0  0  0  0  0  0  0  0  0  0  0
  147.8917  136.5322  159.9966 C   0  0  0  0  0  0  0  0  0  0  0  0
  148.1171  137.3193  160.9184 O   0  0  0  0  0  0  0  0  0  0  0  0
  148.6220  136.4165  158.8659 N   0  0  0  0  0  0  0  0  0  0  0  0
  149.7600  137.1319  158.4787 C   0  0  0  0  0  0  0  0  0  0  0  0
  149.5942  137.7969  157.3621 N   0  0  0  0  0  0  0  0  0  0  0  0
  150.7283  138.4841  156.9747 C   0  0  0  0  0  0  0  0  0  0  0  0
  151.9394  138.5188  157.6107 C   0  0  0  0  0  0  0  0  0  0  0  0
  152.8482  139.3215  156.9323 N   0  0  0  0  0  0  0  0  0  0  0  0
  152.1263  139.7442  155.8965 C   0  0  0  0  0  0  0  0  0  0  0  0
  150.8562  139.2959  155.8490 N   0  0  0  0  0  0  0  0  0  0  0  0
  149.8463  139.6319  154.7914 C   0  0  1  0  0  0  0  0  0  0  0  0
  148.6036  139.1000  155.1506 O   0  0  0  0  0  0  0  0  0  0  0  0
  147.6307  140.1366  155.2832 C   0  0  2  0  0  0  0  0  0  0  0  0
  146.2453  139.6010  154.8911 C   0  0  0  0  0  0  0  0  0  0  0  0
  145.3149  140.6607  154.8248 O   0  0  0  0  0  0  0  0  0  0  0  0
  148.1605  141.2164  154.3381 C   0  0  1  0  0  0  0  0  0  0  0  0
  147.6224  142.4998  154.5915 O   0  0  0  0  0  0  0  0  0  0  0  0
  149.6621  141.1466  154.5757 C   0  0  1  0  0  0  0  0  0  0  0  0
  150.0721  141.9375  155.6814 O   0  0  0  0  0  0  0  0  0  0  0  0
  152.0646  137.7319  158.8603 C   0  0  0  0  0  0  0  0  0  0  0  0
  153.1370  137.7308  159.4618 O   0  0  0  0  0  0  0  0  0  0  0  0
  150.9406  137.0563  159.2443 N   0  5  0  0  0  0  0  0  0  0  0  0
  150.2003  139.1185  153.8963 H   0  0  0  0  0  0  0  0  0  0  0  0
  147.6290  140.5174  156.3056 H   0  0  0  0  0  0  0  0  0  0  0  0
  147.9442  140.9370  153.3059 H   0  0  0  0  0  0  0  0  0  0  0  0
  150.2268  141.4634  153.6985 H   0  0  0  0  0  0  0  0  0  0  0  0
  145.2833  137.0619  159.2617 H   0  0  0  0  0  0  0  0  0  0  0  0
  145.3106  137.0315  161.0238 H   0  0  0  0  0  0  0  0  0  0  0  0
  144.5028  135.7480  160.1306 H   0  0  0  0  0  0  0  0  0  0  0  0
  146.6534  134.9709  159.1980 H   0  0  0  0  0  0  0  0  0  0  0  0
  147.7275  134.1039  161.2899 H   0  0  0  0  0  0  0  0  0  0  0  0
  145.9769  133.9495  161.3326 H   0  0  0  0  0  0  0  0  0  0  0  0
  146.7665  135.2296  162.2469 H   0  0  0  0  0  0  0  0  0  0  0  0
  148.2455  135.7779  158.1810 H   0  0  0  0  0  0  0  0  0  0  0  0
  152.5339  140.4067  155.1471 H   0  0  0  0  0  0  0  0  0  0  0  0
  146.2860  139.1412  153.9033 H   0  0  0  0  0  0  0  0  0  0  0  0
  145.9032  138.8374  155.5900 H   0  0  0  0  0  0  0  0  0  0  0  0
  144.7807  140.5433  154.0543 H   0  0  0  0  0  0  0  0  0  0  0  0
  148.3233  143.0556  154.8978 H   0  0  0  0  0  0  0  0  0  0  0  0
  149.6605  142.7857  155.6163 H   0  0  0  0  0  0  0  0  0  0  0  0
  1  2  1  0  0  0  0
  1 30  1  0  0  0  0
  1 31  1  0  0  0  0
  1 32  1  0  0  0  0
  2  3  1  0  0  0  0
  2  4  1  0  0  0  0
  2 33  1  0  0  0  0
  3 34  1  0  0  0  0
  3 35  1  0  0  0  0
  3 36  1  0  0  0  0
  4  5  2  0  0  0  0
  4  6  1  0  0  0  0
  6 37  1  0  0  0  0
  6  7  1  0  0  0  0
  7 25  1  0  0  0  0
  7  8  2  0  0  0  0
  8  9  1  0  0  0  0
  9 13  1  0  0  0  0
  9 10  2  0  0  0  0
 10 11  1  0  0  0  0
 10 23  1  0  0  0  0
 11 12  2  0  0  0  0
 12 13  1  0  0  0  0
 12 38  1  0  0  0  0
 13 14  1  0  0  0  0
 14 26  1  0  0  0  0
 14 21  1  0  0  0  0
 14 15  1  0  0  0  0
 15 16  1  0  0  0  0
 16 27  1  0  0  0  0
 16 17  1  0  0  0  0
 16 19  1  0  0  0  0
 17 18  1  0  0  0  0
 17 39  1  0  0  0  0
 17 40  1  0  0  0  0
 18 41  1  0  0  0  0
 19 28  1  0  0  0  0
 19 20  1  0  0  0  0
 19 21  1  0  0  0  0
 20 42  1  0  0  0  0
 21 29  1  0  0  0  0
 21 22  1  0  0  0  0
 22 43  1  0  0  0  0
 23 24  2  0  0  0  0
 23 25  1  0  0  0  0
M  CHG  1  25  -1
M  END
> <s_m_source_file>
AV-unprocessed.smi

> <i_m_source_file_index>
54

> <i_lp_mmshare_version>
43012

> <i_f3d_flags>
0

> <s_epik_input>
W0NIM11bQ0hdKFtDSDNdKUMoPU8pW05IXWMobjEpW25IXWMoPU8pYyhjMTIpbltjSF1uMltDQEBIXTNPW0NASF0oW0NIMl1bT0hdKVtDQEBIXShbT0hdKVtDQEhdM1tPSF0=

> <s_epik_cmdline>
J2VwaWtfcHl0aG9uJywgJy1waCcsICc3LjAnLCAnLXRuJywgJzgnLCAnLW1hJywgJzIwMCcsICctbWV0YWxfYmluZGluZycsICctaW1hZScsICc8aW5maWxlLm1hZT4nLCAnLW9tYWUnLCAnPG91dGZpbGUubWFlPic=

> <r_lp_tautomer_probability>
0.85571

> <r_epik_Ionization_Penalty>
1.75936

> <r_epik_Ionization_Penalty_Charging>
4.55893e-11

> <r_epik_Ionization_Penalty_Neutral>
1.75936

> <r_epik_State_Penalty>
1.72072

> <r_epik_Charging_Adjusted_Penalty>
1.72072

> <i_epik_Tot_Q>
-1

> <i_epik_Tot_abs_Q>
1

> <r_epik_Metal_State_Penalty>
0.400338

> <b_epik_Metal_Only>
1

> <s_epik_Chemistry_Notes>
This compound contains an acetal/aminal-like group ( X-CH(R)-Y where X, Y are N, S, or O) that may be acid/base labile, releasing an aldehyde.

> <s_lp_Force_Field>
OPLS_2005

> <r_lp_Energy>
68.5195

> <b_lp_Chiralities_Consistent>
1

> <s_lp_Variant>
AV-unprocessed.smi:54-18

> <Gold.Version>
5.8.1

> <Gold.Id.Protein>
6NUR|6NUR_protein|mol2

> <Gold.PLP.Fitness>
51.6303

> <Gold.PLP.PLP>
-29.9690

> <Gold.PLP.part.hbond>
-6.9936

> <Gold.PLP.part.metal>
0.0000

> <Gold.PLP.part.buried>
-4.9798

> <Gold.PLP.part.nonpolar>
-18.7536

> <Gold.PLP.part.repulsive>
0.1994

> <Gold.PLP.ligand.clash>
0.0000

> <Gold.PLP.ligand.torsion>
0.6891

> <Gold.PLP.Chemscore.Hbond>
7.6565

> <Gold.PLP.Chemscore.CHOScore>
0.0000

> <Gold.PLP.Chemscore.Metal>
0.0000

> <Gold.Chemscore.Hbonds>
donor molecule, donor type, donor heavy atom, donor atom, acceptor molecule, acceptor atom, score
      L1  H    18    41       P1 10175  1.00
      L1  H    20    42       P1  8028  0.96
      L1  H    22    43       P1  8028  0.88
      P1  H  6896  6907       L1    25  1.89
      P1  H  6931  6943       L1     5  0.86
      P1  H  6934  6947       L1     5  0.66
      P1  H  7997  8010       L1    11  0.99

> <Gold.PLP.Chemscore.Internal.Correction>
0.0702

> <Gold.Rescore>
     Score         DG    S(hbond)    S(metal)    S(lipo)     H(rot)  DE(clash)    DE(int)     intcor
     14.66     -17.65       5.47        0.00      35.73       4.02       0.02       2.97       ----

> <Gold.Chemscore.Fitness>
14.6563

> <Gold.Chemscore.DG>
-17.6484

> <Gold.Chemscore.ZeroCoef>
-5.4800

> <Gold.Chemscore.Hbond>
5.4721

> <Gold.Chemscore.Metal>
0.0000

> <Gold.Chemscore.Lipo>
35.7349

> <Gold.Chemscore.Internal_Hbond>
0.0000

> <Gold.Chemscore.DEClash>
0.0202

> <Gold.Chemscore.DEInternal>
2.9719

> <Gold.Chemscore.Rot>
4.0192

> <Gold.Chemscore.Internal.Correction>
   9.000000E+99

> <Gold.Chemscore.Hbonds>
donor molecule, donor type, donor heavy atom, donor atom, acceptor molecule, acceptor atom, score
      L1  H    18    41       P1 10175  1.00
      L1  H    20    42       P1  8028  0.92
      L1  H    22    43       P1  8028  0.86
      P1  H  6896  6907       L1    25  0.64
      P1  H  6931  6943       L1     5  0.84
      P1  H  6934  6947       L1     5  0.64
      P1  H  7997  8010       L1    11  0.77

> <Gold.Chemscore.Hbond.Weighted>
-18.2767

> <Gold.Chemscore.Metal.Weighted>
-0.0000

> <Gold.Chemscore.Lipo.Weighted>
-4.1810

> <Gold.Chemscore.Internal_Hbond.Weighted>
0.0000

> <Gold.Chemscore.DEClash.Weighted>
0.0202

> <Gold.Chemscore.DEInternal.Weighted>
2.9719

> <Gold.Chemscore.Rot.Weighted>
10.2893

> <Gold.Chemscore.Internal.Correction.Weighted>
   9.000000E+99

> <Gold.Protein.RotatedTorsions>
[ 6907 6896 6895 6894 ] final  -18.60 input  -60.11 | X-H torsion
[ 7974 7965 7964 7962 ] final   -1.53 input  175.53 | X-H torsion
[ 8008 7997 7996 7995 ] final   39.80 input   59.86 | X-H torsion
[ 10167 10162 10161 10158 ] final  157.97 input  -65.29 | X-H torsion
[ 10718 10713 10712 10709 ] final   27.62 input   66.30 | X-H torsion
[ 10763 10752 10751 10750 ] final   65.91 input  -60.55 | X-H torsion
[ 11005 11000 10999 10996 ] final   30.85 input  -57.11 | X-H torsion

> <Gold.Protein.ActiveResidues>
 VAL166  LYS551  ARG553  GLY616  TRP617  ASP618  TYR619  PRO620  LYS621  CYS622 
 ASP623  PHE694  ASN695  SER759  ASP760  ASP761  ALA762  ILE779  LEU786  VAL792 
 PHE793  MET794  SER795  GLU796  ALA797  LYS798  CYS799  TRP800  GLU811  SER814 

> <Gold.Protein.RotatedAtoms>
  151.2758  135.0698  159.9150 H   0  0  0  0  0  0  0  0  0  0  0  0  # atno 6907 bound_to 6896
  152.5343  134.0083  159.7937 H   0  0  0  0  0  0  0  0  0  0  0  0  # atno 6908 bound_to 6896
  151.0329  133.5724  159.2690 H   0  0  0  0  0  0  0  0  0  0  0  0  # atno 6909 bound_to 6896
  146.2416  140.1435  142.8335 H   0  0  0  0  0  0  0  0  0  0  0  0  # atno 7974 bound_to 7965
  155.2426  140.3346  155.4290 H   0  0  0  0  0  0  0  0  0  0  0  0  # atno 8008 bound_to 7997
  156.2249  140.1825  156.7432 H   0  0  0  0  0  0  0  0  0  0  0  0  # atno 8009 bound_to 7997
  154.5883  140.0642  156.9188 H   0  0  0  0  0  0  0  0  0  0  0  0  # atno 8010 bound_to 7997
  139.4825  144.4868  151.8366 H   0  0  0  0  0  0  0  0  0  0  0  0  # atno 10167 bound_to 10162
  157.2226  130.6986  149.6277 H   0  0  0  0  0  0  0  0  0  0  0  0  # atno 10718 bound_to 10713
  153.0117  135.5340  154.6741 H   0  0  0  0  0  0  0  0  0  0  0  0  # atno 10763 bound_to 10752
  154.5918  135.2859  155.0630 H   0  0  0  0  0  0  0  0  0  0  0  0  # atno 10764 bound_to 10752
  154.1720  135.6530  153.5064 H   0  0  0  0  0  0  0  0  0  0  0  0  # atno 10765 bound_to 10752
  140.2901  134.2874  155.7778 H   0  0  0  0  0  0  0  0  0  0  0  0  # atno 11005 bound_to 11000
  145.0227  140.8807  143.5157 LP  0  0  0  0  0  0  0  0  0  0  0  0  # atno 17320 bound_to 7965
  145.1486  139.2528  143.5453 LP  0  0  0  0  0  0  0  0  0  0  0  0  # atno 17321 bound_to 7965
  140.4348  144.2066  150.5889 LP  0  0  0  0  0  0  0  0  0  0  0  0  # atno 17342 bound_to 10162
  140.4742  143.2402  151.9046 LP  0  0  0  0  0  0  0  0  0  0  0  0  # atno 17343 bound_to 10162
  155.9681  130.4515  150.5737 LP  0  0  0  0  0  0  0  0  0  0  0  0  # atno 17370 bound_to 10713
  157.3560  131.0741  151.1675 LP  0  0  0  0  0  0  0  0  0  0  0  0  # atno 17371 bound_to 10713
  141.2148  133.7580  156.9611 LP  0  0  0  0  0  0  0  0  0  0  0  0  # atno 17394 bound_to 11000
  140.1203  134.9421  157.2194 LP  0  0  0  0  0  0  0  0  0  0  0  0  # atno 17395 bound_to 11000

$$$$
