AV-unprocessed.smi:210|AV-procd|sdf|1612|dock3
  -GOLD-   2262019533D 1   1.00000     0.00000
 Structure written by MMmdl.
 57 61  0  0  0  0  0  0  0  0  1 V2000
  152.7482  143.0138  162.1754 C   0  0  0  0  0  0  0  0  0  0  0  0
  151.9329  142.3062  161.2578 O   0  0  0  0  0  0  0  0  0  0  0  0
  152.5975  142.0256  160.0361 C   0  0  1  0  0  0  0  0  0  0  0  0
  152.1282  140.7080  159.4139 C   0  0  0  0  0  0  0  0  0  0  0  0
  152.2921  141.3925  158.0466 C   0  0  1  0  0  0  0  0  0  0  0  0
  151.2805  141.0122  157.0555 N   0  0  0  0  0  0  0  0  0  0  0  0
  150.8270  142.0570  156.1444 C   0  0  0  0  0  0  0  0  0  0  0  0
  151.4822  139.8485  156.3900 C   0  0  0  0  0  0  0  0  0  0  0  0
  152.5045  139.7370  155.4995 N   0  0  0  0  0  0  0  0  0  0  0  0
  152.6881  138.5959  154.8285 C   0  0  0  0  0  0  0  0  0  0  0  0
  151.9797  137.4665  154.8923 N   0  0  0  0  0  0  0  0  0  0  0  0
  150.9530  137.5747  155.7840 C   0  0  0  0  0  0  0  0  0  0  0  0
  150.6324  138.7222  156.5621 C   0  0  0  0  0  0  0  0  0  0  0  0
  149.5131  138.4686  157.3453 N   0  0  0  0  0  0  0  0  0  0  0  0
  149.1852  137.2424  157.0404 C   0  0  0  0  0  0  0  0  0  0  0  0
  150.0120  136.6210  156.1310 N   0  0  0  0  0  0  0  0  0  0  0  0
  149.8622  135.3010  155.5919 C   0  0  0  0  0  0  0  0  0  0  0  0
  148.8043  134.3322  156.1319 C   0  0  0  0  0  0  0  0  0  0  0  0
  149.7537  133.1495  155.8296 C   0  0  0  0  0  0  0  0  0  0  0  0
  149.7859  132.0071  156.8644 C   0  0  0  0  0  0  0  0  0  0  0  0
  149.8899  132.4790  158.1928 O   0  0  0  0  0  0  0  0  0  0  0  0
  149.5355  132.5050  154.4472 C   0  0  0  0  0  0  0  0  0  0  0  0
  148.3260  131.7752  154.3990 O   0  0  0  0  0  0  0  0  0  0  0  0
  150.8842  134.2025  155.8992 C   0  0  0  0  0  0  0  0  0  0  0  0
  152.0308  142.7293  158.7819 C   0  0  0  0  0  0  0  0  0  0  0  0
  152.6330  144.0505  158.2880 C   0  0  0  0  0  0  0  0  0  0  0  0
  151.3286  144.7649  158.6591 C   0  0  0  0  0  0  0  0  0  0  0  0
  150.6434  143.4041  158.8187 C   0  0  0  0  0  0  0  0  0  0  0  0
  152.1783  143.2330  163.0781 H   0  0  0  0  0  0  0  0  0  0  0  0
  153.0955  143.9588  161.7593 H   0  0  0  0  0  0  0  0  0  0  0  0
  153.6177  142.4215  162.4629 H   0  0  0  0  0  0  0  0  0  0  0  0
  153.6874  142.0666  160.1021 H   0  0  0  0  0  0  0  0  0  0  0  0
  152.7930  139.8612  159.5853 H   0  0  0  0  0  0  0  0  0  0  0  0
  151.0923  140.4657  159.6600 H   0  0  0  0  0  0  0  0  0  0  0  0
  153.3182  141.3270  157.6793 H   0  0  0  0  0  0  0  0  0  0  0  0
  149.9507  141.7396  155.5784 H   0  0  0  0  0  0  0  0  0  0  0  0
  151.6160  142.3153  155.4370 H   0  0  0  0  0  0  0  0  0  0  0  0
  150.5531  142.9606  156.6865 H   0  0  0  0  0  0  0  0  0  0  0  0
  153.5215  138.5866  154.1416 H   0  0  0  0  0  0  0  0  0  0  0  0
  148.3270  136.7541  157.4791 H   0  0  0  0  0  0  0  0  0  0  0  0
  149.7520  135.4306  154.5140 H   0  0  0  0  0  0  0  0  0  0  0  0
  148.6119  134.4808  157.1957 H   0  0  0  0  0  0  0  0  0  0  0  0
  147.8707  134.3258  155.5682 H   0  0  0  0  0  0  0  0  0  0  0  0
  148.8846  131.3969  156.7965 H   0  0  0  0  0  0  0  0  0  0  0  0
  150.6307  131.3409  156.6874 H   0  0  0  0  0  0  0  0  0  0  0  0
  149.1223  132.2033  158.6703 H   0  0  0  0  0  0  0  0  0  0  0  0
  149.5206  133.2601  153.6606 H   0  0  0  0  0  0  0  0  0  0  0  0
  150.3460  131.8204  154.1956 H   0  0  0  0  0  0  0  0  0  0  0  0
  148.1274  131.5810  153.4956 H   0  0  0  0  0  0  0  0  0  0  0  0
  151.6650  134.0943  155.1457 H   0  0  0  0  0  0  0  0  0  0  0  0
  151.3206  134.3114  156.8937 H   0  0  0  0  0  0  0  0  0  0  0  0
  153.5025  144.3869  158.8537 H   0  0  0  0  0  0  0  0  0  0  0  0
  152.8285  144.0566  157.2154 H   0  0  0  0  0  0  0  0  0  0  0  0
  151.3962  145.3187  159.5957 H   0  0  0  0  0  0  0  0  0  0  0  0
  150.9151  145.3807  157.8598 H   0  0  0  0  0  0  0  0  0  0  0  0
  150.0039  143.1664  157.9692 H   0  0  0  0  0  0  0  0  0  0  0  0
  150.1005  143.2897  159.7569 H   0  0  0  0  0  0  0  0  0  0  0  0
  1  2  1  0  0  0  0
  1 29  1  0  0  0  0
  1 30  1  0  0  0  0
  1 31  1  0  0  0  0
  2  3  1  0  0  0  0
  3 25  1  0  0  0  0
  3  4  1  0  0  0  0
  3 32  1  0  0  0  0
  4  5  1  0  0  0  0
  4 33  1  0  0  0  0
  4 34  1  0  0  0  0
  5  6  1  0  0  0  0
  5 25  1  0  0  0  0
  5 35  1  0  0  0  0
  6  7  1  0  0  0  0
  6  8  1  0  0  0  0
  7 36  1  0  0  0  0
  7 37  1  0  0  0  0
  7 38  1  0  0  0  0
  8 13  1  0  0  0  0
  8  9  2  0  0  0  0
  9 10  1  0  0  0  0
 10 11  2  0  0  0  0
 10 39  1  0  0  0  0
 11 12  1  0  0  0  0
 12 16  1  0  0  0  0
 12 13  2  0  0  0  0
 13 14  1  0  0  0  0
 14 15  2  0  0  0  0
 15 16  1  0  0  0  0
 15 40  1  0  0  0  0
 16 17  1  0  0  0  0
 17 24  1  0  0  0  0
 17 18  1  0  0  0  0
 17 41  1  0  0  0  0
 18 19  1  0  0  0  0
 18 42  1  0  0  0  0
 18 43  1  0  0  0  0
 19 20  1  0  0  0  0
 19 22  1  0  0  0  0
 19 24  1  0  0  0  0
 20 21  1  0  0  0  0
 20 44  1  0  0  0  0
 20 45  1  0  0  0  0
 21 46  1  0  0  0  0
 22 23  1  0  0  0  0
 22 47  1  0  0  0  0
 22 48  1  0  0  0  0
 23 49  1  0  0  0  0
 24 50  1  0  0  0  0
 24 51  1  0  0  0  0
 25 28  1  0  0  0  0
 25 26  1  0  0  0  0
 26 27  1  0  0  0  0
 26 52  1  0  0  0  0
 26 53  1  0  0  0  0
 27 28  1  0  0  0  0
 27 54  1  0  0  0  0
 27 55  1  0  0  0  0
 28 56  1  0  0  0  0
 28 57  1  0  0  0  0
M  END
> <s_m_source_file>
AV-unprocessed.smi

> <i_m_source_file_index>
210

> <i_lp_mmshare_version>
43012

> <i_f3d_flags>
0

> <s_epik_input>
W0NIMl0xW0NIMl1bQ0gyXUMxMltDQEhdKE9bQ0gzXSlbQ0gyXVtDQEhdMk4oW0NIM10pYyhuW2NIXW4zKWMoYzM0KW5bY0hdbjRbQ0hdKFtDSDJdNSlbQ0gyXUM1KFtDSDJdW09IXSlbQ0gyXVtPSF0=

> <s_epik_cmdline>
J2VwaWtfcHl0aG9uJywgJy1waCcsICc3LjAnLCAnLXRuJywgJzgnLCAnLW1hJywgJzIwMCcsICctbWV0YWxfYmluZGluZycsICctaW1hZScsICc8aW5maWxlLm1hZT4nLCAnLW9tYWUnLCAnPG91dGZpbGUubWFlPic=

> <r_lp_tautomer_probability>
1

> <r_epik_Ionization_Penalty>
0.00313676

> <r_epik_Ionization_Penalty_Charging>
0

> <r_epik_Ionization_Penalty_Neutral>
0.00313676

> <r_epik_State_Penalty>
0.00199132

> <r_epik_Charging_Adjusted_Penalty>
0.00199132

> <i_epik_Tot_Q>
0

> <i_epik_Tot_abs_Q>
0

> <r_epik_Metal_State_Penalty>
-0

> <b_epik_Metal_Only>
0

> <s_lp_Force_Field>
OPLS_2005

> <r_lp_Energy>
61.2051

> <b_lp_Chiralities_Consistent>
1

> <s_lp_Variant>
AV-unprocessed.smi:210-2

> <Gold.Version>
5.8.1

> <Gold.Id.Protein>
6NUR|6NUR_protein|mol2

> <Gold.PLP.Fitness>
55.9587

> <Gold.PLP.PLP>
-48.4656

> <Gold.PLP.part.hbond>
-4.5790

> <Gold.PLP.part.metal>
0.0000

> <Gold.PLP.part.buried>
-8.8616

> <Gold.PLP.part.nonpolar>
-35.8057

> <Gold.PLP.part.repulsive>
0.1756

> <Gold.PLP.ligand.clash>
0.0000

> <Gold.PLP.ligand.torsion>
1.3624

> <Gold.PLP.Chemscore.Hbond>
2.9991

> <Gold.PLP.Chemscore.CHOScore>
0.0000

> <Gold.PLP.Chemscore.Metal>
0.0000

> <Gold.Chemscore.Hbonds>
donor molecule, donor type, donor heavy atom, donor atom, acceptor molecule, acceptor atom, score
      P1  H  6896  6907       L1    21  1.00
      P1  H  6933  6945       L1     2  0.33
      P1  H  7997  8009       L1     9  1.00
      P1  H 10752 10765       L1    11  0.70

> <Gold.PLP.Chemscore.Internal.Correction>
1.2204

> <Gold.Rescore>
     Score         DG    S(hbond)    S(metal)    S(lipo)     H(rot)  DE(clash)    DE(int)     intcor
     17.51     -20.19       2.92        0.00     120.34       3.57       0.14       2.53       ----

> <Gold.Chemscore.Fitness>
17.5117

> <Gold.Chemscore.DG>
-20.1867

> <Gold.Chemscore.ZeroCoef>
-5.4800

> <Gold.Chemscore.Hbond>
2.9249

> <Gold.Chemscore.Metal>
0.0000

> <Gold.Chemscore.Lipo>
120.3419

> <Gold.Chemscore.Internal_Hbond>
0.0000

> <Gold.Chemscore.DEClash>
0.1401

> <Gold.Chemscore.DEInternal>
2.5349

> <Gold.Chemscore.Rot>
3.5712

> <Gold.Chemscore.Internal.Correction>
   9.000000E+99

> <Gold.Chemscore.Hbonds>
donor molecule, donor type, donor heavy atom, donor atom, acceptor molecule, acceptor atom, score
      P1  H  6896  6907       L1    21  0.87
      P1  H  6933  6945       L1     2  0.24
      P1  H  7997  8009       L1     9  0.35
      P1  H 10752 10765       L1    11  0.65

> <Gold.Chemscore.Hbond.Weighted>
-9.7690

> <Gold.Chemscore.Metal.Weighted>
-0.0000

> <Gold.Chemscore.Lipo.Weighted>
-14.0800

> <Gold.Chemscore.Internal_Hbond.Weighted>
0.0000

> <Gold.Chemscore.DEClash.Weighted>
0.1401

> <Gold.Chemscore.DEInternal.Weighted>
2.5349

> <Gold.Chemscore.Rot.Weighted>
9.1423

> <Gold.Chemscore.Internal.Correction.Weighted>
   9.000000E+99

> <Gold.Protein.RotatedTorsions>
[ 6907 6896 6895 6894 ] final -156.24 input  -60.11 | X-H torsion
[ 7974 7965 7964 7962 ] final  -55.26 input  175.53 | X-H torsion
[ 8008 7997 7996 7995 ] final -154.91 input   59.86 | X-H torsion
[ 10167 10162 10161 10158 ] final  179.52 input  -65.29 | X-H torsion
[ 10718 10713 10712 10709 ] final   23.77 input   66.30 | X-H torsion
[ 10763 10752 10751 10750 ] final  168.27 input  -60.55 | X-H torsion
[ 11005 11000 10999 10996 ] final   41.53 input  -57.11 | X-H torsion

> <Gold.Protein.ActiveResidues>
 VAL166  LYS551  ARG553  GLY616  TRP617  ASP618  TYR619  PRO620  LYS621  CYS622 
 ASP623  PHE694  ASN695  SER759  ASP760  ASP761  ALA762  ILE779  LEU786  VAL792 
 PHE793  MET794  SER795  GLU796  ALA797  LYS798  CYS799  TRP800  GLU811  SER814 

> <Gold.Protein.RotatedAtoms>
  151.2846  133.4193  159.2628 H   0  0  0  0  0  0  0  0  0  0  0  0  # atno 6907 bound_to 6896
  151.0330  134.9553  159.8131 H   0  0  0  0  0  0  0  0  0  0  0  0  # atno 6908 bound_to 6896
  152.5349  134.2807  159.9059 H   0  0  0  0  0  0  0  0  0  0  0  0  # atno 6909 bound_to 6896
  145.8762  140.8179  142.9863 H   0  0  0  0  0  0  0  0  0  0  0  0  # atno 7974 bound_to 7965
  155.6937  140.0758  157.2438 H   0  0  0  0  0  0  0  0  0  0  0  0  # atno 8008 bound_to 7997
  154.4084  140.1660  156.2167 H   0  0  0  0  0  0  0  0  0  0  0  0  # atno 8009 bound_to 7997
  155.9429  140.3383  155.6346 H   0  0  0  0  0  0  0  0  0  0  0  0  # atno 8010 bound_to 7997
  139.5340  144.2551  152.0753 H   0  0  0  0  0  0  0  0  0  0  0  0  # atno 10167 bound_to 10162
  157.1707  130.6758  149.6077 H   0  0  0  0  0  0  0  0  0  0  0  0  # atno 10718 bound_to 10713
  154.3662  135.2753  155.2292 H   0  0  0  0  0  0  0  0  0  0  0  0  # atno 10763 bound_to 10752
  154.4459  135.5943  153.6163 H   0  0  0  0  0  0  0  0  0  0  0  0  # atno 10764 bound_to 10752
  152.9840  135.6030  154.3888 H   0  0  0  0  0  0  0  0  0  0  0  0  # atno 10765 bound_to 10752
  140.1826  134.4085  155.8191 H   0  0  0  0  0  0  0  0  0  0  0  0  # atno 11005 bound_to 11000
  144.6726  140.1313  143.7443 LP  0  0  0  0  0  0  0  0  0  0  0  0  # atno 17320 bound_to 7965
  145.9078  139.2469  143.1455 LP  0  0  0  0  0  0  0  0  0  0  0  0  # atno 17321 bound_to 7965
  140.2018  144.4650  150.6427 LP  0  0  0  0  0  0  0  0  0  0  0  0  # atno 17342 bound_to 10162
  140.6536  143.2231  151.6021 LP  0  0  0  0  0  0  0  0  0  0  0  0  # atno 17343 bound_to 10162
  155.9739  130.4680  150.6345 LP  0  0  0  0  0  0  0  0  0  0  0  0  # atno 17370 bound_to 10713
  157.4046  131.0815  151.1277 LP  0  0  0  0  0  0  0  0  0  0  0  0  # atno 17371 bound_to 10713
  141.2223  133.7007  156.7957 LP  0  0  0  0  0  0  0  0  0  0  0  0  # atno 17394 bound_to 11000
  140.2250  134.8728  157.3417 LP  0  0  0  0  0  0  0  0  0  0  0  0  # atno 17395 bound_to 11000

$$$$
