AV-unprocessed.smi:1801|AV-procd|sdf|7270|dock8
  -GOLD-   22720 8523D 1   1.00000     0.00000
 Structure written by MMmdl.
 37 38  0  0  0  0  0  0  0  0  3 V2000
  150.0791  140.3043  155.2834 C   0  0  0  0  0  0  0  0  0  0  0  0
  150.2289  141.0052  156.6439 C   0  0  1  0  0  0  0  0  0  0  0  0
  150.6099  139.9780  157.7338 C   0  0  0  0  0  0  0  0  0  0  0  0
  149.5909  138.9487  157.9224 N   0  0  0  0  0  0  0  0  0  0  0  0
  149.5915  138.0007  158.8703 C   0  0  0  0  0  0  0  0  0  0  0  0
  150.4908  137.9730  159.7131 O   0  0  0  0  0  0  0  0  0  0  0  0
  148.5573  137.1361  158.7727 N   0  5  0  0  0  0  0  0  0  0  0  0
  148.0190  136.6052  159.8831 C   0  0  0  0  0  0  0  0  0  0  0  0
  147.9644  137.2750  161.0454 N   0  0  0  0  0  0  0  0  0  0  0  0
  147.3645  136.5497  162.0658 N   0  0  0  0  0  0  0  0  0  0  0  0
  146.9732  135.3480  161.6425 C   0  0  0  0  0  0  0  0  0  0  0  0
  147.3000  134.9940  159.9589 S   0  0  0  0  0  0  0  0  0  0  0  0
  151.2376  142.1756  156.5655 C   0  0  0  0  0  0  0  0  0  0  0  0
  150.8486  143.3144  157.4301 N   0  3  0  0  0  0  0  0  0  0  0  0
  150.5362  142.9576  158.8364 C   0  0  0  0  0  0  0  0  0  0  0  0
  151.2366  143.9928  159.7257 C   0  0  0  0  0  0  0  0  0  0  0  0
  151.5840  145.1361  158.7780 C   0  0  0  0  0  0  0  0  0  0  0  0
  151.8347  144.4137  157.4588 C   0  0  0  0  0  0  0  0  0  0  0  0
  151.0238  139.8710  154.9536 H   0  0  0  0  0  0  0  0  0  0  0  0
  149.7426  140.9969  154.5117 H   0  0  0  0  0  0  0  0  0  0  0  0
  149.3464  139.4984  155.3374 H   0  0  0  0  0  0  0  0  0  0  0  0
  149.2496  141.4060  156.9062 H   0  0  0  0  0  0  0  0  0  0  0  0
  151.5608  139.5000  157.4923 H   0  0  0  0  0  0  0  0  0  0  0  0
  150.7544  140.4844  158.6886 H   0  0  0  0  0  0  0  0  0  0  0  0
  148.8246  138.9405  157.2651 H   0  0  0  0  0  0  0  0  0  0  0  0
  146.4874  134.6669  162.3249 H   0  0  0  0  0  0  0  0  0  0  0  0
  152.2409  141.8601  156.8551 H   0  0  0  0  0  0  0  0  0  0  0  0
  151.3126  142.5161  155.5317 H   0  0  0  0  0  0  0  0  0  0  0  0
  149.4548  142.9949  158.9711 H   0  0  0  0  0  0  0  0  0  0  0  0
  150.8652  141.9490  159.0925 H   0  0  0  0  0  0  0  0  0  0  0  0
  150.6199  144.3136  160.5658 H   0  0  0  0  0  0  0  0  0  0  0  0
  152.1541  143.5646  160.1316 H   0  0  0  0  0  0  0  0  0  0  0  0
  150.7322  145.8104  158.6782 H   0  0  0  0  0  0  0  0  0  0  0  0
  152.4417  145.7204  159.1128 H   0  0  0  0  0  0  0  0  0  0  0  0
  152.8459  144.0029  157.4544 H   0  0  0  0  0  0  0  0  0  0  0  0
  151.7320  145.0689  156.5936 H   0  0  0  0  0  0  0  0  0  0  0  0
  150.0030  143.7084  157.0428 H   0  0  0  0  0  0  0  0  0  0  0  0
  1  2  1  0  0  0  0
  1 19  1  0  0  0  0
  1 20  1  0  0  0  0
  1 21  1  0  0  0  0
  2  3  1  0  0  0  0
  2 13  1  0  0  0  0
  2 22  1  0  0  0  0
  3  4  1  0  0  0  0
  3 23  1  0  0  0  0
  3 24  1  0  0  0  0
  4  5  1  0  0  0  0
  4 25  1  0  0  0  0
  5  6  2  0  0  0  0
  5  7  1  0  0  0  0
  7  8  1  0  0  0  0
  8 12  1  0  0  0  0
  8  9  2  0  0  0  0
  9 10  1  0  0  0  0
 10 11  2  0  0  0  0
 11 12  1  0  0  0  0
 11 26  1  0  0  0  0
 13 14  1  0  0  0  0
 13 27  1  0  0  0  0
 13 28  1  0  0  0  0
 14 18  1  0  0  0  0
 14 15  1  0  0  0  0
 14 37  1  0  0  0  0
 15 16  1  0  0  0  0
 15 29  1  0  0  0  0
 15 30  1  0  0  0  0
 16 17  1  0  0  0  0
 16 31  1  0  0  0  0
 16 32  1  0  0  0  0
 17 18  1  0  0  0  0
 17 33  1  0  0  0  0
 17 34  1  0  0  0  0
 18 35  1  0  0  0  0
 18 36  1  0  0  0  0
M  CHG  1   7  -1
M  CHG  1  14   1
M  END
> <s_m_source_file>
AV-unprocessed.smi

> <i_m_source_file_index>
1801

> <i_lp_mmshare_version>
43012

> <i_f3d_flags>
0

> <s_epik_input>
W0NIMl0xW0NIMl1bQ0gyXVtDSDJdTjFbQ0gyXVtDQEhdKFtDSDNdKVtDSDJdW05IXUMoPU8pW05IXWMybm5bY0hdczI=

> <s_epik_cmdline>
J2VwaWtfcHl0aG9uJywgJy1waCcsICc3LjAnLCAnLXRuJywgJzgnLCAnLW1hJywgJzIwMCcsICctbWV0YWxfYmluZGluZycsICctaW1hZScsICc8aW5maWxlLm1hZT4nLCAnLW9tYWUnLCAnPG91dGZpbGUubWFlPic=

> <r_lp_tautomer_probability>
1

> <r_epik_Ionization_Penalty>
3.29721

> <r_epik_Ionization_Penalty_Charging>
3.25987

> <r_epik_Ionization_Penalty_Neutral>
0.0373399

> <r_epik_State_Penalty>
3.2571

> <r_epik_Charging_Adjusted_Penalty>
6.51697

> <i_epik_Tot_Q>
0

> <i_epik_Tot_abs_Q>
2

> <r_epik_Metal_State_Penalty>
0.477553

> <b_epik_Metal_Only>
1

> <s_lp_Force_Field>
OPLS_2005

> <r_lp_Energy>
22.4804

> <b_lp_Chiralities_Consistent>
1

> <s_lp_Variant>
AV-unprocessed.smi:1801-4

> <Gold.Version>
5.8.1

> <Gold.Id.Protein>
6NUR|6NUR_protein|mol2

> <Gold.PLP.Fitness>
41.4516

> <Gold.PLP.PLP>
-32.1314

> <Gold.PLP.part.hbond>
-4.0364

> <Gold.PLP.part.metal>
0.0000

> <Gold.PLP.part.buried>
-5.9364

> <Gold.PLP.part.nonpolar>
-22.3742

> <Gold.PLP.part.repulsive>
0.1155

> <Gold.PLP.ligand.clash>
0.0000

> <Gold.PLP.ligand.torsion>
0.9354

> <Gold.PLP.Chemscore.Hbond>
3.6465

> <Gold.PLP.Chemscore.CHOScore>
0.0000

> <Gold.PLP.Chemscore.Metal>
0.0000

> <Gold.Chemscore.Hbonds>
donor molecule, donor type, donor heavy atom, donor atom, acceptor molecule, acceptor atom, score
      L1  H    14    37       P1  8028  1.98
      P1  H  6931  6943       L1     9  0.91
      P1  H  6934  6947       L1     9  0.72

> <Gold.PLP.Chemscore.Internal.Correction>
0.2516

> <Gold.Rescore>
     Score         DG    S(hbond)    S(metal)    S(lipo)     H(rot)  DE(clash)    DE(int)     intcor
     12.73     -15.04       1.66        0.00      76.33       1.93       0.03       2.28       ----

> <Gold.Chemscore.Fitness>
12.7311

> <Gold.Chemscore.DG>
-15.0373

> <Gold.Chemscore.ZeroCoef>
-5.4800

> <Gold.Chemscore.Hbond>
1.6644

> <Gold.Chemscore.Metal>
0.0000

> <Gold.Chemscore.Lipo>
76.3258

> <Gold.Chemscore.Internal_Hbond>
0.0000

> <Gold.Chemscore.DEClash>
0.0272

> <Gold.Chemscore.DEInternal>
2.2790

> <Gold.Chemscore.Rot>
1.9266

> <Gold.Chemscore.Internal.Correction>
   9.000000E+99

> <Gold.Chemscore.Hbonds>
donor molecule, donor type, donor heavy atom, donor atom, acceptor molecule, acceptor atom, score
      L1  H    14    37       P1  8028  0.89
      P1  H  6931  6943       L1     9  0.31
      P1  H  6934  6947       L1     9  0.48

> <Gold.Chemscore.Hbond.Weighted>
-5.5592

> <Gold.Chemscore.Metal.Weighted>
-0.0000

> <Gold.Chemscore.Lipo.Weighted>
-8.9301

> <Gold.Chemscore.Internal_Hbond.Weighted>
0.0000

> <Gold.Chemscore.DEClash.Weighted>
0.0272

> <Gold.Chemscore.DEInternal.Weighted>
2.2790

> <Gold.Chemscore.Rot.Weighted>
4.9321

> <Gold.Chemscore.Internal.Correction.Weighted>
   9.000000E+99

> <Gold.Protein.RotatedTorsions>
[ 6907 6896 6895 6894 ] final   52.54 input  -60.11 | X-H torsion
[ 7974 7965 7964 7962 ] final -108.62 input  175.53 | X-H torsion
[ 8008 7997 7996 7995 ] final -116.09 input   59.86 | X-H torsion
[ 10167 10162 10161 10158 ] final   55.29 input  -65.29 | X-H torsion
[ 10718 10713 10712 10709 ] final   43.58 input   66.30 | X-H torsion
[ 10763 10752 10751 10750 ] final  135.65 input  -60.55 | X-H torsion
[ 11005 11000 10999 10996 ] final  -85.91 input  -57.11 | X-H torsion

> <Gold.Protein.ActiveResidues>
 VAL166  LYS551  ARG553  GLY616  TRP617  ASP618  TYR619  PRO620  LYS621  CYS622 
 ASP623  PHE694  ASN695  SER759  ASP760  ASP761  ALA762  ILE779  LEU786  VAL792 
 PHE793  MET794  SER795  GLU796  ALA797  LYS798  CYS799  TRP800  GLU811  SER814 

> <Gold.Protein.RotatedAtoms>
  152.3243  134.7340  160.0305 H   0  0  0  0  0  0  0  0  0  0  0  0  # atno 6907 bound_to 6896
  151.7778  133.3341  159.3471 H   0  0  0  0  0  0  0  0  0  0  0  0  # atno 6908 bound_to 6896
  150.7387  134.5890  159.6022 H   0  0  0  0  0  0  0  0  0  0  0  0  # atno 6909 bound_to 6896
  145.1907  140.9013  143.3426 H   0  0  0  0  0  0  0  0  0  0  0  0  # atno 7974 bound_to 7965
  155.0624  140.0393  157.2581 H   0  0  0  0  0  0  0  0  0  0  0  0  # atno 8008 bound_to 7997
  154.7049  140.2681  155.6660 H   0  0  0  0  0  0  0  0  0  0  0  0  # atno 8009 bound_to 7997
  156.2772  140.2733  156.1671 H   0  0  0  0  0  0  0  0  0  0  0  0  # atno 8010 bound_to 7997
  140.2210  144.3788  150.6450 H   0  0  0  0  0  0  0  0  0  0  0  0  # atno 10167 bound_to 10162
  157.4175  130.7949  149.7485 H   0  0  0  0  0  0  0  0  0  0  0  0  # atno 10718 bound_to 10713
  153.8435  135.3088  155.3428 H   0  0  0  0  0  0  0  0  0  0  0  0  # atno 10763 bound_to 10752
  154.7922  135.4776  154.0083 H   0  0  0  0  0  0  0  0  0  0  0  0  # atno 10764 bound_to 10752
  153.1561  135.6852  153.8902 H   0  0  0  0  0  0  0  0  0  0  0  0  # atno 10765 bound_to 10752
  141.1636  133.7425  156.9084 H   0  0  0  0  0  0  0  0  0  0  0  0  # atno 11005 bound_to 11000
  145.0044  139.3568  143.6151 LP  0  0  0  0  0  0  0  0  0  0  0  0  # atno 17320 bound_to 7965
  146.3437  139.9281  142.8757 LP  0  0  0  0  0  0  0  0  0  0  0  0  # atno 17321 bound_to 7965
  140.6255  143.2181  151.6606 LP  0  0  0  0  0  0  0  0  0  0  0  0  # atno 17342 bound_to 10162
  139.5144  144.3411  152.0739 LP  0  0  0  0  0  0  0  0  0  0  0  0  # atno 17343 bound_to 10162
  155.9870  130.3970  150.3187 LP  0  0  0  0  0  0  0  0  0  0  0  0  # atno 17370 bound_to 10713
  157.1332  131.0277  151.2960 LP  0  0  0  0  0  0  0  0  0  0  0  0  # atno 17371 bound_to 10713
  140.1534  134.9215  157.2622 LP  0  0  0  0  0  0  0  0  0  0  0  0  # atno 17394 bound_to 11000
  140.2696  134.3475  155.7378 LP  0  0  0  0  0  0  0  0  0  0  0  0  # atno 17395 bound_to 11000

$$$$
