AV-unprocessed.smi:3185|AV-procd|sdf|12171|dock5
  -GOLD-   2272018 13D 1   1.00000     0.00000
 Structure written by MMmdl.
 37 38  0  0  0  0  0  0  0  0  1 V2000
  152.3736  143.1756  161.8067 N   0  0  0  0  0  0  0  0  0  0  0  0
  152.0532  143.7509  160.8556 C   0  0  0  0  0  0  0  0  0  0  0  0
  151.6461  144.4823  159.6467 C   0  0  0  0  0  0  0  0  0  0  0  0
  151.8602  143.6703  158.3650 C   0  0  0  0  0  0  0  0  0  0  0  0
  150.6360  142.8181  158.0125 C   0  0  0  0  0  0  0  0  0  0  0  0
  150.6941  142.4456  156.6073 N   0  0  0  0  0  0  0  0  0  0  0  0
  150.6354  141.0003  156.4079 C   0  0  2  0  0  0  0  0  0  0  0  0
  151.4654  140.6502  155.1567 C   0  0  0  0  0  0  0  0  0  0  0  0
  151.4606  139.1371  154.8932 C   0  0  0  0  0  0  0  0  0  0  0  0
  150.0312  138.5964  154.7430 C   0  0  0  0  0  0  0  0  0  0  0  0
  149.1621  138.9539  155.9635 C   0  0  0  0  0  0  0  0  0  0  0  0
  149.1772  140.4580  156.3287 C   0  0  2  0  0  0  0  0  0  0  0  0
  148.2858  141.2579  155.4846 N   0  0  0  0  0  0  0  0  0  0  0  0
  148.3601  141.4264  154.1160 C   0  0  0  0  0  0  0  0  0  0  0  0
  147.3246  142.2319  153.7387 C   0  0  0  0  0  0  0  0  0  0  0  0
  146.6556  142.5122  154.9612 C   0  0  0  0  0  0  0  0  0  0  0  0
  147.2292  141.9273  155.9989 N   0  0  0  0  0  0  0  0  0  0  0  0
  150.5950  144.7507  159.7569 H   0  0  0  0  0  0  0  0  0  0  0  0
  152.2167  145.4106  159.6099 H   0  0  0  0  0  0  0  0  0  0  0  0
  152.0859  144.3494  157.5417 H   0  0  0  0  0  0  0  0  0  0  0  0
  152.7337  143.0277  158.4869 H   0  0  0  0  0  0  0  0  0  0  0  0
  150.6142  141.9198  158.6307 H   0  0  0  0  0  0  0  0  0  0  0  0
  149.7273  143.3825  158.2195 H   0  0  0  0  0  0  0  0  0  0  0  0
  149.9474  142.8912  156.0925 H   0  0  0  0  0  0  0  0  0  0  0  0
  151.1297  140.5250  157.2565 H   0  0  0  0  0  0  0  0  0  0  0  0
  151.0903  141.1783  154.2800 H   0  0  0  0  0  0  0  0  0  0  0  0
  152.4943  140.9861  155.2917 H   0  0  0  0  0  0  0  0  0  0  0  0
  152.0376  138.9147  153.9953 H   0  0  0  0  0  0  0  0  0  0  0  0
  151.9596  138.6234  155.7159 H   0  0  0  0  0  0  0  0  0  0  0  0
  149.5851  138.9842  153.8281 H   0  0  0  0  0  0  0  0  0  0  0  0
  150.0611  137.5134  154.6213 H   0  0  0  0  0  0  0  0  0  0  0  0
  148.1378  138.6151  155.8041 H   0  0  0  0  0  0  0  0  0  0  0  0
  149.5322  138.3883  156.8196 H   0  0  0  0  0  0  0  0  0  0  0  0
  148.7565  140.5166  157.3332 H   0  0  0  0  0  0  0  0  0  0  0  0
  149.1361  140.9598  153.5274 H   0  0  0  0  0  0  0  0  0  0  0  0
  147.0815  142.5676  152.7417 H   0  0  0  0  0  0  0  0  0  0  0  0
  145.7757  143.1168  155.1244 H   0  0  0  0  0  0  0  0  0  0  0  0
  1  2  3  0  0  0  0
  2  3  1  0  0  0  0
  3  4  1  0  0  0  0
  3 18  1  0  0  0  0
  3 19  1  0  0  0  0
  4  5  1  0  0  0  0
  4 20  1  0  0  0  0
  4 21  1  0  0  0  0
  5  6  1  0  0  0  0
  5 22  1  0  0  0  0
  5 23  1  0  0  0  0
  6  7  1  0  0  0  0
  6 24  1  0  0  0  0
  7 12  1  0  0  0  0
  7  8  1  0  0  0  0
  7 25  1  0  0  0  0
  8  9  1  0  0  0  0
  8 26  1  0  0  0  0
  8 27  1  0  0  0  0
  9 10  1  0  0  0  0
  9 28  1  0  0  0  0
  9 29  1  0  0  0  0
 10 11  1  0  0  0  0
 10 30  1  0  0  0  0
 10 31  1  0  0  0  0
 11 12  1  0  0  0  0
 11 32  1  0  0  0  0
 11 33  1  0  0  0  0
 12 13  1  0  0  0  0
 12 34  1  0  0  0  0
 13 17  1  0  0  0  0
 13 14  1  0  0  0  0
 14 15  2  0  0  0  0
 14 35  1  0  0  0  0
 15 16  1  0  0  0  0
 15 36  1  0  0  0  0
 16 17  2  0  0  0  0
 16 37  1  0  0  0  0
M  END
> <s_m_source_file>
AV-unprocessed.smi

> <i_m_source_file_index>
3185

> <i_lp_mmshare_version>
43012

> <i_f3d_flags>
0

> <s_epik_input>
TiNDW0NIMl1bQ0gyXVtDSDJdW05IXVtDQEBIXTFbQ0gyXVtDSDJdW0NIMl1bQ0gyXVtDQEhdMW4yW2NIXVtjSF1bY0hdbjI=

> <s_epik_cmdline>
J2VwaWtfcHl0aG9uJywgJy1waCcsICc3LjAnLCAnLXRuJywgJzgnLCAnLW1hJywgJzIwMCcsICctbWV0YWxfYmluZGluZycsICctaW1hZScsICc8aW5maWxlLm1hZT4nLCAnLW9tYWUnLCAnPG91dGZpbGUubWFlPic=

> <r_lp_tautomer_probability>
1

> <r_epik_Ionization_Penalty>
2.21326

> <r_epik_Ionization_Penalty_Charging>
0

> <r_epik_Ionization_Penalty_Neutral>
2.21326

> <r_epik_State_Penalty>
2.35651

> <r_epik_Charging_Adjusted_Penalty>
2.35651

> <i_epik_Tot_Q>
0

> <i_epik_Tot_abs_Q>
0

> <r_epik_Metal_State_Penalty>
2.3555

> <b_epik_Metal_Only>
0

> <s_lp_Force_Field>
OPLS_2005

> <r_lp_Energy>
17.6064

> <b_lp_Chiralities_Consistent>
1

> <s_lp_Variant>
AV-unprocessed.smi:3185-7

> <Gold.Version>
5.8.1

> <Gold.Id.Protein>
6NUR|6NUR_protein|mol2

> <Gold.PLP.Fitness>
35.7239

> <Gold.PLP.PLP>
-32.4581

> <Gold.PLP.part.hbond>
-1.0000

> <Gold.PLP.part.metal>
0.0000

> <Gold.PLP.part.buried>
0.0077

> <Gold.PLP.part.nonpolar>
-30.1196

> <Gold.PLP.part.repulsive>
0.2706

> <Gold.PLP.ligand.clash>
0.0000

> <Gold.PLP.ligand.torsion>
1.0448

> <Gold.PLP.Chemscore.Hbond>
0.7977

> <Gold.PLP.Chemscore.CHOScore>
0.9513

> <Gold.PLP.Chemscore.Metal>
0.0000

> <Gold.Chemscore.Hbonds>
donor molecule, donor type, donor heavy atom, donor atom, acceptor molecule, acceptor atom, score
      L1  H     6    24       P1  8028  0.64
      L1  C    14    35       P1  7957  0.88

> <Gold.PLP.Chemscore.Internal.Correction>
0.1083

> <Gold.Rescore>
     Score         DG    S(hbond)    S(metal)    S(lipo)     H(rot)  DE(clash)    DE(int)     intcor
      9.80     -10.73       0.00        0.00      84.46       1.81       0.13       0.80       ----

> <Gold.Chemscore.Fitness>
9.7967

> <Gold.Chemscore.DG>
-10.7260

> <Gold.Chemscore.ZeroCoef>
-5.4800

> <Gold.Chemscore.Hbond>
0.0000

> <Gold.Chemscore.Metal>
0.0000

> <Gold.Chemscore.Lipo>
84.4637

> <Gold.Chemscore.Internal_Hbond>
0.0000

> <Gold.Chemscore.DEClash>
0.1272

> <Gold.Chemscore.DEInternal>
0.8022

> <Gold.Chemscore.Rot>
1.8110

> <Gold.Chemscore.Internal.Correction>
   9.000000E+99

> <Gold.Chemscore.Hbonds>
donor molecule, donor type, donor heavy atom, donor atom, acceptor molecule, acceptor atom, score
      L1  H     6    24       P1  8028  0.63

> <Gold.Chemscore.Hbond.Weighted>
-0.0000

> <Gold.Chemscore.Metal.Weighted>
-0.0000

> <Gold.Chemscore.Lipo.Weighted>
-9.8823

> <Gold.Chemscore.Internal_Hbond.Weighted>
0.0000

> <Gold.Chemscore.DEClash.Weighted>
0.1272

> <Gold.Chemscore.DEInternal.Weighted>
0.8022

> <Gold.Chemscore.Rot.Weighted>
4.6362

> <Gold.Chemscore.Internal.Correction.Weighted>
   9.000000E+99

> <Gold.Protein.RotatedTorsions>
[ 6907 6896 6895 6894 ] final  152.04 input  -60.11 | X-H torsion
[ 7974 7965 7964 7962 ] final    8.78 input  175.53 | X-H torsion
[ 8008 7997 7996 7995 ] final  172.57 input   59.86 | X-H torsion
[ 10167 10162 10161 10158 ] final   83.57 input  -65.29 | X-H torsion
[ 10718 10713 10712 10709 ] final   17.63 input   66.30 | X-H torsion
[ 10763 10752 10751 10750 ] final -170.84 input  -60.55 | X-H torsion
[ 11005 11000 10999 10996 ] final -114.73 input  -57.11 | X-H torsion

> <Gold.Protein.ActiveResidues>
 VAL166  LYS551  ARG553  GLY616  TRP617  ASP618  TYR619  PRO620  LYS621  CYS622 
 ASP623  PHE694  ASN695  SER759  ASP760  ASP761  ALA762  ILE779  LEU786  VAL792 
 PHE793  MET794  SER795  GLU796  ALA797  LYS798  CYS799  TRP800  GLU811  SER814 

> <Gold.Protein.RotatedAtoms>
  152.0923  133.4207  159.4549 H   0  0  0  0  0  0  0  0  0  0  0  0  # atno 6907 bound_to 6896
  150.6862  134.2857  159.4655 H   0  0  0  0  0  0  0  0  0  0  0  0  # atno 6908 bound_to 6896
  152.0709  134.9533  160.0625 H   0  0  0  0  0  0  0  0  0  0  0  0  # atno 6909 bound_to 6896
  146.2412  139.9882  142.8428 H   0  0  0  0  0  0  0  0  0  0  0  0  # atno 7974 bound_to 7965
  156.1161  140.1482  156.9270 H   0  0  0  0  0  0  0  0  0  0  0  0  # atno 8008 bound_to 7997
  154.4802  140.0882  156.7400 H   0  0  0  0  0  0  0  0  0  0  0  0  # atno 8009 bound_to 7997
  155.4511  140.3435  155.4303 H   0  0  0  0  0  0  0  0  0  0  0  0  # atno 8010 bound_to 7997
  139.9170  144.6236  150.8479 H   0  0  0  0  0  0  0  0  0  0  0  0  # atno 10167 bound_to 10162
  157.0849  130.6403  149.5835 H   0  0  0  0  0  0  0  0  0  0  0  0  # atno 10718 bound_to 10713
  154.6371  135.2894  155.0148 H   0  0  0  0  0  0  0  0  0  0  0  0  # atno 10763 bound_to 10752
  154.1288  135.6536  153.4921 H   0  0  0  0  0  0  0  0  0  0  0  0  # atno 10764 bound_to 10752
  153.0308  135.5305  154.7222 H   0  0  0  0  0  0  0  0  0  0  0  0  # atno 10765 bound_to 10752
  141.0533  133.9652  157.2798 H   0  0  0  0  0  0  0  0  0  0  0  0  # atno 11005 bound_to 11000
  145.1528  140.9632  143.4423 LP  0  0  0  0  0  0  0  0  0  0  0  0  # atno 17320 bound_to 7965
  145.0189  139.3442  143.6082 LP  0  0  0  0  0  0  0  0  0  0  0  0  # atno 17321 bound_to 7965
  140.7671  143.3324  151.2381 LP  0  0  0  0  0  0  0  0  0  0  0  0  # atno 17342 bound_to 10162
  139.6894  143.9718  152.2851 LP  0  0  0  0  0  0  0  0  0  0  0  0  # atno 17343 bound_to 10162
  155.9913  130.4968  150.7295 LP  0  0  0  0  0  0  0  0  0  0  0  0  # atno 17370 bound_to 10713
  157.4770  131.0898  151.0579 LP  0  0  0  0  0  0  0  0  0  0  0  0  # atno 17371 bound_to 10713
  139.9369  135.0195  156.8584 LP  0  0  0  0  0  0  0  0  0  0  0  0  # atno 17394 bound_to 11000
  140.6012  134.0170  155.7538 LP  0  0  0  0  0  0  0  0  0  0  0  0  # atno 17395 bound_to 11000

$$$$
