AV-unprocessed.smi:513|AV-procd|sdf|2772|dock8
  -GOLD-   2262023243D 1   1.00000     0.00000
 Structure written by MMmdl.
 43 45  0  0  0  0  0  0  0  0  2 V2000
  145.9432  143.3173  153.7628 C   0  0  0  0  0  0  0  0  0  0  0  0
  146.1338  142.9991  155.1300 O   0  0  0  0  0  0  0  0  0  0  0  0
  146.7464  141.7347  155.3121 C   0  0  0  0  0  0  0  0  0  0  0  0
  148.1874  141.8064  154.7945 C   0  0  0  0  0  0  0  0  0  0  0  0
  148.8670  140.5205  154.9263 N   0  0  0  0  0  0  0  0  0  0  0  0
  148.5021  139.3102  154.4191 C   0  0  0  0  0  0  0  0  0  0  0  0
  147.3593  139.1410  153.6346 N   0  0  0  0  0  0  0  0  0  0  0  0
  147.0319  139.9914  152.4926 C   0  0  0  0  0  0  0  0  0  0  0  0
  146.6813  139.1514  151.2501 C   0  0  0  0  0  0  0  0  0  0  0  0
  145.5795  138.2122  151.5471 N   0  3  0  0  0  0  0  0  0  0  0  0
  145.8386  137.3919  152.7486 C   0  0  0  0  0  0  0  0  0  0  0  0
  146.2094  138.2916  153.9420 C   0  0  0  0  0  0  0  0  0  0  0  0
  149.2908  138.2950  154.7811 N   0  0  0  0  0  0  0  0  0  0  0  0
  150.2545  138.9090  155.5660 C   0  0  0  0  0  0  0  0  0  0  0  0
  150.0097  140.2393  155.6791 C   0  0  0  0  0  0  0  0  0  0  0  0
  150.8459  141.1237  156.5037 C   0  0  0  0  0  0  0  0  0  0  0  0
  150.6325  142.3259  156.6428 O   0  0  0  0  0  0  0  0  0  0  0  0
  151.8708  140.4755  157.1087 N   0  0  0  0  0  0  0  0  0  0  0  0
  152.1749  139.1442  157.0312 C   0  0  0  0  0  0  0  0  0  0  0  0
  153.1379  138.6968  157.6537 O   0  0  0  0  0  0  0  0  0  0  0  0
  151.3721  138.3522  156.2504 N   0  0  0  0  0  0  0  0  0  0  0  0
  151.6416  136.9179  156.1311 C   0  0  0  0  0  0  0  0  0  0  0  0
  152.4753  141.0380  157.6896 H   0  0  0  0  0  0  0  0  0  0  0  0
  145.4588  144.2900  153.6778 H   0  0  0  0  0  0  0  0  0  0  0  0
  145.3073  142.5804  153.2706 H   0  0  0  0  0  0  0  0  0  0  0  0
  146.8955  143.3677  153.2332 H   0  0  0  0  0  0  0  0  0  0  0  0
  146.7388  141.4587  156.3678 H   0  0  0  0  0  0  0  0  0  0  0  0
  146.1880  140.9725  154.7664 H   0  0  0  0  0  0  0  0  0  0  0  0
  148.1946  142.1272  153.7578 H   0  0  0  0  0  0  0  0  0  0  0  0
  148.7455  142.5763  155.3235 H   0  0  0  0  0  0  0  0  0  0  0  0
  146.1997  140.6452  152.7577 H   0  0  0  0  0  0  0  0  0  0  0  0
  147.8771  140.6419  152.2647 H   0  0  0  0  0  0  0  0  0  0  0  0
  146.3908  139.7966  150.4211 H   0  0  0  0  0  0  0  0  0  0  0  0
  147.5535  138.5831  150.9236 H   0  0  0  0  0  0  0  0  0  0  0  0
  144.7426  138.7535  151.7108 H   0  0  0  0  0  0  0  0  0  0  0  0
  144.9529  136.7992  152.9771 H   0  0  0  0  0  0  0  0  0  0  0  0
  146.6463  136.6913  152.5330 H   0  0  0  0  0  0  0  0  0  0  0  0
  146.3964  137.6985  154.8364 H   0  0  0  0  0  0  0  0  0  0  0  0
  145.3634  138.9334  154.1927 H   0  0  0  0  0  0  0  0  0  0  0  0
  152.7037  136.7245  155.9718 H   0  0  0  0  0  0  0  0  0  0  0  0
  151.1094  136.4665  155.2937 H   0  0  0  0  0  0  0  0  0  0  0  0
  151.3332  136.4012  157.0408 H   0  0  0  0  0  0  0  0  0  0  0  0
  145.4283  137.6079  150.7520 H   0  0  0  0  0  0  0  0  0  0  0  0
  1  2  1  0  0  0  0
  1 24  1  0  0  0  0
  1 25  1  0  0  0  0
  1 26  1  0  0  0  0
  2  3  1  0  0  0  0
  3  4  1  0  0  0  0
  3 27  1  0  0  0  0
  3 28  1  0  0  0  0
  4  5  1  0  0  0  0
  4 29  1  0  0  0  0
  4 30  1  0  0  0  0
  5 15  1  0  0  0  0
  5  6  1  0  0  0  0
  6  7  1  0  0  0  0
  6 13  2  0  0  0  0
  7 12  1  0  0  0  0
  7  8  1  0  0  0  0
  8  9  1  0  0  0  0
  8 31  1  0  0  0  0
  8 32  1  0  0  0  0
  9 10  1  0  0  0  0
  9 33  1  0  0  0  0
  9 34  1  0  0  0  0
 10 11  1  0  0  0  0
 10 35  1  0  0  0  0
 10 43  1  0  0  0  0
 11 12  1  0  0  0  0
 11 36  1  0  0  0  0
 11 37  1  0  0  0  0
 12 38  1  0  0  0  0
 12 39  1  0  0  0  0
 13 14  1  0  0  0  0
 14 21  1  0  0  0  0
 14 15  2  0  0  0  0
 15 16  1  0  0  0  0
 16 17  2  0  0  0  0
 16 18  1  0  0  0  0
 18 23  1  0  0  0  0
 18 19  1  0  0  0  0
 19 20  2  0  0  0  0
 19 21  1  0  0  0  0
 21 22  1  0  0  0  0
 22 40  1  0  0  0  0
 22 41  1  0  0  0  0
 22 42  1  0  0  0  0
M  CHG  1  10   1
M  END
> <s_m_source_file>
AV-unprocessed.smi

> <i_m_source_file_index>
513

> <i_lp_mmshare_version>
43012

> <i_f3d_flags>
0

> <s_epik_input>
W0NIM11uMWMoPU8pW25IXWMoPU8pYyhjMTIpbihbQ0gyXVtDSDJdT1tDSDNdKWMobjIpTjNbQ0gyXVtDSDJdW05IXVtDSDJdW0NIMl0z

> <s_epik_cmdline>
J2VwaWtfcHl0aG9uJywgJy1waCcsICc3LjAnLCAnLXRuJywgJzgnLCAnLW1hJywgJzIwMCcsICctbWV0YWxfYmluZGluZycsICctaW1hZScsICc8aW5maWxlLm1hZT4nLCAnLW9tYWUnLCAnPG91dGZpbGUubWFlPic=

> <r_epik_Ionization_Penalty>
0.00860422

> <r_epik_Ionization_Penalty_Charging>
0.00860232

> <r_epik_Ionization_Penalty_Neutral>
1.90009e-06

> <r_epik_State_Penalty>
0.00646614

> <r_epik_Charging_Adjusted_Penalty>
0.0150685

> <i_epik_Tot_Q>
1

> <i_epik_Tot_abs_Q>
1

> <r_epik_Metal_State_Penalty>
0.0348233

> <b_epik_Metal_Only>
0

> <s_lp_Force_Field>
OPLS_2005

> <r_lp_Energy>
48.3968

> <b_lp_Chiralities_Consistent>
1

> <s_lp_Variant>
AV-unprocessed.smi:513-1

> <Gold.Version>
5.8.1

> <Gold.Id.Protein>
6NUR|6NUR_protein|mol2

> <Gold.PLP.Fitness>
39.0489

> <Gold.PLP.PLP>
-31.3151

> <Gold.PLP.part.hbond>
-2.1598

> <Gold.PLP.part.metal>
0.0000

> <Gold.PLP.part.buried>
1.7421

> <Gold.PLP.part.nonpolar>
-33.1772

> <Gold.PLP.part.repulsive>
0.8013

> <Gold.PLP.ligand.clash>
0.0000

> <Gold.PLP.ligand.torsion>
0.9812

> <Gold.PLP.Chemscore.Hbond>
3.0640

> <Gold.PLP.Chemscore.CHOScore>
0.0000

> <Gold.PLP.Chemscore.Metal>
0.0000

> <Gold.Chemscore.Hbonds>
donor molecule, donor type, donor heavy atom, donor atom, acceptor molecule, acceptor atom, score
      L1  H    10    35       P1 10175  1.50
      L1  H    10    43       P1 10171  0.01
      P1  H  7997  8009       L1    20  0.71

> <Gold.PLP.Chemscore.Internal.Correction>
0.5040

> <Gold.Rescore>
     Score         DG    S(hbond)    S(metal)    S(lipo)     H(rot)  DE(clash)    DE(int)     intcor
     10.64     -13.00       1.38        0.00      59.16       1.57       0.96       1.41       ----

> <Gold.Chemscore.Fitness>
10.6358

> <Gold.Chemscore.DG>
-13.0004

> <Gold.Chemscore.ZeroCoef>
-5.4800

> <Gold.Chemscore.Hbond>
1.3821

> <Gold.Chemscore.Metal>
0.0000

> <Gold.Chemscore.Lipo>
59.1583

> <Gold.Chemscore.Internal_Hbond>
0.0000

> <Gold.Chemscore.DEClash>
0.9595

> <Gold.Chemscore.DEInternal>
1.4051

> <Gold.Chemscore.Rot>
1.5693

> <Gold.Chemscore.Internal.Correction>
   9.000000E+99

> <Gold.Chemscore.Hbonds>
donor molecule, donor type, donor heavy atom, donor atom, acceptor molecule, acceptor atom, score
      L1  H    10    35       P1 10175  0.72
      L1  H    10    43       P1 10171  0.06
      P1  H  7997  8009       L1    20  0.08

> <Gold.Chemscore.Hbond.Weighted>
-4.6163

> <Gold.Chemscore.Metal.Weighted>
-0.0000

> <Gold.Chemscore.Lipo.Weighted>
-6.9215

> <Gold.Chemscore.Internal_Hbond.Weighted>
0.0000

> <Gold.Chemscore.DEClash.Weighted>
0.9595

> <Gold.Chemscore.DEInternal.Weighted>
1.4051

> <Gold.Chemscore.Rot.Weighted>
4.0175

> <Gold.Chemscore.Internal.Correction.Weighted>
   9.000000E+99

> <Gold.Protein.RotatedTorsions>
[ 6907 6896 6895 6894 ] final  131.42 input  -60.11 | X-H torsion
[ 7974 7965 7964 7962 ] final  -51.25 input  175.53 | X-H torsion
[ 8008 7997 7996 7995 ] final  166.52 input   59.86 | X-H torsion
[ 10167 10162 10161 10158 ] final  -58.26 input  -65.29 | X-H torsion
[ 10718 10713 10712 10709 ] final -171.12 input   66.30 | X-H torsion
[ 10763 10752 10751 10750 ] final   -3.95 input  -60.55 | X-H torsion
[ 11005 11000 10999 10996 ] final -116.94 input  -57.11 | X-H torsion

> <Gold.Protein.ActiveResidues>
 VAL166  LYS551  ARG553  GLY616  TRP617  ASP618  TYR619  PRO620  LYS621  CYS622 
 ASP623  PHE694  ASN695  SER759  ASP760  ASP761  ALA762  ILE779  LEU786  VAL792 
 PHE793  MET794  SER795  GLU796  ALA797  LYS798  CYS799  TRP800  GLU811  SER814 

> <Gold.Protein.RotatedAtoms>
  152.3428  133.6086  159.5888 H   0  0  0  0  0  0  0  0  0  0  0  0  # atno 6907 bound_to 6896
  150.7489  133.9696  159.3550 H   0  0  0  0  0  0  0  0  0  0  0  0  # atno 6908 bound_to 6896
  151.7558  135.0822  160.0389 H   0  0  0  0  0  0  0  0  0  0  0  0  # atno 6909 bound_to 6896
  145.9210  140.7833  142.9647 H   0  0  0  0  0  0  0  0  0  0  0  0  # atno 7974 bound_to 7965
  156.1711  140.1641  156.8445 H   0  0  0  0  0  0  0  0  0  0  0  0  # atno 8008 bound_to 7997
  154.5258  140.0768  156.8290 H   0  0  0  0  0  0  0  0  0  0  0  0  # atno 8009 bound_to 7997
  155.3510  140.3390  155.4241 H   0  0  0  0  0  0  0  0  0  0  0  0  # atno 8010 bound_to 7997
  140.6208  143.2419  151.5485 H   0  0  0  0  0  0  0  0  0  0  0  0  # atno 10167 bound_to 10162
  156.7362  130.9325  151.3107 H   0  0  0  0  0  0  0  0  0  0  0  0  # atno 10718 bound_to 10713
  153.3782  135.6997  153.6585 H   0  0  0  0  0  0  0  0  0  0  0  0  # atno 10763 bound_to 10752
  153.5207  135.3612  155.2631 H   0  0  0  0  0  0  0  0  0  0  0  0  # atno 10764 bound_to 10752
  154.8689  135.4157  154.3075 H   0  0  0  0  0  0  0  0  0  0  0  0  # atno 10765 bound_to 10752
  141.0388  133.9868  157.3028 H   0  0  0  0  0  0  0  0  0  0  0  0  # atno 11005 bound_to 11000
  144.6753  140.1976  143.7390 LP  0  0  0  0  0  0  0  0  0  0  0  0  # atno 17320 bound_to 7965
  145.8549  139.2194  143.1750 LP  0  0  0  0  0  0  0  0  0  0  0  0  # atno 17321 bound_to 7965
  139.5437  144.2579  152.1401 LP  0  0  0  0  0  0  0  0  0  0  0  0  # atno 17342 bound_to 10162
  140.1798  144.4855  150.6534 LP  0  0  0  0  0  0  0  0  0  0  0  0  # atno 17343 bound_to 10162
  157.6838  130.9165  150.0333 LP  0  0  0  0  0  0  0  0  0  0  0  0  # atno 17370 bound_to 10713
  156.1495  130.3642  149.9459 LP  0  0  0  0  0  0  0  0  0  0  0  0  # atno 17371 bound_to 10713
  139.9260  135.0201  156.8236 LP  0  0  0  0  0  0  0  0  0  0  0  0  # atno 17394 bound_to 11000
  140.6273  133.9938  155.7645 LP  0  0  0  0  0  0  0  0  0  0  0  0  # atno 17395 bound_to 11000

$$$$
