AV-unprocessed.smi:914|AV-procd|sdf|4152|dock3
  -GOLD-   22720 2 53D 1   1.00000     0.00000
 Structure written by MMmdl.
 32 33  0  0  0  0  0  0  0  0  2 V2000
  153.0879  137.3457  161.9465 O   0  0  0  0  0  0  0  0  0  0  0  0
  152.8293  137.7722  160.8219 C   0  0  0  0  0  0  0  0  0  0  0  0
  152.0606  137.0807  159.9305 N   0  5  0  0  0  0  0  0  0  0  0  0
  151.7597  137.5394  158.6764 C   0  0  0  0  0  0  0  0  0  0  0  0
  151.0690  136.8914  157.8898 O   0  0  0  0  0  0  0  0  0  0  0  0
  152.2452  138.7563  158.2872 N   0  0  0  0  0  0  0  0  0  0  0  0
  151.9908  139.3254  156.9556 C   0  0  0  0  0  0  0  0  0  0  0  0
  150.5269  139.7672  156.8042 C   0  0  0  0  0  0  0  0  0  0  0  0
  150.3084  140.9207  157.5964 O   0  0  0  0  0  0  0  0  0  0  0  0
  150.9376  142.0818  157.0867 C   0  0  0  0  0  0  0  0  0  0  0  0
  150.9347  143.1495  158.1866 C   0  0  2  0  0  0  0  0  0  0  0  0
  151.7112  144.4153  157.8234 C   0  0  0  0  0  0  0  0  0  0  0  0
  152.0839  144.9447  159.1884 C   0  0  0  0  0  0  0  0  0  0  0  0
  152.3934  143.6556  159.9436 C   0  0  0  0  0  0  0  0  0  0  0  0
  151.5574  142.6536  159.3697 O   0  0  0  0  0  0  0  0  0  0  0  0
  153.0470  139.5053  159.1647 C   0  0  0  0  0  0  0  0  0  0  0  0
  153.3558  139.0689  160.4012 C   0  0  0  0  0  0  0  0  0  0  0  0
  154.3485  140.0106  161.4561 Cl  0  0  0  0  0  0  0  0  0  0  0  0
  152.6601  140.1596  156.7393 H   0  0  0  0  0  0  0  0  0  0  0  0
  152.2201  138.5758  156.1970 H   0  0  0  0  0  0  0  0  0  0  0  0
  150.3115  139.9992  155.7606 H   0  0  0  0  0  0  0  0  0  0  0  0
  149.8573  138.9592  157.1038 H   0  0  0  0  0  0  0  0  0  0  0  0
  151.9605  141.8485  156.7885 H   0  0  0  0  0  0  0  0  0  0  0  0
  150.4108  142.4480  156.2040 H   0  0  0  0  0  0  0  0  0  0  0  0
  149.9088  143.4173  158.4437 H   0  0  0  0  0  0  0  0  0  0  0  0
  152.6126  144.1691  157.2603 H   0  0  0  0  0  0  0  0  0  0  0  0
  151.1236  145.1201  157.2337 H   0  0  0  0  0  0  0  0  0  0  0  0
  152.9238  145.6395  159.1659 H   0  0  0  0  0  0  0  0  0  0  0  0
  151.2296  145.4516  159.6392 H   0  0  0  0  0  0  0  0  0  0  0  0
  153.4334  143.3658  159.7893 H   0  0  0  0  0  0  0  0  0  0  0  0
  152.2240  143.7515  161.0162 H   0  0  0  0  0  0  0  0  0  0  0  0
  153.3978  140.4474  158.7691 H   0  0  0  0  0  0  0  0  0  0  0  0
  1  2  2  0  0  0  0
  2 17  1  0  0  0  0
  2  3  1  0  0  0  0
  3  4  1  0  0  0  0
  4  5  2  0  0  0  0
  4  6  1  0  0  0  0
  6  7  1  0  0  0  0
  6 16  1  0  0  0  0
  7  8  1  0  0  0  0
  7 19  1  0  0  0  0
  7 20  1  0  0  0  0
  8  9  1  0  0  0  0
  8 21  1  0  0  0  0
  8 22  1  0  0  0  0
  9 10  1  0  0  0  0
 10 11  1  0  0  0  0
 10 23  1  0  0  0  0
 10 24  1  0  0  0  0
 11 15  1  0  0  0  0
 11 12  1  0  0  0  0
 11 25  1  0  0  0  0
 12 13  1  0  0  0  0
 12 26  1  0  0  0  0
 12 27  1  0  0  0  0
 13 14  1  0  0  0  0
 13 28  1  0  0  0  0
 13 29  1  0  0  0  0
 14 15  1  0  0  0  0
 14 30  1  0  0  0  0
 14 31  1  0  0  0  0
 16 17  2  0  0  0  0
 16 32  1  0  0  0  0
 17 18  1  0  0  0  0
M  CHG  1   3  -1
M  END
> <s_m_source_file>
AV-unprocessed.smi

> <i_m_source_file_index>
914

> <i_lp_mmshare_version>
43012

> <i_f3d_flags>
0

> <s_epik_input>
Tz1jMVtuSF1jKD1PKW4oW2NIXWMxQ2wpW0NIMl1bQ0gyXU9bQ0gyXVtDQEBIXTJbQ0gyXVtDSDJdW0NIMl1PMg==

> <s_epik_cmdline>
J2VwaWtfcHl0aG9uJywgJy1waCcsICc3LjAnLCAnLXRuJywgJzgnLCAnLW1hJywgJzIwMCcsICctbWV0YWxfYmluZGluZycsICctaW1hZScsICc8aW5maWxlLm1hZT4nLCAnLW9tYWUnLCAnPG91dGZpbGUubWFlPic=

> <r_epik_Ionization_Penalty>
1.76812

> <r_epik_Ionization_Penalty_Charging>
1.60097e-08

> <r_epik_Ionization_Penalty_Neutral>
1.76812

> <r_epik_State_Penalty>
1.87929

> <r_epik_Charging_Adjusted_Penalty>
1.87929

> <i_epik_Tot_Q>
-1

> <i_epik_Tot_abs_Q>
1

> <r_epik_Metal_State_Penalty>
0.0133872

> <b_epik_Metal_Only>
0

> <s_lp_Force_Field>
OPLS_2005

> <r_lp_Energy>
30.4793

> <b_lp_Chiralities_Consistent>
1

> <s_lp_Variant>
AV-unprocessed.smi:914-3

> <Gold.Version>
5.8.1

> <Gold.Id.Protein>
6NUR|6NUR_protein|mol2

> <Gold.PLP.Fitness>
38.4587

> <Gold.PLP.PLP>
-32.9336

> <Gold.PLP.part.hbond>
-0.9899

> <Gold.PLP.part.metal>
0.0000

> <Gold.PLP.part.buried>
-5.3374

> <Gold.PLP.part.nonpolar>
-27.1295

> <Gold.PLP.part.repulsive>
0.0135

> <Gold.PLP.ligand.clash>
0.0000

> <Gold.PLP.ligand.torsion>
0.2291

> <Gold.PLP.Chemscore.Hbond>
1.9825

> <Gold.PLP.Chemscore.CHOScore>
0.0000

> <Gold.PLP.Chemscore.Metal>
0.0000

> <Gold.Chemscore.Hbonds>
donor molecule, donor type, donor heavy atom, donor atom, acceptor molecule, acceptor atom, score
      P1  H  6896  6909       L1     3  2.00

> <Gold.PLP.Chemscore.Internal.Correction>
0.0357

> <Gold.Rescore>
     Score         DG    S(hbond)    S(metal)    S(lipo)     H(rot)  DE(clash)    DE(int)     intcor
     13.12     -13.40       0.92        0.00      86.58       2.07       0.02       0.26       ----

> <Gold.Chemscore.Fitness>
13.1237

> <Gold.Chemscore.DG>
-13.4001

> <Gold.Chemscore.ZeroCoef>
-5.4800

> <Gold.Chemscore.Hbond>
0.9234

> <Gold.Chemscore.Metal>
0.0000

> <Gold.Chemscore.Lipo>
86.5751

> <Gold.Chemscore.Internal_Hbond>
0.0000

> <Gold.Chemscore.DEClash>
0.0202

> <Gold.Chemscore.DEInternal>
0.2561

> <Gold.Chemscore.Rot>
2.0678

> <Gold.Chemscore.Internal.Correction>
   9.000000E+99

> <Gold.Chemscore.Hbonds>
donor molecule, donor type, donor heavy atom, donor atom, acceptor molecule, acceptor atom, score
      P1  H  6896  6909       L1     3  0.78

> <Gold.Chemscore.Hbond.Weighted>
-3.0843

> <Gold.Chemscore.Metal.Weighted>
-0.0000

> <Gold.Chemscore.Lipo.Weighted>
-10.1293

> <Gold.Chemscore.Internal_Hbond.Weighted>
0.0000

> <Gold.Chemscore.DEClash.Weighted>
0.0202

> <Gold.Chemscore.DEInternal.Weighted>
0.2561

> <Gold.Chemscore.Rot.Weighted>
5.2935

> <Gold.Chemscore.Internal.Correction.Weighted>
   9.000000E+99

> <Gold.Protein.RotatedTorsions>
[ 6907 6896 6895 6894 ] final  141.01 input  -60.11 | X-H torsion
[ 7974 7965 7964 7962 ] final -154.43 input  175.53 | X-H torsion
[ 8008 7997 7996 7995 ] final  136.02 input   59.86 | X-H torsion
[ 10167 10162 10161 10158 ] final -120.38 input  -65.29 | X-H torsion
[ 10718 10713 10712 10709 ] final -177.16 input   66.30 | X-H torsion
[ 10763 10752 10751 10750 ] final   36.63 input  -60.55 | X-H torsion
[ 11005 11000 10999 10996 ] final -148.28 input  -57.11 | X-H torsion

> <Gold.Protein.ActiveResidues>
 VAL166  LYS551  ARG553  GLY616  TRP617  ASP618  TYR619  PRO620  LYS621  CYS622 
 ASP623  PHE694  ASN695  SER759  ASP760  ASP761  ALA762  ILE779  LEU786  VAL792 
 PHE793  MET794  SER795  GLU796  ALA797  LYS798  CYS799  TRP800  GLU811  SER814 

> <Gold.Protein.RotatedAtoms>
  152.2362  133.5098  159.5243 H   0  0  0  0  0  0  0  0  0  0  0  0  # atno 6907 bound_to 6896
  150.7051  134.1150  159.4023 H   0  0  0  0  0  0  0  0  0  0  0  0  # atno 6908 bound_to 6896
  151.9071  135.0354  160.0562 H   0  0  0  0  0  0  0  0  0  0  0  0  # atno 6909 bound_to 6896
  144.7690  140.4389  143.5921 H   0  0  0  0  0  0  0  0  0  0  0  0  # atno 7974 bound_to 7965
  156.3004  140.2456  156.3676 H   0  0  0  0  0  0  0  0  0  0  0  0  # atno 8008 bound_to 7997
  154.8818  140.0412  157.1806 H   0  0  0  0  0  0  0  0  0  0  0  0  # atno 8009 bound_to 7997
  154.8688  140.2932  155.5498 H   0  0  0  0  0  0  0  0  0  0  0  0  # atno 8010 bound_to 7997
  140.0364  143.5197  152.2151 H   0  0  0  0  0  0  0  0  0  0  0  0  # atno 10167 bound_to 10162
  156.8254  130.9634  151.3109 H   0  0  0  0  0  0  0  0  0  0  0  0  # atno 10718 bound_to 10713
  153.0069  135.6300  154.2016 H   0  0  0  0  0  0  0  0  0  0  0  0  # atno 10763 bound_to 10752
  154.1759  135.2816  155.3068 H   0  0  0  0  0  0  0  0  0  0  0  0  # atno 10764 bound_to 10752
  154.5872  135.5629  153.7303 H   0  0  0  0  0  0  0  0  0  0  0  0  # atno 10765 bound_to 10752
  140.7629  134.3278  157.5097 H   0  0  0  0  0  0  0  0  0  0  0  0  # atno 11005 bound_to 11000
  145.6382  139.1546  143.2931 LP  0  0  0  0  0  0  0  0  0  0  0  0  # atno 17320 bound_to 7965
  146.1821  140.6480  142.9184 LP  0  0  0  0  0  0  0  0  0  0  0  0  # atno 17321 bound_to 7965
  139.6042  144.7591  151.3100 LP  0  0  0  0  0  0  0  0  0  0  0  0  # atno 17342 bound_to 10162
  140.7279  143.6949  150.7892 LP  0  0  0  0  0  0  0  0  0  0  0  0  # atno 17343 bound_to 10162
  157.6435  130.8825  149.9493 LP  0  0  0  0  0  0  0  0  0  0  0  0  # atno 17370 bound_to 10713
  156.0965  130.3659  150.0297 LP  0  0  0  0  0  0  0  0  0  0  0  0  # atno 17371 bound_to 10713
  139.8768  134.9213  156.3272 LP  0  0  0  0  0  0  0  0  0  0  0  0  # atno 17394 bound_to 11000
  140.9646  133.7366  156.0449 LP  0  0  0  0  0  0  0  0  0  0  0  0  # atno 17395 bound_to 11000

$$$$
