AV-unprocessed.smi:1956|AV-procd|sdf|7902|dock4
  -GOLD-   2272010 53D 1   1.00000     0.00000
 Structure written by MMmdl.
 46 47  0  0  0  0  0  0  0  0  2 V2000
  150.4601  142.6558  157.6106 C   0  0  0  0  0  0  0  0  0  0  0  0
  151.0863  142.0181  156.5027 O   0  0  0  0  0  0  0  0  0  0  0  0
  150.3347  141.1518  155.7355 C   0  0  0  0  0  0  0  0  0  0  0  0
  148.9486  141.3770  155.6257 C   0  0  0  0  0  0  0  0  0  0  0  0
  148.1737  140.4988  154.8441 C   0  0  0  0  0  0  0  0  0  0  0  0
  148.8128  139.4150  154.1934 C   0  0  0  0  0  0  0  0  0  0  0  0
  148.1609  138.4542  153.3706 N   0  0  0  0  0  0  0  0  0  0  0  0
  146.8491  138.1970  153.2272 C   0  0  0  0  0  0  0  0  0  0  0  0
  145.9340  138.7709  153.8162 O   0  0  0  0  0  0  0  0  0  0  0  0
  146.6440  137.2118  152.3413 N   0  0  0  0  0  0  0  0  0  0  0  0
  145.3359  136.6867  151.9662 C   0  0  0  0  0  0  0  0  0  0  0  0
  145.3113  136.2230  150.4965 C   0  0  0  0  0  0  0  0  0  0  0  0
  145.1699  134.7506  150.3710 N   0  3  1  0  0  0  0  0  0  0  0  0
  146.2403  134.0182  151.0961 C   0  0  0  0  0  0  0  0  0  0  0  0
  146.1674  132.5089  150.8159 C   0  0  0  0  0  0  0  0  0  0  0  0
  144.7813  131.9495  151.1660 C   0  0  0  0  0  0  0  0  0  0  0  0
  143.6638  132.7454  150.4665 C   0  0  2  0  0  0  0  0  0  0  0  0
  143.5667  132.4414  148.9612 C   0  0  0  0  0  0  0  0  0  0  0  0
  143.8178  134.2546  150.7468 C   0  0  0  0  0  0  0  0  0  0  0  0
  150.2064  139.2808  154.3668 C   0  0  0  0  0  0  0  0  0  0  0  0
  150.9547  140.1185  155.1144 N   0  0  0  0  0  0  0  0  0  0  0  0
  151.1824  143.3010  158.1105 H   0  0  0  0  0  0  0  0  0  0  0  0
  150.1043  141.9285  158.3419 H   0  0  0  0  0  0  0  0  0  0  0  0
  149.6247  143.2803  157.2908 H   0  0  0  0  0  0  0  0  0  0  0  0
  148.4861  142.2112  156.1325 H   0  0  0  0  0  0  0  0  0  0  0  0
  147.1152  140.6852  154.7650 H   0  0  0  0  0  0  0  0  0  0  0  0
  148.7815  137.8771  152.8219 H   0  0  0  0  0  0  0  0  0  0  0  0
  147.4497  136.7889  151.9034 H   0  0  0  0  0  0  0  0  0  0  0  0
  145.1161  135.8599  152.6402 H   0  0  0  0  0  0  0  0  0  0  0  0
  144.5676  137.4420  152.1416 H   0  0  0  0  0  0  0  0  0  0  0  0
  144.4654  136.7014  150.0010 H   0  0  0  0  0  0  0  0  0  0  0  0
  146.2050  136.5573  149.9672 H   0  0  0  0  0  0  0  0  0  0  0  0
  147.2186  134.3883  150.7870 H   0  0  0  0  0  0  0  0  0  0  0  0
  146.1525  134.2088  152.1669 H   0  0  0  0  0  0  0  0  0  0  0  0
  146.3935  132.3176  149.7663 H   0  0  0  0  0  0  0  0  0  0  0  0
  146.9328  131.9878  151.3916 H   0  0  0  0  0  0  0  0  0  0  0  0
  144.7219  130.8923  150.9045 H   0  0  0  0  0  0  0  0  0  0  0  0
  144.6382  132.0045  152.2460 H   0  0  0  0  0  0  0  0  0  0  0  0
  142.7169  132.4270  150.9046 H   0  0  0  0  0  0  0  0  0  0  0  0
  144.4628  132.7507  148.4231 H   0  0  0  0  0  0  0  0  0  0  0  0
  142.7192  132.9601  148.5122 H   0  0  0  0  0  0  0  0  0  0  0  0
  143.4264  131.3744  148.7853 H   0  0  0  0  0  0  0  0  0  0  0  0
  143.6503  134.4513  151.8071 H   0  0  0  0  0  0  0  0  0  0  0  0
  143.0433  134.7986  150.2075 H   0  0  0  0  0  0  0  0  0  0  0  0
  150.7420  138.4732  153.8895 H   0  0  0  0  0  0  0  0  0  0  0  0
  145.3004  134.5374  149.3922 H   0  0  0  0  0  0  0  0  0  0  0  0
  1  2  1  0  0  0  0
  1 22  1  0  0  0  0
  1 23  1  0  0  0  0
  1 24  1  0  0  0  0
  2  3  1  0  0  0  0
  3 21  1  0  0  0  0
  3  4  2  0  0  0  0
  4  5  1  0  0  0  0
  4 25  1  0  0  0  0
  5  6  2  0  0  0  0
  5 26  1  0  0  0  0
  6  7  1  0  0  0  0
  6 20  1  0  0  0  0
  7  8  1  0  0  0  0
  7 27  1  0  0  0  0
  8  9  2  0  0  0  0
  8 10  1  0  0  0  0
 10 11  1  0  0  0  0
 10 28  1  0  0  0  0
 11 12  1  0  0  0  0
 11 29  1  0  0  0  0
 11 30  1  0  0  0  0
 12 13  1  0  0  0  0
 12 31  1  0  0  0  0
 12 32  1  0  0  0  0
 13 19  1  0  0  0  0
 13 14  1  0  0  0  0
 13 46  1  0  0  0  0
 14 15  1  0  0  0  0
 14 33  1  0  0  0  0
 14 34  1  0  0  0  0
 15 16  1  0  0  0  0
 15 35  1  0  0  0  0
 15 36  1  0  0  0  0
 16 17  1  0  0  0  0
 16 37  1  0  0  0  0
 16 38  1  0  0  0  0
 17 18  1  0  0  0  0
 17 19  1  0  0  0  0
 17 39  1  0  0  0  0
 18 40  1  0  0  0  0
 18 41  1  0  0  0  0
 18 42  1  0  0  0  0
 19 43  1  0  0  0  0
 19 44  1  0  0  0  0
 20 21  2  0  0  0  0
 20 45  1  0  0  0  0
M  CHG  1  13   1
M  END
> <s_m_source_file>
AV-unprocessed.smi

> <i_m_source_file_index>
1956

> <i_lp_mmshare_version>
43012

> <i_f3d_flags>
0

> <s_epik_input>
W0NIM11PYzFbY0hdW2NIXWMoW2NIXW4xKVtOSF1DKD1PKVtOSF1bQ0gyXVtDSDJdTjJbQ0gyXVtDSDJdW0NIMl1bQ0BASF0oW0NIM10pW0NIMl0y

> <s_epik_cmdline>
J2VwaWtfcHl0aG9uJywgJy1waCcsICc3LjAnLCAnLXRuJywgJzgnLCAnLW1hJywgJzIwMCcsICctbWV0YWxfYmluZGluZycsICctaW1hZScsICc8aW5maWxlLm1hZT4nLCAnLW9tYWUnLCAnPG91dGZpbGUubWFlPic=

> <r_lp_tautomer_probability>
1

> <r_epik_Ionization_Penalty>
0.00179545

> <r_epik_Ionization_Penalty_Charging>
0.00171832

> <r_epik_Ionization_Penalty_Neutral>
7.7124e-05

> <r_epik_State_Penalty>
0.0011618

> <r_epik_Charging_Adjusted_Penalty>
0.00288012

> <i_epik_Tot_Q>
1

> <i_epik_Tot_abs_Q>
1

> <r_epik_Metal_State_Penalty>
-0

> <b_epik_Metal_Only>
0

> <s_lp_Force_Field>
OPLS_2005

> <r_lp_Energy>
22.555

> <b_lp_Chiralities_Consistent>
1

> <s_lp_Variant>
AV-unprocessed.smi:1956-3

> <Gold.Version>
5.8.1

> <Gold.Id.Protein>
6NUR|6NUR_protein|mol2

> <Gold.PLP.Fitness>
44.5328

> <Gold.PLP.PLP>
-36.5946

> <Gold.PLP.part.hbond>
-4.7246

> <Gold.PLP.part.metal>
0.0000

> <Gold.PLP.part.buried>
-0.2272

> <Gold.PLP.part.nonpolar>
-33.8072

> <Gold.PLP.part.repulsive>
0.4185

> <Gold.PLP.ligand.clash>
0.0000

> <Gold.PLP.ligand.torsion>
0.9926

> <Gold.PLP.Chemscore.Hbond>
3.2873

> <Gold.PLP.Chemscore.CHOScore>
0.0000

> <Gold.PLP.Chemscore.Metal>
0.0000

> <Gold.Chemscore.Hbonds>
donor molecule, donor type, donor heavy atom, donor atom, acceptor molecule, acceptor atom, score
      L1  H     7    27       P1  7948  0.93
      L1  H    10    28       P1  7948  1.00
      L1  H    13    46       P1  7921  1.00
      P1  H  7989  7998       L1    21  0.45

> <Gold.PLP.Chemscore.Internal.Correction>
0.0617

> <Gold.Rescore>
     Score         DG    S(hbond)    S(metal)    S(lipo)     H(rot)  DE(clash)    DE(int)     intcor
     18.74     -21.98       2.76        0.00      99.57       1.71       1.25       1.99       ----

> <Gold.Chemscore.Fitness>
18.7386

> <Gold.Chemscore.DG>
-21.9761

> <Gold.Chemscore.ZeroCoef>
-5.4800

> <Gold.Chemscore.Hbond>
2.7622

> <Gold.Chemscore.Metal>
0.0000

> <Gold.Chemscore.Lipo>
99.5707

> <Gold.Chemscore.Internal_Hbond>
0.0000

> <Gold.Chemscore.DEClash>
1.2473

> <Gold.Chemscore.DEInternal>
1.9902

> <Gold.Chemscore.Rot>
1.7107

> <Gold.Chemscore.Internal.Correction>
   9.000000E+99

> <Gold.Chemscore.Hbonds>
donor molecule, donor type, donor heavy atom, donor atom, acceptor molecule, acceptor atom, score
      L1  H     7    27       P1  7948  0.89
      L1  H    10    28       P1  7948  0.96
      L1  H    13    46       P1  7921  0.95
      P1  H  7989  7998       L1    21  0.01

> <Gold.Chemscore.Hbond.Weighted>
-9.2258

> <Gold.Chemscore.Metal.Weighted>
-0.0000

> <Gold.Chemscore.Lipo.Weighted>
-11.6498

> <Gold.Chemscore.Internal_Hbond.Weighted>
0.0000

> <Gold.Chemscore.DEClash.Weighted>
1.2473

> <Gold.Chemscore.DEInternal.Weighted>
1.9902

> <Gold.Chemscore.Rot.Weighted>
4.3794

> <Gold.Chemscore.Internal.Correction.Weighted>
   9.000000E+99

> <Gold.Protein.RotatedTorsions>
[ 6907 6896 6895 6894 ] final  146.98 input  -60.11 | X-H torsion
[ 7974 7965 7964 7962 ] final  156.13 input  175.53 | X-H torsion
[ 8008 7997 7996 7995 ] final  -44.59 input   59.86 | X-H torsion
[ 10167 10162 10161 10158 ] final  -46.67 input  -65.29 | X-H torsion
[ 10718 10713 10712 10709 ] final   18.22 input   66.30 | X-H torsion
[ 10763 10752 10751 10750 ] final  -62.19 input  -60.55 | X-H torsion
[ 11005 11000 10999 10996 ] final -116.70 input  -57.11 | X-H torsion

> <Gold.Protein.ActiveResidues>
 VAL166  LYS551  ARG553  GLY616  TRP617  ASP618  TYR619  PRO620  LYS621  CYS622 
 ASP623  PHE694  ASN695  SER759  ASP760  ASP761  ALA762  ILE779  LEU786  VAL792 
 PHE793  MET794  SER795  GLU796  ALA797  LYS798  CYS799  TRP800  GLU811  SER814 

> <Gold.Protein.RotatedAtoms>
  152.1609  133.4581  159.4859 H   0  0  0  0  0  0  0  0  0  0  0  0  # atno 6907 bound_to 6896
  150.6906  134.2073  159.4354 H   0  0  0  0  0  0  0  0  0  0  0  0  # atno 6908 bound_to 6896
  151.9975  134.9946  160.0614 H   0  0  0  0  0  0  0  0  0  0  0  0  # atno 6909 bound_to 6896
  144.7982  139.7161  143.6193 H   0  0  0  0  0  0  0  0  0  0  0  0  # atno 7974 bound_to 7965
  154.3998  140.1418  156.3707 H   0  0  0  0  0  0  0  0  0  0  0  0  # atno 8008 bound_to 7997
  155.8095  140.3473  155.5428 H   0  0  0  0  0  0  0  0  0  0  0  0  # atno 8009 bound_to 7997
  155.8401  140.0925  157.1730 H   0  0  0  0  0  0  0  0  0  0  0  0  # atno 8010 bound_to 7997
  140.6807  143.2820  151.3817 H   0  0  0  0  0  0  0  0  0  0  0  0  # atno 10167 bound_to 10162
  157.0933  130.6437  149.5854 H   0  0  0  0  0  0  0  0  0  0  0  0  # atno 10718 bound_to 10713
  154.2961  135.6244  153.5405 H   0  0  0  0  0  0  0  0  0  0  0  0  # atno 10763 bound_to 10752
  152.9846  135.5667  154.5336 H   0  0  0  0  0  0  0  0  0  0  0  0  # atno 10764 bound_to 10752
  154.4957  135.2869  155.1437 H   0  0  0  0  0  0  0  0  0  0  0  0  # atno 10765 bound_to 10752
  141.0404  133.9844  157.3003 H   0  0  0  0  0  0  0  0  0  0  0  0  # atno 11005 bound_to 11000
  146.2256  139.5717  142.9589 LP  0  0  0  0  0  0  0  0  0  0  0  0  # atno 17320 bound_to 7965
  145.5619  141.0403  143.2221 LP  0  0  0  0  0  0  0  0  0  0  0  0  # atno 17321 bound_to 7965
  139.6128  144.1063  152.2316 LP  0  0  0  0  0  0  0  0  0  0  0  0  # atno 17342 bound_to 10162
  140.0483  144.5953  150.7356 LP  0  0  0  0  0  0  0  0  0  0  0  0  # atno 17343 bound_to 10162
  155.9892  130.4939  150.7205 LP  0  0  0  0  0  0  0  0  0  0  0  0  # atno 17370 bound_to 10713
  157.4703  131.0892  151.0650 LP  0  0  0  0  0  0  0  0  0  0  0  0  # atno 17371 bound_to 10713
  139.9272  135.0201  156.8275 LP  0  0  0  0  0  0  0  0  0  0  0  0  # atno 17394 bound_to 11000
  140.6244  133.9964  155.7633 LP  0  0  0  0  0  0  0  0  0  0  0  0  # atno 17395 bound_to 11000

$$$$
