AV-unprocessed.smi:910|AV-procd|sdf|4132|dock3
  -GOLD-   22720 2 33D 1   1.00000     0.00000
 Structure written by MMmdl.
 45 46  0  0  0  0  0  0  0  0  2 V2000
  144.8623  134.9740  163.1637 C   0  0  0  0  0  0  0  0  0  0  0  0
  146.0879  135.1708  162.3285 C   0  0  0  0  0  0  0  0  0  0  0  0
  146.4821  136.4195  161.8724 N   0  0  0  0  0  0  0  0  0  0  0  0
  147.5975  136.2148  161.1691 C   0  0  0  0  0  0  0  0  0  0  0  0
  148.3290  137.1546  160.5491 N   0  5  0  0  0  0  0  0  0  0  0  0
  149.1463  136.8091  159.5291 C   0  0  0  0  0  0  0  0  0  0  0  0
  149.3226  135.6717  159.0861 O   0  0  0  0  0  0  0  0  0  0  0  0
  149.8009  137.8466  158.9879 N   0  0  0  0  0  0  0  0  0  0  0  0
  150.7491  137.7780  157.8810 C   0  0  0  0  0  0  0  0  0  0  0  0
  151.4288  139.1316  157.6331 C   0  0  0  0  0  0  0  0  0  0  0  0
  151.3503  139.9127  158.8171 O   0  0  0  0  0  0  0  0  0  0  0  0
  152.0430  141.1526  158.7510 C   0  0  2  0  0  0  0  0  0  0  0  0
  152.5730  141.5227  160.1530 C   0  0  0  0  0  0  0  0  0  0  0  0
  153.2170  142.9171  160.1626 C   0  0  0  0  0  0  0  0  0  0  0  0
  152.2366  143.9819  159.6517 C   0  0  0  0  0  0  0  0  0  0  0  0
  151.7070  143.6202  158.2558 C   0  0  0  0  0  0  0  0  0  0  0  0
  151.0551  142.2229  158.2339 C   0  0  1  0  0  0  0  0  0  0  0  0
  150.5378  141.8897  156.8250 C   0  0  0  0  0  0  0  0  0  0  0  0
  147.9573  134.8997  161.1502 O   0  0  0  0  0  0  0  0  0  0  0  0
  146.9987  134.2522  161.8808 C   0  0  0  0  0  0  0  0  0  0  0  0
  147.1202  132.7752  162.0414 C   0  0  0  0  0  0  0  0  0  0  0  0
  145.1250  134.7028  164.1862 H   0  0  0  0  0  0  0  0  0  0  0  0
  144.2361  134.1786  162.7597 H   0  0  0  0  0  0  0  0  0  0  0  0
  144.2573  135.8803  163.2066 H   0  0  0  0  0  0  0  0  0  0  0  0
  149.6307  138.7589  159.3849 H   0  0  0  0  0  0  0  0  0  0  0  0
  151.4991  137.0113  158.0817 H   0  0  0  0  0  0  0  0  0  0  0  0
  150.2151  137.4597  156.9856 H   0  0  0  0  0  0  0  0  0  0  0  0
  152.4627  138.9851  157.3201 H   0  0  0  0  0  0  0  0  0  0  0  0
  150.9167  139.6516  156.8225 H   0  0  0  0  0  0  0  0  0  0  0  0
  152.8765  141.0827  158.0490 H   0  0  0  0  0  0  0  0  0  0  0  0
  151.7524  141.4964  160.8713 H   0  0  0  0  0  0  0  0  0  0  0  0
  153.3030  140.7900  160.4959 H   0  0  0  0  0  0  0  0  0  0  0  0
  153.5458  143.1678  161.1714 H   0  0  0  0  0  0  0  0  0  0  0  0
  154.1107  142.9113  159.5373 H   0  0  0  0  0  0  0  0  0  0  0  0
  151.4021  144.0766  160.3477 H   0  0  0  0  0  0  0  0  0  0  0  0
  152.7271  144.9553  159.6220 H   0  0  0  0  0  0  0  0  0  0  0  0
  150.9865  144.3731  157.9345 H   0  0  0  0  0  0  0  0  0  0  0  0
  152.5277  143.6536  157.5376 H   0  0  0  0  0  0  0  0  0  0  0  0
  150.1959  142.2437  158.9062 H   0  0  0  0  0  0  0  0  0  0  0  0
  151.3547  141.8384  156.1046 H   0  0  0  0  0  0  0  0  0  0  0  0
  149.8333  142.6456  156.4777 H   0  0  0  0  0  0  0  0  0  0  0  0
  150.0199  140.9305  156.8082 H   0  0  0  0  0  0  0  0  0  0  0  0
  146.2510  132.2693  161.6212 H   0  0  0  0  0  0  0  0  0  0  0  0
  147.1917  132.5076  163.0956 H   0  0  0  0  0  0  0  0  0  0  0  0
  148.0090  132.3977  161.5355 H   0  0  0  0  0  0  0  0  0  0  0  0
  1 22  1  0  0  0  0
  1 23  1  0  0  0  0
  1 24  1  0  0  0  0
  1  2  1  0  0  0  0
  2  3  1  0  0  0  0
  2 20  2  0  0  0  0
  3  4  2  0  0  0  0
  4 19  1  0  0  0  0
  4  5  1  0  0  0  0
  5  6  1  0  0  0  0
  6  8  1  0  0  0  0
  6  7  2  0  0  0  0
  8  9  1  0  0  0  0
  8 25  1  0  0  0  0
  9 10  1  0  0  0  0
  9 26  1  0  0  0  0
  9 27  1  0  0  0  0
 10 11  1  0  0  0  0
 10 28  1  0  0  0  0
 10 29  1  0  0  0  0
 11 12  1  0  0  0  0
 12 17  1  0  0  0  0
 12 13  1  0  0  0  0
 12 30  1  0  0  0  0
 13 14  1  0  0  0  0
 13 31  1  0  0  0  0
 13 32  1  0  0  0  0
 14 15  1  0  0  0  0
 14 33  1  0  0  0  0
 14 34  1  0  0  0  0
 15 16  1  0  0  0  0
 15 35  1  0  0  0  0
 15 36  1  0  0  0  0
 16 17  1  0  0  0  0
 16 37  1  0  0  0  0
 16 38  1  0  0  0  0
 17 18  1  0  0  0  0
 17 39  1  0  0  0  0
 18 40  1  0  0  0  0
 18 41  1  0  0  0  0
 18 42  1  0  0  0  0
 19 20  1  0  0  0  0
 20 21  1  0  0  0  0
 21 43  1  0  0  0  0
 21 44  1  0  0  0  0
 21 45  1  0  0  0  0
M  CHG  1   5  -1
M  END
> <s_m_source_file>
AV-unprocessed.smi

> <i_m_source_file_index>
910

> <i_lp_mmshare_version>
43012

> <i_f3d_flags>
0

> <s_epik_input>
W0NIM11jMW5jKG9jMVtDSDNdKVtOSF1DKD1PKVtOSF1bQ0gyXVtDSDJdT1tDQEBIXTJbQ0gyXVtDSDJdW0NIMl1bQ0gyXVtDQEhdMltDSDNd

> <s_epik_cmdline>
J2VwaWtfcHl0aG9uJywgJy1waCcsICc3LjAnLCAnLXRuJywgJzgnLCAnLW1hJywgJzIwMCcsICctbWV0YWxfYmluZGluZycsICctaW1hZScsICc8aW5maWxlLm1hZT4nLCAnLW9tYWUnLCAnPG91dGZpbGUubWFlPic=

> <r_lp_tautomer_probability>
0.107061

> <r_epik_Ionization_Penalty>
10.1763

> <r_epik_Ionization_Penalty_Charging>
7.13067

> <r_epik_Ionization_Penalty_Neutral>
3.04564

> <r_epik_State_Penalty>
5.57927

> <r_epik_Charging_Adjusted_Penalty>
12.7099

> <i_epik_Tot_Q>
-1

> <i_epik_Tot_abs_Q>
1

> <r_epik_Metal_State_Penalty>
1.52303

> <b_epik_Metal_Only>
1

> <s_lp_Force_Field>
OPLS_2005

> <r_lp_Energy>
4.71476

> <b_lp_Chiralities_Consistent>
1

> <s_lp_Variant>
AV-unprocessed.smi:910-17

> <Gold.Version>
5.8.1

> <Gold.Id.Protein>
6NUR|6NUR_protein|mol2

> <Gold.PLP.Fitness>
49.6857

> <Gold.PLP.PLP>
-40.2369

> <Gold.PLP.part.hbond>
-3.0000

> <Gold.PLP.part.metal>
0.0000

> <Gold.PLP.part.buried>
-5.6833

> <Gold.PLP.part.nonpolar>
-33.0981

> <Gold.PLP.part.repulsive>
0.2180

> <Gold.PLP.ligand.clash>
0.0000

> <Gold.PLP.ligand.torsion>
0.7986

> <Gold.PLP.Chemscore.Hbond>
3.6552

> <Gold.PLP.Chemscore.CHOScore>
0.0000

> <Gold.PLP.Chemscore.Metal>
0.0000

> <Gold.Chemscore.Hbonds>
donor molecule, donor type, donor heavy atom, donor atom, acceptor molecule, acceptor atom, score
      P1  H  6896  6907       L1     7  1.00
      P1  H  6931  6943       L1     5  1.57
      P1  H  6934  6947       L1     5  0.67

> <Gold.PLP.Chemscore.Internal.Correction>
0.0803

> <Gold.Rescore>
     Score         DG    S(hbond)    S(metal)    S(lipo)     H(rot)  DE(clash)    DE(int)     intcor
     16.79     -19.46       1.78        0.00     104.18       1.62       0.13       2.54       ----

> <Gold.Chemscore.Fitness>
16.7888

> <Gold.Chemscore.DG>
-19.4601

> <Gold.Chemscore.ZeroCoef>
-5.4800

> <Gold.Chemscore.Hbond>
1.7757

> <Gold.Chemscore.Metal>
0.0000

> <Gold.Chemscore.Lipo>
104.1753

> <Gold.Chemscore.Internal_Hbond>
0.0000

> <Gold.Chemscore.DEClash>
0.1334

> <Gold.Chemscore.DEInternal>
2.5379

> <Gold.Chemscore.Rot>
1.6169

> <Gold.Chemscore.Internal.Correction>
   9.000000E+99

> <Gold.Chemscore.Hbonds>
donor molecule, donor type, donor heavy atom, donor atom, acceptor molecule, acceptor atom, score
      P1  H  6896  6907       L1     7  1.00
      P1  H  6931  6943       L1     5  0.44
      P1  H  6934  6947       L1     5  0.15

> <Gold.Chemscore.Hbond.Weighted>
-5.9309

> <Gold.Chemscore.Metal.Weighted>
-0.0000

> <Gold.Chemscore.Lipo.Weighted>
-12.1885

> <Gold.Chemscore.Internal_Hbond.Weighted>
0.0000

> <Gold.Chemscore.DEClash.Weighted>
0.1334

> <Gold.Chemscore.DEInternal.Weighted>
2.5379

> <Gold.Chemscore.Rot.Weighted>
4.1393

> <Gold.Chemscore.Internal.Correction.Weighted>
   9.000000E+99

> <Gold.Protein.RotatedTorsions>
[ 6907 6896 6895 6894 ] final  -71.75 input  -60.11 | X-H torsion
[ 7974 7965 7964 7962 ] final  132.29 input  175.53 | X-H torsion
[ 8008 7997 7996 7995 ] final -146.02 input   59.86 | X-H torsion
[ 10167 10162 10161 10158 ] final   91.78 input  -65.29 | X-H torsion
[ 10718 10713 10712 10709 ] final  -60.33 input   66.30 | X-H torsion
[ 10763 10752 10751 10750 ] final  148.64 input  -60.55 | X-H torsion
[ 11005 11000 10999 10996 ] final -157.72 input  -57.11 | X-H torsion

> <Gold.Protein.ActiveResidues>
 VAL166  LYS551  ARG553  GLY616  TRP617  ASP618  TYR619  PRO620  LYS621  CYS622 
 ASP623  PHE694  ASN695  SER759  ASP760  ASP761  ALA762  ILE779  LEU786  VAL792 
 PHE793  MET794  SER795  GLU796  ALA797  LYS798  CYS799  TRP800  GLU811  SER814 

> <Gold.Protein.RotatedAtoms>
  150.7199  134.5263  159.5677 H   0  0  0  0  0  0  0  0  0  0  0  0  # atno 6907 bound_to 6896
  152.2806  134.7830  160.0406 H   0  0  0  0  0  0  0  0  0  0  0  0  # atno 6908 bound_to 6896
  151.8477  133.3399  159.3700 H   0  0  0  0  0  0  0  0  0  0  0  0  # atno 6909 bound_to 6896
  144.9983  139.4337  143.5305 H   0  0  0  0  0  0  0  0  0  0  0  0  # atno 7974 bound_to 7965
  155.5526  140.0618  157.2847 H   0  0  0  0  0  0  0  0  0  0  0  0  # atno 8008 bound_to 7997
  154.4416  140.1900  156.0746 H   0  0  0  0  0  0  0  0  0  0  0  0  # atno 8009 bound_to 7997
  156.0505  140.3285  155.7350 H   0  0  0  0  0  0  0  0  0  0  0  0  # atno 8010 bound_to 7997
  139.8341  144.6673  150.9363 H   0  0  0  0  0  0  0  0  0  0  0  0  # atno 10167 bound_to 10162
  156.0998  130.4188  150.0839 H   0  0  0  0  0  0  0  0  0  0  0  0  # atno 10718 bound_to 10713
  154.0581  135.2876  155.3329 H   0  0  0  0  0  0  0  0  0  0  0  0  # atno 10763 bound_to 10752
  154.6826  135.5257  153.8287 H   0  0  0  0  0  0  0  0  0  0  0  0  # atno 10764 bound_to 10752
  153.0534  135.6585  154.0771 H   0  0  0  0  0  0  0  0  0  0  0  0  # atno 10765 bound_to 10752
  140.6615  134.4344  157.5234 H   0  0  0  0  0  0  0  0  0  0  0  0  # atno 11005 bound_to 11000
  146.3446  139.9357  142.8747 LP  0  0  0  0  0  0  0  0  0  0  0  0  # atno 17320 bound_to 7965
  145.2188  140.9926  143.4057 LP  0  0  0  0  0  0  0  0  0  0  0  0  # atno 17321 bound_to 7965
  140.7804  143.3973  151.1208 LP  0  0  0  0  0  0  0  0  0  0  0  0  # atno 17342 bound_to 10162
  139.7624  143.8615  152.3103 LP  0  0  0  0  0  0  0  0  0  0  0  0  # atno 17343 bound_to 10162
  156.8829  130.9562  151.3597 LP  0  0  0  0  0  0  0  0  0  0  0  0  # atno 17370 bound_to 10713
  157.6166  130.8623  149.9039 LP  0  0  0  0  0  0  0  0  0  0  0  0  # atno 17371 bound_to 10713
  139.9011  134.8553  156.1892 LP  0  0  0  0  0  0  0  0  0  0  0  0  # atno 17394 bound_to 11000
  141.0461  133.6912  156.1686 LP  0  0  0  0  0  0  0  0  0  0  0  0  # atno 17395 bound_to 11000

$$$$
