AV-unprocessed.smi:496|AV-procd|sdf|2716|dock5
  -GOLD-   2262023163D 1   1.00000     0.00000
 Structure written by MMmdl.
 42 44  0  0  0  0  0  0  0  0  1 V2000
  154.8534  140.2145  162.0830 C   0  0  0  0  0  0  0  0  0  0  0  0
  154.8213  141.1727  161.0399 O   0  0  0  0  0  0  0  0  0  0  0  0
  154.5295  140.5933  159.7802 C   0  0  0  0  0  0  0  0  0  0  0  0
  153.1042  140.0280  159.8133 C   0  0  0  0  0  0  0  0  0  0  0  0
  152.1486  140.9371  159.1978 N   0  0  0  0  0  0  0  0  0  0  0  0
  151.2343  140.6798  158.2254 C   0  0  0  0  0  0  0  0  0  0  0  0
  151.0709  139.3190  157.5946 C   0  0  2  0  0  0  0  0  0  0  0  0
  152.3749  138.8148  156.9610 C   0  0  0  0  0  0  0  0  0  0  0  0
  150.0169  139.4007  156.5865 N   0  0  0  0  0  0  0  0  0  0  0  0
  149.9929  140.2640  155.5584 C   0  0  0  0  0  0  0  0  0  0  0  0
  150.8637  141.1122  155.3642 O   0  0  0  0  0  0  0  0  0  0  0  0
  148.8301  140.1555  154.6577 C   0  0  0  0  0  0  0  0  0  0  0  0
  148.1341  141.1069  153.9585 C   0  0  0  0  0  0  0  0  0  0  0  0
  147.0934  140.4254  153.2689 C   0  0  0  0  0  0  0  0  0  0  0  0
  147.2236  139.1073  153.6008 C   0  0  0  0  0  0  0  0  0  0  0  0
  148.2719  138.9274  154.4495 O   0  0  0  0  0  0  0  0  0  0  0  0
  150.4744  141.7171  157.8629 N   0  0  0  0  0  0  0  0  0  0  0  0
  150.9477  142.7398  158.6591 C   0  0  0  0  0  0  0  0  0  0  0  0
  150.5555  144.0951  158.7412 C   0  0  0  0  0  0  0  0  0  0  0  0
  151.1983  144.9707  159.6405 C   0  0  0  0  0  0  0  0  0  0  0  0
  152.2395  144.5044  160.4689 C   0  0  0  0  0  0  0  0  0  0  0  0
  152.6439  143.1571  160.4037 C   0  0  0  0  0  0  0  0  0  0  0  0
  151.9989  142.2865  159.5043 C   0  0  0  0  0  0  0  0  0  0  0  0
  155.0803  140.7089  163.0276 H   0  0  0  0  0  0  0  0  0  0  0  0
  155.6222  139.4617  161.9040 H   0  0  0  0  0  0  0  0  0  0  0  0
  153.8901  139.7135  162.1882 H   0  0  0  0  0  0  0  0  0  0  0  0
  154.6141  141.3461  158.9946 H   0  0  0  0  0  0  0  0  0  0  0  0
  155.2484  139.8032  159.5587 H   0  0  0  0  0  0  0  0  0  0  0  0
  153.0526  139.0570  159.3215 H   0  0  0  0  0  0  0  0  0  0  0  0
  152.8028  139.8520  160.8461 H   0  0  0  0  0  0  0  0  0  0  0  0
  150.7757  138.5837  158.3416 H   0  0  0  0  0  0  0  0  0  0  0  0
  153.1674  138.7414  157.7061 H   0  0  0  0  0  0  0  0  0  0  0  0
  152.7218  139.4836  156.1725 H   0  0  0  0  0  0  0  0  0  0  0  0
  152.2410  137.8253  156.5230 H   0  0  0  0  0  0  0  0  0  0  0  0
  149.2594  138.7384  156.6659 H   0  0  0  0  0  0  0  0  0  0  0  0
  148.3459  142.1662  153.9441 H   0  0  0  0  0  0  0  0  0  0  0  0
  146.3436  140.8461  152.6153 H   0  0  0  0  0  0  0  0  0  0  0  0
  146.6826  138.2099  153.3384 H   0  0  0  0  0  0  0  0  0  0  0  0
  149.7596  144.4618  158.1102 H   0  0  0  0  0  0  0  0  0  0  0  0
  150.8917  146.0050  159.6945 H   0  0  0  0  0  0  0  0  0  0  0  0
  152.7276  145.1816  161.1546 H   0  0  0  0  0  0  0  0  0  0  0  0
  153.4418  142.7992  161.0371 H   0  0  0  0  0  0  0  0  0  0  0  0
  1  2  1  0  0  0  0
  1 24  1  0  0  0  0
  1 25  1  0  0  0  0
  1 26  1  0  0  0  0
  2  3  1  0  0  0  0
  3  4  1  0  0  0  0
  3 27  1  0  0  0  0
  3 28  1  0  0  0  0
  4  5  1  0  0  0  0
  4 29  1  0  0  0  0
  4 30  1  0  0  0  0
  5 23  1  0  0  0  0
  5  6  1  0  0  0  0
  6  7  1  0  0  0  0
  6 17  2  0  0  0  0
  7  8  1  0  0  0  0
  7  9  1  0  0  0  0
  7 31  1  0  0  0  0
  8 32  1  0  0  0  0
  8 33  1  0  0  0  0
  8 34  1  0  0  0  0
  9 10  1  0  0  0  0
  9 35  1  0  0  0  0
 10 11  2  0  0  0  0
 10 12  1  0  0  0  0
 12 16  1  0  0  0  0
 12 13  2  0  0  0  0
 13 14  1  0  0  0  0
 13 36  1  0  0  0  0
 14 15  2  0  0  0  0
 14 37  1  0  0  0  0
 15 16  1  0  0  0  0
 15 38  1  0  0  0  0
 17 18  1  0  0  0  0
 18 23  2  0  0  0  0
 18 19  1  0  0  0  0
 19 20  2  0  0  0  0
 19 39  1  0  0  0  0
 20 21  1  0  0  0  0
 20 40  1  0  0  0  0
 21 22  2  0  0  0  0
 21 41  1  0  0  0  0
 22 23  1  0  0  0  0
 22 42  1  0  0  0  0
M  END
> <s_m_source_file>
AV-unprocessed.smi

> <i_m_source_file_index>
496

> <i_lp_mmshare_version>
43012

> <i_f3d_flags>
0

> <s_epik_input>
W2NIXTFbY0hdW2NIXVtjSF1jKGMxMiluKFtDSDJdW0NIMl1PW0NIM10pYyhuMilbQ0BIXShbQ0gzXSlbTkhdQyg9TyljM1tjSF1bY0hdW2NIXW8z

> <s_epik_cmdline>
J2VwaWtfcHl0aG9uJywgJy1waCcsICc3LjAnLCAnLXRuJywgJzgnLCAnLW1hJywgJzIwMCcsICctbWV0YWxfYmluZGluZycsICctaW1hZScsICc8aW5maWxlLm1hZT4nLCAnLW9tYWUnLCAnPG91dGZpbGUubWFlPic=

> <r_epik_Ionization_Penalty>
0.116528

> <r_epik_Ionization_Penalty_Charging>
0

> <r_epik_Ionization_Penalty_Neutral>
0.116528

> <r_epik_State_Penalty>
0.106132

> <r_epik_Charging_Adjusted_Penalty>
0.106132

> <i_epik_Tot_Q>
0

> <i_epik_Tot_abs_Q>
0

> <r_epik_Metal_State_Penalty>
0.0963468

> <b_epik_Metal_Only>
0

> <s_lp_Force_Field>
OPLS_2005

> <r_lp_Energy>
7.66614

> <b_lp_Chiralities_Consistent>
1

> <s_lp_Variant>
AV-unprocessed.smi:496-1

> <Gold.Version>
5.8.1

> <Gold.Id.Protein>
6NUR|6NUR_protein|mol2

> <Gold.PLP.Fitness>
43.7193

> <Gold.PLP.PLP>
-43.4818

> <Gold.PLP.part.hbond>
-2.0000

> <Gold.PLP.part.metal>
0.0000

> <Gold.PLP.part.buried>
-4.6325

> <Gold.PLP.part.nonpolar>
-37.6661

> <Gold.PLP.part.repulsive>
0.2695

> <Gold.PLP.ligand.clash>
0.0000

> <Gold.PLP.ligand.torsion>
0.8423

> <Gold.PLP.Chemscore.Hbond>
0.6240

> <Gold.PLP.Chemscore.CHOScore>
0.0000

> <Gold.PLP.Chemscore.Metal>
0.0000

> <Gold.Chemscore.Hbonds>
donor molecule, donor type, donor heavy atom, donor atom, acceptor molecule, acceptor atom, score
      P1  H  7989  7998       L1    11  0.64

> <Gold.PLP.Chemscore.Internal.Correction>
0.0501

> <Gold.Rescore>
     Score         DG    S(hbond)    S(metal)    S(lipo)     H(rot)  DE(clash)    DE(int)     intcor
     14.76     -18.07       0.96        0.00     120.59       1.85       0.17       3.13       ----

> <Gold.Chemscore.Fitness>
14.7639

> <Gold.Chemscore.DG>
-18.0686

> <Gold.Chemscore.ZeroCoef>
-5.4800

> <Gold.Chemscore.Hbond>
0.9613

> <Gold.Chemscore.Metal>
0.0000

> <Gold.Chemscore.Lipo>
120.5863

> <Gold.Chemscore.Internal_Hbond>
0.0000

> <Gold.Chemscore.DEClash>
0.1701

> <Gold.Chemscore.DEInternal>
3.1346

> <Gold.Chemscore.Rot>
1.8480

> <Gold.Chemscore.Internal.Correction>
   9.000000E+99

> <Gold.Chemscore.Hbonds>
donor molecule, donor type, donor heavy atom, donor atom, acceptor molecule, acceptor atom, score
      P1  H  7989  7998       L1    11  0.45

> <Gold.Chemscore.Hbond.Weighted>
-3.2108

> <Gold.Chemscore.Metal.Weighted>
-0.0000

> <Gold.Chemscore.Lipo.Weighted>
-14.1086

> <Gold.Chemscore.Internal_Hbond.Weighted>
0.0000

> <Gold.Chemscore.DEClash.Weighted>
0.1701

> <Gold.Chemscore.DEInternal.Weighted>
3.1346

> <Gold.Chemscore.Rot.Weighted>
4.7308

> <Gold.Chemscore.Internal.Correction.Weighted>
   9.000000E+99

> <Gold.Protein.RotatedTorsions>
[ 6907 6896 6895 6894 ] final   41.03 input  -60.11 | X-H torsion
[ 7974 7965 7964 7962 ] final  144.89 input  175.53 | X-H torsion
[ 8008 7997 7996 7995 ] final   66.87 input   59.86 | X-H torsion
[ 10167 10162 10161 10158 ] final  104.44 input  -65.29 | X-H torsion
[ 10718 10713 10712 10709 ] final   75.03 input   66.30 | X-H torsion
[ 10763 10752 10751 10750 ] final -167.97 input  -60.55 | X-H torsion
[ 11005 11000 10999 10996 ] final -101.06 input  -57.11 | X-H torsion

> <Gold.Protein.ActiveResidues>
 VAL166  LYS551  ARG553  GLY616  TRP617  ASP618  TYR619  PRO620  LYS621  CYS622 
 ASP623  PHE694  ASN695  SER759  ASP760  ASP761  ALA762  ILE779  LEU786  VAL792 
 PHE793  MET794  SER795  GLU796  ALA797  LYS798  CYS799  TRP800  GLU811  SER814 

> <Gold.Protein.RotatedAtoms>
  152.1901  134.8680  160.0518 H   0  0  0  0  0  0  0  0  0  0  0  0  # atno 6907 bound_to 6896
  151.9572  133.3679  159.4030 H   0  0  0  0  0  0  0  0  0  0  0  0  # atno 6908 bound_to 6896
  150.6933  134.4202  159.5245 H   0  0  0  0  0  0  0  0  0  0  0  0  # atno 6909 bound_to 6896
  144.8798  139.5717  143.5848 H   0  0  0  0  0  0  0  0  0  0  0  0  # atno 7974 bound_to 7965
  155.6840  140.3496  155.4867 H   0  0  0  0  0  0  0  0  0  0  0  0  # atno 8008 bound_to 7997
  155.9582  140.1132  157.0941 H   0  0  0  0  0  0  0  0  0  0  0  0  # atno 8009 bound_to 7997
  154.4137  140.1181  156.5129 H   0  0  0  0  0  0  0  0  0  0  0  0  # atno 8010 bound_to 7997
  139.7177  144.7065  151.0923 H   0  0  0  0  0  0  0  0  0  0  0  0  # atno 10167 bound_to 10162
  157.6617  130.9706  150.1295 H   0  0  0  0  0  0  0  0  0  0  0  0  # atno 10718 bound_to 10713
  154.6677  135.2934  154.9783 H   0  0  0  0  0  0  0  0  0  0  0  0  # atno 10763 bound_to 10752
  154.0821  135.6603  153.4843 H   0  0  0  0  0  0  0  0  0  0  0  0  # atno 10764 bound_to 10752
  153.0467  135.5200  154.7658 H   0  0  0  0  0  0  0  0  0  0  0  0  # atno 10765 bound_to 10752
  141.1246  133.8448  157.1183 H   0  0  0  0  0  0  0  0  0  0  0  0  # atno 11005 bound_to 11000
  146.2987  139.7357  142.9107 LP  0  0  0  0  0  0  0  0  0  0  0  0  # atno 17320 bound_to 7965
  145.3975  141.0381  143.3089 LP  0  0  0  0  0  0  0  0  0  0  0  0  # atno 17321 bound_to 7965
  140.7747  143.5207  150.9540 LP  0  0  0  0  0  0  0  0  0  0  0  0  # atno 17342 bound_to 10162
  139.8894  143.6972  152.3147 LP  0  0  0  0  0  0  0  0  0  0  0  0  # atno 17343 bound_to 10162
  156.2145  130.3669  149.8630 LP  0  0  0  0  0  0  0  0  0  0  0  0  # atno 17370 bound_to 10713
  156.6500  130.8739  151.3529 LP  0  0  0  0  0  0  0  0  0  0  0  0  # atno 17371 bound_to 10713
  140.0232  134.9936  157.0634 LP  0  0  0  0  0  0  0  0  0  0  0  0  # atno 17394 bound_to 11000
  140.4405  134.1686  155.7173 LP  0  0  0  0  0  0  0  0  0  0  0  0  # atno 17395 bound_to 11000

$$$$
