AV-unprocessed.smi:788|AV-procd|sdf|3731|dock7
  -GOLD-   22720 1163D 1   1.00000     0.00000
 Structure written by MMmdl.
 35 36  0  0  0  0  0  0  0  0  1 V2000
  153.2458  142.0207  161.3547 C   0  0  0  0  0  0  0  0  0  0  0  0
  152.7755  143.1770  160.4532 C   0  0  2  0  0  0  0  0  0  0  0  0
  152.1922  144.3198  161.3073 C   0  0  0  0  0  0  0  0  0  0  0  0
  151.7148  145.4966  160.4445 C   0  0  0  0  0  0  0  0  0  0  0  0
  150.6973  145.0345  159.3902 C   0  0  0  0  0  0  0  0  0  0  0  0
  151.2488  143.8991  158.5052 C   0  0  1  0  0  0  0  0  0  0  0  0
  152.2928  144.4156  157.4924 C   0  0  0  0  0  0  0  0  0  0  0  0
  151.7484  142.7203  159.3848 C   0  0  1  0  0  0  0  0  0  0  0  0
  152.3094  141.6502  158.5620 N   0  0  0  0  0  0  0  0  0  0  0  0
  151.6592  140.9639  157.6083 C   0  0  0  0  0  0  0  0  0  0  0  0
  150.4811  141.1730  157.3252 O   0  0  0  0  0  0  0  0  0  0  0  0
  152.3708  140.0154  156.9622 N   0  0  0  0  0  0  0  0  0  0  0  0
  152.0207  139.1109  155.9167 C   0  0  0  0  0  0  0  0  0  0  0  0
  152.6727  137.9687  155.6430 N   0  0  0  0  0  0  0  0  0  0  0  0
  152.1134  137.2907  154.5683 N   0  0  0  0  0  0  0  0  0  0  0  0
  151.0630  137.9475  154.0689 C   0  0  0  0  0  0  0  0  0  0  0  0
  150.6549  139.4571  154.8646 S   0  0  0  0  0  0  0  0  0  0  0  0
  152.4060  141.5559  161.8719 H   0  0  0  0  0  0  0  0  0  0  0  0
  153.9458  142.3753  162.1116 H   0  0  0  0  0  0  0  0  0  0  0  0
  153.7569  141.2450  160.7840 H   0  0  0  0  0  0  0  0  0  0  0  0
  153.6584  143.5617  159.9412 H   0  0  0  0  0  0  0  0  0  0  0  0
  151.3568  143.9450  161.9003 H   0  0  0  0  0  0  0  0  0  0  0  0
  152.9395  144.6726  162.0188 H   0  0  0  0  0  0  0  0  0  0  0  0
  151.2658  146.2602  161.0799 H   0  0  0  0  0  0  0  0  0  0  0  0
  152.5694  145.9683  159.9587 H   0  0  0  0  0  0  0  0  0  0  0  0
  149.7966  144.6861  159.8970 H   0  0  0  0  0  0  0  0  0  0  0  0
  150.3880  145.8793  158.7737 H   0  0  0  0  0  0  0  0  0  0  0  0
  150.4104  143.5311  157.9120 H   0  0  0  0  0  0  0  0  0  0  0  0
  153.1967  144.7752  157.9828 H   0  0  0  0  0  0  0  0  0  0  0  0
  151.8883  145.2399  156.9047 H   0  0  0  0  0  0  0  0  0  0  0  0
  152.5877  143.6378  156.7879 H   0  0  0  0  0  0  0  0  0  0  0  0
  150.8875  142.3168  159.9221 H   0  0  0  0  0  0  0  0  0  0  0  0
  153.2772  141.4139  158.7299 H   0  0  0  0  0  0  0  0  0  0  0  0
  153.3221  139.9213  157.2870 H   0  0  0  0  0  0  0  0  0  0  0  0
  150.5241  137.5404  153.2262 H   0  0  0  0  0  0  0  0  0  0  0  0
  1  2  1  0  0  0  0
  1 18  1  0  0  0  0
  1 19  1  0  0  0  0
  1 20  1  0  0  0  0
  2  8  1  0  0  0  0
  2  3  1  0  0  0  0
  2 21  1  0  0  0  0
  3  4  1  0  0  0  0
  3 22  1  0  0  0  0
  3 23  1  0  0  0  0
  4  5  1  0  0  0  0
  4 24  1  0  0  0  0
  4 25  1  0  0  0  0
  5  6  1  0  0  0  0
  5 26  1  0  0  0  0
  5 27  1  0  0  0  0
  6  7  1  0  0  0  0
  6  8  1  0  0  0  0
  6 28  1  0  0  0  0
  7 29  1  0  0  0  0
  7 30  1  0  0  0  0
  7 31  1  0  0  0  0
  8  9  1  0  0  0  0
  8 32  1  0  0  0  0
  9 10  1  0  0  0  0
  9 33  1  0  0  0  0
 10 11  2  0  0  0  0
 10 12  1  0  0  0  0
 12 13  1  0  0  0  0
 12 34  1  0  0  0  0
 13 17  1  0  0  0  0
 13 14  2  0  0  0  0
 14 15  1  0  0  0  0
 15 16  2  0  0  0  0
 16 17  1  0  0  0  0
 16 35  1  0  0  0  0
M  END
> <s_m_source_file>
AV-unprocessed.smi

> <i_m_source_file_index>
788

> <i_lp_mmshare_version>
43012

> <i_f3d_flags>
0

> <s_epik_input>
W0NIM11bQ0BASF0xW0NIMl1bQ0gyXVtDSDJdW0NAQEhdKFtDSDNdKVtDQEhdMVtOSF1DKD1PKVtOSF1jMm5uW2NIXXMy

> <s_epik_cmdline>
J2VwaWtfcHl0aG9uJywgJy1waCcsICc3LjAnLCAnLXRuJywgJzgnLCAnLW1hJywgJzIwMCcsICctbWV0YWxfYmluZGluZycsICctaW1hZScsICc8aW5maWxlLm1hZT4nLCAnLW9tYWUnLCAnPG91dGZpbGUubWFlPic=

> <r_lp_tautomer_probability>
1

> <r_epik_Ionization_Penalty>
0.000304078

> <r_epik_Ionization_Penalty_Charging>
0

> <r_epik_Ionization_Penalty_Neutral>
0.000304078

> <r_epik_State_Penalty>
-0

> <r_epik_Charging_Adjusted_Penalty>
0

> <i_epik_Tot_Q>
0

> <i_epik_Tot_abs_Q>
0

> <r_epik_Metal_State_Penalty>
0.164801

> <b_epik_Metal_Only>
0

> <s_lp_Force_Field>
OPLS_2005

> <r_lp_Energy>
15.5702

> <b_lp_Chiralities_Consistent>
1

> <s_lp_Variant>
AV-unprocessed.smi:788-1

> <Gold.Version>
5.8.1

> <Gold.Id.Protein>
6NUR|6NUR_protein|mol2

> <Gold.PLP.Fitness>
45.3297

> <Gold.PLP.PLP>
-39.7181

> <Gold.PLP.part.hbond>
-1.2428

> <Gold.PLP.part.metal>
0.0000

> <Gold.PLP.part.buried>
-5.5257

> <Gold.PLP.part.nonpolar>
-34.3013

> <Gold.PLP.part.repulsive>
1.1158

> <Gold.PLP.ligand.clash>
0.0000

> <Gold.PLP.ligand.torsion>
0.1130

> <Gold.PLP.Chemscore.Hbond>
0.8800

> <Gold.PLP.Chemscore.CHOScore>
1.0611

> <Gold.PLP.Chemscore.Metal>
0.0000

> <Gold.Chemscore.Hbonds>
donor molecule, donor type, donor heavy atom, donor atom, acceptor molecule, acceptor atom, score
      P1  H 10752 10764       L1    15  0.85
      L1  C    16    35       P1  7948  0.54
      L1  C    16    35       P1  7949  0.51

> <Gold.PLP.Chemscore.Internal.Correction>
0.0145

> <Gold.Rescore>
     Score         DG    S(hbond)    S(metal)    S(lipo)     H(rot)  DE(clash)    DE(int)     intcor
     17.63     -18.68       0.89        0.00     109.15       1.00       0.72       0.33       ----

> <Gold.Chemscore.Fitness>
17.6302

> <Gold.Chemscore.DG>
-18.6773

> <Gold.Chemscore.ZeroCoef>
-5.4800

> <Gold.Chemscore.Hbond>
0.8944

> <Gold.Chemscore.Metal>
0.0000

> <Gold.Chemscore.Lipo>
109.1452

> <Gold.Chemscore.Internal_Hbond>
0.0000

> <Gold.Chemscore.DEClash>
0.7220

> <Gold.Chemscore.DEInternal>
0.3250

> <Gold.Chemscore.Rot>
1.0000

> <Gold.Chemscore.Internal.Correction>
   9.000000E+99

> <Gold.Chemscore.Hbonds>
donor molecule, donor type, donor heavy atom, donor atom, acceptor molecule, acceptor atom, score
      P1  H 10752 10764       L1    15  0.59

> <Gold.Chemscore.Hbond.Weighted>
-2.9873

> <Gold.Chemscore.Metal.Weighted>
-0.0000

> <Gold.Chemscore.Lipo.Weighted>
-12.7700

> <Gold.Chemscore.Internal_Hbond.Weighted>
0.0000

> <Gold.Chemscore.DEClash.Weighted>
0.7220

> <Gold.Chemscore.DEInternal.Weighted>
0.3250

> <Gold.Chemscore.Rot.Weighted>
2.5600

> <Gold.Chemscore.Internal.Correction.Weighted>
   9.000000E+99

> <Gold.Protein.RotatedTorsions>
[ 6907 6896 6895 6894 ] final  -32.04 input  -60.11 | X-H torsion
[ 7974 7965 7964 7962 ] final   24.36 input  175.53 | X-H torsion
[ 8008 7997 7996 7995 ] final   96.53 input   59.86 | X-H torsion
[ 10167 10162 10161 10158 ] final    6.06 input  -65.29 | X-H torsion
[ 10718 10713 10712 10709 ] final  -55.59 input   66.30 | X-H torsion
[ 10763 10752 10751 10750 ] final  -72.14 input  -60.55 | X-H torsion
[ 11005 11000 10999 10996 ] final -125.00 input  -57.11 | X-H torsion

> <Gold.Protein.ActiveResidues>
 VAL166  LYS551  ARG553  GLY616  TRP617  ASP618  TYR619  PRO620  LYS621  CYS622 
 ASP623  PHE694  ASN695  SER759  ASP760  ASP761  ALA762  ILE779  LEU786  VAL792 
 PHE793  MET794  SER795  GLU796  ALA797  LYS798  CYS799  TRP800  GLU811  SER814 

> <Gold.Protein.RotatedAtoms>
  151.0840  134.9876  159.8369 H   0  0  0  0  0  0  0  0  0  0  0  0  # atno 6907 bound_to 6896
  152.5422  134.2147  159.8774 H   0  0  0  0  0  0  0  0  0  0  0  0  # atno 6908 bound_to 6896
  151.2178  133.4475  159.2633 H   0  0  0  0  0  0  0  0  0  0  0  0  # atno 6909 bound_to 6896
  146.1941  139.7615  142.8810 H   0  0  0  0  0  0  0  0  0  0  0  0  # atno 7974 bound_to 7965
  156.0806  140.3271  155.7689 H   0  0  0  0  0  0  0  0  0  0  0  0  # atno 8008 bound_to 7997
  155.5158  140.0581  157.2933 H   0  0  0  0  0  0  0  0  0  0  0  0  # atno 8009 bound_to 7997
  154.4580  140.1952  156.0341 H   0  0  0  0  0  0  0  0  0  0  0  0  # atno 8010 bound_to 7997
  140.6448  143.7687  150.7483 H   0  0  0  0  0  0  0  0  0  0  0  0  # atno 10167 bound_to 10162
  156.1356  130.4157  150.0191 H   0  0  0  0  0  0  0  0  0  0  0  0  # atno 10718 bound_to 10713
  154.4416  135.5939  153.6133 H   0  0  0  0  0  0  0  0  0  0  0  0  # atno 10763 bound_to 10752
  152.9806  135.5999  154.3715 H   0  0  0  0  0  0  0  0  0  0  0  0  # atno 10764 bound_to 10752
  154.3566  135.2841  155.2322 H   0  0  0  0  0  0  0  0  0  0  0  0  # atno 10765 bound_to 10752
  140.9797  134.0690  157.3779 H   0  0  0  0  0  0  0  0  0  0  0  0  # atno 11005 bound_to 11000
  145.3700  141.0341  143.3236 LP  0  0  0  0  0  0  0  0  0  0  0  0  # atno 17320 bound_to 7965
  144.8545  139.5271  143.6841 LP  0  0  0  0  0  0  0  0  0  0  0  0  # atno 17321 bound_to 7965
  140.1326  143.4512  152.2244 LP  0  0  0  0  0  0  0  0  0  0  0  0  # atno 17342 bound_to 10162
  139.5659  144.7434  151.4025 LP  0  0  0  0  0  0  0  0  0  0  0  0  # atno 17343 bound_to 10162
  156.8091  130.9318  151.3644 LP  0  0  0  0  0  0  0  0  0  0  0  0  # atno 17370 bound_to 10713
  157.6529  130.8900  149.9670 LP  0  0  0  0  0  0  0  0  0  0  0  0  # atno 17371 bound_to 10713
  139.8945  135.0136  156.6954 LP  0  0  0  0  0  0  0  0  0  0  0  0  # atno 17394 bound_to 11000
  140.7205  133.9145  155.8144 LP  0  0  0  0  0  0  0  0  0  0  0  0  # atno 17395 bound_to 11000

$$$$
