AV-unprocessed.smi:174|AV-procd|sdf|1428|dock10
  -GOLD-   2262019203D 1   1.00000     0.00000
 Structure written by MMmdl.
 51 54  0  0  0  0  0  0  0  0  1 V2000
  146.6448  133.3644  150.0690 N   0  0  0  0  0  0  0  0  0  0  0  0
  146.2472  133.9409  151.2054 C   0  0  0  0  0  0  0  0  0  0  0  0
  146.4099  133.4048  152.3006 O   0  0  0  0  0  0  0  0  0  0  0  0
  145.5894  135.3226  151.0790 C   0  0  0  0  0  0  0  0  0  0  0  0
  146.3240  136.3839  151.7838 N   0  0  0  0  0  0  0  0  0  0  0  0
  146.4163  136.2525  153.2405 C   0  0  0  0  0  0  0  0  0  0  0  0
  146.4333  137.6145  153.9412 C   0  0  0  0  0  0  0  0  0  0  0  0
  147.4776  138.4593  153.3753 N   0  0  0  0  0  0  0  0  0  0  0  0
  147.9605  139.5155  154.0882 C   0  0  0  0  0  0  0  0  0  0  0  0
  147.1272  140.5709  154.2918 N   0  0  0  0  0  0  0  0  0  0  0  0
  147.5342  141.6432  154.9756 C   0  0  0  0  0  0  0  0  0  0  0  0
  148.7192  141.8694  155.5419 N   0  0  0  0  0  0  0  0  0  0  0  0
  149.5630  140.8156  155.3547 C   0  0  0  0  0  0  0  0  0  0  0  0
  149.2728  139.6114  154.6476 C   0  0  0  0  0  0  0  0  0  0  0  0
  150.3867  138.7770  154.6878 N   0  0  0  0  0  0  0  0  0  0  0  0
  151.2777  139.4483  155.3636 C   0  0  0  0  0  0  0  0  0  0  0  0
  150.8658  140.6843  155.8017 N   0  0  0  0  0  0  0  0  0  0  0  0
  151.6486  141.6338  156.5729 C   0  0  0  0  0  0  0  0  0  0  0  0
  151.1315  141.7741  158.0201 C   0  0  1  0  0  0  0  0  0  0  0  0
  150.9501  140.4982  158.6016 O   0  0  0  0  0  0  0  0  0  0  0  0
  152.0290  142.6255  158.9418 C   0  0  1  0  0  0  0  0  0  0  0  0
  152.4838  143.9836  158.3987 C   0  0  0  0  0  0  0  0  0  0  0  0
  152.7873  144.7282  159.6788 C   0  0  0  0  0  0  0  0  0  0  0  0
  151.6674  144.2395  160.5932 C   0  0  0  0  0  0  0  0  0  0  0  0
  151.3697  142.9100  160.1736 O   0  0  0  0  0  0  0  0  0  0  0  0
  147.6423  138.5075  151.9130 C   0  0  0  0  0  0  0  0  0  0  0  0
  146.9152  137.4058  151.1183 C   0  0  0  0  0  0  0  0  0  0  0  0
  146.8849  137.5031  149.8912 O   0  0  0  0  0  0  0  0  0  0  0  0
  147.0813  132.4544  150.0956 H   0  0  0  0  0  0  0  0  0  0  0  0
  146.5065  133.8371  149.1879 H   0  0  0  0  0  0  0  0  0  0  0  0
  145.5097  135.5691  150.0193 H   0  0  0  0  0  0  0  0  0  0  0  0
  144.5613  135.2675  151.4417 H   0  0  0  0  0  0  0  0  0  0  0  0
  145.5820  135.6644  153.6252 H   0  0  0  0  0  0  0  0  0  0  0  0
  147.3261  135.6994  153.4778 H   0  0  0  0  0  0  0  0  0  0  0  0
  145.4665  138.1078  153.8294 H   0  0  0  0  0  0  0  0  0  0  0  0
  146.6036  137.4506  155.0056 H   0  0  0  0  0  0  0  0  0  0  0  0
  146.8053  142.4330  155.0838 H   0  0  0  0  0  0  0  0  0  0  0  0
  152.2651  139.0579  155.5632 H   0  0  0  0  0  0  0  0  0  0  0  0
  152.6906  141.3153  156.5531 H   0  0  0  0  0  0  0  0  0  0  0  0
  151.6075  142.5967  156.0628 H   0  0  0  0  0  0  0  0  0  0  0  0
  150.1496  142.2480  157.9884 H   0  0  0  0  0  0  0  0  0  0  0  0
  150.3103  140.5725  159.2932 H   0  0  0  0  0  0  0  0  0  0  0  0
  152.9187  142.0479  159.1996 H   0  0  0  0  0  0  0  0  0  0  0  0
  153.3443  143.9080  157.7335 H   0  0  0  0  0  0  0  0  0  0  0  0
  151.6847  144.4958  157.8644 H   0  0  0  0  0  0  0  0  0  0  0  0
  153.7568  144.4193  160.0718 H   0  0  0  0  0  0  0  0  0  0  0  0
  152.7964  145.8114  159.5553 H   0  0  0  0  0  0  0  0  0  0  0  0
  151.9456  144.2732  161.6467 H   0  0  0  0  0  0  0  0  0  0  0  0
  150.7743  144.8508  160.4592 H   0  0  0  0  0  0  0  0  0  0  0  0
  147.2978  139.4760  151.5465 H   0  0  0  0  0  0  0  0  0  0  0  0
  148.7021  138.4308  151.6663 H   0  0  0  0  0  0  0  0  0  0  0  0
  1  2  1  0  0  0  0
  1 29  1  0  0  0  0
  1 30  1  0  0  0  0
  2  3  2  0  0  0  0
  2  4  1  0  0  0  0
  4  5  1  0  0  0  0
  4 31  1  0  0  0  0
  4 32  1  0  0  0  0
  5 27  1  0  0  0  0
  5  6  1  0  0  0  0
  6  7  1  0  0  0  0
  6 33  1  0  0  0  0
  6 34  1  0  0  0  0
  7  8  1  0  0  0  0
  7 35  1  0  0  0  0
  7 36  1  0  0  0  0
  8  9  1  0  0  0  0
  8 26  1  0  0  0  0
  9 14  1  0  0  0  0
  9 10  2  0  0  0  0
 10 11  1  0  0  0  0
 11 12  2  0  0  0  0
 11 37  1  0  0  0  0
 12 13  1  0  0  0  0
 13 17  1  0  0  0  0
 13 14  2  0  0  0  0
 14 15  1  0  0  0  0
 15 16  2  0  0  0  0
 16 17  1  0  0  0  0
 16 38  1  0  0  0  0
 17 18  1  0  0  0  0
 18 19  1  0  0  0  0
 18 39  1  0  0  0  0
 18 40  1  0  0  0  0
 19 20  1  0  0  0  0
 19 21  1  0  0  0  0
 19 41  1  0  0  0  0
 20 42  1  0  0  0  0
 21 25  1  0  0  0  0
 21 22  1  0  0  0  0
 21 43  1  0  0  0  0
 22 23  1  0  0  0  0
 22 44  1  0  0  0  0
 22 45  1  0  0  0  0
 23 24  1  0  0  0  0
 23 46  1  0  0  0  0
 23 47  1  0  0  0  0
 24 25  1  0  0  0  0
 24 48  1  0  0  0  0
 24 49  1  0  0  0  0
 26 27  1  0  0  0  0
 26 50  1  0  0  0  0
 26 51  1  0  0  0  0
 27 28  2  0  0  0  0
M  END
> <s_m_source_file>
AV-unprocessed.smi

> <i_m_source_file_index>
174

> <i_lp_mmshare_version>
43012

> <i_f3d_flags>
0

> <s_epik_input>
W05IMl1DKD1PKVtDSDJdTjFbQ0gyXVtDSDJdTihbQ0gyXUMxPU8pYyhuW2NIXW4yKWMoYzIzKW5bY0hdbjNbQ0gyXVtDQEhdKFtPSF0pW0NAQEhdNFtDSDJdW0NIMl1bQ0gyXU80

> <s_epik_cmdline>
J2VwaWtfcHl0aG9uJywgJy1waCcsICc3LjAnLCAnLXRuJywgJzgnLCAnLW1hJywgJzIwMCcsICctbWV0YWxfYmluZGluZycsICctaW1hZScsICc8aW5maWxlLm1hZT4nLCAnLW9tYWUnLCAnPG91dGZpbGUubWFlPic=

> <r_lp_tautomer_probability>
1

> <r_epik_Ionization_Penalty>
0.000250477

> <r_epik_Ionization_Penalty_Charging>
0

> <r_epik_Ionization_Penalty_Neutral>
0.000250477

> <r_epik_State_Penalty>
-0

> <r_epik_Charging_Adjusted_Penalty>
0

> <i_epik_Tot_Q>
0

> <i_epik_Tot_abs_Q>
0

> <r_epik_Metal_State_Penalty>
-0

> <b_epik_Metal_Only>
0

> <s_lp_Force_Field>
OPLS_2005

> <r_lp_Energy>
38.9575

> <b_lp_Chiralities_Consistent>
1

> <s_lp_Variant>
AV-unprocessed.smi:174-4

> <Gold.Version>
5.8.1

> <Gold.Id.Protein>
6NUR|6NUR_protein|mol2

> <Gold.PLP.Fitness>
45.6932

> <Gold.PLP.PLP>
-45.1874

> <Gold.PLP.part.hbond>
-2.4005

> <Gold.PLP.part.metal>
0.0000

> <Gold.PLP.part.buried>
-2.0390

> <Gold.PLP.part.nonpolar>
-47.8269

> <Gold.PLP.part.repulsive>
8.2213

> <Gold.PLP.ligand.clash>
0.0000

> <Gold.PLP.ligand.torsion>
1.6461

> <Gold.PLP.Chemscore.Hbond>
1.1736

> <Gold.PLP.Chemscore.CHOScore>
0.0000

> <Gold.PLP.Chemscore.Metal>
0.0000

> <Gold.Chemscore.Hbonds>
donor molecule, donor type, donor heavy atom, donor atom, acceptor molecule, acceptor atom, score
      L1  H     1    30       P1  7921  0.05
      P1  H  7954  7966       L1    28  0.15

> <Gold.PLP.Chemscore.Internal.Correction>
0.2772

> <Gold.Rescore>
     Score         DG    S(hbond)    S(metal)    S(lipo)     H(rot)  DE(clash)    DE(int)     intcor
      2.48     -10.25       0.87        0.00      91.66       3.46       5.82       1.95       ----

> <Gold.Chemscore.Fitness>
2.4834

> <Gold.Chemscore.DG>
-10.2461

> <Gold.Chemscore.ZeroCoef>
-5.4800

> <Gold.Chemscore.Hbond>
0.8674

> <Gold.Chemscore.Metal>
0.0000

> <Gold.Chemscore.Lipo>
91.6608

> <Gold.Chemscore.Internal_Hbond>
0.0000

> <Gold.Chemscore.DEClash>
5.8174

> <Gold.Chemscore.DEInternal>
1.9453

> <Gold.Chemscore.Rot>
3.4591

> <Gold.Chemscore.Internal.Correction>
   9.000000E+99

> <Gold.Chemscore.Hbonds>
donor molecule, donor type, donor heavy atom, donor atom, acceptor molecule, acceptor atom, score
      L1  H     1    29       P1 10747  0.03
      P1  H  7954  7966       L1    28  0.01

> <Gold.Chemscore.Hbond.Weighted>
-2.8971

> <Gold.Chemscore.Metal.Weighted>
-0.0000

> <Gold.Chemscore.Lipo.Weighted>
-10.7243

> <Gold.Chemscore.Internal_Hbond.Weighted>
0.0000

> <Gold.Chemscore.DEClash.Weighted>
5.8174

> <Gold.Chemscore.DEInternal.Weighted>
1.9453

> <Gold.Chemscore.Rot.Weighted>
8.8553

> <Gold.Chemscore.Internal.Correction.Weighted>
   9.000000E+99

> <Gold.Protein.RotatedTorsions>
[ 6907 6896 6895 6894 ] final   95.46 input  -60.11 | X-H torsion
[ 7974 7965 7964 7962 ] final  143.06 input  175.53 | X-H torsion
[ 8008 7997 7996 7995 ] final -122.46 input   59.86 | X-H torsion
[ 10167 10162 10161 10158 ] final  -53.80 input  -65.29 | X-H torsion
[ 10718 10713 10712 10709 ] final   81.16 input   66.30 | X-H torsion
[ 10763 10752 10751 10750 ] final  -22.92 input  -60.55 | X-H torsion
[ 11005 11000 10999 10996 ] final   55.67 input  -57.11 | X-H torsion

> <Gold.Protein.ActiveResidues>
 VAL166  LYS551  ARG553  GLY616  TRP617  ASP618  TYR619  PRO620  LYS621  CYS622 
 ASP623  PHE694  ASN695  SER759  ASP760  ASP761  ALA762  ILE779  LEU786  VAL792 
 PHE793  MET794  SER795  GLU796  ALA797  LYS798  CYS799  TRP800  GLU811  SER814 

> <Gold.Protein.RotatedAtoms>
  152.5443  134.1036  159.8328 H   0  0  0  0  0  0  0  0  0  0  0  0  # atno 6907 bound_to 6896
  151.1111  133.5165  159.2613 H   0  0  0  0  0  0  0  0  0  0  0  0  # atno 6908 bound_to 6896
  151.1883  135.0401  159.8876 H   0  0  0  0  0  0  0  0  0  0  0  0  # atno 6909 bound_to 6896
  144.8953  139.5499  143.5779 H   0  0  0  0  0  0  0  0  0  0  0  0  # atno 7974 bound_to 7965
  155.1645  140.0406  157.2850 H   0  0  0  0  0  0  0  0  0  0  0  0  # atno 8008 bound_to 7997
  154.6313  140.2524  155.7404 H   0  0  0  0  0  0  0  0  0  0  0  0  # atno 8009 bound_to 7997
  156.2486  140.2875  156.0665 H   0  0  0  0  0  0  0  0  0  0  0  0  # atno 8010 bound_to 7997
  140.6465  143.2539  151.4844 H   0  0  0  0  0  0  0  0  0  0  0  0  # atno 10167 bound_to 10162
  157.6825  130.9991  150.2185 H   0  0  0  0  0  0  0  0  0  0  0  0  # atno 10718 bound_to 10713
  153.6596  135.6977  153.5182 H   0  0  0  0  0  0  0  0  0  0  0  0  # atno 10763 bound_to 10752
  153.2642  135.4235  155.0924 H   0  0  0  0  0  0  0  0  0  0  0  0  # atno 10764 bound_to 10752
  154.8455  135.3562  154.6140 H   0  0  0  0  0  0  0  0  0  0  0  0  # atno 10765 bound_to 10752
  140.0588  134.5631  155.9176 H   0  0  0  0  0  0  0  0  0  0  0  0  # atno 11005 bound_to 11000
  146.3078  139.7639  142.9043 LP  0  0  0  0  0  0  0  0  0  0  0  0  # atno 17320 bound_to 7965
  145.3711  141.0343  143.3231 LP  0  0  0  0  0  0  0  0  0  0  0  0  # atno 17321 bound_to 7965
  139.5676  144.2004  152.1789 LP  0  0  0  0  0  0  0  0  0  0  0  0  # atno 17342 bound_to 10162
  140.1291  144.5304  150.6814 LP  0  0  0  0  0  0  0  0  0  0  0  0  # atno 17343 bound_to 10162
  156.2842  130.3737  149.7905 LP  0  0  0  0  0  0  0  0  0  0  0  0  # atno 17370 bound_to 10713
  156.5585  130.8373  151.3321 LP  0  0  0  0  0  0  0  0  0  0  0  0  # atno 17371 bound_to 10713
  141.1964  133.6591  156.5690 LP  0  0  0  0  0  0  0  0  0  0  0  0  # atno 17394 bound_to 11000
  140.3802  134.7530  157.4656 LP  0  0  0  0  0  0  0  0  0  0  0  0  # atno 17395 bound_to 11000

$$$$
