AV-unprocessed.smi:1075|AV-procd|sdf|4696|dock1
  -GOLD-   22720 3213D 1   1.00000     0.00000
 Structure written by MMmdl.
 50 51  0  0  0  0  0  0  0  0  1 V2000
  152.2222  140.3042  157.4512 C   0  0  0  0  0  0  0  0  0  0  0  0
  152.4439  141.1220  158.6915 C   0  0  0  0  0  0  0  0  0  0  0  0
  153.3385  140.7199  159.5778 N   0  0  0  0  0  0  0  0  0  0  0  0
  153.3049  141.6535  160.5482 N   0  0  0  0  0  0  0  0  0  0  0  0
  154.1841  141.5150  161.6932 C   0  0  0  0  0  0  0  0  0  0  0  0
  152.3892  142.6516  160.2735 C   0  0  0  0  0  0  0  0  0  0  0  0
  152.1773  143.8076  161.2004 C   0  0  0  0  0  0  0  0  0  0  0  0
  151.8010  142.3370  159.0736 C   0  0  0  0  0  0  0  0  0  0  0  0
  150.7352  143.0779  158.2907 C   0  0  1  0  0  0  0  0  0  0  0  0
  151.3320  143.8921  157.1270 C   0  0  0  0  0  0  0  0  0  0  0  0
  149.6474  142.0872  157.8461 C   0  0  0  0  0  0  0  0  0  0  0  0
  149.2415  141.2131  158.6126 O   0  0  0  0  0  0  0  0  0  0  0  0
  149.1840  142.2568  156.5939 N   0  0  0  0  0  0  0  0  0  0  0  0
  148.1056  141.5376  155.9057 C   0  0  1  0  0  0  0  0  0  0  0  0
  146.7563  141.8186  156.6082 C   0  0  0  0  0  0  0  0  0  0  0  0
  148.0751  141.9526  154.4089 C   0  0  0  0  0  0  0  0  0  0  0  0
  147.2140  141.0279  153.5309 C   0  0  0  0  0  0  0  0  0  0  0  0
  147.6462  139.5576  153.6539 C   0  0  2  0  0  0  0  0  0  0  0  0
  146.7881  138.6412  152.7702 C   0  0  0  0  0  0  0  0  0  0  0  0
  147.6055  139.1201  155.1270 C   0  0  0  0  0  0  0  0  0  0  0  0
  148.4686  140.0348  156.0132 C   0  0  0  0  0  0  0  0  0  0  0  0
  152.2765  140.9277  156.5585 H   0  0  0  0  0  0  0  0  0  0  0  0
  151.2402  139.8310  157.4682 H   0  0  0  0  0  0  0  0  0  0  0  0
  152.9687  139.5159  157.3466 H   0  0  0  0  0  0  0  0  0  0  0  0
  154.9541  142.2859  161.6578 H   0  0  0  0  0  0  0  0  0  0  0  0
  154.6645  140.5354  161.6952 H   0  0  0  0  0  0  0  0  0  0  0  0
  153.6105  141.6258  162.6136 H   0  0  0  0  0  0  0  0  0  0  0  0
  151.8131  144.6833  160.6650 H   0  0  0  0  0  0  0  0  0  0  0  0
  153.1040  144.0958  161.6966 H   0  0  0  0  0  0  0  0  0  0  0  0
  151.4465  143.5546  161.9687 H   0  0  0  0  0  0  0  0  0  0  0  0
  150.2342  143.7968  158.9398 H   0  0  0  0  0  0  0  0  0  0  0  0
  151.8449  143.2603  156.4022 H   0  0  0  0  0  0  0  0  0  0  0  0
  152.0538  144.6210  157.4964 H   0  0  0  0  0  0  0  0  0  0  0  0
  150.5577  144.4444  156.5935 H   0  0  0  0  0  0  0  0  0  0  0  0
  149.6038  143.0075  156.0649 H   0  0  0  0  0  0  0  0  0  0  0  0
  145.9437  141.2339  156.1793 H   0  0  0  0  0  0  0  0  0  0  0  0
  146.4638  142.8653  156.5266 H   0  0  0  0  0  0  0  0  0  0  0  0
  146.8056  141.5738  157.6697 H   0  0  0  0  0  0  0  0  0  0  0  0
  147.7174  142.9767  154.3000 H   0  0  0  0  0  0  0  0  0  0  0  0
  149.0924  141.9478  154.0131 H   0  0  0  0  0  0  0  0  0  0  0  0
  146.1635  141.1313  153.8047 H   0  0  0  0  0  0  0  0  0  0  0  0
  147.2879  141.3485  152.4911 H   0  0  0  0  0  0  0  0  0  0  0  0
  148.6775  139.4785  153.3064 H   0  0  0  0  0  0  0  0  0  0  0  0
  145.7390  138.6724  153.0665 H   0  0  0  0  0  0  0  0  0  0  0  0
  147.1226  137.6058  152.8377 H   0  0  0  0  0  0  0  0  0  0  0  0
  146.8472  138.9385  151.7231 H   0  0  0  0  0  0  0  0  0  0  0  0
  146.5759  139.1147  155.4859 H   0  0  0  0  0  0  0  0  0  0  0  0
  147.9612  138.0931  155.2170 H   0  0  0  0  0  0  0  0  0  0  0  0
  149.5112  139.8942  155.7220 H   0  0  0  0  0  0  0  0  0  0  0  0
  148.4037  139.7048  157.0510 H   0  0  0  0  0  0  0  0  0  0  0  0
  1  2  1  0  0  0  0
  1 22  1  0  0  0  0
  1 23  1  0  0  0  0
  1 24  1  0  0  0  0
  2  8  1  0  0  0  0
  2  3  2  0  0  0  0
  3  4  1  0  0  0  0
  4  5  1  0  0  0  0
  4  6  1  0  0  0  0
  5 25  1  0  0  0  0
  5 26  1  0  0  0  0
  5 27  1  0  0  0  0
  6  7  1  0  0  0  0
  6  8  2  0  0  0  0
  7 28  1  0  0  0  0
  7 29  1  0  0  0  0
  7 30  1  0  0  0  0
  8  9  1  0  0  0  0
  9 10  1  0  0  0  0
  9 11  1  0  0  0  0
  9 31  1  0  0  0  0
 10 32  1  0  0  0  0
 10 33  1  0  0  0  0
 10 34  1  0  0  0  0
 11 12  2  0  0  0  0
 11 13  1  0  0  0  0
 13 14  1  0  0  0  0
 13 35  1  0  0  0  0
 14 21  1  0  0  0  0
 14 15  1  0  0  0  0
 14 16  1  0  0  0  0
 15 36  1  0  0  0  0
 15 37  1  0  0  0  0
 15 38  1  0  0  0  0
 16 17  1  0  0  0  0
 16 39  1  0  0  0  0
 16 40  1  0  0  0  0
 17 18  1  0  0  0  0
 17 41  1  0  0  0  0
 17 42  1  0  0  0  0
 18 19  1  0  0  0  0
 18 20  1  0  0  0  0
 18 43  1  0  0  0  0
 19 44  1  0  0  0  0
 19 45  1  0  0  0  0
 19 46  1  0  0  0  0
 20 21  1  0  0  0  0
 20 47  1  0  0  0  0
 20 48  1  0  0  0  0
 21 49  1  0  0  0  0
 21 50  1  0  0  0  0
M  END
> <s_m_source_file>
AV-unprocessed.smi

> <i_m_source_file_index>
1075

> <i_lp_mmshare_version>
43012

> <i_f3d_flags>
0

> <s_epik_input>
W0NIM11jMW5uKFtDSDNdKWMoW0NIM10pYzFbQ0BIXShbQ0gzXSlDKD1PKVtOSF1bQ0BAXTIoW0NIM10pW0NIMl1bQ0gyXVtDQEBIXShbQ0gzXSlbQ0gyXVtDSDJdMg==

> <s_epik_cmdline>
J2VwaWtfcHl0aG9uJywgJy1waCcsICc3LjAnLCAnLXRuJywgJzgnLCAnLW1hJywgJzIwMCcsICctbWV0YWxfYmluZGluZycsICctaW1hZScsICc8aW5maWxlLm1hZT4nLCAnLW9tYWUnLCAnPG91dGZpbGUubWFlPic=

> <r_lp_tautomer_probability>
1

> <r_epik_Ionization_Penalty>
0.00502928

> <r_epik_Ionization_Penalty_Charging>
0

> <r_epik_Ionization_Penalty_Neutral>
0.00502928

> <r_epik_State_Penalty>
0.0036576

> <r_epik_Charging_Adjusted_Penalty>
0.0036576

> <i_epik_Tot_Q>
0

> <i_epik_Tot_abs_Q>
0

> <r_epik_Metal_State_Penalty>
-0

> <b_epik_Metal_Only>
0

> <s_lp_Force_Field>
OPLS_2005

> <r_lp_Energy>
7.42101

> <b_lp_Chiralities_Consistent>
1

> <s_lp_Variant>
AV-unprocessed.smi:1075-4

> <Gold.Version>
5.8.1

> <Gold.Id.Protein>
6NUR|6NUR_protein|mol2

> <Gold.PLP.Fitness>
38.5022

> <Gold.PLP.PLP>
-38.6177

> <Gold.PLP.part.hbond>
-2.2509

> <Gold.PLP.part.metal>
0.0000

> <Gold.PLP.part.buried>
0.7942

> <Gold.PLP.part.nonpolar>
-36.9926

> <Gold.PLP.part.repulsive>
0.0537

> <Gold.PLP.ligand.clash>
0.0000

> <Gold.PLP.ligand.torsion>
0.8479

> <Gold.PLP.Chemscore.Hbond>
0.4960

> <Gold.PLP.Chemscore.CHOScore>
0.0000

> <Gold.PLP.Chemscore.Metal>
0.0000

> <Gold.Chemscore.Hbonds>
donor molecule, donor type, donor heavy atom, donor atom, acceptor molecule, acceptor atom, score
      L1  H    13    35       P1  8028  0.58

> <Gold.PLP.Chemscore.Internal.Correction>
0.0923

> <Gold.Rescore>
     Score         DG    S(hbond)    S(metal)    S(lipo)     H(rot)  DE(clash)    DE(int)     intcor
     14.52     -17.97       0.64        0.00     115.44       1.23       1.27       2.18       ----

> <Gold.Chemscore.Fitness>
14.5237

> <Gold.Chemscore.DG>
-17.9692

> <Gold.Chemscore.ZeroCoef>
-5.4800

> <Gold.Chemscore.Hbond>
0.6398

> <Gold.Chemscore.Metal>
0.0000

> <Gold.Chemscore.Lipo>
115.4400

> <Gold.Chemscore.Internal_Hbond>
0.0000

> <Gold.Chemscore.DEClash>
1.2698

> <Gold.Chemscore.DEInternal>
2.1757

> <Gold.Chemscore.Rot>
1.2321

> <Gold.Chemscore.Internal.Correction>
   9.000000E+99

> <Gold.Chemscore.Hbonds>
donor molecule, donor type, donor heavy atom, donor atom, acceptor molecule, acceptor atom, score
      L1  H    13    35       P1  8028  0.58

> <Gold.Chemscore.Hbond.Weighted>
-2.1368

> <Gold.Chemscore.Metal.Weighted>
-0.0000

> <Gold.Chemscore.Lipo.Weighted>
-13.5065

> <Gold.Chemscore.Internal_Hbond.Weighted>
0.0000

> <Gold.Chemscore.DEClash.Weighted>
1.2698

> <Gold.Chemscore.DEInternal.Weighted>
2.1757

> <Gold.Chemscore.Rot.Weighted>
3.1541

> <Gold.Chemscore.Internal.Correction.Weighted>
   9.000000E+99

> <Gold.Protein.RotatedTorsions>
[ 6907 6896 6895 6894 ] final  -24.10 input  -60.11 | X-H torsion
[ 7974 7965 7964 7962 ] final -161.16 input  175.53 | X-H torsion
[ 8008 7997 7996 7995 ] final  -28.53 input   59.86 | X-H torsion
[ 10167 10162 10161 10158 ] final  161.80 input  -65.29 | X-H torsion
[ 10718 10713 10712 10709 ] final   84.08 input   66.30 | X-H torsion
[ 10763 10752 10751 10750 ] final  113.00 input  -60.55 | X-H torsion
[ 11005 11000 10999 10996 ] final  -83.02 input  -57.11 | X-H torsion

> <Gold.Protein.ActiveResidues>
 VAL166  LYS551  ARG553  GLY616  TRP617  ASP618  TYR619  PRO620  LYS621  CYS622 
 ASP623  PHE694  ASN695  SER759  ASP760  ASP761  ALA762  ILE779  LEU786  VAL792 
 PHE793  MET794  SER795  GLU796  ALA797  LYS798  CYS799  TRP800  GLU811  SER814 

> <Gold.Protein.RotatedAtoms>
  151.1944  135.0416  159.8845 H   0  0  0  0  0  0  0  0  0  0  0  0  # atno 6907 bound_to 6896
  152.5437  134.0920  159.8291 H   0  0  0  0  0  0  0  0  0  0  0  0  # atno 6908 bound_to 6896
  151.1052  133.5166  159.2640 H   0  0  0  0  0  0  0  0  0  0  0  0  # atno 6909 bound_to 6896
  144.7401  140.3437  143.6129 H   0  0  0  0  0  0  0  0  0  0  0  0  # atno 7974 bound_to 7965
  154.4328  140.1843  156.1104 H   0  0  0  0  0  0  0  0  0  0  0  0  # atno 8008 bound_to 7997
  156.0222  140.3339  155.7025 H   0  0  0  0  0  0  0  0  0  0  0  0  # atno 8009 bound_to 7997
  155.5960  140.0635  157.2737 H   0  0  0  0  0  0  0  0  0  0  0  0  # atno 8010 bound_to 7997
  139.4853  144.4501  151.8841 H   0  0  0  0  0  0  0  0  0  0  0  0  # atno 10167 bound_to 10162
  157.6891  131.0118  150.2619 H   0  0  0  0  0  0  0  0  0  0  0  0  # atno 10718 bound_to 10713
  153.4861  135.3669  155.2467 H   0  0  0  0  0  0  0  0  0  0  0  0  # atno 10763 bound_to 10752
  154.8754  135.3966  154.3643 H   0  0  0  0  0  0  0  0  0  0  0  0  # atno 10764 bound_to 10752
  153.4255  135.7081  153.6331 H   0  0  0  0  0  0  0  0  0  0  0  0  # atno 10765 bound_to 10752
  141.1660  133.7273  156.8658 H   0  0  0  0  0  0  0  0  0  0  0  0  # atno 11005 bound_to 11000
  145.7348  139.1746  143.2410 LP  0  0  0  0  0  0  0  0  0  0  0  0  # atno 17320 bound_to 7965
  146.1179  140.7346  142.9472 LP  0  0  0  0  0  0  0  0  0  0  0  0  # atno 17321 bound_to 7965
  140.3957  144.2558  150.5896 LP  0  0  0  0  0  0  0  0  0  0  0  0  # atno 17342 bound_to 10162
  140.5104  143.2292  151.8543 LP  0  0  0  0  0  0  0  0  0  0  0  0  # atno 17343 bound_to 10162
  156.3197  130.3784  149.7586 LP  0  0  0  0  0  0  0  0  0  0  0  0  # atno 17370 bound_to 10713
  156.5160  130.8193  151.3186 LP  0  0  0  0  0  0  0  0  0  0  0  0  # atno 17371 bound_to 10713
  140.1817  134.9029  157.2956 LP  0  0  0  0  0  0  0  0  0  0  0  0  # atno 17394 bound_to 11000
  140.2388  134.3820  155.7489 LP  0  0  0  0  0  0  0  0  0  0  0  0  # atno 17395 bound_to 11000

$$$$
