AV-unprocessed.smi:82|AV-procd|sdf|797|dock6
  -GOLD-   2262017173D 1   1.00000     0.00000
 Structure written by MMmdl.
 59 62  0  0  0  0  0  0  0  0  2 V2000
  152.3568  144.6764  158.0791 C   0  0  0  0  0  0  0  0  0  0  0  0
  151.0671  144.0927  158.0136 O   0  0  0  0  0  0  0  0  0  0  0  0
  151.1107  142.7087  157.7079 C   0  0  0  0  0  0  0  0  0  0  0  0
  149.7177  142.1035  157.9468 C   0  0  0  0  0  0  0  0  0  0  0  0
  148.8908  142.0588  156.7065 N   0  3  1  0  0  0  0  0  0  0  0  0
  149.5127  141.1841  155.6712 C   0  0  0  0  0  0  0  0  0  0  0  0
  148.7145  141.1740  154.3576 C   0  0  0  0  0  0  0  0  0  0  0  0
  147.3114  140.8681  154.5863 N   0  0  0  0  0  0  0  0  0  0  0  0
  146.9702  139.5612  154.5543 C   0  0  0  0  0  0  0  0  0  0  0  0
  147.0274  138.8133  155.6861 N   0  0  0  0  0  0  0  0  0  0  0  0
  146.6904  137.5207  155.6477 C   0  0  0  0  0  0  0  0  0  0  0  0
  146.2770  136.7974  154.6049 N   0  0  0  0  0  0  0  0  0  0  0  0
  146.2170  137.5482  153.4666 C   0  0  0  0  0  0  0  0  0  0  0  0
  146.5444  138.9287  153.3577 C   0  0  0  0  0  0  0  0  0  0  0  0
  146.3658  139.3625  152.0516 N   0  0  0  0  0  0  0  0  0  0  0  0
  145.9548  138.2967  151.4198 C   0  0  0  0  0  0  0  0  0  0  0  0
  145.8367  137.1609  152.1911 N   0  0  0  0  0  0  0  0  0  0  0  0
  145.4100  135.8656  151.7395 C   0  0  0  0  0  0  0  0  0  0  0  0
  143.9362  135.5589  151.4670 C   0  0  0  0  0  0  0  0  0  0  0  0
  144.1646  134.0983  151.9212 C   0  0  0  0  0  0  0  0  0  0  0  0
  143.0336  133.5215  152.7908 C   0  0  0  0  0  0  0  0  0  0  0  0
  142.9978  134.1102  154.0745 O   0  0  0  0  0  0  0  0  0  0  0  0
  144.4620  133.1264  150.7599 C   0  0  0  0  0  0  0  0  0  0  0  0
  143.2835  132.6222  150.1657 O   0  0  0  0  0  0  0  0  0  0  0  0
  145.3896  134.6607  152.6804 C   0  0  0  0  0  0  0  0  0  0  0  0
  146.6619  141.6784  155.6062 C   0  0  0  0  0  0  0  0  0  0  0  0
  147.4482  141.7229  156.9389 C   0  0  2  0  0  0  0  0  0  0  0  0
  146.7377  142.7204  157.8768 C   0  0  0  0  0  0  0  0  0  0  0  0
  152.2675  145.7353  158.3225 H   0  0  0  0  0  0  0  0  0  0  0  0
  152.8766  144.5939  157.1235 H   0  0  0  0  0  0  0  0  0  0  0  0
  152.9653  144.2036  158.8512 H   0  0  0  0  0  0  0  0  0  0  0  0
  151.4563  142.5485  156.6870 H   0  0  0  0  0  0  0  0  0  0  0  0
  151.8314  142.2175  158.3632 H   0  0  0  0  0  0  0  0  0  0  0  0
  149.8068  141.0991  158.3628 H   0  0  0  0  0  0  0  0  0  0  0  0
  149.2509  142.7046  158.7225 H   0  0  0  0  0  0  0  0  0  0  0  0
  150.5259  141.5126  155.4471 H   0  0  0  0  0  0  0  0  0  0  0  0
  149.5992  140.1700  156.0626 H   0  0  0  0  0  0  0  0  0  0  0  0
  148.7754  142.1528  153.8805 H   0  0  0  0  0  0  0  0  0  0  0  0
  149.1481  140.4597  153.6561 H   0  0  0  0  0  0  0  0  0  0  0  0
  146.7621  136.9896  156.5854 H   0  0  0  0  0  0  0  0  0  0  0  0
  145.7258  138.3125  150.3639 H   0  0  0  0  0  0  0  0  0  0  0  0
  146.0075  135.6333  150.8559 H   0  0  0  0  0  0  0  0  0  0  0  0
  143.2597  136.1113  152.1205 H   0  0  0  0  0  0  0  0  0  0  0  0
  143.6403  135.6739  150.4237 H   0  0  0  0  0  0  0  0  0  0  0  0
  142.0623  133.6976  152.3276 H   0  0  0  0  0  0  0  0  0  0  0  0
  143.1286  132.4406  152.8992 H   0  0  0  0  0  0  0  0  0  0  0  0
  142.9691  133.4218  154.7211 H   0  0  0  0  0  0  0  0  0  0  0  0
  145.0630  133.6089  149.9885 H   0  0  0  0  0  0  0  0  0  0  0  0
  145.0446  132.2714  151.1035 H   0  0  0  0  0  0  0  0  0  0  0  0
  142.6610  133.3282  150.0841 H   0  0  0  0  0  0  0  0  0  0  0  0
  146.2857  134.0414  152.6350 H   0  0  0  0  0  0  0  0  0  0  0  0
  145.1582  134.9287  153.7125 H   0  0  0  0  0  0  0  0  0  0  0  0
  146.5579  142.6875  155.2059 H   0  0  0  0  0  0  0  0  0  0  0  0
  145.6481  141.3120  155.7766 H   0  0  0  0  0  0  0  0  0  0  0  0
  147.4062  140.7357  157.4007 H   0  0  0  0  0  0  0  0  0  0  0  0
  145.6600  142.5530  157.8733 H   0  0  0  0  0  0  0  0  0  0  0  0
  146.9089  143.7512  157.5646 H   0  0  0  0  0  0  0  0  0  0  0  0
  147.0506  142.6209  158.9149 H   0  0  0  0  0  0  0  0  0  0  0  0
  148.8938  142.9969  156.3320 H   0  0  0  0  0  0  0  0  0  0  0  0
  1  2  1  0  0  0  0
  1 29  1  0  0  0  0
  1 30  1  0  0  0  0
  1 31  1  0  0  0  0
  2  3  1  0  0  0  0
  3  4  1  0  0  0  0
  3 32  1  0  0  0  0
  3 33  1  0  0  0  0
  4  5  1  0  0  0  0
  4 34  1  0  0  0  0
  4 35  1  0  0  0  0
  5 27  1  0  0  0  0
  5  6  1  0  0  0  0
  5 59  1  0  0  0  0
  6  7  1  0  0  0  0
  6 36  1  0  0  0  0
  6 37  1  0  0  0  0
  7  8  1  0  0  0  0
  7 38  1  0  0  0  0
  7 39  1  0  0  0  0
  8  9  1  0  0  0  0
  8 26  1  0  0  0  0
  9 14  1  0  0  0  0
  9 10  2  0  0  0  0
 10 11  1  0  0  0  0
 11 12  2  0  0  0  0
 11 40  1  0  0  0  0
 12 13  1  0  0  0  0
 13 17  1  0  0  0  0
 13 14  2  0  0  0  0
 14 15  1  0  0  0  0
 15 16  2  0  0  0  0
 16 17  1  0  0  0  0
 16 41  1  0  0  0  0
 17 18  1  0  0  0  0
 18 25  1  0  0  0  0
 18 19  1  0  0  0  0
 18 42  1  0  0  0  0
 19 20  1  0  0  0  0
 19 43  1  0  0  0  0
 19 44  1  0  0  0  0
 20 21  1  0  0  0  0
 20 23  1  0  0  0  0
 20 25  1  0  0  0  0
 21 22  1  0  0  0  0
 21 45  1  0  0  0  0
 21 46  1  0  0  0  0
 22 47  1  0  0  0  0
 23 24  1  0  0  0  0
 23 48  1  0  0  0  0
 23 49  1  0  0  0  0
 24 50  1  0  0  0  0
 25 51  1  0  0  0  0
 25 52  1  0  0  0  0
 26 27  1  0  0  0  0
 26 53  1  0  0  0  0
 26 54  1  0  0  0  0
 27 28  1  0  0  0  0
 27 55  1  0  0  0  0
 28 56  1  0  0  0  0
 28 57  1  0  0  0  0
 28 58  1  0  0  0  0
M  CHG  1   5   1
M  END
> <s_m_source_file>
AV-unprocessed.smi

> <i_m_source_file_index>
82

> <i_lp_mmshare_version>
43012

> <i_f3d_flags>
0

> <s_epik_input>
W0NIM11PW0NIMl1bQ0gyXU4xW0NIMl1bQ0gyXU4oW0NIMl1bQ0BIXTFbQ0gzXSljKG5bY0hdbjIpYyhjMjMpbltjSF1uM1tDSF0oW0NIMl00KVtDSDJdQzQoW0NIMl1bT0hdKVtDSDJdW09IXQ==

> <s_epik_cmdline>
J2VwaWtfcHl0aG9uJywgJy1waCcsICc3LjAnLCAnLXRuJywgJzgnLCAnLW1hJywgJzIwMCcsICctbWV0YWxfYmluZGluZycsICctaW1hZScsICc8aW5maWxlLm1hZT4nLCAnLW9tYWUnLCAnPG91dGZpbGUubWFlPic=

> <r_lp_tautomer_probability>
1

> <r_epik_Ionization_Penalty>
0.304275

> <r_epik_Ionization_Penalty_Charging>
0.304214

> <r_epik_Ionization_Penalty_Neutral>
6.13137e-05

> <r_epik_State_Penalty>
0.300354

> <r_epik_Charging_Adjusted_Penalty>
0.604567

> <i_epik_Tot_Q>
1

> <i_epik_Tot_abs_Q>
1

> <r_epik_Metal_State_Penalty>
0.301147

> <b_epik_Metal_Only>
0

> <s_lp_Force_Field>
OPLS_2005

> <r_lp_Energy>
60.5055

> <b_lp_Chiralities_Consistent>
1

> <s_lp_Variant>
AV-unprocessed.smi:82-4

> <Gold.Version>
5.8.1

> <Gold.Id.Protein>
6NUR|6NUR_protein|mol2

> <Gold.PLP.Fitness>
52.6708

> <Gold.PLP.PLP>
-41.4850

> <Gold.PLP.part.hbond>
-3.0000

> <Gold.PLP.part.metal>
0.0000

> <Gold.PLP.part.buried>
-0.0217

> <Gold.PLP.part.nonpolar>
-40.1275

> <Gold.PLP.part.repulsive>
1.6522

> <Gold.PLP.ligand.clash>
0.0000

> <Gold.PLP.ligand.torsion>
1.5131

> <Gold.PLP.Chemscore.Hbond>
3.9913

> <Gold.PLP.Chemscore.CHOScore>
0.4612

> <Gold.PLP.Chemscore.Metal>
0.0000

> <Gold.Chemscore.Hbonds>
donor molecule, donor type, donor heavy atom, donor atom, acceptor molecule, acceptor atom, score
      L1  H     5    59       P1  8028  2.00
      L1  H    22    47       P1 10957  0.77
      L1  H    24    50       P1 10186  0.94
      L1  C    16    41       P1 10171  0.61

> <Gold.PLP.Chemscore.Internal.Correction>
0.8548

> <Gold.Rescore>
     Score         DG    S(hbond)    S(metal)    S(lipo)     H(rot)  DE(clash)    DE(int)     intcor
     10.98     -15.79       2.93        0.00      90.03       3.91       2.58       2.24       ----

> <Gold.Chemscore.Fitness>
10.9766

> <Gold.Chemscore.DG>
-15.7904

> <Gold.Chemscore.ZeroCoef>
-5.4800

> <Gold.Chemscore.Hbond>
2.9266

> <Gold.Chemscore.Metal>
0.0000

> <Gold.Chemscore.Lipo>
90.0310

> <Gold.Chemscore.Internal_Hbond>
0.0000

> <Gold.Chemscore.DEClash>
2.5760

> <Gold.Chemscore.DEInternal>
2.2378

> <Gold.Chemscore.Rot>
3.9055

> <Gold.Chemscore.Internal.Correction>
   9.000000E+99

> <Gold.Chemscore.Hbonds>
donor molecule, donor type, donor heavy atom, donor atom, acceptor molecule, acceptor atom, score
      L1  H     5    59       P1  8028  1.00
      L1  H    22    47       P1 10957  0.78
      L1  H    24    50       P1 10186  0.90

> <Gold.Chemscore.Hbond.Weighted>
-9.7748

> <Gold.Chemscore.Metal.Weighted>
-0.0000

> <Gold.Chemscore.Lipo.Weighted>
-10.5336

> <Gold.Chemscore.Internal_Hbond.Weighted>
0.0000

> <Gold.Chemscore.DEClash.Weighted>
2.5760

> <Gold.Chemscore.DEInternal.Weighted>
2.2378

> <Gold.Chemscore.Rot.Weighted>
9.9980

> <Gold.Chemscore.Internal.Correction.Weighted>
   9.000000E+99

> <Gold.Protein.RotatedTorsions>
[ 6907 6896 6895 6894 ] final   -4.28 input  -60.11 | X-H torsion
[ 7974 7965 7964 7962 ] final -115.70 input  175.53 | X-H torsion
[ 8008 7997 7996 7995 ] final    0.85 input   59.86 | X-H torsion
[ 10167 10162 10161 10158 ] final   44.04 input  -65.29 | X-H torsion
[ 10718 10713 10712 10709 ] final   85.90 input   66.30 | X-H torsion
[ 10763 10752 10751 10750 ] final  -35.44 input  -60.55 | X-H torsion
[ 11005 11000 10999 10996 ] final  164.08 input  -57.11 | X-H torsion

> <Gold.Protein.ActiveResidues>
 VAL166  LYS551  ARG553  GLY616  TRP617  ASP618  TYR619  PRO620  LYS621  CYS622 
 ASP623  PHE694  ASN695  SER759  ASP760  ASP761  ALA762  ILE779  LEU786  VAL792 
 PHE793  MET794  SER795  GLU796  ALA797  LYS798  CYS799  TRP800  GLU811  SER814 

> <Gold.Protein.RotatedAtoms>
  151.5002  135.1061  159.9826 H   0  0  0  0  0  0  0  0  0  0  0  0  # atno 6907 bound_to 6896
  152.4705  133.8014  159.6965 H   0  0  0  0  0  0  0  0  0  0  0  0  # atno 6908 bound_to 6896
  150.8711  133.7441  159.2987 H   0  0  0  0  0  0  0  0  0  0  0  0  # atno 6909 bound_to 6896
  145.1053  140.8578  143.3902 H   0  0  0  0  0  0  0  0  0  0  0  0  # atno 7974 bound_to 7965
  154.6729  140.2616  155.6988 H   0  0  0  0  0  0  0  0  0  0  0  0  # atno 8008 bound_to 7997
  156.2666  140.2826  156.1167 H   0  0  0  0  0  0  0  0  0  0  0  0  # atno 8009 bound_to 7997
  155.1142  140.0376  157.2722 H   0  0  0  0  0  0  0  0  0  0  0  0  # atno 8010 bound_to 7997
  140.3383  144.2502  150.6159 H   0  0  0  0  0  0  0  0  0  0  0  0  # atno 10167 bound_to 10162
  157.6921  131.0194  150.2892 H   0  0  0  0  0  0  0  0  0  0  0  0  # atno 10718 bound_to 10713
  153.8632  135.6838  153.4781 H   0  0  0  0  0  0  0  0  0  0  0  0  # atno 10763 bound_to 10752
  153.1330  135.4690  154.9376 H   0  0  0  0  0  0  0  0  0  0  0  0  # atno 10764 bound_to 10752
  154.7749  135.3250  154.8063 H   0  0  0  0  0  0  0  0  0  0  0  0  # atno 10765 bound_to 10752
  140.2422  134.8042  157.3422 H   0  0  0  0  0  0  0  0  0  0  0  0  # atno 11005 bound_to 11000
  145.0908  139.2891  143.5736 LP  0  0  0  0  0  0  0  0  0  0  0  0  # atno 17320 bound_to 7965
  146.3528  140.0445  142.8640 LP  0  0  0  0  0  0  0  0  0  0  0  0  # atno 17321 bound_to 7965
  140.5333  143.2238  151.8204 LP  0  0  0  0  0  0  0  0  0  0  0  0  # atno 17342 bound_to 10162
  139.4844  144.4693  151.9445 LP  0  0  0  0  0  0  0  0  0  0  0  0  # atno 17343 bound_to 10162
  156.3426  130.3818  149.7396 LP  0  0  0  0  0  0  0  0  0  0  0  0  # atno 17370 bound_to 10713
  156.4900  130.8080  151.3090 LP  0  0  0  0  0  0  0  0  0  0  0  0  # atno 17371 bound_to 10713
  140.1641  134.4691  155.7875 LP  0  0  0  0  0  0  0  0  0  0  0  0  # atno 17394 bound_to 11000
  141.2209  133.6914  156.7595 LP  0  0  0  0  0  0  0  0  0  0  0  0  # atno 17395 bound_to 11000

$$$$
