AV-unprocessed.smi:51|AV-procd|sdf|503|dock7
  -GOLD-   2262016373D 1   1.00000     0.00000
 Structure written by MMmdl.
 26 27  0  0  0  0  0  0  0  0  3 V2000
  153.2221  138.7623  159.7514 O   0  0  0  0  0  0  0  0  0  0  0  0
  153.7893  139.5454  158.9594 C   0  0  0  0  0  0  0  0  0  0  0  0
  153.9499  139.3476  157.7345 O   0  5  0  0  0  0  0  0  0  0  0  0
  154.3471  140.8462  159.5574 C   0  0  2  0  0  0  0  0  0  0  0  0
  155.2541  140.5919  160.7754 C   0  0  0  0  0  0  0  0  0  0  0  0
  154.3269  140.8016  161.9752 C   0  0  1  0  0  0  0  0  0  0  0  0
  155.0290  141.1608  163.1462 O   0  0  0  0  0  0  0  0  0  0  0  0
  153.3858  141.9083  161.4973 C   0  0  0  0  0  0  0  0  0  0  0  0
  153.2712  141.6979  160.0606 N   0  0  0  0  0  0  0  0  0  0  0  0
  152.5071  142.5506  159.2381 C   0  0  0  0  0  0  0  0  0  0  0  0
  152.2579  143.8987  159.5743 C   0  0  0  0  0  0  0  0  0  0  0  0
  151.4907  144.6588  158.6733 C   0  0  0  0  0  0  0  0  0  0  0  0
  151.0161  144.0988  157.5352 N   0  3  0  0  0  0  0  0  0  0  0  0
  151.2840  142.8119  157.2729 C   0  0  0  0  0  0  0  0  0  0  0  0
  152.0082  142.0384  158.0894 N   0  0  0  0  0  0  0  0  0  0  0  0
  154.9203  141.3720  158.7926 H   0  0  0  0  0  0  0  0  0  0  0  0
  155.7255  139.6078  160.7764 H   0  0  0  0  0  0  0  0  0  0  0  0
  156.0526  141.3354  160.7849 H   0  0  0  0  0  0  0  0  0  0  0  0
  153.7578  139.8900  162.1627 H   0  0  0  0  0  0  0  0  0  0  0  0
  154.8334  142.0636  163.3452 H   0  0  0  0  0  0  0  0  0  0  0  0
  152.4191  141.8533  161.9993 H   0  0  0  0  0  0  0  0  0  0  0  0
  153.8144  142.8955  161.6779 H   0  0  0  0  0  0  0  0  0  0  0  0
  152.6379  144.3515  160.4778 H   0  0  0  0  0  0  0  0  0  0  0  0
  151.2426  145.6988  158.8262 H   0  0  0  0  0  0  0  0  0  0  0  0
  150.8855  142.4095  156.3534 H   0  0  0  0  0  0  0  0  0  0  0  0
  150.4620  144.6598  156.8881 H   0  0  0  0  0  0  0  0  0  0  0  0
  1  2  2  0  0  0  0
  2  3  1  0  0  0  0
  2  4  1  0  0  0  0
  4  9  1  0  0  0  0
  4  5  1  0  0  0  0
  4 16  1  0  0  0  0
  5  6  1  0  0  0  0
  5 17  1  0  0  0  0
  5 18  1  0  0  0  0
  6  7  1  0  0  0  0
  6  8  1  0  0  0  0
  6 19  1  0  0  0  0
  7 20  1  0  0  0  0
  8  9  1  0  0  0  0
  8 21  1  0  0  0  0
  8 22  1  0  0  0  0
  9 10  1  0  0  0  0
 10 15  1  0  0  0  0
 10 11  2  0  0  0  0
 11 12  1  0  0  0  0
 11 23  1  0  0  0  0
 12 13  2  0  0  0  0
 12 24  1  0  0  0  0
 13 14  1  0  0  0  0
 13 26  1  0  0  0  0
 14 15  2  0  0  0  0
 14 25  1  0  0  0  0
M  CHG  1   3  -1
M  CHG  1  13   1
M  END
> <s_m_source_file>
AV-unprocessed.smi

> <i_m_source_file_index>
51

> <i_lp_mmshare_version>
43012

> <i_f3d_flags>
0

> <s_epik_input>
Tz1DKFtPSF0pW0NAQEhdMVtDSDJdW0NAQEhdKFtPSF0pW0NIMl1OMWMyW2NIXVtjSF1uW2NIXW4y

> <s_epik_cmdline>
J2VwaWtfcHl0aG9uJywgJy1waCcsICc3LjAnLCAnLXRuJywgJzgnLCAnLW1hJywgJzIwMCcsICctbWV0YWxfYmluZGluZycsICctaW1hZScsICc8aW5maWxlLm1hZT4nLCAnLW9tYWUnLCAnPG91dGZpbGUubWFlPic=

> <r_lp_tautomer_probability>
0.999336

> <r_epik_Ionization_Penalty>
0.688427

> <r_epik_Ionization_Penalty_Charging>
0.688427

> <r_epik_Ionization_Penalty_Neutral>
1.98379e-07

> <r_epik_State_Penalty>
0.709817

> <r_epik_Charging_Adjusted_Penalty>
1.39824

> <i_epik_Tot_Q>
0

> <i_epik_Tot_abs_Q>
2

> <r_epik_Metal_State_Penalty>
0.873261

> <b_epik_Metal_Only>
0

> <s_lp_Force_Field>
OPLS_2005

> <r_lp_Energy>
13.2296

> <b_lp_Chiralities_Consistent>
1

> <s_lp_Variant>
AV-unprocessed.smi:51-5

> <Gold.Version>
5.8.1

> <Gold.Id.Protein>
6NUR|6NUR_protein|mol2

> <Gold.PLP.Fitness>
45.6698

> <Gold.PLP.PLP>
-34.8711

> <Gold.PLP.part.hbond>
-3.0000

> <Gold.PLP.part.metal>
0.0000

> <Gold.PLP.part.buried>
-3.8958

> <Gold.PLP.part.nonpolar>
-28.5413

> <Gold.PLP.part.repulsive>
0.0334

> <Gold.PLP.ligand.clash>
0.0000

> <Gold.PLP.ligand.torsion>
0.6334

> <Gold.PLP.Chemscore.Hbond>
3.9840

> <Gold.PLP.Chemscore.CHOScore>
0.0000

> <Gold.PLP.Chemscore.Metal>
0.0000

> <Gold.Chemscore.Hbonds>
donor molecule, donor type, donor heavy atom, donor atom, acceptor molecule, acceptor atom, score
      L1  H    13    26       P1  8028  1.92
      P1  H  7997  8010       L1     3  0.49

> <Gold.PLP.Chemscore.Internal.Correction>
0.1136

> <Gold.Rescore>
     Score         DG    S(hbond)    S(metal)    S(lipo)     H(rot)  DE(clash)    DE(int)     intcor
     13.79     -14.79       1.95        0.00      61.07       1.70       0.56       0.43       ----

> <Gold.Chemscore.Fitness>
13.7949

> <Gold.Chemscore.DG>
-14.7876

> <Gold.Chemscore.ZeroCoef>
-5.4800

> <Gold.Chemscore.Hbond>
1.9519

> <Gold.Chemscore.Metal>
0.0000

> <Gold.Chemscore.Lipo>
61.0700

> <Gold.Chemscore.Internal_Hbond>
0.0000

> <Gold.Chemscore.DEClash>
0.5633

> <Gold.Chemscore.DEInternal>
0.4294

> <Gold.Chemscore.Rot>
1.7020

> <Gold.Chemscore.Internal.Correction>
   9.000000E+99

> <Gold.Chemscore.Hbonds>
donor molecule, donor type, donor heavy atom, donor atom, acceptor molecule, acceptor atom, score
      L1  H    13    26       P1  8028  0.71
      P1  H  7997  8010       L1     3  0.22

> <Gold.Chemscore.Hbond.Weighted>
-6.5195

> <Gold.Chemscore.Metal.Weighted>
-0.0000

> <Gold.Chemscore.Lipo.Weighted>
-7.1452

> <Gold.Chemscore.Internal_Hbond.Weighted>
0.0000

> <Gold.Chemscore.DEClash.Weighted>
0.5633

> <Gold.Chemscore.DEInternal.Weighted>
0.4294

> <Gold.Chemscore.Rot.Weighted>
4.3571

> <Gold.Chemscore.Internal.Correction.Weighted>
   9.000000E+99

> <Gold.Protein.RotatedTorsions>
[ 6907 6896 6895 6894 ] final  175.87 input  -60.11 | X-H torsion
[ 7974 7965 7964 7962 ] final   12.01 input  175.53 | X-H torsion
[ 8008 7997 7996 7995 ] final   14.30 input   59.86 | X-H torsion
[ 10167 10162 10161 10158 ] final   52.37 input  -65.29 | X-H torsion
[ 10718 10713 10712 10709 ] final  114.42 input   66.30 | X-H torsion
[ 10763 10752 10751 10750 ] final   22.45 input  -60.55 | X-H torsion
[ 11005 11000 10999 10996 ] final   79.40 input  -57.11 | X-H torsion

> <Gold.Protein.ActiveResidues>
 VAL166  LYS551  ARG553  GLY616  TRP617  ASP618  TYR619  PRO620  LYS621  CYS622 
 ASP623  PHE694  ASN695  SER759  ASP760  ASP761  ALA762  ILE779  LEU786  VAL792 
 PHE793  MET794  SER795  GLU796  ALA797  LYS798  CYS799  TRP800  GLU811  SER814 

> <Gold.Protein.RotatedAtoms>
  151.7293  133.3317  159.3335 H   0  0  0  0  0  0  0  0  0  0  0  0  # atno 6907 bound_to 6896
  150.7619  134.6377  159.6230 H   0  0  0  0  0  0  0  0  0  0  0  0  # atno 6908 bound_to 6896
  152.3602  134.6885  160.0261 H   0  0  0  0  0  0  0  0  0  0  0  0  # atno 6909 bound_to 6896
  146.2360  139.9400  142.8484 H   0  0  0  0  0  0  0  0  0  0  0  0  # atno 7974 bound_to 7965
  154.8465  140.2923  155.5625 H   0  0  0  0  0  0  0  0  0  0  0  0  # atno 8008 bound_to 7997
  156.3014  140.2504  156.3348 H   0  0  0  0  0  0  0  0  0  0  0  0  # atno 8009 bound_to 7997
  154.9068  140.0390  157.1913 H   0  0  0  0  0  0  0  0  0  0  0  0  # atno 8010 bound_to 7997
  140.2520  144.3468  150.6345 H   0  0  0  0  0  0  0  0  0  0  0  0  # atno 10167 bound_to 10162
  157.6282  131.0998  150.7183 H   0  0  0  0  0  0  0  0  0  0  0  0  # atno 10718 bound_to 10713
  153.0914  135.6648  153.9846 H   0  0  0  0  0  0  0  0  0  0  0  0  # atno 10763 bound_to 10752
  153.9442  135.2990  155.3443 H   0  0  0  0  0  0  0  0  0  0  0  0  # atno 10764 bound_to 10752
  154.7329  135.5115  153.9067 H   0  0  0  0  0  0  0  0  0  0  0  0  # atno 10765 bound_to 10752
  139.9174  134.7840  156.1774 H   0  0  0  0  0  0  0  0  0  0  0  0  # atno 11005 bound_to 11000
  145.1962  140.9834  143.4182 LP  0  0  0  0  0  0  0  0  0  0  0  0  # atno 17320 bound_to 7965
  144.9814  139.3780  143.6260 LP  0  0  0  0  0  0  0  0  0  0  0  0  # atno 17321 bound_to 7965
  140.6033  143.2167  151.7030 LP  0  0  0  0  0  0  0  0  0  0  0  0  # atno 17342 bound_to 10162
  139.5043  144.3759  152.0424 LP  0  0  0  0  0  0  0  0  0  0  0  0  # atno 17343 bound_to 10162
  156.7528  130.4774  149.5453 LP  0  0  0  0  0  0  0  0  0  0  0  0  # atno 17370 bound_to 10713
  156.1468  130.6282  151.0541 LP  0  0  0  0  0  0  0  0  0  0  0  0  # atno 17371 bound_to 10713
  141.0663  133.6818  156.2051 LP  0  0  0  0  0  0  0  0  0  0  0  0  # atno 17394 bound_to 11000
  140.6580  134.4998  157.5582 LP  0  0  0  0  0  0  0  0  0  0  0  0  # atno 17395 bound_to 11000

$$$$
