AV-unprocessed.smi:1056|AV-procd|sdf|4636|dock7
  -GOLD-   22720 3143D 1   1.00000     0.00000
 Structure written by MMmdl.
 46 48  0  0  0  0  0  0  0  0  3 V2000
  151.8859  142.7805  160.7195 C   0  0  0  0  0  0  0  0  0  0  0  0
  151.6455  142.1060  159.3794 C   0  0  0  0  0  0  0  0  0  0  0  0
  150.8017  142.7453  158.4435 C   0  0  0  0  0  0  0  0  0  0  0  0
  150.6025  142.1034  157.2270 C   0  0  0  0  0  0  0  0  0  0  0  0
  149.8403  142.4692  156.1159 N   0  3  0  0  0  0  0  0  0  0  0  0
  149.9557  141.5155  155.1512 C   0  0  0  0  0  0  0  0  0  0  0  0
  150.7783  140.5426  155.6300 N   0  0  0  0  0  0  0  0  0  0  0  0
  151.2298  139.2978  154.9898 C   0  0  0  0  0  0  0  0  0  0  0  0
  150.0859  138.2889  154.7640 C   0  0  2  0  0  0  0  0  0  0  0  0
  150.5954  137.1190  154.1528 O   0  0  0  0  0  0  0  0  0  0  0  0
  148.9785  138.8727  153.8646 C   0  0  0  0  0  0  0  0  0  0  0  0
  147.8804  137.9044  153.6142 N   0  3  1  0  0  0  0  0  0  0  0  0
  147.4135  137.2074  154.8364 C   0  0  0  0  0  0  0  0  0  0  0  0
  146.4368  136.0785  154.4630 C   0  0  0  0  0  0  0  0  0  0  0  0
  145.4649  136.4773  153.4476 N   0  0  0  0  0  0  0  0  0  0  0  0
  145.5524  137.5708  152.6729 C   0  0  0  0  0  0  0  0  0  0  0  0
  144.6992  137.8368  151.8303 O   0  0  0  0  0  0  0  0  0  0  0  0
  146.7540  138.5102  152.8591 C   0  0  0  0  0  0  0  0  0  0  0  0
  151.2080  140.8681  156.9234 C   0  0  0  0  0  0  0  0  0  0  0  0
  152.0409  140.2242  157.8365 C   0  0  0  0  0  0  0  0  0  0  0  0
  152.2574  140.8616  159.0792 C   0  0  0  0  0  0  0  0  0  0  0  0
  153.1633  140.1833  160.0927 C   0  0  0  0  0  0  0  0  0  0  0  0
  151.3161  143.7056  160.8088 H   0  0  0  0  0  0  0  0  0  0  0  0
  152.9414  143.0258  160.8398 H   0  0  0  0  0  0  0  0  0  0  0  0
  151.5863  142.1259  161.5382 H   0  0  0  0  0  0  0  0  0  0  0  0
  150.3325  143.6928  158.6649 H   0  0  0  0  0  0  0  0  0  0  0  0
  149.4795  141.5304  154.1813 H   0  0  0  0  0  0  0  0  0  0  0  0
  151.6716  139.5750  154.0320 H   0  0  0  0  0  0  0  0  0  0  0  0
  152.0359  138.8589  155.5779 H   0  0  0  0  0  0  0  0  0  0  0  0
  149.6777  138.0090  155.7349 H   0  0  0  0  0  0  0  0  0  0  0  0
  150.0826  136.9298  153.3816 H   0  0  0  0  0  0  0  0  0  0  0  0
  148.5614  139.7793  154.3060 H   0  0  0  0  0  0  0  0  0  0  0  0
  149.4266  139.1769  152.9169 H   0  0  0  0  0  0  0  0  0  0  0  0
  148.2492  136.7924  155.3989 H   0  0  0  0  0  0  0  0  0  0  0  0
  146.9198  137.9278  155.4909 H   0  0  0  0  0  0  0  0  0  0  0  0
  146.9940  135.2281  154.0686 H   0  0  0  0  0  0  0  0  0  0  0  0
  145.9097  135.7241  155.3493 H   0  0  0  0  0  0  0  0  0  0  0  0
  144.6658  135.8725  153.3185 H   0  0  0  0  0  0  0  0  0  0  0  0
  146.4056  139.4029  153.3808 H   0  0  0  0  0  0  0  0  0  0  0  0
  147.1074  138.8294  151.8776 H   0  0  0  0  0  0  0  0  0  0  0  0
  152.5066  139.2760  157.6147 H   0  0  0  0  0  0  0  0  0  0  0  0
  153.5854  139.2592  159.6966 H   0  0  0  0  0  0  0  0  0  0  0  0
  152.6063  139.9353  160.9964 H   0  0  0  0  0  0  0  0  0  0  0  0
  153.9925  140.8368  160.3647 H   0  0  0  0  0  0  0  0  0  0  0  0
  148.2643  137.1929  153.0083 H   0  0  0  0  0  0  0  0  0  0  0  0
  149.2828  143.3086  156.0203 H   0  0  0  0  0  0  0  0  0  0  0  0
  1  2  1  0  0  0  0
  1 23  1  0  0  0  0
  1 24  1  0  0  0  0
  1 25  1  0  0  0  0
  2 21  1  0  0  0  0
  2  3  2  0  0  0  0
  3  4  1  0  0  0  0
  3 26  1  0  0  0  0
  4 19  2  0  0  0  0
  4  5  1  0  0  0  0
  5  6  2  0  0  0  0
  5 46  1  0  0  0  0
  6  7  1  0  0  0  0
  6 27  1  0  0  0  0
  7  8  1  0  0  0  0
  7 19  1  0  0  0  0
  8  9  1  0  0  0  0
  8 28  1  0  0  0  0
  8 29  1  0  0  0  0
  9 10  1  0  0  0  0
  9 11  1  0  0  0  0
  9 30  1  0  0  0  0
 10 31  1  0  0  0  0
 11 12  1  0  0  0  0
 11 32  1  0  0  0  0
 11 33  1  0  0  0  0
 12 18  1  0  0  0  0
 12 13  1  0  0  0  0
 12 45  1  0  0  0  0
 13 14  1  0  0  0  0
 13 34  1  0  0  0  0
 13 35  1  0  0  0  0
 14 15  1  0  0  0  0
 14 36  1  0  0  0  0
 14 37  1  0  0  0  0
 15 16  1  0  0  0  0
 15 38  1  0  0  0  0
 16 17  2  0  0  0  0
 16 18  1  0  0  0  0
 18 39  1  0  0  0  0
 18 40  1  0  0  0  0
 19 20  1  0  0  0  0
 20 21  2  0  0  0  0
 20 41  1  0  0  0  0
 21 22  1  0  0  0  0
 22 42  1  0  0  0  0
 22 43  1  0  0  0  0
 22 44  1  0  0  0  0
M  CHG  1   5   1
M  CHG  1  12   1
M  END
> <s_m_source_file>
AV-unprocessed.smi

> <i_m_source_file_index>
1056

> <i_lp_mmshare_version>
43012

> <i_f3d_flags>
0

> <s_epik_input>
W0NIM11jKFtjSF0xKWMoW0NIM10pW2NIXWMoYzEyKW4oW2NIXW4yKVtDSDJdW0NASF0oW09IXSlbQ0gyXU4zW0NIMl1bQ0gyXVtOSF1DKD1PKVtDSDJdMw==

> <s_epik_cmdline>
J2VwaWtfcHl0aG9uJywgJy1waCcsICc3LjAnLCAnLXRuJywgJzgnLCAnLW1hJywgJzIwMCcsICctbWV0YWxfYmluZGluZycsICctaW1hZScsICc8aW5maWxlLm1hZT4nLCAnLW9tYWUnLCAnPG91dGZpbGUubWFlPic=

> <r_epik_Ionization_Penalty>
1.262

> <r_epik_Ionization_Penalty_Charging>
1.26188

> <r_epik_Ionization_Penalty_Neutral>
0.000125436

> <r_epik_State_Penalty>
1.3387

> <r_epik_Charging_Adjusted_Penalty>
2.60058

> <i_epik_Tot_Q>
2

> <i_epik_Tot_abs_Q>
2

> <r_epik_Metal_State_Penalty>
1.58938

> <b_epik_Metal_Only>
0

> <s_lp_Force_Field>
OPLS_2005

> <r_lp_Energy>
35.3013

> <b_lp_Chiralities_Consistent>
1

> <s_lp_Variant>
AV-unprocessed.smi:1056-7

> <Gold.Version>
5.8.1

> <Gold.Id.Protein>
6NUR|6NUR_protein|mol2

> <Gold.PLP.Fitness>
51.4129

> <Gold.PLP.PLP>
-36.5605

> <Gold.PLP.part.hbond>
-3.9354

> <Gold.PLP.part.metal>
0.0000

> <Gold.PLP.part.buried>
-3.5784

> <Gold.PLP.part.nonpolar>
-30.1768

> <Gold.PLP.part.repulsive>
1.3234

> <Gold.PLP.ligand.clash>
0.0000

> <Gold.PLP.ligand.torsion>
0.0987

> <Gold.PLP.Chemscore.Hbond>
5.0000

> <Gold.PLP.Chemscore.CHOScore>
0.0000

> <Gold.PLP.Chemscore.Metal>
0.0000

> <Gold.Chemscore.Hbonds>
donor molecule, donor type, donor heavy atom, donor atom, acceptor molecule, acceptor atom, score
      L1  H     5    46       P1  8028  1.89
      L1  H    10    31       P1  7948  0.85
      L1  H    12    45       P1  7948  2.00

> <Gold.PLP.Chemscore.Internal.Correction>
0.0498

> <Gold.Rescore>
     Score         DG    S(hbond)    S(metal)    S(lipo)     H(rot)  DE(clash)    DE(int)     intcor
     16.90     -17.35       2.38        0.00      86.71       2.44       0.24       0.21       ----

> <Gold.Chemscore.Fitness>
16.8981

> <Gold.Chemscore.DG>
-17.3535

> <Gold.Chemscore.ZeroCoef>
-5.4800

> <Gold.Chemscore.Hbond>
2.3843

> <Gold.Chemscore.Metal>
0.0000

> <Gold.Chemscore.Lipo>
86.7127

> <Gold.Chemscore.Internal_Hbond>
0.0000

> <Gold.Chemscore.DEClash>
0.2433

> <Gold.Chemscore.DEInternal>
0.2122

> <Gold.Chemscore.Rot>
2.4357

> <Gold.Chemscore.Internal.Correction>
   9.000000E+99

> <Gold.Chemscore.Hbonds>
donor molecule, donor type, donor heavy atom, donor atom, acceptor molecule, acceptor atom, score
      L1  H     5    46       P1  8028  0.90
      L1  H    10    31       P1  7948  0.14
      L1  H    12    45       P1  7948  1.00

> <Gold.Chemscore.Hbond.Weighted>
-7.9635

> <Gold.Chemscore.Metal.Weighted>
-0.0000

> <Gold.Chemscore.Lipo.Weighted>
-10.1454

> <Gold.Chemscore.Internal_Hbond.Weighted>
0.0000

> <Gold.Chemscore.DEClash.Weighted>
0.2433

> <Gold.Chemscore.DEInternal.Weighted>
0.2122

> <Gold.Chemscore.Rot.Weighted>
6.2353

> <Gold.Chemscore.Internal.Correction.Weighted>
   9.000000E+99

> <Gold.Protein.RotatedTorsions>
[ 6907 6896 6895 6894 ] final  -90.75 input  -60.11 | X-H torsion
[ 7974 7965 7964 7962 ] final   -6.09 input  175.53 | X-H torsion
[ 8008 7997 7996 7995 ] final  -66.15 input   59.86 | X-H torsion
[ 10167 10162 10161 10158 ] final  -45.27 input  -65.29 | X-H torsion
[ 10718 10713 10712 10709 ] final   44.14 input   66.30 | X-H torsion
[ 10763 10752 10751 10750 ] final   24.03 input  -60.55 | X-H torsion
[ 11005 11000 10999 10996 ] final   -1.40 input  -57.11 | X-H torsion

> <Gold.Protein.ActiveResidues>
 VAL166  LYS551  ARG553  GLY616  TRP617  ASP618  TYR619  PRO620  LYS621  CYS622 
 ASP623  PHE694  ASN695  SER759  ASP760  ASP761  ALA762  ILE779  LEU786  VAL792 
 PHE793  MET794  SER795  GLU796  ALA797  LYS798  CYS799  TRP800  GLU811  SER814 

> <Gold.Protein.RotatedAtoms>
  150.6885  134.2383  159.4461 H   0  0  0  0  0  0  0  0  0  0  0  0  # atno 6907 bound_to 6896
  152.0329  134.9755  160.0582 H   0  0  0  0  0  0  0  0  0  0  0  0  # atno 6908 bound_to 6896
  152.1287  133.4360  159.4747 H   0  0  0  0  0  0  0  0  0  0  0  0  # atno 6909 bound_to 6896
  146.2339  140.2119  142.8335 H   0  0  0  0  0  0  0  0  0  0  0  0  # atno 7974 bound_to 7965
  154.4716  140.0918  156.7159 H   0  0  0  0  0  0  0  0  0  0  0  0  # atno 8008 bound_to 7997
  155.4708  140.3464  155.4307 H   0  0  0  0  0  0  0  0  0  0  0  0  # atno 8009 bound_to 7997
  156.1049  140.1432  156.9406 H   0  0  0  0  0  0  0  0  0  0  0  0  # atno 8010 bound_to 7997
  140.6864  143.2888  151.3615 H   0  0  0  0  0  0  0  0  0  0  0  0  # atno 10167 bound_to 10162
  157.4236  130.7984  149.7538 H   0  0  0  0  0  0  0  0  0  0  0  0  # atno 10718 bound_to 10713
  153.0794  135.6614  154.0076 H   0  0  0  0  0  0  0  0  0  0  0  0  # atno 10763 bound_to 10752
  153.9702  135.2965  155.3429 H   0  0  0  0  0  0  0  0  0  0  0  0  # atno 10764 bound_to 10752
  154.7190  135.5173  153.8854 H   0  0  0  0  0  0  0  0  0  0  0  0  # atno 10765 bound_to 10752
  140.6469  133.9439  155.8357 H   0  0  0  0  0  0  0  0  0  0  0  0  # atno 11005 bound_to 11000
  144.9700  140.8359  143.5461 LP  0  0  0  0  0  0  0  0  0  0  0  0  # atno 17320 bound_to 7965
  145.2099  139.2210  143.5148 LP  0  0  0  0  0  0  0  0  0  0  0  0  # atno 17321 bound_to 7965
  139.6227  144.0875  152.2406 LP  0  0  0  0  0  0  0  0  0  0  0  0  # atno 17342 bound_to 10162
  140.0325  144.6070  150.7476 LP  0  0  0  0  0  0  0  0  0  0  0  0  # atno 17343 bound_to 10162
  155.9889  130.3956  150.3098 LP  0  0  0  0  0  0  0  0  0  0  0  0  # atno 17370 bound_to 10713
  157.1248  131.0256  151.2994 LP  0  0  0  0  0  0  0  0  0  0  0  0  # atno 17371 bound_to 10713
  141.0566  134.0408  157.3715 LP  0  0  0  0  0  0  0  0  0  0  0  0  # atno 17394 bound_to 11000
  139.9060  135.0179  156.7486 LP  0  0  0  0  0  0  0  0  0  0  0  0  # atno 17395 bound_to 11000

$$$$
