AV-unprocessed.smi:3213|AV-procd|sdf|12282|dock7
  -GOLD-   2272018123D 1   1.00000     0.00000
 Structure written by MMmdl.
 35 35  0  0  0  0  0  0  0  0  1 V2000
  152.7319  144.8946  157.9847 C   0  0  0  0  0  0  0  0  0  0  0  0
  152.1197  143.6904  158.7219 C   0  0  0  0  0  0  0  0  0  0  0  0
  153.0559  143.2844  159.8803 C   0  0  0  0  0  0  0  0  0  0  0  0
  150.7286  144.0860  159.2598 C   0  0  0  0  0  0  0  0  0  0  0  0
  152.0017  142.6047  157.7408 N   0  0  0  0  0  0  0  0  0  0  0  0
  151.7782  141.2967  157.9618 C   0  0  0  0  0  0  0  0  0  0  0  0
  151.6431  140.8020  159.0813 O   0  0  0  0  0  0  0  0  0  0  0  0
  151.7026  140.4093  156.7156 C   0  0  0  0  0  0  0  0  0  0  0  0
  150.5077  140.6769  155.9339 N   0  0  0  0  0  0  0  0  0  0  0  0
  149.4310  141.4740  156.2613 C   0  0  0  0  0  0  0  0  0  0  0  0
  148.5504  141.4251  155.2178 C   0  0  0  0  0  0  0  0  0  0  0  0
  147.2230  142.1156  155.0742 C   0  0  0  0  0  0  0  0  0  0  0  0
  146.6013  141.8612  153.6949 C   0  0  0  0  0  0  0  0  0  0  0  0
  146.2077  140.5101  153.5887 O   0  0  0  0  0  0  0  0  0  0  0  0
  149.1906  140.5594  154.2857 C   0  0  0  0  0  0  0  0  0  0  0  0
  150.3592  140.1128  154.7159 N   0  0  0  0  0  0  0  0  0  0  0  0
  152.8537  145.7489  158.6516 H   0  0  0  0  0  0  0  0  0  0  0  0
  152.1018  145.2160  157.1543 H   0  0  0  0  0  0  0  0  0  0  0  0
  153.7152  144.6550  157.5778 H   0  0  0  0  0  0  0  0  0  0  0  0
  154.0282  142.9573  159.5098 H   0  0  0  0  0  0  0  0  0  0  0  0
  152.6416  142.4743  160.4802 H   0  0  0  0  0  0  0  0  0  0  0  0
  153.2287  144.1226  160.5560 H   0  0  0  0  0  0  0  0  0  0  0  0
  150.7961  144.9472  159.9255 H   0  0  0  0  0  0  0  0  0  0  0  0
  150.2629  143.2797  159.8262 H   0  0  0  0  0  0  0  0  0  0  0  0
  150.0507  144.3524  158.4479 H   0  0  0  0  0  0  0  0  0  0  0  0
  152.0944  142.8854  156.7753 H   0  0  0  0  0  0  0  0  0  0  0  0
  152.5805  140.5519  156.0828 H   0  0  0  0  0  0  0  0  0  0  0  0
  151.6945  139.3628  157.0219 H   0  0  0  0  0  0  0  0  0  0  0  0
  149.3828  142.0064  157.2001 H   0  0  0  0  0  0  0  0  0  0  0  0
  146.5338  141.7760  155.8484 H   0  0  0  0  0  0  0  0  0  0  0  0
  147.3337  143.1900  155.2262 H   0  0  0  0  0  0  0  0  0  0  0  0
  145.7299  142.4988  153.5417 H   0  0  0  0  0  0  0  0  0  0  0  0
  147.3157  142.0863  152.9023 H   0  0  0  0  0  0  0  0  0  0  0  0
  145.2795  140.4801  153.4135 H   0  0  0  0  0  0  0  0  0  0  0  0
  148.8414  140.2451  153.3130 H   0  0  0  0  0  0  0  0  0  0  0  0
  1  2  1  0  0  0  0
  1 17  1  0  0  0  0
  1 18  1  0  0  0  0
  1 19  1  0  0  0  0
  2  3  1  0  0  0  0
  2  4  1  0  0  0  0
  2  5  1  0  0  0  0
  3 20  1  0  0  0  0
  3 21  1  0  0  0  0
  3 22  1  0  0  0  0
  4 23  1  0  0  0  0
  4 24  1  0  0  0  0
  4 25  1  0  0  0  0
  5  6  1  0  0  0  0
  5 26  1  0  0  0  0
  6  7  2  0  0  0  0
  6  8  1  0  0  0  0
  8  9  1  0  0  0  0
  8 27  1  0  0  0  0
  8 28  1  0  0  0  0
  9 16  1  0  0  0  0
  9 10  1  0  0  0  0
 10 11  2  0  0  0  0
 10 29  1  0  0  0  0
 11 12  1  0  0  0  0
 11 15  1  0  0  0  0
 12 13  1  0  0  0  0
 12 30  1  0  0  0  0
 12 31  1  0  0  0  0
 13 14  1  0  0  0  0
 13 32  1  0  0  0  0
 13 33  1  0  0  0  0
 14 34  1  0  0  0  0
 15 16  2  0  0  0  0
 15 35  1  0  0  0  0
M  END
> <s_m_source_file>
AV-unprocessed.smi

> <i_m_source_file_index>
3213

> <i_lp_mmshare_version>
43012

> <i_f3d_flags>
0

> <s_epik_input>
W0NIM11DKFtDSDNdKShbQ0gzXSlbTkhdQyg9TylbQ0gyXW4xW2NIXWMoW2NIXW4xKVtDSDJdW0NIMl1bT0hd

> <s_epik_cmdline>
J2VwaWtfcHl0aG9uJywgJy1waCcsICc3LjAnLCAnLXRuJywgJzgnLCAnLW1hJywgJzIwMCcsICctbWV0YWxfYmluZGluZycsICctaW1hZScsICc8aW5maWxlLm1hZT4nLCAnLW9tYWUnLCAnPG91dGZpbGUubWFlPic=

> <r_lp_tautomer_probability>
1

> <r_epik_Ionization_Penalty>
3.05354e-05

> <r_epik_Ionization_Penalty_Charging>
0

> <r_epik_Ionization_Penalty_Neutral>
3.05354e-05

> <r_epik_State_Penalty>
-0

> <r_epik_Charging_Adjusted_Penalty>
0

> <i_epik_Tot_Q>
0

> <i_epik_Tot_abs_Q>
0

> <r_epik_Metal_State_Penalty>
-0

> <b_epik_Metal_Only>
0

> <s_lp_Force_Field>
OPLS_2005

> <r_lp_Energy>
4.97676

> <b_lp_Chiralities_Consistent>
1

> <s_lp_Variant>
AV-unprocessed.smi:3213-1

> <Gold.Version>
5.8.1

> <Gold.Id.Protein>
6NUR|6NUR_protein|mol2

> <Gold.PLP.Fitness>
42.4338

> <Gold.PLP.PLP>
-34.3095

> <Gold.PLP.part.hbond>
-2.0000

> <Gold.PLP.part.metal>
0.0000

> <Gold.PLP.part.buried>
-3.1898

> <Gold.PLP.part.nonpolar>
-29.6118

> <Gold.PLP.part.repulsive>
0.1266

> <Gold.PLP.ligand.clash>
0.0000

> <Gold.PLP.ligand.torsion>
0.4520

> <Gold.PLP.Chemscore.Hbond>
2.0000

> <Gold.PLP.Chemscore.CHOScore>
1.0000

> <Gold.PLP.Chemscore.Metal>
0.0000

> <Gold.Chemscore.Hbonds>
donor molecule, donor type, donor heavy atom, donor atom, acceptor molecule, acceptor atom, score
      L1  H    14    34       P1 10175  1.00
      P1  H  7989  7998       L1    16  1.00
      L1  C    15    35       P1  7957  1.00

> <Gold.PLP.Chemscore.Internal.Correction>
0.0282

> <Gold.Rescore>
     Score         DG    S(hbond)    S(metal)    S(lipo)     H(rot)  DE(clash)    DE(int)     intcor
     11.12     -13.21       1.18        0.00      86.58       2.48       0.57       1.52       ----

> <Gold.Chemscore.Fitness>
11.1238

> <Gold.Chemscore.DG>
-13.2131

> <Gold.Chemscore.ZeroCoef>
-5.4800

> <Gold.Chemscore.Hbond>
1.1799

> <Gold.Chemscore.Metal>
0.0000

> <Gold.Chemscore.Lipo>
86.5832

> <Gold.Chemscore.Internal_Hbond>
0.0000

> <Gold.Chemscore.DEClash>
0.5693

> <Gold.Chemscore.DEInternal>
1.5200

> <Gold.Chemscore.Rot>
2.4758

> <Gold.Chemscore.Internal.Correction>
   9.000000E+99

> <Gold.Chemscore.Hbonds>
donor molecule, donor type, donor heavy atom, donor atom, acceptor molecule, acceptor atom, score
      L1  H    14    34       P1 10175  0.98
      P1  H  7989  7998       L1    16  0.33

> <Gold.Chemscore.Hbond.Weighted>
-3.9409

> <Gold.Chemscore.Metal.Weighted>
-0.0000

> <Gold.Chemscore.Lipo.Weighted>
-10.1302

> <Gold.Chemscore.Internal_Hbond.Weighted>
0.0000

> <Gold.Chemscore.DEClash.Weighted>
0.5693

> <Gold.Chemscore.DEInternal.Weighted>
1.5200

> <Gold.Chemscore.Rot.Weighted>
6.3380

> <Gold.Chemscore.Internal.Correction.Weighted>
   9.000000E+99

> <Gold.Protein.RotatedTorsions>
[ 6907 6896 6895 6894 ] final  -29.73 input  -60.11 | X-H torsion
[ 7974 7965 7964 7962 ] final -177.48 input  175.53 | X-H torsion
[ 8008 7997 7996 7995 ] final -135.46 input   59.86 | X-H torsion
[ 10167 10162 10161 10158 ] final  -55.23 input  -65.29 | X-H torsion
[ 10718 10713 10712 10709 ] final  -89.90 input   66.30 | X-H torsion
[ 10763 10752 10751 10750 ] final -165.89 input  -60.55 | X-H torsion
[ 11005 11000 10999 10996 ] final  -23.31 input  -57.11 | X-H torsion

> <Gold.Protein.ActiveResidues>
 VAL166  LYS551  ARG553  GLY616  TRP617  ASP618  TYR619  PRO620  LYS621  CYS622 
 ASP623  PHE694  ASN695  SER759  ASP760  ASP761  ALA762  ILE779  LEU786  VAL792 
 PHE793  MET794  SER795  GLU796  ALA797  LYS798  CYS799  TRP800  GLU811  SER814 

> <Gold.Protein.RotatedAtoms>
  151.1152  135.0049  159.8512 H   0  0  0  0  0  0  0  0  0  0  0  0  # atno 6907 bound_to 6896
  152.5445  134.1788  159.8637 H   0  0  0  0  0  0  0  0  0  0  0  0  # atno 6908 bound_to 6896
  151.1842  133.4662  159.2627 H   0  0  0  0  0  0  0  0  0  0  0  0  # atno 6909 bound_to 6896
  144.7128  140.1013  143.6416 H   0  0  0  0  0  0  0  0  0  0  0  0  # atno 7974 bound_to 7965
  155.3791  140.0493  157.3044 H   0  0  0  0  0  0  0  0  0  0  0  0  # atno 8008 bound_to 7997
  154.5092  140.2185  155.9153 H   0  0  0  0  0  0  0  0  0  0  0  0  # atno 8009 bound_to 7997
  156.1562  140.3126  155.8735 H   0  0  0  0  0  0  0  0  0  0  0  0  # atno 8010 bound_to 7997
  140.6386  143.2495  151.5050 H   0  0  0  0  0  0  0  0  0  0  0  0  # atno 10167 bound_to 10162
  155.9986  130.4889  150.5241 H   0  0  0  0  0  0  0  0  0  0  0  0  # atno 10718 bound_to 10713
  154.6887  135.2967  154.9510 H   0  0  0  0  0  0  0  0  0  0  0  0  # atno 10763 bound_to 10752
  154.0481  135.6648  153.4801 H   0  0  0  0  0  0  0  0  0  0  0  0  # atno 10764 bound_to 10752
  153.0597  135.5123  154.7968 H   0  0  0  0  0  0  0  0  0  0  0  0  # atno 10765 bound_to 10752
  140.8740  133.7701  156.0220 H   0  0  0  0  0  0  0  0  0  0  0  0  # atno 11005 bound_to 11000
  145.9535  139.2750  143.1198 LP  0  0  0  0  0  0  0  0  0  0  0  0  # atno 17320 bound_to 7965
  145.9297  140.9057  143.0362 LP  0  0  0  0  0  0  0  0  0  0  0  0  # atno 17321 bound_to 7965
  139.5596  144.2190  152.1669 LP  0  0  0  0  0  0  0  0  0  0  0  0  # atno 17342 bound_to 10162
  140.1454  144.5164  150.6719 LP  0  0  0  0  0  0  0  0  0  0  0  0  # atno 17343 bound_to 10162
  157.3199  131.0680  151.1940 LP  0  0  0  0  0  0  0  0  0  0  0  0  # atno 17370 bound_to 10713
  157.2857  130.6771  149.6088 LP  0  0  0  0  0  0  0  0  0  0  0  0  # atno 17371 bound_to 10713
  140.8540  134.2920  157.5263 LP  0  0  0  0  0  0  0  0  0  0  0  0  # atno 17394 bound_to 11000
  139.8714  134.9483  156.3992 LP  0  0  0  0  0  0  0  0  0  0  0  0  # atno 17395 bound_to 11000

$$$$
