AV-unprocessed.smi:2069|AV-procd|sdf|8433|dock2
  -GOLD-   2272011133D 1   1.00000     0.00000
 Structure written by MMmdl.
 39 40  0  0  0  0  0  0  0  0  2 V2000
  153.8287  141.9380  160.6693 C   0  0  0  0  0  0  0  0  0  0  0  0
  152.9872  142.4443  159.5479 C   0  0  0  0  0  0  0  0  0  0  0  0
  152.9345  143.7376  159.2067 N   0  0  0  0  0  0  0  0  0  0  0  0
  152.0847  143.9642  158.1332 N   0  0  0  0  0  0  0  0  0  0  0  0
  151.5202  142.8308  157.6945 C   0  0  0  0  0  0  0  0  0  0  0  0
  150.6103  142.7729  156.6057 N   0  0  0  0  0  0  0  0  0  0  0  0
  150.1984  141.6904  155.9227 C   0  0  0  0  0  0  0  0  0  0  0  0
  150.5693  140.5346  156.1285 O   0  0  0  0  0  0  0  0  0  0  0  0
  149.3077  142.0221  154.9759 N   0  0  0  0  0  0  0  0  0  0  0  0
  148.6673  141.0870  154.0528 C   0  0  0  0  0  0  0  0  0  0  0  0
  147.1676  141.4011  153.8034 C   0  0  2  0  0  0  0  0  0  0  0  0
  146.5435  142.1226  155.0239 C   0  0  0  0  0  0  0  0  0  0  0  0
  146.4377  140.1475  153.4179 N   0  3  0  0  0  0  0  0  0  0  0  0
  147.0160  139.3889  152.2737 C   0  0  0  0  0  0  0  0  0  0  0  0
  146.1690  138.1474  151.9442 C   0  0  0  0  0  0  0  0  0  0  0  0
  146.0522  137.3219  153.0930 O   0  0  0  0  0  0  0  0  0  0  0  0
  145.3994  138.0004  154.1553 C   0  0  0  0  0  0  0  0  0  0  0  0
  146.2315  139.2252  154.5683 C   0  0  0  0  0  0  0  0  0  0  0  0
  151.9867  141.3806  158.5665 S   0  0  0  0  0  0  0  0  0  0  0  0
  154.2390  142.7667  161.2474 H   0  0  0  0  0  0  0  0  0  0  0  0
  154.6534  141.3436  160.2762 H   0  0  0  0  0  0  0  0  0  0  0  0
  153.2306  141.3133  161.3326 H   0  0  0  0  0  0  0  0  0  0  0  0
  150.2210  143.6595  156.3210 H   0  0  0  0  0  0  0  0  0  0  0  0
  149.0607  142.9963  154.8790 H   0  0  0  0  0  0  0  0  0  0  0  0
  149.2402  141.1496  153.1299 H   0  0  0  0  0  0  0  0  0  0  0  0
  148.7783  140.0584  154.4009 H   0  0  0  0  0  0  0  0  0  0  0  0
  147.0965  142.0956  152.9647 H   0  0  0  0  0  0  0  0  0  0  0  0
  147.0861  143.0322  155.2775 H   0  0  0  0  0  0  0  0  0  0  0  0
  146.5442  141.4838  155.9079 H   0  0  0  0  0  0  0  0  0  0  0  0
  145.5205  142.4463  154.8337 H   0  0  0  0  0  0  0  0  0  0  0  0
  147.0483  140.0040  151.3749 H   0  0  0  0  0  0  0  0  0  0  0  0
  148.0396  139.0932  152.5090 H   0  0  0  0  0  0  0  0  0  0  0  0
  145.1794  138.4355  151.5857 H   0  0  0  0  0  0  0  0  0  0  0  0
  146.6401  137.5741  151.1454 H   0  0  0  0  0  0  0  0  0  0  0  0
  144.3916  138.2936  153.8565 H   0  0  0  0  0  0  0  0  0  0  0  0
  145.2951  137.3163  154.9976 H   0  0  0  0  0  0  0  0  0  0  0  0
  147.1998  138.8991  154.9516 H   0  0  0  0  0  0  0  0  0  0  0  0
  145.7200  139.7237  155.3891 H   0  0  0  0  0  0  0  0  0  0  0  0
  145.5215  140.4426  153.1113 H   0  0  0  0  0  0  0  0  0  0  0  0
  1  2  1  0  0  0  0
  1 20  1  0  0  0  0
  1 21  1  0  0  0  0
  1 22  1  0  0  0  0
  2 19  1  0  0  0  0
  2  3  2  0  0  0  0
  3  4  1  0  0  0  0
  4  5  2  0  0  0  0
  5  6  1  0  0  0  0
  5 19  1  0  0  0  0
  6  7  1  0  0  0  0
  6 23  1  0  0  0  0
  7  8  2  0  0  0  0
  7  9  1  0  0  0  0
  9 10  1  0  0  0  0
  9 24  1  0  0  0  0
 10 11  1  0  0  0  0
 10 25  1  0  0  0  0
 10 26  1  0  0  0  0
 11 12  1  0  0  0  0
 11 13  1  0  0  0  0
 11 27  1  0  0  0  0
 12 28  1  0  0  0  0
 12 29  1  0  0  0  0
 12 30  1  0  0  0  0
 13 18  1  0  0  0  0
 13 14  1  0  0  0  0
 13 39  1  0  0  0  0
 14 15  1  0  0  0  0
 14 31  1  0  0  0  0
 14 32  1  0  0  0  0
 15 16  1  0  0  0  0
 15 33  1  0  0  0  0
 15 34  1  0  0  0  0
 16 17  1  0  0  0  0
 17 18  1  0  0  0  0
 17 35  1  0  0  0  0
 17 36  1  0  0  0  0
 18 37  1  0  0  0  0
 18 38  1  0  0  0  0
M  CHG  1  13   1
M  END
> <s_m_source_file>
AV-unprocessed.smi

> <i_m_source_file_index>
2069

> <i_lp_mmshare_version>
43012

> <i_f3d_flags>
0

> <s_epik_input>
W0NIM11jMW5uYyhzMSlbTkhdQyg9TylbTkhdW0NIMl1bQ0BIXShbQ0gzXSlOMltDSDJdW0NIMl1PW0NIMl1bQ0gyXTI=

> <s_epik_cmdline>
J2VwaWtfcHl0aG9uJywgJy1waCcsICc3LjAnLCAnLXRuJywgJzgnLCAnLW1hJywgJzIwMCcsICctbWV0YWxfYmluZGluZycsICctaW1hZScsICc8aW5maWxlLm1hZT4nLCAnLW9tYWUnLCAnPG91dGZpbGUubWFlPic=

> <r_lp_tautomer_probability>
1

> <r_epik_Ionization_Penalty>
0.70016

> <r_epik_Ionization_Penalty_Charging>
0.695697

> <r_epik_Ionization_Penalty_Neutral>
0.00446266

> <r_epik_State_Penalty>
0.717972

> <r_epik_Charging_Adjusted_Penalty>
1.41367

> <i_epik_Tot_Q>
1

> <i_epik_Tot_abs_Q>
1

> <r_epik_Metal_State_Penalty>
1.06969

> <b_epik_Metal_Only>
0

> <s_lp_Force_Field>
OPLS_2005

> <r_lp_Energy>
19.5762

> <b_lp_Chiralities_Consistent>
1

> <s_lp_Variant>
AV-unprocessed.smi:2069-3

> <Gold.Version>
5.8.1

> <Gold.Id.Protein>
6NUR|6NUR_protein|mol2

> <Gold.PLP.Fitness>
47.0689

> <Gold.PLP.PLP>
-36.3309

> <Gold.PLP.part.hbond>
-3.0000

> <Gold.PLP.part.metal>
0.0000

> <Gold.PLP.part.buried>
-4.6314

> <Gold.PLP.part.nonpolar>
-29.6658

> <Gold.PLP.part.repulsive>
0.5394

> <Gold.PLP.ligand.clash>
0.0000

> <Gold.PLP.ligand.torsion>
0.6244

> <Gold.PLP.Chemscore.Hbond>
3.9760

> <Gold.PLP.Chemscore.CHOScore>
0.0000

> <Gold.PLP.Chemscore.Metal>
0.0000

> <Gold.Chemscore.Hbonds>
donor molecule, donor type, donor heavy atom, donor atom, acceptor molecule, acceptor atom, score
      L1  H     6    23       P1  8028  1.00
      L1  H     9    24       P1  8028  1.00
      L1  H    13    39       P1 10175  2.00

> <Gold.PLP.Chemscore.Internal.Correction>
0.0589

> <Gold.Rescore>
     Score         DG    S(hbond)    S(metal)    S(lipo)     H(rot)  DE(clash)    DE(int)     intcor
     18.06     -18.92       2.91        0.00      67.78       1.65       0.04       0.83       ----

> <Gold.Chemscore.Fitness>
18.0589

> <Gold.Chemscore.DG>
-18.9209

> <Gold.Chemscore.ZeroCoef>
-5.4800

> <Gold.Chemscore.Hbond>
2.9126

> <Gold.Chemscore.Metal>
0.0000

> <Gold.Chemscore.Lipo>
67.7828

> <Gold.Chemscore.Internal_Hbond>
0.0000

> <Gold.Chemscore.DEClash>
0.0354

> <Gold.Chemscore.DEInternal>
0.8266

> <Gold.Chemscore.Rot>
1.6476

> <Gold.Chemscore.Internal.Correction>
   9.000000E+99

> <Gold.Chemscore.Hbonds>
donor molecule, donor type, donor heavy atom, donor atom, acceptor molecule, acceptor atom, score
      L1  H     6    23       P1  8028  0.98
      L1  H     9    24       P1  8028  0.94
      L1  H    13    39       P1 10175  0.92

> <Gold.Chemscore.Hbond.Weighted>
-9.7282

> <Gold.Chemscore.Metal.Weighted>
-0.0000

> <Gold.Chemscore.Lipo.Weighted>
-7.9306

> <Gold.Chemscore.Internal_Hbond.Weighted>
0.0000

> <Gold.Chemscore.DEClash.Weighted>
0.0354

> <Gold.Chemscore.DEInternal.Weighted>
0.8266

> <Gold.Chemscore.Rot.Weighted>
4.2179

> <Gold.Chemscore.Internal.Correction.Weighted>
   9.000000E+99

> <Gold.Protein.RotatedTorsions>
[ 6907 6896 6895 6894 ] final  133.39 input  -60.11 | X-H torsion
[ 7974 7965 7964 7962 ] final  -50.73 input  175.53 | X-H torsion
[ 8008 7997 7996 7995 ] final  121.48 input   59.86 | X-H torsion
[ 10167 10162 10161 10158 ] final   29.72 input  -65.29 | X-H torsion
[ 10718 10713 10712 10709 ] final  -60.05 input   66.30 | X-H torsion
[ 10763 10752 10751 10750 ] final -172.05 input  -60.55 | X-H torsion
[ 11005 11000 10999 10996 ] final -159.40 input  -57.11 | X-H torsion

> <Gold.Protein.ActiveResidues>
 VAL166  LYS551  ARG553  GLY616  TRP617  ASP618  TYR619  PRO620  LYS621  CYS622 
 ASP623  PHE694  ASN695  SER759  ASP760  ASP761  ALA762  ILE779  LEU786  VAL792 
 PHE793  MET794  SER795  GLU796  ALA797  LYS798  CYS799  TRP800  GLU811  SER814 

> <Gold.Protein.RotatedAtoms>
  152.3224  133.5868  159.5753 H   0  0  0  0  0  0  0  0  0  0  0  0  # atno 6907 bound_to 6896
  150.7378  133.9991  159.3641 H   0  0  0  0  0  0  0  0  0  0  0  0  # atno 6908 bound_to 6896
  151.7874  135.0746  160.0433 H   0  0  0  0  0  0  0  0  0  0  0  0  # atno 6909 bound_to 6896
  145.9266  140.7786  142.9620 H   0  0  0  0  0  0  0  0  0  0  0  0  # atno 7974 bound_to 7965
  156.2688  140.2807  156.1316 H   0  0  0  0  0  0  0  0  0  0  0  0  # atno 8008 bound_to 7997
  155.1048  140.0390  157.2725 H   0  0  0  0  0  0  0  0  0  0  0  0  # atno 8009 bound_to 7997
  154.6787  140.2604  155.6937 H   0  0  0  0  0  0  0  0  0  0  0  0  # atno 8010 bound_to 7997
  140.4741  144.0717  150.6245 H   0  0  0  0  0  0  0  0  0  0  0  0  # atno 10167 bound_to 10162
  156.1018  130.4185  150.0800 H   0  0  0  0  0  0  0  0  0  0  0  0  # atno 10718 bound_to 10713
  154.6236  135.2878  155.0297 H   0  0  0  0  0  0  0  0  0  0  0  0  # atno 10763 bound_to 10752
  154.1483  135.6507  153.4961 H   0  0  0  0  0  0  0  0  0  0  0  0  # atno 10764 bound_to 10752
  153.0247  135.5349  154.7036 H   0  0  0  0  0  0  0  0  0  0  0  0  # atno 10765 bound_to 10752
  140.6430  134.4531  157.5234 H   0  0  0  0  0  0  0  0  0  0  0  0  # atno 11005 bound_to 11000
  144.6759  140.2060  143.7382 LP  0  0  0  0  0  0  0  0  0  0  0  0  # atno 17320 bound_to 7965
  145.8480  139.2162  143.1788 LP  0  0  0  0  0  0  0  0  0  0  0  0  # atno 17321 bound_to 7965
  140.3940  143.2737  152.0026 LP  0  0  0  0  0  0  0  0  0  0  0  0  # atno 17342 bound_to 10162
  139.4823  144.6053  151.7532 LP  0  0  0  0  0  0  0  0  0  0  0  0  # atno 17343 bound_to 10162
  156.8786  130.9548  151.3602 LP  0  0  0  0  0  0  0  0  0  0  0  0  # atno 17370 bound_to 10713
  157.6189  130.8640  149.9075 LP  0  0  0  0  0  0  0  0  0  0  0  0  # atno 17371 bound_to 10713
  139.9073  134.8421  156.1658 LP  0  0  0  0  0  0  0  0  0  0  0  0  # atno 17394 bound_to 11000
  141.0593  133.6850  156.1920 LP  0  0  0  0  0  0  0  0  0  0  0  0  # atno 17395 bound_to 11000

$$$$
