AV-unprocessed.smi:235|AV-procd|sdf|1804|dock6
  -GOLD-   2262020383D 1   1.00000     0.00000
 Structure written by MMmdl.
 54 58  0  0  0  0  0  0  0  0  1 V2000
  151.5684  141.3850  159.7065 O   0  0  0  0  0  0  0  0  0  0  0  0
  152.7490  141.5434  159.3919 C   0  0  0  0  0  0  0  0  0  0  0  0
  153.2931  142.7432  159.1423 N   0  0  0  0  0  0  0  0  0  0  0  0
  152.6050  143.9920  159.1941 C   0  0  0  0  0  0  0  0  0  0  0  0
  151.2566  144.0802  158.5126 C   0  0  0  0  0  0  0  0  0  0  0  0
  152.4493  144.7614  157.9001 C   0  0  0  0  0  0  0  0  0  0  0  0
  153.6917  140.3352  159.2732 C   0  0  1  0  0  0  0  0  0  0  0  0
  154.9618  140.5252  160.1188 C   0  0  0  0  0  0  0  0  0  0  0  0
  155.3786  139.1013  160.4736 C   0  0  0  0  0  0  0  0  0  0  0  0
  154.0441  138.3772  160.6425 C   0  0  0  0  0  0  0  0  0  0  0  0
  153.0952  139.1105  159.8141 N   0  0  0  0  0  0  0  0  0  0  0  0
  152.0947  138.4413  159.1805 C   0  0  0  0  0  0  0  0  0  0  0  0
  151.6050  137.2977  159.7299 N   0  0  0  0  0  0  0  0  0  0  0  0
  150.6238  136.6204  159.1279 C   0  0  0  0  0  0  0  0  0  0  0  0
  149.9972  136.9008  157.9848 N   0  0  0  0  0  0  0  0  0  0  0  0
  150.4860  138.0427  157.4223 C   0  0  0  0  0  0  0  0  0  0  0  0
  151.5233  138.8665  157.9459 C   0  0  0  0  0  0  0  0  0  0  0  0
  151.7552  139.9325  157.0832 N   0  0  0  0  0  0  0  0  0  0  0  0
  150.9033  139.7516  156.1116 C   0  0  0  0  0  0  0  0  0  0  0  0
  150.0964  138.6441  156.2388 N   0  0  0  0  0  0  0  0  0  0  0  0
  149.0667  138.2044  155.3110 C   0  0  0  0  0  0  0  0  0  0  0  0
  148.5568  139.3196  154.3714 C   0  0  1  0  0  0  0  0  0  0  0  0
  147.5930  138.7792  153.4890 O   0  0  0  0  0  0  0  0  0  0  0  0
  147.9263  140.5187  155.1082 C   0  0  2  0  0  0  0  0  0  0  0  0
  146.5282  140.2555  155.6713 C   0  0  0  0  0  0  0  0  0  0  0  0
  145.8832  141.6335  155.7018 C   0  0  0  0  0  0  0  0  0  0  0  0
  146.8251  142.5066  154.8687 C   0  0  0  0  0  0  0  0  0  0  0  0
  147.6832  141.5888  154.2082 O   0  0  0  0  0  0  0  0  0  0  0  0
  154.2700  142.7732  158.8891 H   0  0  0  0  0  0  0  0  0  0  0  0
  152.7265  144.5937  160.0940 H   0  0  0  0  0  0  0  0  0  0  0  0
  150.8779  143.1885  158.0165 H   0  0  0  0  0  0  0  0  0  0  0  0
  150.5011  144.7109  158.9766 H   0  0  0  0  0  0  0  0  0  0  0  0
  152.4909  145.8474  157.9546 H   0  0  0  0  0  0  0  0  0  0  0  0
  152.8657  144.3247  156.9943 H   0  0  0  0  0  0  0  0  0  0  0  0
  153.9773  140.1688  158.2325 H   0  0  0  0  0  0  0  0  0  0  0  0
  155.7432  141.0646  159.5827 H   0  0  0  0  0  0  0  0  0  0  0  0
  154.7482  141.0759  161.0369 H   0  0  0  0  0  0  0  0  0  0  0  0
  155.9322  138.6649  159.6410 H   0  0  0  0  0  0  0  0  0  0  0  0
  156.0079  139.0473  161.3623 H   0  0  0  0  0  0  0  0  0  0  0  0
  154.1326  137.3274  160.3584 H   0  0  0  0  0  0  0  0  0  0  0  0
  153.7105  138.4238  161.6798 H   0  0  0  0  0  0  0  0  0  0  0  0
  150.2950  135.7251  159.6344 H   0  0  0  0  0  0  0  0  0  0  0  0
  150.8350  140.4287  155.2725 H   0  0  0  0  0  0  0  0  0  0  0  0
  149.4707  137.3797  154.7227 H   0  0  0  0  0  0  0  0  0  0  0  0
  148.2381  137.7871  155.8847 H   0  0  0  0  0  0  0  0  0  0  0  0
  149.3968  139.6687  153.7697 H   0  0  0  0  0  0  0  0  0  0  0  0
  147.3795  139.4323  152.8402 H   0  0  0  0  0  0  0  0  0  0  0  0
  148.5801  140.8729  155.9077 H   0  0  0  0  0  0  0  0  0  0  0  0
  145.9644  139.6061  155.0003 H   0  0  0  0  0  0  0  0  0  0  0  0
  146.5568  139.7796  156.6520 H   0  0  0  0  0  0  0  0  0  0  0  0
  144.8829  141.5988  155.2684 H   0  0  0  0  0  0  0  0  0  0  0  0
  145.7961  142.0175  156.7188 H   0  0  0  0  0  0  0  0  0  0  0  0
  146.2939  143.1356  154.1541 H   0  0  0  0  0  0  0  0  0  0  0  0
  147.4213  143.1526  155.5145 H   0  0  0  0  0  0  0  0  0  0  0  0
  1  2  2  0  0  0  0
  2  3  1  0  0  0  0
  2  7  1  0  0  0  0
  3  4  1  0  0  0  0
  3 29  1  0  0  0  0
  4  6  1  0  0  0  0
  4  5  1  0  0  0  0
  4 30  1  0  0  0  0
  5  6  1  0  0  0  0
  5 31  1  0  0  0  0
  5 32  1  0  0  0  0
  6 33  1  0  0  0  0
  6 34  1  0  0  0  0
  7 11  1  0  0  0  0
  7  8  1  0  0  0  0
  7 35  1  0  0  0  0
  8  9  1  0  0  0  0
  8 36  1  0  0  0  0
  8 37  1  0  0  0  0
  9 10  1  0  0  0  0
  9 38  1  0  0  0  0
  9 39  1  0  0  0  0
 10 11  1  0  0  0  0
 10 40  1  0  0  0  0
 10 41  1  0  0  0  0
 11 12  1  0  0  0  0
 12 17  1  0  0  0  0
 12 13  2  0  0  0  0
 13 14  1  0  0  0  0
 14 15  2  0  0  0  0
 14 42  1  0  0  0  0
 15 16  1  0  0  0  0
 16 20  1  0  0  0  0
 16 17  2  0  0  0  0
 17 18  1  0  0  0  0
 18 19  2  0  0  0  0
 19 20  1  0  0  0  0
 19 43  1  0  0  0  0
 20 21  1  0  0  0  0
 21 22  1  0  0  0  0
 21 44  1  0  0  0  0
 21 45  1  0  0  0  0
 22 23  1  0  0  0  0
 22 24  1  0  0  0  0
 22 46  1  0  0  0  0
 23 47  1  0  0  0  0
 24 28  1  0  0  0  0
 24 25  1  0  0  0  0
 24 48  1  0  0  0  0
 25 26  1  0  0  0  0
 25 49  1  0  0  0  0
 25 50  1  0  0  0  0
 26 27  1  0  0  0  0
 26 51  1  0  0  0  0
 26 52  1  0  0  0  0
 27 28  1  0  0  0  0
 27 53  1  0  0  0  0
 27 54  1  0  0  0  0
M  END
> <s_m_source_file>
AV-unprocessed.smi

> <i_m_source_file_index>
235

> <i_lp_mmshare_version>
43012

> <i_f3d_flags>
0

> <s_epik_input>
W0NIMl0xW0NIMl1bQ0hdMVtOSF1DKD1PKVtDQEBIXTJbQ0gyXVtDSDJdW0NIMl1OMmMobltjSF1uMyljKGMzNCluW2NIXW40W0NIMl1bQ0BIXShbT0hdKVtDQEBIXTVbQ0gyXVtDSDJdW0NIMl1PNQ==

> <s_epik_cmdline>
J2VwaWtfcHl0aG9uJywgJy1waCcsICc3LjAnLCAnLXRuJywgJzgnLCAnLW1hJywgJzIwMCcsICctbWV0YWxfYmluZGluZycsICctaW1hZScsICc8aW5maWxlLm1hZT4nLCAnLW9tYWUnLCAnPG91dGZpbGUubWFlPic=

> <r_lp_tautomer_probability>
1

> <r_epik_Ionization_Penalty>
0.000526714

> <r_epik_Ionization_Penalty_Charging>
0

> <r_epik_Ionization_Penalty_Neutral>
0.000526714

> <r_epik_State_Penalty>
0.000272704

> <r_epik_Charging_Adjusted_Penalty>
0.000272704

> <i_epik_Tot_Q>
0

> <i_epik_Tot_abs_Q>
0

> <r_epik_Metal_State_Penalty>
-0

> <b_epik_Metal_Only>
0

> <s_lp_Force_Field>
OPLS_2005

> <r_lp_Energy>
57.0845

> <b_lp_Chiralities_Consistent>
1

> <s_lp_Variant>
AV-unprocessed.smi:235-4

> <Gold.Version>
5.8.1

> <Gold.Id.Protein>
6NUR|6NUR_protein|mol2

> <Gold.PLP.Fitness>
49.3698

> <Gold.PLP.PLP>
-42.0104

> <Gold.PLP.part.hbond>
-4.6546

> <Gold.PLP.part.metal>
0.0000

> <Gold.PLP.part.buried>
1.0432

> <Gold.PLP.part.nonpolar>
-40.4504

> <Gold.PLP.part.repulsive>
2.0218

> <Gold.PLP.ligand.clash>
0.0000

> <Gold.PLP.ligand.torsion>
0.8541

> <Gold.PLP.Chemscore.Hbond>
2.9120

> <Gold.PLP.Chemscore.CHOScore>
0.0000

> <Gold.PLP.Chemscore.Metal>
0.0000

> <Gold.PLP.Chemscore.Internal.Correction>
0.3315

> <Gold.Rescore>
     Score         DG    S(hbond)    S(metal)    S(lipo)     H(rot)  DE(clash)    DE(int)     intcor
     10.46     -16.86       1.76        0.00     105.57       2.68       2.07       4.33       ----

> <Gold.Chemscore.Fitness>
10.4570

> <Gold.Chemscore.DG>
-16.8580

> <Gold.Chemscore.ZeroCoef>
-5.4800

> <Gold.Chemscore.Hbond>
1.7595

> <Gold.Chemscore.Metal>
0.0000

> <Gold.Chemscore.Lipo>
105.5718

> <Gold.Chemscore.Internal_Hbond>
0.0000

> <Gold.Chemscore.DEClash>
2.0726

> <Gold.Chemscore.DEInternal>
4.3284

> <Gold.Chemscore.Rot>
2.6760

> <Gold.Chemscore.Internal.Correction>
   9.000000E+99

> <Gold.Chemscore.Hbond.Weighted>
-5.8768

> <Gold.Chemscore.Metal.Weighted>
-0.0000

> <Gold.Chemscore.Lipo.Weighted>
-12.3519

> <Gold.Chemscore.Internal_Hbond.Weighted>
0.0000

> <Gold.Chemscore.DEClash.Weighted>
2.0726

> <Gold.Chemscore.DEInternal.Weighted>
4.3284

> <Gold.Chemscore.Rot.Weighted>
6.8506

> <Gold.Chemscore.Internal.Correction.Weighted>
   9.000000E+99

> <Gold.Protein.RotatedTorsions>
[ 6907 6896 6895 6894 ] final  113.69 input  -60.11 | X-H torsion
[ 7974 7965 7964 7962 ] final  117.21 input  175.53 | X-H torsion
[ 8008 7997 7996 7995 ] final  164.58 input   59.86 | X-H torsion
[ 10167 10162 10161 10158 ] final  -65.23 input  -65.29 | X-H torsion
[ 10718 10713 10712 10709 ] final  154.91 input   66.30 | X-H torsion
[ 10763 10752 10751 10750 ] final  111.34 input  -60.55 | X-H torsion
[ 11005 11000 10999 10996 ] final   -0.05 input  -57.11 | X-H torsion

> <Gold.Protein.ActiveResidues>
 VAL166  LYS551  ARG553  GLY616  TRP617  ASP618  TYR619  PRO620  LYS621  CYS622 
 ASP623  PHE694  ASN695  SER759  ASP760  ASP761  ALA762  ILE779  LEU786  VAL792 
 PHE793  MET794  SER795  GLU796  ALA797  LYS798  CYS799  TRP800  GLU811  SER814 

> <Gold.Protein.RotatedAtoms>
  152.4846  133.8340  159.7117 H   0  0  0  0  0  0  0  0  0  0  0  0  # atno 6907 bound_to 6896
  150.8922  133.7219  159.2908 H   0  0  0  0  0  0  0  0  0  0  0  0  # atno 6908 bound_to 6896
  151.4688  135.1048  159.9798 H   0  0  0  0  0  0  0  0  0  0  0  0  # atno 6909 bound_to 6896
  145.1701  139.3106  143.4472 H   0  0  0  0  0  0  0  0  0  0  0  0  # atno 7974 bound_to 7965
  156.1869  140.1693  156.8168 H   0  0  0  0  0  0  0  0  0  0  0  0  # atno 8008 bound_to 7997
  154.5424  140.0734  156.8565 H   0  0  0  0  0  0  0  0  0  0  0  0  # atno 8009 bound_to 7997
  155.3188  140.3372  155.4244 H   0  0  0  0  0  0  0  0  0  0  0  0  # atno 8010 bound_to 7997
  140.5745  143.2320  151.6471 H   0  0  0  0  0  0  0  0  0  0  0  0  # atno 10167 bound_to 10162
  157.2253  131.0727  151.1887 H   0  0  0  0  0  0  0  0  0  0  0  0  # atno 10718 bound_to 10713
  153.4619  135.3720  155.2343 H   0  0  0  0  0  0  0  0  0  0  0  0  # atno 10763 bound_to 10752
  154.8757  135.3910  154.3915 H   0  0  0  0  0  0  0  0  0  0  0  0  # atno 10764 bound_to 10752
  153.4489  135.7085  153.6185 H   0  0  0  0  0  0  0  0  0  0  0  0  # atno 10765 bound_to 10752
  140.6319  133.9567  155.8279 H   0  0  0  0  0  0  0  0  0  0  0  0  # atno 11005 bound_to 11000
  146.3470  140.1843  142.8589 LP  0  0  0  0  0  0  0  0  0  0  0  0  # atno 17320 bound_to 7965
  145.0241  140.8818  143.5149 LP  0  0  0  0  0  0  0  0  0  0  0  0  # atno 17321 bound_to 7965
  139.5135  144.3441  152.0713 LP  0  0  0  0  0  0  0  0  0  0  0  0  # atno 17342 bound_to 10162
  140.2583  144.4095  150.6195 LP  0  0  0  0  0  0  0  0  0  0  0  0  # atno 17343 bound_to 10162
  157.3534  130.7094  149.6455 LP  0  0  0  0  0  0  0  0  0  0  0  0  # atno 17370 bound_to 10713
  155.9679  130.4246  150.4616 LP  0  0  0  0  0  0  0  0  0  0  0  0  # atno 17371 bound_to 10713
  141.0669  134.0264  157.3581 LP  0  0  0  0  0  0  0  0  0  0  0  0  # atno 17394 bound_to 11000
  139.9113  135.0190  156.7701 LP  0  0  0  0  0  0  0  0  0  0  0  0  # atno 17395 bound_to 11000

$$$$
