AV-unprocessed.smi:444|AV-procd|sdf|2588|dock7
  -GOLD-   2262022583D 1   1.00000     0.00000
 Structure written by MMmdl.
 45 46  0  0  0  0  0  0  0  0  1 V2000
  151.7746  144.8083  159.9075 C   0  0  0  0  0  0  0  0  0  0  0  0
  152.5394  143.5992  160.4057 C   0  0  0  0  0  0  0  0  0  0  0  0
  152.7286  142.4830  159.5685 C   0  0  0  0  0  0  0  0  0  0  0  0
  153.4384  141.3640  160.0396 C   0  0  0  0  0  0  0  0  0  0  0  0
  153.9629  141.3534  161.3488 C   0  0  0  0  0  0  0  0  0  0  0  0
  154.7265  140.1381  161.8406 C   0  0  0  0  0  0  0  0  0  0  0  0
  153.7809  142.4680  162.2002 C   0  0  0  0  0  0  0  0  0  0  0  0
  154.3219  142.3934  163.4674 O   0  0  0  0  0  0  0  0  0  0  0  0
  154.4299  143.5861  164.2331 C   0  0  0  0  0  0  0  0  0  0  0  0
  155.4208  143.3456  165.3848 C   0  0  1  0  0  0  0  0  0  0  0  0
  156.7169  143.5946  164.8760 O   0  0  0  0  0  0  0  0  0  0  0  0
  155.1704  144.3065  166.5684 C   0  0  0  0  0  0  0  0  0  0  0  0
  155.7099  143.7774  167.8275 N   0  0  0  0  0  0  0  0  0  0  0  0
  156.7716  144.5033  168.3323 N   0  0  0  0  0  0  0  0  0  0  0  0
  157.3415  144.1775  169.4456 C   0  0  0  0  0  0  0  0  0  0  0  0
  158.4879  145.0418  169.8970 C   0  0  0  0  0  0  0  0  0  0  0  0
  156.8606  143.0195  170.1921 C   0  0  0  0  0  0  0  0  0  0  0  0
  157.5691  142.6846  171.4978 C   0  0  0  0  0  0  0  0  0  0  0  0
  155.8213  142.3114  169.6832 C   0  0  0  0  0  0  0  0  0  0  0  0
  155.2869  141.1626  170.3407 C   0  0  0  0  0  0  0  0  0  0  0  0
  154.8501  140.2217  170.8546 N   0  0  0  0  0  0  0  0  0  0  0  0
  155.1713  142.6745  168.4218 C   0  0  0  0  0  0  0  0  0  0  0  0
  154.2263  142.0519  167.9351 O   0  0  0  0  0  0  0  0  0  0  0  0
  153.0617  143.5902  161.7149 C   0  0  0  0  0  0  0  0  0  0  0  0
  151.6356  144.7720  158.8266 H   0  0  0  0  0  0  0  0  0  0  0  0
  152.3125  145.7255  160.1484 H   0  0  0  0  0  0  0  0  0  0  0  0
  150.7922  144.8520  160.3781 H   0  0  0  0  0  0  0  0  0  0  0  0
  152.3309  142.4799  158.5641 H   0  0  0  0  0  0  0  0  0  0  0  0
  153.5788  140.5125  159.3899 H   0  0  0  0  0  0  0  0  0  0  0  0
  155.7504  140.4132  162.0952 H   0  0  0  0  0  0  0  0  0  0  0  0
  154.7646  139.3551  161.0826 H   0  0  0  0  0  0  0  0  0  0  0  0
  154.2496  139.7260  162.7301 H   0  0  0  0  0  0  0  0  0  0  0  0
  154.7441  144.4344  163.6219 H   0  0  0  0  0  0  0  0  0  0  0  0
  153.4443  143.8152  164.6412 H   0  0  0  0  0  0  0  0  0  0  0  0
  155.3447  142.3102  165.7195 H   0  0  0  0  0  0  0  0  0  0  0  0
  156.9432  144.4950  165.0527 H   0  0  0  0  0  0  0  0  0  0  0  0
  155.5434  145.3081  166.3461 H   0  0  0  0  0  0  0  0  0  0  0  0
  154.0953  144.4373  166.7047 H   0  0  0  0  0  0  0  0  0  0  0  0
  159.3953  144.4498  170.0171 H   0  0  0  0  0  0  0  0  0  0  0  0
  158.2623  145.5142  170.8533 H   0  0  0  0  0  0  0  0  0  0  0  0
  158.7060  145.8357  169.1810 H   0  0  0  0  0  0  0  0  0  0  0  0
  157.1154  141.8351  172.0077 H   0  0  0  0  0  0  0  0  0  0  0  0
  157.5328  143.5319  172.1832 H   0  0  0  0  0  0  0  0  0  0  0  0
  158.6146  142.4363  171.3119 H   0  0  0  0  0  0  0  0  0  0  0  0
  152.8969  144.4604  162.3316 H   0  0  0  0  0  0  0  0  0  0  0  0
  1  2  1  0  0  0  0
  1 25  1  0  0  0  0
  1 26  1  0  0  0  0
  1 27  1  0  0  0  0
  2 24  1  0  0  0  0
  2  3  2  0  0  0  0
  3  4  1  0  0  0  0
  3 28  1  0  0  0  0
  4  5  2  0  0  0  0
  4 29  1  0  0  0  0
  5  6  1  0  0  0  0
  5  7  1  0  0  0  0
  6 30  1  0  0  0  0
  6 31  1  0  0  0  0
  6 32  1  0  0  0  0
  7  8  1  0  0  0  0
  7 24  2  0  0  0  0
  8  9  1  0  0  0  0
  9 10  1  0  0  0  0
  9 33  1  0  0  0  0
  9 34  1  0  0  0  0
 10 11  1  0  0  0  0
 10 12  1  0  0  0  0
 10 35  1  0  0  0  0
 11 36  1  0  0  0  0
 12 13  1  0  0  0  0
 12 37  1  0  0  0  0
 12 38  1  0  0  0  0
 13 22  1  0  0  0  0
 13 14  1  0  0  0  0
 14 15  2  0  0  0  0
 15 16  1  0  0  0  0
 15 17  1  0  0  0  0
 16 39  1  0  0  0  0
 16 40  1  0  0  0  0
 16 41  1  0  0  0  0
 17 18  1  0  0  0  0
 17 19  2  0  0  0  0
 18 42  1  0  0  0  0
 18 43  1  0  0  0  0
 18 44  1  0  0  0  0
 19 20  1  0  0  0  0
 19 22  1  0  0  0  0
 20 21  3  0  0  0  0
 22 23  2  0  0  0  0
 24 45  1  0  0  0  0
M  END
> <s_m_source_file>
AV-unprocessed.smi

> <i_m_source_file_index>
444

> <i_lp_mmshare_version>
43012

> <i_f3d_flags>
0

> <s_epik_input>
W0NIM11jMVtjSF1bY0hdYyhbQ0gzXSljKFtjSF0xKU9bQ0gyXVtDQEhdKFtPSF0pW0NIMl1uMm5jKFtDSDNdKWMoW0NIM10pYyhDI04pYzI9Tw==

> <s_epik_cmdline>
J2VwaWtfcHl0aG9uJywgJy1waCcsICc3LjAnLCAnLXRuJywgJzgnLCAnLW1hJywgJzIwMCcsICctbWV0YWxfYmluZGluZycsICctaW1hZScsICc8aW5maWxlLm1hZT4nLCAnLW9tYWUnLCAnPG91dGZpbGUubWFlPic=

> <r_lp_tautomer_probability>
1

> <r_epik_Ionization_Penalty>
1.17331e-07

> <r_epik_Ionization_Penalty_Charging>
1.57223e-10

> <r_epik_Ionization_Penalty_Neutral>
1.17174e-07

> <r_epik_State_Penalty>
-0

> <r_epik_Charging_Adjusted_Penalty>
1.57223e-10

> <i_epik_Tot_Q>
0

> <i_epik_Tot_abs_Q>
0

> <r_epik_Metal_State_Penalty>
-0

> <b_epik_Metal_Only>
0

> <s_lp_Force_Field>
OPLS_2005

> <r_lp_Energy>
32.4142

> <b_lp_Chiralities_Consistent>
1

> <s_lp_Variant>
AV-unprocessed.smi:444-2

> <Gold.Version>
5.8.1

> <Gold.Id.Protein>
6NUR|6NUR_protein|mol2

> <Gold.PLP.Fitness>
51.2418

> <Gold.PLP.PLP>
-52.8375

> <Gold.PLP.part.hbond>
-4.6378

> <Gold.PLP.part.metal>
0.0000

> <Gold.PLP.part.buried>
-8.9791

> <Gold.PLP.part.nonpolar>
-38.6591

> <Gold.PLP.part.repulsive>
0.3461

> <Gold.PLP.ligand.clash>
0.0000

> <Gold.PLP.ligand.torsion>
0.8232

> <Gold.PLP.Chemscore.Hbond>
0.0000

> <Gold.PLP.Chemscore.CHOScore>
0.0000

> <Gold.PLP.Chemscore.Metal>
0.0000

> <Gold.PLP.Chemscore.Internal.Correction>
0.0507

> <Gold.Rescore>
     Score         DG    S(hbond)    S(metal)    S(lipo)     H(rot)  DE(clash)    DE(int)     intcor
     13.96     -15.06       0.00        0.00     132.00       2.29       0.24       0.87       ----

> <Gold.Chemscore.Fitness>
13.9574

> <Gold.Chemscore.DG>
-15.0606

> <Gold.Chemscore.ZeroCoef>
-5.4800

> <Gold.Chemscore.Hbond>
0.0000

> <Gold.Chemscore.Metal>
0.0000

> <Gold.Chemscore.Lipo>
132.0019

> <Gold.Chemscore.Internal_Hbond>
0.0000

> <Gold.Chemscore.DEClash>
0.2357

> <Gold.Chemscore.DEInternal>
0.8676

> <Gold.Chemscore.Rot>
2.2905

> <Gold.Chemscore.Internal.Correction>
   9.000000E+99

> <Gold.Chemscore.Hbond.Weighted>
-0.0000

> <Gold.Chemscore.Metal.Weighted>
-0.0000

> <Gold.Chemscore.Lipo.Weighted>
-15.4442

> <Gold.Chemscore.Internal_Hbond.Weighted>
0.0000

> <Gold.Chemscore.DEClash.Weighted>
0.2357

> <Gold.Chemscore.DEInternal.Weighted>
0.8676

> <Gold.Chemscore.Rot.Weighted>
5.8636

> <Gold.Chemscore.Internal.Correction.Weighted>
   9.000000E+99

> <Gold.Protein.RotatedTorsions>
[ 6907 6896 6895 6894 ] final  -97.21 input  -60.11 | X-H torsion
[ 7974 7965 7964 7962 ] final   47.70 input  175.53 | X-H torsion
[ 8008 7997 7996 7995 ] final  108.84 input   59.86 | X-H torsion
[ 10167 10162 10161 10158 ] final  103.17 input  -65.29 | X-H torsion
[ 10718 10713 10712 10709 ] final  -90.56 input   66.30 | X-H torsion
[ 10763 10752 10751 10750 ] final  -50.64 input  -60.55 | X-H torsion
[ 11005 11000 10999 10996 ] final -127.38 input  -57.11 | X-H torsion

> <Gold.Protein.ActiveResidues>
 VAL166  LYS551  ARG553  GLY616  TRP617  ASP618  TYR619  PRO620  LYS621  CYS622 
 ASP623  PHE694  ASN695  SER759  ASP760  ASP761  ALA762  ILE779  LEU786  VAL792 
 PHE793  MET794  SER795  GLU796  ALA797  LYS798  CYS799  TRP800  GLU811  SER814 

> <Gold.Protein.RotatedAtoms>
  150.7010  134.1383  159.4095 H   0  0  0  0  0  0  0  0  0  0  0  0  # atno 6907 bound_to 6896
  151.9368  135.0229  160.0542 H   0  0  0  0  0  0  0  0  0  0  0  0  # atno 6908 bound_to 6896
  152.2128  133.4889  159.5156 H   0  0  0  0  0  0  0  0  0  0  0  0  # atno 6909 bound_to 6896
  146.0273  139.4722  142.9859 H   0  0  0  0  0  0  0  0  0  0  0  0  # atno 7974 bound_to 7965
  156.1934  140.3069  155.9378 H   0  0  0  0  0  0  0  0  0  0  0  0  # atno 8008 bound_to 7997
  155.3121  140.0451  157.3052 H   0  0  0  0  0  0  0  0  0  0  0  0  # atno 8009 bound_to 7997
  154.5480  140.2282  155.8541 H   0  0  0  0  0  0  0  0  0  0  0  0  # atno 8010 bound_to 7997
  139.7286  144.7041  151.0758 H   0  0  0  0  0  0  0  0  0  0  0  0  # atno 10167 bound_to 10162
  155.9988  130.4914  150.5341 H   0  0  0  0  0  0  0  0  0  0  0  0  # atno 10718 bound_to 10713
  154.1136  135.6545  153.4889 H   0  0  0  0  0  0  0  0  0  0  0  0  # atno 10763 bound_to 10752
  153.0248  135.5253  154.7167 H   0  0  0  0  0  0  0  0  0  0  0  0  # atno 10764 bound_to 10752
  154.6354  135.2981  155.0136 H   0  0  0  0  0  0  0  0  0  0  0  0  # atno 10765 bound_to 10752
  140.9604  134.0944  157.3974 H   0  0  0  0  0  0  0  0  0  0  0  0  # atno 11005 bound_to 11000
  145.7097  141.0110  143.1460 LP  0  0  0  0  0  0  0  0  0  0  0  0  # atno 17320 bound_to 7965
  144.7015  139.8742  143.7443 LP  0  0  0  0  0  0  0  0  0  0  0  0  # atno 17321 bound_to 7965
  140.7767  143.5073  150.9697 LP  0  0  0  0  0  0  0  0  0  0  0  0  # atno 17342 bound_to 10162
  139.8760  143.7131  152.3162 LP  0  0  0  0  0  0  0  0  0  0  0  0  # atno 17343 bound_to 10162
  157.3286  131.0695  151.1878 LP  0  0  0  0  0  0  0  0  0  0  0  0  # atno 17370 bound_to 10713
  157.2766  130.6730  149.6045 LP  0  0  0  0  0  0  0  0  0  0  0  0  # atno 17371 bound_to 10713
  139.8876  135.0091  156.6570 LP  0  0  0  0  0  0  0  0  0  0  0  0  # atno 17394 bound_to 11000
  140.7476  133.8925  155.8323 LP  0  0  0  0  0  0  0  0  0  0  0  0  # atno 17395 bound_to 11000

$$$$
