AV-unprocessed.smi:3173|AV-procd|sdf|12119|dock9
  -GOLD-   2272017553D 1   1.00000     0.00000
 Structure written by MMmdl.
 36 37  0  0  0  0  0  0  0  0  2 V2000
  151.2879  139.7886  154.8031 O   0  0  0  0  0  0  0  0  0  0  0  0
  150.0985  139.7101  155.1115 C   0  0  0  0  0  0  0  0  0  0  0  0
  149.1043  138.9922  154.1923 C   0  0  0  0  0  0  0  0  0  0  0  0
  147.9594  139.9041  153.7039 C   0  0  2  0  0  0  0  0  0  0  0  0
  148.3528  141.3586  153.6887 C   0  0  0  0  0  0  0  0  0  0  0  0
  147.4742  142.1364  154.3176 C   0  0  0  0  0  0  0  0  0  0  0  0
  146.3176  141.3588  154.8811 C   0  0  0  0  0  0  0  0  0  0  0  0
  146.6944  139.8868  154.6042 C   0  0  0  0  0  0  0  0  0  0  0  0
  149.5982  140.2271  156.2443 N   0  0  0  0  0  0  0  0  0  0  0  0
  150.3802  140.9193  157.2620 C   0  0  0  0  0  0  0  0  0  0  0  0
  150.9031  142.2712  156.7475 C   0  0  0  0  0  0  0  0  0  0  0  0
  151.2479  143.2222  157.8768 C   0  0  0  0  0  0  0  0  0  0  0  0
  152.1945  142.8920  158.8709 C   0  0  0  0  0  0  0  0  0  0  0  0
  152.4744  143.8232  159.8925 C   0  0  0  0  0  0  0  0  0  0  0  0
  151.8033  145.0636  159.8986 C   0  0  0  0  0  0  0  0  0  0  0  0
  150.8688  145.3423  158.8802 C   0  0  0  0  0  0  0  0  0  0  0  0
  150.6287  144.4245  157.9179 N   0  3  0  0  0  0  0  0  0  0  0  0
  149.6333  138.5746  153.3339 H   0  0  0  0  0  0  0  0  0  0  0  0
  148.6916  138.1453  154.7417 H   0  0  0  0  0  0  0  0  0  0  0  0
  147.6873  139.6420  152.6803 H   0  0  0  0  0  0  0  0  0  0  0  0
  149.2491  141.7068  153.1967 H   0  0  0  0  0  0  0  0  0  0  0  0
  147.5488  143.2096  154.4143 H   0  0  0  0  0  0  0  0  0  0  0  0
  146.2000  141.5551  155.9473 H   0  0  0  0  0  0  0  0  0  0  0  0
  145.3979  141.6431  154.3690 H   0  0  0  0  0  0  0  0  0  0  0  0
  145.8752  139.3442  154.1309 H   0  0  0  0  0  0  0  0  0  0  0  0
  146.9020  139.3875  155.5517 H   0  0  0  0  0  0  0  0  0  0  0  0
  148.6083  140.1238  156.4165 H   0  0  0  0  0  0  0  0  0  0  0  0
  149.7785  141.0593  158.1619 H   0  0  0  0  0  0  0  0  0  0  0  0
  151.2153  140.2775  157.5437 H   0  0  0  0  0  0  0  0  0  0  0  0
  151.7882  142.1191  156.1282 H   0  0  0  0  0  0  0  0  0  0  0  0
  150.1588  142.7450  156.1060 H   0  0  0  0  0  0  0  0  0  0  0  0
  152.7016  141.9380  158.8509 H   0  0  0  0  0  0  0  0  0  0  0  0
  153.1956  143.5886  160.6620 H   0  0  0  0  0  0  0  0  0  0  0  0
  152.0028  145.7901  160.6728 H   0  0  0  0  0  0  0  0  0  0  0  0
  150.3109  146.2644  158.8065 H   0  0  0  0  0  0  0  0  0  0  0  0
  149.9486  144.6481  157.1910 H   0  0  0  0  0  0  0  0  0  0  0  0
  1  2  2  0  0  0  0
  2  3  1  0  0  0  0
  2  9  1  0  0  0  0
  3  4  1  0  0  0  0
  3 18  1  0  0  0  0
  3 19  1  0  0  0  0
  4  8  1  0  0  0  0
  4  5  1  0  0  0  0
  4 20  1  0  0  0  0
  5  6  2  0  0  0  0
  5 21  1  0  0  0  0
  6  7  1  0  0  0  0
  6 22  1  0  0  0  0
  7  8  1  0  0  0  0
  7 23  1  0  0  0  0
  7 24  1  0  0  0  0
  8 25  1  0  0  0  0
  8 26  1  0  0  0  0
  9 10  1  0  0  0  0
  9 27  1  0  0  0  0
 10 11  1  0  0  0  0
 10 28  1  0  0  0  0
 10 29  1  0  0  0  0
 11 12  1  0  0  0  0
 11 30  1  0  0  0  0
 11 31  1  0  0  0  0
 12 17  1  0  0  0  0
 12 13  2  0  0  0  0
 13 14  1  0  0  0  0
 13 32  1  0  0  0  0
 14 15  2  0  0  0  0
 14 33  1  0  0  0  0
 15 16  1  0  0  0  0
 15 34  1  0  0  0  0
 16 17  2  0  0  0  0
 16 35  1  0  0  0  0
 17 36  1  0  0  0  0
M  CHG  1  17   1
M  END
> <s_m_source_file>
AV-unprocessed.smi

> <i_m_source_file_index>
3173

> <i_lp_mmshare_version>
43012

> <i_f3d_flags>
0

> <s_epik_input>
W0NIMl0xW0NIMl1bQ0hdPVtDSF1bQ0BIXTFbQ0gyXUMoPU8pW05IXVtDSDJdW0NIMl1jMltjSF1bY0hdW2NIXVtjSF1uMg==

> <s_epik_cmdline>
J2VwaWtfcHl0aG9uJywgJy1waCcsICc3LjAnLCAnLXRuJywgJzgnLCAnLW1hJywgJzIwMCcsICctbWV0YWxfYmluZGluZycsICctaW1hZScsICc8aW5maWxlLm1hZT4nLCAnLW9tYWUnLCAnPG91dGZpbGUubWFlPic=

> <r_epik_Ionization_Penalty>
1.86798

> <r_epik_Ionization_Penalty_Charging>
1.86798

> <r_epik_Ionization_Penalty_Neutral>
1.53848e-08

> <r_epik_State_Penalty>
1.98677

> <r_epik_Charging_Adjusted_Penalty>
3.85475

> <i_epik_Tot_Q>
1

> <i_epik_Tot_abs_Q>
1

> <r_epik_Metal_State_Penalty>
2.01174

> <b_epik_Metal_Only>
0

> <s_lp_Force_Field>
OPLS_2005

> <r_lp_Energy>
19.7802

> <b_lp_Chiralities_Consistent>
1

> <s_lp_Variant>
AV-unprocessed.smi:3173-3

> <Gold.Version>
5.8.1

> <Gold.Id.Protein>
6NUR|6NUR_protein|mol2

> <Gold.PLP.Fitness>
46.8173

> <Gold.PLP.PLP>
-38.9470

> <Gold.PLP.part.hbond>
-2.1501

> <Gold.PLP.part.metal>
0.0000

> <Gold.PLP.part.buried>
-2.9020

> <Gold.PLP.part.nonpolar>
-33.0269

> <Gold.PLP.part.repulsive>
0.1753

> <Gold.PLP.ligand.clash>
0.0000

> <Gold.PLP.ligand.torsion>
0.5790

> <Gold.PLP.Chemscore.Hbond>
3.0000

> <Gold.PLP.Chemscore.CHOScore>
0.0000

> <Gold.PLP.Chemscore.Metal>
0.0000

> <Gold.Chemscore.Hbonds>
donor molecule, donor type, donor heavy atom, donor atom, acceptor molecule, acceptor atom, score
      L1  H    17    36       P1  8028  1.90
      P1  H  7989  7998       L1     1  1.00

> <Gold.PLP.Chemscore.Internal.Correction>
0.0282

> <Gold.Rescore>
     Score         DG    S(hbond)    S(metal)    S(lipo)     H(rot)  DE(clash)    DE(int)     intcor
     19.07     -19.67       1.84        0.00     103.99       1.61       0.05       0.54       ----

> <Gold.Chemscore.Fitness>
19.0728

> <Gold.Chemscore.DG>
-19.6715

> <Gold.Chemscore.ZeroCoef>
-5.4800

> <Gold.Chemscore.Hbond>
1.8420

> <Gold.Chemscore.Metal>
0.0000

> <Gold.Chemscore.Lipo>
103.9867

> <Gold.Chemscore.Internal_Hbond>
0.0000

> <Gold.Chemscore.DEClash>
0.0539

> <Gold.Chemscore.DEInternal>
0.5447

> <Gold.Chemscore.Rot>
1.6122

> <Gold.Chemscore.Internal.Correction>
   9.000000E+99

> <Gold.Chemscore.Hbonds>
donor molecule, donor type, donor heavy atom, donor atom, acceptor molecule, acceptor atom, score
      L1  H    17    36       P1  8028  0.22
      P1  H  7989  7998       L1     1  0.93

> <Gold.Chemscore.Hbond.Weighted>
-6.1521

> <Gold.Chemscore.Metal.Weighted>
-0.0000

> <Gold.Chemscore.Lipo.Weighted>
-12.1664

> <Gold.Chemscore.Internal_Hbond.Weighted>
0.0000

> <Gold.Chemscore.DEClash.Weighted>
0.0539

> <Gold.Chemscore.DEInternal.Weighted>
0.5447

> <Gold.Chemscore.Rot.Weighted>
4.1271

> <Gold.Chemscore.Internal.Correction.Weighted>
   9.000000E+99

> <Gold.Protein.RotatedTorsions>
[ 6907 6896 6895 6894 ] final  -38.18 input  -60.11 | X-H torsion
[ 7974 7965 7964 7962 ] final   -1.59 input  175.53 | X-H torsion
[ 8008 7997 7996 7995 ] final    9.84 input   59.86 | X-H torsion
[ 10167 10162 10161 10158 ] final -166.71 input  -65.29 | X-H torsion
[ 10718 10713 10712 10709 ] final  -77.47 input   66.30 | X-H torsion
[ 10763 10752 10751 10750 ] final   55.57 input  -60.55 | X-H torsion
[ 11005 11000 10999 10996 ] final -119.21 input  -57.11 | X-H torsion

> <Gold.Protein.ActiveResidues>
 VAL166  LYS551  ARG553  GLY616  TRP617  ASP618  TYR619  PRO620  LYS621  CYS622 
 ASP623  PHE694  ASN695  SER759  ASP760  ASP761  ALA762  ILE779  LEU786  VAL792 
 PHE793  MET794  SER795  GLU796  ALA797  LYS798  CYS799  TRP800  GLU811  SER814 

> <Gold.Protein.RotatedAtoms>
  151.0056  134.9357  159.7978 H   0  0  0  0  0  0  0  0  0  0  0  0  # atno 6907 bound_to 6896
  152.5289  134.3096  159.9118 H   0  0  0  0  0  0  0  0  0  0  0  0  # atno 6908 bound_to 6896
  151.3101  133.4042  159.2680 H   0  0  0  0  0  0  0  0  0  0  0  0  # atno 6909 bound_to 6896
  146.2415  140.1444  142.8335 H   0  0  0  0  0  0  0  0  0  0  0  0  # atno 7974 bound_to 7965
  154.7854  140.2826  155.6031 H   0  0  0  0  0  0  0  0  0  0  0  0  # atno 8008 bound_to 7997
  156.2956  140.2615  156.2618 H   0  0  0  0  0  0  0  0  0  0  0  0  # atno 8009 bound_to 7997
  154.9733  140.0376  157.2234 H   0  0  0  0  0  0  0  0  0  0  0  0  # atno 8010 bound_to 7997
  139.6097  144.0840  152.1829 H   0  0  0  0  0  0  0  0  0  0  0  0  # atno 10167 bound_to 10162
  156.0144  130.4492  150.3349 H   0  0  0  0  0  0  0  0  0  0  0  0  # atno 10718 bound_to 10713
  152.9819  135.5706  154.5088 H   0  0  0  0  0  0  0  0  0  0  0  0  # atno 10763 bound_to 10752
  154.4596  135.2781  155.1725 H   0  0  0  0  0  0  0  0  0  0  0  0  # atno 10764 bound_to 10752
  154.3318  135.6247  153.5608 H   0  0  0  0  0  0  0  0  0  0  0  0  # atno 10765 bound_to 10752
  141.0231  134.0094  157.3253 H   0  0  0  0  0  0  0  0  0  0  0  0  # atno 11005 bound_to 11000
  145.0220  140.8801  143.5161 LP  0  0  0  0  0  0  0  0  0  0  0  0  # atno 17320 bound_to 7965
  145.1494  139.2523  143.5449 LP  0  0  0  0  0  0  0  0  0  0  0  0  # atno 17321 bound_to 7965
  140.0456  144.5973  150.7376 LP  0  0  0  0  0  0  0  0  0  0  0  0  # atno 17342 bound_to 10162
  140.7310  143.2690  151.3951 LP  0  0  0  0  0  0  0  0  0  0  0  0  # atno 17343 bound_to 10162
  157.1446  131.0305  151.2912 LP  0  0  0  0  0  0  0  0  0  0  0  0  # atno 17370 bound_to 10713
  157.4443  130.7562  149.7096 LP  0  0  0  0  0  0  0  0  0  0  0  0  # atno 17371 bound_to 10713
  139.9159  135.0196  156.7878 LP  0  0  0  0  0  0  0  0  0  0  0  0  # atno 17394 bound_to 11000
  140.6538  133.9707  155.7769 LP  0  0  0  0  0  0  0  0  0  0  0  0  # atno 17395 bound_to 11000

$$$$
