AV-unprocessed.smi:837|AV-procd|sdf|3903|dock5
  -GOLD-   22720 1363D 1   1.00000     0.00000
 Structure written by MMmdl.
 48 50  0  0  0  0  0  0  0  0  2 V2000
  152.7001  138.0522  158.8929 C   0  0  0  0  0  0  0  0  0  0  0  0
  152.1884  139.4889  159.1366 C   0  0  1  0  0  0  0  0  0  0  0  0
  153.2645  140.3379  159.8482 C   0  0  0  0  0  0  0  0  0  0  0  0
  152.7469  141.7400  160.2016 C   0  0  0  0  0  0  0  0  0  0  0  0
  152.2321  142.4711  158.9552 C   0  0  0  0  0  0  0  0  0  0  0  0
  151.1508  141.6482  158.2333 C   0  0  0  0  0  0  0  0  0  0  0  0
  151.6294  140.2177  157.8708 C   0  0  1  0  0  0  0  0  0  0  0  0
  152.6125  140.2754  156.8002 N   0  5  0  0  0  0  0  0  0  0  0  0
  152.1102  139.6549  155.7078 C   0  0  0  0  0  0  0  0  0  0  0  0
  152.6627  139.5277  154.6155 O   0  0  0  0  0  0  0  0  0  0  0  0
  150.8793  139.1660  155.9516 N   0  0  0  0  0  0  0  0  0  0  0  0
  150.0508  138.4560  154.9685 C   0  0  0  0  0  0  0  0  0  0  0  0
  149.6872  137.0343  155.4168 C   0  0  0  0  0  0  0  0  0  0  0  0
  149.4741  136.7834  156.6037 O   0  0  0  0  0  0  0  0  0  0  0  0
  149.6477  136.1031  154.4523 N   0  0  0  0  0  0  0  0  0  0  0  0
  149.3341  134.6934  154.6623 C   0  0  0  0  0  0  0  0  0  0  0  0
  149.6924  133.8197  153.4451 C   0  0  0  0  0  0  0  0  0  0  0  0
  148.4921  133.1138  152.8386 C   0  0  0  0  0  0  0  0  0  0  0  0
  148.3380  131.7161  152.9491 C   0  0  0  0  0  0  0  0  0  0  0  0
  147.2112  131.1099  152.3611 C   0  0  0  0  0  0  0  0  0  0  0  0
  146.2843  131.9292  151.6862 C   0  0  0  0  0  0  0  0  0  0  0  0
  146.4216  133.2680  151.5743 N   0  0  0  0  0  0  0  0  0  0  0  0
  147.5042  133.8415  152.1420 C   0  0  0  0  0  0  0  0  0  0  0  0
  150.4983  139.4477  157.2025 C   0  0  0  0  0  0  0  0  0  0  0  0
  149.4329  139.1541  157.7471 O   0  0  0  0  0  0  0  0  0  0  0  0
  153.5470  138.0394  158.2067 H   0  0  0  0  0  0  0  0  0  0  0  0
  151.9249  137.4079  158.4785 H   0  0  0  0  0  0  0  0  0  0  0  0
  153.0301  137.5952  159.8257 H   0  0  0  0  0  0  0  0  0  0  0  0
  151.3588  139.3963  159.8398 H   0  0  0  0  0  0  0  0  0  0  0  0
  153.5912  139.8361  160.7596 H   0  0  0  0  0  0  0  0  0  0  0  0
  154.1484  140.4242  159.2146 H   0  0  0  0  0  0  0  0  0  0  0  0
  151.9453  141.6602  160.9371 H   0  0  0  0  0  0  0  0  0  0  0  0
  153.5412  142.3214  160.6706 H   0  0  0  0  0  0  0  0  0  0  0  0
  151.8303  143.4448  159.2359 H   0  0  0  0  0  0  0  0  0  0  0  0
  153.0628  142.6666  158.2760 H   0  0  0  0  0  0  0  0  0  0  0  0
  150.2762  141.5861  158.8829 H   0  0  0  0  0  0  0  0  0  0  0  0
  150.8215  142.1830  157.3405 H   0  0  0  0  0  0  0  0  0  0  0  0
  149.1421  139.0286  154.7739 H   0  0  0  0  0  0  0  0  0  0  0  0
  150.5682  138.3905  154.0100 H   0  0  0  0  0  0  0  0  0  0  0  0
  149.8424  136.3926  153.5048 H   0  0  0  0  0  0  0  0  0  0  0  0
  149.8386  134.3240  155.5565 H   0  0  0  0  0  0  0  0  0  0  0  0
  148.2646  134.6206  154.8621 H   0  0  0  0  0  0  0  0  0  0  0  0
  150.1713  134.4309  152.6791 H   0  0  0  0  0  0  0  0  0  0  0  0
  150.4301  133.0712  153.7364 H   0  0  0  0  0  0  0  0  0  0  0  0
  149.0712  131.1178  153.4701 H   0  0  0  0  0  0  0  0  0  0  0  0
  147.0615  130.0423  152.4242 H   0  0  0  0  0  0  0  0  0  0  0  0
  145.4097  131.4976  151.2227 H   0  0  0  0  0  0  0  0  0  0  0  0
  147.5874  134.9129  152.0329 H   0  0  0  0  0  0  0  0  0  0  0  0
  1  2  1  0  0  0  0
  1 26  1  0  0  0  0
  1 27  1  0  0  0  0
  1 28  1  0  0  0  0
  2  7  1  0  0  0  0
  2  3  1  0  0  0  0
  2 29  1  0  0  0  0
  3  4  1  0  0  0  0
  3 30  1  0  0  0  0
  3 31  1  0  0  0  0
  4  5  1  0  0  0  0
  4 32  1  0  0  0  0
  4 33  1  0  0  0  0
  5  6  1  0  0  0  0
  5 34  1  0  0  0  0
  5 35  1  0  0  0  0
  6  7  1  0  0  0  0
  6 36  1  0  0  0  0
  6 37  1  0  0  0  0
  7 24  1  0  0  0  0
  7  8  1  0  0  0  0
  8  9  1  0  0  0  0
  9 10  2  0  0  0  0
  9 11  1  0  0  0  0
 11 12  1  0  0  0  0
 11 24  1  0  0  0  0
 12 13  1  0  0  0  0
 12 38  1  0  0  0  0
 12 39  1  0  0  0  0
 13 14  2  0  0  0  0
 13 15  1  0  0  0  0
 15 16  1  0  0  0  0
 15 40  1  0  0  0  0
 16 17  1  0  0  0  0
 16 41  1  0  0  0  0
 16 42  1  0  0  0  0
 17 18  1  0  0  0  0
 17 43  1  0  0  0  0
 17 44  1  0  0  0  0
 18 23  1  0  0  0  0
 18 19  2  0  0  0  0
 19 20  1  0  0  0  0
 19 45  1  0  0  0  0
 20 21  2  0  0  0  0
 20 46  1  0  0  0  0
 21 22  1  0  0  0  0
 21 47  1  0  0  0  0
 22 23  2  0  0  0  0
 23 48  1  0  0  0  0
 24 25  2  0  0  0  0
M  CHG  1   8  -1
M  END
> <s_m_source_file>
AV-unprocessed.smi

> <i_m_source_file_index>
837

> <i_lp_mmshare_version>
43012

> <i_f3d_flags>
0

> <s_epik_input>
W0NIMl0xW0NIMl1bQ0gyXVtDSDJdW0NAQEhdKFtDSDNdKVtDQEBdMTJbTkhdQyg9TylOKEMyPU8pW0NIMl1DKD1PKVtOSF1bQ0gyXVtDSDJdYzNbY0hdW2NIXVtjSF1uW2NIXTM=

> <s_epik_cmdline>
J2VwaWtfcHl0aG9uJywgJy1waCcsICc3LjAnLCAnLXRuJywgJzgnLCAnLW1hJywgJzIwMCcsICctbWV0YWxfYmluZGluZycsICctaW1hZScsICc8aW5maWxlLm1hZT4nLCAnLW9tYWUnLCAnPG91dGZpbGUubWFlPic=

> <r_lp_tautomer_probability>
1

> <r_epik_Ionization_Penalty>
6.03002

> <r_epik_Ionization_Penalty_Charging>
6.01728

> <r_epik_Ionization_Penalty_Neutral>
0.0127382

> <r_epik_State_Penalty>
6.02713

> <r_epik_Charging_Adjusted_Penalty>
12.0444

> <i_epik_Tot_Q>
-1

> <i_epik_Tot_abs_Q>
1

> <r_epik_Metal_State_Penalty>
1.99078

> <b_epik_Metal_Only>
1

> <s_lp_Force_Field>
OPLS_2005

> <r_lp_Energy>
20.5142

> <b_lp_Chiralities_Consistent>
1

> <s_lp_Variant>
AV-unprocessed.smi:837-12

> <Gold.Version>
5.8.1

> <Gold.Id.Protein>
6NUR|6NUR_protein|mol2

> <Gold.PLP.Fitness>
51.8501

> <Gold.PLP.PLP>
-39.5991

> <Gold.PLP.part.hbond>
-3.0000

> <Gold.PLP.part.metal>
0.0000

> <Gold.PLP.part.buried>
-3.2194

> <Gold.PLP.part.nonpolar>
-32.2112

> <Gold.PLP.part.repulsive>
0.1942

> <Gold.PLP.ligand.clash>
0.0000

> <Gold.PLP.ligand.torsion>
0.8886

> <Gold.PLP.Chemscore.Hbond>
3.6661

> <Gold.PLP.Chemscore.CHOScore>
1.0000

> <Gold.PLP.Chemscore.Metal>
0.0000

> <Gold.Chemscore.Hbonds>
donor molecule, donor type, donor heavy atom, donor atom, acceptor molecule, acceptor atom, score
      L1  H    15    40       P1  7948  0.68
      P1  H  7989  7998       L1    10  0.54
      P1  H  7997  8009       L1     8  1.88
      L1  C    23    48       P1  7948  0.58

> <Gold.PLP.Chemscore.Internal.Correction>
0.0297

> <Gold.Rescore>
     Score         DG    S(hbond)    S(metal)    S(lipo)     H(rot)  DE(clash)    DE(int)     intcor
     16.49     -20.34       2.72        0.00      89.04       1.81       0.05       3.80       ----

> <Gold.Chemscore.Fitness>
16.4900

> <Gold.Chemscore.DG>
-20.3420

> <Gold.Chemscore.ZeroCoef>
-5.4800

> <Gold.Chemscore.Hbond>
2.7172

> <Gold.Chemscore.Metal>
0.0000

> <Gold.Chemscore.Lipo>
89.0404

> <Gold.Chemscore.Internal_Hbond>
0.0000

> <Gold.Chemscore.DEClash>
0.0528

> <Gold.Chemscore.DEInternal>
3.7992

> <Gold.Chemscore.Rot>
1.8090

> <Gold.Chemscore.Internal.Correction>
   9.000000E+99

> <Gold.Chemscore.Hbonds>
donor molecule, donor type, donor heavy atom, donor atom, acceptor molecule, acceptor atom, score
      L1  H    15    40       P1  7948  0.15
      P1  H  7989  7998       L1    10  0.18
      P1  H  7997  8009       L1     8  0.20

> <Gold.Chemscore.Hbond.Weighted>
-9.0753

> <Gold.Chemscore.Metal.Weighted>
-0.0000

> <Gold.Chemscore.Lipo.Weighted>
-10.4177

> <Gold.Chemscore.Internal_Hbond.Weighted>
0.0000

> <Gold.Chemscore.DEClash.Weighted>
0.0528

> <Gold.Chemscore.DEInternal.Weighted>
3.7992

> <Gold.Chemscore.Rot.Weighted>
4.6310

> <Gold.Chemscore.Internal.Correction.Weighted>
   9.000000E+99

> <Gold.Protein.RotatedTorsions>
[ 6907 6896 6895 6894 ] final  -54.85 input  -60.11 | X-H torsion
[ 7974 7965 7964 7962 ] final   44.90 input  175.53 | X-H torsion
[ 8008 7997 7996 7995 ] final -166.05 input   59.86 | X-H torsion
[ 10167 10162 10161 10158 ] final -116.74 input  -65.29 | X-H torsion
[ 10718 10713 10712 10709 ] final  -82.69 input   66.30 | X-H torsion
[ 10763 10752 10751 10750 ] final   92.58 input  -60.55 | X-H torsion
[ 11005 11000 10999 10996 ] final   18.18 input  -57.11 | X-H torsion

> <Gold.Protein.ActiveResidues>
 VAL166  LYS551  ARG553  GLY616  TRP617  ASP618  TYR619  PRO620  LYS621  CYS622 
 ASP623  PHE694  ASN695  SER759  ASP760  ASP761  ALA762  ILE779  LEU786  VAL792 
 PHE793  MET794  SER795  GLU796  ALA797  LYS798  CYS799  TRP800  GLU811  SER814 

> <Gold.Protein.RotatedAtoms>
  150.8302  134.7551  159.6846 H   0  0  0  0  0  0  0  0  0  0  0  0  # atno 6907 bound_to 6896
  152.4407  134.5593  159.9899 H   0  0  0  0  0  0  0  0  0  0  0  0  # atno 6908 bound_to 6896
  151.5755  133.3347  159.3034 H   0  0  0  0  0  0  0  0  0  0  0  0  # atno 6909 bound_to 6896
  146.0528  139.5024  142.9707 H   0  0  0  0  0  0  0  0  0  0  0  0  # atno 7974 bound_to 7965
  155.8585  140.0974  157.1629 H   0  0  0  0  0  0  0  0  0  0  0  0  # atno 8008 bound_to 7997
  154.3989  140.1369  156.3993 H   0  0  0  0  0  0  0  0  0  0  0  0  # atno 8009 bound_to 7997
  155.7883  140.3456  155.5338 H   0  0  0  0  0  0  0  0  0  0  0  0  # atno 8010 bound_to 7997
  140.0760  143.4833  152.1953 H   0  0  0  0  0  0  0  0  0  0  0  0  # atno 10167 bound_to 10162
  156.0029  130.4642  150.4143 H   0  0  0  0  0  0  0  0  0  0  0  0  # atno 10718 bound_to 10713
  153.2208  135.4356  155.0486 H   0  0  0  0  0  0  0  0  0  0  0  0  # atno 10763 bound_to 10752
  154.8248  135.3355  154.6931 H   0  0  0  0  0  0  0  0  0  0  0  0  # atno 10764 bound_to 10752
  153.7363  135.7007  153.5033 H   0  0  0  0  0  0  0  0  0  0  0  0  # atno 10765 bound_to 10752
  140.4277  134.1453  155.7678 H   0  0  0  0  0  0  0  0  0  0  0  0  # atno 11005 bound_to 11000
  145.6695  141.0220  143.1665 LP  0  0  0  0  0  0  0  0  0  0  0  0  # atno 17320 bound_to 7965
  144.7132  139.8294  143.7408 LP  0  0  0  0  0  0  0  0  0  0  0  0  # atno 17321 bound_to 7965
  139.5808  144.7509  151.3646 LP  0  0  0  0  0  0  0  0  0  0  0  0  # atno 17342 bound_to 10162
  140.7102  143.7410  150.7553 LP  0  0  0  0  0  0  0  0  0  0  0  0  # atno 17343 bound_to 10162
  157.2203  131.0481  151.2550 LP  0  0  0  0  0  0  0  0  0  0  0  0  # atno 17370 bound_to 10713
  157.3806  130.7229  149.6627 LP  0  0  0  0  0  0  0  0  0  0  0  0  # atno 17371 bound_to 10713
  141.1758  133.8516  157.1424 LP  0  0  0  0  0  0  0  0  0  0  0  0  # atno 17394 bound_to 11000
  140.0156  134.9969  157.0486 LP  0  0  0  0  0  0  0  0  0  0  0  0  # atno 17395 bound_to 11000

$$$$
