AV-unprocessed.smi:283|AV-procd|sdf|2132|dock2
  -GOLD-   2262021443D 1   1.00000     0.00000
 Structure written by MMmdl.
 48 51  0  0  0  0  0  0  0  0  1 V2000
  153.8152  140.3812  160.2210 C   0  0  0  0  0  0  0  0  0  0  0  0
  152.8334  140.9389  159.1822 C   0  0  1  0  0  0  0  0  0  0  0  0
  151.7329  139.9969  158.9851 N   0  0  0  0  0  0  0  0  0  0  0  0
  151.8744  138.9483  158.1444 C   0  0  0  0  0  0  0  0  0  0  0  0
  153.0339  138.9049  157.4462 N   0  0  0  0  0  0  0  0  0  0  0  0
  153.2805  137.8844  156.6207 C   0  0  0  0  0  0  0  0  0  0  0  0
  152.5138  136.8270  156.3505 N   0  0  0  0  0  0  0  0  0  0  0  0
  151.3332  136.8722  157.0332 C   0  0  0  0  0  0  0  0  0  0  0  0
  150.9350  137.8949  157.9414 C   0  0  0  0  0  0  0  0  0  0  0  0
  149.6672  137.6052  158.4316 N   0  0  0  0  0  0  0  0  0  0  0  0
  149.3497  136.4746  157.8640 C   0  0  0  0  0  0  0  0  0  0  0  0
  150.2975  135.9580  157.0112 N   0  0  0  0  0  0  0  0  0  0  0  0
  150.2149  134.6785  156.2378 C   0  0  1  0  0  0  0  0  0  0  0  0
  149.1863  133.8825  156.7460 O   0  0  0  0  0  0  0  0  0  0  0  0
  148.4786  133.2274  155.6900 C   0  0  1  0  0  0  0  0  0  0  0  0
  147.0118  133.7019  155.7386 C   0  0  0  0  0  0  0  0  0  0  0  0
  146.2579  133.1018  154.7059 O   0  0  0  0  0  0  0  0  0  0  0  0
  149.2617  133.5755  154.4099 C   0  0  1  0  0  0  0  0  0  0  0  0
  148.5053  133.6230  153.2144 O   0  0  0  0  0  0  0  0  0  0  0  0
  149.9381  134.8940  154.7452 C   0  0  1  0  0  0  0  0  0  0  0  0
  149.1206  136.0223  154.4785 O   0  0  0  0  0  0  0  0  0  0  0  0
  152.3991  142.3570  159.5666 C   0  0  0  0  0  0  0  0  0  0  0  0
  152.7032  142.8608  160.8531 C   0  0  0  0  0  0  0  0  0  0  0  0
  152.3007  144.1546  161.2324 C   0  0  0  0  0  0  0  0  0  0  0  0
  151.5964  144.9653  160.3246 C   0  0  0  0  0  0  0  0  0  0  0  0
  151.3040  144.4823  159.0359 C   0  0  0  0  0  0  0  0  0  0  0  0
  151.7052  143.1874  158.6504 C   0  0  0  0  0  0  0  0  0  0  0  0
  151.3308  142.6546  157.0484 Cl  0  0  0  0  0  0  0  0  0  0  0  0
  151.1680  134.1788  156.4170 H   0  0  0  0  0  0  0  0  0  0  0  0
  148.5144  132.1526  155.8734 H   0  0  0  0  0  0  0  0  0  0  0  0
  150.0382  132.8207  154.2772 H   0  0  0  0  0  0  0  0  0  0  0  0
  150.8809  135.0192  154.2120 H   0  0  0  0  0  0  0  0  0  0  0  0
  154.6891  141.0259  160.3189 H   0  0  0  0  0  0  0  0  0  0  0  0
  154.1691  139.3901  159.9355 H   0  0  0  0  0  0  0  0  0  0  0  0
  153.3503  140.2996  161.2040 H   0  0  0  0  0  0  0  0  0  0  0  0
  153.3697  140.9744  158.2357 H   0  0  0  0  0  0  0  0  0  0  0  0
  150.8225  140.3648  159.2200 H   0  0  0  0  0  0  0  0  0  0  0  0
  154.2299  137.9164  156.1067 H   0  0  0  0  0  0  0  0  0  0  0  0
  148.4091  135.9802  158.0584 H   0  0  0  0  0  0  0  0  0  0  0  0
  146.5586  133.4062  156.6853 H   0  0  0  0  0  0  0  0  0  0  0  0
  146.9345  134.7870  155.6754 H   0  0  0  0  0  0  0  0  0  0  0  0
  146.8546  132.7861  154.0441 H   0  0  0  0  0  0  0  0  0  0  0  0
  148.4521  134.5246  152.9347 H   0  0  0  0  0  0  0  0  0  0  0  0
  149.0688  136.1388  153.5420 H   0  0  0  0  0  0  0  0  0  0  0  0
  153.2447  142.2521  161.5624 H   0  0  0  0  0  0  0  0  0  0  0  0
  152.5327  144.5242  162.2204 H   0  0  0  0  0  0  0  0  0  0  0  0
  151.2856  145.9583  160.6141 H   0  0  0  0  0  0  0  0  0  0  0  0
  150.7698  145.1108  158.3387 H   0  0  0  0  0  0  0  0  0  0  0  0
  1  2  1  0  0  0  0
  1 33  1  0  0  0  0
  1 34  1  0  0  0  0
  1 35  1  0  0  0  0
  2  3  1  0  0  0  0
  2 22  1  0  0  0  0
  2 36  1  0  0  0  0
  3  4  1  0  0  0  0
  3 37  1  0  0  0  0
  4  9  1  0  0  0  0
  4  5  2  0  0  0  0
  5  6  1  0  0  0  0
  6  7  2  0  0  0  0
  6 38  1  0  0  0  0
  7  8  1  0  0  0  0
  8 12  1  0  0  0  0
  8  9  2  0  0  0  0
  9 10  1  0  0  0  0
 10 11  2  0  0  0  0
 11 12  1  0  0  0  0
 11 39  1  0  0  0  0
 12 13  1  0  0  0  0
 13 29  1  0  0  0  0
 13 20  1  0  0  0  0
 13 14  1  0  0  0  0
 14 15  1  0  0  0  0
 15 30  1  0  0  0  0
 15 16  1  0  0  0  0
 15 18  1  0  0  0  0
 16 17  1  0  0  0  0
 16 40  1  0  0  0  0
 16 41  1  0  0  0  0
 17 42  1  0  0  0  0
 18 31  1  0  0  0  0
 18 19  1  0  0  0  0
 18 20  1  0  0  0  0
 19 43  1  0  0  0  0
 20 32  1  0  0  0  0
 20 21  1  0  0  0  0
 21 44  1  0  0  0  0
 22 27  1  0  0  0  0
 22 23  2  0  0  0  0
 23 24  1  0  0  0  0
 23 45  1  0  0  0  0
 24 25  2  0  0  0  0
 24 46  1  0  0  0  0
 25 26  1  0  0  0  0
 25 47  1  0  0  0  0
 26 27  2  0  0  0  0
 26 48  1  0  0  0  0
 27 28  1  0  0  0  0
M  END
> <s_m_source_file>
AV-unprocessed.smi

> <i_m_source_file_index>
283

> <i_lp_mmshare_version>
43012

> <i_f3d_flags>
0

> <s_epik_input>
Q2xjMVtjSF1bY0hdW2NIXVtjSF1jMVtDQEhdKFtDSDNdKVtOSF1jKG5bY0hdbjIpYyhjMjMpbltjSF1uM1tDQEBIXTRPW0NASF0oW0NIMl1bT0hdKVtDQEBIXShbT0hdKVtDQEhdNFtPSF0=

> <s_epik_cmdline>
J2VwaWtfcHl0aG9uJywgJy1waCcsICc3LjAnLCAnLXRuJywgJzgnLCAnLW1hJywgJzIwMCcsICctbWV0YWxfYmluZGluZycsICctaW1hZScsICc8aW5maWxlLm1hZT4nLCAnLW9tYWUnLCAnPG91dGZpbGUubWFlPic=

> <r_lp_tautomer_probability>
1

> <r_epik_Ionization_Penalty>
0.000266407

> <r_epik_Ionization_Penalty_Charging>
0

> <r_epik_Ionization_Penalty_Neutral>
0.000266407

> <r_epik_State_Penalty>
-0

> <r_epik_Charging_Adjusted_Penalty>
0

> <i_epik_Tot_Q>
0

> <i_epik_Tot_abs_Q>
0

> <r_epik_Metal_State_Penalty>
-0

> <b_epik_Metal_Only>
0

> <s_epik_Chemistry_Notes>
This compound contains an acetal/aminal-like group ( X-CH(R)-Y where X, Y are N, S, or O) that may be acid/base labile, releasing an aldehyde.

> <s_lp_Force_Field>
OPLS_2005

> <r_lp_Energy>
55.3457

> <b_lp_Chiralities_Consistent>
1

> <s_lp_Variant>
AV-unprocessed.smi:283-8

> <Gold.Version>
5.8.1

> <Gold.Id.Protein>
6NUR|6NUR_protein|mol2

> <Gold.PLP.Fitness>
54.8057

> <Gold.PLP.PLP>
-44.7655

> <Gold.PLP.part.hbond>
-4.0000

> <Gold.PLP.part.metal>
0.0000

> <Gold.PLP.part.buried>
-6.6293

> <Gold.PLP.part.nonpolar>
-34.0064

> <Gold.PLP.part.repulsive>
0.1541

> <Gold.PLP.ligand.clash>
0.0000

> <Gold.PLP.ligand.torsion>
0.9281

> <Gold.PLP.Chemscore.Hbond>
3.9260

> <Gold.PLP.Chemscore.CHOScore>
0.0000

> <Gold.PLP.Chemscore.Metal>
0.0000

> <Gold.Chemscore.Hbonds>
donor molecule, donor type, donor heavy atom, donor atom, acceptor molecule, acceptor atom, score
      L1  H    19    43       P1  7948  0.99
      L1  H    21    44       P1  7948  1.00
      P1  H  7997  8010       L1     5  0.95
      P1  H 10752 10763       L1     7  0.99

> <Gold.PLP.Chemscore.Internal.Correction>
0.1184

> <Gold.Rescore>
     Score         DG    S(hbond)    S(metal)    S(lipo)     H(rot)  DE(clash)    DE(int)     intcor
     16.67     -18.06       2.93        0.00     113.50       4.10       0.50       0.89       ----

> <Gold.Chemscore.Fitness>
16.6743

> <Gold.Chemscore.DG>
-18.0607

> <Gold.Chemscore.ZeroCoef>
-5.4800

> <Gold.Chemscore.Hbond>
2.9308

> <Gold.Chemscore.Metal>
0.0000

> <Gold.Chemscore.Lipo>
113.5012

> <Gold.Chemscore.Internal_Hbond>
0.0000

> <Gold.Chemscore.DEClash>
0.5013

> <Gold.Chemscore.DEInternal>
0.8851

> <Gold.Chemscore.Rot>
4.0968

> <Gold.Chemscore.Internal.Correction>
   9.000000E+99

> <Gold.Chemscore.Hbonds>
donor molecule, donor type, donor heavy atom, donor atom, acceptor molecule, acceptor atom, score
      L1  H    19    43       P1  7948  0.27
      L1  H    21    44       P1  7948  0.96
      P1  H  7997  8010       L1     5  0.21
      P1  H 10752 10763       L1     7  0.88

> <Gold.Chemscore.Hbond.Weighted>
-9.7890

> <Gold.Chemscore.Metal.Weighted>
-0.0000

> <Gold.Chemscore.Lipo.Weighted>
-13.2796

> <Gold.Chemscore.Internal_Hbond.Weighted>
0.0000

> <Gold.Chemscore.DEClash.Weighted>
0.5013

> <Gold.Chemscore.DEInternal.Weighted>
0.8851

> <Gold.Chemscore.Rot.Weighted>
10.4879

> <Gold.Chemscore.Internal.Correction.Weighted>
   9.000000E+99

> <Gold.Protein.RotatedTorsions>
[ 6907 6896 6895 6894 ] final   52.99 input  -60.11 | X-H torsion
[ 7974 7965 7964 7962 ] final  -64.15 input  175.53 | X-H torsion
[ 8008 7997 7996 7995 ] final   32.34 input   59.86 | X-H torsion
[ 10167 10162 10161 10158 ] final -101.30 input  -65.29 | X-H torsion
[ 10718 10713 10712 10709 ] final   -3.58 input   66.30 | X-H torsion
[ 10763 10752 10751 10750 ] final   97.92 input  -60.55 | X-H torsion
[ 11005 11000 10999 10996 ] final  117.96 input  -57.11 | X-H torsion

> <Gold.Protein.ActiveResidues>
 VAL166  LYS551  ARG553  GLY616  TRP617  ASP618  TYR619  PRO620  LYS621  CYS622 
 ASP623  PHE694  ASN695  SER759  ASP760  ASP761  ALA762  ILE779  LEU786  VAL792 
 PHE793  MET794  SER795  GLU796  ALA797  LYS798  CYS799  TRP800  GLU811  SER814 

> <Gold.Protein.RotatedAtoms>
  152.3291  134.7283  160.0294 H   0  0  0  0  0  0  0  0  0  0  0  0  # atno 6907 bound_to 6896
  151.7705  133.3335  159.3451 H   0  0  0  0  0  0  0  0  0  0  0  0  # atno 6908 bound_to 6896
  150.7412  134.5954  159.6053 H   0  0  0  0  0  0  0  0  0  0  0  0  # atno 6909 bound_to 6896
  145.7702  140.8816  143.0384 H   0  0  0  0  0  0  0  0  0  0  0  0  # atno 7974 bound_to 7965
  155.1209  140.3248  155.4497 H   0  0  0  0  0  0  0  0  0  0  0  0  # atno 8008 bound_to 7997
  156.2663  140.2027  156.6280 H   0  0  0  0  0  0  0  0  0  0  0  0  # atno 8009 bound_to 7997
  154.6684  140.0539  157.0126 H   0  0  0  0  0  0  0  0  0  0  0  0  # atno 8010 bound_to 7997
  140.2428  143.3527  152.0786 H   0  0  0  0  0  0  0  0  0  0  0  0  # atno 10167 bound_to 10162
  156.7739  130.5309  149.5762 H   0  0  0  0  0  0  0  0  0  0  0  0  # atno 10718 bound_to 10713
  153.2828  135.4166  155.1094 H   0  0  0  0  0  0  0  0  0  0  0  0  # atno 10763 bound_to 10752
  154.8495  135.3499  154.6089 H   0  0  0  0  0  0  0  0  0  0  0  0  # atno 10764 bound_to 10752
  153.6510  135.7052  153.5266 H   0  0  0  0  0  0  0  0  0  0  0  0  # atno 10765 bound_to 10752
  139.9092  134.9615  156.7430 H   0  0  0  0  0  0  0  0  0  0  0  0  # atno 11005 bound_to 11000
  144.6814  139.9845  143.7484 LP  0  0  0  0  0  0  0  0  0  0  0  0  # atno 17320 bound_to 7965
  146.0177  139.3224  143.0832 LP  0  0  0  0  0  0  0  0  0  0  0  0  # atno 17321 bound_to 7965
  139.5072  144.6827  151.5968 LP  0  0  0  0  0  0  0  0  0  0  0  0  # atno 17342 bound_to 10162
  140.6100  143.9453  150.6446 LP  0  0  0  0  0  0  0  0  0  0  0  0  # atno 17343 bound_to 10162
  156.1260  130.6144  151.0264 LP  0  0  0  0  0  0  0  0  0  0  0  0  # atno 17370 bound_to 10713
  157.6678  131.0868  150.7686 LP  0  0  0  0  0  0  0  0  0  0  0  0  # atno 17371 bound_to 10713
  140.6834  133.9454  155.7924 LP  0  0  0  0  0  0  0  0  0  0  0  0  # atno 17394 bound_to 11000
  141.0494  134.0507  157.3803 LP  0  0  0  0  0  0  0  0  0  0  0  0  # atno 17395 bound_to 11000

$$$$
