AV-unprocessed.smi:2024|AV-procd|sdf|8194|dock3
  -GOLD-   2272010453D 1   1.00000     0.00000
 Structure written by MMmdl.
 43 44  0  0  0  0  0  0  0  0  3 V2000
  146.7236  139.2305  151.7145 C   0  0  0  0  0  0  0  0  0  0  0  0
  146.4690  139.7323  153.0844 N   0  3  0  0  0  0  0  0  0  0  0  0
  147.3990  140.8032  153.5121 C   0  0  0  0  0  0  0  0  0  0  0  0
  148.7783  140.2393  153.9149 C   0  0  0  0  0  0  0  0  0  0  0  0
  148.6160  139.2652  155.0045 N   0  0  0  0  0  0  0  0  0  0  0  0
  149.8568  138.8484  155.7082 C   0  0  0  0  0  0  0  0  0  0  0  0
  149.5681  138.4550  157.1758 C   0  0  0  0  0  0  0  0  0  0  0  0
  150.5035  137.6343  154.9930 C   0  0  0  0  0  0  0  0  0  0  0  0
  150.8902  140.0152  155.6755 C   0  0  0  0  0  0  0  0  0  0  0  0
  151.9117  139.8899  156.7173 N   0  0  0  0  0  0  0  0  0  0  0  0
  151.9062  140.4881  157.9176 C   0  0  0  0  0  0  0  0  0  0  0  0
  150.9289  141.1488  158.2767 O   0  0  0  0  0  0  0  0  0  0  0  0
  153.0450  140.3030  158.6219 N   0  5  0  0  0  0  0  0  0  0  0  0
  153.1858  140.8769  159.8278 C   0  0  0  0  0  0  0  0  0  0  0  0
  153.9786  140.3816  160.7847 N   0  0  0  0  0  0  0  0  0  0  0  0
  153.9766  141.1425  161.9553 C   0  0  0  0  0  0  0  0  0  0  0  0
  153.1684  142.2462  161.8855 C   0  0  0  0  0  0  0  0  0  0  0  0
  152.3822  142.3652  160.3371 S   0  0  0  0  0  0  0  0  0  0  0  0
  147.8060  138.1554  154.4781 C   0  0  0  0  0  0  0  0  0  0  0  0
  146.4003  138.6668  154.1106 C   0  0  0  0  0  0  0  0  0  0  0  0
  147.7030  138.7603  151.6283 H   0  0  0  0  0  0  0  0  0  0  0  0
  146.6764  140.0482  150.9948 H   0  0  0  0  0  0  0  0  0  0  0  0
  145.9684  138.4971  151.4306 H   0  0  0  0  0  0  0  0  0  0  0  0
  147.5047  141.5449  152.7196 H   0  0  0  0  0  0  0  0  0  0  0  0
  146.9581  141.3247  154.3633 H   0  0  0  0  0  0  0  0  0  0  0  0
  149.2845  139.7859  153.0621 H   0  0  0  0  0  0  0  0  0  0  0  0
  149.3826  141.0882  154.2268 H   0  0  0  0  0  0  0  0  0  0  0  0
  150.4727  138.0890  157.6622 H   0  0  0  0  0  0  0  0  0  0  0  0
  148.8239  137.6617  157.2472 H   0  0  0  0  0  0  0  0  0  0  0  0
  149.2155  139.2988  157.7691 H   0  0  0  0  0  0  0  0  0  0  0  0
  151.5113  137.4504  155.3667 H   0  0  0  0  0  0  0  0  0  0  0  0
  150.5822  137.7889  153.9160 H   0  0  0  0  0  0  0  0  0  0  0  0
  149.9488  136.7108  155.1600 H   0  0  0  0  0  0  0  0  0  0  0  0
  151.3412  140.1399  154.6912 H   0  0  0  0  0  0  0  0  0  0  0  0
  150.3739  140.9589  155.8539 H   0  0  0  0  0  0  0  0  0  0  0  0
  152.7313  139.3503  156.4804 H   0  0  0  0  0  0  0  0  0  0  0  0
  154.5831  140.8239  162.7902 H   0  0  0  0  0  0  0  0  0  0  0  0
  152.9905  142.9930  162.6443 H   0  0  0  0  0  0  0  0  0  0  0  0
  148.2886  137.7034  153.6111 H   0  0  0  0  0  0  0  0  0  0  0  0
  147.6913  137.3606  155.2106 H   0  0  0  0  0  0  0  0  0  0  0  0
  145.9112  139.0664  155.0006 H   0  0  0  0  0  0  0  0  0  0  0  0
  145.7742  137.8467  153.7577 H   0  0  0  0  0  0  0  0  0  0  0  0
  145.5504  140.1509  153.0504 H   0  0  0  0  0  0  0  0  0  0  0  0
  1  2  1  0  0  0  0
  1 21  1  0  0  0  0
  1 22  1  0  0  0  0
  1 23  1  0  0  0  0
  2 20  1  0  0  0  0
  2  3  1  0  0  0  0
  2 43  1  0  0  0  0
  3  4  1  0  0  0  0
  3 24  1  0  0  0  0
  3 25  1  0  0  0  0
  4  5  1  0  0  0  0
  4 26  1  0  0  0  0
  4 27  1  0  0  0  0
  5  6  1  0  0  0  0
  5 19  1  0  0  0  0
  6  7  1  0  0  0  0
  6  8  1  0  0  0  0
  6  9  1  0  0  0  0
  7 28  1  0  0  0  0
  7 29  1  0  0  0  0
  7 30  1  0  0  0  0
  8 31  1  0  0  0  0
  8 32  1  0  0  0  0
  8 33  1  0  0  0  0
  9 10  1  0  0  0  0
  9 34  1  0  0  0  0
  9 35  1  0  0  0  0
 10 11  1  0  0  0  0
 10 36  1  0  0  0  0
 11 12  2  0  0  0  0
 11 13  1  0  0  0  0
 13 14  1  0  0  0  0
 14 18  1  0  0  0  0
 14 15  2  0  0  0  0
 15 16  1  0  0  0  0
 16 17  2  0  0  0  0
 16 37  1  0  0  0  0
 17 18  1  0  0  0  0
 17 38  1  0  0  0  0
 19 20  1  0  0  0  0
 19 39  1  0  0  0  0
 19 40  1  0  0  0  0
 20 41  1  0  0  0  0
 20 42  1  0  0  0  0
M  CHG  1   2   1
M  CHG  1  13  -1
M  END
> <s_m_source_file>
AV-unprocessed.smi

> <i_m_source_file_index>
2024

> <i_lp_mmshare_version>
43012

> <i_f3d_flags>
0

> <s_epik_input>
W0NIM11OMVtDSDJdW0NIMl1OKFtDSDJdW0NIMl0xKUMoW0NIM10pKFtDSDNdKVtDSDJdW05IXUMoPU8pW05IXWMybltjSF1bY0hdczI=

> <s_epik_cmdline>
J2VwaWtfcHl0aG9uJywgJy1waCcsICc3LjAnLCAnLXRuJywgJzgnLCAnLW1hJywgJzIwMCcsICctbWV0YWxfYmluZGluZycsICctaW1hZScsICc8aW5maWxlLm1hZT4nLCAnLW9tYWUnLCAnPG91dGZpbGUubWFlPic=

> <r_lp_tautomer_probability>
0.999

> <r_epik_Ionization_Penalty>
7.04933

> <r_epik_Ionization_Penalty_Charging>
5.90256

> <r_epik_Ionization_Penalty_Neutral>
1.14676

> <r_epik_State_Penalty>
6.00717

> <r_epik_Charging_Adjusted_Penalty>
11.9097

> <i_epik_Tot_Q>
0

> <i_epik_Tot_abs_Q>
2

> <r_epik_Metal_State_Penalty>
1.97542

> <b_epik_Metal_Only>
1

> <s_lp_Force_Field>
OPLS_2005

> <r_lp_Energy>
14.8551

> <b_lp_Chiralities_Consistent>
1

> <s_lp_Variant>
AV-unprocessed.smi:2024-4

> <Gold.Version>
5.8.1

> <Gold.Id.Protein>
6NUR|6NUR_protein|mol2

> <Gold.PLP.Fitness>
41.2578

> <Gold.PLP.PLP>
-32.7876

> <Gold.PLP.part.hbond>
-2.0000

> <Gold.PLP.part.metal>
0.0000

> <Gold.PLP.part.buried>
0.4648

> <Gold.PLP.part.nonpolar>
-31.2201

> <Gold.PLP.part.repulsive>
0.2281

> <Gold.PLP.ligand.clash>
0.0000

> <Gold.PLP.ligand.torsion>
1.5288

> <Gold.PLP.Chemscore.Hbond>
3.8240

> <Gold.PLP.Chemscore.CHOScore>
0.0000

> <Gold.PLP.Chemscore.Metal>
0.0000

> <Gold.Chemscore.Hbonds>
donor molecule, donor type, donor heavy atom, donor atom, acceptor molecule, acceptor atom, score
      L1  H     2    43       P1 10175  2.00
      P1  H  7997  8008       L1    13  0.92

> <Gold.PLP.Chemscore.Internal.Correction>
0.0558

> <Gold.Rescore>
     Score         DG    S(hbond)    S(metal)    S(lipo)     H(rot)  DE(clash)    DE(int)     intcor
     12.43     -16.21       1.72        0.00      76.84       1.57       0.91       2.87       ----

> <Gold.Chemscore.Fitness>
12.4284

> <Gold.Chemscore.DG>
-16.2096

> <Gold.Chemscore.ZeroCoef>
-5.4800

> <Gold.Chemscore.Hbond>
1.7225

> <Gold.Chemscore.Metal>
0.0000

> <Gold.Chemscore.Lipo>
76.8400

> <Gold.Chemscore.Internal_Hbond>
0.0000

> <Gold.Chemscore.DEClash>
0.9115

> <Gold.Chemscore.DEInternal>
2.8697

> <Gold.Chemscore.Rot>
1.5678

> <Gold.Chemscore.Internal.Correction>
   9.000000E+99

> <Gold.Chemscore.Hbonds>
donor molecule, donor type, donor heavy atom, donor atom, acceptor molecule, acceptor atom, score
      L1  H     2    43       P1 10175  0.96
      P1  H  7997  8008       L1    13  0.20

> <Gold.Chemscore.Hbond.Weighted>
-5.7530

> <Gold.Chemscore.Metal.Weighted>
-0.0000

> <Gold.Chemscore.Lipo.Weighted>
-8.9903

> <Gold.Chemscore.Internal_Hbond.Weighted>
0.0000

> <Gold.Chemscore.DEClash.Weighted>
0.9115

> <Gold.Chemscore.DEInternal.Weighted>
2.8697

> <Gold.Chemscore.Rot.Weighted>
4.0136

> <Gold.Chemscore.Internal.Correction.Weighted>
   9.000000E+99

> <Gold.Protein.RotatedTorsions>
[ 6907 6896 6895 6894 ] final  147.03 input  -60.11 | X-H torsion
[ 7974 7965 7964 7962 ] final   62.24 input  175.53 | X-H torsion
[ 8008 7997 7996 7995 ] final  -87.60 input   59.86 | X-H torsion
[ 10167 10162 10161 10158 ] final   99.39 input  -65.29 | X-H torsion
[ 10718 10713 10712 10709 ] final   27.75 input   66.30 | X-H torsion
[ 10763 10752 10751 10750 ] final  142.49 input  -60.55 | X-H torsion
[ 11005 11000 10999 10996 ] final  161.74 input  -57.11 | X-H torsion

> <Gold.Protein.ActiveResidues>
 VAL166  LYS551  ARG553  GLY616  TRP617  ASP618  TYR619  PRO620  LYS621  CYS622 
 ASP623  PHE694  ASN695  SER759  ASP760  ASP761  ALA762  ILE779  LEU786  VAL792 
 PHE793  MET794  SER795  GLU796  ALA797  LYS798  CYS799  TRP800  GLU811  SER814 

> <Gold.Protein.RotatedAtoms>
  152.1601  133.4576  159.4856 H   0  0  0  0  0  0  0  0  0  0  0  0  # atno 6907 bound_to 6896
  150.6906  134.2082  159.4358 H   0  0  0  0  0  0  0  0  0  0  0  0  # atno 6908 bound_to 6896
  151.9984  134.9941  160.0615 H   0  0  0  0  0  0  0  0  0  0  0  0  # atno 6909 bound_to 6896
  145.8756  139.3407  143.0737 H   0  0  0  0  0  0  0  0  0  0  0  0  # atno 7974 bound_to 7965
  154.6651  140.0564  157.0104 H   0  0  0  0  0  0  0  0  0  0  0  0  # atno 8008 bound_to 7997
  155.1171  140.3244  155.4488 H   0  0  0  0  0  0  0  0  0  0  0  0  # atno 8009 bound_to 7997
  156.2634  140.2004  156.6294 H   0  0  0  0  0  0  0  0  0  0  0  0  # atno 8010 bound_to 7997
  139.7622  144.6950  151.0276 H   0  0  0  0  0  0  0  0  0  0  0  0  # atno 10167 bound_to 10162
  157.2244  130.6994  149.6284 H   0  0  0  0  0  0  0  0  0  0  0  0  # atno 10718 bound_to 10713
  153.9566  135.2964  155.3436 H   0  0  0  0  0  0  0  0  0  0  0  0  # atno 10763 bound_to 10752
  154.7397  135.5030  153.9105 H   0  0  0  0  0  0  0  0  0  0  0  0  # atno 10764 bound_to 10752
  153.0967  135.6723  153.9859 H   0  0  0  0  0  0  0  0  0  0  0  0  # atno 10765 bound_to 10752
  140.2188  134.8212  157.3198 H   0  0  0  0  0  0  0  0  0  0  0  0  # atno 11005 bound_to 11000
  145.9085  140.9195  143.0466 LP  0  0  0  0  0  0  0  0  0  0  0  0  # atno 17320 bound_to 7965
  144.6726  140.1129  143.7454 LP  0  0  0  0  0  0  0  0  0  0  0  0  # atno 17321 bound_to 7965
  140.7808  143.4684  151.0180 LP  0  0  0  0  0  0  0  0  0  0  0  0  # atno 17342 bound_to 10162
  139.8370  143.7615  152.3180 LP  0  0  0  0  0  0  0  0  0  0  0  0  # atno 17343 bound_to 10162
  155.9680  130.4509  150.5716 LP  0  0  0  0  0  0  0  0  0  0  0  0  # atno 17370 bound_to 10713
  157.3543  131.0739  151.1688 LP  0  0  0  0  0  0  0  0  0  0  0  0  # atno 17371 bound_to 10713
  140.1872  134.4416  155.7737 LP  0  0  0  0  0  0  0  0  0  0  0  0  # atno 17394 bound_to 11000
  141.2224  133.7010  156.7967 LP  0  0  0  0  0  0  0  0  0  0  0  0  # atno 17395 bound_to 11000

$$$$
