AV-unprocessed.smi:1436|AV-procd|sdf|5860|dock5
  -GOLD-   22720 5533D 1   1.00000     0.00000
 Structure written by MMmdl.
 43 44  0  0  0  0  0  0  0  0  1 V2000
  149.9501  136.1841  155.1569 C   0  0  0  0  0  0  0  0  0  0  0  0
  150.0223  134.8434  155.8289 C   0  0  0  0  0  0  0  0  0  0  0  0
  150.5640  134.7450  157.0312 N   0  0  0  0  0  0  0  0  0  0  0  0
  150.4950  133.3910  157.3724 O   0  0  0  0  0  0  0  0  0  0  0  0
  149.9089  132.7195  156.3486 C   0  0  0  0  0  0  0  0  0  0  0  0
  149.7475  131.2467  156.5164 C   0  0  0  0  0  0  0  0  0  0  0  0
  149.5816  133.5805  155.3378 C   0  0  0  0  0  0  0  0  0  0  0  0
  148.9183  133.2712  154.0185 C   0  0  0  0  0  0  0  0  0  0  0  0
  147.4548  133.7233  154.0254 C   0  0  0  0  0  0  0  0  0  0  0  0
  146.6357  133.1787  154.7667 O   0  0  0  0  0  0  0  0  0  0  0  0
  147.1397  134.7223  153.1864 N   0  0  0  0  0  0  0  0  0  0  0  0
  145.8055  135.2872  152.9981 C   0  0  1  0  0  0  0  0  0  0  0  0
  145.7020  136.6665  153.6682 C   0  0  0  0  0  0  0  0  0  0  0  0
  145.3801  135.2821  151.5092 C   0  0  0  0  0  0  0  0  0  0  0  0
  145.2414  133.9731  150.8630 N   0  0  0  0  0  0  0  0  0  0  0  0
  144.3959  134.0684  149.6772 C   0  0  0  0  0  0  0  0  0  0  0  0
  144.2371  132.7116  148.9697 C   0  0  0  0  0  0  0  0  0  0  0  0
  143.7102  131.7574  149.8852 O   0  0  0  0  0  0  0  0  0  0  0  0
  144.5301  131.5957  151.0374 C   0  0  0  0  0  0  0  0  0  0  0  0
  144.6939  132.9491  151.7504 C   0  0  0  0  0  0  0  0  0  0  0  0
  150.7500  136.2915  154.4242 H   0  0  0  0  0  0  0  0  0  0  0  0
  150.0439  137.0004  155.8737 H   0  0  0  0  0  0  0  0  0  0  0  0
  149.0012  136.3105  154.6356 H   0  0  0  0  0  0  0  0  0  0  0  0
  150.2160  130.7121  155.6899 H   0  0  0  0  0  0  0  0  0  0  0  0
  148.6922  130.9752  156.5401 H   0  0  0  0  0  0  0  0  0  0  0  0
  150.2064  130.9024  157.4436 H   0  0  0  0  0  0  0  0  0  0  0  0
  149.4228  133.7733  153.1927 H   0  0  0  0  0  0  0  0  0  0  0  0
  148.9720  132.2035  153.8018 H   0  0  0  0  0  0  0  0  0  0  0  0
  147.8789  135.1111  152.6191 H   0  0  0  0  0  0  0  0  0  0  0  0
  145.1055  134.6381  153.5272 H   0  0  0  0  0  0  0  0  0  0  0  0
  144.7000  137.0808  153.5545 H   0  0  0  0  0  0  0  0  0  0  0  0
  146.4074  137.3790  153.2398 H   0  0  0  0  0  0  0  0  0  0  0  0
  145.9106  136.5987  154.7363 H   0  0  0  0  0  0  0  0  0  0  0  0
  144.4647  135.8615  151.3784 H   0  0  0  0  0  0  0  0  0  0  0  0
  146.1485  135.8389  150.9710 H   0  0  0  0  0  0  0  0  0  0  0  0
  143.4107  134.4461  149.9550 H   0  0  0  0  0  0  0  0  0  0  0  0
  144.8198  134.7892  148.9770 H   0  0  0  0  0  0  0  0  0  0  0  0
  143.5599  132.8031  148.1203 H   0  0  0  0  0  0  0  0  0  0  0  0
  145.1953  132.3633  148.5808 H   0  0  0  0  0  0  0  0  0  0  0  0
  144.0672  130.8690  151.7052 H   0  0  0  0  0  0  0  0  0  0  0  0
  145.5016  131.1924  150.7476 H   0  0  0  0  0  0  0  0  0  0  0  0
  145.3443  132.8052  152.6115 H   0  0  0  0  0  0  0  0  0  0  0  0
  143.7265  133.2726  152.1344 H   0  0  0  0  0  0  0  0  0  0  0  0
  1  2  1  0  0  0  0
  1 21  1  0  0  0  0
  1 22  1  0  0  0  0
  1 23  1  0  0  0  0
  2  7  1  0  0  0  0
  2  3  2  0  0  0  0
  3  4  1  0  0  0  0
  4  5  1  0  0  0  0
  5  6  1  0  0  0  0
  5  7  2  0  0  0  0
  6 24  1  0  0  0  0
  6 25  1  0  0  0  0
  6 26  1  0  0  0  0
  7  8  1  0  0  0  0
  8  9  1  0  0  0  0
  8 27  1  0  0  0  0
  8 28  1  0  0  0  0
  9 10  2  0  0  0  0
  9 11  1  0  0  0  0
 11 12  1  0  0  0  0
 11 29  1  0  0  0  0
 12 13  1  0  0  0  0
 12 14  1  0  0  0  0
 12 30  1  0  0  0  0
 13 31  1  0  0  0  0
 13 32  1  0  0  0  0
 13 33  1  0  0  0  0
 14 15  1  0  0  0  0
 14 34  1  0  0  0  0
 14 35  1  0  0  0  0
 15 20  1  0  0  0  0
 15 16  1  0  0  0  0
 16 17  1  0  0  0  0
 16 36  1  0  0  0  0
 16 37  1  0  0  0  0
 17 18  1  0  0  0  0
 17 38  1  0  0  0  0
 17 39  1  0  0  0  0
 18 19  1  0  0  0  0
 19 20  1  0  0  0  0
 19 40  1  0  0  0  0
 19 41  1  0  0  0  0
 20 42  1  0  0  0  0
 20 43  1  0  0  0  0
M  END
> <s_m_source_file>
AV-unprocessed.smi

> <i_m_source_file_index>
1436

> <i_lp_mmshare_version>
43012

> <i_f3d_flags>
0

> <s_epik_input>
W0NIM11jMW5vYyhbQ0gzXSljMVtDSDJdQyg9TylbTkhdW0NASF0oW0NIM10pW0NIMl1OMltDSDJdW0NIMl1PW0NIMl1bQ0gyXTI=

> <s_epik_cmdline>
J2VwaWtfcHl0aG9uJywgJy1waCcsICc3LjAnLCAnLXRuJywgJzgnLCAnLW1hJywgJzIwMCcsICctbWV0YWxfYmluZGluZycsICctaW1hZScsICc8aW5maWxlLm1hZT4nLCAnLW9tYWUnLCAnPG91dGZpbGUubWFlPic=

> <r_epik_Ionization_Penalty>
0.234179

> <r_epik_Ionization_Penalty_Charging>
0

> <r_epik_Ionization_Penalty_Neutral>
0.234179

> <r_epik_State_Penalty>
0.224936

> <r_epik_Charging_Adjusted_Penalty>
0.224936

> <i_epik_Tot_Q>
0

> <i_epik_Tot_abs_Q>
0

> <r_epik_Metal_State_Penalty>
0.224936

> <b_epik_Metal_Only>
0

> <s_lp_Force_Field>
OPLS_2005

> <r_lp_Energy>
22.5578

> <b_lp_Chiralities_Consistent>
1

> <s_lp_Variant>
AV-unprocessed.smi:1436-2

> <Gold.Version>
5.8.1

> <Gold.Id.Protein>
6NUR|6NUR_protein|mol2

> <Gold.PLP.Fitness>
36.9988

> <Gold.PLP.PLP>
-30.2057

> <Gold.PLP.part.hbond>
-3.5325

> <Gold.PLP.part.metal>
0.0000

> <Gold.PLP.part.buried>
-3.1396

> <Gold.PLP.part.nonpolar>
-23.9518

> <Gold.PLP.part.repulsive>
0.3575

> <Gold.PLP.ligand.clash>
0.0000

> <Gold.PLP.ligand.torsion>
0.5797

> <Gold.PLP.Chemscore.Hbond>
2.6107

> <Gold.PLP.Chemscore.CHOScore>
0.0000

> <Gold.PLP.Chemscore.Metal>
0.0000

> <Gold.Chemscore.Hbonds>
donor molecule, donor type, donor heavy atom, donor atom, acceptor molecule, acceptor atom, score
      L1  H    11    29       P1  7948  1.00
      P1  H  6896  6908       L1     4  0.83
      P1  H 10785 10796       L1    18  0.87

> <Gold.PLP.Chemscore.Internal.Correction>
0.1204

> <Gold.Rescore>
     Score         DG    S(hbond)    S(metal)    S(lipo)     H(rot)  DE(clash)    DE(int)     intcor
     15.06     -16.43       1.99        0.00      74.35       1.71       0.60       0.77       ----

> <Gold.Chemscore.Fitness>
15.0634

> <Gold.Chemscore.DG>
-16.4323

> <Gold.Chemscore.ZeroCoef>
-5.4800

> <Gold.Chemscore.Hbond>
1.9886

> <Gold.Chemscore.Metal>
0.0000

> <Gold.Chemscore.Lipo>
74.3535

> <Gold.Chemscore.Internal_Hbond>
0.0000

> <Gold.Chemscore.DEClash>
0.6012

> <Gold.Chemscore.DEInternal>
0.7677

> <Gold.Chemscore.Rot>
1.7145

> <Gold.Chemscore.Internal.Correction>
   9.000000E+99

> <Gold.Chemscore.Hbonds>
donor molecule, donor type, donor heavy atom, donor atom, acceptor molecule, acceptor atom, score
      L1  H    11    29       P1  7948  0.98
      P1  H  6896  6908       L1     4  0.24
      P1  H 10785 10796       L1    18  0.39

> <Gold.Chemscore.Hbond.Weighted>
-6.6420

> <Gold.Chemscore.Metal.Weighted>
-0.0000

> <Gold.Chemscore.Lipo.Weighted>
-8.6994

> <Gold.Chemscore.Internal_Hbond.Weighted>
0.0000

> <Gold.Chemscore.DEClash.Weighted>
0.6012

> <Gold.Chemscore.DEInternal.Weighted>
0.7677

> <Gold.Chemscore.Rot.Weighted>
4.3891

> <Gold.Chemscore.Internal.Correction.Weighted>
   9.000000E+99

> <Gold.Protein.RotatedTorsions>
[ 6907 6896 6895 6894 ] final   87.19 input  -60.11 | X-H torsion
[ 7974 7965 7964 7962 ] final   69.69 input  175.53 | X-H torsion
[ 8008 7997 7996 7995 ] final  -33.08 input   59.86 | X-H torsion
[ 10167 10162 10161 10158 ] final  -70.96 input  -65.29 | X-H torsion
[ 10718 10713 10712 10709 ] final -154.75 input   66.30 | X-H torsion
[ 10763 10752 10751 10750 ] final   71.96 input  -60.55 | X-H torsion
[ 11005 11000 10999 10996 ] final    0.66 input  -57.11 | X-H torsion

> <Gold.Protein.ActiveResidues>
 VAL166  LYS551  ARG553  GLY616  TRP617  ASP618  TYR619  PRO620  LYS621  CYS622 
 ASP623  PHE694  ASN695  SER759  ASP760  ASP761  ALA762  ILE779  LEU786  VAL792 
 PHE793  MET794  SER795  GLU796  ALA797  LYS798  CYS799  TRP800  GLU811  SER814 

> <Gold.Protein.RotatedAtoms>
  152.5407  134.2315  159.8826 H   0  0  0  0  0  0  0  0  0  0  0  0  # atno 6907 bound_to 6896
  151.2286  133.4456  159.2610 H   0  0  0  0  0  0  0  0  0  0  0  0  # atno 6908 bound_to 6896
  151.0737  134.9828  159.8377 H   0  0  0  0  0  0  0  0  0  0  0  0  # atno 6909 bound_to 6896
  145.7874  139.2917  143.1230 H   0  0  0  0  0  0  0  0  0  0  0  0  # atno 7974 bound_to 7965
  154.4160  140.1720  156.1831 H   0  0  0  0  0  0  0  0  0  0  0  0  # atno 8008 bound_to 7997
  155.9666  140.3389  155.6514 H   0  0  0  0  0  0  0  0  0  0  0  0  # atno 8009 bound_to 7997
  155.6680  140.0708  157.2521 H   0  0  0  0  0  0  0  0  0  0  0  0  # atno 8010 bound_to 7997
  140.5311  143.2321  151.7261 H   0  0  0  0  0  0  0  0  0  0  0  0  # atno 10167 bound_to 10162
  156.5035  130.8402  151.2618 H   0  0  0  0  0  0  0  0  0  0  0  0  # atno 10718 bound_to 10713
  153.0430  135.5117  154.7672 H   0  0  0  0  0  0  0  0  0  0  0  0  # atno 10763 bound_to 10752
  154.6594  135.2936  154.9888 H   0  0  0  0  0  0  0  0  0  0  0  0  # atno 10764 bound_to 10752
  154.0744  135.6673  153.4881 H   0  0  0  0  0  0  0  0  0  0  0  0  # atno 10765 bound_to 10752
  140.6241  133.9634  155.8240 H   0  0  0  0  0  0  0  0  0  0  0  0  # atno 11005 bound_to 11000
  146.0012  140.8518  143.0017 LP  0  0  0  0  0  0  0  0  0  0  0  0  # atno 17320 bound_to 7965
  144.6787  140.2355  143.7350 LP  0  0  0  0  0  0  0  0  0  0  0  0  # atno 17321 bound_to 7965
  139.4954  144.4113  152.0077 LP  0  0  0  0  0  0  0  0  0  0  0  0  # atno 17342 bound_to 10162
  140.3215  144.3422  150.6008 LP  0  0  0  0  0  0  0  0  0  0  0  0  # atno 17343 bound_to 10162
  157.7460  130.9974  150.2814 LP  0  0  0  0  0  0  0  0  0  0  0  0  # atno 17370 bound_to 10713
  156.3310  130.3800  149.7491 LP  0  0  0  0  0  0  0  0  0  0  0  0  # atno 17371 bound_to 10713
  141.0721  134.0189  157.3510 LP  0  0  0  0  0  0  0  0  0  0  0  0  # atno 17394 bound_to 11000
  139.9141  135.0194  156.7813 LP  0  0  0  0  0  0  0  0  0  0  0  0  # atno 17395 bound_to 11000

$$$$
