AV-unprocessed.smi:136|AV-procd|sdf|1174|dock9
  -GOLD-   2262018323D 1   1.00000     0.00000
 Structure written by MMmdl.
 54 58  0  0  0  0  0  0  0  0  1 V2000
  147.9315  137.2549  160.8671 O   0  0  0  0  0  0  0  0  0  0  0  0
  147.9796  136.1524  160.3185 C   0  0  0  0  0  0  0  0  0  0  0  0
  148.7107  135.9969  158.9681 C   0  0  0  0  0  0  0  0  0  0  0  0
  149.2523  137.2673  158.4380 N   0  0  0  0  0  0  0  0  0  0  0  0
  150.6164  137.5758  158.6665 C   0  0  0  0  0  0  0  0  0  0  0  0
  151.3506  136.8053  159.2867 O   0  0  0  0  0  0  0  0  0  0  0  0
  151.0711  138.8541  158.1308 C   0  0  0  0  0  0  0  0  0  0  0  0
  152.3489  139.2320  158.3046 F   0  0  0  0  0  0  0  0  0  0  0  0
  150.2266  139.6679  157.4644 C   0  0  0  0  0  0  0  0  0  0  0  0
  148.8978  139.3526  157.2475 N   0  0  0  0  0  0  0  0  0  0  0  0
  147.9751  140.2980  156.5115 C   0  0  1  0  0  0  0  0  0  0  0  0
  148.6913  141.6234  156.2287 C   0  0  0  0  0  0  0  0  0  0  0  0
  149.2195  141.3989  154.8283 C   0  0  0  0  0  0  0  0  0  0  0  0
  148.1099  140.5520  154.2156 C   0  0  0  0  0  0  0  0  0  0  0  0
  147.6303  139.7330  155.2789 O   0  0  0  0  0  0  0  0  0  0  0  0
  148.3765  138.1407  157.7499 C   0  0  0  0  0  0  0  0  0  0  0  0
  147.1854  137.8575  157.6019 O   0  0  0  0  0  0  0  0  0  0  0  0
  147.4154  135.0543  160.8696 N   0  0  0  0  0  0  0  0  0  0  0  0
  147.5811  133.8063  160.3639 N   0  0  0  0  0  0  0  0  0  0  0  0
  147.0848  132.9416  161.1688 C   0  0  0  0  0  0  0  0  0  0  0  0
  147.0970  131.4800  160.9382 C   0  0  0  0  0  0  0  0  0  0  0  0
  145.9587  130.7141  161.2787 C   0  0  0  0  0  0  0  0  0  0  0  0
  145.9686  129.3228  161.0595 C   0  0  0  0  0  0  0  0  0  0  0  0
  147.1056  128.7015  160.5047 C   0  0  0  0  0  0  0  0  0  0  0  0
  147.1118  126.9966  160.2399 Cl  0  0  0  0  0  0  0  0  0  0  0  0
  148.2373  129.4700  160.1657 C   0  0  0  0  0  0  0  0  0  0  0  0
  148.2394  130.8622  160.3807 C   0  0  0  0  0  0  0  0  0  0  0  0
  146.4780  133.5384  162.3936 C   0  0  0  0  0  0  0  0  0  0  0  0
  146.6851  135.0347  162.1443 C   0  0  2  0  0  0  0  0  0  0  0  0
  145.3945  135.8039  162.1244 C   0  0  0  0  0  0  0  0  0  0  0  0
  145.0623  137.1163  161.9171 C   0  0  0  0  0  0  0  0  0  0  0  0
  143.6465  137.1966  162.0216 C   0  0  0  0  0  0  0  0  0  0  0  0
  143.2166  135.9268  162.2804 C   0  0  0  0  0  0  0  0  0  0  0  0
  144.2688  135.0667  162.3438 O   0  0  0  0  0  0  0  0  0  0  0  0
  149.4994  135.2522  159.0853 H   0  0  0  0  0  0  0  0  0  0  0  0
  148.0282  135.5500  158.2433 H   0  0  0  0  0  0  0  0  0  0  0  0
  150.6172  140.6048  157.0959 H   0  0  0  0  0  0  0  0  0  0  0  0
  147.0818  140.3990  157.1299 H   0  0  0  0  0  0  0  0  0  0  0  0
  147.9528  142.4259  156.2345 H   0  0  0  0  0  0  0  0  0  0  0  0
  149.4628  141.8472  156.9667 H   0  0  0  0  0  0  0  0  0  0  0  0
  149.3989  142.3259  154.2834 H   0  0  0  0  0  0  0  0  0  0  0  0
  150.1529  140.8356  154.8620 H   0  0  0  0  0  0  0  0  0  0  0  0
  147.2944  141.1888  153.8700 H   0  0  0  0  0  0  0  0  0  0  0  0
  148.4539  139.9528  153.3725 H   0  0  0  0  0  0  0  0  0  0  0  0
  145.0774  131.1716  161.7048 H   0  0  0  0  0  0  0  0  0  0  0  0
  145.1017  128.7326  161.3181 H   0  0  0  0  0  0  0  0  0  0  0  0
  149.1069  128.9916  159.7395 H   0  0  0  0  0  0  0  0  0  0  0  0
  149.1189  131.4285  160.1126 H   0  0  0  0  0  0  0  0  0  0  0  0
  145.4225  133.2750  162.4768 H   0  0  0  0  0  0  0  0  0  0  0  0
  146.9951  133.2060  163.2944 H   0  0  0  0  0  0  0  0  0  0  0  0
  147.3339  135.4428  162.9214 H   0  0  0  0  0  0  0  0  0  0  0  0
  145.7545  137.9210  161.7165 H   0  0  0  0  0  0  0  0  0  0  0  0
  143.0220  138.0717  161.9191 H   0  0  0  0  0  0  0  0  0  0  0  0
  142.2457  135.4811  162.4390 H   0  0  0  0  0  0  0  0  0  0  0  0
  1  2  2  0  0  0  0
  2  3  1  0  0  0  0
  2 18  1  0  0  0  0
  3  4  1  0  0  0  0
  3 35  1  0  0  0  0
  3 36  1  0  0  0  0
  4 16  1  0  0  0  0
  4  5  1  0  0  0  0
  5  6  2  0  0  0  0
  5  7  1  0  0  0  0
  7  8  1  0  0  0  0
  7  9  2  0  0  0  0
  9 10  1  0  0  0  0
  9 37  1  0  0  0  0
 10 11  1  0  0  0  0
 10 16  1  0  0  0  0
 11 15  1  0  0  0  0
 11 12  1  0  0  0  0
 11 38  1  0  0  0  0
 12 13  1  0  0  0  0
 12 39  1  0  0  0  0
 12 40  1  0  0  0  0
 13 14  1  0  0  0  0
 13 41  1  0  0  0  0
 13 42  1  0  0  0  0
 14 15  1  0  0  0  0
 14 43  1  0  0  0  0
 14 44  1  0  0  0  0
 16 17  2  0  0  0  0
 18 29  1  0  0  0  0
 18 19  1  0  0  0  0
 19 20  2  0  0  0  0
 20 21  1  0  0  0  0
 20 28  1  0  0  0  0
 21 27  1  0  0  0  0
 21 22  2  0  0  0  0
 22 23  1  0  0  0  0
 22 45  1  0  0  0  0
 23 24  2  0  0  0  0
 23 46  1  0  0  0  0
 24 25  1  0  0  0  0
 24 26  1  0  0  0  0
 26 27  2  0  0  0  0
 26 47  1  0  0  0  0
 27 48  1  0  0  0  0
 28 29  1  0  0  0  0
 28 49  1  0  0  0  0
 28 50  1  0  0  0  0
 29 30  1  0  0  0  0
 29 51  1  0  0  0  0
 30 34  1  0  0  0  0
 30 31  2  0  0  0  0
 31 32  1  0  0  0  0
 31 52  1  0  0  0  0
 32 33  2  0  0  0  0
 32 53  1  0  0  0  0
 33 34  1  0  0  0  0
 33 54  1  0  0  0  0
M  END
> <s_m_source_file>
AV-unprocessed.smi

> <i_m_source_file_index>
136

> <i_lp_mmshare_version>
43012

> <i_f3d_flags>
0

> <s_epik_input>
bzFbY0hdW2NIXVtjSF1jMVtDQEBIXTJbQ0gyXUMoYzNbY0hdW2NIXWMoQ2wpW2NIXVtjSF0zKT1OTjJDKD1PKVtDSDJdbjRjKD1PKWMoRilbY0hdbihjND1PKVtDQEBIXTVbQ0gyXVtDSDJdW0NIMl1PNQ==

> <s_epik_cmdline>
J2VwaWtfcHl0aG9uJywgJy1waCcsICc3LjAnLCAnLXRuJywgJzgnLCAnLW1hJywgJzIwMCcsICctbWV0YWxfYmluZGluZycsICctaW1hZScsICc8aW5maWxlLm1hZT4nLCAnLW9tYWUnLCAnPG91dGZpbGUubWFlPic=

> <r_lp_tautomer_probability>
1

> <r_epik_Ionization_Penalty>
2.55467e-08

> <r_epik_Ionization_Penalty_Charging>
4.85705e-09

> <r_epik_Ionization_Penalty_Neutral>
2.06897e-08

> <r_epik_State_Penalty>
-0

> <r_epik_Charging_Adjusted_Penalty>
4.85705e-09

> <i_epik_Tot_Q>
0

> <i_epik_Tot_abs_Q>
0

> <r_epik_Metal_State_Penalty>
-0

> <b_epik_Metal_Only>
0

> <s_epik_Chemistry_Notes>
This compound has an imine and may undergo hydrolysis. This compound contains an acetal/aminal-like group ( X-CH(R)-Y where X, Y are N, S, or O) that may be acid/base labile, releasing an aldehyde.

> <s_lp_Force_Field>
OPLS_2005

> <r_lp_Energy>
39.5424

> <b_lp_Chiralities_Consistent>
1

> <s_lp_Variant>
AV-unprocessed.smi:136-4

> <Gold.Version>
5.8.1

> <Gold.Id.Protein>
6NUR|6NUR_protein|mol2

> <Gold.PLP.Fitness>
50.8903

> <Gold.PLP.PLP>
-45.2502

> <Gold.PLP.part.hbond>
-3.0000

> <Gold.PLP.part.metal>
0.0000

> <Gold.PLP.part.buried>
-5.4942

> <Gold.PLP.part.nonpolar>
-37.3568

> <Gold.PLP.part.repulsive>
0.0621

> <Gold.PLP.ligand.clash>
0.0000

> <Gold.PLP.ligand.torsion>
1.0876

> <Gold.PLP.Chemscore.Hbond>
2.5840

> <Gold.PLP.Chemscore.CHOScore>
0.0000

> <Gold.PLP.Chemscore.Metal>
0.0000

> <Gold.Chemscore.Hbonds>
donor molecule, donor type, donor heavy atom, donor atom, acceptor molecule, acceptor atom, score
      P1  H  6896  6909       L1     6  1.00
      P1  H  6931  6943       L1     1  0.85
      P1  H  6934  6947       L1     1  0.77

> <Gold.PLP.Chemscore.Internal.Correction>
0.0633

> <Gold.Rescore>
     Score         DG    S(hbond)    S(metal)    S(lipo)     H(rot)  DE(clash)    DE(int)     intcor
     19.23     -21.19       2.69        0.00      96.98       1.81       0.01       1.94       ----

> <Gold.Chemscore.Fitness>
19.2311

> <Gold.Chemscore.DG>
-21.1860

> <Gold.Chemscore.ZeroCoef>
-5.4800

> <Gold.Chemscore.Hbond>
2.6892

> <Gold.Chemscore.Metal>
0.0000

> <Gold.Chemscore.Lipo>
96.9777

> <Gold.Chemscore.Internal_Hbond>
0.0000

> <Gold.Chemscore.DEClash>
0.0111

> <Gold.Chemscore.DEInternal>
1.9439

> <Gold.Chemscore.Rot>
1.8056

> <Gold.Chemscore.Internal.Correction>
   9.000000E+99

> <Gold.Chemscore.Hbonds>
donor molecule, donor type, donor heavy atom, donor atom, acceptor molecule, acceptor atom, score
      P1  H  6896  6909       L1     6  0.98
      P1  H  6931  6943       L1     1  0.85
      P1  H  6934  6947       L1     1  0.77

> <Gold.Chemscore.Hbond.Weighted>
-8.9820

> <Gold.Chemscore.Metal.Weighted>
-0.0000

> <Gold.Chemscore.Lipo.Weighted>
-11.3464

> <Gold.Chemscore.Internal_Hbond.Weighted>
0.0000

> <Gold.Chemscore.DEClash.Weighted>
0.0111

> <Gold.Chemscore.DEInternal.Weighted>
1.9439

> <Gold.Chemscore.Rot.Weighted>
4.6223

> <Gold.Chemscore.Internal.Correction.Weighted>
   9.000000E+99

> <Gold.Protein.RotatedTorsions>
[ 6907 6896 6895 6894 ] final  100.84 input  -60.11 | X-H torsion
[ 7974 7965 7964 7962 ] final -119.17 input  175.53 | X-H torsion
[ 8008 7997 7996 7995 ] final  -43.61 input   59.86 | X-H torsion
[ 10167 10162 10161 10158 ] final  156.34 input  -65.29 | X-H torsion
[ 10718 10713 10712 10709 ] final   10.30 input   66.30 | X-H torsion
[ 10763 10752 10751 10750 ] final -147.63 input  -60.55 | X-H torsion
[ 11005 11000 10999 10996 ] final -125.29 input  -57.11 | X-H torsion

> <Gold.Protein.ActiveResidues>
 VAL166  LYS551  ARG553  GLY616  TRP617  ASP618  TYR619  PRO620  LYS621  CYS622 
 ASP623  PHE694  ASN695  SER759  ASP760  ASP761  ALA762  ILE779  LEU786  VAL792 
 PHE793  MET794  SER795  GLU796  ALA797  LYS798  CYS799  TRP800  GLU811  SER814 

> <Gold.Protein.RotatedAtoms>
  152.5363  134.0215  159.7983 H   0  0  0  0  0  0  0  0  0  0  0  0  # atno 6907 bound_to 6896
  151.0401  133.5706  159.2659 H   0  0  0  0  0  0  0  0  0  0  0  0  # atno 6908 bound_to 6896
  151.2679  135.0682  159.9176 H   0  0  0  0  0  0  0  0  0  0  0  0  # atno 6909 bound_to 6896
  145.0656  140.8322  143.4126 H   0  0  0  0  0  0  0  0  0  0  0  0  # atno 7974 bound_to 7965
  154.3997  140.1443  156.3548 H   0  0  0  0  0  0  0  0  0  0  0  0  # atno 8008 bound_to 7997
  155.8236  140.3468  155.5508 H   0  0  0  0  0  0  0  0  0  0  0  0  # atno 8009 bound_to 7997
  155.8262  140.0905  157.1810 H   0  0  0  0  0  0  0  0  0  0  0  0  # atno 8010 bound_to 7997
  139.4821  144.5017  151.8158 H   0  0  0  0  0  0  0  0  0  0  0  0  # atno 10167 bound_to 10162
  156.9789  130.5998  149.5675 H   0  0  0  0  0  0  0  0  0  0  0  0  # atno 10718 bound_to 10713
  154.8276  135.3355  154.6847 H   0  0  0  0  0  0  0  0  0  0  0  0  # atno 10763 bound_to 10752
  153.7471  135.6942  153.4958 H   0  0  0  0  0  0  0  0  0  0  0  0  # atno 10764 bound_to 10752
  153.2202  135.4451  155.0431 H   0  0  0  0  0  0  0  0  0  0  0  0  # atno 10765 bound_to 10752
  140.9774  134.0721  157.3803 H   0  0  0  0  0  0  0  0  0  0  0  0  # atno 11005 bound_to 11000
  145.1355  139.2605  143.5517 LP  0  0  0  0  0  0  0  0  0  0  0  0  # atno 17320 bound_to 7965
  146.3526  140.1018  142.8607 LP  0  0  0  0  0  0  0  0  0  0  0  0  # atno 17321 bound_to 7965
  140.4511  144.1853  150.5897 LP  0  0  0  0  0  0  0  0  0  0  0  0  # atno 17342 bound_to 10162
  140.4583  143.2459  151.9254 LP  0  0  0  0  0  0  0  0  0  0  0  0  # atno 17343 bound_to 10162
  156.0252  130.5346  150.8387 LP  0  0  0  0  0  0  0  0  0  0  0  0  # atno 17370 bound_to 10713
  157.5540  131.0944  150.9655 LP  0  0  0  0  0  0  0  0  0  0  0  0  # atno 17371 bound_to 10713
  139.8936  135.0131  156.6907 LP  0  0  0  0  0  0  0  0  0  0  0  0  # atno 17394 bound_to 11000
  140.7239  133.9117  155.8165 LP  0  0  0  0  0  0  0  0  0  0  0  0  # atno 17395 bound_to 11000

$$$$
