AV-unprocessed.smi:2106|AV-procd|sdf|8594|dock5
  -GOLD-   2272011323D 1   1.00000     0.00000
 Structure written by MMmdl.
 47 48  0  0  0  0  0  0  0  0  1 V2000
  153.6497  140.8134  160.7589 C   0  0  0  0  0  0  0  0  0  0  0  0
  152.9414  141.9800  160.1362 C   0  0  0  0  0  0  0  0  0  0  0  0
  152.6268  143.2367  160.7244 C   0  0  0  0  0  0  0  0  0  0  0  0
  151.9854  143.9227  159.7318 C   0  0  0  0  0  0  0  0  0  0  0  0
  151.4084  145.3002  159.7304 C   0  0  0  0  0  0  0  0  0  0  0  0
  151.9378  143.0853  158.6309 N   0  0  0  0  0  0  0  0  0  0  0  0
  151.3653  143.3289  157.3142 C   0  0  0  0  0  0  0  0  0  0  0  0
  150.7045  142.0811  156.7151 C   0  0  0  0  0  0  0  0  0  0  0  0
  150.9885  140.9542  157.1240 O   0  0  0  0  0  0  0  0  0  0  0  0
  149.8169  142.3022  155.7336 N   0  0  0  0  0  0  0  0  0  0  0  0
  149.0749  141.2655  155.0266 C   0  0  0  0  0  0  0  0  0  0  0  0
  147.9992  141.8752  154.1082 C   0  0  0  0  0  0  0  0  0  0  0  0
  146.6872  142.0547  154.7271 N   0  0  0  0  0  0  0  0  0  0  0  0
  145.9435  143.1704  154.1494 C   0  0  0  0  0  0  0  0  0  0  0  0
  144.5628  143.3458  154.8075 C   0  0  2  0  0  0  0  0  0  0  0  0
  143.8205  144.5738  154.2696 C   0  0  0  0  0  0  0  0  0  0  0  0
  144.7216  143.5072  156.2159 O   0  0  0  0  0  0  0  0  0  0  0  0
  145.4618  142.4736  156.8670 C   0  0  1  0  0  0  0  0  0  0  0  0
  144.6410  141.1794  156.9999 C   0  0  0  0  0  0  0  0  0  0  0  0
  146.8188  142.2690  156.1645 C   0  0  0  0  0  0  0  0  0  0  0  0
  152.5282  141.8965  158.8824 N   0  0  0  0  0  0  0  0  0  0  0  0
  154.0213  141.0624  161.7530 H   0  0  0  0  0  0  0  0  0  0  0  0
  154.5022  140.5020  160.1547 H   0  0  0  0  0  0  0  0  0  0  0  0
  152.9811  139.9583  160.8596 H   0  0  0  0  0  0  0  0  0  0  0  0
  152.8401  143.5820  161.7251 H   0  0  0  0  0  0  0  0  0  0  0  0
  151.5969  145.8023  160.6795 H   0  0  0  0  0  0  0  0  0  0  0  0
  150.3297  145.2687  159.5769 H   0  0  0  0  0  0  0  0  0  0  0  0
  151.8475  145.9068  158.9384 H   0  0  0  0  0  0  0  0  0  0  0  0
  150.6360  144.1357  157.3981 H   0  0  0  0  0  0  0  0  0  0  0  0
  152.1472  143.6769  156.6373 H   0  0  0  0  0  0  0  0  0  0  0  0
  149.6438  143.2574  155.4552 H   0  0  0  0  0  0  0  0  0  0  0  0
  149.7735  140.6420  154.4678 H   0  0  0  0  0  0  0  0  0  0  0  0
  148.6049  140.6204  155.7693 H   0  0  0  0  0  0  0  0  0  0  0  0
  148.3644  142.8478  153.7752 H   0  0  0  0  0  0  0  0  0  0  0  0
  147.8980  141.2705  153.2058 H   0  0  0  0  0  0  0  0  0  0  0  0
  146.5189  144.0914  154.2557 H   0  0  0  0  0  0  0  0  0  0  0  0
  145.7982  143.0149  153.0810 H   0  0  0  0  0  0  0  0  0  0  0  0
  143.9520  142.4642  154.6112 H   0  0  0  0  0  0  0  0  0  0  0  0
  143.6588  144.4946  153.1945 H   0  0  0  0  0  0  0  0  0  0  0  0
  144.3828  145.4890  154.4572 H   0  0  0  0  0  0  0  0  0  0  0  0
  142.8453  144.6790  154.7453 H   0  0  0  0  0  0  0  0  0  0  0  0
  145.6598  142.8292  157.8785 H   0  0  0  0  0  0  0  0  0  0  0  0
  145.1773  140.4406  157.5960 H   0  0  0  0  0  0  0  0  0  0  0  0
  144.4309  140.7254  156.0319 H   0  0  0  0  0  0  0  0  0  0  0  0
  143.6879  141.3727  157.4926 H   0  0  0  0  0  0  0  0  0  0  0  0
  147.3413  141.4277  156.6218 H   0  0  0  0  0  0  0  0  0  0  0  0
  147.4406  143.1477  156.3423 H   0  0  0  0  0  0  0  0  0  0  0  0
  1  2  1  0  0  0  0
  1 22  1  0  0  0  0
  1 23  1  0  0  0  0
  1 24  1  0  0  0  0
  2 21  2  0  0  0  0
  2  3  1  0  0  0  0
  3  4  2  0  0  0  0
  3 25  1  0  0  0  0
  4  5  1  0  0  0  0
  4  6  1  0  0  0  0
  5 26  1  0  0  0  0
  5 27  1  0  0  0  0
  5 28  1  0  0  0  0
  6  7  1  0  0  0  0
  6 21  1  0  0  0  0
  7  8  1  0  0  0  0
  7 29  1  0  0  0  0
  7 30  1  0  0  0  0
  8  9  2  0  0  0  0
  8 10  1  0  0  0  0
 10 11  1  0  0  0  0
 10 31  1  0  0  0  0
 11 12  1  0  0  0  0
 11 32  1  0  0  0  0
 11 33  1  0  0  0  0
 12 13  1  0  0  0  0
 12 34  1  0  0  0  0
 12 35  1  0  0  0  0
 13 20  1  0  0  0  0
 13 14  1  0  0  0  0
 14 15  1  0  0  0  0
 14 36  1  0  0  0  0
 14 37  1  0  0  0  0
 15 16  1  0  0  0  0
 15 17  1  0  0  0  0
 15 38  1  0  0  0  0
 16 39  1  0  0  0  0
 16 40  1  0  0  0  0
 16 41  1  0  0  0  0
 17 18  1  0  0  0  0
 18 19  1  0  0  0  0
 18 20  1  0  0  0  0
 18 42  1  0  0  0  0
 19 43  1  0  0  0  0
 19 44  1  0  0  0  0
 19 45  1  0  0  0  0
 20 46  1  0  0  0  0
 20 47  1  0  0  0  0
M  END
> <s_m_source_file>
AV-unprocessed.smi

> <i_m_source_file_index>
2106

> <i_lp_mmshare_version>
43012

> <i_f3d_flags>
0

> <s_epik_input>
W0NIM11jMVtjSF1jKFtDSDNdKW4objEpW0NIMl1DKD1PKVtOSF1bQ0gyXVtDSDJdTjJbQ0gyXVtDQEBIXShbQ0gzXSlPW0NAQEhdKFtDSDNdKVtDSDJdMg==

> <s_epik_cmdline>
J2VwaWtfcHl0aG9uJywgJy1waCcsICc3LjAnLCAnLXRuJywgJzgnLCAnLW1hJywgJzIwMCcsICctbWV0YWxfYmluZGluZycsICctaW1hZScsICc8aW5maWxlLm1hZT4nLCAnLW9tYWUnLCAnPG91dGZpbGUubWFlPic=

> <r_lp_tautomer_probability>
1

> <r_epik_Ionization_Penalty>
0.197284

> <r_epik_Ionization_Penalty_Charging>
0

> <r_epik_Ionization_Penalty_Neutral>
0.197284

> <r_epik_State_Penalty>
0.186684

> <r_epik_Charging_Adjusted_Penalty>
0.186684

> <i_epik_Tot_Q>
0

> <i_epik_Tot_abs_Q>
0

> <r_epik_Metal_State_Penalty>
0.186634

> <b_epik_Metal_Only>
0

> <s_lp_Force_Field>
OPLS_2005

> <r_lp_Energy>
21.9362

> <b_lp_Chiralities_Consistent>
1

> <s_lp_Variant>
AV-unprocessed.smi:2106-2

> <Gold.Version>
5.8.1

> <Gold.Id.Protein>
6NUR|6NUR_protein|mol2

> <Gold.PLP.Fitness>
44.3780

> <Gold.PLP.PLP>
-44.8623

> <Gold.PLP.part.hbond>
-1.0000

> <Gold.PLP.part.metal>
0.0000

> <Gold.PLP.part.buried>
-6.5583

> <Gold.PLP.part.nonpolar>
-38.5282

> <Gold.PLP.part.repulsive>
0.4219

> <Gold.PLP.ligand.clash>
1.1261

> <Gold.PLP.ligand.torsion>
1.2129

> <Gold.PLP.Chemscore.Hbond>
1.0000

> <Gold.PLP.Chemscore.CHOScore>
0.0000

> <Gold.PLP.Chemscore.Metal>
0.0000

> <Gold.Chemscore.Hbonds>
donor molecule, donor type, donor heavy atom, donor atom, acceptor molecule, acceptor atom, score
      L1  H    10    31       P1  8028  1.00

> <Gold.PLP.Chemscore.Internal.Correction>
0.0678

> <Gold.Rescore>
     Score         DG    S(hbond)    S(metal)    S(lipo)     H(rot)  DE(clash)    DE(int)     intcor
     13.53     -16.53       0.95        0.00     103.73       1.67       0.04       2.97       ----

> <Gold.Chemscore.Fitness>
13.5277

> <Gold.Chemscore.DG>
-16.5339

> <Gold.Chemscore.ZeroCoef>
-5.4800

> <Gold.Chemscore.Hbond>
0.9525

> <Gold.Chemscore.Metal>
0.0000

> <Gold.Chemscore.Lipo>
103.7315

> <Gold.Chemscore.Internal_Hbond>
0.0000

> <Gold.Chemscore.DEClash>
0.0403

> <Gold.Chemscore.DEInternal>
2.9659

> <Gold.Chemscore.Rot>
1.6657

> <Gold.Chemscore.Internal.Correction>
   9.000000E+99

> <Gold.Chemscore.Hbonds>
donor molecule, donor type, donor heavy atom, donor atom, acceptor molecule, acceptor atom, score
      L1  H    10    31       P1  8028  0.96

> <Gold.Chemscore.Hbond.Weighted>
-3.1814

> <Gold.Chemscore.Metal.Weighted>
-0.0000

> <Gold.Chemscore.Lipo.Weighted>
-12.1366

> <Gold.Chemscore.Internal_Hbond.Weighted>
0.0000

> <Gold.Chemscore.DEClash.Weighted>
0.0403

> <Gold.Chemscore.DEInternal.Weighted>
2.9659

> <Gold.Chemscore.Rot.Weighted>
4.2641

> <Gold.Chemscore.Internal.Correction.Weighted>
   9.000000E+99

> <Gold.Protein.RotatedTorsions>
[ 6907 6896 6895 6894 ] final  155.44 input  -60.11 | X-H torsion
[ 7974 7965 7964 7962 ] final  119.53 input  175.53 | X-H torsion
[ 8008 7997 7996 7995 ] final  -68.79 input   59.86 | X-H torsion
[ 10167 10162 10161 10158 ] final  -48.71 input  -65.29 | X-H torsion
[ 10718 10713 10712 10709 ] final -164.22 input   66.30 | X-H torsion
[ 10763 10752 10751 10750 ] final -111.74 input  -60.55 | X-H torsion
[ 11005 11000 10999 10996 ] final -154.79 input  -57.11 | X-H torsion

> <Gold.Protein.ActiveResidues>
 VAL166  LYS551  ARG553  GLY616  TRP617  ASP618  TYR619  PRO620  LYS621  CYS622 
 ASP623  PHE694  ASN695  SER759  ASP760  ASP761  ALA762  ILE779  LEU786  VAL792 
 PHE793  MET794  SER795  GLU796  ALA797  LYS798  CYS799  TRP800  GLU811  SER814 

> <Gold.Protein.RotatedAtoms>
  152.0441  133.3990  159.4348 H   0  0  0  0  0  0  0  0  0  0  0  0  # atno 6907 bound_to 6896
  150.6874  134.3382  159.4865 H   0  0  0  0  0  0  0  0  0  0  0  0  # atno 6908 bound_to 6896
  152.1184  134.9223  160.0614 H   0  0  0  0  0  0  0  0  0  0  0  0  # atno 6909 bound_to 6896
  145.1420  139.3262  143.4611 H   0  0  0  0  0  0  0  0  0  0  0  0  # atno 7974 bound_to 7965
  154.4893  140.0866  156.7558 H   0  0  0  0  0  0  0  0  0  0  0  0  # atno 8008 bound_to 7997
  155.4271  140.3448  155.4258 H   0  0  0  0  0  0  0  0  0  0  0  0  # atno 8009 bound_to 7997
  156.1307  140.1500  156.9058 H   0  0  0  0  0  0  0  0  0  0  0  0  # atno 8010 bound_to 7997
  140.6718  143.2728  151.4110 H   0  0  0  0  0  0  0  0  0  0  0  0  # atno 10167 bound_to 10162
  156.6360  130.8949  151.2987 H   0  0  0  0  0  0  0  0  0  0  0  0  # atno 10718 bound_to 10713
  154.8315  135.4516  154.1085 H   0  0  0  0  0  0  0  0  0  0  0  0  # atno 10763 bound_to 10752
  153.2354  135.6910  153.7849 H   0  0  0  0  0  0  0  0  0  0  0  0  # atno 10764 bound_to 10752
  153.7216  135.3341  155.3244 H   0  0  0  0  0  0  0  0  0  0  0  0  # atno 10765 bound_to 10752
  140.6935  134.4015  157.5217 H   0  0  0  0  0  0  0  0  0  0  0  0  # atno 11005 bound_to 11000
  146.3504  140.1461  142.8593 LP  0  0  0  0  0  0  0  0  0  0  0  0  # atno 17320 bound_to 7965
  145.0522  140.9026  143.4989 LP  0  0  0  0  0  0  0  0  0  0  0  0  # atno 17321 bound_to 7965
  139.5991  144.1334  152.2177 LP  0  0  0  0  0  0  0  0  0  0  0  0  # atno 17342 bound_to 10162
  140.0713  144.5777  150.7190 LP  0  0  0  0  0  0  0  0  0  0  0  0  # atno 17343 bound_to 10162
  157.7186  130.9528  150.1349 LP  0  0  0  0  0  0  0  0  0  0  0  0  # atno 17370 bound_to 10713
  156.2197  130.3673  149.8571 LP  0  0  0  0  0  0  0  0  0  0  0  0  # atno 17371 bound_to 10713
  139.8917  134.8774  156.2309 LP  0  0  0  0  0  0  0  0  0  0  0  0  # atno 17394 bound_to 11000
  141.0222  133.7035  156.1287 LP  0  0  0  0  0  0  0  0  0  0  0  0  # atno 17395 bound_to 11000

$$$$
