AV-unprocessed.smi:20|AV-procd|sdf|115|dock2
  -GOLD-   2262015283D 1   1.00000     0.00000
 Structure written by MMmdl.
 57 61  0  0  0  0  0  0  0  0  1 V2000
  143.2230  136.3945  153.3424 O   0  0  0  0  0  0  0  0  0  0  0  0
  143.6320  135.7896  152.3541 C   0  0  0  0  0  0  0  0  0  0  0  0
  143.6999  134.2747  152.2593 C   0  0  0  0  0  0  0  0  0  0  0  0
  144.6086  134.0348  151.0307 C   0  0  2  0  0  0  0  0  0  0  0  0
  144.1789  132.8137  150.1856 C   0  0  0  0  0  0  0  0  0  0  0  0
  144.4417  131.4949  150.9302 C   0  0  0  0  0  0  0  0  0  0  0  0
  145.9118  131.3908  151.3610 C   0  0  0  0  0  0  0  0  0  0  0  0
  146.3095  132.5707  152.1234 N   0  0  0  0  0  0  0  0  0  0  0  0
  147.4007  132.4982  152.9270 C   0  0  0  0  0  0  0  0  0  0  0  0
  147.8740  133.6653  153.4363 N   0  0  0  0  0  0  0  0  0  0  0  0
  148.9421  133.6720  154.2381 C   0  0  0  0  0  0  0  0  0  0  0  0
  149.6827  132.6420  154.6481 N   0  0  0  0  0  0  0  0  0  0  0  0
  149.2215  131.4664  154.1345 C   0  0  0  0  0  0  0  0  0  0  0  0
  148.0934  131.3009  153.2795 C   0  0  0  0  0  0  0  0  0  0  0  0
  147.9414  129.9536  152.9676 N   0  0  0  0  0  0  0  0  0  0  0  0
  148.9155  129.3605  153.6010 C   0  0  0  0  0  0  0  0  0  0  0  0
  149.7474  130.1979  154.3078 N   0  0  0  0  0  0  0  0  0  0  0  0
  150.9040  129.8088  155.0952 C   0  0  0  0  0  0  0  0  0  0  0  0
  151.7996  130.9863  155.5740 C   0  0  1  0  0  0  0  0  0  0  0  0
  151.2261  131.5510  156.8965 C   0  0  0  0  0  0  0  0  0  0  0  0
  152.0145  132.6153  157.3887 O   0  0  0  0  0  0  0  0  0  0  0  0
  153.3018  130.5961  155.7232 C   0  0  2  0  0  0  0  0  0  0  0  0
  153.9092  129.8879  154.5206 C   0  0  0  0  0  0  0  0  0  0  0  0
  155.1525  129.2444  155.1151 C   0  0  0  0  0  0  0  0  0  0  0  0
  154.7371  128.8033  156.3968 O   0  0  0  0  0  0  0  0  0  0  0  0
  153.6223  129.5766  156.8314 C   0  0  0  0  0  0  0  0  0  0  0  0
  146.0868  133.8599  151.4660 C   0  0  0  0  0  0  0  0  0  0  0  0
  144.4615  135.3538  150.2369 C   0  0  0  0  0  0  0  0  0  0  0  0
  144.0722  136.3410  151.2256 N   0  0  0  0  0  0  0  0  0  0  0  0
  144.0891  133.8325  153.1772 H   0  0  0  0  0  0  0  0  0  0  0  0
  142.6912  133.8928  152.0983 H   0  0  0  0  0  0  0  0  0  0  0  0
  143.1242  132.8853  149.9176 H   0  0  0  0  0  0  0  0  0  0  0  0
  144.7332  132.8087  149.2459 H   0  0  0  0  0  0  0  0  0  0  0  0
  143.7982  131.4327  151.8087 H   0  0  0  0  0  0  0  0  0  0  0  0
  144.1800  130.6479  150.2956 H   0  0  0  0  0  0  0  0  0  0  0  0
  146.0497  130.4898  151.9600 H   0  0  0  0  0  0  0  0  0  0  0  0
  146.5489  131.3008  150.4805 H   0  0  0  0  0  0  0  0  0  0  0  0
  149.2479  134.6421  154.6014 H   0  0  0  0  0  0  0  0  0  0  0  0
  149.0635  128.2916  153.5552 H   0  0  0  0  0  0  0  0  0  0  0  0
  150.5257  129.2448  155.9482 H   0  0  0  0  0  0  0  0  0  0  0  0
  151.4996  129.1077  154.5091 H   0  0  0  0  0  0  0  0  0  0  0  0
  151.7415  131.7881  154.8367 H   0  0  0  0  0  0  0  0  0  0  0  0
  150.2002  131.8944  156.7592 H   0  0  0  0  0  0  0  0  0  0  0  0
  151.2091  130.7954  157.6805 H   0  0  0  0  0  0  0  0  0  0  0  0
  152.1174  133.2566  156.7020 H   0  0  0  0  0  0  0  0  0  0  0  0
  153.8871  131.4992  155.9038 H   0  0  0  0  0  0  0  0  0  0  0  0
  153.2335  129.1173  154.1463 H   0  0  0  0  0  0  0  0  0  0  0  0
  154.1521  130.5627  153.6993 H   0  0  0  0  0  0  0  0  0  0  0  0
  155.5346  128.4218  154.5104 H   0  0  0  0  0  0  0  0  0  0  0  0
  155.9472  129.9825  155.2329 H   0  0  0  0  0  0  0  0  0  0  0  0
  153.8586  130.0604  157.7781 H   0  0  0  0  0  0  0  0  0  0  0  0
  152.7879  128.8946  156.9984 H   0  0  0  0  0  0  0  0  0  0  0  0
  146.7377  133.9020  150.5915 H   0  0  0  0  0  0  0  0  0  0  0  0
  146.3837  134.6911  152.1064 H   0  0  0  0  0  0  0  0  0  0  0  0
  145.3784  135.6466  149.7241 H   0  0  0  0  0  0  0  0  0  0  0  0
  143.6692  135.2864  149.4899 H   0  0  0  0  0  0  0  0  0  0  0  0
  144.1198  137.3355  151.0569 H   0  0  0  0  0  0  0  0  0  0  0  0
  1  2  2  0  0  0  0
  2 29  1  0  0  0  0
  2  3  1  0  0  0  0
  3  4  1  0  0  0  0
  3 30  1  0  0  0  0
  3 31  1  0  0  0  0
  4 27  1  0  0  0  0
  4  5  1  0  0  0  0
  4 28  1  0  0  0  0
  5  6  1  0  0  0  0
  5 32  1  0  0  0  0
  5 33  1  0  0  0  0
  6  7  1  0  0  0  0
  6 34  1  0  0  0  0
  6 35  1  0  0  0  0
  7  8  1  0  0  0  0
  7 36  1  0  0  0  0
  7 37  1  0  0  0  0
  8  9  1  0  0  0  0
  8 27  1  0  0  0  0
  9 14  1  0  0  0  0
  9 10  2  0  0  0  0
 10 11  1  0  0  0  0
 11 12  2  0  0  0  0
 11 38  1  0  0  0  0
 12 13  1  0  0  0  0
 13 17  1  0  0  0  0
 13 14  2  0  0  0  0
 14 15  1  0  0  0  0
 15 16  2  0  0  0  0
 16 17  1  0  0  0  0
 16 39  1  0  0  0  0
 17 18  1  0  0  0  0
 18 19  1  0  0  0  0
 18 40  1  0  0  0  0
 18 41  1  0  0  0  0
 19 20  1  0  0  0  0
 19 22  1  0  0  0  0
 19 42  1  0  0  0  0
 20 21  1  0  0  0  0
 20 43  1  0  0  0  0
 20 44  1  0  0  0  0
 21 45  1  0  0  0  0
 22 26  1  0  0  0  0
 22 23  1  0  0  0  0
 22 46  1  0  0  0  0
 23 24  1  0  0  0  0
 23 47  1  0  0  0  0
 23 48  1  0  0  0  0
 24 25  1  0  0  0  0
 24 49  1  0  0  0  0
 24 50  1  0  0  0  0
 25 26  1  0  0  0  0
 26 51  1  0  0  0  0
 26 52  1  0  0  0  0
 27 53  1  0  0  0  0
 27 54  1  0  0  0  0
 28 29  1  0  0  0  0
 28 55  1  0  0  0  0
 28 56  1  0  0  0  0
 29 57  1  0  0  0  0
M  END
> <s_m_source_file>
AV-unprocessed.smi

> <i_m_source_file_index>
20

> <i_lp_mmshare_version>
43012

> <i_f3d_flags>
0

> <s_epik_input>
W0NIMl0xW05IXUMoPU8pW0NIMl1bQ0BAXTEyW0NIMl1bQ0gyXVtDSDJdTihbQ0gyXTIpYyhuW2NIXW4zKWMoYzM0KW5bY0hdbjRbQ0gyXVtDQEhdKFtDSDJdW09IXSlbQ0BASF01W0NIMl1bQ0gyXU9bQ0gyXTU=

> <s_epik_cmdline>
J2VwaWtfcHl0aG9uJywgJy1waCcsICc3LjAnLCAnLXRuJywgJzgnLCAnLW1hJywgJzIwMCcsICctbWV0YWxfYmluZGluZycsICctaW1hZScsICc8aW5maWxlLm1hZT4nLCAnLW9tYWUnLCAnPG91dGZpbGUubWFlPic=

> <r_lp_tautomer_probability>
1

> <r_epik_Ionization_Penalty>
0.0019697

> <r_epik_Ionization_Penalty_Charging>
0

> <r_epik_Ionization_Penalty_Neutral>
0.0019697

> <r_epik_State_Penalty>
0.00113613

> <r_epik_Charging_Adjusted_Penalty>
0.00113613

> <i_epik_Tot_Q>
0

> <i_epik_Tot_abs_Q>
0

> <r_epik_Metal_State_Penalty>
-0

> <b_epik_Metal_Only>
0

> <s_lp_Force_Field>
OPLS_2005

> <r_lp_Energy>
60.5509

> <b_lp_Chiralities_Consistent>
1

> <s_lp_Variant>
AV-unprocessed.smi:20-3

> <Gold.Version>
5.8.1

> <Gold.Id.Protein>
6NUR|6NUR_protein|mol2

> <Gold.PLP.Fitness>
53.3175

> <Gold.PLP.PLP>
-48.6912

> <Gold.PLP.part.hbond>
-2.0000

> <Gold.PLP.part.metal>
0.0000

> <Gold.PLP.part.buried>
-6.5045

> <Gold.PLP.part.nonpolar>
-41.3007

> <Gold.PLP.part.repulsive>
1.0716

> <Gold.PLP.ligand.clash>
0.0000

> <Gold.PLP.ligand.torsion>
0.6628

> <Gold.PLP.Chemscore.Hbond>
1.8800

> <Gold.PLP.Chemscore.CHOScore>
0.0000

> <Gold.PLP.Chemscore.Metal>
0.0000

> <Gold.Chemscore.Hbonds>
donor molecule, donor type, donor heavy atom, donor atom, acceptor molecule, acceptor atom, score
      L1  H    29    57       P1 10171  0.85
      P1  H  6896  6908       L1    21  1.00

> <Gold.PLP.Chemscore.Internal.Correction>
0.3119

> <Gold.Rescore>
     Score         DG    S(hbond)    S(metal)    S(lipo)     H(rot)  DE(clash)    DE(int)     intcor
     12.13     -16.50       1.88        0.00      93.80       2.43       0.17       4.20       ----

> <Gold.Chemscore.Fitness>
12.1338

> <Gold.Chemscore.DG>
-16.5041

> <Gold.Chemscore.ZeroCoef>
-5.4800

> <Gold.Chemscore.Hbond>
1.8779

> <Gold.Chemscore.Metal>
0.0000

> <Gold.Chemscore.Lipo>
93.8032

> <Gold.Chemscore.Internal_Hbond>
0.0000

> <Gold.Chemscore.DEClash>
0.1677

> <Gold.Chemscore.DEInternal>
4.2026

> <Gold.Chemscore.Rot>
2.4309

> <Gold.Chemscore.Internal.Correction>
   9.000000E+99

> <Gold.Chemscore.Hbonds>
donor molecule, donor type, donor heavy atom, donor atom, acceptor molecule, acceptor atom, score
      L1  H    29    57       P1 10171  0.85
      P1  H  6896  6908       L1    21  0.82

> <Gold.Chemscore.Hbond.Weighted>
-6.2723

> <Gold.Chemscore.Metal.Weighted>
-0.0000

> <Gold.Chemscore.Lipo.Weighted>
-10.9750

> <Gold.Chemscore.Internal_Hbond.Weighted>
0.0000

> <Gold.Chemscore.DEClash.Weighted>
0.1677

> <Gold.Chemscore.DEInternal.Weighted>
4.2026

> <Gold.Chemscore.Rot.Weighted>
6.2231

> <Gold.Chemscore.Internal.Correction.Weighted>
   9.000000E+99

> <Gold.Protein.RotatedTorsions>
[ 6907 6896 6895 6894 ] final   57.33 input  -60.11 | X-H torsion
[ 7974 7965 7964 7962 ] final -144.92 input  175.53 | X-H torsion
[ 8008 7997 7996 7995 ] final  -92.96 input   59.86 | X-H torsion
[ 10167 10162 10161 10158 ] final   45.65 input  -65.29 | X-H torsion
[ 10718 10713 10712 10709 ] final -123.49 input   66.30 | X-H torsion
[ 10763 10752 10751 10750 ] final   12.74 input  -60.55 | X-H torsion
[ 11005 11000 10999 10996 ] final   86.46 input  -57.11 | X-H torsion

> <Gold.Protein.ActiveResidues>
 VAL166  LYS551  ARG553  GLY616  TRP617  ASP618  TYR619  PRO620  LYS621  CYS622 
 ASP623  PHE694  ASN695  SER759  ASP760  ASP761  ALA762  ILE779  LEU786  VAL792 
 PHE793  MET794  SER795  GLU796  ALA797  LYS798  CYS799  TRP800  GLU811  SER814 

> <Gold.Protein.RotatedAtoms>
  152.3721  134.6718  160.0172 H   0  0  0  0  0  0  0  0  0  0  0  0  # atno 6907 bound_to 6896
  151.7008  133.3305  159.3274 H   0  0  0  0  0  0  0  0  0  0  0  0  # atno 6908 bound_to 6896
  150.7681  134.6552  159.6354 H   0  0  0  0  0  0  0  0  0  0  0  0  # atno 6909 bound_to 6896
  144.8264  140.5649  143.5544 H   0  0  0  0  0  0  0  0  0  0  0  0  # atno 7974 bound_to 7965
  154.7296  140.0504  157.0714 H   0  0  0  0  0  0  0  0  0  0  0  0  # atno 8008 bound_to 7997
  155.0319  140.3159  155.4736 H   0  0  0  0  0  0  0  0  0  0  0  0  # atno 8009 bound_to 7997
  156.2838  140.2148  156.5441 H   0  0  0  0  0  0  0  0  0  0  0  0  # atno 8010 bound_to 7997
  140.3220  144.2694  150.6181 H   0  0  0  0  0  0  0  0  0  0  0  0  # atno 10167 bound_to 10162
  156.1506  130.6532  150.9908 H   0  0  0  0  0  0  0  0  0  0  0  0  # atno 10718 bound_to 10713
  153.1792  135.6825  153.8501 H   0  0  0  0  0  0  0  0  0  0  0  0  # atno 10763 bound_to 10752
  153.7839  135.3178  155.3370 H   0  0  0  0  0  0  0  0  0  0  0  0  # atno 10764 bound_to 10752
  154.8049  135.4755  154.0461 H   0  0  0  0  0  0  0  0  0  0  0  0  # atno 10765 bound_to 10752
  139.8944  134.8357  156.2724 H   0  0  0  0  0  0  0  0  0  0  0  0  # atno 11005 bound_to 11000
  145.4992  139.1484  143.3667 LP  0  0  0  0  0  0  0  0  0  0  0  0  # atno 17320 bound_to 7965
  146.2569  140.5131  142.8870 LP  0  0  0  0  0  0  0  0  0  0  0  0  # atno 17321 bound_to 7965
  140.5475  143.2212  151.7983 LP  0  0  0  0  0  0  0  0  0  0  0  0  # atno 17342 bound_to 10162
  139.4872  144.4520  151.9642 LP  0  0  0  0  0  0  0  0  0  0  0  0  # atno 17343 bound_to 10162
  157.6654  131.0872  150.7741 LP  0  0  0  0  0  0  0  0  0  0  0  0  # atno 17370 bound_to 10713
  156.7809  130.4859  149.5401 LP  0  0  0  0  0  0  0  0  0  0  0  0  # atno 17371 bound_to 10713
  141.0092  133.7105  156.1084 LP  0  0  0  0  0  0  0  0  0  0  0  0  # atno 17394 bound_to 11000
  140.7391  134.4170  157.5557 LP  0  0  0  0  0  0  0  0  0  0  0  0  # atno 17395 bound_to 11000

$$$$
