AV-unprocessed.smi:788|AV-procd|sdf|3732|dock1
  -GOLD-   22720 1163D 1   1.00000     0.00000
 Structure written by MMmdl.
 35 36  0  0  0  0  0  0  0  0  1 V2000
  145.5009  142.3728  158.0660 C   0  0  0  0  0  0  0  0  0  0  0  0
  145.5917  142.1536  156.5459 C   0  0  1  0  0  0  0  0  0  0  0  0
  145.3238  143.4595  155.7702 C   0  0  0  0  0  0  0  0  0  0  0  0
  145.3613  143.2303  154.2516 C   0  0  0  0  0  0  0  0  0  0  0  0
  146.6883  142.5928  153.8122 C   0  0  0  0  0  0  0  0  0  0  0  0
  146.9637  141.2808  154.5751 C   0  0  1  0  0  0  0  0  0  0  0  0
  148.2642  140.6128  154.0963 C   0  0  0  0  0  0  0  0  0  0  0  0
  146.9298  141.5060  156.1080 C   0  0  1  0  0  0  0  0  0  0  0  0
  148.0673  142.3221  156.5382 N   0  0  0  0  0  0  0  0  0  0  0  0
  149.0443  141.9623  157.3864 C   0  0  0  0  0  0  0  0  0  0  0  0
  149.0882  140.8583  157.9261 O   0  0  0  0  0  0  0  0  0  0  0  0
  149.9948  142.8907  157.6277 N   0  0  0  0  0  0  0  0  0  0  0  0
  151.1582  142.8674  158.4527 C   0  0  0  0  0  0  0  0  0  0  0  0
  151.8165  143.9588  158.8776 N   0  0  0  0  0  0  0  0  0  0  0  0
  152.9160  143.6359  159.6609 N   0  0  0  0  0  0  0  0  0  0  0  0
  153.0492  142.3136  159.7958 C   0  0  0  0  0  0  0  0  0  0  0  0
  151.8433  141.3354  158.9784 S   0  0  0  0  0  0  0  0  0  0  0  0
  146.2280  143.1075  158.4131 H   0  0  0  0  0  0  0  0  0  0  0  0
  145.6811  141.4438  158.6072 H   0  0  0  0  0  0  0  0  0  0  0  0
  144.5116  142.7324  158.3494 H   0  0  0  0  0  0  0  0  0  0  0  0
  144.7964  141.4536  156.2843 H   0  0  0  0  0  0  0  0  0  0  0  0
  144.3520  143.8666  156.0509 H   0  0  0  0  0  0  0  0  0  0  0  0
  146.0617  144.2151  156.0435 H   0  0  0  0  0  0  0  0  0  0  0  0
  144.5326  142.5841  153.9600 H   0  0  0  0  0  0  0  0  0  0  0  0
  145.2131  144.1761  153.7298 H   0  0  0  0  0  0  0  0  0  0  0  0
  146.6606  142.4014  152.7390 H   0  0  0  0  0  0  0  0  0  0  0  0
  147.5039  143.2989  153.9752 H   0  0  0  0  0  0  0  0  0  0  0  0
  146.1531  140.5910  154.3349 H   0  0  0  0  0  0  0  0  0  0  0  0
  149.1261  141.2680  154.2241 H   0  0  0  0  0  0  0  0  0  0  0  0
  148.2033  140.3535  153.0391 H   0  0  0  0  0  0  0  0  0  0  0  0
  148.4592  139.6938  154.6497 H   0  0  0  0  0  0  0  0  0  0  0  0
  146.9878  140.5253  156.5834 H   0  0  0  0  0  0  0  0  0  0  0  0
  148.1175  143.2522  156.1473 H   0  0  0  0  0  0  0  0  0  0  0  0
  149.8529  143.7628  157.1392 H   0  0  0  0  0  0  0  0  0  0  0  0
  153.8635  141.9116  160.3803 H   0  0  0  0  0  0  0  0  0  0  0  0
  1  2  1  0  0  0  0
  1 18  1  0  0  0  0
  1 19  1  0  0  0  0
  1 20  1  0  0  0  0
  2  8  1  0  0  0  0
  2  3  1  0  0  0  0
  2 21  1  0  0  0  0
  3  4  1  0  0  0  0
  3 22  1  0  0  0  0
  3 23  1  0  0  0  0
  4  5  1  0  0  0  0
  4 24  1  0  0  0  0
  4 25  1  0  0  0  0
  5  6  1  0  0  0  0
  5 26  1  0  0  0  0
  5 27  1  0  0  0  0
  6  7  1  0  0  0  0
  6  8  1  0  0  0  0
  6 28  1  0  0  0  0
  7 29  1  0  0  0  0
  7 30  1  0  0  0  0
  7 31  1  0  0  0  0
  8  9  1  0  0  0  0
  8 32  1  0  0  0  0
  9 10  1  0  0  0  0
  9 33  1  0  0  0  0
 10 11  2  0  0  0  0
 10 12  1  0  0  0  0
 12 13  1  0  0  0  0
 12 34  1  0  0  0  0
 13 17  1  0  0  0  0
 13 14  2  0  0  0  0
 14 15  1  0  0  0  0
 15 16  2  0  0  0  0
 16 17  1  0  0  0  0
 16 35  1  0  0  0  0
M  END
> <s_m_source_file>
AV-unprocessed.smi

> <i_m_source_file_index>
788

> <i_lp_mmshare_version>
43012

> <i_f3d_flags>
0

> <s_epik_input>
W0NIM11bQ0BASF0xW0NIMl1bQ0gyXVtDSDJdW0NAQEhdKFtDSDNdKVtDQEhdMVtOSF1DKD1PKVtOSF1jMm5uW2NIXXMy

> <s_epik_cmdline>
J2VwaWtfcHl0aG9uJywgJy1waCcsICc3LjAnLCAnLXRuJywgJzgnLCAnLW1hJywgJzIwMCcsICctbWV0YWxfYmluZGluZycsICctaW1hZScsICc8aW5maWxlLm1hZT4nLCAnLW9tYWUnLCAnPG91dGZpbGUubWFlPic=

> <r_lp_tautomer_probability>
1

> <r_epik_Ionization_Penalty>
0.000304078

> <r_epik_Ionization_Penalty_Charging>
0

> <r_epik_Ionization_Penalty_Neutral>
0.000304078

> <r_epik_State_Penalty>
-0

> <r_epik_Charging_Adjusted_Penalty>
0

> <i_epik_Tot_Q>
0

> <i_epik_Tot_abs_Q>
0

> <r_epik_Metal_State_Penalty>
0.164801

> <b_epik_Metal_Only>
0

> <s_lp_Force_Field>
OPLS_2005

> <r_lp_Energy>
12.7564

> <b_lp_Chiralities_Consistent>
1

> <s_lp_Variant>
AV-unprocessed.smi:788-2

> <Gold.Version>
5.8.1

> <Gold.Id.Protein>
6NUR|6NUR_protein|mol2

> <Gold.PLP.Fitness>
33.9651

> <Gold.PLP.PLP>
-28.2418

> <Gold.PLP.part.hbond>
-2.0000

> <Gold.PLP.part.metal>
0.0000

> <Gold.PLP.part.buried>
-6.3946

> <Gold.PLP.part.nonpolar>
-20.0021

> <Gold.PLP.part.repulsive>
0.1141

> <Gold.PLP.ligand.clash>
0.0000

> <Gold.PLP.ligand.torsion>
0.0828

> <Gold.PLP.Chemscore.Hbond>
1.9600

> <Gold.PLP.Chemscore.CHOScore>
0.0000

> <Gold.PLP.Chemscore.Metal>
0.0000

> <Gold.Chemscore.Hbonds>
donor molecule, donor type, donor heavy atom, donor atom, acceptor molecule, acceptor atom, score
      L1  H     9    33       P1  8028  1.00
      L1  H    12    34       P1  8028  0.96

> <Gold.PLP.Chemscore.Internal.Correction>
0.0088

> <Gold.Rescore>
     Score         DG    S(hbond)    S(metal)    S(lipo)     H(rot)  DE(clash)    DE(int)     intcor
     14.77     -15.08       1.75        0.00      54.10       1.00       0.09       0.22       ----

> <Gold.Chemscore.Fitness>
14.7656

> <Gold.Chemscore.DG>
-15.0801

> <Gold.Chemscore.ZeroCoef>
-5.4800

> <Gold.Chemscore.Hbond>
1.7455

> <Gold.Chemscore.Metal>
0.0000

> <Gold.Chemscore.Lipo>
54.1039

> <Gold.Chemscore.Internal_Hbond>
0.0000

> <Gold.Chemscore.DEClash>
0.0939

> <Gold.Chemscore.DEInternal>
0.2206

> <Gold.Chemscore.Rot>
1.0000

> <Gold.Chemscore.Internal.Correction>
   9.000000E+99

> <Gold.Chemscore.Hbonds>
donor molecule, donor type, donor heavy atom, donor atom, acceptor molecule, acceptor atom, score
      L1  H     9    33       P1  8028  0.44
      L1  H    12    34       P1  8028  0.81

> <Gold.Chemscore.Hbond.Weighted>
-5.8299

> <Gold.Chemscore.Metal.Weighted>
-0.0000

> <Gold.Chemscore.Lipo.Weighted>
-6.3302

> <Gold.Chemscore.Internal_Hbond.Weighted>
0.0000

> <Gold.Chemscore.DEClash.Weighted>
0.0939

> <Gold.Chemscore.DEInternal.Weighted>
0.2206

> <Gold.Chemscore.Rot.Weighted>
2.5600

> <Gold.Chemscore.Internal.Correction.Weighted>
   9.000000E+99

> <Gold.Protein.RotatedTorsions>
[ 6907 6896 6895 6894 ] final   89.09 input  -60.11 | X-H torsion
[ 7974 7965 7964 7962 ] final   43.90 input  175.53 | X-H torsion
[ 8008 7997 7996 7995 ] final  -50.60 input   59.86 | X-H torsion
[ 10167 10162 10161 10158 ] final  110.74 input  -65.29 | X-H torsion
[ 10718 10713 10712 10709 ] final    2.86 input   66.30 | X-H torsion
[ 10763 10752 10751 10750 ] final   12.11 input  -60.55 | X-H torsion
[ 11005 11000 10999 10996 ] final   62.82 input  -57.11 | X-H torsion

> <Gold.Protein.ActiveResidues>
 VAL166  LYS551  ARG553  GLY616  TRP617  ASP618  TYR619  PRO620  LYS621  CYS622 
 ASP623  PHE694  ASN695  SER759  ASP760  ASP761  ALA762  ILE779  LEU786  VAL792 
 PHE793  MET794  SER795  GLU796  ALA797  LYS798  CYS799  TRP800  GLU811  SER814 

> <Gold.Protein.RotatedAtoms>
  152.5432  134.2020  159.8715 H   0  0  0  0  0  0  0  0  0  0  0  0  # atno 6907 bound_to 6896
  151.2008  133.4605  159.2604 H   0  0  0  0  0  0  0  0  0  0  0  0  # atno 6908 bound_to 6896
  151.0991  134.9974  159.8495 H   0  0  0  0  0  0  0  0  0  0  0  0  # atno 6909 bound_to 6896
  146.0615  139.5134  142.9655 H   0  0  0  0  0  0  0  0  0  0  0  0  # atno 7974 bound_to 7965
  154.4065  140.1268  156.4692 H   0  0  0  0  0  0  0  0  0  0  0  0  # atno 8008 bound_to 7997
  155.7196  140.3493  155.4990 H   0  0  0  0  0  0  0  0  0  0  0  0  # atno 8009 bound_to 7997
  155.9226  140.1055  157.1185 H   0  0  0  0  0  0  0  0  0  0  0  0  # atno 8010 bound_to 7997
  139.6665  144.7127  151.1767 H   0  0  0  0  0  0  0  0  0  0  0  0  # atno 10167 bound_to 10162
  156.8692  130.5614  149.5658 H   0  0  0  0  0  0  0  0  0  0  0  0  # atno 10718 bound_to 10713
  153.1856  135.6834  153.8420 H   0  0  0  0  0  0  0  0  0  0  0  0  # atno 10763 bound_to 10752
  153.7737  135.3192  155.3357 H   0  0  0  0  0  0  0  0  0  0  0  0  # atno 10764 bound_to 10752
  154.8086  135.4732  154.0554 H   0  0  0  0  0  0  0  0  0  0  0  0  # atno 10765 bound_to 10752
  140.0066  134.6360  155.9846 H   0  0  0  0  0  0  0  0  0  0  0  0  # atno 11005 bound_to 11000
  145.6551  141.0254  143.1739 LP  0  0  0  0  0  0  0  0  0  0  0  0  # atno 17320 bound_to 7965
  144.7178  139.8136  143.7393 LP  0  0  0  0  0  0  0  0  0  0  0  0  # atno 17321 bound_to 7965
  140.7601  143.5911  150.8795 LP  0  0  0  0  0  0  0  0  0  0  0  0  # atno 17342 bound_to 10162
  139.9573  143.6203  152.3012 LP  0  0  0  0  0  0  0  0  0  0  0  0  # atno 17343 bound_to 10162
  156.0735  130.5763  150.9429 LP  0  0  0  0  0  0  0  0  0  0  0  0  # atno 17370 bound_to 10713
  157.6205  131.0930  150.8630 LP  0  0  0  0  0  0  0  0  0  0  0  0  # atno 17371 bound_to 10713
  141.1681  133.6537  156.4552 LP  0  0  0  0  0  0  0  0  0  0  0  0  # atno 17394 bound_to 11000
  140.4630  134.6823  157.5094 LP  0  0  0  0  0  0  0  0  0  0  0  0  # atno 17395 bound_to 11000

$$$$
