AV-unprocessed.smi:1389|AV-procd|sdf|5651|dock5
  -GOLD-   22720 5273D 1   1.00000     0.00000
 Structure written by MMmdl.
 52 54  0  0  0  0  0  0  0  0  2 V2000
  151.4700  144.3723  157.3350 C   0  0  0  0  0  0  0  0  0  0  0  0
  151.0055  144.1441  158.7962 C   0  0  1  0  0  0  0  0  0  0  0  0
  149.8405  143.1116  158.7966 C   0  0  0  0  0  0  0  0  0  0  0  0
  148.5547  143.6873  158.4113 N   0  0  0  0  0  0  0  0  0  0  0  0
  147.3599  143.1354  158.6640 C   0  0  0  0  0  0  0  0  0  0  0  0
  147.2152  142.0620  159.2487 O   0  0  0  0  0  0  0  0  0  0  0  0
  146.3600  143.9148  158.2200 N   0  0  0  0  0  0  0  0  0  0  0  0
  144.9574  143.6901  158.3239 C   0  0  0  0  0  0  0  0  0  0  0  0
  144.4032  142.8337  159.3100 C   0  0  0  0  0  0  0  0  0  0  0  0
  143.0094  142.6420  159.3678 C   0  0  0  0  0  0  0  0  0  0  0  0
  142.1908  143.3010  158.4338 C   0  0  0  0  0  0  0  0  0  0  0  0
  142.7502  144.0947  157.4972 N   0  3  0  0  0  0  0  0  0  0  0  0
  144.0838  144.3180  157.3939 C   0  0  0  0  0  0  0  0  0  0  0  0
  144.5578  145.1496  156.3565 N   0  0  0  0  0  0  0  0  0  0  0  0
  144.3945  144.5865  155.0181 C   0  0  0  0  0  0  0  0  0  0  0  0
  143.9717  145.7407  154.1050 C   0  0  0  0  0  0  0  0  0  0  0  0
  143.3228  146.7287  155.0664 C   0  0  0  0  0  0  0  0  0  0  0  0
  144.1684  146.5581  156.3259 C   0  0  0  0  0  0  0  0  0  0  0  0
  152.1189  143.7706  159.6991 N   0  0  0  0  0  0  0  0  0  0  0  0
  152.6214  142.4140  159.4513 C   0  0  0  0  0  0  0  0  0  0  0  0
  153.7564  142.0120  160.4091 C   0  0  0  0  0  0  0  0  0  0  0  0
  153.3156  142.1316  161.7546 O   0  0  0  0  0  0  0  0  0  0  0  0
  152.8915  143.4524  162.0609 C   0  0  0  0  0  0  0  0  0  0  0  0
  151.7481  143.8607  161.1163 C   0  0  0  0  0  0  0  0  0  0  0  0
  150.6416  144.5940  156.6634 H   0  0  0  0  0  0  0  0  0  0  0  0
  151.9826  143.4931  156.9431 H   0  0  0  0  0  0  0  0  0  0  0  0
  152.1427  145.2236  157.2432 H   0  0  0  0  0  0  0  0  0  0  0  0
  150.5957  145.0917  159.1498 H   0  0  0  0  0  0  0  0  0  0  0  0
  150.0672  142.2972  158.1078 H   0  0  0  0  0  0  0  0  0  0  0  0
  149.6969  142.6543  159.7746 H   0  0  0  0  0  0  0  0  0  0  0  0
  148.5820  144.5740  157.9294 H   0  0  0  0  0  0  0  0  0  0  0  0
  146.6306  144.8140  157.8496 H   0  0  0  0  0  0  0  0  0  0  0  0
  145.0265  142.3095  160.0184 H   0  0  0  0  0  0  0  0  0  0  0  0
  142.5756  141.9944  160.1158 H   0  0  0  0  0  0  0  0  0  0  0  0
  141.1147  143.2115  158.4012 H   0  0  0  0  0  0  0  0  0  0  0  0
  145.3204  144.1285  154.6700 H   0  0  0  0  0  0  0  0  0  0  0  0
  143.6226  143.8154  155.0241 H   0  0  0  0  0  0  0  0  0  0  0  0
  144.8534  146.1956  153.6514 H   0  0  0  0  0  0  0  0  0  0  0  0
  143.3048  145.4245  153.3026 H   0  0  0  0  0  0  0  0  0  0  0  0
  143.3190  147.7525  154.6915 H   0  0  0  0  0  0  0  0  0  0  0  0
  142.2915  146.4337  155.2647 H   0  0  0  0  0  0  0  0  0  0  0  0
  143.6457  146.9062  157.2167 H   0  0  0  0  0  0  0  0  0  0  0  0
  145.0795  147.1518  156.2441 H   0  0  0  0  0  0  0  0  0  0  0  0
  151.8046  141.6955  159.5360 H   0  0  0  0  0  0  0  0  0  0  0  0
  153.0184  142.3264  158.4421 H   0  0  0  0  0  0  0  0  0  0  0  0
  154.0587  140.9809  160.2249 H   0  0  0  0  0  0  0  0  0  0  0  0
  154.6367  142.6366  160.2488 H   0  0  0  0  0  0  0  0  0  0  0  0
  152.5566  143.4868  163.0976 H   0  0  0  0  0  0  0  0  0  0  0  0
  153.7312  144.1436  161.9732 H   0  0  0  0  0  0  0  0  0  0  0  0
  151.4691  144.8799  161.3770 H   0  0  0  0  0  0  0  0  0  0  0  0
  150.8770  143.2332  161.3112 H   0  0  0  0  0  0  0  0  0  0  0  0
  142.1328  144.5504  156.8249 H   0  0  0  0  0  0  0  0  0  0  0  0
  1  2  1  0  0  0  0
  1 25  1  0  0  0  0
  1 26  1  0  0  0  0
  1 27  1  0  0  0  0
  2  3  1  0  0  0  0
  2 19  1  0  0  0  0
  2 28  1  0  0  0  0
  3  4  1  0  0  0  0
  3 29  1  0  0  0  0
  3 30  1  0  0  0  0
  4  5  1  0  0  0  0
  4 31  1  0  0  0  0
  5  6  2  0  0  0  0
  5  7  1  0  0  0  0
  7  8  1  0  0  0  0
  7 32  1  0  0  0  0
  8 13  1  0  0  0  0
  8  9  2  0  0  0  0
  9 10  1  0  0  0  0
  9 33  1  0  0  0  0
 10 11  2  0  0  0  0
 10 34  1  0  0  0  0
 11 12  1  0  0  0  0
 11 35  1  0  0  0  0
 12 13  2  0  0  0  0
 12 52  1  0  0  0  0
 13 14  1  0  0  0  0
 14 18  1  0  0  0  0
 14 15  1  0  0  0  0
 15 16  1  0  0  0  0
 15 36  1  0  0  0  0
 15 37  1  0  0  0  0
 16 17  1  0  0  0  0
 16 38  1  0  0  0  0
 16 39  1  0  0  0  0
 17 18  1  0  0  0  0
 17 40  1  0  0  0  0
 17 41  1  0  0  0  0
 18 42  1  0  0  0  0
 18 43  1  0  0  0  0
 19 24  1  0  0  0  0
 19 20  1  0  0  0  0
 20 21  1  0  0  0  0
 20 44  1  0  0  0  0
 20 45  1  0  0  0  0
 21 22  1  0  0  0  0
 21 46  1  0  0  0  0
 21 47  1  0  0  0  0
 22 23  1  0  0  0  0
 23 24  1  0  0  0  0
 23 48  1  0  0  0  0
 23 49  1  0  0  0  0
 24 50  1  0  0  0  0
 24 51  1  0  0  0  0
M  CHG  1  12   1
M  END
> <s_m_source_file>
AV-unprocessed.smi

> <i_m_source_file_index>
1389

> <i_lp_mmshare_version>
43012

> <i_f3d_flags>
0

> <s_epik_input>
W0NIMl0xW0NIMl1PW0NIMl1bQ0gyXU4xW0NASF0oW0NIM10pW0NIMl1bTkhdQyg9TylbTkhdYzJbY0hdW2NIXVtjSF1uYzJOM1tDSDJdW0NIMl1bQ0gyXVtDSDJdMw==

> <s_epik_cmdline>
J2VwaWtfcHl0aG9uJywgJy1waCcsICc3LjAnLCAnLXRuJywgJzgnLCAnLW1hJywgJzIwMCcsICctbWV0YWxfYmluZGluZycsICctaW1hZScsICc8aW5maWxlLm1hZT4nLCAnLW9tYWUnLCAnPG91dGZpbGUubWFlPic=

> <r_epik_Ionization_Penalty>
1.37675

> <r_epik_Ionization_Penalty_Charging>
1.11074

> <r_epik_Ionization_Penalty_Neutral>
0.26601

> <r_epik_State_Penalty>
1.46015

> <r_epik_Charging_Adjusted_Penalty>
2.57089

> <i_epik_Tot_Q>
1

> <i_epik_Tot_abs_Q>
1

> <r_epik_Metal_State_Penalty>
1.54223

> <b_epik_Metal_Only>
0

> <s_lp_Force_Field>
OPLS_2005

> <r_lp_Energy>
63.8734

> <b_lp_Chiralities_Consistent>
1

> <s_lp_Variant>
AV-unprocessed.smi:1389-6

> <Gold.Version>
5.8.1

> <Gold.Id.Protein>
6NUR|6NUR_protein|mol2

> <Gold.PLP.Fitness>
43.2339

> <Gold.PLP.PLP>
-37.1248

> <Gold.PLP.part.hbond>
-4.6316

> <Gold.PLP.part.metal>
0.0000

> <Gold.PLP.part.buried>
-2.5445

> <Gold.PLP.part.nonpolar>
-30.3162

> <Gold.PLP.part.repulsive>
0.2864

> <Gold.PLP.ligand.clash>
0.0000

> <Gold.PLP.ligand.torsion>
0.6491

> <Gold.PLP.Chemscore.Hbond>
2.4100

> <Gold.PLP.Chemscore.CHOScore>
0.0000

> <Gold.PLP.Chemscore.Metal>
0.0000

> <Gold.Chemscore.Hbonds>
donor molecule, donor type, donor heavy atom, donor atom, acceptor molecule, acceptor atom, score
      L1  H     4    31       P1  8029  0.85
      L1  H     7    32       P1  8029  1.00
      P1  H  6934  6946       L1     6  0.61

> <Gold.PLP.Chemscore.Internal.Correction>
0.1773

> <Gold.Rescore>
     Score         DG    S(hbond)    S(metal)    S(lipo)     H(rot)  DE(clash)    DE(int)     intcor
     21.07     -22.97       2.68        0.00     108.08       1.60       0.10       1.80       ----

> <Gold.Chemscore.Fitness>
21.0696

> <Gold.Chemscore.DG>
-22.9698

> <Gold.Chemscore.ZeroCoef>
-5.4800

> <Gold.Chemscore.Hbond>
2.6795

> <Gold.Chemscore.Metal>
0.0000

> <Gold.Chemscore.Lipo>
108.0770

> <Gold.Chemscore.Internal_Hbond>
0.0000

> <Gold.Chemscore.DEClash>
0.1030

> <Gold.Chemscore.DEInternal>
1.7972

> <Gold.Chemscore.Rot>
1.6035

> <Gold.Chemscore.Internal.Correction>
   9.000000E+99

> <Gold.Chemscore.Hbonds>
donor molecule, donor type, donor heavy atom, donor atom, acceptor molecule, acceptor atom, score
      L1  H     4    31       P1  8029  0.14
      L1  H     7    32       P1  8029  0.48
      P1  H  6934  6946       L1     6  0.60

> <Gold.Chemscore.Hbond.Weighted>
-8.9497

> <Gold.Chemscore.Metal.Weighted>
-0.0000

> <Gold.Chemscore.Lipo.Weighted>
-12.6450

> <Gold.Chemscore.Internal_Hbond.Weighted>
0.0000

> <Gold.Chemscore.DEClash.Weighted>
0.1030

> <Gold.Chemscore.DEInternal.Weighted>
1.7972

> <Gold.Chemscore.Rot.Weighted>
4.1049

> <Gold.Chemscore.Internal.Correction.Weighted>
   9.000000E+99

> <Gold.Protein.RotatedTorsions>
[ 6907 6896 6895 6894 ] final  101.52 input  -60.11 | X-H torsion
[ 7974 7965 7964 7962 ] final  106.45 input  175.53 | X-H torsion
[ 8008 7997 7996 7995 ] final -165.65 input   59.86 | X-H torsion
[ 10167 10162 10161 10158 ] final  144.02 input  -65.29 | X-H torsion
[ 10718 10713 10712 10709 ] final  -67.72 input   66.30 | X-H torsion
[ 10763 10752 10751 10750 ] final -164.54 input  -60.55 | X-H torsion
[ 11005 11000 10999 10996 ] final -131.28 input  -57.11 | X-H torsion

> <Gold.Protein.ActiveResidues>
 VAL166  LYS551  ARG553  GLY616  TRP617  ASP618  TYR619  PRO620  LYS621  CYS622 
 ASP623  PHE694  ASN695  SER759  ASP760  ASP761  ALA762  ILE779  LEU786  VAL792 
 PHE793  MET794  SER795  GLU796  ALA797  LYS798  CYS799  TRP800  GLU811  SER814 

> <Gold.Protein.RotatedAtoms>
  152.5347  134.0113  159.7939 H   0  0  0  0  0  0  0  0  0  0  0  0  # atno 6907 bound_to 6896
  151.0315  133.5779  159.2667 H   0  0  0  0  0  0  0  0  0  0  0  0  # atno 6908 bound_to 6896
  151.2782  135.0713  159.9213 H   0  0  0  0  0  0  0  0  0  0  0  0  # atno 6909 bound_to 6896
  145.3064  139.2553  143.3786 H   0  0  0  0  0  0  0  0  0  0  0  0  # atno 7974 bound_to 7965
  155.8528  140.0966  157.1664 H   0  0  0  0  0  0  0  0  0  0  0  0  # atno 8008 bound_to 7997
  154.3986  140.1380  156.3927 H   0  0  0  0  0  0  0  0  0  0  0  0  # atno 8009 bound_to 7997
  155.7942  140.3455  155.5369 H   0  0  0  0  0  0  0  0  0  0  0  0  # atno 8010 bound_to 7997
  139.4956  144.6001  151.6500 H   0  0  0  0  0  0  0  0  0  0  0  0  # atno 10167 bound_to 10162
  156.0543  130.4282  150.1895 H   0  0  0  0  0  0  0  0  0  0  0  0  # atno 10718 bound_to 10713
  154.7018  135.2989  154.9329 H   0  0  0  0  0  0  0  0  0  0  0  0  # atno 10763 bound_to 10752
  154.0258  135.6676  153.4780 H   0  0  0  0  0  0  0  0  0  0  0  0  # atno 10764 bound_to 10752
  153.0687  135.5073  154.8167 H   0  0  0  0  0  0  0  0  0  0  0  0  # atno 10765 bound_to 10752
  140.9272  134.1366  157.4265 H   0  0  0  0  0  0  0  0  0  0  0  0  # atno 11005 bound_to 11000
  146.3133  140.3590  142.8663 LP  0  0  0  0  0  0  0  0  0  0  0  0  # atno 17320 bound_to 7965
  144.9051  140.7690  143.5842 LP  0  0  0  0  0  0  0  0  0  0  0  0  # atno 17321 bound_to 7965
  140.5648  144.0208  150.6187 LP  0  0  0  0  0  0  0  0  0  0  0  0  # atno 17342 bound_to 10162
  140.3306  143.3080  152.0691 LP  0  0  0  0  0  0  0  0  0  0  0  0  # atno 17343 bound_to 10162
  156.9974  130.9912  151.3399 LP  0  0  0  0  0  0  0  0  0  0  0  0  # atno 17370 bound_to 10713
  157.5498  130.8175  149.8131 LP  0  0  0  0  0  0  0  0  0  0  0  0  # atno 17371 bound_to 10713
  139.8788  134.9992  156.5944 LP  0  0  0  0  0  0  0  0  0  0  0  0  # atno 17394 bound_to 11000
  140.7910  133.8582  155.8646 LP  0  0  0  0  0  0  0  0  0  0  0  0  # atno 17395 bound_to 11000

$$$$
