AV-unprocessed.smi:767|AV-procd|sdf|3670|dock8
  -GOLD-   22720 1 83D 1   1.00000     0.00000
 Structure written by MMmdl.
 48 50  0  0  0  0  0  0  0  0  2 V2000
  143.5083  131.7690  150.3140 C   0  0  0  0  0  0  0  0  0  0  0  0
  144.2334  133.0634  150.6158 C   0  0  0  0  0  0  0  0  0  0  0  0
  145.6212  133.1042  150.8670 C   0  0  0  0  0  0  0  0  0  0  0  0
  146.2350  134.3443  151.1382 C   0  0  0  0  0  0  0  0  0  0  0  0
  145.4514  135.5191  151.1496 C   0  0  0  0  0  0  0  0  0  0  0  0
  146.0930  136.8724  151.4088 C   0  0  0  0  0  0  0  0  0  0  0  0
  146.0144  137.3278  152.8814 C   0  0  0  0  0  0  0  0  0  0  0  0
  147.2728  137.8681  153.3882 N   0  0  0  0  0  0  0  0  0  0  0  0
  147.4721  138.3415  154.6257 C   0  0  0  0  0  0  0  0  0  0  0  0
  146.6029  138.3936  155.4952 O   0  0  0  0  0  0  0  0  0  0  0  0
  148.7422  138.7239  154.8058 N   0  0  0  0  0  0  0  0  0  0  0  0
  149.2942  139.2590  156.0518 C   0  0  1  0  0  0  0  0  0  0  0  0
  150.7154  138.7357  156.3744 C   0  0  1  0  0  0  0  0  0  0  0  0
  151.3490  137.5694  155.6573 C   0  0  0  0  0  0  0  0  0  0  0  0
  152.1735  138.2473  154.5591 C   0  0  0  0  0  0  0  0  0  0  0  0
  151.6143  139.5535  154.4320 O   0  0  0  0  0  0  0  0  0  0  0  0
  151.2558  140.0050  155.7369 C   0  0  1  0  0  0  0  0  0  0  0  0
  149.8782  140.6860  155.8773 C   0  0  0  0  0  0  0  0  0  0  0  0
  149.4125  141.5364  154.6874 C   0  0  0  0  0  0  0  0  0  0  0  0
  149.7450  141.5753  157.1176 C   0  0  0  0  0  0  0  0  0  0  0  0
  144.0661  135.4159  150.9000 C   0  0  0  0  0  0  0  0  0  0  0  0
  143.5152  134.2088  150.6447 N   0  3  0  0  0  0  0  0  0  0  0  0
  144.1943  131.0287  149.9013 H   0  0  0  0  0  0  0  0  0  0  0  0
  142.7096  131.9301  149.5890 H   0  0  0  0  0  0  0  0  0  0  0  0
  143.0700  131.3603  151.2248 H   0  0  0  0  0  0  0  0  0  0  0  0
  146.2117  132.1997  150.8482 H   0  0  0  0  0  0  0  0  0  0  0  0
  147.2989  134.3911  151.3216 H   0  0  0  0  0  0  0  0  0  0  0  0
  147.1354  136.8349  151.0910 H   0  0  0  0  0  0  0  0  0  0  0  0
  145.6146  137.6186  150.7731 H   0  0  0  0  0  0  0  0  0  0  0  0
  145.2717  138.1205  152.9731 H   0  0  0  0  0  0  0  0  0  0  0  0
  145.6703  136.5106  153.5168 H   0  0  0  0  0  0  0  0  0  0  0  0
  148.0540  137.8750  152.7487 H   0  0  0  0  0  0  0  0  0  0  0  0
  149.3834  138.6335  154.0311 H   0  0  0  0  0  0  0  0  0  0  0  0
  148.6119  139.1842  156.9007 H   0  0  0  0  0  0  0  0  0  0  0  0
  150.8900  138.7332  157.4514 H   0  0  0  0  0  0  0  0  0  0  0  0
  151.9858  136.9784  156.3161 H   0  0  0  0  0  0  0  0  0  0  0  0
  150.6055  136.8952  155.2381 H   0  0  0  0  0  0  0  0  0  0  0  0
  153.2167  138.3371  154.8652 H   0  0  0  0  0  0  0  0  0  0  0  0
  152.1401  137.7044  153.6142 H   0  0  0  0  0  0  0  0  0  0  0  0
  152.0804  140.4645  156.2837 H   0  0  0  0  0  0  0  0  0  0  0  0
  149.9609  142.4770  154.6301 H   0  0  0  0  0  0  0  0  0  0  0  0
  148.3520  141.7784  154.7619 H   0  0  0  0  0  0  0  0  0  0  0  0
  149.5623  141.0301  153.7339 H   0  0  0  0  0  0  0  0  0  0  0  0
  150.3700  142.4657  157.0409 H   0  0  0  0  0  0  0  0  0  0  0  0
  150.0462  141.0510  158.0251 H   0  0  0  0  0  0  0  0  0  0  0  0
  148.7163  141.9056  157.2646 H   0  0  0  0  0  0  0  0  0  0  0  0
  143.3886  136.2573  150.8870 H   0  0  0  0  0  0  0  0  0  0  0  0
  142.5127  134.1599  150.4616 H   0  0  0  0  0  0  0  0  0  0  0  0
  1  2  1  0  0  0  0
  1 23  1  0  0  0  0
  1 24  1  0  0  0  0
  1 25  1  0  0  0  0
  2 22  1  0  0  0  0
  2  3  2  0  0  0  0
  3  4  1  0  0  0  0
  3 26  1  0  0  0  0
  4  5  2  0  0  0  0
  4 27  1  0  0  0  0
  5  6  1  0  0  0  0
  5 21  1  0  0  0  0
  6  7  1  0  0  0  0
  6 28  1  0  0  0  0
  6 29  1  0  0  0  0
  7  8  1  0  0  0  0
  7 30  1  0  0  0  0
  7 31  1  0  0  0  0
  8  9  1  0  0  0  0
  8 32  1  0  0  0  0
  9 10  2  0  0  0  0
  9 11  1  0  0  0  0
 11 12  1  0  0  0  0
 11 33  1  0  0  0  0
 12 18  1  0  0  0  0
 12 13  1  0  0  0  0
 12 34  1  0  0  0  0
 13 17  1  0  0  0  0
 13 14  1  0  0  0  0
 13 35  1  0  0  0  0
 14 15  1  0  0  0  0
 14 36  1  0  0  0  0
 14 37  1  0  0  0  0
 15 16  1  0  0  0  0
 15 38  1  0  0  0  0
 15 39  1  0  0  0  0
 16 17  1  0  0  0  0
 17 18  1  0  0  0  0
 17 40  1  0  0  0  0
 18 19  1  0  0  0  0
 18 20  1  0  0  0  0
 19 41  1  0  0  0  0
 19 42  1  0  0  0  0
 19 43  1  0  0  0  0
 20 44  1  0  0  0  0
 20 45  1  0  0  0  0
 20 46  1  0  0  0  0
 21 22  2  0  0  0  0
 21 47  1  0  0  0  0
 22 48  1  0  0  0  0
M  CHG  1  22   1
M  END
> <s_m_source_file>
AV-unprocessed.smi

> <i_m_source_file_index>
767

> <i_lp_mmshare_version>
43012

> <i_f3d_flags>
0

> <s_epik_input>
W0NIM11jMVtjSF1bY0hdYyhbY0hdbjEpW0NIMl1bQ0gyXVtOSF1DKD1PKVtOSF1bQ0BIXTJDKFtDSDNdKShbQ0gzXSlbQ0BIXShbQ0BASF0yMylPW0NIMl1bQ0gyXTM=

> <s_epik_cmdline>
J2VwaWtfcHl0aG9uJywgJy1waCcsICc3LjAnLCAnLXRuJywgJzgnLCAnLW1hJywgJzIwMCcsICctbWV0YWxfYmluZGluZycsICctaW1hZScsICc8aW5maWxlLm1hZT4nLCAnLW9tYWUnLCAnPG91dGZpbGUubWFlPic=

> <r_epik_Ionization_Penalty>
1.41853

> <r_epik_Ionization_Penalty_Charging>
1.41848

> <r_epik_Ionization_Penalty_Neutral>
5.17407e-05

> <r_epik_State_Penalty>
1.50205

> <r_epik_Charging_Adjusted_Penalty>
2.92053

> <i_epik_Tot_Q>
1

> <i_epik_Tot_abs_Q>
1

> <r_epik_Metal_State_Penalty>
1.5544

> <b_epik_Metal_Only>
0

> <s_lp_Force_Field>
OPLS_2005

> <r_lp_Energy>
40.9756

> <b_lp_Chiralities_Consistent>
1

> <s_lp_Variant>
AV-unprocessed.smi:767-14

> <Gold.Version>
5.8.1

> <Gold.Id.Protein>
6NUR|6NUR_protein|mol2

> <Gold.PLP.Fitness>
42.6826

> <Gold.PLP.PLP>
-33.5550

> <Gold.PLP.part.hbond>
-2.9969

> <Gold.PLP.part.metal>
0.0000

> <Gold.PLP.part.buried>
0.6969

> <Gold.PLP.part.nonpolar>
-31.8302

> <Gold.PLP.part.repulsive>
0.1654

> <Gold.PLP.ligand.clash>
0.0000

> <Gold.PLP.ligand.torsion>
0.8081

> <Gold.PLP.Chemscore.Hbond>
3.5127

> <Gold.PLP.Chemscore.CHOScore>
0.0000

> <Gold.PLP.Chemscore.Metal>
0.0000

> <Gold.Chemscore.Hbonds>
donor molecule, donor type, donor heavy atom, donor atom, acceptor molecule, acceptor atom, score
      L1  H     8    32       P1  7948  0.52
      L1  H    22    48       P1 10186  2.00
      P1  H  7989  7998       L1    16  1.00

> <Gold.PLP.Chemscore.Internal.Correction>
0.2058

> <Gold.Rescore>
     Score         DG    S(hbond)    S(metal)    S(lipo)     H(rot)  DE(clash)    DE(int)     intcor
     19.70     -21.69       2.51        0.00     100.15       1.52       1.14       0.85       ----

> <Gold.Chemscore.Fitness>
19.6990

> <Gold.Chemscore.DG>
-21.6898

> <Gold.Chemscore.ZeroCoef>
-5.4800

> <Gold.Chemscore.Hbond>
2.5126

> <Gold.Chemscore.Metal>
0.0000

> <Gold.Chemscore.Lipo>
100.1481

> <Gold.Chemscore.Internal_Hbond>
0.0000

> <Gold.Chemscore.DEClash>
1.1367

> <Gold.Chemscore.DEInternal>
0.8541

> <Gold.Chemscore.Rot>
1.5233

> <Gold.Chemscore.Internal.Correction>
   9.000000E+99

> <Gold.Chemscore.Hbonds>
donor molecule, donor type, donor heavy atom, donor atom, acceptor molecule, acceptor atom, score
      L1  H     8    32       P1  7948  0.50
      L1  H    22    48       P1 10186  0.74
      P1  H  7989  7998       L1    16  0.59

> <Gold.Chemscore.Hbond.Weighted>
-8.3920

> <Gold.Chemscore.Metal.Weighted>
-0.0000

> <Gold.Chemscore.Lipo.Weighted>
-11.7173

> <Gold.Chemscore.Internal_Hbond.Weighted>
0.0000

> <Gold.Chemscore.DEClash.Weighted>
1.1367

> <Gold.Chemscore.DEInternal.Weighted>
0.8541

> <Gold.Chemscore.Rot.Weighted>
3.8995

> <Gold.Chemscore.Internal.Correction.Weighted>
   9.000000E+99

> <Gold.Protein.RotatedTorsions>
[ 6907 6896 6895 6894 ] final  -52.87 input  -60.11 | X-H torsion
[ 7974 7965 7964 7962 ] final -144.88 input  175.53 | X-H torsion
[ 8008 7997 7996 7995 ] final  -52.32 input   59.86 | X-H torsion
[ 10167 10162 10161 10158 ] final  178.06 input  -65.29 | X-H torsion
[ 10718 10713 10712 10709 ] final  158.18 input   66.30 | X-H torsion
[ 10763 10752 10751 10750 ] final  101.88 input  -60.55 | X-H torsion
[ 11005 11000 10999 10996 ] final  -50.84 input  -57.11 | X-H torsion

> <Gold.Protein.ActiveResidues>
 VAL166  LYS551  ARG553  GLY616  TRP617  ASP618  TYR619  PRO620  LYS621  CYS622 
 ASP623  PHE694  ASN695  SER759  ASP760  ASP761  ALA762  ILE779  LEU786  VAL792 
 PHE793  MET794  SER795  GLU796  ALA797  LYS798  CYS799  TRP800  GLU811  SER814 

> <Gold.Protein.RotatedAtoms>
  150.8478  134.7792  159.6983 H   0  0  0  0  0  0  0  0  0  0  0  0  # atno 6907 bound_to 6896
  152.4550  134.5307  159.9820 H   0  0  0  0  0  0  0  0  0  0  0  0  # atno 6908 bound_to 6896
  151.5434  133.3391  159.2975 H   0  0  0  0  0  0  0  0  0  0  0  0  # atno 6909 bound_to 6896
  144.8266  140.5654  143.5543 H   0  0  0  0  0  0  0  0  0  0  0  0  # atno 7974 bound_to 7965
  154.4104  140.1226  156.4973 H   0  0  0  0  0  0  0  0  0  0  0  0  # atno 8008 bound_to 7997
  155.6930  140.3495  155.4882 H   0  0  0  0  0  0  0  0  0  0  0  0  # atno 8009 bound_to 7997
  155.9452  140.1094  157.1013 H   0  0  0  0  0  0  0  0  0  0  0  0  # atno 8010 bound_to 7997
  139.5278  144.2724  152.0616 H   0  0  0  0  0  0  0  0  0  0  0  0  # atno 10167 bound_to 10162
  157.1813  131.0633  151.2130 H   0  0  0  0  0  0  0  0  0  0  0  0  # atno 10718 bound_to 10713
  153.3324  135.4029  155.1506 H   0  0  0  0  0  0  0  0  0  0  0  0  # atno 10763 bound_to 10752
  154.8626  135.3613  154.5453 H   0  0  0  0  0  0  0  0  0  0  0  0  # atno 10764 bound_to 10752
  153.5893  135.7074  153.5489 H   0  0  0  0  0  0  0  0  0  0  0  0  # atno 10765 bound_to 10752
  141.0838  133.6647  156.3790 H   0  0  0  0  0  0  0  0  0  0  0  0  # atno 11005 bound_to 11000
  145.4986  139.1484  143.3670 LP  0  0  0  0  0  0  0  0  0  0  0  0  # atno 17320 bound_to 7965
  146.2571  140.5125  142.8869 LP  0  0  0  0  0  0  0  0  0  0  0  0  # atno 17321 bound_to 7965
  140.2183  144.4492  150.6353 LP  0  0  0  0  0  0  0  0  0  0  0  0  # atno 17342 bound_to 10162
  140.6435  143.2208  151.6238 LP  0  0  0  0  0  0  0  0  0  0  0  0  # atno 17343 bound_to 10162
  157.3949  130.7302  149.6724 LP  0  0  0  0  0  0  0  0  0  0  0  0  # atno 17370 bound_to 10713
  155.9724  130.4136  150.4092 LP  0  0  0  0  0  0  0  0  0  0  0  0  # atno 17371 bound_to 10713
  140.5408  134.6122  157.5379 LP  0  0  0  0  0  0  0  0  0  0  0  0  # atno 17394 bound_to 11000
  139.9655  134.7381  156.0148 LP  0  0  0  0  0  0  0  0  0  0  0  0  # atno 17395 bound_to 11000

$$$$
