AV-unprocessed.smi:1586|AV-procd|sdf|6383|dock2
  -GOLD-   22720 7 13D 1   1.00000     0.00000
 Structure written by MMmdl.
 46 47  0  0  0  0  0  0  0  0  3 V2000
  143.7880  132.0628  150.4290 C   0  0  0  0  0  0  0  0  0  0  0  0
  144.4724  132.3595  151.7714 C   0  0  0  0  0  0  0  0  0  0  0  0
  145.8652  132.7781  151.5957 N   0  0  0  0  0  0  0  0  0  0  0  0
  146.0702  133.8629  150.6323 C   0  0  0  0  0  0  0  0  0  0  0  0
  145.5216  135.2140  151.1380 C   0  0  0  0  0  0  0  0  0  0  0  0
  146.1478  135.5931  152.4346 N   0  3  0  0  0  0  0  0  0  0  0  0
  145.7514  136.9272  152.9925 C   0  0  2  0  0  0  0  0  0  0  0  0
  145.9834  138.1036  152.0123 C   0  0  0  0  0  0  0  0  0  0  0  0
  146.4996  137.1831  154.3226 C   0  0  0  0  0  0  0  0  0  0  0  0
  147.8395  137.7165  154.1038 N   0  0  0  0  0  0  0  0  0  0  0  0
  148.5068  138.5104  154.9517 C   0  0  0  0  0  0  0  0  0  0  0  0
  147.9753  138.8665  156.0058 O   0  0  0  0  0  0  0  0  0  0  0  0
  149.7478  138.8384  154.5254 N   0  5  0  0  0  0  0  0  0  0  0  0
  150.6812  139.2344  155.4048 C   0  0  0  0  0  0  0  0  0  0  0  0
  150.5871  139.1519  156.8211 C   0  0  0  0  0  0  0  0  0  0  0  0
  151.7719  139.6842  157.2443 C   0  0  0  0  0  0  0  0  0  0  0  0
  152.3563  139.9049  158.5977 C   0  0  0  0  0  0  0  0  0  0  0  0
  152.5228  140.0714  156.1783 O   0  0  0  0  0  0  0  0  0  0  0  0
  151.8146  139.7862  155.0049 N   0  0  0  0  0  0  0  0  0  0  0  0
  145.9556  134.4864  153.4111 C   0  0  0  0  0  0  0  0  0  0  0  0
  146.5033  133.1541  152.8579 C   0  0  0  0  0  0  0  0  0  0  0  0
  142.8023  131.6271  150.5926 H   0  0  0  0  0  0  0  0  0  0  0  0
  144.3666  131.3530  149.8370 H   0  0  0  0  0  0  0  0  0  0  0  0
  143.6444  132.9642  149.8341 H   0  0  0  0  0  0  0  0  0  0  0  0
  143.8972  133.0952  152.3322 H   0  0  0  0  0  0  0  0  0  0  0  0
  144.4617  131.4430  152.3627 H   0  0  0  0  0  0  0  0  0  0  0  0
  147.1410  133.9572  150.4467 H   0  0  0  0  0  0  0  0  0  0  0  0
  145.6257  133.6094  149.6709 H   0  0  0  0  0  0  0  0  0  0  0  0
  145.7577  135.9527  150.3728 H   0  0  0  0  0  0  0  0  0  0  0  0
  144.4356  135.1907  151.2342 H   0  0  0  0  0  0  0  0  0  0  0  0
  144.6796  136.8976  153.1966 H   0  0  0  0  0  0  0  0  0  0  0  0
  145.7013  139.0597  152.4535 H   0  0  0  0  0  0  0  0  0  0  0  0
  145.3807  138.0096  151.1091 H   0  0  0  0  0  0  0  0  0  0  0  0
  147.0314  138.1785  151.7201 H   0  0  0  0  0  0  0  0  0  0  0  0
  145.9699  137.8952  154.9536 H   0  0  0  0  0  0  0  0  0  0  0  0
  146.5612  136.2500  154.8860 H   0  0  0  0  0  0  0  0  0  0  0  0
  148.3089  137.4505  153.2504 H   0  0  0  0  0  0  0  0  0  0  0  0
  149.7834  138.7603  157.4265 H   0  0  0  0  0  0  0  0  0  0  0  0
  152.5295  138.9540  159.1013 H   0  0  0  0  0  0  0  0  0  0  0  0
  151.6830  140.4985  159.2159 H   0  0  0  0  0  0  0  0  0  0  0  0
  153.3089  140.4315  158.5345 H   0  0  0  0  0  0  0  0  0  0  0  0
  146.4754  134.7031  154.3425 H   0  0  0  0  0  0  0  0  0  0  0  0
  144.8994  134.3952  153.6676 H   0  0  0  0  0  0  0  0  0  0  0  0
  146.3682  132.3563  153.5893 H   0  0  0  0  0  0  0  0  0  0  0  0
  147.5785  133.2400  152.6954 H   0  0  0  0  0  0  0  0  0  0  0  0
  147.1392  135.6524  152.2501 H   0  0  0  0  0  0  0  0  0  0  0  0
  1  2  1  0  0  0  0
  1 22  1  0  0  0  0
  1 23  1  0  0  0  0
  1 24  1  0  0  0  0
  2  3  1  0  0  0  0
  2 25  1  0  0  0  0
  2 26  1  0  0  0  0
  3 21  1  0  0  0  0
  3  4  1  0  0  0  0
  4  5  1  0  0  0  0
  4 27  1  0  0  0  0
  4 28  1  0  0  0  0
  5  6  1  0  0  0  0
  5 29  1  0  0  0  0
  5 30  1  0  0  0  0
  6  7  1  0  0  0  0
  6 20  1  0  0  0  0
  6 46  1  0  0  0  0
  7  8  1  0  0  0  0
  7  9  1  0  0  0  0
  7 31  1  0  0  0  0
  8 32  1  0  0  0  0
  8 33  1  0  0  0  0
  8 34  1  0  0  0  0
  9 10  1  0  0  0  0
  9 35  1  0  0  0  0
  9 36  1  0  0  0  0
 10 11  1  0  0  0  0
 10 37  1  0  0  0  0
 11 12  2  0  0  0  0
 11 13  1  0  0  0  0
 13 14  1  0  0  0  0
 14 19  2  0  0  0  0
 14 15  1  0  0  0  0
 15 16  2  0  0  0  0
 15 38  1  0  0  0  0
 16 17  1  0  0  0  0
 16 18  1  0  0  0  0
 17 39  1  0  0  0  0
 17 40  1  0  0  0  0
 17 41  1  0  0  0  0
 18 19  1  0  0  0  0
 20 21  1  0  0  0  0
 20 42  1  0  0  0  0
 20 43  1  0  0  0  0
 21 44  1  0  0  0  0
 21 45  1  0  0  0  0
M  CHG  1   6   1
M  CHG  1  13  -1
M  END
> <s_m_source_file>
AV-unprocessed.smi

> <i_m_source_file_index>
1586

> <i_lp_mmshare_version>
43012

> <i_f3d_flags>
0

> <s_epik_input>
W0NIM11bQ0gyXU4xW0NIMl1bQ0gyXU4oW0NIMl1bQ0gyXTEpW0NASF0oW0NIM10pW0NIMl1bTkhdQyg9TylbTkhdYzJbY0hdYyhbQ0gzXSlvbjI=

> <s_epik_cmdline>
J2VwaWtfcHl0aG9uJywgJy1waCcsICc3LjAnLCAnLXRuJywgJzgnLCAnLW1hJywgJzIwMCcsICctbWV0YWxfYmluZGluZycsICctaW1hZScsICc8aW5maWxlLm1hZT4nLCAnLW9tYWUnLCAnPG91dGZpbGUubWFlPic=

> <r_epik_Ionization_Penalty>
6.35599

> <r_epik_Ionization_Penalty_Charging>
6.35441

> <r_epik_Ionization_Penalty_Neutral>
0.00158318

> <r_epik_State_Penalty>
7.1902

> <r_epik_Charging_Adjusted_Penalty>
13.5446

> <i_epik_Tot_Q>
0

> <i_epik_Tot_abs_Q>
2

> <r_epik_Metal_State_Penalty>
3.12491

> <b_epik_Metal_Only>
1

> <s_lp_Force_Field>
OPLS_2005

> <r_lp_Energy>
12.1212

> <b_lp_Chiralities_Consistent>
1

> <s_lp_Variant>
AV-unprocessed.smi:1586-11

> <Gold.Version>
5.8.1

> <Gold.Id.Protein>
6NUR|6NUR_protein|mol2

> <Gold.PLP.Fitness>
42.9219

> <Gold.PLP.PLP>
-28.9993

> <Gold.PLP.part.hbond>
-4.0000

> <Gold.PLP.part.metal>
0.0000

> <Gold.PLP.part.buried>
-2.6480

> <Gold.PLP.part.nonpolar>
-21.8642

> <Gold.PLP.part.repulsive>
0.3587

> <Gold.PLP.ligand.clash>
0.0000

> <Gold.PLP.ligand.torsion>
0.5549

> <Gold.PLP.Chemscore.Hbond>
4.9760

> <Gold.PLP.Chemscore.CHOScore>
0.0000

> <Gold.PLP.Chemscore.Metal>
0.0000

> <Gold.Chemscore.Hbonds>
donor molecule, donor type, donor heavy atom, donor atom, acceptor molecule, acceptor atom, score
      L1  H     6    46       P1  7948  2.00
      L1  H    10    37       P1  7948  1.00
      P1  H  7989  7998       L1    19  0.99
      P1  H  7997  8009       L1    18  1.00

> <Gold.PLP.Chemscore.Internal.Correction>
0.1043

> <Gold.Rescore>
     Score         DG    S(hbond)    S(metal)    S(lipo)     H(rot)  DE(clash)    DE(int)     intcor
     19.30     -21.61       3.88        0.00      64.74       1.73       0.16       2.14       ----

> <Gold.Chemscore.Fitness>
19.2988

> <Gold.Chemscore.DG>
-21.6060

> <Gold.Chemscore.ZeroCoef>
-5.4800

> <Gold.Chemscore.Hbond>
3.8826

> <Gold.Chemscore.Metal>
0.0000

> <Gold.Chemscore.Lipo>
64.7385

> <Gold.Chemscore.Internal_Hbond>
0.0000

> <Gold.Chemscore.DEClash>
0.1642

> <Gold.Chemscore.DEInternal>
2.1430

> <Gold.Chemscore.Rot>
1.7250

> <Gold.Chemscore.Internal.Correction>
   9.000000E+99

> <Gold.Chemscore.Hbonds>
donor molecule, donor type, donor heavy atom, donor atom, acceptor molecule, acceptor atom, score
      L1  H     6    46       P1  7948  1.00
      L1  H    10    37       P1  7948  0.98
      P1  H  7989  7998       L1    19  0.85
      P1  H  7997  8009       L1    18  0.97

> <Gold.Chemscore.Hbond.Weighted>
-12.9677

> <Gold.Chemscore.Metal.Weighted>
-0.0000

> <Gold.Chemscore.Lipo.Weighted>
-7.5744

> <Gold.Chemscore.Internal_Hbond.Weighted>
0.0000

> <Gold.Chemscore.DEClash.Weighted>
0.1642

> <Gold.Chemscore.DEInternal.Weighted>
2.1430

> <Gold.Chemscore.Rot.Weighted>
4.4161

> <Gold.Chemscore.Internal.Correction.Weighted>
   9.000000E+99

> <Gold.Protein.RotatedTorsions>
[ 6907 6896 6895 6894 ] final -128.22 input  -60.11 | X-H torsion
[ 7974 7965 7964 7962 ] final   -3.43 input  175.53 | X-H torsion
[ 8008 7997 7996 7995 ] final -161.92 input   59.86 | X-H torsion
[ 10167 10162 10161 10158 ] final  -87.42 input  -65.29 | X-H torsion
[ 10718 10713 10712 10709 ] final  -45.29 input   66.30 | X-H torsion
[ 10763 10752 10751 10750 ] final  -49.43 input  -60.55 | X-H torsion
[ 11005 11000 10999 10996 ] final  -25.78 input  -57.11 | X-H torsion

> <Gold.Protein.ActiveResidues>
 VAL166  LYS551  ARG553  GLY616  TRP617  ASP618  TYR619  PRO620  LYS621  CYS622 
 ASP623  PHE694  ASN695  SER759  ASP760  ASP761  ALA762  ILE779  LEU786  VAL792 
 PHE793  MET794  SER795  GLU796  ALA797  LYS798  CYS799  TRP800  GLU811  SER814 

> <Gold.Protein.RotatedAtoms>
  150.9156  133.6943  159.2844 H   0  0  0  0  0  0  0  0  0  0  0  0  # atno 6907 bound_to 6896
  151.4415  135.1019  159.9681 H   0  0  0  0  0  0  0  0  0  0  0  0  # atno 6908 bound_to 6896
  152.4953  133.8563  159.7282 H   0  0  0  0  0  0  0  0  0  0  0  0  # atno 6909 bound_to 6896
  146.2389  140.1721  142.8332 H   0  0  0  0  0  0  0  0  0  0  0  0  # atno 7974 bound_to 7965
  155.7993  140.0889  157.1966 H   0  0  0  0  0  0  0  0  0  0  0  0  # atno 8008 bound_to 7997
  154.3982  140.1475  156.3314 H   0  0  0  0  0  0  0  0  0  0  0  0  # atno 8009 bound_to 7997
  155.8479  140.3436  155.5677 H   0  0  0  0  0  0  0  0  0  0  0  0  # atno 8010 bound_to 7997
  140.3846  143.2732  151.9340 H   0  0  0  0  0  0  0  0  0  0  0  0  # atno 10167 bound_to 10162
  156.2299  130.4172  149.8888 H   0  0  0  0  0  0  0  0  0  0  0  0  # atno 10718 bound_to 10713
  154.0939  135.6573  153.4857 H   0  0  0  0  0  0  0  0  0  0  0  0  # atno 10763 bound_to 10752
  153.0312  135.5209  154.7353 H   0  0  0  0  0  0  0  0  0  0  0  0  # atno 10764 bound_to 10752
  154.6485  135.2998  154.9985 H   0  0  0  0  0  0  0  0  0  0  0  0  # atno 10765 bound_to 10752
  140.8969  133.7550  156.0493 H   0  0  0  0  0  0  0  0  0  0  0  0  # atno 11005 bound_to 11000
  145.0003  140.8626  143.5285 LP  0  0  0  0  0  0  0  0  0  0  0  0  # atno 17320 bound_to 7965
  145.1739  139.2389  143.5327 LP  0  0  0  0  0  0  0  0  0  0  0  0  # atno 17321 bound_to 7965
  139.4793  144.5785  151.7971 LP  0  0  0  0  0  0  0  0  0  0  0  0  # atno 17342 bound_to 10162
  140.4902  144.1321  150.5949 LP  0  0  0  0  0  0  0  0  0  0  0  0  # atno 17343 bound_to 10162
  156.6506  130.8742  151.3530 LP  0  0  0  0  0  0  0  0  0  0  0  0  # atno 17370 bound_to 10713
  157.7128  130.9460  150.1148 LP  0  0  0  0  0  0  0  0  0  0  0  0  # atno 17371 bound_to 10713
  140.8278  134.3214  157.5359 LP  0  0  0  0  0  0  0  0  0  0  0  0  # atno 17394 bound_to 11000
  139.8737  134.9346  156.3610 LP  0  0  0  0  0  0  0  0  0  0  0  0  # atno 17395 bound_to 11000

$$$$
