AV-unprocessed.smi:1947|AV-procd|sdf|7872|dock2
  -GOLD-   2272010 23D 1   1.00000     0.00000
 Structure written by MMmdl.
 38 39  0  0  0  0  0  0  0  0  2 V2000
  150.5120  141.9021  156.9636 C   0  0  0  0  0  0  0  0  0  0  0  0
  151.7208  142.1117  157.8919 C   0  0  1  0  0  0  0  0  0  0  0  0
  151.4989  143.3294  158.8116 C   0  0  0  0  0  0  0  0  0  0  0  0
  152.6858  143.5504  159.7621 C   0  0  0  0  0  0  0  0  0  0  0  0
  152.9692  142.2915  160.5939 C   0  0  0  0  0  0  0  0  0  0  0  0
  153.2066  141.0750  159.6871 C   0  0  0  0  0  0  0  0  0  0  0  0
  152.0227  140.8472  158.7260 C   0  0  2  0  0  0  0  0  0  0  0  0
  152.3461  139.8020  157.8192 O   0  0  0  0  0  0  0  0  0  0  0  0
  152.1019  138.4934  158.3129 C   0  0  0  0  0  0  0  0  0  0  0  0
  150.7220  138.0311  157.8198 C   0  0  0  0  0  0  0  0  0  0  0  0
  149.7512  137.9720  158.9090 N   0  0  0  0  0  0  0  0  0  0  0  0
  149.2347  136.8587  159.4476 C   0  0  0  0  0  0  0  0  0  0  0  0
  149.5334  135.7549  158.9863 O   0  0  0  0  0  0  0  0  0  0  0  0
  148.4129  137.0930  160.4957 N   0  5  0  0  0  0  0  0  0  0  0  0
  147.9256  136.0644  161.2085 C   0  0  0  0  0  0  0  0  0  0  0  0
  147.6632  134.8676  160.6595 N   0  0  0  0  0  0  0  0  0  0  0  0
  147.1628  133.9476  161.5709 N   0  0  0  0  0  0  0  0  0  0  0  0
  147.0527  134.4797  162.7878 C   0  0  0  0  0  0  0  0  0  0  0  0
  147.5459  136.1535  162.9307 S   0  0  0  0  0  0  0  0  0  0  0  0
  149.6097  141.6743  157.5317 H   0  0  0  0  0  0  0  0  0  0  0  0
  150.6801  141.0781  156.2692 H   0  0  0  0  0  0  0  0  0  0  0  0
  150.3146  142.7936  156.3685 H   0  0  0  0  0  0  0  0  0  0  0  0
  152.5890  142.3194  157.2646 H   0  0  0  0  0  0  0  0  0  0  0  0
  151.3422  144.2260  158.2115 H   0  0  0  0  0  0  0  0  0  0  0  0
  150.5891  143.1879  159.3966 H   0  0  0  0  0  0  0  0  0  0  0  0
  153.5724  143.8161  159.1852 H   0  0  0  0  0  0  0  0  0  0  0  0
  152.4814  144.3937  160.4222 H   0  0  0  0  0  0  0  0  0  0  0  0
  153.8379  142.4549  161.2322 H   0  0  0  0  0  0  0  0  0  0  0  0
  152.1279  142.0940  161.2593 H   0  0  0  0  0  0  0  0  0  0  0  0
  154.1208  141.2254  159.1112 H   0  0  0  0  0  0  0  0  0  0  0  0
  153.3718  140.1907  160.3024 H   0  0  0  0  0  0  0  0  0  0  0  0
  151.1285  140.5971  159.3001 H   0  0  0  0  0  0  0  0  0  0  0  0
  152.8743  137.8082  157.9632 H   0  0  0  0  0  0  0  0  0  0  0  0
  152.1292  138.4824  159.4034 H   0  0  0  0  0  0  0  0  0  0  0  0
  150.3468  138.7254  157.0679 H   0  0  0  0  0  0  0  0  0  0  0  0
  150.7972  137.0564  157.3358 H   0  0  0  0  0  0  0  0  0  0  0  0
  149.4767  138.8525  159.3194 H   0  0  0  0  0  0  0  0  0  0  0  0
  146.6753  133.8842  163.6054 H   0  0  0  0  0  0  0  0  0  0  0  0
  1  2  1  0  0  0  0
  1 20  1  0  0  0  0
  1 21  1  0  0  0  0
  1 22  1  0  0  0  0
  2  7  1  0  0  0  0
  2  3  1  0  0  0  0
  2 23  1  0  0  0  0
  3  4  1  0  0  0  0
  3 24  1  0  0  0  0
  3 25  1  0  0  0  0
  4  5  1  0  0  0  0
  4 26  1  0  0  0  0
  4 27  1  0  0  0  0
  5  6  1  0  0  0  0
  5 28  1  0  0  0  0
  5 29  1  0  0  0  0
  6  7  1  0  0  0  0
  6 30  1  0  0  0  0
  6 31  1  0  0  0  0
  7  8  1  0  0  0  0
  7 32  1  0  0  0  0
  8  9  1  0  0  0  0
  9 10  1  0  0  0  0
  9 33  1  0  0  0  0
  9 34  1  0  0  0  0
 10 11  1  0  0  0  0
 10 35  1  0  0  0  0
 10 36  1  0  0  0  0
 11 12  1  0  0  0  0
 11 37  1  0  0  0  0
 12 13  2  0  0  0  0
 12 14  1  0  0  0  0
 14 15  1  0  0  0  0
 15 19  1  0  0  0  0
 15 16  2  0  0  0  0
 16 17  1  0  0  0  0
 17 18  2  0  0  0  0
 18 19  1  0  0  0  0
 18 38  1  0  0  0  0
M  CHG  1  14  -1
M  END
> <s_m_source_file>
AV-unprocessed.smi

> <i_m_source_file_index>
1947

> <i_lp_mmshare_version>
43012

> <i_f3d_flags>
0

> <s_epik_input>
W0NIM11bQ0BASF0xW0NIMl1bQ0gyXVtDSDJdW0NIMl1bQ0BIXTFPW0NIMl1bQ0gyXVtOSF1DKD1PKVtOSF1jMm5uW2NIXXMy

> <s_epik_cmdline>
J2VwaWtfcHl0aG9uJywgJy1waCcsICc3LjAnLCAnLXRuJywgJzgnLCAnLW1hJywgJzIwMCcsICctbWV0YWxfYmluZGluZycsICctaW1hZScsICc8aW5maWxlLm1hZT4nLCAnLW9tYWUnLCAnPG91dGZpbGUubWFlPic=

> <r_lp_tautomer_probability>
1

> <r_epik_Ionization_Penalty>
3.35961

> <r_epik_Ionization_Penalty_Charging>
3.31977

> <r_epik_Ionization_Penalty_Neutral>
0.0398394

> <r_epik_State_Penalty>
3.31759

> <r_epik_Charging_Adjusted_Penalty>
6.63736

> <i_epik_Tot_Q>
-1

> <i_epik_Tot_abs_Q>
1

> <r_epik_Metal_State_Penalty>
0.484557

> <b_epik_Metal_Only>
1

> <s_lp_Force_Field>
OPLS_2005

> <r_lp_Energy>
7.96077

> <b_lp_Chiralities_Consistent>
1

> <s_lp_Variant>
AV-unprocessed.smi:1947-8

> <Gold.Version>
5.8.1

> <Gold.Id.Protein>
6NUR|6NUR_protein|mol2

> <Gold.PLP.Fitness>
47.9724

> <Gold.PLP.PLP>
-39.7778

> <Gold.PLP.part.hbond>
-3.2044

> <Gold.PLP.part.metal>
0.0000

> <Gold.PLP.part.buried>
-5.8022

> <Gold.PLP.part.nonpolar>
-31.1079

> <Gold.PLP.part.repulsive>
0.2156

> <Gold.PLP.ligand.clash>
0.0000

> <Gold.PLP.ligand.torsion>
1.1301

> <Gold.PLP.Chemscore.Hbond>
3.4566

> <Gold.PLP.Chemscore.CHOScore>
0.0000

> <Gold.PLP.Chemscore.Metal>
0.0000

> <Gold.Chemscore.Hbonds>
donor molecule, donor type, donor heavy atom, donor atom, acceptor molecule, acceptor atom, score
      P1  H  6896  6908       L1    13  1.00
      P1  H  6931  6943       L1    14  1.57
      P1  H  6934  6947       L1    14  0.33
      P1  H  7997  8009       L1     8  0.23

> <Gold.PLP.Chemscore.Internal.Correction>
0.0850

> <Gold.Rescore>
     Score         DG    S(hbond)    S(metal)    S(lipo)     H(rot)  DE(clash)    DE(int)     intcor
     14.83     -17.59       1.78        0.00      94.22       1.90       0.01       2.74       ----

> <Gold.Chemscore.Fitness>
14.8318

> <Gold.Chemscore.DG>
-17.5851

> <Gold.Chemscore.ZeroCoef>
-5.4800

> <Gold.Chemscore.Hbond>
1.7789

> <Gold.Chemscore.Metal>
0.0000

> <Gold.Chemscore.Lipo>
94.2169

> <Gold.Chemscore.Internal_Hbond>
0.0000

> <Gold.Chemscore.DEClash>
0.0128

> <Gold.Chemscore.DEInternal>
2.7406

> <Gold.Chemscore.Rot>
1.8984

> <Gold.Chemscore.Internal.Correction>
   9.000000E+99

> <Gold.Chemscore.Hbonds>
donor molecule, donor type, donor heavy atom, donor atom, acceptor molecule, acceptor atom, score
      P1  H  6896  6908       L1    13  1.00
      P1  H  6931  6943       L1    14  0.25
      P1  H  6934  6947       L1    14  0.14
      P1  H  7997  8009       L1     8  0.17

> <Gold.Chemscore.Hbond.Weighted>
-5.9415

> <Gold.Chemscore.Metal.Weighted>
-0.0000

> <Gold.Chemscore.Lipo.Weighted>
-11.0234

> <Gold.Chemscore.Internal_Hbond.Weighted>
0.0000

> <Gold.Chemscore.DEClash.Weighted>
0.0128

> <Gold.Chemscore.DEInternal.Weighted>
2.7406

> <Gold.Chemscore.Rot.Weighted>
4.8598

> <Gold.Chemscore.Internal.Correction.Weighted>
   9.000000E+99

> <Gold.Protein.RotatedTorsions>
[ 6907 6896 6895 6894 ] final  167.92 input  -60.11 | X-H torsion
[ 7974 7965 7964 7962 ] final  -35.61 input  175.53 | X-H torsion
[ 8008 7997 7996 7995 ] final  166.70 input   59.86 | X-H torsion
[ 10167 10162 10161 10158 ] final   93.56 input  -65.29 | X-H torsion
[ 10718 10713 10712 10709 ] final  -73.38 input   66.30 | X-H torsion
[ 10763 10752 10751 10750 ] final  134.55 input  -60.55 | X-H torsion
[ 11005 11000 10999 10996 ] final  -77.43 input  -57.11 | X-H torsion

> <Gold.Protein.ActiveResidues>
 VAL166  LYS551  ARG553  GLY616  TRP617  ASP618  TYR619  PRO620  LYS621  CYS622 
 ASP623  PHE694  ASN695  SER759  ASP760  ASP761  ALA762  ILE779  LEU786  VAL792 
 PHE793  MET794  SER795  GLU796  ALA797  LYS798  CYS799  TRP800  GLU811  SER814 

> <Gold.Protein.RotatedAtoms>
  151.8558  133.3448  159.3687 H   0  0  0  0  0  0  0  0  0  0  0  0  # atno 6907 bound_to 6896
  150.7193  134.5255  159.5684 H   0  0  0  0  0  0  0  0  0  0  0  0  # atno 6908 bound_to 6896
  152.2758  134.7884  160.0457 H   0  0  0  0  0  0  0  0  0  0  0  0  # atno 6909 bound_to 6896
  146.0731  140.6180  142.8943 H   0  0  0  0  0  0  0  0  0  0  0  0  # atno 7974 bound_to 7965
  156.1696  140.1636  156.8471 H   0  0  0  0  0  0  0  0  0  0  0  0  # atno 8008 bound_to 7997
  154.5243  140.0771  156.8264 H   0  0  0  0  0  0  0  0  0  0  0  0  # atno 8009 bound_to 7997
  155.3540  140.3391  155.4242 H   0  0  0  0  0  0  0  0  0  0  0  0  # atno 8010 bound_to 7997
  139.8168  144.6749  150.9570 H   0  0  0  0  0  0  0  0  0  0  0  0  # atno 10167 bound_to 10162
  156.0283  130.4393  150.2733 H   0  0  0  0  0  0  0  0  0  0  0  0  # atno 10718 bound_to 10713
  153.8254  135.3110  155.3414 H   0  0  0  0  0  0  0  0  0  0  0  0  # atno 10763 bound_to 10752
  154.7995  135.4735  154.0245 H   0  0  0  0  0  0  0  0  0  0  0  0  # atno 10764 bound_to 10752
  153.1667  135.6870  153.8755 H   0  0  0  0  0  0  0  0  0  0  0  0  # atno 10765 bound_to 10752
  141.1660  133.7022  156.7819 H   0  0  0  0  0  0  0  0  0  0  0  0  # atno 11005 bound_to 11000
  144.7244  140.4479  143.6984 LP  0  0  0  0  0  0  0  0  0  0  0  0  # atno 17320 bound_to 7965
  145.6354  139.1542  143.2945 LP  0  0  0  0  0  0  0  0  0  0  0  0  # atno 17321 bound_to 7965
  140.7815  143.4131  151.0961 LP  0  0  0  0  0  0  0  0  0  0  0  0  # atno 17342 bound_to 10162
  139.7794  143.8377  152.3135 LP  0  0  0  0  0  0  0  0  0  0  0  0  # atno 17343 bound_to 10162
  157.0836  131.0150  151.3147 LP  0  0  0  0  0  0  0  0  0  0  0  0  # atno 17370 bound_to 10713
  157.4908  130.7821  149.7506 LP  0  0  0  0  0  0  0  0  0  0  0  0  # atno 17371 bound_to 10713
  140.2388  134.8629  157.3552 LP  0  0  0  0  0  0  0  0  0  0  0  0  # atno 17394 bound_to 11000
  140.1817  134.4482  155.7768 LP  0  0  0  0  0  0  0  0  0  0  0  0  # atno 17395 bound_to 11000

$$$$
