AV-unprocessed.smi:1683|AV-procd|sdf|6749|dock2
  -GOLD-   22720 7503D 1   1.00000     0.00000
 Structure written by MMmdl.
 37 38  0  0  0  0  0  0  0  0  2 V2000
  149.7092  135.8336  156.2500 O   0  0  0  0  0  0  0  0  0  0  0  0
  149.5675  135.8910  155.0284 C   0  0  0  0  0  0  0  0  0  0  0  0
  149.0470  134.8954  154.2969 N   0  0  0  0  0  0  0  0  0  0  0  0
  148.6006  133.6114  154.8277 C   0  0  0  0  0  0  0  0  0  0  0  0
  148.0907  132.6654  153.7229 C   0  0  2  0  0  0  0  0  0  0  0  0
  146.6188  132.2840  153.8638 C   0  0  0  0  0  0  0  0  0  0  0  0
  146.4880  130.9625  153.0950 C   0  0  0  0  0  0  0  0  0  0  0  0
  147.8624  130.4396  152.9004 N   0  3  2  0  0  0  0  0  0  0  0  0
  148.0341  128.9876  153.1494 C   0  0  0  0  0  0  0  0  0  0  0  0
  147.1622  128.1211  152.2238 C   0  0  0  0  0  0  0  0  0  0  0  0
  145.9353  128.0365  152.7359 F   0  0  0  0  0  0  0  0  0  0  0  0
  147.0754  128.6515  151.0044 F   0  0  0  0  0  0  0  0  0  0  0  0
  147.6732  126.8935  152.1332 F   0  0  0  0  0  0  0  0  0  0  0  0
  148.7744  131.2987  153.6818 C   0  0  0  0  0  0  0  0  0  0  0  0
  149.9017  136.9406  154.2599 N   0  0  0  0  0  0  0  0  0  0  0  0
  150.4811  138.1646  154.6801 C   0  0  0  0  0  0  0  0  0  0  0  0
  150.1332  139.4433  154.1661 C   0  0  0  0  0  0  0  0  0  0  0  0
  150.8380  140.4052  154.7443 N   0  0  0  0  0  0  0  0  0  0  0  0
  151.6334  139.7529  155.6219 N   0  0  0  0  0  0  0  0  0  0  0  0
  151.4509  138.3877  155.6172 C   0  0  0  0  0  0  0  0  0  0  0  0
  152.2886  140.2479  156.2102 H   0  0  0  0  0  0  0  0  0  0  0  0
  148.9731  135.0274  153.2985 H   0  0  0  0  0  0  0  0  0  0  0  0
  149.4397  133.1558  155.3542 H   0  0  0  0  0  0  0  0  0  0  0  0
  147.8212  133.7737  155.5744 H   0  0  0  0  0  0  0  0  0  0  0  0
  148.2205  133.1424  152.7498 H   0  0  0  0  0  0  0  0  0  0  0  0
  146.3743  132.1178  154.9142 H   0  0  0  0  0  0  0  0  0  0  0  0
  145.9481  133.0569  153.4868 H   0  0  0  0  0  0  0  0  0  0  0  0
  145.8536  130.2667  153.6457 H   0  0  0  0  0  0  0  0  0  0  0  0
  146.0334  131.1222  152.1167 H   0  0  0  0  0  0  0  0  0  0  0  0
  149.0797  128.7318  152.9706 H   0  0  0  0  0  0  0  0  0  0  0  0
  147.8361  128.7594  154.1979 H   0  0  0  0  0  0  0  0  0  0  0  0
  149.7669  131.3395  153.2316 H   0  0  0  0  0  0  0  0  0  0  0  0
  148.8772  130.9022  154.6937 H   0  0  0  0  0  0  0  0  0  0  0  0
  149.7290  136.8548  153.2690 H   0  0  0  0  0  0  0  0  0  0  0  0
  149.4076  139.7003  153.4083 H   0  0  0  0  0  0  0  0  0  0  0  0
  152.0126  137.7273  156.2611 H   0  0  0  0  0  0  0  0  0  0  0  0
  148.0942  130.6042  151.9309 H   0  0  0  0  0  0  0  0  0  0  0  0
  1  2  2  0  0  0  0
  2  3  1  0  0  0  0
  2 15  1  0  0  0  0
  3  4  1  0  0  0  0
  3 22  1  0  0  0  0
  4  5  1  0  0  0  0
  4 23  1  0  0  0  0
  4 24  1  0  0  0  0
  5 14  1  0  0  0  0
  5  6  1  0  0  0  0
  5 25  1  0  0  0  0
  6  7  1  0  0  0  0
  6 26  1  0  0  0  0
  6 27  1  0  0  0  0
  7  8  1  0  0  0  0
  7 28  1  0  0  0  0
  7 29  1  0  0  0  0
  8  9  1  0  0  0  0
  8 14  1  0  0  0  0
  8 37  1  0  0  0  0
  9 10  1  0  0  0  0
  9 30  1  0  0  0  0
  9 31  1  0  0  0  0
 10 11  1  0  0  0  0
 10 12  1  0  0  0  0
 10 13  1  0  0  0  0
 14 32  1  0  0  0  0
 14 33  1  0  0  0  0
 15 16  1  0  0  0  0
 15 34  1  0  0  0  0
 16 20  2  0  0  0  0
 16 17  1  0  0  0  0
 17 18  2  0  0  0  0
 17 35  1  0  0  0  0
 18 19  1  0  0  0  0
 19 21  1  0  0  0  0
 19 20  1  0  0  0  0
 20 36  1  0  0  0  0
M  CHG  1   8   1
M  END
> <s_m_source_file>
AV-unprocessed.smi

> <i_m_source_file_index>
1683

> <i_lp_mmshare_version>
43012

> <i_f3d_flags>
0

> <s_epik_input>
W2NIXTFbbkhdbltjSF1jMVtOSF1DKD1PKVtOSF1bQ0gyXVtDQEBIXTJbQ0gyXVtDSDJdTihbQ0gyXTIpW0NIMl1DKEYpKEYpRg==

> <s_epik_cmdline>
J2VwaWtfcHl0aG9uJywgJy1waCcsICc3LjAnLCAnLXRuJywgJzgnLCAnLW1hJywgJzIwMCcsICctbWV0YWxfYmluZGluZycsICctaW1hZScsICc8aW5maWxlLm1hZT4nLCAnLW9tYWUnLCAnPG91dGZpbGUubWFlPic=

> <r_lp_tautomer_probability>
0.5

> <r_epik_Ionization_Penalty>
0.641865

> <r_epik_Ionization_Penalty_Charging>
0.64182

> <r_epik_Ionization_Penalty_Neutral>
4.50685e-05

> <r_epik_State_Penalty>
0.65957

> <r_epik_Charging_Adjusted_Penalty>
1.30139

> <i_epik_Tot_Q>
1

> <i_epik_Tot_abs_Q>
1

> <r_epik_Metal_State_Penalty>
0.659571

> <b_epik_Metal_Only>
0

> <s_lp_Force_Field>
OPLS_2005

> <r_lp_Energy>
30.3314

> <b_lp_Chiralities_Consistent>
1

> <s_lp_Variant>
AV-unprocessed.smi:1683-3

> <Gold.Version>
5.8.1

> <Gold.Id.Protein>
6NUR|6NUR_protein|mol2

> <Gold.PLP.Fitness>
45.6558

> <Gold.PLP.PLP>
-33.8750

> <Gold.PLP.part.hbond>
-4.6865

> <Gold.PLP.part.metal>
0.0000

> <Gold.PLP.part.buried>
-2.0097

> <Gold.PLP.part.nonpolar>
-27.6043

> <Gold.PLP.part.repulsive>
0.3694

> <Gold.PLP.ligand.clash>
0.0217

> <Gold.PLP.ligand.torsion>
1.4142

> <Gold.PLP.Chemscore.Hbond>
3.8413

> <Gold.PLP.Chemscore.CHOScore>
0.8579

> <Gold.PLP.Chemscore.Metal>
0.0000

> <Gold.Chemscore.Hbonds>
donor molecule, donor type, donor heavy atom, donor atom, acceptor molecule, acceptor atom, score
      L1  H     3    22       P1  7948  0.98
      L1  H     8    37       P1 10747  1.00
      L1  H    15    34       P1  7948  1.00
      P1  H  7989  7998       L1    18  0.90
      L1  C    17    35       P1  7957  1.00

> <Gold.PLP.Chemscore.Internal.Correction>
0.5337

> <Gold.Rescore>
     Score         DG    S(hbond)    S(metal)    S(lipo)     H(rot)  DE(clash)    DE(int)     intcor
     13.45     -16.47       2.80        0.00      53.76       1.81       0.67       2.35       ----

> <Gold.Chemscore.Fitness>
13.4493

> <Gold.Chemscore.DG>
-16.4695

> <Gold.Chemscore.ZeroCoef>
-5.4800

> <Gold.Chemscore.Hbond>
2.7957

> <Gold.Chemscore.Metal>
0.0000

> <Gold.Chemscore.Lipo>
53.7581

> <Gold.Chemscore.Internal_Hbond>
0.0000

> <Gold.Chemscore.DEClash>
0.6685

> <Gold.Chemscore.DEInternal>
2.3517

> <Gold.Chemscore.Rot>
1.8116

> <Gold.Chemscore.Internal.Correction>
   9.000000E+99

> <Gold.Chemscore.Hbonds>
donor molecule, donor type, donor heavy atom, donor atom, acceptor molecule, acceptor atom, score
      L1  H     3    22       P1  7948  0.28
      L1  H     8    37       P1 10747  1.00
      L1  H    15    34       P1  7948  0.44
      P1  H  7989  7998       L1    18  0.14

> <Gold.Chemscore.Hbond.Weighted>
-9.3376

> <Gold.Chemscore.Metal.Weighted>
-0.0000

> <Gold.Chemscore.Lipo.Weighted>
-6.2897

> <Gold.Chemscore.Internal_Hbond.Weighted>
0.0000

> <Gold.Chemscore.DEClash.Weighted>
0.6685

> <Gold.Chemscore.DEInternal.Weighted>
2.3517

> <Gold.Chemscore.Rot.Weighted>
4.6378

> <Gold.Chemscore.Internal.Correction.Weighted>
   9.000000E+99

> <Gold.Protein.RotatedTorsions>
[ 6907 6896 6895 6894 ] final  139.47 input  -60.11 | X-H torsion
[ 7974 7965 7964 7962 ] final  -46.69 input  175.53 | X-H torsion
[ 8008 7997 7996 7995 ] final  -78.39 input   59.86 | X-H torsion
[ 10167 10162 10161 10158 ] final   66.52 input  -65.29 | X-H torsion
[ 10718 10713 10712 10709 ] final -159.41 input   66.30 | X-H torsion
[ 10763 10752 10751 10750 ] final -173.66 input  -60.55 | X-H torsion
[ 11005 11000 10999 10996 ] final -114.09 input  -57.11 | X-H torsion

> <Gold.Protein.ActiveResidues>
 VAL166  LYS551  ARG553  GLY616  TRP617  ASP618  TYR619  PRO620  LYS621  CYS622 
 ASP623  PHE694  ASN695  SER759  ASP760  ASP761  ALA762  ILE779  LEU786  VAL792 
 PHE793  MET794  SER795  GLU796  ALA797  LYS798  CYS799  TRP800  GLU811  SER814 

> <Gold.Protein.RotatedAtoms>
  152.2545  133.5243  159.5344 H   0  0  0  0  0  0  0  0  0  0  0  0  # atno 6907 bound_to 6896
  150.7104  134.0915  159.3942 H   0  0  0  0  0  0  0  0  0  0  0  0  # atno 6908 bound_to 6896
  151.8834  135.0445  160.0541 H   0  0  0  0  0  0  0  0  0  0  0  0  # atno 6909 bound_to 6896
  145.9693  140.7400  142.9418 H   0  0  0  0  0  0  0  0  0  0  0  0  # atno 7974 bound_to 7965
  154.5685  140.0695  156.8928 H   0  0  0  0  0  0  0  0  0  0  0  0  # atno 8008 bound_to 7997
  155.2678  140.3363  155.4249 H   0  0  0  0  0  0  0  0  0  0  0  0  # atno 8009 bound_to 7997
  156.2099  140.1755  156.7702 H   0  0  0  0  0  0  0  0  0  0  0  0  # atno 8010 bound_to 7997
  140.0996  144.4916  150.7046 H   0  0  0  0  0  0  0  0  0  0  0  0  # atno 10167 bound_to 10162
  156.5678  130.8675  151.2829 H   0  0  0  0  0  0  0  0  0  0  0  0  # atno 10718 bound_to 10713
  154.6053  135.2859  155.0491 H   0  0  0  0  0  0  0  0  0  0  0  0  # atno 10763 bound_to 10752
  154.1741  135.6467  153.5021 H   0  0  0  0  0  0  0  0  0  0  0  0  # atno 10764 bound_to 10752
  153.0173  135.5408  154.6787 H   0  0  0  0  0  0  0  0  0  0  0  0  # atno 10765 bound_to 10752
  141.0574  133.9591  157.2729 H   0  0  0  0  0  0  0  0  0  0  0  0  # atno 11005 bound_to 11000
  144.6833  140.2721  143.7304 LP  0  0  0  0  0  0  0  0  0  0  0  0  # atno 17320 bound_to 7965
  145.7929  139.1934  143.2092 LP  0  0  0  0  0  0  0  0  0  0  0  0  # atno 17321 bound_to 7965
  140.6985  143.2419  151.4932 LP  0  0  0  0  0  0  0  0  0  0  0  0  # atno 17342 bound_to 10162
  139.5679  144.1999  152.1792 LP  0  0  0  0  0  0  0  0  0  0  0  0  # atno 17343 bound_to 10162
  157.7355  130.9763  150.2084 LP  0  0  0  0  0  0  0  0  0  0  0  0  # atno 17370 bound_to 10713
  156.2742  130.3725  149.8001 LP  0  0  0  0  0  0  0  0  0  0  0  0  # atno 17371 bound_to 10713
  139.9402  135.0192  156.8684 LP  0  0  0  0  0  0  0  0  0  0  0  0  # atno 17394 bound_to 11000
  140.5937  134.0237  155.7509 LP  0  0  0  0  0  0  0  0  0  0  0  0  # atno 17395 bound_to 11000

$$$$
