AV-unprocessed.smi:1509|AV-procd|sdf|6093|dock6
  -GOLD-   22720 6223D 1   1.00000     0.00000
 Structure written by MMmdl.
 42 43  0  0  0  0  0  0  0  0  2 V2000
  145.6509  131.7417  150.3225 C   0  0  0  0  0  0  0  0  0  0  0  0
  145.9805  133.1497  150.8376 C   0  0  1  0  0  0  0  0  0  0  0  0
  144.8216  134.1272  150.5796 C   0  0  0  0  0  0  0  0  0  0  0  0
  145.1645  135.5167  151.1311 C   0  0  0  0  0  0  0  0  0  0  0  0
  145.5432  135.4403  152.6188 C   0  0  0  0  0  0  0  0  0  0  0  0
  146.6688  134.4951  152.8350 N   0  3  1  0  0  0  0  0  0  0  0  0
  147.1485  134.5016  154.2402 C   0  0  0  0  0  0  0  0  0  0  0  0
  148.4407  133.6869  154.4195 C   0  0  0  0  0  0  0  0  0  0  0  0
  149.4964  134.4429  155.2430 C   0  0  0  0  0  0  0  0  0  0  0  0
  149.9316  135.6613  154.5707 N   0  0  0  0  0  0  0  0  0  0  0  0
  150.9180  136.4661  154.9984 C   0  0  0  0  0  0  0  0  0  0  0  0
  151.5499  136.2657  156.0353 O   0  0  0  0  0  0  0  0  0  0  0  0
  151.2343  137.6915  154.1375 C   0  0  0  0  0  0  0  0  0  0  0  0
  151.3324  138.8992  154.9369 N   0  0  0  0  0  0  0  0  0  0  0  0
  151.9762  139.1433  156.0803 C   0  0  0  0  0  0  0  0  0  0  0  0
  151.7979  140.3914  156.4850 N   0  0  0  0  0  0  0  0  0  0  0  0
  150.9858  140.9287  155.4998 N   0  0  0  0  0  0  0  0  0  0  0  0
  150.7067  140.0481  154.5781 N   0  0  0  0  0  0  0  0  0  0  0  0
  146.3405  133.1320  152.3370 C   0  0  0  0  0  0  0  0  0  0  0  0
  144.7855  131.3229  150.8372 H   0  0  0  0  0  0  0  0  0  0  0  0
  146.4891  131.0610  150.4739 H   0  0  0  0  0  0  0  0  0  0  0  0
  145.4280  131.7561  149.2553 H   0  0  0  0  0  0  0  0  0  0  0  0
  146.8521  133.5053  150.2859 H   0  0  0  0  0  0  0  0  0  0  0  0
  144.6120  134.1931  149.5114 H   0  0  0  0  0  0  0  0  0  0  0  0
  143.9107  133.7593  151.0541 H   0  0  0  0  0  0  0  0  0  0  0  0
  145.9928  135.9428  150.5633 H   0  0  0  0  0  0  0  0  0  0  0  0
  144.3178  136.1906  150.9960 H   0  0  0  0  0  0  0  0  0  0  0  0
  145.8242  136.4357  152.9649 H   0  0  0  0  0  0  0  0  0  0  0  0
  144.6830  135.1278  153.2131 H   0  0  0  0  0  0  0  0  0  0  0  0
  147.3577  135.5283  154.5444 H   0  0  0  0  0  0  0  0  0  0  0  0
  146.3625  134.1391  154.9045 H   0  0  0  0  0  0  0  0  0  0  0  0
  148.2277  132.7364  154.9082 H   0  0  0  0  0  0  0  0  0  0  0  0
  148.8480  133.4442  153.4369 H   0  0  0  0  0  0  0  0  0  0  0  0
  149.1110  134.6826  156.2358 H   0  0  0  0  0  0  0  0  0  0  0  0
  150.3712  133.8104  155.3956 H   0  0  0  0  0  0  0  0  0  0  0  0
  149.4621  135.9001  153.7089 H   0  0  0  0  0  0  0  0  0  0  0  0
  152.1771  137.5368  153.6115 H   0  0  0  0  0  0  0  0  0  0  0  0
  150.4612  137.8300  153.3799 H   0  0  0  0  0  0  0  0  0  0  0  0
  152.5659  138.4121  156.6135 H   0  0  0  0  0  0  0  0  0  0  0  0
  145.5120  132.7238  152.9186 H   0  0  0  0  0  0  0  0  0  0  0  0
  147.1883  132.4650  152.4902 H   0  0  0  0  0  0  0  0  0  0  0  0
  147.4329  134.8396  152.2710 H   0  0  0  0  0  0  0  0  0  0  0  0
  1  2  1  0  0  0  0
  1 20  1  0  0  0  0
  1 21  1  0  0  0  0
  1 22  1  0  0  0  0
  2 19  1  0  0  0  0
  2  3  1  0  0  0  0
  2 23  1  0  0  0  0
  3  4  1  0  0  0  0
  3 24  1  0  0  0  0
  3 25  1  0  0  0  0
  4  5  1  0  0  0  0
  4 26  1  0  0  0  0
  4 27  1  0  0  0  0
  5  6  1  0  0  0  0
  5 28  1  0  0  0  0
  5 29  1  0  0  0  0
  6  7  1  0  0  0  0
  6 19  1  0  0  0  0
  6 42  1  0  0  0  0
  7  8  1  0  0  0  0
  7 30  1  0  0  0  0
  7 31  1  0  0  0  0
  8  9  1  0  0  0  0
  8 32  1  0  0  0  0
  8 33  1  0  0  0  0
  9 10  1  0  0  0  0
  9 34  1  0  0  0  0
  9 35  1  0  0  0  0
 10 11  1  0  0  0  0
 10 36  1  0  0  0  0
 11 12  2  0  0  0  0
 11 13  1  0  0  0  0
 13 14  1  0  0  0  0
 13 37  1  0  0  0  0
 13 38  1  0  0  0  0
 14 18  1  0  0  0  0
 14 15  1  0  0  0  0
 15 16  2  0  0  0  0
 15 39  1  0  0  0  0
 16 17  1  0  0  0  0
 17 18  2  0  0  0  0
 19 40  1  0  0  0  0
 19 41  1  0  0  0  0
M  CHG  1   6   1
M  END
> <s_m_source_file>
AV-unprocessed.smi

> <i_m_source_file_index>
1509

> <i_lp_mmshare_version>
43012

> <i_f3d_flags>
0

> <s_epik_input>
W0NIM11bQ0BASF0xW0NIMl1bQ0gyXVtDSDJdTihbQ0gyXTEpW0NIMl1bQ0gyXVtDSDJdW05IXUMoPU8pW0NIMl1uMltjSF1ubm4y

> <s_epik_cmdline>
J2VwaWtfcHl0aG9uJywgJy1waCcsICc3LjAnLCAnLXRuJywgJzgnLCAnLW1hJywgJzIwMCcsICctbWV0YWxfYmluZGluZycsICctaW1hZScsICc8aW5maWxlLm1hZT4nLCAnLW9tYWUnLCAnPG91dGZpbGUubWFlPic=

> <r_lp_tautomer_probability>
1

> <r_epik_Ionization_Penalty>
0.00044216

> <r_epik_Ionization_Penalty_Charging>
0.000440775

> <r_epik_Ionization_Penalty_Neutral>
1.38512e-06

> <r_epik_State_Penalty>
0.000271914

> <r_epik_Charging_Adjusted_Penalty>
0.000712689

> <i_epik_Tot_Q>
1

> <i_epik_Tot_abs_Q>
1

> <r_epik_Metal_State_Penalty>
-0

> <b_epik_Metal_Only>
0

> <s_lp_Force_Field>
OPLS_2005

> <r_lp_Energy>
20.7135

> <b_lp_Chiralities_Consistent>
1

> <s_lp_Variant>
AV-unprocessed.smi:1509-4

> <Gold.Version>
5.8.1

> <Gold.Id.Protein>
6NUR|6NUR_protein|mol2

> <Gold.PLP.Fitness>
49.6957

> <Gold.PLP.PLP>
-35.9608

> <Gold.PLP.part.hbond>
-5.5947

> <Gold.PLP.part.metal>
0.0000

> <Gold.PLP.part.buried>
-1.6812

> <Gold.PLP.part.nonpolar>
-28.1797

> <Gold.PLP.part.repulsive>
0.2192

> <Gold.PLP.ligand.clash>
0.0000

> <Gold.PLP.ligand.torsion>
0.6545

> <Gold.PLP.Chemscore.Hbond>
5.0000

> <Gold.PLP.Chemscore.CHOScore>
0.0000

> <Gold.PLP.Chemscore.Metal>
0.0000

> <Gold.Chemscore.Hbonds>
donor molecule, donor type, donor heavy atom, donor atom, acceptor molecule, acceptor atom, score
      L1  H     6    42       P1  7948  1.82
      L1  H    10    36       P1  7948  1.00
      P1  H  7989  7998       L1    18  0.55
      P1  H 10752 10763       L1    12  0.68

> <Gold.PLP.Chemscore.Internal.Correction>
0.0438

> <Gold.Rescore>
     Score         DG    S(hbond)    S(metal)    S(lipo)     H(rot)  DE(clash)    DE(int)     intcor
     13.05     -13.49       2.50        0.00      62.11       2.97       0.03       0.42       ----

> <Gold.Chemscore.Fitness>
13.0459

> <Gold.Chemscore.DG>
-13.4948

> <Gold.Chemscore.ZeroCoef>
-5.4800

> <Gold.Chemscore.Hbond>
2.4986

> <Gold.Chemscore.Metal>
0.0000

> <Gold.Chemscore.Lipo>
62.1142

> <Gold.Chemscore.Internal_Hbond>
0.0000

> <Gold.Chemscore.DEClash>
0.0329

> <Gold.Chemscore.DEInternal>
0.4160

> <Gold.Chemscore.Rot>
2.9680

> <Gold.Chemscore.Internal.Correction>
   9.000000E+99

> <Gold.Chemscore.Hbonds>
donor molecule, donor type, donor heavy atom, donor atom, acceptor molecule, acceptor atom, score
      L1  H     6    42       P1  7948  0.80
      L1  H    10    36       P1  7948  0.50
      P1  H  7989  7998       L1    18  0.02
      P1  H 10752 10763       L1    12  0.07

> <Gold.Chemscore.Hbond.Weighted>
-8.3454

> <Gold.Chemscore.Metal.Weighted>
-0.0000

> <Gold.Chemscore.Lipo.Weighted>
-7.2674

> <Gold.Chemscore.Internal_Hbond.Weighted>
0.0000

> <Gold.Chemscore.DEClash.Weighted>
0.0329

> <Gold.Chemscore.DEInternal.Weighted>
0.4160

> <Gold.Chemscore.Rot.Weighted>
7.5980

> <Gold.Chemscore.Internal.Correction.Weighted>
   9.000000E+99

> <Gold.Protein.RotatedTorsions>
[ 6907 6896 6895 6894 ] final   -5.70 input  -60.11 | X-H torsion
[ 7974 7965 7964 7962 ] final -111.97 input  175.53 | X-H torsion
[ 8008 7997 7996 7995 ] final   -3.23 input   59.86 | X-H torsion
[ 10167 10162 10161 10158 ] final  131.73 input  -65.29 | X-H torsion
[ 10718 10713 10712 10709 ] final  156.36 input   66.30 | X-H torsion
[ 10763 10752 10751 10750 ] final   92.17 input  -60.55 | X-H torsion
[ 11005 11000 10999 10996 ] final   88.44 input  -57.11 | X-H torsion

> <Gold.Protein.ActiveResidues>
 VAL166  LYS551  ARG553  GLY616  TRP617  ASP618  TYR619  PRO620  LYS621  CYS622 
 ASP623  PHE694  ASN695  SER759  ASP760  ASP761  ALA762  ILE779  LEU786  VAL792 
 PHE793  MET794  SER795  GLU796  ALA797  LYS798  CYS799  TRP800  GLU811  SER814 

> <Gold.Protein.RotatedAtoms>
  151.4774  135.1050  159.9767 H   0  0  0  0  0  0  0  0  0  0  0  0  # atno 6907 bound_to 6896
  152.4793  133.8210  159.7064 H   0  0  0  0  0  0  0  0  0  0  0  0  # atno 6908 bound_to 6896
  150.8852  133.7256  159.2947 H   0  0  0  0  0  0  0  0  0  0  0  0  # atno 6909 bound_to 6896
  145.1496  140.8822  143.3654 H   0  0  0  0  0  0  0  0  0  0  0  0  # atno 7974 bound_to 7965
  154.6272  140.2514  155.7478 H   0  0  0  0  0  0  0  0  0  0  0  0  # atno 8008 bound_to 7997
  156.2459  140.2914  156.0526 H   0  0  0  0  0  0  0  0  0  0  0  0  # atno 8009 bound_to 7997
  155.1803  140.0389  157.2871 H   0  0  0  0  0  0  0  0  0  0  0  0  # atno 8010 bound_to 7997
  139.5371  144.6693  151.4749 H   0  0  0  0  0  0  0  0  0  0  0  0  # atno 10167 bound_to 10162
  157.2061  131.0687  151.1997 H   0  0  0  0  0  0  0  0  0  0  0  0  # atno 10718 bound_to 10713
  153.2163  135.4371  155.0438 H   0  0  0  0  0  0  0  0  0  0  0  0  # atno 10763 bound_to 10752
  154.8227  135.3345  154.6994 H   0  0  0  0  0  0  0  0  0  0  0  0  # atno 10764 bound_to 10752
  153.7428  135.7003  153.5019 H   0  0  0  0  0  0  0  0  0  0  0  0  # atno 10765 bound_to 10752
  139.8896  134.8488  156.3001 H   0  0  0  0  0  0  0  0  0  0  0  0  # atno 11005 bound_to 11000
  145.0445  139.3233  143.5960 LP  0  0  0  0  0  0  0  0  0  0  0  0  # atno 17320 bound_to 7965
  146.3496  139.9830  142.8693 LP  0  0  0  0  0  0  0  0  0  0  0  0  # atno 17321 bound_to 7965
  140.6583  143.8553  150.6859 LP  0  0  0  0  0  0  0  0  0  0  0  0  # atno 17342 bound_to 10162
  140.1939  143.4014  152.1842 LP  0  0  0  0  0  0  0  0  0  0  0  0  # atno 17343 bound_to 10162
  157.3719  130.7185  149.6571 LP  0  0  0  0  0  0  0  0  0  0  0  0  # atno 17370 bound_to 10713
  155.9695  130.4196  150.4384 LP  0  0  0  0  0  0  0  0  0  0  0  0  # atno 17371 bound_to 10713
  140.9919  133.7203  156.0827 LP  0  0  0  0  0  0  0  0  0  0  0  0  # atno 17394 bound_to 11000
  140.7614  134.3935  157.5525 LP  0  0  0  0  0  0  0  0  0  0  0  0  # atno 17395 bound_to 11000

$$$$
