AV-unprocessed.smi:193|AV-procd|sdf|1516|dock7
  -GOLD-   2262019353D 1   1.00000     0.00000
 Structure written by MMmdl.
 61 65  0  0  0  0  0  0  0  0  1 V2000
  146.8389  142.5670  153.9316 C   0  0  0  0  0  0  0  0  0  0  0  0
  147.5908  141.2561  154.2030 C   0  0  2  0  0  0  0  0  0  0  0  0
  146.7195  140.2926  155.0365 C   0  0  0  0  0  0  0  0  0  0  0  0
  147.1010  138.8961  154.8121 N   0  0  0  0  0  0  0  0  0  0  0  0
  146.6154  138.2593  153.7069 C   0  0  0  0  0  0  0  0  0  0  0  0
  146.9974  138.7343  152.4914 N   0  0  0  0  0  0  0  0  0  0  0  0
  146.5603  138.1697  151.3635 C   0  0  0  0  0  0  0  0  0  0  0  0
  145.7412  137.1294  151.2175 N   0  0  0  0  0  0  0  0  0  0  0  0
  145.3479  136.6386  152.4263 C   0  0  0  0  0  0  0  0  0  0  0  0
  145.7333  137.1325  153.7083 C   0  0  0  0  0  0  0  0  0  0  0  0
  145.1401  136.3491  154.6944 N   0  0  0  0  0  0  0  0  0  0  0  0
  144.4468  135.4601  154.0399 C   0  0  0  0  0  0  0  0  0  0  0  0
  144.5038  135.5691  152.6710 N   0  0  0  0  0  0  0  0  0  0  0  0
  143.8325  134.7172  151.7006 C   0  0  0  0  0  0  0  0  0  0  0  0
  144.6830  134.3891  150.4419 C   0  0  0  0  0  0  0  0  0  0  0  0
  144.6584  135.5255  149.5988 O   0  0  0  0  0  0  0  0  0  0  0  0
  146.1554  134.1175  150.8087 C   0  0  0  0  0  0  0  0  0  0  0  0
  146.3299  132.7354  151.4653 C   0  0  0  0  0  0  0  0  0  0  0  0
  145.8138  131.7187  150.6124 O   0  0  0  0  0  0  0  0  0  0  0  0
  144.4223  131.8603  150.3466 C   0  0  0  0  0  0  0  0  0  0  0  0
  144.1627  133.1910  149.6194 C   0  0  0  0  0  0  0  0  0  0  0  0
  148.3320  138.4482  155.4514 C   0  0  0  0  0  0  0  0  0  0  0  0
  149.5736  139.1995  154.9384 C   0  0  0  0  0  0  0  0  0  0  0  0
  149.6259  140.5047  155.5896 N   0  0  0  0  0  0  0  0  0  0  0  0
  151.0092  140.8889  155.8369 C   0  0  2  0  0  0  0  0  0  0  0  0
  151.8046  140.0544  156.8161 C   0  0  0  0  0  0  0  0  0  0  0  0
  151.3820  141.4534  157.1963 C   0  0  2  0  0  0  0  0  0  0  0  0
  150.3712  141.6668  158.3069 C   0  0  0  0  0  0  0  0  0  0  0  0
  148.9827  141.5691  154.8123 C   0  0  0  0  0  0  0  0  0  0  0  0
  146.6105  143.0927  154.8595 H   0  0  0  0  0  0  0  0  0  0  0  0
  145.8972  142.3807  153.4143 H   0  0  0  0  0  0  0  0  0  0  0  0
  147.4293  143.2359  153.3048 H   0  0  0  0  0  0  0  0  0  0  0  0
  147.7536  140.7951  153.2275 H   0  0  0  0  0  0  0  0  0  0  0  0
  146.8149  140.5273  156.0975 H   0  0  0  0  0  0  0  0  0  0  0  0
  145.6646  140.4437  154.8083 H   0  0  0  0  0  0  0  0  0  0  0  0
  146.9164  138.6169  150.4472 H   0  0  0  0  0  0  0  0  0  0  0  0
  143.8662  134.6999  154.5418 H   0  0  0  0  0  0  0  0  0  0  0  0
  143.5400  133.7951  152.2048 H   0  0  0  0  0  0  0  0  0  0  0  0
  142.9010  135.2085  151.4216 H   0  0  0  0  0  0  0  0  0  0  0  0
  145.1419  135.3274  148.8114 H   0  0  0  0  0  0  0  0  0  0  0  0
  146.7702  134.1468  149.9076 H   0  0  0  0  0  0  0  0  0  0  0  0
  146.5391  134.8991  151.4655 H   0  0  0  0  0  0  0  0  0  0  0  0
  147.3878  132.5392  151.6394 H   0  0  0  0  0  0  0  0  0  0  0  0
  145.8409  132.6916  152.4389 H   0  0  0  0  0  0  0  0  0  0  0  0
  144.1010  131.0267  149.7219 H   0  0  0  0  0  0  0  0  0  0  0  0
  143.8525  131.7958  151.2742 H   0  0  0  0  0  0  0  0  0  0  0  0
  143.1048  133.2974  149.3810 H   0  0  0  0  0  0  0  0  0  0  0  0
  144.6794  133.1571  148.6589 H   0  0  0  0  0  0  0  0  0  0  0  0
  148.2346  138.5853  156.5292 H   0  0  0  0  0  0  0  0  0  0  0  0
  148.4531  137.3739  155.3191 H   0  0  0  0  0  0  0  0  0  0  0  0
  150.4453  138.6146  155.2343 H   0  0  0  0  0  0  0  0  0  0  0  0
  149.6106  139.2807  153.8515 H   0  0  0  0  0  0  0  0  0  0  0  0
  151.5872  141.2796  155.0010 H   0  0  0  0  0  0  0  0  0  0  0  0
  151.2984  139.2223  157.3023 H   0  0  0  0  0  0  0  0  0  0  0  0
  152.8578  139.8916  156.5965 H   0  0  0  0  0  0  0  0  0  0  0  0
  152.1688  142.2054  157.1860 H   0  0  0  0  0  0  0  0  0  0  0  0
  149.6223  140.8744  158.3167 H   0  0  0  0  0  0  0  0  0  0  0  0
  149.8658  142.6233  158.1745 H   0  0  0  0  0  0  0  0  0  0  0  0
  150.8761  141.6733  159.2727 H   0  0  0  0  0  0  0  0  0  0  0  0
  149.6440  141.8752  154.0000 H   0  0  0  0  0  0  0  0  0  0  0  0
  148.8981  142.4337  155.4714 H   0  0  0  0  0  0  0  0  0  0  0  0
  1  2  1  0  0  0  0
  1 30  1  0  0  0  0
  1 31  1  0  0  0  0
  1 32  1  0  0  0  0
  2 29  1  0  0  0  0
  2  3  1  0  0  0  0
  2 33  1  0  0  0  0
  3  4  1  0  0  0  0
  3 34  1  0  0  0  0
  3 35  1  0  0  0  0
  4  5  1  0  0  0  0
  4 22  1  0  0  0  0
  5 10  1  0  0  0  0
  5  6  2  0  0  0  0
  6  7  1  0  0  0  0
  7  8  2  0  0  0  0
  7 36  1  0  0  0  0
  8  9  1  0  0  0  0
  9 13  1  0  0  0  0
  9 10  2  0  0  0  0
 10 11  1  0  0  0  0
 11 12  2  0  0  0  0
 12 13  1  0  0  0  0
 12 37  1  0  0  0  0
 13 14  1  0  0  0  0
 14 15  1  0  0  0  0
 14 38  1  0  0  0  0
 14 39  1  0  0  0  0
 15 21  1  0  0  0  0
 15 16  1  0  0  0  0
 15 17  1  0  0  0  0
 16 40  1  0  0  0  0
 17 18  1  0  0  0  0
 17 41  1  0  0  0  0
 17 42  1  0  0  0  0
 18 19  1  0  0  0  0
 18 43  1  0  0  0  0
 18 44  1  0  0  0  0
 19 20  1  0  0  0  0
 20 21  1  0  0  0  0
 20 45  1  0  0  0  0
 20 46  1  0  0  0  0
 21 47  1  0  0  0  0
 21 48  1  0  0  0  0
 22 23  1  0  0  0  0
 22 49  1  0  0  0  0
 22 50  1  0  0  0  0
 23 24  1  0  0  0  0
 23 51  1  0  0  0  0
 23 52  1  0  0  0  0
 24 25  1  0  0  0  0
 24 29  1  0  0  0  0
 25 27  1  0  0  0  0
 25 26  1  0  0  0  0
 25 53  1  0  0  0  0
 26 27  1  0  0  0  0
 26 54  1  0  0  0  0
 26 55  1  0  0  0  0
 27 28  1  0  0  0  0
 27 56  1  0  0  0  0
 28 57  1  0  0  0  0
 28 58  1  0  0  0  0
 28 59  1  0  0  0  0
 29 60  1  0  0  0  0
 29 61  1  0  0  0  0
M  END
> <s_m_source_file>
AV-unprocessed.smi

> <i_m_source_file_index>
193

> <i_lp_mmshare_version>
43012

> <i_f3d_flags>
0

> <s_epik_input>
W0NIM11bQ0BASF0xW0NIMl1bQ0BIXTFOKFtDSDJdMilbQ0gyXVtDSDJdTihbQ0gyXVtDQEhdMltDSDNdKWMobltjSF1uMyljKGMzNCluW2NIXW40W0NIMl1DNShbT0hdKVtDSDJdW0NIMl1PW0NIMl1bQ0gyXTU=

> <s_epik_cmdline>
J2VwaWtfcHl0aG9uJywgJy1waCcsICc3LjAnLCAnLXRuJywgJzgnLCAnLW1hJywgJzIwMCcsICctbWV0YWxfYmluZGluZycsICctaW1hZScsICc8aW5maWxlLm1hZT4nLCAnLW9tYWUnLCAnPG91dGZpbGUubWFlPic=

> <r_lp_tautomer_probability>
1

> <r_epik_Ionization_Penalty>
1.45227

> <r_epik_Ionization_Penalty_Charging>
0

> <r_epik_Ionization_Penalty_Neutral>
1.45227

> <r_epik_State_Penalty>
2.02377

> <r_epik_Charging_Adjusted_Penalty>
2.02377

> <i_epik_Tot_Q>
0

> <i_epik_Tot_abs_Q>
0

> <r_epik_Metal_State_Penalty>
2.01937

> <b_epik_Metal_Only>
0

> <s_lp_Force_Field>
OPLS_2005

> <r_lp_Energy>
54.596

> <b_lp_Chiralities_Consistent>
1

> <s_lp_Variant>
AV-unprocessed.smi:193-21

> <Gold.Version>
5.8.1

> <Gold.Id.Protein>
6NUR|6NUR_protein|mol2

> <Gold.PLP.Fitness>
42.2342

> <Gold.PLP.PLP>
-43.0093

> <Gold.PLP.part.hbond>
-1.5161

> <Gold.PLP.part.metal>
0.0000

> <Gold.PLP.part.buried>
-5.8284

> <Gold.PLP.part.nonpolar>
-37.6516

> <Gold.PLP.part.repulsive>
3.2197

> <Gold.PLP.ligand.clash>
0.0000

> <Gold.PLP.ligand.torsion>
2.5422

> <Gold.PLP.Chemscore.Hbond>
1.0000

> <Gold.PLP.Chemscore.CHOScore>
0.0000

> <Gold.PLP.Chemscore.Metal>
0.0000

> <Gold.Chemscore.Hbonds>
donor molecule, donor type, donor heavy atom, donor atom, acceptor molecule, acceptor atom, score
      L1  H    16    40       P1  7921  1.00

> <Gold.PLP.Chemscore.Internal.Correction>
1.3094

> <Gold.Rescore>
     Score         DG    S(hbond)    S(metal)    S(lipo)     H(rot)  DE(clash)    DE(int)     intcor
     11.43     -15.07       1.00        0.00      95.20       1.91       0.71       2.93       ----

> <Gold.Chemscore.Fitness>
11.4290

> <Gold.Chemscore.DG>
-15.0701

> <Gold.Chemscore.ZeroCoef>
-5.4800

> <Gold.Chemscore.Hbond>
0.9978

> <Gold.Chemscore.Metal>
0.0000

> <Gold.Chemscore.Lipo>
95.2040

> <Gold.Chemscore.Internal_Hbond>
0.0000

> <Gold.Chemscore.DEClash>
0.7121

> <Gold.Chemscore.DEInternal>
2.9290

> <Gold.Chemscore.Rot>
1.9068

> <Gold.Chemscore.Internal.Correction>
   9.000000E+99

> <Gold.Chemscore.Hbonds>
donor molecule, donor type, donor heavy atom, donor atom, acceptor molecule, acceptor atom, score
      L1  H    16    40       P1  7921  0.99

> <Gold.Chemscore.Hbond.Weighted>
-3.3326

> <Gold.Chemscore.Metal.Weighted>
-0.0000

> <Gold.Chemscore.Lipo.Weighted>
-11.1389

> <Gold.Chemscore.Internal_Hbond.Weighted>
0.0000

> <Gold.Chemscore.DEClash.Weighted>
0.7121

> <Gold.Chemscore.DEInternal.Weighted>
2.9290

> <Gold.Chemscore.Rot.Weighted>
4.8814

> <Gold.Chemscore.Internal.Correction.Weighted>
   9.000000E+99

> <Gold.Protein.RotatedTorsions>
[ 6907 6896 6895 6894 ] final   49.97 input  -60.11 | X-H torsion
[ 7974 7965 7964 7962 ] final   86.31 input  175.53 | X-H torsion
[ 8008 7997 7996 7995 ] final  100.35 input   59.86 | X-H torsion
[ 10167 10162 10161 10158 ] final   22.43 input  -65.29 | X-H torsion
[ 10718 10713 10712 10709 ] final  -75.47 input   66.30 | X-H torsion
[ 10763 10752 10751 10750 ] final  -70.40 input  -60.55 | X-H torsion
[ 11005 11000 10999 10996 ] final -163.49 input  -57.11 | X-H torsion

> <Gold.Protein.ActiveResidues>
 VAL166  LYS551  ARG553  GLY616  TRP617  ASP618  TYR619  PRO620  LYS621  CYS622 
 ASP623  PHE694  ASN695  SER759  ASP760  ASP761  ALA762  ILE779  LEU786  VAL792 
 PHE793  MET794  SER795  GLU796  ALA797  LYS798  CYS799  TRP800  GLU811  SER814 

> <Gold.Protein.RotatedAtoms>
  152.2967  134.7659  160.0366 H   0  0  0  0  0  0  0  0  0  0  0  0  # atno 6907 bound_to 6896
  151.8187  133.3386  159.3585 H   0  0  0  0  0  0  0  0  0  0  0  0  # atno 6908 bound_to 6896
  150.7254  134.5524  159.5845 H   0  0  0  0  0  0  0  0  0  0  0  0  # atno 6909 bound_to 6896
  145.5740  139.2317  143.2390 H   0  0  0  0  0  0  0  0  0  0  0  0  # atno 7974 bound_to 7965
  156.1195  140.3214  155.8187 H   0  0  0  0  0  0  0  0  0  0  0  0  # atno 8008 bound_to 7997
  155.4530  140.0534  157.3016 H   0  0  0  0  0  0  0  0  0  0  0  0  # atno 8009 bound_to 7997
  154.4817  140.2056  155.9762 H   0  0  0  0  0  0  0  0  0  0  0  0  # atno 8010 bound_to 7997
  140.5349  143.9778  150.6486 H   0  0  0  0  0  0  0  0  0  0  0  0  # atno 10167 bound_to 10162
  156.0207  130.4441  150.3047 H   0  0  0  0  0  0  0  0  0  0  0  0  # atno 10718 bound_to 10713
  154.4171  135.5995  153.5987 H   0  0  0  0  0  0  0  0  0  0  0  0  # atno 10763 bound_to 10752
  152.9792  135.5943  154.4000 H   0  0  0  0  0  0  0  0  0  0  0  0  # atno 10764 bound_to 10752
  154.3820  135.2841  155.2184 H   0  0  0  0  0  0  0  0  0  0  0  0  # atno 10765 bound_to 10752
  140.5975  134.4982  157.5201 H   0  0  0  0  0  0  0  0  0  0  0  0  # atno 11005 bound_to 11000
  146.1764  140.6566  142.9209 LP  0  0  0  0  0  0  0  0  0  0  0  0  # atno 17320 bound_to 7965
  144.7425  140.4979  143.6859 LP  0  0  0  0  0  0  0  0  0  0  0  0  # atno 17321 bound_to 7965
  140.3163  143.3166  152.0829 LP  0  0  0  0  0  0  0  0  0  0  0  0  # atno 17342 bound_to 10162
  139.4967  144.6603  151.6479 LP  0  0  0  0  0  0  0  0  0  0  0  0  # atno 17343 bound_to 10162
  157.1150  131.0231  151.3033 LP  0  0  0  0  0  0  0  0  0  0  0  0  # atno 17370 bound_to 10713
  157.4674  130.7689  149.7292 LP  0  0  0  0  0  0  0  0  0  0  0  0  # atno 17371 bound_to 10713
  139.9247  134.8079  156.1104 LP  0  0  0  0  0  0  0  0  0  0  0  0  # atno 17394 bound_to 11000
  141.0894  133.6720  156.2508 LP  0  0  0  0  0  0  0  0  0  0  0  0  # atno 17395 bound_to 11000

$$$$
