AV-unprocessed.smi:1455|AV-procd|sdf|5915|dock1
  -GOLD-   22720 6 03D 1   1.00000     0.00000
 Structure written by MMmdl.
 32 33  0  0  0  0  0  0  0  0  1 V2000
  150.7985  141.8100  158.9546 O   0  0  0  0  0  0  0  0  0  0  0  0
  150.3637  142.2561  157.8916 C   0  0  0  0  0  0  0  0  0  0  0  0
  149.5237  141.3807  156.9500 C   0  0  0  0  0  0  0  0  0  0  0  0
  150.1121  140.0558  156.7034 N   0  0  0  0  0  0  0  0  0  0  0  0
  150.3236  139.1777  157.7569 C   0  0  0  0  0  0  0  0  0  0  0  0
  150.8659  137.9464  157.6042 C   0  0  0  0  0  0  0  0  0  0  0  0
  151.2655  137.4740  156.2830 C   0  0  0  0  0  0  0  0  0  0  0  0
  151.7622  136.3760  156.0425 O   0  0  0  0  0  0  0  0  0  0  0  0
  151.0406  138.3874  155.2496 N   0  0  0  0  0  0  0  0  0  0  0  0
  150.4833  139.6582  155.4005 C   0  0  0  0  0  0  0  0  0  0  0  0
  150.3316  140.3868  154.4208 O   0  0  0  0  0  0  0  0  0  0  0  0
  150.5659  143.5201  157.4898 N   0  0  0  0  0  0  0  0  0  0  0  0
  151.3194  144.5287  158.2305 C   0  0  0  0  0  0  0  0  0  0  0  0
  152.7586  144.0589  158.5234 C   0  0  0  0  0  0  0  0  0  0  0  0
  152.8020  143.7447  160.0187 C   0  0  0  0  0  0  0  0  0  0  0  0
  151.7996  144.7172  160.6314 C   0  0  0  0  0  0  0  0  0  0  0  0
  150.6705  144.7982  159.6022 C   0  0  0  0  0  0  0  0  0  0  0  0
  151.3059  138.1061  154.3170 H   0  0  0  0  0  0  0  0  0  0  0  0
  148.5287  141.2737  157.3843 H   0  0  0  0  0  0  0  0  0  0  0  0
  149.3693  141.9070  156.0060 H   0  0  0  0  0  0  0  0  0  0  0  0
  150.0463  139.4869  158.7547 H   0  0  0  0  0  0  0  0  0  0  0  0
  151.0053  137.3076  158.4644 H   0  0  0  0  0  0  0  0  0  0  0  0
  150.1694  143.8054  156.6061 H   0  0  0  0  0  0  0  0  0  0  0  0
  151.3492  145.4555  157.6543 H   0  0  0  0  0  0  0  0  0  0  0  0
  153.0728  143.2073  157.9183 H   0  0  0  0  0  0  0  0  0  0  0  0
  153.4509  144.8739  158.3086 H   0  0  0  0  0  0  0  0  0  0  0  0
  152.4716  142.7192  160.1891 H   0  0  0  0  0  0  0  0  0  0  0  0
  153.8022  143.8484  160.4401 H   0  0  0  0  0  0  0  0  0  0  0  0
  151.4502  144.3978  161.6137 H   0  0  0  0  0  0  0  0  0  0  0  0
  152.2644  145.6975  160.7453 H   0  0  0  0  0  0  0  0  0  0  0  0
  150.1619  145.7623  159.6338 H   0  0  0  0  0  0  0  0  0  0  0  0
  149.9255  144.0350  159.8332 H   0  0  0  0  0  0  0  0  0  0  0  0
  1  2  2  0  0  0  0
  2  3  1  0  0  0  0
  2 12  1  0  0  0  0
  3  4  1  0  0  0  0
  3 19  1  0  0  0  0
  3 20  1  0  0  0  0
  4 10  1  0  0  0  0
  4  5  1  0  0  0  0
  5  6  2  0  0  0  0
  5 21  1  0  0  0  0
  6  7  1  0  0  0  0
  6 22  1  0  0  0  0
  7  8  2  0  0  0  0
  7  9  1  0  0  0  0
  9 18  1  0  0  0  0
  9 10  1  0  0  0  0
 10 11  2  0  0  0  0
 12 13  1  0  0  0  0
 12 23  1  0  0  0  0
 13 17  1  0  0  0  0
 13 14  1  0  0  0  0
 13 24  1  0  0  0  0
 14 15  1  0  0  0  0
 14 25  1  0  0  0  0
 14 26  1  0  0  0  0
 15 16  1  0  0  0  0
 15 27  1  0  0  0  0
 15 28  1  0  0  0  0
 16 17  1  0  0  0  0
 16 29  1  0  0  0  0
 16 30  1  0  0  0  0
 17 31  1  0  0  0  0
 17 32  1  0  0  0  0
M  END
> <s_m_source_file>
AV-unprocessed.smi

> <i_m_source_file_index>
1455

> <i_lp_mmshare_version>
43012

> <i_f3d_flags>
0

> <s_epik_input>
W0NIMl0xW0NIMl1bQ0gyXVtDSDJdW0NIXTFbTkhdQyg9TylbQ0gyXW4yW2NIXVtjSF1jKD1PKVtuSF1jMj1P

> <s_epik_cmdline>
J2VwaWtfcHl0aG9uJywgJy1waCcsICc3LjAnLCAnLXRuJywgJzgnLCAnLW1hJywgJzIwMCcsICctbWV0YWxfYmluZGluZycsICctaW1hZScsICc8aW5maWxlLm1hZT4nLCAnLW9tYWUnLCAnPG91dGZpbGUubWFlPic=

> <r_lp_tautomer_probability>
0.999537

> <r_epik_Ionization_Penalty>
0.00322093

> <r_epik_Ionization_Penalty_Charging>
0.00322091

> <r_epik_Ionization_Penalty_Neutral>
1.93017e-08

> <r_epik_State_Penalty>
0.00227242

> <r_epik_Charging_Adjusted_Penalty>
0.00549333

> <i_epik_Tot_Q>
0

> <i_epik_Tot_abs_Q>
0

> <r_epik_Metal_State_Penalty>
0.364362

> <b_epik_Metal_Only>
0

> <s_lp_Force_Field>
OPLS_2005

> <r_lp_Energy>
17.501

> <b_lp_Chiralities_Consistent>
1

> <s_lp_Variant>
AV-unprocessed.smi:1455-1

> <Gold.Version>
5.8.1

> <Gold.Id.Protein>
6NUR|6NUR_protein|mol2

> <Gold.PLP.Fitness>
41.1755

> <Gold.PLP.PLP>
-32.5389

> <Gold.PLP.part.hbond>
-2.8997

> <Gold.PLP.part.metal>
0.0000

> <Gold.PLP.part.buried>
-6.0430

> <Gold.PLP.part.nonpolar>
-23.9155

> <Gold.PLP.part.repulsive>
0.2571

> <Gold.PLP.ligand.clash>
0.0000

> <Gold.PLP.ligand.torsion>
0.1476

> <Gold.PLP.Chemscore.Hbond>
2.9760

> <Gold.PLP.Chemscore.CHOScore>
0.0000

> <Gold.PLP.Chemscore.Metal>
0.0000

> <Gold.Chemscore.Hbonds>
donor molecule, donor type, donor heavy atom, donor atom, acceptor molecule, acceptor atom, score
      L1  H    12    23       P1  8028  0.99
      P1  H  7989  7998       L1    11  1.00
      P1  H 10752 10764       L1     8  1.00

> <Gold.PLP.Chemscore.Internal.Correction>
0.0039

> <Gold.Rescore>
     Score         DG    S(hbond)    S(metal)    S(lipo)     H(rot)  DE(clash)    DE(int)     intcor
     16.68     -19.51       2.92        0.00      74.11       1.72       0.06       2.76       ----

> <Gold.Chemscore.Fitness>
16.6827

> <Gold.Chemscore.DG>
-19.5072

> <Gold.Chemscore.ZeroCoef>
-5.4800

> <Gold.Chemscore.Hbond>
2.9220

> <Gold.Chemscore.Metal>
0.0000

> <Gold.Chemscore.Lipo>
74.1128

> <Gold.Chemscore.Internal_Hbond>
0.0000

> <Gold.Chemscore.DEClash>
0.0647

> <Gold.Chemscore.DEInternal>
2.7599

> <Gold.Chemscore.Rot>
1.7201

> <Gold.Chemscore.Internal.Correction>
   9.000000E+99

> <Gold.Chemscore.Hbonds>
donor molecule, donor type, donor heavy atom, donor atom, acceptor molecule, acceptor atom, score
      L1  H    12    23       P1  8028  0.93
      P1  H  7989  7998       L1    11  0.93
      P1  H 10752 10764       L1     8  0.99

> <Gold.Chemscore.Hbond.Weighted>
-9.7594

> <Gold.Chemscore.Metal.Weighted>
-0.0000

> <Gold.Chemscore.Lipo.Weighted>
-8.6712

> <Gold.Chemscore.Internal_Hbond.Weighted>
0.0000

> <Gold.Chemscore.DEClash.Weighted>
0.0647

> <Gold.Chemscore.DEInternal.Weighted>
2.7599

> <Gold.Chemscore.Rot.Weighted>
4.4033

> <Gold.Chemscore.Internal.Correction.Weighted>
   9.000000E+99

> <Gold.Protein.RotatedTorsions>
[ 6907 6896 6895 6894 ] final  -54.65 input  -60.11 | X-H torsion
[ 7974 7965 7964 7962 ] final -104.22 input  175.53 | X-H torsion
[ 8008 7997 7996 7995 ] final -175.27 input   59.86 | X-H torsion
[ 10167 10162 10161 10158 ] final   94.07 input  -65.29 | X-H torsion
[ 10718 10713 10712 10709 ] final -179.19 input   66.30 | X-H torsion
[ 10763 10752 10751 10750 ] final  -46.01 input  -60.55 | X-H torsion
[ 11005 11000 10999 10996 ] final -156.12 input  -57.11 | X-H torsion

> <Gold.Protein.ActiveResidues>
 VAL166  LYS551  ARG553  GLY616  TRP617  ASP618  TYR619  PRO620  LYS621  CYS622 
 ASP623  PHE694  ASN695  SER759  ASP760  ASP761  ALA762  ILE779  LEU786  VAL792 
 PHE793  MET794  SER795  GLU796  ALA797  LYS798  CYS799  TRP800  GLU811  SER814 

> <Gold.Protein.RotatedAtoms>
  150.8319  134.7576  159.6860 H   0  0  0  0  0  0  0  0  0  0  0  0  # atno 6907 bound_to 6896
  152.4422  134.5563  159.9891 H   0  0  0  0  0  0  0  0  0  0  0  0  # atno 6908 bound_to 6896
  151.5722  133.3351  159.3028 H   0  0  0  0  0  0  0  0  0  0  0  0  # atno 6909 bound_to 6896
  145.2459  140.9221  143.3123 H   0  0  0  0  0  0  0  0  0  0  0  0  # atno 7974 bound_to 7965
  155.9805  140.1181  157.0731 H   0  0  0  0  0  0  0  0  0  0  0  0  # atno 8008 bound_to 7997
  154.4181  140.1145  156.5497 H   0  0  0  0  0  0  0  0  0  0  0  0  # atno 8009 bound_to 7997
  155.6477  140.3473  155.4739 H   0  0  0  0  0  0  0  0  0  0  0  0  # atno 8010 bound_to 7997
  139.8119  144.6770  150.9630 H   0  0  0  0  0  0  0  0  0  0  0  0  # atno 10167 bound_to 10162
  156.8554  130.9733  151.3088 H   0  0  0  0  0  0  0  0  0  0  0  0  # atno 10718 bound_to 10713
  154.0380  135.6648  153.4787 H   0  0  0  0  0  0  0  0  0  0  0  0  # atno 10763 bound_to 10752
  153.0513  135.5083  154.7870 H   0  0  0  0  0  0  0  0  0  0  0  0  # atno 10764 bound_to 10752
  154.6836  135.3049  154.9544 H   0  0  0  0  0  0  0  0  0  0  0  0  # atno 10765 bound_to 10752
  140.6791  134.4164  157.5227 H   0  0  0  0  0  0  0  0  0  0  0  0  # atno 11005 bound_to 11000
  144.9547  139.4045  143.6385 LP  0  0  0  0  0  0  0  0  0  0  0  0  # atno 17320 bound_to 7965
  146.3316  139.8571  142.8863 LP  0  0  0  0  0  0  0  0  0  0  0  0  # atno 17321 bound_to 7965
  140.7817  143.4177  151.0891 LP  0  0  0  0  0  0  0  0  0  0  0  0  # atno 17342 bound_to 10162
  139.7843  143.8310  152.3142 LP  0  0  0  0  0  0  0  0  0  0  0  0  # atno 17343 bound_to 10162
  157.6280  130.8706  149.9223 LP  0  0  0  0  0  0  0  0  0  0  0  0  # atno 17370 bound_to 10713
  156.0805  130.3673  150.0590 LP  0  0  0  0  0  0  0  0  0  0  0  0  # atno 17371 bound_to 10713
  139.8957  134.8676  156.2118 LP  0  0  0  0  0  0  0  0  0  0  0  0  # atno 17394 bound_to 11000
  141.0332  133.6977  156.1466 LP  0  0  0  0  0  0  0  0  0  0  0  0  # atno 17395 bound_to 11000

$$$$
