AV-unprocessed.smi:438|AV-procd|sdf|2564|dock10
  -GOLD-   2262022533D 1   1.00000     0.00000
 Structure written by MMmdl.
 48 49  0  0  0  0  0  0  0  0  1 V2000
  147.4776  134.9819  160.8237 C   0  0  0  0  0  0  0  0  0  0  0  0
  147.7760  136.0906  159.8297 C   0  0  0  0  0  0  0  0  0  0  0  0
  149.1185  136.2212  159.4552 N   0  0  0  0  0  0  0  0  0  0  0  0
  149.4726  137.1349  158.6087 C   0  0  0  0  0  0  0  0  0  0  0  0
  151.1198  137.5101  157.9341 S   0  0  0  0  0  0  0  0  0  0  0  0
  152.0509  137.9902  159.4213 C   0  0  0  0  0  0  0  0  0  0  0  0
  153.0203  139.1404  159.1512 C   0  0  0  0  0  0  0  0  0  0  0  0
  153.9565  138.9847  158.3680 O   0  0  0  0  0  0  0  0  0  0  0  0
  152.7970  140.2773  159.8282 N   0  0  0  0  0  0  0  0  0  0  0  0
  153.6408  141.4723  159.8285 C   0  0  1  0  0  0  0  0  0  0  0  0
  152.9057  142.6303  159.1249 C   0  0  0  0  0  0  0  0  0  0  0  0
  151.7096  143.1419  159.9454 C   0  0  0  0  0  0  0  0  0  0  0  0
  152.1390  143.5461  161.3632 C   0  0  0  0  0  0  0  0  0  0  0  0
  152.8581  142.3942  162.0825 C   0  0  0  0  0  0  0  0  0  0  0  0
  154.0601  141.8730  161.2674 C   0  0  1  0  0  0  0  0  0  0  0  0
  154.7991  140.7515  162.0174 C   0  0  0  0  0  0  0  0  0  0  0  0
  148.5226  137.9993  158.0652 N   0  0  0  0  0  0  0  0  0  0  0  0
  147.2022  137.9454  158.3474 C   0  0  0  0  0  0  0  0  0  0  0  0
  146.4199  138.7254  157.8070 O   0  0  0  0  0  0  0  0  0  0  0  0
  146.8138  136.9098  159.3203 C   0  0  0  0  0  0  0  0  0  0  0  0
  145.3351  136.7830  159.6853 C   0  0  0  0  0  0  0  0  0  0  0  0
  144.9532  137.5558  160.9601 C   0  0  0  0  0  0  0  0  0  0  0  0
  146.0283  137.5992  161.8738 O   0  0  0  0  0  0  0  0  0  0  0  0
  146.9353  135.3671  161.6865 H   0  0  0  0  0  0  0  0  0  0  0  0
  148.3964  134.5218  161.1893 H   0  0  0  0  0  0  0  0  0  0  0  0
  146.8766  134.2024  160.3552 H   0  0  0  0  0  0  0  0  0  0  0  0
  152.5792  137.1324  159.8385 H   0  0  0  0  0  0  0  0  0  0  0  0
  151.3341  138.3094  160.1785 H   0  0  0  0  0  0  0  0  0  0  0  0
  151.9962  140.2992  160.4434 H   0  0  0  0  0  0  0  0  0  0  0  0
  154.5475  141.2704  159.2557 H   0  0  0  0  0  0  0  0  0  0  0  0
  153.6046  143.4521  158.9639 H   0  0  0  0  0  0  0  0  0  0  0  0
  152.5724  142.3188  158.1340 H   0  0  0  0  0  0  0  0  0  0  0  0
  151.2499  143.9921  159.4412 H   0  0  0  0  0  0  0  0  0  0  0  0
  150.9443  142.3679  160.0001 H   0  0  0  0  0  0  0  0  0  0  0  0
  152.8005  144.4117  161.3106 H   0  0  0  0  0  0  0  0  0  0  0  0
  151.2680  143.8575  161.9407 H   0  0  0  0  0  0  0  0  0  0  0  0
  153.1932  142.7335  163.0631 H   0  0  0  0  0  0  0  0  0  0  0  0
  152.1542  141.5834  162.2681 H   0  0  0  0  0  0  0  0  0  0  0  0
  154.7652  142.7001  161.1718 H   0  0  0  0  0  0  0  0  0  0  0  0
  154.1432  139.9067  162.2293 H   0  0  0  0  0  0  0  0  0  0  0  0
  155.1875  141.1099  162.9710 H   0  0  0  0  0  0  0  0  0  0  0  0
  155.6438  140.3813  161.4360 H   0  0  0  0  0  0  0  0  0  0  0  0
  148.8303  138.6996  157.4063 H   0  0  0  0  0  0  0  0  0  0  0  0
  145.0941  135.7297  159.8273 H   0  0  0  0  0  0  0  0  0  0  0  0
  144.7083  137.1009  158.8513 H   0  0  0  0  0  0  0  0  0  0  0  0
  144.6775  138.5794  160.7055 H   0  0  0  0  0  0  0  0  0  0  0  0
  144.0893  137.1044  161.4479 H   0  0  0  0  0  0  0  0  0  0  0  0
  146.0763  136.7686  162.3217 H   0  0  0  0  0  0  0  0  0  0  0  0
  1 24  1  0  0  0  0
  1 25  1  0  0  0  0
  1 26  1  0  0  0  0
  1  2  1  0  0  0  0
  2 20  2  0  0  0  0
  2  3  1  0  0  0  0
  3  4  2  0  0  0  0
  4  5  1  0  0  0  0
  4 17  1  0  0  0  0
  5  6  1  0  0  0  0
  6  7  1  0  0  0  0
  6 27  1  0  0  0  0
  6 28  1  0  0  0  0
  7  8  2  0  0  0  0
  7  9  1  0  0  0  0
  9 10  1  0  0  0  0
  9 29  1  0  0  0  0
 10 15  1  0  0  0  0
 10 11  1  0  0  0  0
 10 30  1  0  0  0  0
 11 12  1  0  0  0  0
 11 31  1  0  0  0  0
 11 32  1  0  0  0  0
 12 13  1  0  0  0  0
 12 33  1  0  0  0  0
 12 34  1  0  0  0  0
 13 14  1  0  0  0  0
 13 35  1  0  0  0  0
 13 36  1  0  0  0  0
 14 15  1  0  0  0  0
 14 37  1  0  0  0  0
 14 38  1  0  0  0  0
 15 16  1  0  0  0  0
 15 39  1  0  0  0  0
 16 40  1  0  0  0  0
 16 41  1  0  0  0  0
 16 42  1  0  0  0  0
 17 43  1  0  0  0  0
 17 18  1  0  0  0  0
 18 19  2  0  0  0  0
 18 20  1  0  0  0  0
 20 21  1  0  0  0  0
 21 22  1  0  0  0  0
 21 44  1  0  0  0  0
 21 45  1  0  0  0  0
 22 23  1  0  0  0  0
 22 46  1  0  0  0  0
 22 47  1  0  0  0  0
 23 48  1  0  0  0  0
M  END
> <s_m_source_file>
AV-unprocessed.smi

> <i_m_source_file_index>
438

> <i_lp_mmshare_version>
43012

> <i_f3d_flags>
0

> <s_epik_input>
W09IXVtDSDJdW0NIMl1jMWMoW09IXSluYyhuYzFbQ0gzXSlTW0NIMl1DKD1PKVtOSF1bQ0BASF0yW0NIMl1bQ0gyXVtDSDJdW0NIMl1bQ0BIXTJbQ0gzXQ==

> <s_epik_cmdline>
J2VwaWtfcHl0aG9uJywgJy1waCcsICc3LjAnLCAnLXRuJywgJzgnLCAnLW1hJywgJzIwMCcsICctbWV0YWxfYmluZGluZycsICctaW1hZScsICc8aW5maWxlLm1hZT4nLCAnLW9tYWUnLCAnPG91dGZpbGUubWFlPic=

> <r_lp_tautomer_probability>
0.660323

> <r_epik_Ionization_Penalty>
0.00860626

> <r_epik_Ionization_Penalty_Charging>
0.00860522

> <r_epik_Ionization_Penalty_Neutral>
1.04215e-06

> <r_epik_State_Penalty>
0.156825

> <r_epik_Charging_Adjusted_Penalty>
0.16543

> <i_epik_Tot_Q>
0

> <i_epik_Tot_abs_Q>
0

> <r_epik_Metal_State_Penalty>
0.752038

> <b_epik_Metal_Only>
0

> <s_lp_Force_Field>
OPLS_2005

> <r_lp_Energy>
10.8925

> <b_lp_Chiralities_Consistent>
1

> <s_lp_Variant>
AV-unprocessed.smi:438-2

> <Gold.Version>
5.8.1

> <Gold.Id.Protein>
6NUR|6NUR_protein|mol2

> <Gold.PLP.Fitness>
43.2626

> <Gold.PLP.PLP>
-36.0716

> <Gold.PLP.part.hbond>
-3.0000

> <Gold.PLP.part.metal>
0.0000

> <Gold.PLP.part.buried>
-2.7961

> <Gold.PLP.part.nonpolar>
-29.5351

> <Gold.PLP.part.repulsive>
0.2139

> <Gold.PLP.ligand.clash>
0.0000

> <Gold.PLP.ligand.torsion>
0.8466

> <Gold.PLP.Chemscore.Hbond>
2.9440

> <Gold.PLP.Chemscore.CHOScore>
0.0000

> <Gold.PLP.Chemscore.Metal>
0.0000

> <Gold.Chemscore.Hbonds>
donor molecule, donor type, donor heavy atom, donor atom, acceptor molecule, acceptor atom, score
      P1  H  6896  6908       L1     3  0.59
      P1  H  6934  6947       L1    23  0.77
      P1  H  7997  8009       L1     8  1.00

> <Gold.PLP.Chemscore.Internal.Correction>
0.0522

> <Gold.Rescore>
     Score         DG    S(hbond)    S(metal)    S(lipo)     H(rot)  DE(clash)    DE(int)     intcor
     18.30     -19.19       2.91        0.00      96.72       2.86       0.01       0.87       ----

> <Gold.Chemscore.Fitness>
18.3044

> <Gold.Chemscore.DG>
-19.1869

> <Gold.Chemscore.ZeroCoef>
-5.4800

> <Gold.Chemscore.Hbond>
2.9114

> <Gold.Chemscore.Metal>
0.0000

> <Gold.Chemscore.Lipo>
96.7174

> <Gold.Chemscore.Internal_Hbond>
0.0000

> <Gold.Chemscore.DEClash>
0.0137

> <Gold.Chemscore.DEInternal>
0.8688

> <Gold.Chemscore.Rot>
2.8645

> <Gold.Chemscore.Internal.Correction>
   9.000000E+99

> <Gold.Chemscore.Hbonds>
donor molecule, donor type, donor heavy atom, donor atom, acceptor molecule, acceptor atom, score
      P1  H  6896  6908       L1     3  0.38
      P1  H  6934  6947       L1    23  0.16
      P1  H  7997  8009       L1     8  1.00

> <Gold.Chemscore.Hbond.Weighted>
-9.7241

> <Gold.Chemscore.Metal.Weighted>
-0.0000

> <Gold.Chemscore.Lipo.Weighted>
-11.3159

> <Gold.Chemscore.Internal_Hbond.Weighted>
0.0000

> <Gold.Chemscore.DEClash.Weighted>
0.0137

> <Gold.Chemscore.DEInternal.Weighted>
0.8688

> <Gold.Chemscore.Rot.Weighted>
7.3331

> <Gold.Chemscore.Internal.Correction.Weighted>
   9.000000E+99

> <Gold.Protein.RotatedTorsions>
[ 6907 6896 6895 6894 ] final -172.16 input  -60.11 | X-H torsion
[ 7974 7965 7964 7962 ] final -101.27 input  175.53 | X-H torsion
[ 8008 7997 7996 7995 ] final  151.47 input   59.86 | X-H torsion
[ 10167 10162 10161 10158 ] final  -15.97 input  -65.29 | X-H torsion
[ 10718 10713 10712 10709 ] final  169.83 input   66.30 | X-H torsion
[ 10763 10752 10751 10750 ] final  -29.20 input  -60.55 | X-H torsion
[ 11005 11000 10999 10996 ] final -112.02 input  -57.11 | X-H torsion

> <Gold.Protein.ActiveResidues>
 VAL166  LYS551  ARG553  GLY616  TRP617  ASP618  TYR619  PRO620  LYS621  CYS622 
 ASP623  PHE694  ASN695  SER759  ASP760  ASP761  ALA762  ILE779  LEU786  VAL792 
 PHE793  MET794  SER795  GLU796  ALA797  LYS798  CYS799  TRP800  GLU811  SER814 

> <Gold.Protein.RotatedAtoms>
  151.5355  133.3441  159.2925 H   0  0  0  0  0  0  0  0  0  0  0  0  # atno 6907 bound_to 6896
  150.8567  134.7911  159.7062 H   0  0  0  0  0  0  0  0  0  0  0  0  # atno 6908 bound_to 6896
  152.4599  134.5217  159.9836 H   0  0  0  0  0  0  0  0  0  0  0  0  # atno 6909 bound_to 6896
  145.2837  140.9334  143.2917 H   0  0  0  0  0  0  0  0  0  0  0  0  # atno 7974 bound_to 7965
  156.2672  140.2047  156.6180 H   0  0  0  0  0  0  0  0  0  0  0  0  # atno 8008 bound_to 7997
  154.6779  140.0543  157.0259 H   0  0  0  0  0  0  0  0  0  0  0  0  # atno 8009 bound_to 7997
  155.1042  140.3209  155.4541 H   0  0  0  0  0  0  0  0  0  0  0  0  # atno 8010 bound_to 7997
  140.7227  143.5164  150.9687 H   0  0  0  0  0  0  0  0  0  0  0  0  # atno 10167 bound_to 10162
  157.0170  131.0221  151.2786 H   0  0  0  0  0  0  0  0  0  0  0  0  # atno 10718 bound_to 10713
  153.7608  135.6919  153.4926 H   0  0  0  0  0  0  0  0  0  0  0  0  # atno 10763 bound_to 10752
  153.1940  135.4461  155.0183 H   0  0  0  0  0  0  0  0  0  0  0  0  # atno 10764 bound_to 10752
  154.8154  135.3396  154.7123 H   0  0  0  0  0  0  0  0  0  0  0  0  # atno 10765 bound_to 10752
  141.0700  133.9396  157.2504 H   0  0  0  0  0  0  0  0  0  0  0  0  # atno 11005 bound_to 11000
  144.9231  139.4388  143.6531 LP  0  0  0  0  0  0  0  0  0  0  0  0  # atno 17320 bound_to 7965
  146.3208  139.8102  142.8947 LP  0  0  0  0  0  0  0  0  0  0  0  0  # atno 17321 bound_to 7965
  139.8879  143.6989  152.3149 LP  0  0  0  0  0  0  0  0  0  0  0  0  # atno 17342 bound_to 10162
  139.7295  144.7585  151.0825 LP  0  0  0  0  0  0  0  0  0  0  0  0  # atno 17343 bound_to 10162
  157.5278  130.8039  149.7882 LP  0  0  0  0  0  0  0  0  0  0  0  0  # atno 17370 bound_to 10713
  156.0116  130.3831  150.2247 LP  0  0  0  0  0  0  0  0  0  0  0  0  # atno 17371 bound_to 10713
  139.9513  135.0174  156.9003 LP  0  0  0  0  0  0  0  0  0  0  0  0  # atno 17394 bound_to 11000
  140.5694  134.0458  155.7425 LP  0  0  0  0  0  0  0  0  0  0  0  0  # atno 17395 bound_to 11000

$$$$
