AV-unprocessed.smi:1047|AV-procd|sdf|4595|dock1
  -GOLD-   22720 3 83D 1   1.00000     0.00000
 Structure written by MMmdl.
 55 57  0  0  0  0  0  0  0  0  1 V2000
  148.3722  133.2252  152.7937 C   0  0  0  0  0  0  0  0  0  0  0  0
  149.0309  132.3456  153.8661 C   0  0  0  0  0  0  0  0  0  0  0  0
  150.1191  132.9843  154.6045 N   0  0  0  0  0  0  0  0  0  0  0  0
  150.5638  132.1439  155.7106 C   0  0  0  0  0  0  0  0  0  0  0  0
  151.7040  132.7985  156.5079 C   0  0  0  0  0  0  0  0  0  0  0  0
  151.2841  134.0775  156.9707 O   0  0  0  0  0  0  0  0  0  0  0  0
  150.9035  134.9537  155.9122 C   0  0  2  0  0  0  0  0  0  0  0  0
  150.4879  136.2980  156.5259 C   0  0  0  0  0  0  0  0  0  0  0  0
  149.5890  137.0219  155.6335 N   0  0  0  0  0  0  0  0  0  0  0  0
  149.5815  138.4649  155.8518 C   0  0  0  0  0  0  0  0  0  0  0  0
  150.8232  139.1278  155.2316 C   0  0  1  0  0  0  0  0  0  0  0  0
  150.5977  139.3008  153.8455 O   0  0  0  0  0  0  0  0  0  0  0  0
  151.1155  140.5020  155.8641 C   0  0  0  0  0  0  0  0  0  0  0  0
  151.6532  140.3883  157.2082 N   0  0  0  0  0  0  0  0  0  0  0  0
  152.1266  139.2781  157.8064 C   0  0  0  0  0  0  0  0  0  0  0  0
  152.5687  139.4005  159.0548 N   0  0  0  0  0  0  0  0  0  0  0  0
  152.3571  140.7476  159.2946 C   0  0  0  0  0  0  0  0  0  0  0  0
  152.6125  141.5257  160.4450 C   0  0  0  0  0  0  0  0  0  0  0  0
  152.3137  142.9068  160.4671 C   0  0  0  0  0  0  0  0  0  0  0  0
  152.6046  143.7055  161.7255 C   0  0  0  0  0  0  0  0  0  0  0  0
  151.7506  143.5304  159.3245 C   0  0  0  0  0  0  0  0  0  0  0  0
  151.4255  145.0136  159.3231 C   0  0  0  0  0  0  0  0  0  0  0  0
  151.4870  142.7672  158.1677 C   0  0  0  0  0  0  0  0  0  0  0  0
  151.7883  141.3940  158.1584 C   0  0  0  0  0  0  0  0  0  0  0  0
  149.7499  134.2987  155.1263 C   0  0  0  0  0  0  0  0  0  0  0  0
  147.6537  132.6465  152.2131 H   0  0  0  0  0  0  0  0  0  0  0  0
  149.1144  133.6221  152.1004 H   0  0  0  0  0  0  0  0  0  0  0  0
  147.8322  134.0652  153.2301 H   0  0  0  0  0  0  0  0  0  0  0  0
  148.2701  131.9869  154.5611 H   0  0  0  0  0  0  0  0  0  0  0  0
  149.4208  131.4587  153.3647 H   0  0  0  0  0  0  0  0  0  0  0  0
  149.7267  131.9421  156.3810 H   0  0  0  0  0  0  0  0  0  0  0  0
  150.8991  131.1782  155.3308 H   0  0  0  0  0  0  0  0  0  0  0  0
  151.9723  132.1793  157.3639 H   0  0  0  0  0  0  0  0  0  0  0  0
  152.5993  132.9012  155.8926 H   0  0  0  0  0  0  0  0  0  0  0  0
  151.7508  135.1064  155.2402 H   0  0  0  0  0  0  0  0  0  0  0  0
  149.9838  136.1218  157.4770 H   0  0  0  0  0  0  0  0  0  0  0  0
  151.3741  136.8944  156.7470 H   0  0  0  0  0  0  0  0  0  0  0  0
  149.8310  136.8203  154.6684 H   0  0  0  0  0  0  0  0  0  0  0  0
  148.6681  138.9139  155.4593 H   0  0  0  0  0  0  0  0  0  0  0  0
  149.5808  138.6551  156.9260 H   0  0  0  0  0  0  0  0  0  0  0  0
  151.6945  138.4852  155.3681 H   0  0  0  0  0  0  0  0  0  0  0  0
  149.8073  138.8403  153.6096 H   0  0  0  0  0  0  0  0  0  0  0  0
  151.8194  141.0664  155.2504 H   0  0  0  0  0  0  0  0  0  0  0  0
  150.2017  141.0953  155.9155 H   0  0  0  0  0  0  0  0  0  0  0  0
  152.1436  138.3252  157.2979 H   0  0  0  0  0  0  0  0  0  0  0  0
  153.0415  141.0499  161.3146 H   0  0  0  0  0  0  0  0  0  0  0  0
  153.3324  144.4908  161.5192 H   0  0  0  0  0  0  0  0  0  0  0  0
  153.0098  143.0717  162.5150 H   0  0  0  0  0  0  0  0  0  0  0  0
  151.6932  144.1685  162.1041 H   0  0  0  0  0  0  0  0  0  0  0  0
  150.9966  145.3257  158.3706 H   0  0  0  0  0  0  0  0  0  0  0  0
  152.3274  145.6023  159.4931 H   0  0  0  0  0  0  0  0  0  0  0  0
  150.7049  145.2486  160.1068 H   0  0  0  0  0  0  0  0  0  0  0  0
  151.0564  143.2280  157.2910 H   0  0  0  0  0  0  0  0  0  0  0  0
  149.4672  134.9607  154.3083 H   0  0  0  0  0  0  0  0  0  0  0  0
  148.8749  134.2077  155.7720 H   0  0  0  0  0  0  0  0  0  0  0  0
  1  2  1  0  0  0  0
  1 26  1  0  0  0  0
  1 27  1  0  0  0  0
  1 28  1  0  0  0  0
  2  3  1  0  0  0  0
  2 29  1  0  0  0  0
  2 30  1  0  0  0  0
  3 25  1  0  0  0  0
  3  4  1  0  0  0  0
  4  5  1  0  0  0  0
  4 31  1  0  0  0  0
  4 32  1  0  0  0  0
  5  6  1  0  0  0  0
  5 33  1  0  0  0  0
  5 34  1  0  0  0  0
  6  7  1  0  0  0  0
  7  8  1  0  0  0  0
  7 25  1  0  0  0  0
  7 35  1  0  0  0  0
  8  9  1  0  0  0  0
  8 36  1  0  0  0  0
  8 37  1  0  0  0  0
  9 10  1  0  0  0  0
  9 38  1  0  0  0  0
 10 11  1  0  0  0  0
 10 39  1  0  0  0  0
 10 40  1  0  0  0  0
 11 12  1  0  0  0  0
 11 13  1  0  0  0  0
 11 41  1  0  0  0  0
 12 42  1  0  0  0  0
 13 14  1  0  0  0  0
 13 43  1  0  0  0  0
 13 44  1  0  0  0  0
 14 24  1  0  0  0  0
 14 15  1  0  0  0  0
 15 16  2  0  0  0  0
 15 45  1  0  0  0  0
 16 17  1  0  0  0  0
 17 24  2  0  0  0  0
 17 18  1  0  0  0  0
 18 19  2  0  0  0  0
 18 46  1  0  0  0  0
 19 20  1  0  0  0  0
 19 21  1  0  0  0  0
 20 47  1  0  0  0  0
 20 48  1  0  0  0  0
 20 49  1  0  0  0  0
 21 22  1  0  0  0  0
 21 23  2  0  0  0  0
 22 50  1  0  0  0  0
 22 51  1  0  0  0  0
 22 52  1  0  0  0  0
 23 24  1  0  0  0  0
 23 53  1  0  0  0  0
 25 54  1  0  0  0  0
 25 55  1  0  0  0  0
M  END
> <s_m_source_file>
AV-unprocessed.smi

> <i_m_source_file_index>
1047

> <i_lp_mmshare_version>
43012

> <i_f3d_flags>
0

> <s_epik_input>
W0NIM11bQ0gyXU4xW0NIMl1bQ0gyXU9bQ0BIXShbQ0gyXTEpW0NIMl1bTkhdW0NIMl1bQ0BIXShbT0hdKVtDSDJdbihbY0hdbjIpYyhjMjMpW2NIXWMoW0NIM10pYyhbY0hdMylbQ0gzXQ==

> <s_epik_cmdline>
J2VwaWtfcHl0aG9uJywgJy1waCcsICc3LjAnLCAnLXRuJywgJzgnLCAnLW1hJywgJzIwMCcsICctbWV0YWxfYmluZGluZycsICctaW1hZScsICc8aW5maWxlLm1hZT4nLCAnLW9tYWUnLCAnPG91dGZpbGUubWFlPic=

> <r_epik_Ionization_Penalty>
2.74124

> <r_epik_Ionization_Penalty_Charging>
0

> <r_epik_Ionization_Penalty_Neutral>
2.74124

> <r_epik_State_Penalty>
2.37482

> <r_epik_Charging_Adjusted_Penalty>
2.37482

> <i_epik_Tot_Q>
0

> <i_epik_Tot_abs_Q>
0

> <r_epik_Metal_State_Penalty>
2.25944

> <b_epik_Metal_Only>
0

> <s_lp_Force_Field>
OPLS_2005

> <r_lp_Energy>
34.1371

> <b_lp_Chiralities_Consistent>
1

> <s_lp_Variant>
AV-unprocessed.smi:1047-36

> <Gold.Version>
5.8.1

> <Gold.Id.Protein>
6NUR|6NUR_protein|mol2

> <Gold.PLP.Fitness>
51.0273

> <Gold.PLP.PLP>
-49.0357

> <Gold.PLP.part.hbond>
-3.0000

> <Gold.PLP.part.metal>
0.0000

> <Gold.PLP.part.buried>
-4.4015

> <Gold.PLP.part.nonpolar>
-41.2852

> <Gold.PLP.part.repulsive>
0.0544

> <Gold.PLP.ligand.clash>
0.0000

> <Gold.PLP.ligand.torsion>
0.9332

> <Gold.PLP.Chemscore.Hbond>
1.2340

> <Gold.PLP.Chemscore.CHOScore>
0.0000

> <Gold.PLP.Chemscore.Metal>
0.0000

> <Gold.Chemscore.Hbonds>
donor molecule, donor type, donor heavy atom, donor atom, acceptor molecule, acceptor atom, score
      P1  H  6896  6907       L1     6  0.10
      P1  H  7989  7998       L1    12  1.00

> <Gold.PLP.Chemscore.Internal.Correction>
0.1560

> <Gold.Rescore>
     Score         DG    S(hbond)    S(metal)    S(lipo)     H(rot)  DE(clash)    DE(int)     intcor
     16.16     -17.58       1.13        0.00     126.46       2.52       0.42       1.00       ----

> <Gold.Chemscore.Fitness>
16.1610

> <Gold.Chemscore.DG>
-17.5788

> <Gold.Chemscore.ZeroCoef>
-5.4800

> <Gold.Chemscore.Hbond>
1.1270

> <Gold.Chemscore.Metal>
0.0000

> <Gold.Chemscore.Lipo>
126.4556

> <Gold.Chemscore.Internal_Hbond>
0.0000

> <Gold.Chemscore.DEClash>
0.4200

> <Gold.Chemscore.DEInternal>
0.9977

> <Gold.Chemscore.Rot>
2.5237

> <Gold.Chemscore.Internal.Correction>
   9.000000E+99

> <Gold.Chemscore.Hbonds>
donor molecule, donor type, donor heavy atom, donor atom, acceptor molecule, acceptor atom, score
      P1  H  6896  6907       L1     6  0.05
      P1  H  7989  7998       L1    12  0.33

> <Gold.Chemscore.Hbond.Weighted>
-3.7641

> <Gold.Chemscore.Metal.Weighted>
-0.0000

> <Gold.Chemscore.Lipo.Weighted>
-14.7953

> <Gold.Chemscore.Internal_Hbond.Weighted>
0.0000

> <Gold.Chemscore.DEClash.Weighted>
0.4200

> <Gold.Chemscore.DEInternal.Weighted>
0.9977

> <Gold.Chemscore.Rot.Weighted>
6.4607

> <Gold.Chemscore.Internal.Correction.Weighted>
   9.000000E+99

> <Gold.Protein.RotatedTorsions>
[ 6907 6896 6895 6894 ] final -120.10 input  -60.11 | X-H torsion
[ 7974 7965 7964 7962 ] final  175.96 input  175.53 | X-H torsion
[ 8008 7997 7996 7995 ] final  156.99 input   59.86 | X-H torsion
[ 10167 10162 10161 10158 ] final -149.64 input  -65.29 | X-H torsion
[ 10718 10713 10712 10709 ] final   84.30 input   66.30 | X-H torsion
[ 10763 10752 10751 10750 ] final   21.93 input  -60.55 | X-H torsion
[ 11005 11000 10999 10996 ] final   90.63 input  -57.11 | X-H torsion

> <Gold.Protein.ActiveResidues>
 VAL166  LYS551  ARG553  GLY616  TRP617  ASP618  TYR619  PRO620  LYS621  CYS622 
 ASP623  PHE694  ASN695  SER759  ASP760  ASP761  ALA762  ILE779  LEU786  VAL792 
 PHE793  MET794  SER795  GLU796  ALA797  LYS798  CYS799  TRP800  GLU811  SER814 

> <Gold.Protein.RotatedAtoms>
  150.8363  133.8007  159.3077 H   0  0  0  0  0  0  0  0  0  0  0  0  # atno 6907 bound_to 6896
  151.5722  135.1060  160.0007 H   0  0  0  0  0  0  0  0  0  0  0  0  # atno 6908 bound_to 6896
  152.4435  133.7450  159.6719 H   0  0  0  0  0  0  0  0  0  0  0  0  # atno 6909 bound_to 6896
  144.7192  140.0025  143.6440 H   0  0  0  0  0  0  0  0  0  0  0  0  # atno 7974 bound_to 7965
  156.2390  140.1897  156.7041 H   0  0  0  0  0  0  0  0  0  0  0  0  # atno 8008 bound_to 7997
  154.6161  140.0615  156.9582 H   0  0  0  0  0  0  0  0  0  0  0  0  # atno 8009 bound_to 7997
  155.1938  140.3286  155.4357 H   0  0  0  0  0  0  0  0  0  0  0  0  # atno 8010 bound_to 7997
  139.7425  143.8641  152.2566 H   0  0  0  0  0  0  0  0  0  0  0  0  # atno 10167 bound_to 10162
  157.6895  131.0127  150.2652 H   0  0  0  0  0  0  0  0  0  0  0  0  # atno 10718 bound_to 10713
  153.0956  135.6658  153.9771 H   0  0  0  0  0  0  0  0  0  0  0  0  # atno 10763 bound_to 10752
  153.9355  135.2999  155.3446 H   0  0  0  0  0  0  0  0  0  0  0  0  # atno 10764 bound_to 10752
  154.7374  135.5095  153.9138 H   0  0  0  0  0  0  0  0  0  0  0  0  # atno 10765 bound_to 10752
  139.8853  134.8625  156.3312 H   0  0  0  0  0  0  0  0  0  0  0  0  # atno 11005 bound_to 11000
  146.0324  139.3347  143.0747 LP  0  0  0  0  0  0  0  0  0  0  0  0  # atno 17320 bound_to 7965
  145.8436  140.9567  143.0786 LP  0  0  0  0  0  0  0  0  0  0  0  0  # atno 17321 bound_to 7965
  139.8595  144.7124  150.9116 LP  0  0  0  0  0  0  0  0  0  0  0  0  # atno 17342 bound_to 10162
  140.7788  143.3829  151.1444 LP  0  0  0  0  0  0  0  0  0  0  0  0  # atno 17343 bound_to 10162
  156.3225  130.3788  149.7563 LP  0  0  0  0  0  0  0  0  0  0  0  0  # atno 17370 bound_to 10713
  156.5128  130.8180  151.3175 LP  0  0  0  0  0  0  0  0  0  0  0  0  # atno 17371 bound_to 10713
  140.9722  133.7320  156.0550 LP  0  0  0  0  0  0  0  0  0  0  0  0  # atno 17394 bound_to 11000
  140.7856  134.3675  157.5477 LP  0  0  0  0  0  0  0  0  0  0  0  0  # atno 17395 bound_to 11000

$$$$
