AV-unprocessed.smi:2424|AV-procd|sdf|9564|dock2
  -GOLD-   2272013193D 1   1.00000     0.00000
 Structure written by MMmdl.
 50 51  0  0  0  0  0  0  0  0  1 V2000
  147.4221  138.6542  157.2568 C   0  0  0  0  0  0  0  0  0  0  0  0
  148.5753  138.1469  156.3740 C   0  0  0  0  0  0  0  0  0  0  0  0
  148.6747  138.7325  154.9442 C   0  0  0  0  0  0  0  0  0  0  0  0
  149.9454  138.1174  154.2903 C   0  0  0  0  0  0  0  0  0  0  0  0
  151.2973  138.5216  154.9085 C   0  0  0  0  0  0  0  0  0  0  0  0
  147.3818  138.6919  154.0726 C   0  0  2  0  0  0  0  0  0  0  0  0
  147.3569  137.6507  153.0505 N   0  0  0  0  0  0  0  0  0  0  0  0
  146.3480  136.7874  152.8726 C   0  0  0  0  0  0  0  0  0  0  0  0
  145.3274  136.7974  153.5592 O   0  0  0  0  0  0  0  0  0  0  0  0
  146.6212  135.9331  151.8697 N   0  0  0  0  0  0  0  0  0  0  0  0
  145.8470  134.8783  151.3665 C   0  0  0  0  0  0  0  0  0  0  0  0
  144.6680  135.1850  150.7981 C   0  0  0  0  0  0  0  0  0  0  0  0
  143.8318  134.2007  150.2663 N   0  0  0  0  0  0  0  0  0  0  0  0
  144.1162  132.8787  150.2698 C   0  0  0  0  0  0  0  0  0  0  0  0
  143.3299  132.0710  149.7782 O   0  0  0  0  0  0  0  0  0  0  0  0
  145.3987  132.5091  150.8906 C   0  0  0  0  0  0  0  0  0  0  0  0
  145.7722  131.0380  150.9338 C   0  0  0  0  0  0  0  0  0  0  0  0
  146.2074  133.4645  151.4056 C   0  0  0  0  0  0  0  0  0  0  0  0
  147.7352  140.0673  153.4984 C   0  0  1  0  0  0  0  0  0  0  0  0
  146.6019  141.0127  153.1204 C   0  0  0  0  0  0  0  0  0  0  0  0
  148.5028  140.2734  154.8144 C   0  0  2  0  0  0  0  0  0  0  0  0
  149.7297  140.9733  154.6765 O   0  0  0  0  0  0  0  0  0  0  0  0
  150.3555  141.2685  155.9126 C   0  0  0  0  0  0  0  0  0  0  0  0
  142.9635  134.5094  149.8536 H   0  0  0  0  0  0  0  0  0  0  0  0
  147.5124  138.2477  158.2643 H   0  0  0  0  0  0  0  0  0  0  0  0
  146.4521  138.3363  156.8757 H   0  0  0  0  0  0  0  0  0  0  0  0
  147.4172  139.7396  157.3470 H   0  0  0  0  0  0  0  0  0  0  0  0
  149.5011  138.3527  156.9117 H   0  0  0  0  0  0  0  0  0  0  0  0
  148.4958  137.0598  156.3276 H   0  0  0  0  0  0  0  0  0  0  0  0
  149.8855  137.0290  154.3187 H   0  0  0  0  0  0  0  0  0  0  0  0
  149.9829  138.3690  153.2306 H   0  0  0  0  0  0  0  0  0  0  0  0
  152.1180  138.1099  154.3209 H   0  0  0  0  0  0  0  0  0  0  0  0
  151.4120  138.1379  155.9219 H   0  0  0  0  0  0  0  0  0  0  0  0
  151.4346  139.6010  154.9417 H   0  0  0  0  0  0  0  0  0  0  0  0
  146.4533  138.7559  154.6416 H   0  0  0  0  0  0  0  0  0  0  0  0
  148.1639  137.5797  152.4481 H   0  0  0  0  0  0  0  0  0  0  0  0
  147.5125  136.0561  151.4123 H   0  0  0  0  0  0  0  0  0  0  0  0
  144.2790  136.1883  150.7031 H   0  0  0  0  0  0  0  0  0  0  0  0
  146.7396  130.8857  151.4128 H   0  0  0  0  0  0  0  0  0  0  0  0
  145.8287  130.6298  149.9242 H   0  0  0  0  0  0  0  0  0  0  0  0
  145.0267  130.4715  151.4926 H   0  0  0  0  0  0  0  0  0  0  0  0
  147.1322  133.1403  151.8533 H   0  0  0  0  0  0  0  0  0  0  0  0
  148.4409  139.9643  152.6722 H   0  0  0  0  0  0  0  0  0  0  0  0
  145.9397  141.1994  153.9662 H   0  0  0  0  0  0  0  0  0  0  0  0
  145.9968  140.5954  152.3155 H   0  0  0  0  0  0  0  0  0  0  0  0
  146.9802  141.9753  152.7786 H   0  0  0  0  0  0  0  0  0  0  0  0
  147.8734  140.6921  155.6018 H   0  0  0  0  0  0  0  0  0  0  0  0
  151.3173  141.7461  155.7270 H   0  0  0  0  0  0  0  0  0  0  0  0
  150.5369  140.3627  156.4923 H   0  0  0  0  0  0  0  0  0  0  0  0
  149.7549  141.9543  156.5088 H   0  0  0  0  0  0  0  0  0  0  0  0
  1  2  1  0  0  0  0
  1 25  1  0  0  0  0
  1 26  1  0  0  0  0
  1 27  1  0  0  0  0
  2  3  1  0  0  0  0
  2 28  1  0  0  0  0
  2 29  1  0  0  0  0
  3 21  1  0  0  0  0
  3  4  1  0  0  0  0
  3  6  1  0  0  0  0
  4  5  1  0  0  0  0
  4 30  1  0  0  0  0
  4 31  1  0  0  0  0
  5 32  1  0  0  0  0
  5 33  1  0  0  0  0
  5 34  1  0  0  0  0
  6  7  1  0  0  0  0
  6 19  1  0  0  0  0
  6 35  1  0  0  0  0
  7  8  1  0  0  0  0
  7 36  1  0  0  0  0
  8  9  2  0  0  0  0
  8 10  1  0  0  0  0
 10 11  1  0  0  0  0
 10 37  1  0  0  0  0
 11 18  1  0  0  0  0
 11 12  2  0  0  0  0
 12 13  1  0  0  0  0
 12 38  1  0  0  0  0
 13 24  1  0  0  0  0
 13 14  1  0  0  0  0
 14 15  2  0  0  0  0
 14 16  1  0  0  0  0
 16 17  1  0  0  0  0
 16 18  2  0  0  0  0
 17 39  1  0  0  0  0
 17 40  1  0  0  0  0
 17 41  1  0  0  0  0
 18 42  1  0  0  0  0
 19 20  1  0  0  0  0
 19 21  1  0  0  0  0
 19 43  1  0  0  0  0
 20 44  1  0  0  0  0
 20 45  1  0  0  0  0
 20 46  1  0  0  0  0
 21 22  1  0  0  0  0
 21 47  1  0  0  0  0
 22 23  1  0  0  0  0
 23 48  1  0  0  0  0
 23 49  1  0  0  0  0
 23 50  1  0  0  0  0
M  END
> <s_m_source_file>
AV-unprocessed.smi

> <i_m_source_file_index>
2424

> <i_lp_mmshare_version>
43012

> <i_f3d_flags>
0

> <s_epik_input>
W0NIM11PW0NAQEhdMVtDQEhdKFtDSDNdKVtDQEBIXShDMShbQ0gyXVtDSDNdKVtDSDJdW0NIM10pW05IXUMoPU8pW05IXWMyW2NIXVtuSF1jKD1PKWMoW0NIM10pW2NIXTI=

> <s_epik_cmdline>
J2VwaWtfcHl0aG9uJywgJy1waCcsICc3LjAnLCAnLXRuJywgJzgnLCAnLW1hJywgJzIwMCcsICctbWV0YWxfYmluZGluZycsICctaW1hZScsICc8aW5maWxlLm1hZT4nLCAnLW9tYWUnLCAnPG91dGZpbGUubWFlPic=

> <r_lp_tautomer_probability>
1

> <r_epik_Ionization_Penalty>
4.7326e-05

> <r_epik_Ionization_Penalty_Charging>
2.70169e-05

> <r_epik_Ionization_Penalty_Neutral>
2.0309e-05

> <r_epik_State_Penalty>
-0

> <r_epik_Charging_Adjusted_Penalty>
2.70169e-05

> <i_epik_Tot_Q>
0

> <i_epik_Tot_abs_Q>
0

> <r_epik_Metal_State_Penalty>
0.0198736

> <b_epik_Metal_Only>
0

> <s_lp_Force_Field>
OPLS_2005

> <r_lp_Energy>
36.5029

> <b_lp_Chiralities_Consistent>
1

> <s_lp_Variant>
AV-unprocessed.smi:2424-6

> <Gold.Version>
5.8.1

> <Gold.Id.Protein>
6NUR|6NUR_protein|mol2

> <Gold.PLP.Fitness>
42.5018

> <Gold.PLP.PLP>
-31.1073

> <Gold.PLP.part.hbond>
-3.3121

> <Gold.PLP.part.metal>
0.0000

> <Gold.PLP.part.buried>
-1.3391

> <Gold.PLP.part.nonpolar>
-28.5550

> <Gold.PLP.part.repulsive>
1.2216

> <Gold.PLP.ligand.clash>
0.0000

> <Gold.PLP.ligand.torsion>
1.0133

> <Gold.PLP.Chemscore.Hbond>
3.2673

> <Gold.PLP.Chemscore.CHOScore>
1.0000

> <Gold.PLP.Chemscore.Metal>
0.0000

> <Gold.Chemscore.Hbonds>
donor molecule, donor type, donor heavy atom, donor atom, acceptor molecule, acceptor atom, score
      L1  H     7    36       P1  7948  0.62
      L1  H    10    37       P1  7948  0.66
      L1  H    13    24       P1 10186  1.00
      P1  H  7989  7998       L1    22  0.26
      P1  H 10785 10796       L1    15  0.59
      L1  C    12    38       P1 10171  0.88

> <Gold.PLP.Chemscore.Internal.Correction>
0.6193

> <Gold.Rescore>
     Score         DG    S(hbond)    S(metal)    S(lipo)     H(rot)  DE(clash)    DE(int)     intcor
     19.49     -22.00       3.34        0.00      79.76       1.55       1.56       0.95       ----

> <Gold.Chemscore.Fitness>
19.4917

> <Gold.Chemscore.DG>
-21.9966

> <Gold.Chemscore.ZeroCoef>
-5.4800

> <Gold.Chemscore.Hbond>
3.3392

> <Gold.Chemscore.Metal>
0.0000

> <Gold.Chemscore.Lipo>
79.7630

> <Gold.Chemscore.Internal_Hbond>
0.0000

> <Gold.Chemscore.DEClash>
1.5563

> <Gold.Chemscore.DEInternal>
0.9486

> <Gold.Chemscore.Rot>
1.5502

> <Gold.Chemscore.Internal.Correction>
   9.000000E+99

> <Gold.Chemscore.Hbonds>
donor molecule, donor type, donor heavy atom, donor atom, acceptor molecule, acceptor atom, score
      L1  H     7    36       P1  7948  0.64
      L1  H    10    37       P1  7948  0.63
      L1  H    13    24       P1 10186  0.89
      P1  H  7989  7998       L1    22  0.04
      P1  H 10785 10796       L1    15  0.57

> <Gold.Chemscore.Hbond.Weighted>
-11.1528

> <Gold.Chemscore.Metal.Weighted>
-0.0000

> <Gold.Chemscore.Lipo.Weighted>
-9.3323

> <Gold.Chemscore.Internal_Hbond.Weighted>
0.0000

> <Gold.Chemscore.DEClash.Weighted>
1.5563

> <Gold.Chemscore.DEInternal.Weighted>
0.9486

> <Gold.Chemscore.Rot.Weighted>
3.9685

> <Gold.Chemscore.Internal.Correction.Weighted>
   9.000000E+99

> <Gold.Protein.RotatedTorsions>
[ 6907 6896 6895 6894 ] final  119.10 input  -60.11 | X-H torsion
[ 7974 7965 7964 7962 ] final  125.69 input  175.53 | X-H torsion
[ 8008 7997 7996 7995 ] final   31.50 input   59.86 | X-H torsion
[ 10167 10162 10161 10158 ] final -104.37 input  -65.29 | X-H torsion
[ 10718 10713 10712 10709 ] final -111.98 input   66.30 | X-H torsion
[ 10763 10752 10751 10750 ] final  175.13 input  -60.55 | X-H torsion
[ 11005 11000 10999 10996 ] final -140.73 input  -57.11 | X-H torsion

> <Gold.Protein.ActiveResidues>
 VAL166  LYS551  ARG553  GLY616  TRP617  ASP618  TYR619  PRO620  LYS621  CYS622 
 ASP623  PHE694  ASN695  SER759  ASP760  ASP761  ALA762  ILE779  LEU786  VAL792 
 PHE793  MET794  SER795  GLU796  ALA797  LYS798  CYS799  TRP800  GLU811  SER814 

> <Gold.Protein.RotatedAtoms>
  152.4496  133.7603  159.6742 H   0  0  0  0  0  0  0  0  0  0  0  0  # atno 6907 bound_to 6896
  150.8404  133.7934  159.3069 H   0  0  0  0  0  0  0  0  0  0  0  0  # atno 6908 bound_to 6896
  151.5561  135.1069  160.0013 H   0  0  0  0  0  0  0  0  0  0  0  0  # atno 6909 bound_to 6896
  145.0701  139.3737  143.4962 H   0  0  0  0  0  0  0  0  0  0  0  0  # atno 7974 bound_to 7965
  155.1074  140.3235  155.4530 H   0  0  0  0  0  0  0  0  0  0  0  0  # atno 8008 bound_to 7997
  156.2700  140.2050  156.6147 H   0  0  0  0  0  0  0  0  0  0  0  0  # atno 8009 bound_to 7997
  154.6782  140.0529  157.0225 H   0  0  0  0  0  0  0  0  0  0  0  0  # atno 8010 bound_to 7997
  140.2100  143.3754  152.1059 H   0  0  0  0  0  0  0  0  0  0  0  0  # atno 10167 bound_to 10162
  156.0679  130.5896  150.8447 H   0  0  0  0  0  0  0  0  0  0  0  0  # atno 10718 bound_to 10713
  154.4634  135.2768  155.1696 H   0  0  0  0  0  0  0  0  0  0  0  0  # atno 10763 bound_to 10752
  154.3474  135.6157  153.5630 H   0  0  0  0  0  0  0  0  0  0  0  0  # atno 10764 bound_to 10752
  152.9857  135.5803  154.5001 H   0  0  0  0  0  0  0  0  0  0  0  0  # atno 10765 bound_to 10752
  140.8394  134.2420  157.4818 H   0  0  0  0  0  0  0  0  0  0  0  0  # atno 11005 bound_to 11000
  146.3528  140.0442  142.8640 LP  0  0  0  0  0  0  0  0  0  0  0  0  # atno 17320 bound_to 7965
  145.1303  140.9514  143.4548 LP  0  0  0  0  0  0  0  0  0  0  0  0  # atno 17321 bound_to 7965
  139.5184  144.7005  151.5508 LP  0  0  0  0  0  0  0  0  0  0  0  0  # atno 17342 bound_to 10162
  140.6330  143.9038  150.6622 LP  0  0  0  0  0  0  0  0  0  0  0  0  # atno 17343 bound_to 10162
  157.5732  131.0946  150.9386 LP  0  0  0  0  0  0  0  0  0  0  0  0  # atno 17370 bound_to 10713
  156.9598  130.5451  149.5285 LP  0  0  0  0  0  0  0  0  0  0  0  0  # atno 17371 bound_to 10713
  139.8703  134.9627  156.4439 LP  0  0  0  0  0  0  0  0  0  0  0  0  # atno 17394 bound_to 11000
  140.8912  133.7847  155.9574 LP  0  0  0  0  0  0  0  0  0  0  0  0  # atno 17395 bound_to 11000

$$$$
