AV-unprocessed.smi:2646|AV-procd|sdf|10282|dock2
  -GOLD-   2272014293D 1   1.00000     0.00000
 Structure written by MMmdl.
 43 44  0  0  0  0  0  0  0  0  1 V2000
  146.6773  133.3480  155.5473 C   0  0  0  0  0  0  0  0  0  0  0  0
  147.8489  133.2640  154.5264 C   0  0  2  0  0  0  0  0  0  0  0  0
  148.9522  132.3580  155.1473 C   0  0  0  0  0  0  0  0  0  0  0  0
  149.3315  132.7566  156.4508 O   0  0  0  0  0  0  0  0  0  0  0  0
  148.4935  134.5663  154.2812 N   0  0  0  0  0  0  0  0  0  0  0  0
  149.0191  135.4557  155.1404 C   0  0  0  0  0  0  0  0  0  0  0  0
  149.0354  135.3217  156.3631 O   0  0  0  0  0  0  0  0  0  0  0  0
  149.4967  136.5254  154.4821 N   0  0  0  0  0  0  0  0  0  0  0  0
  150.1502  137.6649  155.0225 C   0  0  0  0  0  0  0  0  0  0  0  0
  150.5976  137.6070  156.3584 C   0  0  0  0  0  0  0  0  0  0  0  0
  151.2295  138.7336  156.9188 C   0  0  0  0  0  0  0  0  0  0  0  0
  151.3789  139.8838  156.1199 C   0  0  0  0  0  0  0  0  0  0  0  0
  150.9407  139.9625  154.8460 N   0  0  0  0  0  0  0  0  0  0  0  0
  150.3385  138.8770  154.3135 C   0  0  0  0  0  0  0  0  0  0  0  0
  147.3680  132.6272  153.1691 C   0  0  0  0  0  0  0  0  0  0  0  0
  146.5818  133.6133  152.2603 C   0  0  0  0  0  0  0  0  0  0  0  0
  146.2183  132.9957  150.9004 C   0  0  0  0  0  0  0  0  0  0  0  0
  145.4153  131.7012  151.0702 C   0  0  0  0  0  0  0  0  0  0  0  0
  146.1785  130.7046  151.9502 C   0  0  0  0  0  0  0  0  0  0  0  0
  146.5360  131.3229  153.3114 C   0  0  0  0  0  0  0  0  0  0  0  0
  146.3120  132.3523  155.8003 H   0  0  0  0  0  0  0  0  0  0  0  0
  145.8210  133.9132  155.1880 H   0  0  0  0  0  0  0  0  0  0  0  0
  146.9817  133.8289  156.4772 H   0  0  0  0  0  0  0  0  0  0  0  0
  148.6045  131.3262  155.2102 H   0  0  0  0  0  0  0  0  0  0  0  0
  149.8578  132.3501  154.5413 H   0  0  0  0  0  0  0  0  0  0  0  0
  149.8471  133.5457  156.3862 H   0  0  0  0  0  0  0  0  0  0  0  0
  148.5535  134.8192  153.3059 H   0  0  0  0  0  0  0  0  0  0  0  0
  149.3234  136.5525  153.4881 H   0  0  0  0  0  0  0  0  0  0  0  0
  150.4655  136.7107  156.9467 H   0  0  0  0  0  0  0  0  0  0  0  0
  151.5900  138.7174  157.9366 H   0  0  0  0  0  0  0  0  0  0  0  0
  151.8582  140.7664  156.5172 H   0  0  0  0  0  0  0  0  0  0  0  0
  149.9843  139.0052  153.3023 H   0  0  0  0  0  0  0  0  0  0  0  0
  148.2715  132.3505  152.6232 H   0  0  0  0  0  0  0  0  0  0  0  0
  145.6682  133.9368  152.7606 H   0  0  0  0  0  0  0  0  0  0  0  0
  147.1599  134.5137  152.0625 H   0  0  0  0  0  0  0  0  0  0  0  0
  145.6456  133.7112  150.3097 H   0  0  0  0  0  0  0  0  0  0  0  0
  147.1298  132.7903  150.3375 H   0  0  0  0  0  0  0  0  0  0  0  0
  144.4479  131.9249  151.5216 H   0  0  0  0  0  0  0  0  0  0  0  0
  145.2090  131.2581  150.0954 H   0  0  0  0  0  0  0  0  0  0  0  0
  145.5767  129.8075  152.0983 H   0  0  0  0  0  0  0  0  0  0  0  0
  147.0889  130.3852  151.4413 H   0  0  0  0  0  0  0  0  0  0  0  0
  147.0757  130.5693  153.8811 H   0  0  0  0  0  0  0  0  0  0  0  0
  145.6121  131.5213  153.8531 H   0  0  0  0  0  0  0  0  0  0  0  0
  1  2  1  0  0  0  0
  1 21  1  0  0  0  0
  1 22  1  0  0  0  0
  1 23  1  0  0  0  0
  2  3  1  0  0  0  0
  2  5  1  0  0  0  0
  2 15  1  0  0  0  0
  3  4  1  0  0  0  0
  3 24  1  0  0  0  0
  3 25  1  0  0  0  0
  4 26  1  0  0  0  0
  5  6  1  0  0  0  0
  5 27  1  0  0  0  0
  6  7  2  0  0  0  0
  6  8  1  0  0  0  0
  8  9  1  0  0  0  0
  8 28  1  0  0  0  0
  9 14  1  0  0  0  0
  9 10  2  0  0  0  0
 10 11  1  0  0  0  0
 10 29  1  0  0  0  0
 11 12  2  0  0  0  0
 11 30  1  0  0  0  0
 12 13  1  0  0  0  0
 12 31  1  0  0  0  0
 13 14  2  0  0  0  0
 14 32  1  0  0  0  0
 15 20  1  0  0  0  0
 15 16  1  0  0  0  0
 15 33  1  0  0  0  0
 16 17  1  0  0  0  0
 16 34  1  0  0  0  0
 16 35  1  0  0  0  0
 17 18  1  0  0  0  0
 17 36  1  0  0  0  0
 17 37  1  0  0  0  0
 18 19  1  0  0  0  0
 18 38  1  0  0  0  0
 18 39  1  0  0  0  0
 19 20  1  0  0  0  0
 19 40  1  0  0  0  0
 19 41  1  0  0  0  0
 20 42  1  0  0  0  0
 20 43  1  0  0  0  0
M  END
> <s_m_source_file>
AV-unprocessed.smi

> <i_m_source_file_index>
2646

> <i_lp_mmshare_version>
43012

> <i_f3d_flags>
0

> <s_epik_input>
W0NIMl0xW0NIMl1bQ0gyXVtDSDJdW0NIMl1bQ0hdMVtDQF0oW0NIM10pKFtDSDJdW09IXSlbTkhdQyg9TylbTkhdYzJbY0hdW2NIXVtjSF1uW2NIXTI=

> <s_epik_cmdline>
J2VwaWtfcHl0aG9uJywgJy1waCcsICc3LjAnLCAnLXRuJywgJzgnLCAnLW1hJywgJzIwMCcsICctbWV0YWxfYmluZGluZycsICctaW1hZScsICc8aW5maWxlLm1hZT4nLCAnLW9tYWUnLCAnPG91dGZpbGUubWFlPic=

> <r_epik_Ionization_Penalty>
0.00498697

> <r_epik_Ionization_Penalty_Charging>
0

> <r_epik_Ionization_Penalty_Neutral>
0.00498697

> <r_epik_State_Penalty>
0.00359645

> <r_epik_Charging_Adjusted_Penalty>
0.00359645

> <i_epik_Tot_Q>
0

> <i_epik_Tot_abs_Q>
0

> <r_epik_Metal_State_Penalty>
-0

> <b_epik_Metal_Only>
0

> <s_lp_Force_Field>
OPLS_2005

> <r_lp_Energy>
27.1909

> <b_lp_Chiralities_Consistent>
1

> <s_lp_Variant>
AV-unprocessed.smi:2646-2

> <Gold.Version>
5.8.1

> <Gold.Id.Protein>
6NUR|6NUR_protein|mol2

> <Gold.PLP.Fitness>
44.8246

> <Gold.PLP.PLP>
-33.5406

> <Gold.PLP.part.hbond>
-3.9955

> <Gold.PLP.part.metal>
0.0000

> <Gold.PLP.part.buried>
-4.3322

> <Gold.PLP.part.nonpolar>
-25.6407

> <Gold.PLP.part.repulsive>
0.1588

> <Gold.PLP.ligand.clash>
0.0000

> <Gold.PLP.ligand.torsion>
0.3784

> <Gold.PLP.Chemscore.Hbond>
2.9920

> <Gold.PLP.Chemscore.CHOScore>
1.0000

> <Gold.PLP.Chemscore.Metal>
0.0000

> <Gold.Chemscore.Hbonds>
donor molecule, donor type, donor heavy atom, donor atom, acceptor molecule, acceptor atom, score
      L1  H     5    27       P1  7948  1.00
      L1  H     8    28       P1  7948  1.00
      P1  H  7989  7998       L1    13  1.00
      L1  C    14    32       P1  7957  1.00

> <Gold.PLP.Chemscore.Internal.Correction>
0.0649

> <Gold.Rescore>
     Score         DG    S(hbond)    S(metal)    S(lipo)     H(rot)  DE(clash)    DE(int)     intcor
     12.65     -16.08       1.81        0.00      82.17       1.98       0.01       3.43       ----

> <Gold.Chemscore.Fitness>
12.6452

> <Gold.Chemscore.DG>
-16.0785

> <Gold.Chemscore.ZeroCoef>
-5.4800

> <Gold.Chemscore.Hbond>
1.8123

> <Gold.Chemscore.Metal>
0.0000

> <Gold.Chemscore.Lipo>
82.1677

> <Gold.Chemscore.Internal_Hbond>
0.0000

> <Gold.Chemscore.DEClash>
0.0073

> <Gold.Chemscore.DEInternal>
3.4259

> <Gold.Chemscore.Rot>
1.9798

> <Gold.Chemscore.Internal.Correction>
   9.000000E+99

> <Gold.Chemscore.Hbonds>
donor molecule, donor type, donor heavy atom, donor atom, acceptor molecule, acceptor atom, score
      L1  H     5    27       P1  7948  0.53
      L1  H     8    28       P1  7948  0.90
      P1  H  7989  7998       L1    13  0.60

> <Gold.Chemscore.Hbond.Weighted>
-6.0530

> <Gold.Chemscore.Metal.Weighted>
-0.0000

> <Gold.Chemscore.Lipo.Weighted>
-9.6136

> <Gold.Chemscore.Internal_Hbond.Weighted>
0.0000

> <Gold.Chemscore.DEClash.Weighted>
0.0073

> <Gold.Chemscore.DEInternal.Weighted>
3.4259

> <Gold.Chemscore.Rot.Weighted>
5.0682

> <Gold.Chemscore.Internal.Correction.Weighted>
   9.000000E+99

> <Gold.Protein.RotatedTorsions>
[ 6907 6896 6895 6894 ] final   18.76 input  -60.11 | X-H torsion
[ 7974 7965 7964 7962 ] final -177.95 input  175.53 | X-H torsion
[ 8008 7997 7996 7995 ] final  153.74 input   59.86 | X-H torsion
[ 10167 10162 10161 10158 ] final  -90.03 input  -65.29 | X-H torsion
[ 10718 10713 10712 10709 ] final   27.85 input   66.30 | X-H torsion
[ 10763 10752 10751 10750 ] final  -85.63 input  -60.55 | X-H torsion
[ 11005 11000 10999 10996 ] final -161.05 input  -57.11 | X-H torsion

> <Gold.Protein.ActiveResidues>
 VAL166  LYS551  ARG553  GLY616  TRP617  ASP618  TYR619  PRO620  LYS621  CYS622 
 ASP623  PHE694  ASN695  SER759  ASP760  ASP761  ALA762  ILE779  LEU786  VAL792 
 PHE793  MET794  SER795  GLU796  ALA797  LYS798  CYS799  TRP800  GLU811  SER814 

> <Gold.Protein.RotatedAtoms>
  151.8703  135.0492  160.0478 H   0  0  0  0  0  0  0  0  0  0  0  0  # atno 6907 bound_to 6896
  152.2594  133.5279  159.5381 H   0  0  0  0  0  0  0  0  0  0  0  0  # atno 6908 bound_to 6896
  150.7111  134.0767  159.3926 H   0  0  0  0  0  0  0  0  0  0  0  0  # atno 6909 bound_to 6896
  144.7129  140.0942  143.6420 H   0  0  0  0  0  0  0  0  0  0  0  0  # atno 7974 bound_to 7965
  156.2566  140.1985  156.6537 H   0  0  0  0  0  0  0  0  0  0  0  0  # atno 8008 bound_to 7997
  154.6517  140.0571  156.9988 H   0  0  0  0  0  0  0  0  0  0  0  0  # atno 8009 bound_to 7997
  155.1408  140.3242  155.4455 H   0  0  0  0  0  0  0  0  0  0  0  0  # atno 8010 bound_to 7997
  140.3589  143.2852  151.9638 H   0  0  0  0  0  0  0  0  0  0  0  0  # atno 10167 bound_to 10162
  157.2257  130.7000  149.6290 H   0  0  0  0  0  0  0  0  0  0  0  0  # atno 10718 bound_to 10713
  154.6132  135.5478  153.7496 H   0  0  0  0  0  0  0  0  0  0  0  0  # atno 10763 bound_to 10752
  153.0204  135.6394  154.1547 H   0  0  0  0  0  0  0  0  0  0  0  0  # atno 10764 bound_to 10752
  154.1484  135.2904  155.3122 H   0  0  0  0  0  0  0  0  0  0  0  0  # atno 10765 bound_to 10752
  140.6247  134.4714  157.5226 H   0  0  0  0  0  0  0  0  0  0  0  0  # atno 11005 bound_to 11000
  145.9594  139.2789  143.1165 LP  0  0  0  0  0  0  0  0  0  0  0  0  # atno 17320 bound_to 7965
  145.9237  140.9097  143.0392 LP  0  0  0  0  0  0  0  0  0  0  0  0  # atno 17321 bound_to 7965
  139.4816  144.6010  151.7606 LP  0  0  0  0  0  0  0  0  0  0  0  0  # atno 17342 bound_to 10162
  140.5146  144.0973  150.6004 LP  0  0  0  0  0  0  0  0  0  0  0  0  # atno 17343 bound_to 10162
  155.9679  130.4505  150.5700 LP  0  0  0  0  0  0  0  0  0  0  0  0  # atno 17370 bound_to 10713
  157.3530  131.0737  151.1698 LP  0  0  0  0  0  0  0  0  0  0  0  0  # atno 17371 bound_to 10713
  139.9139  134.8286  156.1431 LP  0  0  0  0  0  0  0  0  0  0  0  0  # atno 17394 bound_to 11000
  141.0718  133.6793  156.2156 LP  0  0  0  0  0  0  0  0  0  0  0  0  # atno 17395 bound_to 11000

$$$$
