AV-unprocessed.smi:502|AV-procd|sdf|2745|dock4
  -GOLD-   2262023203D 1   1.00000     0.00000
 Structure written by MMmdl.
 49 51  0  0  0  0  0  0  0  0  2 V2000
  148.5489  135.5740  158.0177 C   0  0  0  0  0  0  0  0  0  0  0  0
  149.6734  135.1062  157.1002 C   0  0  0  0  0  0  0  0  0  0  0  0
  149.9080  133.9048  156.9719 O   0  0  0  0  0  0  0  0  0  0  0  0
  150.3628  136.0672  156.4671 N   0  0  0  0  0  0  0  0  0  0  0  0
  151.4842  135.8339  155.5646 C   0  0  0  0  0  0  0  0  0  0  0  0
  151.2278  136.4277  154.1695 C   0  0  0  0  0  0  0  0  0  0  0  0
  150.4474  137.6999  154.2501 C   0  0  0  0  0  0  0  0  0  0  0  0
  149.3387  137.9941  153.5133 N   0  3  0  0  0  0  0  0  0  0  0  0
  148.8783  139.2702  153.8385 C   0  0  0  0  0  0  0  0  0  0  0  0
  147.7932  139.9979  153.3595 C   0  0  0  0  0  0  0  0  0  0  0  0
  147.6028  141.2840  153.9064 C   0  0  0  0  0  0  0  0  0  0  0  0
  148.4716  141.7998  154.8900 C   0  0  0  0  0  0  0  0  0  0  0  0
  149.5682  141.0524  155.3679 C   0  0  0  0  0  0  0  0  0  0  0  0
  149.7502  139.7826  154.8204 C   0  0  0  0  0  0  0  0  0  0  0  0
  150.7066  138.7843  155.0383 N   0  0  0  0  0  0  0  0  0  0  0  0
  151.7762  139.0274  156.0165 C   0  0  0  0  0  0  0  0  0  0  0  0
  151.2452  139.0842  157.4551 C   0  0  0  0  0  0  0  0  0  0  0  0
  152.3510  139.2058  158.3375 O   0  0  0  0  0  0  0  0  0  0  0  0
  152.6689  140.4572  158.8244 C   0  0  0  0  0  0  0  0  0  0  0  0
  152.2477  141.6686  158.2178 C   0  0  0  0  0  0  0  0  0  0  0  0
  152.6109  142.9109  158.7715 C   0  0  0  0  0  0  0  0  0  0  0  0
  153.3969  142.9614  159.9361 C   0  0  0  0  0  0  0  0  0  0  0  0
  153.8207  141.7674  160.5468 C   0  0  0  0  0  0  0  0  0  0  0  0
  153.4603  140.5198  159.9956 C   0  0  0  0  0  0  0  0  0  0  0  0
  153.9257  139.2418  160.6680 C   0  0  0  0  0  0  0  0  0  0  0  0
  147.8130  136.1506  157.4568 H   0  0  0  0  0  0  0  0  0  0  0  0
  148.9453  136.2018  158.8160 H   0  0  0  0  0  0  0  0  0  0  0  0
  148.0408  134.7237  158.4736 H   0  0  0  0  0  0  0  0  0  0  0  0
  150.1008  137.0284  156.6337 H   0  0  0  0  0  0  0  0  0  0  0  0
  152.3703  136.2878  156.0071 H   0  0  0  0  0  0  0  0  0  0  0  0
  151.6856  134.7636  155.4940 H   0  0  0  0  0  0  0  0  0  0  0  0
  152.1730  136.6329  153.6655 H   0  0  0  0  0  0  0  0  0  0  0  0
  150.6945  135.7136  153.5420 H   0  0  0  0  0  0  0  0  0  0  0  0
  147.1264  139.6048  152.6061 H   0  0  0  0  0  0  0  0  0  0  0  0
  146.7741  141.8872  153.5644 H   0  0  0  0  0  0  0  0  0  0  0  0
  148.2944  142.7896  155.2857 H   0  0  0  0  0  0  0  0  0  0  0  0
  150.2293  141.4565  156.1202 H   0  0  0  0  0  0  0  0  0  0  0  0
  152.5306  138.2472  155.9080 H   0  0  0  0  0  0  0  0  0  0  0  0
  152.2642  139.9676  155.7612 H   0  0  0  0  0  0  0  0  0  0  0  0
  150.5757  139.9373  157.5703 H   0  0  0  0  0  0  0  0  0  0  0  0
  150.6826  138.1780  157.6835 H   0  0  0  0  0  0  0  0  0  0  0  0
  151.6435  141.6739  157.3235 H   0  0  0  0  0  0  0  0  0  0  0  0
  152.2852  143.8268  158.3009 H   0  0  0  0  0  0  0  0  0  0  0  0
  153.6745  143.9147  160.3610 H   0  0  0  0  0  0  0  0  0  0  0  0
  154.4242  141.8140  161.4415 H   0  0  0  0  0  0  0  0  0  0  0  0
  154.5080  139.4514  161.5658 H   0  0  0  0  0  0  0  0  0  0  0  0
  154.5495  138.6616  159.9876 H   0  0  0  0  0  0  0  0  0  0  0  0
  153.0690  138.6315  160.9552 H   0  0  0  0  0  0  0  0  0  0  0  0
  148.9281  137.3632  152.8367 H   0  0  0  0  0  0  0  0  0  0  0  0
  1  2  1  0  0  0  0
  1 26  1  0  0  0  0
  1 27  1  0  0  0  0
  1 28  1  0  0  0  0
  2  3  2  0  0  0  0
  2  4  1  0  0  0  0
  4  5  1  0  0  0  0
  4 29  1  0  0  0  0
  5  6  1  0  0  0  0
  5 30  1  0  0  0  0
  5 31  1  0  0  0  0
  6  7  1  0  0  0  0
  6 32  1  0  0  0  0
  6 33  1  0  0  0  0
  7 15  1  0  0  0  0
  7  8  2  0  0  0  0
  8  9  1  0  0  0  0
  8 49  1  0  0  0  0
  9 14  2  0  0  0  0
  9 10  1  0  0  0  0
 10 11  2  0  0  0  0
 10 34  1  0  0  0  0
 11 12  1  0  0  0  0
 11 35  1  0  0  0  0
 12 13  2  0  0  0  0
 12 36  1  0  0  0  0
 13 14  1  0  0  0  0
 13 37  1  0  0  0  0
 14 15  1  0  0  0  0
 15 16  1  0  0  0  0
 16 17  1  0  0  0  0
 16 38  1  0  0  0  0
 16 39  1  0  0  0  0
 17 18  1  0  0  0  0
 17 40  1  0  0  0  0
 17 41  1  0  0  0  0
 18 19  1  0  0  0  0
 19 24  1  0  0  0  0
 19 20  2  0  0  0  0
 20 21  1  0  0  0  0
 20 42  1  0  0  0  0
 21 22  2  0  0  0  0
 21 43  1  0  0  0  0
 22 23  1  0  0  0  0
 22 44  1  0  0  0  0
 23 24  2  0  0  0  0
 23 45  1  0  0  0  0
 24 25  1  0  0  0  0
 25 46  1  0  0  0  0
 25 47  1  0  0  0  0
 25 48  1  0  0  0  0
M  CHG  1   8   1
M  END
> <s_m_source_file>
AV-unprocessed.smi

> <i_m_source_file_index>
502

> <i_lp_mmshare_version>
43012

> <i_f3d_flags>
0

> <s_epik_input>
W0NIM11DKD1PKVtOSF1bQ0gyXVtDSDJdYyhuMSluKGMoYzEyKVtjSF1bY0hdW2NIXVtjSF0yKVtDSDJdW0NIMl1PYzNbY0hdW2NIXVtjSF1bY0hdYzNbQ0gzXQ==

> <s_epik_cmdline>
J2VwaWtfcHl0aG9uJywgJy1waCcsICc3LjAnLCAnLXRuJywgJzgnLCAnLW1hJywgJzIwMCcsICctbWV0YWxfYmluZGluZycsICctaW1hZScsICc8aW5maWxlLm1hZT4nLCAnLW9tYWUnLCAnPG91dGZpbGUubWFlPic=

> <r_lp_tautomer_probability>
1

> <r_epik_Ionization_Penalty>
1.10789

> <r_epik_Ionization_Penalty_Charging>
1.10789

> <r_epik_Ionization_Penalty_Neutral>
3.05925e-07

> <r_epik_State_Penalty>
1.16562

> <r_epik_Charging_Adjusted_Penalty>
2.27351

> <i_epik_Tot_Q>
1

> <i_epik_Tot_abs_Q>
1

> <r_epik_Metal_State_Penalty>
1.2518

> <b_epik_Metal_Only>
0

> <s_lp_Force_Field>
OPLS_2005

> <r_lp_Energy>
20.1677

> <b_lp_Chiralities_Consistent>
1

> <s_lp_Variant>
AV-unprocessed.smi:502-2

> <Gold.Version>
5.8.1

> <Gold.Id.Protein>
6NUR|6NUR_protein|mol2

> <Gold.PLP.Fitness>
61.3401

> <Gold.PLP.PLP>
-55.0388

> <Gold.PLP.part.hbond>
-3.0000

> <Gold.PLP.part.metal>
0.0000

> <Gold.PLP.part.buried>
-0.6662

> <Gold.PLP.part.nonpolar>
-52.2368

> <Gold.PLP.part.repulsive>
0.0954

> <Gold.PLP.ligand.clash>
0.0000

> <Gold.PLP.ligand.torsion>
0.8659

> <Gold.PLP.Chemscore.Hbond>
2.6400

> <Gold.PLP.Chemscore.CHOScore>
0.0000

> <Gold.PLP.Chemscore.Metal>
0.0000

> <Gold.Chemscore.Hbonds>
donor molecule, donor type, donor heavy atom, donor atom, acceptor molecule, acceptor atom, score
      L1  H     8    49       P1  7948  1.72

> <Gold.PLP.Chemscore.Internal.Correction>
0.1130

> <Gold.Rescore>
     Score         DG    S(hbond)    S(metal)    S(lipo)     H(rot)  DE(clash)    DE(int)     intcor
     18.01     -18.98       1.00        0.00     134.56       2.18       0.15       0.82       ----

> <Gold.Chemscore.Fitness>
18.0056

> <Gold.Chemscore.DG>
-18.9756

> <Gold.Chemscore.ZeroCoef>
-5.4800

> <Gold.Chemscore.Hbond>
0.9973

> <Gold.Chemscore.Metal>
0.0000

> <Gold.Chemscore.Lipo>
134.5612

> <Gold.Chemscore.Internal_Hbond>
0.0000

> <Gold.Chemscore.DEClash>
0.1533

> <Gold.Chemscore.DEInternal>
0.8167

> <Gold.Chemscore.Rot>
2.1793

> <Gold.Chemscore.Internal.Correction>
   9.000000E+99

> <Gold.Chemscore.Hbonds>
donor molecule, donor type, donor heavy atom, donor atom, acceptor molecule, acceptor atom, score
      L1  H     8    49       P1  7948  0.81

> <Gold.Chemscore.Hbond.Weighted>
-3.3311

> <Gold.Chemscore.Metal.Weighted>
-0.0000

> <Gold.Chemscore.Lipo.Weighted>
-15.7437

> <Gold.Chemscore.Internal_Hbond.Weighted>
0.0000

> <Gold.Chemscore.DEClash.Weighted>
0.1533

> <Gold.Chemscore.DEInternal.Weighted>
0.8167

> <Gold.Chemscore.Rot.Weighted>
5.5791

> <Gold.Chemscore.Internal.Correction.Weighted>
   9.000000E+99

> <Gold.Protein.RotatedTorsions>
[ 6907 6896 6895 6894 ] final -101.82 input  -60.11 | X-H torsion
[ 7974 7965 7964 7962 ] final  100.09 input  175.53 | X-H torsion
[ 8008 7997 7996 7995 ] final  -64.88 input   59.86 | X-H torsion
[ 10167 10162 10161 10158 ] final  138.30 input  -65.29 | X-H torsion
[ 10718 10713 10712 10709 ] final -119.17 input   66.30 | X-H torsion
[ 10763 10752 10751 10750 ] final -175.11 input  -60.55 | X-H torsion
[ 11005 11000 10999 10996 ] final  -62.67 input  -57.11 | X-H torsion

> <Gold.Protein.ActiveResidues>
 VAL166  LYS551  ARG553  GLY616  TRP617  ASP618  TYR619  PRO620  LYS621  CYS622 
 ASP623  PHE694  ASN695  SER759  ASP760  ASP761  ALA762  ILE779  LEU786  VAL792 
 PHE793  MET794  SER795  GLU796  ALA797  LYS798  CYS799  TRP800  GLU811  SER814 

> <Gold.Protein.RotatedAtoms>
  150.7170  134.0675  159.3852 H   0  0  0  0  0  0  0  0  0  0  0  0  # atno 6907 bound_to 6896
  151.8657  135.0506  160.0483 H   0  0  0  0  0  0  0  0  0  0  0  0  # atno 6908 bound_to 6896
  152.2683  133.5323  159.5460 H   0  0  0  0  0  0  0  0  0  0  0  0  # atno 6909 bound_to 6896
  145.3902  139.2364  143.3356 H   0  0  0  0  0  0  0  0  0  0  0  0  # atno 7974 bound_to 7965
  154.4638  140.0944  156.6965 H   0  0  0  0  0  0  0  0  0  0  0  0  # atno 8008 bound_to 7997
  155.4917  140.3471  155.4337 H   0  0  0  0  0  0  0  0  0  0  0  0  # atno 8009 bound_to 7997
  156.0919  140.1399  156.9569 H   0  0  0  0  0  0  0  0  0  0  0  0  # atno 8010 bound_to 7997
  139.5115  144.6361  151.5693 H   0  0  0  0  0  0  0  0  0  0  0  0  # atno 10167 bound_to 10162
  156.1161  130.6287  150.9383 H   0  0  0  0  0  0  0  0  0  0  0  0  # atno 10718 bound_to 10713
  154.5882  135.2842  155.0662 H   0  0  0  0  0  0  0  0  0  0  0  0  # atno 10763 bound_to 10752
  154.1973  135.6430  153.5080 H   0  0  0  0  0  0  0  0  0  0  0  0  # atno 10764 bound_to 10752
  153.0112  135.5460  154.6559 H   0  0  0  0  0  0  0  0  0  0  0  0  # atno 10765 bound_to 10752
  141.1367  133.6642  156.5563 H   0  0  0  0  0  0  0  0  0  0  0  0  # atno 11005 bound_to 11000
  146.2801  140.4583  142.8780 LP  0  0  0  0  0  0  0  0  0  0  0  0  # atno 17320 bound_to 7965
  144.8446  140.6909  143.6207 LP  0  0  0  0  0  0  0  0  0  0  0  0  # atno 17321 bound_to 7965
  140.6110  143.9435  150.6453 LP  0  0  0  0  0  0  0  0  0  0  0  0  # atno 17342 bound_to 10162
  140.2678  143.3478  152.1265 LP  0  0  0  0  0  0  0  0  0  0  0  0  # atno 17343 bound_to 10162
  157.6344  131.0917  150.8377 LP  0  0  0  0  0  0  0  0  0  0  0  0  # atno 17370 bound_to 10713
  156.8480  130.5070  149.5314 LP  0  0  0  0  0  0  0  0  0  0  0  0  # atno 17371 bound_to 10713
  140.4024  134.7345  157.4787 LP  0  0  0  0  0  0  0  0  0  0  0  0  # atno 17394 bound_to 11000
  140.0487  134.6162  155.8889 LP  0  0  0  0  0  0  0  0  0  0  0  0  # atno 17395 bound_to 11000

$$$$
