AV-unprocessed.smi:3149|AV-procd|sdf|12003|dock7
  -GOLD-   2272017413D 1   1.00000     0.00000
 Structure written by MMmdl.
 37 38  0  0  0  0  0  0  0  0  1 V2000
  152.3436  139.4402  158.8271 C   0  0  0  0  0  0  0  0  0  0  0  0
  151.9152  140.9207  158.8289 C   0  0  2  0  0  0  0  0  0  0  0  0
  151.6022  141.3081  157.4549 N   0  0  0  0  0  0  0  0  0  0  0  0
  150.3030  140.7868  157.0092 C   0  0  0  0  0  0  0  0  0  0  0  0
  150.1880  140.7305  155.4807 C   0  0  0  0  0  0  0  0  0  0  0  0
  151.0379  140.1539  154.8002 O   0  0  0  0  0  0  0  0  0  0  0  0
  149.1374  141.4405  154.8949 N   0  0  0  0  0  0  0  0  0  0  0  0
  148.4379  140.9351  153.7233 C   0  0  0  0  0  0  0  0  0  0  0  0
  147.2162  141.6847  154.2652 C   0  0  0  0  0  0  0  0  0  0  0  0
  147.9125  141.7168  155.6299 C   0  0  0  0  0  0  0  0  0  0  0  0
  153.0172  141.8701  159.3718 C   0  0  2  0  0  0  0  0  0  0  0  0
  153.5213  141.4779  160.7724 C   0  0  0  0  0  0  0  0  0  0  0  0
  152.5565  143.2550  159.3980 N   0  0  0  0  0  0  0  0  0  0  0  0
  152.2831  144.0953  158.3368 C   0  0  0  0  0  0  0  0  0  0  0  0
  151.8841  145.2934  158.8560 C   0  0  0  0  0  0  0  0  0  0  0  0
  151.9412  145.0871  160.2625 C   0  0  0  0  0  0  0  0  0  0  0  0
  152.3413  143.8676  160.5830 N   0  0  0  0  0  0  0  0  0  0  0  0
  152.5182  139.0736  159.8381 H   0  0  0  0  0  0  0  0  0  0  0  0
  153.2618  139.2945  158.2570 H   0  0  0  0  0  0  0  0  0  0  0  0
  151.5800  138.7958  158.3917 H   0  0  0  0  0  0  0  0  0  0  0  0
  151.0298  141.0337  159.4570 H   0  0  0  0  0  0  0  0  0  0  0  0
  151.6198  142.3168  157.3919 H   0  0  0  0  0  0  0  0  0  0  0  0
  150.1456  139.7866  157.4139 H   0  0  0  0  0  0  0  0  0  0  0  0
  149.5056  141.4259  157.3908 H   0  0  0  0  0  0  0  0  0  0  0  0
  148.8218  141.3151  152.7761 H   0  0  0  0  0  0  0  0  0  0  0  0
  148.3089  139.8507  153.7238 H   0  0  0  0  0  0  0  0  0  0  0  0
  147.0850  142.6741  153.8232 H   0  0  0  0  0  0  0  0  0  0  0  0
  146.2916  141.1070  154.2476 H   0  0  0  0  0  0  0  0  0  0  0  0
  147.6037  140.9039  156.2904 H   0  0  0  0  0  0  0  0  0  0  0  0
  147.9016  142.6889  156.1238 H   0  0  0  0  0  0  0  0  0  0  0  0
  153.8728  141.8183  158.6949 H   0  0  0  0  0  0  0  0  0  0  0  0
  154.0220  140.5104  160.7643 H   0  0  0  0  0  0  0  0  0  0  0  0
  152.7029  141.4264  161.4913 H   0  0  0  0  0  0  0  0  0  0  0  0
  154.2434  142.2055  161.1442 H   0  0  0  0  0  0  0  0  0  0  0  0
  152.3964  143.7749  157.3117 H   0  0  0  0  0  0  0  0  0  0  0  0
  151.5949  146.1814  158.3139 H   0  0  0  0  0  0  0  0  0  0  0  0
  151.7047  145.7822  161.0546 H   0  0  0  0  0  0  0  0  0  0  0  0
  1  2  1  0  0  0  0
  1 18  1  0  0  0  0
  1 19  1  0  0  0  0
  1 20  1  0  0  0  0
  2  3  1  0  0  0  0
  2 11  1  0  0  0  0
  2 21  1  0  0  0  0
  3  4  1  0  0  0  0
  3 22  1  0  0  0  0
  4  5  1  0  0  0  0
  4 23  1  0  0  0  0
  4 24  1  0  0  0  0
  5  6  2  0  0  0  0
  5  7  1  0  0  0  0
  7 10  1  0  0  0  0
  7  8  1  0  0  0  0
  8  9  1  0  0  0  0
  8 25  1  0  0  0  0
  8 26  1  0  0  0  0
  9 10  1  0  0  0  0
  9 27  1  0  0  0  0
  9 28  1  0  0  0  0
 10 29  1  0  0  0  0
 10 30  1  0  0  0  0
 11 12  1  0  0  0  0
 11 13  1  0  0  0  0
 11 31  1  0  0  0  0
 12 32  1  0  0  0  0
 12 33  1  0  0  0  0
 12 34  1  0  0  0  0
 13 17  1  0  0  0  0
 13 14  1  0  0  0  0
 14 15  2  0  0  0  0
 14 35  1  0  0  0  0
 15 16  1  0  0  0  0
 15 36  1  0  0  0  0
 16 17  2  0  0  0  0
 16 37  1  0  0  0  0
M  END
> <s_m_source_file>
AV-unprocessed.smi

> <i_m_source_file_index>
3149

> <i_lp_mmshare_version>
43012

> <i_f3d_flags>
0

> <s_epik_input>
bjFbY0hdW2NIXVtjSF1uMVtDQEBIXShbQ0gzXSlbQ0BIXShbQ0gzXSlbTkhdW0NIMl1DKD1PKU4yW0NIMl1bQ0gyXVtDSDJdMg==

> <s_epik_cmdline>
J2VwaWtfcHl0aG9uJywgJy1waCcsICc3LjAnLCAnLXRuJywgJzgnLCAnLW1hJywgJzIwMCcsICctbWV0YWxfYmluZGluZycsICctaW1hZScsICc8aW5maWxlLm1hZT4nLCAnLW9tYWUnLCAnPG91dGZpbGUubWFlPic=

> <r_lp_tautomer_probability>
1

> <r_epik_Ionization_Penalty>
0.918674

> <r_epik_Ionization_Penalty_Charging>
0

> <r_epik_Ionization_Penalty_Neutral>
0.918674

> <r_epik_State_Penalty>
0.958258

> <r_epik_Charging_Adjusted_Penalty>
0.958258

> <i_epik_Tot_Q>
0

> <i_epik_Tot_abs_Q>
0

> <r_epik_Metal_State_Penalty>
0.956881

> <b_epik_Metal_Only>
0

> <s_lp_Force_Field>
OPLS_2005

> <r_lp_Energy>
24.7968

> <b_lp_Chiralities_Consistent>
1

> <s_lp_Variant>
AV-unprocessed.smi:3149-5

> <Gold.Version>
5.8.1

> <Gold.Id.Protein>
6NUR|6NUR_protein|mol2

> <Gold.PLP.Fitness>
46.0783

> <Gold.PLP.PLP>
-44.0956

> <Gold.PLP.part.hbond>
-1.0000

> <Gold.PLP.part.metal>
0.0000

> <Gold.PLP.part.buried>
-3.4825

> <Gold.PLP.part.nonpolar>
-40.1388

> <Gold.PLP.part.repulsive>
0.1430

> <Gold.PLP.ligand.clash>
0.0000

> <Gold.PLP.ligand.torsion>
0.9535

> <Gold.PLP.Chemscore.Hbond>
1.0000

> <Gold.PLP.Chemscore.CHOScore>
0.0000

> <Gold.PLP.Chemscore.Metal>
0.0000

> <Gold.Chemscore.Hbonds>
donor molecule, donor type, donor heavy atom, donor atom, acceptor molecule, acceptor atom, score
      P1  H  7989  7998       L1     6  1.00

> <Gold.PLP.Chemscore.Internal.Correction>
0.8897

> <Gold.Rescore>
     Score         DG    S(hbond)    S(metal)    S(lipo)     H(rot)  DE(clash)    DE(int)     intcor
     14.18     -15.45       0.99        0.00      96.14       1.79       0.00       1.27       ----

> <Gold.Chemscore.Fitness>
14.1756

> <Gold.Chemscore.DG>
-15.4471

> <Gold.Chemscore.ZeroCoef>
-5.4800

> <Gold.Chemscore.Hbond>
0.9862

> <Gold.Chemscore.Metal>
0.0000

> <Gold.Chemscore.Lipo>
96.1448

> <Gold.Chemscore.Internal_Hbond>
0.0000

> <Gold.Chemscore.DEClash>
0.0033

> <Gold.Chemscore.DEInternal>
1.2683

> <Gold.Chemscore.Rot>
1.7874

> <Gold.Chemscore.Internal.Correction>
   9.000000E+99

> <Gold.Chemscore.Hbonds>
donor molecule, donor type, donor heavy atom, donor atom, acceptor molecule, acceptor atom, score
      P1  H  7989  7998       L1     6  0.96

> <Gold.Chemscore.Hbond.Weighted>
-3.2940

> <Gold.Chemscore.Metal.Weighted>
-0.0000

> <Gold.Chemscore.Lipo.Weighted>
-11.2489

> <Gold.Chemscore.Internal_Hbond.Weighted>
0.0000

> <Gold.Chemscore.DEClash.Weighted>
0.0033

> <Gold.Chemscore.DEInternal.Weighted>
1.2683

> <Gold.Chemscore.Rot.Weighted>
4.5758

> <Gold.Chemscore.Internal.Correction.Weighted>
   9.000000E+99

> <Gold.Protein.RotatedTorsions>
[ 6907 6896 6895 6894 ] final  -75.19 input  -60.11 | X-H torsion
[ 7974 7965 7964 7962 ] final   78.11 input  175.53 | X-H torsion
[ 8008 7997 7996 7995 ] final   90.53 input   59.86 | X-H torsion
[ 10167 10162 10161 10158 ] final  -31.23 input  -65.29 | X-H torsion
[ 10718 10713 10712 10709 ] final  172.53 input   66.30 | X-H torsion
[ 10763 10752 10751 10750 ] final  -66.24 input  -60.55 | X-H torsion
[ 11005 11000 10999 10996 ] final   26.28 input  -57.11 | X-H torsion

> <Gold.Protein.ActiveResidues>
 VAL166  LYS551  ARG553  GLY616  TRP617  ASP618  TYR619  PRO620  LYS621  CYS622 
 ASP623  PHE694  ASN695  SER759  ASP760  ASP761  ALA762  ILE779  LEU786  VAL792 
 PHE793  MET794  SER795  GLU796  ALA797  LYS798  CYS799  TRP800  GLU811  SER814 

> <Gold.Protein.RotatedAtoms>
  150.7067  134.4758  159.5446 H   0  0  0  0  0  0  0  0  0  0  0  0  # atno 6907 bound_to 6896
  152.2405  134.8230  160.0470 H   0  0  0  0  0  0  0  0  0  0  0  0  # atno 6908 bound_to 6896
  151.9014  133.3504  159.3869 H   0  0  0  0  0  0  0  0  0  0  0  0  # atno 6909 bound_to 6896
  145.6814  139.2525  143.1812 H   0  0  0  0  0  0  0  0  0  0  0  0  # atno 7974 bound_to 7965
  156.0130  140.3348  155.6960 H   0  0  0  0  0  0  0  0  0  0  0  0  # atno 8008 bound_to 7997
  155.6130  140.0667  157.2718 H   0  0  0  0  0  0  0  0  0  0  0  0  # atno 8009 bound_to 7997
  154.4288  140.1790  156.1280 H   0  0  0  0  0  0  0  0  0  0  0  0  # atno 8010 bound_to 7997
  140.7239  143.3787  151.1641 H   0  0  0  0  0  0  0  0  0  0  0  0  # atno 10167 bound_to 10162
  156.9776  131.0109  151.2889 H   0  0  0  0  0  0  0  0  0  0  0  0  # atno 10718 bound_to 10713
  154.3569  135.6124  153.5671 H   0  0  0  0  0  0  0  0  0  0  0  0  # atno 10763 bound_to 10752
  152.9795  135.5806  154.4678 H   0  0  0  0  0  0  0  0  0  0  0  0  # atno 10764 bound_to 10752
  154.4409  135.2850  155.1826 H   0  0  0  0  0  0  0  0  0  0  0  0  # atno 10765 bound_to 10752
  140.3388  134.2356  155.7692 H   0  0  0  0  0  0  0  0  0  0  0  0  # atno 11005 bound_to 11000
  146.0961  140.7599  142.9571 LP  0  0  0  0  0  0  0  0  0  0  0  0  # atno 17320 bound_to 7965
  144.7025  140.3714  143.7144 LP  0  0  0  0  0  0  0  0  0  0  0  0  # atno 17321 bound_to 7965
  139.7372  143.8980  152.3038 LP  0  0  0  0  0  0  0  0  0  0  0  0  # atno 17342 bound_to 10162
  139.8789  144.7028  150.8900 LP  0  0  0  0  0  0  0  0  0  0  0  0  # atno 17343 bound_to 10162
  157.5549  130.8207  149.8191 LP  0  0  0  0  0  0  0  0  0  0  0  0  # atno 17370 bound_to 10713
  156.0257  130.3780  150.1830 LP  0  0  0  0  0  0  0  0  0  0  0  0  # atno 17371 bound_to 10713
  141.2044  133.7887  157.0288 LP  0  0  0  0  0  0  0  0  0  0  0  0  # atno 17394 bound_to 11000
  140.0799  134.9654  157.1607 LP  0  0  0  0  0  0  0  0  0  0  0  0  # atno 17395 bound_to 11000

$$$$
