AV-unprocessed.smi:2571|AV-procd|sdf|10109|dock7
  -GOLD-   2272014123D 1   1.00000     0.00000
 Structure written by MMmdl.
 38 40  0  0  0  0  0  0  0  0  1 V2000
  155.1802  140.0959  162.4541 C   0  0  0  0  0  0  0  0  0  0  0  0
  154.6602  139.8529  161.1554 O   0  0  0  0  0  0  0  0  0  0  0  0
  153.8414  140.8097  160.5960 C   0  0  0  0  0  0  0  0  0  0  0  0
  153.5914  142.0807  161.1712 C   0  0  0  0  0  0  0  0  0  0  0  0
  152.7490  143.0024  160.5208 C   0  0  0  0  0  0  0  0  0  0  0  0
  152.1527  142.6714  159.2903 C   0  0  0  0  0  0  0  0  0  0  0  0
  152.3934  141.4106  158.7042 C   0  0  0  0  0  0  0  0  0  0  0  0
  151.8058  141.0528  157.3448 C   0  0  1  0  0  0  0  0  0  0  0  0
  152.5139  140.0097  156.7052 O   0  0  0  0  0  0  0  0  0  0  0  0
  150.3194  140.6482  157.4390 C   0  0  0  0  0  0  0  0  0  0  0  0
  149.5905  140.9453  156.2141 N   0  0  0  0  0  0  0  0  0  0  0  0
  150.1592  140.6617  155.0139 N   0  0  0  0  0  0  0  0  0  0  0  0
  149.2945  141.0825  154.0933 C   0  0  0  0  0  0  0  0  0  0  0  0
  148.1340  141.6601  154.6770 C   0  0  0  0  0  0  0  0  0  0  0  0
  146.9194  142.2844  154.1619 C   0  0  0  0  0  0  0  0  0  0  0  0
  146.0548  142.7397  155.0137 N   0  0  0  0  0  0  0  0  0  0  0  0
  146.2682  142.6342  156.3927 N   0  0  0  0  0  0  0  0  0  0  0  0
  145.2106  143.2073  157.2218 C   0  0  0  0  0  0  0  0  0  0  0  0
  147.3551  142.0457  156.9758 C   0  0  0  0  0  0  0  0  0  0  0  0
  147.5076  141.9375  158.1921 O   0  0  0  0  0  0  0  0  0  0  0  0
  148.3599  141.5399  156.0088 C   0  0  0  0  0  0  0  0  0  0  0  0
  153.2284  140.4873  159.3685 C   0  0  0  0  0  0  0  0  0  0  0  0
  155.8194  139.2632  162.7470 H   0  0  0  0  0  0  0  0  0  0  0  0
  154.3831  140.1759  163.1946 H   0  0  0  0  0  0  0  0  0  0  0  0
  155.7880  141.0016  162.4764 H   0  0  0  0  0  0  0  0  0  0  0  0
  154.0367  142.3742  162.1096 H   0  0  0  0  0  0  0  0  0  0  0  0
  152.5679  143.9712  160.9626 H   0  0  0  0  0  0  0  0  0  0  0  0
  151.5267  143.3967  158.7913 H   0  0  0  0  0  0  0  0  0  0  0  0
  151.8935  141.9239  156.6937 H   0  0  0  0  0  0  0  0  0  0  0  0
  152.1896  139.9268  155.8216 H   0  0  0  0  0  0  0  0  0  0  0  0
  150.2383  139.5757  157.6243 H   0  0  0  0  0  0  0  0  0  0  0  0
  149.8328  141.1368  158.2823 H   0  0  0  0  0  0  0  0  0  0  0  0
  149.5409  140.9658  153.0483 H   0  0  0  0  0  0  0  0  0  0  0  0
  146.7506  142.3654  153.0881 H   0  0  0  0  0  0  0  0  0  0  0  0
  144.7478  142.4365  157.8400 H   0  0  0  0  0  0  0  0  0  0  0  0
  144.4236  143.6668  156.6214 H   0  0  0  0  0  0  0  0  0  0  0  0
  145.6143  143.9779  157.8803 H   0  0  0  0  0  0  0  0  0  0  0  0
  153.4251  139.5253  158.9178 H   0  0  0  0  0  0  0  0  0  0  0  0
  1  2  1  0  0  0  0
  1 23  1  0  0  0  0
  1 24  1  0  0  0  0
  1 25  1  0  0  0  0
  2  3  1  0  0  0  0
  3 22  1  0  0  0  0
  3  4  2  0  0  0  0
  4  5  1  0  0  0  0
  4 26  1  0  0  0  0
  5  6  2  0  0  0  0
  5 27  1  0  0  0  0
  6  7  1  0  0  0  0
  6 28  1  0  0  0  0
  7  8  1  0  0  0  0
  7 22  2  0  0  0  0
  8  9  1  0  0  0  0
  8 10  1  0  0  0  0
  8 29  1  0  0  0  0
  9 30  1  0  0  0  0
 10 11  1  0  0  0  0
 10 31  1  0  0  0  0
 10 32  1  0  0  0  0
 11 21  1  0  0  0  0
 11 12  1  0  0  0  0
 12 13  2  0  0  0  0
 13 14  1  0  0  0  0
 13 33  1  0  0  0  0
 14 21  2  0  0  0  0
 14 15  1  0  0  0  0
 15 16  2  0  0  0  0
 15 34  1  0  0  0  0
 16 17  1  0  0  0  0
 17 18  1  0  0  0  0
 17 19  1  0  0  0  0
 18 35  1  0  0  0  0
 18 36  1  0  0  0  0
 18 37  1  0  0  0  0
 19 20  2  0  0  0  0
 19 21  1  0  0  0  0
 22 38  1  0  0  0  0
M  END
> <s_m_source_file>
AV-unprocessed.smi

> <i_m_source_file_index>
2571

> <i_lp_mmshare_version>
43012

> <i_f3d_flags>
0

> <s_epik_input>
W0NIM11PYzFbY0hdW2NIXVtjSF1jKFtjSF0xKVtDQEhdKFtPSF0pW0NIMl1uKG5bY0hdMiljKGMyMyljKD1PKW4oW0NIM10pbltjSF0z

> <s_epik_cmdline>
J2VwaWtfcHl0aG9uJywgJy1waCcsICc3LjAnLCAnLXRuJywgJzgnLCAnLW1hJywgJzIwMCcsICctbWV0YWxfYmluZGluZycsICctaW1hZScsICc8aW5maWxlLm1hZT4nLCAnLW9tYWUnLCAnPG91dGZpbGUubWFlPic=

> <r_lp_tautomer_probability>
1

> <r_epik_Ionization_Penalty>
1.38887e-06

> <r_epik_Ionization_Penalty_Charging>
1.65421e-10

> <r_epik_Ionization_Penalty_Neutral>
1.38871e-06

> <r_epik_State_Penalty>
-0

> <r_epik_Charging_Adjusted_Penalty>
1.65421e-10

> <i_epik_Tot_Q>
0

> <i_epik_Tot_abs_Q>
0

> <r_epik_Metal_State_Penalty>
-0

> <b_epik_Metal_Only>
0

> <s_lp_Force_Field>
OPLS_2005

> <r_lp_Energy>
30.2232

> <b_lp_Chiralities_Consistent>
1

> <s_lp_Variant>
AV-unprocessed.smi:2571-2

> <Gold.Version>
5.8.1

> <Gold.Id.Protein>
6NUR|6NUR_protein|mol2

> <Gold.PLP.Fitness>
44.7208

> <Gold.PLP.PLP>
-40.0659

> <Gold.PLP.part.hbond>
-2.3418

> <Gold.PLP.part.metal>
0.0000

> <Gold.PLP.part.buried>
-2.0256

> <Gold.PLP.part.nonpolar>
-33.5412

> <Gold.PLP.part.repulsive>
0.3591

> <Gold.PLP.ligand.clash>
0.0000

> <Gold.PLP.ligand.torsion>
1.0753

> <Gold.PLP.Chemscore.Hbond>
1.2604

> <Gold.PLP.Chemscore.CHOScore>
1.0000

> <Gold.PLP.Chemscore.Metal>
0.0000

> <Gold.Chemscore.Hbonds>
donor molecule, donor type, donor heavy atom, donor atom, acceptor molecule, acceptor atom, score
      P1  H  7989  7998       L1    12  0.17
      P1  H  7997  8009       L1     9  1.00
      L1  C    13    33       P1  7957  1.00

> <Gold.PLP.Chemscore.Internal.Correction>
0.0242

> <Gold.Rescore>
     Score         DG    S(hbond)    S(metal)    S(lipo)     H(rot)  DE(clash)    DE(int)     intcor
     12.51     -14.67       0.85        0.00     102.71       2.21       0.05       2.10       ----

> <Gold.Chemscore.Fitness>
12.5142

> <Gold.Chemscore.DG>
-14.6710

> <Gold.Chemscore.ZeroCoef>
-5.4800

> <Gold.Chemscore.Hbond>
0.8512

> <Gold.Chemscore.Metal>
0.0000

> <Gold.Chemscore.Lipo>
102.7126

> <Gold.Chemscore.Internal_Hbond>
0.0000

> <Gold.Chemscore.DEClash>
0.0519

> <Gold.Chemscore.DEInternal>
2.1048

> <Gold.Chemscore.Rot>
2.2146

> <Gold.Chemscore.Internal.Correction>
   9.000000E+99

> <Gold.Chemscore.Hbonds>
donor molecule, donor type, donor heavy atom, donor atom, acceptor molecule, acceptor atom, score
      P1  H  7997  8009       L1     9  0.34

> <Gold.Chemscore.Hbond.Weighted>
-2.8429

> <Gold.Chemscore.Metal.Weighted>
-0.0000

> <Gold.Chemscore.Lipo.Weighted>
-12.0174

> <Gold.Chemscore.Internal_Hbond.Weighted>
0.0000

> <Gold.Chemscore.DEClash.Weighted>
0.0519

> <Gold.Chemscore.DEInternal.Weighted>
2.1048

> <Gold.Chemscore.Rot.Weighted>
5.6693

> <Gold.Chemscore.Internal.Correction.Weighted>
   9.000000E+99

> <Gold.Protein.RotatedTorsions>
[ 6907 6896 6895 6894 ] final   98.38 input  -60.11 | X-H torsion
[ 7974 7965 7964 7962 ] final -151.13 input  175.53 | X-H torsion
[ 8008 7997 7996 7995 ] final -167.49 input   59.86 | X-H torsion
[ 10167 10162 10161 10158 ] final   51.13 input  -65.29 | X-H torsion
[ 10718 10713 10712 10709 ] final  -30.50 input   66.30 | X-H torsion
[ 10763 10752 10751 10750 ] final   -9.36 input  -60.55 | X-H torsion
[ 11005 11000 10999 10996 ] final  136.61 input  -57.11 | X-H torsion

> <Gold.Protein.ActiveResidues>
 VAL166  LYS551  ARG553  GLY616  TRP617  ASP618  TYR619  PRO620  LYS621  CYS622 
 ASP623  PHE694  ASN695  SER759  ASP760  ASP761  ALA762  ILE779  LEU786  VAL792 
 PHE793  MET794  SER795  GLU796  ALA797  LYS798  CYS799  TRP800  GLU811  SER814 

> <Gold.Protein.RotatedAtoms>
  152.5410  134.0590  159.8143 H   0  0  0  0  0  0  0  0  0  0  0  0  # atno 6907 bound_to 6896
  151.0720  133.5451  159.2633 H   0  0  0  0  0  0  0  0  0  0  0  0  # atno 6908 bound_to 6896
  151.2310  135.0562  159.9041 H   0  0  0  0  0  0  0  0  0  0  0  0  # atno 6909 bound_to 6896
  144.7868  140.4839  143.5801 H   0  0  0  0  0  0  0  0  0  0  0  0  # atno 7974 bound_to 7965
  155.8784  140.1005  157.1502 H   0  0  0  0  0  0  0  0  0  0  0  0  # atno 8008 bound_to 7997
  154.4003  140.1333  156.4229 H   0  0  0  0  0  0  0  0  0  0  0  0  # atno 8009 bound_to 7997
  155.7670  140.3462  155.5230 H   0  0  0  0  0  0  0  0  0  0  0  0  # atno 8010 bound_to 7997
  140.2651  144.3329  150.6306 H   0  0  0  0  0  0  0  0  0  0  0  0  # atno 10167 bound_to 10162
  156.3990  130.4386  149.7337 H   0  0  0  0  0  0  0  0  0  0  0  0  # atno 10718 bound_to 10713
  153.4537  135.7015  153.6093 H   0  0  0  0  0  0  0  0  0  0  0  0  # atno 10763 bound_to 10752
  153.4417  135.3778  155.2232 H   0  0  0  0  0  0  0  0  0  0  0  0  # atno 10764 bound_to 10752
  154.8728  135.3975  154.3953 H   0  0  0  0  0  0  0  0  0  0  0  0  # atno 10765 bound_to 10752
  140.0058  134.9460  157.0171 H   0  0  0  0  0  0  0  0  0  0  0  0  # atno 11005 bound_to 11000
  145.5901  139.1495  143.3187 LP  0  0  0  0  0  0  0  0  0  0  0  0  # atno 17320 bound_to 7965
  146.2103  140.6028  142.9063 LP  0  0  0  0  0  0  0  0  0  0  0  0  # atno 17321 bound_to 7965
  140.5935  143.2167  151.7209 LP  0  0  0  0  0  0  0  0  0  0  0  0  # atno 17342 bound_to 10162
  139.5005  144.3903  152.0286 LP  0  0  0  0  0  0  0  0  0  0  0  0  # atno 17343 bound_to 10162
  156.4361  130.7838  151.2859 LP  0  0  0  0  0  0  0  0  0  0  0  0  # atno 17370 bound_to 10713
  157.7503  131.0139  150.3443 LP  0  0  0  0  0  0  0  0  0  0  0  0  # atno 17371 bound_to 10713
  140.4645  134.1450  155.7195 LP  0  0  0  0  0  0  0  0  0  0  0  0  # atno 17394 bound_to 11000
  141.1675  133.8673  157.1670 LP  0  0  0  0  0  0  0  0  0  0  0  0  # atno 17395 bound_to 11000

$$$$
