AV-unprocessed.smi:2973|AV-procd|sdf|11345|dock3
  -GOLD-   2272016263D 1   1.00000     0.00000
 Structure written by MMmdl.
 48 50  0  0  0  0  0  0  0  0  2 V2000
  152.9842  142.3477  162.2907 C   0  0  0  0  0  0  0  0  0  0  0  0
  153.0080  143.3890  161.1492 C   0  0  2  0  0  0  0  0  0  0  0  0
  151.7515  144.2850  161.2289 C   0  0  0  0  0  0  0  0  0  0  0  0
  151.7607  145.3859  160.1583 C   0  0  0  0  0  0  0  0  0  0  0  0
  151.8960  144.7913  158.7510 C   0  0  0  0  0  0  0  0  0  0  0  0
  153.1511  143.9083  158.6456 C   0  0  0  0  0  0  0  0  0  0  0  0
  153.2110  142.7871  159.7179 C   0  0  1  0  0  0  0  0  0  0  0  0
  154.5043  142.1322  159.6246 N   0  5  0  0  0  0  0  0  0  0  0  0
  154.3213  140.8322  159.2970 C   0  0  0  0  0  0  0  0  0  0  0  0
  155.1981  139.9829  159.1415 O   0  0  0  0  0  0  0  0  0  0  0  0
  153.0130  140.5493  159.1544 N   0  0  0  0  0  0  0  0  0  0  0  0
  152.4716  139.2228  158.8302 C   0  0  0  0  0  0  0  0  0  0  0  0
  151.4794  139.2436  157.6589 C   0  0  0  0  0  0  0  0  0  0  0  0
  150.9979  140.3023  157.2531 O   0  0  0  0  0  0  0  0  0  0  0  0
  151.1988  138.0523  157.1099 N   0  0  0  0  0  0  0  0  0  0  0  0
  150.2839  137.8366  155.9953 C   0  0  0  0  0  0  0  0  0  0  0  0
  150.6069  138.7582  154.8075 C   0  0  0  0  0  0  0  0  0  0  0  0
  149.4050  139.5770  154.3751 C   0  0  0  0  0  0  0  0  0  0  0  0
  149.3695  140.9717  154.5890 C   0  0  0  0  0  0  0  0  0  0  0  0
  148.2353  141.6877  154.1593 C   0  0  0  0  0  0  0  0  0  0  0  0
  147.1866  140.9861  153.5339 C   0  0  0  0  0  0  0  0  0  0  0  0
  147.3195  139.5934  153.3651 C   0  0  0  0  0  0  0  0  0  0  0  0
  148.4024  138.8974  153.7736 N   0  0  0  0  0  0  0  0  0  0  0  0
  152.2656  141.6339  159.3861 C   0  0  0  0  0  0  0  0  0  0  0  0
  151.0366  141.7105  159.3528 O   0  0  0  0  0  0  0  0  0  0  0  0
  152.1279  141.6774  162.2122 H   0  0  0  0  0  0  0  0  0  0  0  0
  152.9231  142.8389  163.2618 H   0  0  0  0  0  0  0  0  0  0  0  0
  153.8862  141.7358  162.2974 H   0  0  0  0  0  0  0  0  0  0  0  0
  153.8641  144.0371  161.3457 H   0  0  0  0  0  0  0  0  0  0  0  0
  150.8490  143.6821  161.1259 H   0  0  0  0  0  0  0  0  0  0  0  0
  151.6919  144.7481  162.2143 H   0  0  0  0  0  0  0  0  0  0  0  0
  150.8474  145.9773  160.2253 H   0  0  0  0  0  0  0  0  0  0  0  0
  152.5882  146.0712  160.3465 H   0  0  0  0  0  0  0  0  0  0  0  0
  151.0042  144.2150  158.5051 H   0  0  0  0  0  0  0  0  0  0  0  0
  151.9499  145.5944  158.0157 H   0  0  0  0  0  0  0  0  0  0  0  0
  153.2044  143.4809  157.6427 H   0  0  0  0  0  0  0  0  0  0  0  0
  154.0307  144.5470  158.7408 H   0  0  0  0  0  0  0  0  0  0  0  0
  153.2801  138.5336  158.5823 H   0  0  0  0  0  0  0  0  0  0  0  0
  151.9855  138.8018  159.7120 H   0  0  0  0  0  0  0  0  0  0  0  0
  151.6419  137.2347  157.5032 H   0  0  0  0  0  0  0  0  0  0  0  0
  150.3696  136.7941  155.6876 H   0  0  0  0  0  0  0  0  0  0  0  0
  149.2529  137.9792  156.3240 H   0  0  0  0  0  0  0  0  0  0  0  0
  151.4209  139.4373  155.0658 H   0  0  0  0  0  0  0  0  0  0  0  0
  150.9599  138.1665  153.9617 H   0  0  0  0  0  0  0  0  0  0  0  0
  150.1919  141.4827  155.0682 H   0  0  0  0  0  0  0  0  0  0  0  0
  148.1716  142.7560  154.3057 H   0  0  0  0  0  0  0  0  0  0  0  0
  146.3023  141.5024  153.1908 H   0  0  0  0  0  0  0  0  0  0  0  0
  146.5355  139.0233  152.8890 H   0  0  0  0  0  0  0  0  0  0  0  0
  1  2  1  0  0  0  0
  1 26  1  0  0  0  0
  1 27  1  0  0  0  0
  1 28  1  0  0  0  0
  2  7  1  0  0  0  0
  2  3  1  0  0  0  0
  2 29  1  0  0  0  0
  3  4  1  0  0  0  0
  3 30  1  0  0  0  0
  3 31  1  0  0  0  0
  4  5  1  0  0  0  0
  4 32  1  0  0  0  0
  4 33  1  0  0  0  0
  5  6  1  0  0  0  0
  5 34  1  0  0  0  0
  5 35  1  0  0  0  0
  6  7  1  0  0  0  0
  6 36  1  0  0  0  0
  6 37  1  0  0  0  0
  7 24  1  0  0  0  0
  7  8  1  0  0  0  0
  8  9  1  0  0  0  0
  9 10  2  0  0  0  0
  9 11  1  0  0  0  0
 11 12  1  0  0  0  0
 11 24  1  0  0  0  0
 12 13  1  0  0  0  0
 12 38  1  0  0  0  0
 12 39  1  0  0  0  0
 13 14  2  0  0  0  0
 13 15  1  0  0  0  0
 15 16  1  0  0  0  0
 15 40  1  0  0  0  0
 16 17  1  0  0  0  0
 16 41  1  0  0  0  0
 16 42  1  0  0  0  0
 17 18  1  0  0  0  0
 17 43  1  0  0  0  0
 17 44  1  0  0  0  0
 18 23  1  0  0  0  0
 18 19  2  0  0  0  0
 19 20  1  0  0  0  0
 19 45  1  0  0  0  0
 20 21  2  0  0  0  0
 20 46  1  0  0  0  0
 21 22  1  0  0  0  0
 21 47  1  0  0  0  0
 22 23  2  0  0  0  0
 22 48  1  0  0  0  0
 24 25  2  0  0  0  0
M  CHG  1   8  -1
M  END
> <s_m_source_file>
AV-unprocessed.smi

> <i_m_source_file_index>
2973

> <i_lp_mmshare_version>
43012

> <i_f3d_flags>
0

> <s_epik_input>
W0NIMl0xW0NIMl1bQ0gyXVtDSDJdW0NAQEhdKFtDSDNdKVtDQF0xMltOSF1DKD1PKU4oQzI9TylbQ0gyXUMoPU8pW05IXVtDSDJdW0NIMl1jM1tjSF1bY0hdW2NIXVtjSF1uMw==

> <s_epik_cmdline>
J2VwaWtfcHl0aG9uJywgJy1waCcsICc3LjAnLCAnLXRuJywgJzgnLCAnLW1hJywgJzIwMCcsICctbWV0YWxfYmluZGluZycsICctaW1hZScsICc8aW5maWxlLm1hZT4nLCAnLW9tYWUnLCAnPG91dGZpbGUubWFlPic=

> <r_lp_tautomer_probability>
1

> <r_epik_Ionization_Penalty>
6.04175

> <r_epik_Ionization_Penalty_Charging>
6.01728

> <r_epik_Ionization_Penalty_Neutral>
0.0244696

> <r_epik_State_Penalty>
6.03712

> <r_epik_Charging_Adjusted_Penalty>
12.0544

> <i_epik_Tot_Q>
-1

> <i_epik_Tot_abs_Q>
1

> <r_epik_Metal_State_Penalty>
2.01153

> <b_epik_Metal_Only>
1

> <s_lp_Force_Field>
OPLS_2005

> <r_lp_Energy>
12.5421

> <b_lp_Chiralities_Consistent>
1

> <s_lp_Variant>
AV-unprocessed.smi:2973-9

> <Gold.Version>
5.8.1

> <Gold.Id.Protein>
6NUR|6NUR_protein|mol2

> <Gold.PLP.Fitness>
54.7241

> <Gold.PLP.PLP>
-53.1980

> <Gold.PLP.part.hbond>
-2.0000

> <Gold.PLP.part.metal>
0.0000

> <Gold.PLP.part.buried>
-4.0220

> <Gold.PLP.part.nonpolar>
-46.8263

> <Gold.PLP.part.repulsive>
0.2010

> <Gold.PLP.ligand.clash>
0.0000

> <Gold.PLP.ligand.torsion>
0.7564

> <Gold.PLP.Chemscore.Hbond>
1.0000

> <Gold.PLP.Chemscore.CHOScore>
0.0000

> <Gold.PLP.Chemscore.Metal>
0.0000

> <Gold.Chemscore.Hbonds>
donor molecule, donor type, donor heavy atom, donor atom, acceptor molecule, acceptor atom, score
      P1  H  7997  8008       L1    10  1.00

> <Gold.PLP.Chemscore.Internal.Correction>
0.0389

> <Gold.Rescore>
     Score         DG    S(hbond)    S(metal)    S(lipo)     H(rot)  DE(clash)    DE(int)     intcor
     12.08     -18.34       0.42        0.00     137.48       1.81       0.45       5.82       ----

> <Gold.Chemscore.Fitness>
12.0771

> <Gold.Chemscore.DG>
-18.3431

> <Gold.Chemscore.ZeroCoef>
-5.4800

> <Gold.Chemscore.Hbond>
0.4219

> <Gold.Chemscore.Metal>
0.0000

> <Gold.Chemscore.Lipo>
137.4788

> <Gold.Chemscore.Internal_Hbond>
0.0000

> <Gold.Chemscore.DEClash>
0.4494

> <Gold.Chemscore.DEInternal>
5.8165

> <Gold.Chemscore.Rot>
1.8090

> <Gold.Chemscore.Internal.Correction>
   9.000000E+99

> <Gold.Chemscore.Hbonds>
donor molecule, donor type, donor heavy atom, donor atom, acceptor molecule, acceptor atom, score
      P1  H  7997  8008       L1    10  0.25

> <Gold.Chemscore.Hbond.Weighted>
-1.4091

> <Gold.Chemscore.Metal.Weighted>
-0.0000

> <Gold.Chemscore.Lipo.Weighted>
-16.0850

> <Gold.Chemscore.Internal_Hbond.Weighted>
0.0000

> <Gold.Chemscore.DEClash.Weighted>
0.4494

> <Gold.Chemscore.DEInternal.Weighted>
5.8165

> <Gold.Chemscore.Rot.Weighted>
4.6310

> <Gold.Chemscore.Internal.Correction.Weighted>
   9.000000E+99

> <Gold.Protein.RotatedTorsions>
[ 6907 6896 6895 6894 ] final   76.50 input  -60.11 | X-H torsion
[ 7974 7965 7964 7962 ] final  -87.50 input  175.53 | X-H torsion
[ 8008 7997 7996 7995 ] final -136.99 input   59.86 | X-H torsion
[ 10167 10162 10161 10158 ] final -155.99 input  -65.29 | X-H torsion
[ 10718 10713 10712 10709 ] final   11.17 input   66.30 | X-H torsion
[ 10763 10752 10751 10750 ] final  166.49 input  -60.55 | X-H torsion
[ 11005 11000 10999 10996 ] final  -27.69 input  -57.11 | X-H torsion

> <Gold.Protein.ActiveResidues>
 VAL166  LYS551  ARG553  GLY616  TRP617  ASP618  TYR619  PRO620  LYS621  CYS622 
 ASP623  PHE694  ASN695  SER759  ASP760  ASP761  ALA762  ILE779  LEU786  VAL792 
 PHE793  MET794  SER795  GLU796  ALA797  LYS798  CYS799  TRP800  GLU811  SER814 

> <Gold.Protein.RotatedAtoms>
  152.5076  134.3959  159.9399 H   0  0  0  0  0  0  0  0  0  0  0  0  # atno 6907 bound_to 6896
  151.3920  133.3779  159.2730 H   0  0  0  0  0  0  0  0  0  0  0  0  # atno 6908 bound_to 6896
  150.9425  134.8854  159.7680 H   0  0  0  0  0  0  0  0  0  0  0  0  # atno 6909 bound_to 6896
  145.4656  140.9560  143.1945 H   0  0  0  0  0  0  0  0  0  0  0  0  # atno 7974 bound_to 7965
  155.4044  140.0508  157.3035 H   0  0  0  0  0  0  0  0  0  0  0  0  # atno 8008 bound_to 7997
  154.4975  140.2144  155.9376 H   0  0  0  0  0  0  0  0  0  0  0  0  # atno 8009 bound_to 7997
  156.1425  140.3151  155.8523 H   0  0  0  0  0  0  0  0  0  0  0  0  # atno 8010 bound_to 7997
  139.6886  143.9459  152.2373 H   0  0  0  0  0  0  0  0  0  0  0  0  # atno 10167 bound_to 10162
  156.9916  130.6045  149.5686 H   0  0  0  0  0  0  0  0  0  0  0  0  # atno 10718 bound_to 10713
  154.3397  135.2754  155.2429 H   0  0  0  0  0  0  0  0  0  0  0  0  # atno 10763 bound_to 10752
  154.4705  135.5884  153.6321 H   0  0  0  0  0  0  0  0  0  0  0  0  # atno 10764 bound_to 10752
  152.9858  135.6087  154.3597 H   0  0  0  0  0  0  0  0  0  0  0  0  # atno 10765 bound_to 10752
  140.9142  133.7441  156.0712 H   0  0  0  0  0  0  0  0  0  0  0  0  # atno 11005 bound_to 11000
  144.7976  139.6204  143.7086 LP  0  0  0  0  0  0  0  0  0  0  0  0  # atno 17320 bound_to 7965
  146.2426  139.6032  142.9481 LP  0  0  0  0  0  0  0  0  0  0  0  0  # atno 17321 bound_to 7965
  139.9269  144.6765  150.8403 LP  0  0  0  0  0  0  0  0  0  0  0  0  # atno 17342 bound_to 10162
  140.7675  143.3336  151.2357 LP  0  0  0  0  0  0  0  0  0  0  0  0  # atno 17343 bound_to 10162
  156.0205  130.5299  150.8261 LP  0  0  0  0  0  0  0  0  0  0  0  0  # atno 17370 bound_to 10713
  157.5454  131.0942  150.9769 LP  0  0  0  0  0  0  0  0  0  0  0  0  # atno 17371 bound_to 10713
  140.8071  134.3442  157.5423 LP  0  0  0  0  0  0  0  0  0  0  0  0  # atno 17394 bound_to 11000
  139.8763  134.9232  156.3319 LP  0  0  0  0  0  0  0  0  0  0  0  0  # atno 17395 bound_to 11000

$$$$
