AV-unprocessed.smi:1645|AV-procd|sdf|6620|dock5
  -GOLD-   22720 7313D 1   1.00000     0.00000
 Structure written by MMmdl.
 55 58  0  0  0  0  0  0  0  0  4 V2000
  151.3619  136.1219  154.7272 O   0  0  0  0  0  0  0  0  0  0  0  0
  150.3227  135.8734  155.3465 C   0  0  0  0  0  0  0  0  0  0  0  0
  149.8350  136.7374  156.2551 N   0  0  0  0  0  0  0  0  0  0  0  0
  150.3295  137.9963  156.6980 C   0  0  0  0  0  0  0  0  0  0  0  0
  151.3084  138.6171  155.8950 C   0  0  0  0  0  0  0  0  0  0  0  0
  151.8419  139.8666  156.2703 C   0  0  0  0  0  0  0  0  0  0  0  0
  151.3918  140.4979  157.4567 C   0  0  0  0  0  0  0  0  0  0  0  0
  151.8682  141.7466  157.9165 N   0  0  0  0  0  0  0  0  0  0  0  0
  152.4589  141.7588  159.2588 C   0  0  0  0  0  0  0  0  0  0  0  0
  153.3040  143.0225  159.4917 C   0  0  0  0  0  0  0  0  0  0  0  0
  152.4979  144.2919  159.1842 C   0  0  0  0  0  0  0  0  0  0  0  0
  151.9453  144.2227  157.7543 C   0  0  0  0  0  0  0  0  0  0  0  0
  151.1159  142.9451  157.5396 C   0  0  0  0  0  0  0  0  0  0  0  0
  150.4538  139.8606  158.1978 N   0  3  0  0  0  0  0  0  0  0  0  0
  149.9172  138.6636  157.8764 C   0  0  0  0  0  0  0  0  0  0  0  0
  149.5461  134.7617  155.2416 N   0  5  0  0  0  0  0  0  0  0  0  0
  149.6735  133.7415  154.1928 C   0  0  2  0  0  0  0  0  0  0  0  0
  148.3277  133.5734  153.4783 C   0  0  0  0  0  0  0  0  0  0  0  0
  147.5334  132.5555  154.3192 C   0  0  0  0  0  0  0  0  0  0  0  0
  148.5088  131.8381  155.1800 N   0  3  2  0  0  0  0  0  0  0  0  0
  148.1784  131.9409  156.6304 C   0  0  0  0  0  0  0  0  0  0  0  0
  149.3006  131.4006  157.5241 C   0  0  0  0  0  0  0  0  0  0  0  0
  150.5896  132.1846  157.2712 C   0  0  0  0  0  0  0  0  0  0  0  0
  151.0008  132.0381  155.8001 C   0  0  0  0  0  0  0  0  0  0  0  0
  149.8594  132.3260  154.7839 C   0  0  2  0  0  0  0  0  0  0  0  0
  148.9848  136.4327  156.7062 H   0  0  0  0  0  0  0  0  0  0  0  0
  151.6508  138.1403  154.9881 H   0  0  0  0  0  0  0  0  0  0  0  0
  152.5816  140.3212  155.6294 H   0  0  0  0  0  0  0  0  0  0  0  0
  151.6530  141.7104  159.9922 H   0  0  0  0  0  0  0  0  0  0  0  0
  153.0902  140.8873  159.4299 H   0  0  0  0  0  0  0  0  0  0  0  0
  153.6617  143.0466  160.5214 H   0  0  0  0  0  0  0  0  0  0  0  0
  154.1906  142.9908  158.8568 H   0  0  0  0  0  0  0  0  0  0  0  0
  151.6764  144.3910  159.8949 H   0  0  0  0  0  0  0  0  0  0  0  0
  153.1252  145.1757  159.3037 H   0  0  0  0  0  0  0  0  0  0  0  0
  151.3357  145.1020  157.5452 H   0  0  0  0  0  0  0  0  0  0  0  0
  152.7724  144.2440  157.0431 H   0  0  0  0  0  0  0  0  0  0  0  0
  150.8287  142.8965  156.4889 H   0  0  0  0  0  0  0  0  0  0  0  0
  150.1984  142.9901  158.1276 H   0  0  0  0  0  0  0  0  0  0  0  0
  149.1864  138.3039  158.5831 H   0  0  0  0  0  0  0  0  0  0  0  0
  150.4604  133.9723  153.4737 H   0  0  0  0  0  0  0  0  0  0  0  0
  147.7909  134.5127  153.3369 H   0  0  0  0  0  0  0  0  0  0  0  0
  148.5029  133.1558  152.4860 H   0  0  0  0  0  0  0  0  0  0  0  0
  146.7764  133.0672  154.9168 H   0  0  0  0  0  0  0  0  0  0  0  0
  147.0058  131.8470  153.6799 H   0  0  0  0  0  0  0  0  0  0  0  0
  147.9845  132.9811  156.8970 H   0  0  0  0  0  0  0  0  0  0  0  0
  147.2544  131.3937  156.8200 H   0  0  0  0  0  0  0  0  0  0  0  0
  149.0136  131.4892  158.5723 H   0  0  0  0  0  0  0  0  0  0  0  0
  149.4592  130.3391  157.3307 H   0  0  0  0  0  0  0  0  0  0  0  0
  150.4445  133.2344  157.5259 H   0  0  0  0  0  0  0  0  0  0  0  0
  151.3865  131.8176  157.9184 H   0  0  0  0  0  0  0  0  0  0  0  0
  151.8882  132.6386  155.5914 H   0  0  0  0  0  0  0  0  0  0  0  0
  151.3190  131.0044  155.6577 H   0  0  0  0  0  0  0  0  0  0  0  0
  150.1125  131.7136  153.9164 H   0  0  0  0  0  0  0  0  0  0  0  0
  148.4762  130.8563  154.9473 H   0  0  0  0  0  0  0  0  0  0  0  0
  150.1329  140.3100  159.0553 H   0  0  0  0  0  0  0  0  0  0  0  0
  1  2  2  0  0  0  0
  2  3  1  0  0  0  0
  2 16  1  0  0  0  0
  3  4  1  0  0  0  0
  3 26  1  0  0  0  0
  4 15  1  0  0  0  0
  4  5  2  0  0  0  0
  5  6  1  0  0  0  0
  5 27  1  0  0  0  0
  6  7  2  0  0  0  0
  6 28  1  0  0  0  0
  7  8  1  0  0  0  0
  7 14  1  0  0  0  0
  8 13  1  0  0  0  0
  8  9  1  0  0  0  0
  9 10  1  0  0  0  0
  9 29  1  0  0  0  0
  9 30  1  0  0  0  0
 10 11  1  0  0  0  0
 10 31  1  0  0  0  0
 10 32  1  0  0  0  0
 11 12  1  0  0  0  0
 11 33  1  0  0  0  0
 11 34  1  0  0  0  0
 12 13  1  0  0  0  0
 12 35  1  0  0  0  0
 12 36  1  0  0  0  0
 13 37  1  0  0  0  0
 13 38  1  0  0  0  0
 14 15  2  0  0  0  0
 14 55  1  0  0  0  0
 15 39  1  0  0  0  0
 16 17  1  0  0  0  0
 17 25  1  0  0  0  0
 17 18  1  0  0  0  0
 17 40  1  0  0  0  0
 18 19  1  0  0  0  0
 18 41  1  0  0  0  0
 18 42  1  0  0  0  0
 19 20  1  0  0  0  0
 19 43  1  0  0  0  0
 19 44  1  0  0  0  0
 20 25  1  0  0  0  0
 20 21  1  0  0  0  0
 20 54  1  0  0  0  0
 21 22  1  0  0  0  0
 21 45  1  0  0  0  0
 21 46  1  0  0  0  0
 22 23  1  0  0  0  0
 22 47  1  0  0  0  0
 22 48  1  0  0  0  0
 23 24  1  0  0  0  0
 23 49  1  0  0  0  0
 23 50  1  0  0  0  0
 24 25  1  0  0  0  0
 24 51  1  0  0  0  0
 24 52  1  0  0  0  0
 25 53  1  0  0  0  0
M  CHG  1  14   1
M  CHG  1  16  -1
M  CHG  1  20   1
M  END
> <s_m_source_file>
AV-unprocessed.smi

> <i_m_source_file_index>
1645

> <i_lp_mmshare_version>
43012

> <i_f3d_flags>
0

> <s_epik_input>
W0NIMl0xW0NIMl1bQ0gyXVtDSDJdW0NASF0oTjEyKVtDQEBIXShbQ0gyXVtDSDJdMilbTkhdQyg9TylbTkhdYzNbY0hdW2NIXWMobltjSF0zKU40W0NIMl1bQ0gyXVtDSDJdW0NIMl1bQ0gyXTQ=

> <s_epik_cmdline>
J2VwaWtfcHl0aG9uJywgJy1waCcsICc3LjAnLCAnLXRuJywgJzgnLCAnLW1hJywgJzIwMCcsICctbWV0YWxfYmluZGluZycsICctaW1hZScsICc8aW5maWxlLm1hZT4nLCAnLW9tYWUnLCAnPG91dGZpbGUubWFlPic=

> <r_lp_tautomer_probability>
0.999994

> <r_epik_Ionization_Penalty>
8.55589

> <r_epik_Ionization_Penalty_Charging>
8.55589

> <r_epik_Ionization_Penalty_Neutral>
3.8092e-06

> <r_epik_State_Penalty>
8.15703

> <r_epik_Charging_Adjusted_Penalty>
16.7129

> <i_epik_Tot_Q>
1

> <i_epik_Tot_abs_Q>
3

> <r_epik_Metal_State_Penalty>
4.13781

> <b_epik_Metal_Only>
1

> <s_lp_Force_Field>
OPLS_2005

> <r_lp_Energy>
58.0783

> <b_lp_Chiralities_Consistent>
1

> <s_lp_Variant>
AV-unprocessed.smi:1645-21

> <Gold.Version>
5.8.1

> <Gold.Id.Protein>
6NUR|6NUR_protein|mol2

> <Gold.PLP.Fitness>
41.5055

> <Gold.PLP.PLP>
-38.8938

> <Gold.PLP.part.hbond>
-1.0000

> <Gold.PLP.part.metal>
0.0000

> <Gold.PLP.part.buried>
-4.3063

> <Gold.PLP.part.nonpolar>
-34.3673

> <Gold.PLP.part.repulsive>
0.4654

> <Gold.PLP.ligand.clash>
0.0000

> <Gold.PLP.ligand.torsion>
0.4736

> <Gold.PLP.Chemscore.Hbond>
1.0000

> <Gold.PLP.Chemscore.CHOScore>
0.0000

> <Gold.PLP.Chemscore.Metal>
0.0000

> <Gold.Chemscore.Hbonds>
donor molecule, donor type, donor heavy atom, donor atom, acceptor molecule, acceptor atom, score
      P1  H 10752 10763       L1     1  1.00

> <Gold.PLP.Chemscore.Internal.Correction>
0.5589

> <Gold.Rescore>
     Score         DG    S(hbond)    S(metal)    S(lipo)     H(rot)  DE(clash)    DE(int)     intcor
     17.10     -19.00       1.00        0.00     112.75       1.17       0.05       1.85       ----

> <Gold.Chemscore.Fitness>
17.0984

> <Gold.Chemscore.DG>
-19.0049

> <Gold.Chemscore.ZeroCoef>
-5.4800

> <Gold.Chemscore.Hbond>
0.9990

> <Gold.Chemscore.Metal>
0.0000

> <Gold.Chemscore.Lipo>
112.7468

> <Gold.Chemscore.Internal_Hbond>
0.0000

> <Gold.Chemscore.DEClash>
0.0540

> <Gold.Chemscore.DEInternal>
1.8525

> <Gold.Chemscore.Rot>
1.1731

> <Gold.Chemscore.Internal.Correction>
   9.000000E+99

> <Gold.Chemscore.Hbonds>
donor molecule, donor type, donor heavy atom, donor atom, acceptor molecule, acceptor atom, score
      P1  H 10752 10763       L1     1  1.00

> <Gold.Chemscore.Hbond.Weighted>
-3.3367

> <Gold.Chemscore.Metal.Weighted>
-0.0000

> <Gold.Chemscore.Lipo.Weighted>
-13.1914

> <Gold.Chemscore.Internal_Hbond.Weighted>
0.0000

> <Gold.Chemscore.DEClash.Weighted>
0.0540

> <Gold.Chemscore.DEInternal.Weighted>
1.8525

> <Gold.Chemscore.Rot.Weighted>
3.0032

> <Gold.Chemscore.Internal.Correction.Weighted>
   9.000000E+99

> <Gold.Protein.RotatedTorsions>
[ 6907 6896 6895 6894 ] final  -56.02 input  -60.11 | X-H torsion
[ 7974 7965 7964 7962 ] final -164.77 input  175.53 | X-H torsion
[ 8008 7997 7996 7995 ] final   64.29 input   59.86 | X-H torsion
[ 10167 10162 10161 10158 ] final   89.54 input  -65.29 | X-H torsion
[ 10718 10713 10712 10709 ] final   73.09 input   66.30 | X-H torsion
[ 10763 10752 10751 10750 ] final   43.29 input  -60.55 | X-H torsion
[ 11005 11000 10999 10996 ] final  -21.03 input  -57.11 | X-H torsion

> <Gold.Protein.ActiveResidues>
 VAL166  LYS551  ARG553  GLY616  TRP617  ASP618  TYR619  PRO620  LYS621  CYS622 
 ASP623  PHE694  ASN695  SER759  ASP760  ASP761  ALA762  ILE779  LEU786  VAL792 
 PHE793  MET794  SER795  GLU796  ALA797  LYS798  CYS799  TRP800  GLU811  SER814 

> <Gold.Protein.RotatedAtoms>
  150.8202  134.7406  159.6765 H   0  0  0  0  0  0  0  0  0  0  0  0  # atno 6907 bound_to 6896
  152.4318  134.5759  159.9944 H   0  0  0  0  0  0  0  0  0  0  0  0  # atno 6908 bound_to 6896
  151.5945  133.3325  159.3070 H   0  0  0  0  0  0  0  0  0  0  0  0  # atno 6909 bound_to 6896
  144.7288  140.2912  143.6220 H   0  0  0  0  0  0  0  0  0  0  0  0  # atno 7974 bound_to 7965
  155.6437  140.3497  155.4723 H   0  0  0  0  0  0  0  0  0  0  0  0  # atno 8008 bound_to 7997
  155.9905  140.1193  157.0666 H   0  0  0  0  0  0  0  0  0  0  0  0  # atno 8009 bound_to 7997
  154.4218  140.1120  156.5545 H   0  0  0  0  0  0  0  0  0  0  0  0  # atno 8010 bound_to 7997
  139.8562  144.6568  150.9111 H   0  0  0  0  0  0  0  0  0  0  0  0  # atno 10167 bound_to 10162
  157.6532  130.9611  150.1021 H   0  0  0  0  0  0  0  0  0  0  0  0  # atno 10718 bound_to 10713
  152.9864  135.6106  154.3087 H   0  0  0  0  0  0  0  0  0  0  0  0  # atno 10763 bound_to 10752
  154.2804  135.2777  155.2701 H   0  0  0  0  0  0  0  0  0  0  0  0  # atno 10764 bound_to 10752
  154.5043  135.5858  153.6612 H   0  0  0  0  0  0  0  0  0  0  0  0  # atno 10765 bound_to 10752
  140.8522  133.7848  155.9979 H   0  0  0  0  0  0  0  0  0  0  0  0  # atno 11005 bound_to 11000
  145.7853  139.1906  143.2134 LP  0  0  0  0  0  0  0  0  0  0  0  0  # atno 17320 bound_to 7965
  146.0800  140.7774  142.9646 LP  0  0  0  0  0  0  0  0  0  0  0  0  # atno 17321 bound_to 7965
  140.7781  143.3784  151.1522 LP  0  0  0  0  0  0  0  0  0  0  0  0  # atno 17342 bound_to 10162
  139.7417  143.8914  152.3052 LP  0  0  0  0  0  0  0  0  0  0  0  0  # atno 17343 bound_to 10162
  156.1941  130.3656  149.8872 LP  0  0  0  0  0  0  0  0  0  0  0  0  # atno 17370 bound_to 10713
  156.6793  130.8852  151.3573 LP  0  0  0  0  0  0  0  0  0  0  0  0  # atno 17371 bound_to 10713
  140.8777  134.2649  157.5159 LP  0  0  0  0  0  0  0  0  0  0  0  0  # atno 17394 bound_to 11000
  139.8704  134.9599  156.4348 LP  0  0  0  0  0  0  0  0  0  0  0  0  # atno 17395 bound_to 11000

$$$$
