AV-unprocessed.smi:2154|AV-procd|sdf|8777|dock5
  -GOLD-   2272011553D 1   1.00000     0.00000
 Structure written by MMmdl.
 31 32  0  0  0  0  0  0  0  0  2 V2000
  151.9465  144.7250  160.6553 C   0  0  0  0  0  0  0  0  0  0  0  0
  151.6095  144.6760  159.1805 C   0  0  1  0  0  0  0  0  0  0  0  0
  152.6577  145.0016  158.1407 C   0  0  0  0  0  0  0  0  0  0  0  0
  152.1652  143.5824  158.2960 C   0  0  2  0  0  0  0  0  0  0  0  0
  151.3016  142.9363  157.2333 C   0  0  0  0  0  0  0  0  0  0  0  0
  150.9542  141.5524  157.5248 N   0  0  0  0  0  0  0  0  0  0  0  0
  150.9712  140.5327  156.6502 C   0  0  0  0  0  0  0  0  0  0  0  0
  151.3104  140.6655  155.4745 O   0  0  0  0  0  0  0  0  0  0  0  0
  150.5556  139.1385  157.1525 C   0  0  0  0  0  0  0  0  0  0  0  0
  151.4380  138.5573  158.1814 N   0  0  0  0  0  0  0  0  0  0  0  0
  152.6211  139.2519  158.4895 C   0  0  0  0  0  0  0  0  0  0  0  0
  153.4875  138.8038  159.4179 C   0  0  0  0  0  0  0  0  0  0  0  0
  153.1731  137.5618  160.1127 C   0  0  0  0  0  0  0  0  0  0  0  0
  153.9532  137.1370  160.9626 O   0  0  0  0  0  0  0  0  0  0  0  0
  152.0117  136.9257  159.7810 N   0  5  0  0  0  0  0  0  0  0  0  0
  151.1396  137.3934  158.8350 C   0  0  0  0  0  0  0  0  0  0  0  0
  150.0930  136.8080  158.5567 O   0  0  0  0  0  0  0  0  0  0  0  0
  152.9590  144.3618  160.8344 H   0  0  0  0  0  0  0  0  0  0  0  0
  151.2501  144.1035  161.2183 H   0  0  0  0  0  0  0  0  0  0  0  0
  151.8747  145.7490  161.0221 H   0  0  0  0  0  0  0  0  0  0  0  0
  150.5997  145.0133  158.9542 H   0  0  0  0  0  0  0  0  0  0  0  0
  152.3374  145.5567  157.2612 H   0  0  0  0  0  0  0  0  0  0  0  0
  153.6665  145.2198  158.4857 H   0  0  0  0  0  0  0  0  0  0  0  0
  152.8540  142.8886  158.7752 H   0  0  0  0  0  0  0  0  0  0  0  0
  150.4044  143.5464  157.1199 H   0  0  0  0  0  0  0  0  0  0  0  0
  151.8213  142.9666  156.2751 H   0  0  0  0  0  0  0  0  0  0  0  0
  150.6570  141.3490  158.4687 H   0  0  0  0  0  0  0  0  0  0  0  0
  149.5312  139.1973  157.5236 H   0  0  0  0  0  0  0  0  0  0  0  0
  150.5030  138.4729  156.2898 H   0  0  0  0  0  0  0  0  0  0  0  0
  152.7760  140.1651  157.9336 H   0  0  0  0  0  0  0  0  0  0  0  0
  154.3909  139.3507  159.6440 H   0  0  0  0  0  0  0  0  0  0  0  0
  1  2  1  0  0  0  0
  1 18  1  0  0  0  0
  1 19  1  0  0  0  0
  1 20  1  0  0  0  0
  2  4  1  0  0  0  0
  2  3  1  0  0  0  0
  2 21  1  0  0  0  0
  3  4  1  0  0  0  0
  3 22  1  0  0  0  0
  3 23  1  0  0  0  0
  4  5  1  0  0  0  0
  4 24  1  0  0  0  0
  5  6  1  0  0  0  0
  5 25  1  0  0  0  0
  5 26  1  0  0  0  0
  6  7  1  0  0  0  0
  6 27  1  0  0  0  0
  7  8  2  0  0  0  0
  7  9  1  0  0  0  0
  9 10  1  0  0  0  0
  9 28  1  0  0  0  0
  9 29  1  0  0  0  0
 10 16  1  0  0  0  0
 10 11  1  0  0  0  0
 11 12  2  0  0  0  0
 11 30  1  0  0  0  0
 12 13  1  0  0  0  0
 12 31  1  0  0  0  0
 13 14  2  0  0  0  0
 13 15  1  0  0  0  0
 15 16  1  0  0  0  0
 16 17  2  0  0  0  0
M  CHG  1  15  -1
M  END
> <s_m_source_file>
AV-unprocessed.smi

> <i_m_source_file_index>
2154

> <i_lp_mmshare_version>
43012

> <i_f3d_flags>
0

> <s_epik_input>
W0NIM11bQ0BASF0xW0NIMl1bQ0BIXTFbQ0gyXVtOSF1DKD1PKVtDSDJdbjJbY0hdW2NIXWMoPU8pW25IXWMyPU8=

> <s_epik_cmdline>
J2VwaWtfcHl0aG9uJywgJy1waCcsICc3LjAnLCAnLXRuJywgJzgnLCAnLW1hJywgJzIwMCcsICctbWV0YWxfYmluZGluZycsICctaW1hZScsICc8aW5maWxlLm1hZT4nLCAnLW9tYWUnLCAnPG91dGZpbGUubWFlPic=

> <r_lp_tautomer_probability>
0.999537

> <r_epik_Ionization_Penalty>
3.12283

> <r_epik_Ionization_Penalty_Charging>
2.83566e-08

> <r_epik_Ionization_Penalty_Neutral>
3.12283

> <r_epik_State_Penalty>
3.12192

> <r_epik_Charging_Adjusted_Penalty>
3.12192

> <i_epik_Tot_Q>
-1

> <i_epik_Tot_abs_Q>
1

> <r_epik_Metal_State_Penalty>
0.463748

> <b_epik_Metal_Only>
1

> <s_lp_Force_Field>
OPLS_2005

> <r_lp_Energy>
24.2191

> <b_lp_Chiralities_Consistent>
1

> <s_lp_Variant>
AV-unprocessed.smi:2154-8

> <Gold.Version>
5.8.1

> <Gold.Id.Protein>
6NUR|6NUR_protein|mol2

> <Gold.PLP.Fitness>
39.8320

> <Gold.PLP.PLP>
-31.9509

> <Gold.PLP.part.hbond>
-2.0000

> <Gold.PLP.part.metal>
0.0000

> <Gold.PLP.part.buried>
-5.5317

> <Gold.PLP.part.nonpolar>
-24.0182

> <Gold.PLP.part.repulsive>
0.0728

> <Gold.PLP.ligand.clash>
0.0000

> <Gold.PLP.ligand.torsion>
0.5285

> <Gold.PLP.Chemscore.Hbond>
2.8000

> <Gold.PLP.Chemscore.CHOScore>
0.0000

> <Gold.PLP.Chemscore.Metal>
0.0000

> <Gold.Chemscore.Hbonds>
donor molecule, donor type, donor heavy atom, donor atom, acceptor molecule, acceptor atom, score
      P1  H  6896  6909       L1    15  2.00
      P1  H  7989  7998       L1     8  0.80

> <Gold.PLP.Chemscore.Internal.Correction>
0.5381

> <Gold.Rescore>
     Score         DG    S(hbond)    S(metal)    S(lipo)     H(rot)  DE(clash)    DE(int)     intcor
     14.35     -14.96       1.71        0.00      75.27       1.96       0.07       0.54       ----

> <Gold.Chemscore.Fitness>
14.3485

> <Gold.Chemscore.DG>
-14.9641

> <Gold.Chemscore.ZeroCoef>
-5.4800

> <Gold.Chemscore.Hbond>
1.7060

> <Gold.Chemscore.Metal>
0.0000

> <Gold.Chemscore.Lipo>
75.2652

> <Gold.Chemscore.Internal_Hbond>
0.0000

> <Gold.Chemscore.DEClash>
0.0727

> <Gold.Chemscore.DEInternal>
0.5429

> <Gold.Chemscore.Rot>
1.9609

> <Gold.Chemscore.Internal.Correction>
   9.000000E+99

> <Gold.Chemscore.Hbonds>
donor molecule, donor type, donor heavy atom, donor atom, acceptor molecule, acceptor atom, score
      P1  H  6896  6909       L1    15  0.60
      P1  H  7989  7998       L1     8  0.76

> <Gold.Chemscore.Hbond.Weighted>
-5.6981

> <Gold.Chemscore.Metal.Weighted>
-0.0000

> <Gold.Chemscore.Lipo.Weighted>
-8.8060

> <Gold.Chemscore.Internal_Hbond.Weighted>
0.0000

> <Gold.Chemscore.DEClash.Weighted>
0.0727

> <Gold.Chemscore.DEInternal.Weighted>
0.5429

> <Gold.Chemscore.Rot.Weighted>
5.0200

> <Gold.Chemscore.Internal.Correction.Weighted>
   9.000000E+99

> <Gold.Protein.RotatedTorsions>
[ 6907 6896 6895 6894 ] final  123.12 input  -60.11 | X-H torsion
[ 7974 7965 7964 7962 ] final   33.36 input  175.53 | X-H torsion
[ 8008 7997 7996 7995 ] final   42.11 input   59.86 | X-H torsion
[ 10167 10162 10161 10158 ] final  119.85 input  -65.29 | X-H torsion
[ 10718 10713 10712 10709 ] final -141.66 input   66.30 | X-H torsion
[ 10763 10752 10751 10750 ] final  137.82 input  -60.55 | X-H torsion
[ 11005 11000 10999 10996 ] final -154.98 input  -57.11 | X-H torsion

> <Gold.Protein.ActiveResidues>
 VAL166  LYS551  ARG553  GLY616  TRP617  ASP618  TYR619  PRO620  LYS621  CYS622 
 ASP623  PHE694  ASN695  SER759  ASP760  ASP761  ALA762  ILE779  LEU786  VAL792 
 PHE793  MET794  SER795  GLU796  ALA797  LYS798  CYS799  TRP800  GLU811  SER814 

> <Gold.Protein.RotatedAtoms>
  152.4188  133.7082  159.6462 H   0  0  0  0  0  0  0  0  0  0  0  0  # atno 6907 bound_to 6896
  150.8064  133.8491  159.3209 H   0  0  0  0  0  0  0  0  0  0  0  0  # atno 6908 bound_to 6896
  151.6213  135.1033  160.0154 H   0  0  0  0  0  0  0  0  0  0  0  0  # atno 6909 bound_to 6896
  146.1426  139.6407  142.9153 H   0  0  0  0  0  0  0  0  0  0  0  0  # atno 7974 bound_to 7965
  155.2808  140.3372  155.4258 H   0  0  0  0  0  0  0  0  0  0  0  0  # atno 8008 bound_to 7997
  156.2090  140.1762  156.7777 H   0  0  0  0  0  0  0  0  0  0  0  0  # atno 8009 bound_to 7997
  154.5661  140.0678  156.8877 H   0  0  0  0  0  0  0  0  0  0  0  0  # atno 8010 bound_to 7997
  139.6019  144.7059  151.3042 H   0  0  0  0  0  0  0  0  0  0  0  0  # atno 10167 bound_to 10162
  156.3366  130.7615  151.1743 H   0  0  0  0  0  0  0  0  0  0  0  0  # atno 10718 bound_to 10713
  153.8794  135.3046  155.3445 H   0  0  0  0  0  0  0  0  0  0  0  0  # atno 10763 bound_to 10752
  154.7768  135.4857  153.9765 H   0  0  0  0  0  0  0  0  0  0  0  0  # atno 10764 bound_to 10752
  153.1360  135.6814  153.9199 H   0  0  0  0  0  0  0  0  0  0  0  0  # atno 10765 bound_to 10752
  140.6915  134.4036  157.5219 H   0  0  0  0  0  0  0  0  0  0  0  0  # atno 11005 bound_to 11000
  145.5012  141.0437  143.2539 LP  0  0  0  0  0  0  0  0  0  0  0  0  # atno 17320 bound_to 7965
  144.7809  139.6527  143.7154 LP  0  0  0  0  0  0  0  0  0  0  0  0  # atno 17321 bound_to 7965
  140.7256  143.7012  150.7843 LP  0  0  0  0  0  0  0  0  0  0  0  0  # atno 17342 bound_to 10162
  140.0590  143.5173  152.2637 LP  0  0  0  0  0  0  0  0  0  0  0  0  # atno 17343 bound_to 10162
  157.7440  131.0466  150.4903 LP  0  0  0  0  0  0  0  0  0  0  0  0  # atno 17370 bound_to 10713
  156.5077  130.4132  149.6318 LP  0  0  0  0  0  0  0  0  0  0  0  0  # atno 17371 bound_to 10713
  139.8922  134.8760  156.2281 LP  0  0  0  0  0  0  0  0  0  0  0  0  # atno 17394 bound_to 11000
  141.0238  133.7026  156.1312 LP  0  0  0  0  0  0  0  0  0  0  0  0  # atno 17395 bound_to 11000

$$$$
