AV-unprocessed.smi:2881|AV-procd|sdf|11058|dock2
  -GOLD-   2272015523D 1   1.00000     0.00000
 Structure written by MMmdl.
 40 42  0  0  0  0  0  0  0  0  1 V2000
  138.3836  138.6837  152.8874 C   0  0  0  0  0  0  0  0  0  0  0  0
  139.3512  137.6362  153.3234 C   0  0  0  0  0  0  0  0  0  0  0  0
  140.7171  137.6106  153.3100 C   0  0  0  0  0  0  0  0  0  0  0  0
  141.0529  136.3404  153.8664 C   0  0  0  0  0  0  0  0  0  0  0  0
  142.4263  135.7759  154.1228 C   0  0  0  0  0  0  0  0  0  0  0  0
  142.7266  134.6528  153.1282 C   0  0  0  0  0  0  0  0  0  0  0  0
  141.8121  134.1285  152.4934 O   0  0  0  0  0  0  0  0  0  0  0  0
  144.0122  134.2809  153.0215 N   0  0  0  0  0  0  0  0  0  0  0  0
  144.5144  133.1558  152.2349 C   0  0  1  0  0  0  0  0  0  0  0  0
  144.2248  133.3875  150.7363 C   0  0  2  0  0  0  0  0  0  0  0  0
  144.4207  132.0644  149.9741 C   0  0  0  0  0  0  0  0  0  0  0  0
  145.9516  131.8916  149.9932 C   0  0  0  0  0  0  0  0  0  0  0  0
  146.4284  133.1373  150.7662 C   0  0  1  0  0  0  0  0  0  0  0  0
  145.4387  134.1896  150.2826 C   0  0  0  0  0  0  0  0  0  0  0  0
  146.0647  132.9839  152.2638 C   0  0  1  0  0  0  0  0  0  0  0  0
  146.8431  133.9536  153.1846 C   0  0  0  0  0  0  0  0  0  0  0  0
  146.5673  135.2943  152.8380 O   0  0  0  0  0  0  0  0  0  0  0  0
  139.9793  135.6323  154.1891 N   0  0  0  0  0  0  0  0  0  0  0  0
  138.9501  136.4327  153.8561 N   0  0  0  0  0  0  0  0  0  0  0  0
  137.9910  136.1474  153.9945 H   0  0  0  0  0  0  0  0  0  0  0  0
  138.5026  139.5885  153.4836 H   0  0  0  0  0  0  0  0  0  0  0  0
  137.3537  138.3422  152.9957 H   0  0  0  0  0  0  0  0  0  0  0  0
  138.5434  138.9451  151.8412 H   0  0  0  0  0  0  0  0  0  0  0  0
  141.3815  138.3885  152.9635 H   0  0  0  0  0  0  0  0  0  0  0  0
  143.1865  136.5539  154.0392 H   0  0  0  0  0  0  0  0  0  0  0  0
  142.4944  135.3806  155.1367 H   0  0  0  0  0  0  0  0  0  0  0  0
  144.6915  134.7791  153.5784 H   0  0  0  0  0  0  0  0  0  0  0  0
  144.0219  132.2398  152.5673 H   0  0  0  0  0  0  0  0  0  0  0  0
  143.2607  133.8576  150.5373 H   0  0  0  0  0  0  0  0  0  0  0  0
  143.8999  131.2301  150.4450 H   0  0  0  0  0  0  0  0  0  0  0  0
  144.0578  132.1491  148.9492 H   0  0  0  0  0  0  0  0  0  0  0  0
  146.2611  130.9611  150.4701 H   0  0  0  0  0  0  0  0  0  0  0  0
  146.3478  131.8917  148.9770 H   0  0  0  0  0  0  0  0  0  0  0  0
  147.4759  133.3774  150.5824 H   0  0  0  0  0  0  0  0  0  0  0  0
  145.4714  134.3510  149.2038 H   0  0  0  0  0  0  0  0  0  0  0  0
  145.5398  135.1510  150.7882 H   0  0  0  0  0  0  0  0  0  0  0  0
  146.2985  131.9700  152.5930 H   0  0  0  0  0  0  0  0  0  0  0  0
  146.5950  133.7993  154.2349 H   0  0  0  0  0  0  0  0  0  0  0  0
  147.9177  133.8030  153.0792 H   0  0  0  0  0  0  0  0  0  0  0  0
  147.3546  135.6809  152.4860 H   0  0  0  0  0  0  0  0  0  0  0  0
  1  2  1  0  0  0  0
  1 21  1  0  0  0  0
  1 22  1  0  0  0  0
  1 23  1  0  0  0  0
  2 19  1  0  0  0  0
  2  3  2  0  0  0  0
  3  4  1  0  0  0  0
  3 24  1  0  0  0  0
  4  5  1  0  0  0  0
  4 18  2  0  0  0  0
  5  6  1  0  0  0  0
  5 25  1  0  0  0  0
  5 26  1  0  0  0  0
  6  7  2  0  0  0  0
  6  8  1  0  0  0  0
  8  9  1  0  0  0  0
  8 27  1  0  0  0  0
  9 15  1  0  0  0  0
  9 10  1  0  0  0  0
  9 28  1  0  0  0  0
 10 14  1  0  0  0  0
 10 11  1  0  0  0  0
 10 29  1  0  0  0  0
 11 12  1  0  0  0  0
 11 30  1  0  0  0  0
 11 31  1  0  0  0  0
 12 13  1  0  0  0  0
 12 32  1  0  0  0  0
 12 33  1  0  0  0  0
 13 14  1  0  0  0  0
 13 15  1  0  0  0  0
 13 34  1  0  0  0  0
 14 35  1  0  0  0  0
 14 36  1  0  0  0  0
 15 16  1  0  0  0  0
 15 37  1  0  0  0  0
 16 17  1  0  0  0  0
 16 38  1  0  0  0  0
 16 39  1  0  0  0  0
 17 40  1  0  0  0  0
 18 19  1  0  0  0  0
 19 20  1  0  0  0  0
M  END
> <s_m_source_file>
AV-unprocessed.smi

> <i_m_source_file_index>
2881

> <i_lp_mmshare_version>
43012

> <i_f3d_flags>
0

> <s_epik_input>
W0NIM11jMVtjSF1jKG5bbkhdMSlbQ0gyXUMoPU8pW05IXVtDQEhdKFtDQEBIXTIzKVtDQEhdKFtDSDJdW09IXSlbQ0BASF0oW0NIMl0zKVtDSDJdW0NIMl0y

> <s_epik_cmdline>
J2VwaWtfcHl0aG9uJywgJy1waCcsICc3LjAnLCAnLXRuJywgJzgnLCAnLW1hJywgJzIwMCcsICctbWV0YWxfYmluZGluZycsICctaW1hZScsICc8aW5maWxlLm1hZT4nLCAnLW9tYWUnLCAnPG91dGZpbGUubWFlPic=

> <r_lp_tautomer_probability>
0.5

> <r_epik_Ionization_Penalty>
9.4349e-05

> <r_epik_Ionization_Penalty_Charging>
0

> <r_epik_Ionization_Penalty_Neutral>
9.4349e-05

> <r_epik_State_Penalty>
0.41068

> <r_epik_Charging_Adjusted_Penalty>
0.41068

> <i_epik_Tot_Q>
0

> <i_epik_Tot_abs_Q>
0

> <r_epik_Metal_State_Penalty>
0.4107

> <b_epik_Metal_Only>
0

> <s_lp_Force_Field>
OPLS_2005

> <r_lp_Energy>
47.5678

> <b_lp_Chiralities_Consistent>
1

> <s_lp_Variant>
AV-unprocessed.smi:2881-4

> <Gold.Version>
5.8.1

> <Gold.Id.Protein>
6NUR|6NUR_protein|mol2

> <Gold.PLP.Fitness>
38.5824

> <Gold.PLP.PLP>
-33.2442

> <Gold.PLP.part.hbond>
-2.0230

> <Gold.PLP.part.metal>
0.0000

> <Gold.PLP.part.buried>
-3.7161

> <Gold.PLP.part.nonpolar>
-27.5763

> <Gold.PLP.part.repulsive>
0.4805

> <Gold.PLP.ligand.clash>
0.0000

> <Gold.PLP.ligand.torsion>
0.3488

> <Gold.PLP.Chemscore.Hbond>
2.0000

> <Gold.PLP.Chemscore.CHOScore>
0.0000

> <Gold.PLP.Chemscore.Metal>
0.0000

> <Gold.Chemscore.Hbonds>
donor molecule, donor type, donor heavy atom, donor atom, acceptor molecule, acceptor atom, score
      L1  H    17    40       P1  7948  1.00
      P1  H 11000 11005       L1    18  1.00

> <Gold.PLP.Chemscore.Internal.Correction>
0.0357

> <Gold.Rescore>
     Score         DG    S(hbond)    S(metal)    S(lipo)     H(rot)  DE(clash)    DE(int)     intcor
     13.18     -16.24       1.96        0.00      85.90       2.28       0.04       3.02       ----

> <Gold.Chemscore.Fitness>
13.1834

> <Gold.Chemscore.DG>
-16.2379

> <Gold.Chemscore.ZeroCoef>
-5.4800

> <Gold.Chemscore.Hbond>
1.9559

> <Gold.Chemscore.Metal>
0.0000

> <Gold.Chemscore.Lipo>
85.9004

> <Gold.Chemscore.Internal_Hbond>
0.0000

> <Gold.Chemscore.DEClash>
0.0369

> <Gold.Chemscore.DEInternal>
3.0176

> <Gold.Chemscore.Rot>
2.2755

> <Gold.Chemscore.Internal.Correction>
   9.000000E+99

> <Gold.Chemscore.Hbonds>
donor molecule, donor type, donor heavy atom, donor atom, acceptor molecule, acceptor atom, score
      L1  H    17    40       P1  7948  1.00
      P1  H 11000 11005       L1    18  0.93

> <Gold.Chemscore.Hbond.Weighted>
-6.5327

> <Gold.Chemscore.Metal.Weighted>
-0.0000

> <Gold.Chemscore.Lipo.Weighted>
-10.0504

> <Gold.Chemscore.Internal_Hbond.Weighted>
0.0000

> <Gold.Chemscore.DEClash.Weighted>
0.0369

> <Gold.Chemscore.DEInternal.Weighted>
3.0176

> <Gold.Chemscore.Rot.Weighted>
5.8252

> <Gold.Chemscore.Internal.Correction.Weighted>
   9.000000E+99

> <Gold.Protein.RotatedTorsions>
[ 6907 6896 6895 6894 ] final -152.80 input  -60.11 | X-H torsion
[ 7974 7965 7964 7962 ] final   27.95 input  175.53 | X-H torsion
[ 8008 7997 7996 7995 ] final  -34.26 input   59.86 | X-H torsion
[ 10167 10162 10161 10158 ] final   67.13 input  -65.29 | X-H torsion
[ 10718 10713 10712 10709 ] final  -23.16 input   66.30 | X-H torsion
[ 10763 10752 10751 10750 ] final  104.57 input  -60.55 | X-H torsion
[ 11005 11000 10999 10996 ] final   48.91 input  -57.11 | X-H torsion

> <Gold.Protein.ActiveResidues>
 VAL166  LYS551  ARG553  GLY616  TRP617  ASP618  TYR619  PRO620  LYS621  CYS622 
 ASP623  PHE694  ASN695  SER759  ASP760  ASP761  ALA762  ILE779  LEU786  VAL792 
 PHE793  MET794  SER795  GLU796  ALA797  LYS798  CYS799  TRP800  GLU811  SER814 

> <Gold.Protein.RotatedAtoms>
  151.2331  133.4439  159.2604 H   0  0  0  0  0  0  0  0  0  0  0  0  # atno 6907 bound_to 6896
  151.0776  134.9838  159.8350 H   0  0  0  0  0  0  0  0  0  0  0  0  # atno 6908 bound_to 6896
  152.5420  134.2272  159.8864 H   0  0  0  0  0  0  0  0  0  0  0  0  # atno 6909 bound_to 6896
  146.1756  139.7122  142.8937 H   0  0  0  0  0  0  0  0  0  0  0  0  # atno 7974 bound_to 7965
  154.4126  140.1689  156.2020 H   0  0  0  0  0  0  0  0  0  0  0  0  # atno 8008 bound_to 7997
  155.9516  140.3400  155.6389 H   0  0  0  0  0  0  0  0  0  0  0  0  # atno 8009 bound_to 7997
  155.6863  140.0728  157.2456 H   0  0  0  0  0  0  0  0  0  0  0  0  # atno 8010 bound_to 7997
  140.0929  144.4972  150.7087 H   0  0  0  0  0  0  0  0  0  0  0  0  # atno 10167 bound_to 10162
  156.4948  130.4574  149.6734 H   0  0  0  0  0  0  0  0  0  0  0  0  # atno 10718 bound_to 10713
  153.3678  135.3938  155.1766 H   0  0  0  0  0  0  0  0  0  0  0  0  # atno 10763 bound_to 10752
  154.8689  135.3695  154.5017 H   0  0  0  0  0  0  0  0  0  0  0  0  # atno 10764 bound_to 10752
  153.5482  135.7083  153.5664 H   0  0  0  0  0  0  0  0  0  0  0  0  # atno 10765 bound_to 10752
  140.1150  134.4905  155.8645 H   0  0  0  0  0  0  0  0  0  0  0  0  # atno 11005 bound_to 11000
  145.4221  141.0407  143.2958 LP  0  0  0  0  0  0  0  0  0  0  0  0  # atno 17320 bound_to 7965
  144.8231  139.5757  143.6978 LP  0  0  0  0  0  0  0  0  0  0  0  0  # atno 17321 bound_to 7965
  140.7019  143.2441  151.4839 LP  0  0  0  0  0  0  0  0  0  0  0  0  # atno 17342 bound_to 10162
  139.5715  144.1918  152.1842 LP  0  0  0  0  0  0  0  0  0  0  0  0  # atno 17343 bound_to 10162
  156.3390  130.7372  151.2314 LP  0  0  0  0  0  0  0  0  0  0  0  0  # atno 17370 bound_to 10713
  157.7470  131.0409  150.4619 LP  0  0  0  0  0  0  0  0  0  0  0  0  # atno 17371 bound_to 10713
  141.2139  133.6740  156.6778 LP  0  0  0  0  0  0  0  0  0  0  0  0  # atno 17394 bound_to 11000
  140.3041  134.8140  157.4122 LP  0  0  0  0  0  0  0  0  0  0  0  0  # atno 17395 bound_to 11000

$$$$
