AV-unprocessed.smi:2803|AV-procd|sdf|10807|dock7
  -GOLD-   2272015243D 1   1.00000     0.00000
 Structure written by MMmdl.
 42 43  0  0  0  0  0  0  0  0  1 V2000
  149.3714  141.7378  156.9254 C   0  0  0  0  0  0  0  0  0  0  0  0
  148.8200  140.8589  155.7858 C   0  0  1  0  0  0  0  0  0  0  0  0
  149.9295  140.1515  155.1193 C   0  0  0  0  0  0  0  0  0  0  0  0
  150.8007  139.5979  154.5960 N   0  0  0  0  0  0  0  0  0  0  0  0
  147.8607  139.8968  156.3324 N   0  0  0  0  0  0  0  0  0  0  0  0
  148.0899  138.8667  157.1659 C   0  0  0  0  0  0  0  0  0  0  0  0
  149.2029  138.6032  157.6171 O   0  0  0  0  0  0  0  0  0  0  0  0
  146.8952  137.9767  157.5516 C   0  0  0  0  0  0  0  0  0  0  0  0
  147.1696  137.0092  158.6204 N   0  0  0  0  0  0  0  0  0  0  0  0
  147.9714  135.9073  158.4465 C   0  0  0  0  0  0  0  0  0  0  0  0
  148.0177  135.1786  159.5066 N   0  0  0  0  0  0  0  0  0  0  0  0
  147.2164  135.8432  160.3913 N   0  0  0  0  0  0  0  0  0  0  0  0
  146.9924  135.2926  161.7526 C   0  0  0  0  0  0  0  0  0  0  0  0
  147.6479  133.8990  161.8631 C   0  0  0  0  0  0  0  0  0  0  0  0
  145.4851  135.1346  162.0728 C   0  0  0  0  0  0  0  0  0  0  0  0
  147.6018  136.2438  162.8053 C   0  0  0  0  0  0  0  0  0  0  0  0
  146.6946  136.9669  159.8623 C   0  0  0  0  0  0  0  0  0  0  0  0
  145.9259  137.7726  160.3857 O   0  0  0  0  0  0  0  0  0  0  0  0
  148.1859  141.7633  154.7321 C   0  0  0  0  0  0  0  0  0  0  0  0
  146.7102  142.0967  154.7316 C   0  0  0  0  0  0  0  0  0  0  0  0
  147.2875  141.2215  153.6411 C   0  0  0  0  0  0  0  0  0  0  0  0
  150.0657  142.4867  156.5428 H   0  0  0  0  0  0  0  0  0  0  0  0
  149.9125  141.1519  157.6686 H   0  0  0  0  0  0  0  0  0  0  0  0
  148.5687  142.2663  157.4409 H   0  0  0  0  0  0  0  0  0  0  0  0
  146.9065  140.0222  156.0278 H   0  0  0  0  0  0  0  0  0  0  0  0
  146.0595  138.6192  157.8344 H   0  0  0  0  0  0  0  0  0  0  0  0
  146.5710  137.4360  156.6614 H   0  0  0  0  0  0  0  0  0  0  0  0
  148.4669  135.7432  157.4882 H   0  0  0  0  0  0  0  0  0  0  0  0
  147.4536  133.4476  162.8366 H   0  0  0  0  0  0  0  0  0  0  0  0
  148.7306  133.9407  161.7443 H   0  0  0  0  0  0  0  0  0  0  0  0
  147.2588  133.2193  161.1040 H   0  0  0  0  0  0  0  0  0  0  0  0
  144.9927  134.4552  161.3758 H   0  0  0  0  0  0  0  0  0  0  0  0
  144.9613  136.0908  162.0367 H   0  0  0  0  0  0  0  0  0  0  0  0
  145.3354  134.7277  163.0734 H   0  0  0  0  0  0  0  0  0  0  0  0
  147.4130  135.8838  163.8174 H   0  0  0  0  0  0  0  0  0  0  0  0
  147.1722  137.2433  162.7290 H   0  0  0  0  0  0  0  0  0  0  0  0
  148.6824  136.3399  162.7008 H   0  0  0  0  0  0  0  0  0  0  0  0
  148.8423  142.5749  154.4221 H   0  0  0  0  0  0  0  0  0  0  0  0
  146.0746  141.6211  155.4756 H   0  0  0  0  0  0  0  0  0  0  0  0
  146.4266  143.1119  154.4624 H   0  0  0  0  0  0  0  0  0  0  0  0
  147.3872  141.6569  152.6490 H   0  0  0  0  0  0  0  0  0  0  0  0
  147.0287  140.1646  153.6587 H   0  0  0  0  0  0  0  0  0  0  0  0
  1  2  1  0  0  0  0
  1 22  1  0  0  0  0
  1 23  1  0  0  0  0
  1 24  1  0  0  0  0
  2  3  1  0  0  0  0
  2  5  1  0  0  0  0
  2 19  1  0  0  0  0
  3  4  3  0  0  0  0
  5  6  1  0  0  0  0
  5 25  1  0  0  0  0
  6  7  2  0  0  0  0
  6  8  1  0  0  0  0
  8  9  1  0  0  0  0
  8 26  1  0  0  0  0
  8 27  1  0  0  0  0
  9 17  1  0  0  0  0
  9 10  1  0  0  0  0
 10 11  2  0  0  0  0
 10 28  1  0  0  0  0
 11 12  1  0  0  0  0
 12 13  1  0  0  0  0
 12 17  1  0  0  0  0
 13 14  1  0  0  0  0
 13 15  1  0  0  0  0
 13 16  1  0  0  0  0
 14 29  1  0  0  0  0
 14 30  1  0  0  0  0
 14 31  1  0  0  0  0
 15 32  1  0  0  0  0
 15 33  1  0  0  0  0
 15 34  1  0  0  0  0
 16 35  1  0  0  0  0
 16 36  1  0  0  0  0
 16 37  1  0  0  0  0
 17 18  2  0  0  0  0
 19 21  1  0  0  0  0
 19 20  1  0  0  0  0
 19 38  1  0  0  0  0
 20 21  1  0  0  0  0
 20 39  1  0  0  0  0
 20 40  1  0  0  0  0
 21 41  1  0  0  0  0
 21 42  1  0  0  0  0
M  END
> <s_m_source_file>
AV-unprocessed.smi

> <i_m_source_file_index>
2803

> <i_lp_mmshare_version>
43012

> <i_f3d_flags>
0

> <s_epik_input>
W0NIMl0xW0NIMl1bQ0hdMVtDQF0oW0NIM10pKEMjTilbTkhdQyg9TylbQ0gyXW4yW2NIXW5uKGMyPU8pQyhbQ0gzXSkoW0NIM10pW0NIM10=

> <s_epik_cmdline>
J2VwaWtfcHl0aG9uJywgJy1waCcsICc3LjAnLCAnLXRuJywgJzgnLCAnLW1hJywgJzIwMCcsICctbWV0YWxfYmluZGluZycsICctaW1hZScsICc8aW5maWxlLm1hZT4nLCAnLW9tYWUnLCAnPG91dGZpbGUubWFlPic=

> <r_lp_tautomer_probability>
1

> <r_epik_Ionization_Penalty>
4.88615e-06

> <r_epik_Ionization_Penalty_Charging>
4.80261e-08

> <r_epik_Ionization_Penalty_Neutral>
4.83813e-06

> <r_epik_State_Penalty>
-0

> <r_epik_Charging_Adjusted_Penalty>
4.80261e-08

> <i_epik_Tot_Q>
0

> <i_epik_Tot_abs_Q>
0

> <r_epik_Metal_State_Penalty>
-0

> <b_epik_Metal_Only>
0

> <s_lp_Force_Field>
OPLS_2005

> <r_lp_Energy>
32.3619

> <b_lp_Chiralities_Consistent>
1

> <s_lp_Variant>
AV-unprocessed.smi:2803-1

> <Gold.Version>
5.8.1

> <Gold.Id.Protein>
6NUR|6NUR_protein|mol2

> <Gold.PLP.Fitness>
38.3527

> <Gold.PLP.PLP>
-33.1269

> <Gold.PLP.part.hbond>
-2.0000

> <Gold.PLP.part.metal>
0.0000

> <Gold.PLP.part.buried>
-5.6433

> <Gold.PLP.part.nonpolar>
-25.8643

> <Gold.PLP.part.repulsive>
0.1247

> <Gold.PLP.ligand.clash>
0.0000

> <Gold.PLP.ligand.torsion>
1.1596

> <Gold.PLP.Chemscore.Hbond>
2.0000

> <Gold.PLP.Chemscore.CHOScore>
0.0000

> <Gold.PLP.Chemscore.Metal>
0.0000

> <Gold.Chemscore.Hbonds>
donor molecule, donor type, donor heavy atom, donor atom, acceptor molecule, acceptor atom, score
      P1  H  6934  6947       L1    18  0.95
      P1  H  7989  7998       L1     4  1.00

> <Gold.PLP.Chemscore.Internal.Correction>
1.5450

> <Gold.Rescore>
     Score         DG    S(hbond)    S(metal)    S(lipo)     H(rot)  DE(clash)    DE(int)     intcor
     11.64     -13.54       1.82        0.00      61.79       2.05       0.10       1.80       ----

> <Gold.Chemscore.Fitness>
11.6398

> <Gold.Chemscore.DG>
-13.5381

> <Gold.Chemscore.ZeroCoef>
-5.4800

> <Gold.Chemscore.Hbond>
1.8160

> <Gold.Chemscore.Metal>
0.0000

> <Gold.Chemscore.Lipo>
61.7903

> <Gold.Chemscore.Internal_Hbond>
0.0000

> <Gold.Chemscore.DEClash>
0.1030

> <Gold.Chemscore.DEInternal>
1.7953

> <Gold.Chemscore.Rot>
2.0457

> <Gold.Chemscore.Internal.Correction>
   9.000000E+99

> <Gold.Chemscore.Hbonds>
donor molecule, donor type, donor heavy atom, donor atom, acceptor molecule, acceptor atom, score
      P1  H  6934  6947       L1    18  0.21
      P1  H  7989  7998       L1     4  0.55

> <Gold.Chemscore.Hbond.Weighted>
-6.0656

> <Gold.Chemscore.Metal.Weighted>
-0.0000

> <Gold.Chemscore.Lipo.Weighted>
-7.2295

> <Gold.Chemscore.Internal_Hbond.Weighted>
0.0000

> <Gold.Chemscore.DEClash.Weighted>
0.1030

> <Gold.Chemscore.DEInternal.Weighted>
1.7953

> <Gold.Chemscore.Rot.Weighted>
5.2370

> <Gold.Chemscore.Internal.Correction.Weighted>
   9.000000E+99

> <Gold.Protein.RotatedTorsions>
[ 6907 6896 6895 6894 ] final   48.71 input  -60.11 | X-H torsion
[ 7974 7965 7964 7962 ] final  -35.92 input  175.53 | X-H torsion
[ 8008 7997 7996 7995 ] final   30.14 input   59.86 | X-H torsion
[ 10167 10162 10161 10158 ] final -165.97 input  -65.29 | X-H torsion
[ 10718 10713 10712 10709 ] final  151.16 input   66.30 | X-H torsion
[ 10763 10752 10751 10750 ] final -102.27 input  -60.55 | X-H torsion
[ 11005 11000 10999 10996 ] final   -5.11 input  -57.11 | X-H torsion

> <Gold.Protein.ActiveResidues>
 VAL166  LYS551  ARG553  GLY616  TRP617  ASP618  TYR619  PRO620  LYS621  CYS622 
 ASP623  PHE694  ASN695  SER759  ASP760  ASP761  ALA762  ILE779  LEU786  VAL792 
 PHE793  MET794  SER795  GLU796  ALA797  LYS798  CYS799  TRP800  GLU811  SER814 

> <Gold.Protein.RotatedAtoms>
  152.2826  134.7812  160.0393 H   0  0  0  0  0  0  0  0  0  0  0  0  # atno 6907 bound_to 6896
  151.8386  133.3415  159.3644 H   0  0  0  0  0  0  0  0  0  0  0  0  # atno 6908 bound_to 6896
  150.7196  134.5342  159.5759 H   0  0  0  0  0  0  0  0  0  0  0  0  # atno 6909 bound_to 6896
  146.0706  140.6216  142.8954 H   0  0  0  0  0  0  0  0  0  0  0  0  # atno 7974 bound_to 7965
  155.0857  140.3215  155.4588 H   0  0  0  0  0  0  0  0  0  0  0  0  # atno 8008 bound_to 7997
  156.2755  140.2087  156.5931 H   0  0  0  0  0  0  0  0  0  0  0  0  # atno 8009 bound_to 7997
  154.6943  140.0513  157.0382 H   0  0  0  0  0  0  0  0  0  0  0  0  # atno 8010 bound_to 7997
  139.6146  144.0746  152.1875 H   0  0  0  0  0  0  0  0  0  0  0  0  # atno 10167 bound_to 10162
  157.2743  131.0823  151.1577 H   0  0  0  0  0  0  0  0  0  0  0  0  # atno 10718 bound_to 10713
  154.7721  135.4866  153.9671 H   0  0  0  0  0  0  0  0  0  0  0  0  # atno 10763 bound_to 10752
  153.1381  135.6767  153.9077 H   0  0  0  0  0  0  0  0  0  0  0  0  # atno 10764 bound_to 10752
  153.8760  135.3138  155.3422 H   0  0  0  0  0  0  0  0  0  0  0  0  # atno 10765 bound_to 10752
  140.6876  133.9099  155.8596 H   0  0  0  0  0  0  0  0  0  0  0  0  # atno 11005 bound_to 11000
  144.7229  140.4432  143.6994 LP  0  0  0  0  0  0  0  0  0  0  0  0  # atno 17320 bound_to 7965
  145.6398  139.1548  143.2922 LP  0  0  0  0  0  0  0  0  0  0  0  0  # atno 17321 bound_to 7965
  140.0373  144.6035  150.7439 LP  0  0  0  0  0  0  0  0  0  0  0  0  # atno 17342 bound_to 10162
  140.7342  143.2726  151.3840 LP  0  0  0  0  0  0  0  0  0  0  0  0  # atno 17343 bound_to 10162
  157.3037  130.6855  149.6177 LP  0  0  0  0  0  0  0  0  0  0  0  0  # atno 17370 bound_to 10713
  155.9663  130.4384  150.5217 LP  0  0  0  0  0  0  0  0  0  0  0  0  # atno 17371 bound_to 10713
  141.0268  134.0812  157.4060 LP  0  0  0  0  0  0  0  0  0  0  0  0  # atno 17394 bound_to 11000
  139.8933  135.0129  156.6892 LP  0  0  0  0  0  0  0  0  0  0  0  0  # atno 17395 bound_to 11000

$$$$
