AV-unprocessed.smi:2720|AV-procd|sdf|10499|dock8
  -GOLD-   2272014543D 1   1.00000     0.00000
 Structure written by MMmdl.
 32 33  0  0  0  0  0  0  0  0  3 V2000
  149.4621  140.0126  156.8433 O   0  0  0  0  0  0  0  0  0  0  0  0
  150.0288  140.6226  155.6970 C   0  0  0  0  0  0  0  0  0  0  0  0
  150.6504  141.9669  156.1621 C   0  0  0  0  0  0  0  0  0  0  0  0
  151.3461  141.9268  157.5153 C   0  0  0  0  0  0  0  0  0  0  0  0
  151.1920  142.9855  158.4392 C   0  0  0  0  0  0  0  0  0  0  0  0
  151.8536  142.9167  159.6825 C   0  0  0  0  0  0  0  0  0  0  0  0
  152.6245  141.8469  159.9764 N   0  3  0  0  0  0  0  0  0  0  0  0
  152.8011  140.8155  159.1221 C   0  0  0  0  0  0  0  0  0  0  0  0
  152.1651  140.8298  157.8639 C   0  0  0  0  0  0  0  0  0  0  0  0
  151.1288  139.6832  155.1492 C   0  0  0  0  0  0  0  0  0  0  0  0
  150.5635  138.3629  154.5927 C   0  0  0  0  0  0  0  0  0  0  0  0
  149.5318  138.6243  153.5679 N   0  3  0  0  0  0  0  0  0  0  0  0
  148.4121  139.4400  154.0818 C   0  0  0  0  0  0  0  0  0  0  0  0
  148.9159  140.7888  154.6308 C   0  0  0  0  0  0  0  0  0  0  0  0
  149.2497  139.1146  156.6367 H   0  0  0  0  0  0  0  0  0  0  0  0
  151.3432  142.3511  155.4115 H   0  0  0  0  0  0  0  0  0  0  0  0
  149.8623  142.7177  156.2337 H   0  0  0  0  0  0  0  0  0  0  0  0
  150.5749  143.8401  158.2023 H   0  0  0  0  0  0  0  0  0  0  0  0
  151.7907  143.6797  160.4447 H   0  0  0  0  0  0  0  0  0  0  0  0
  153.4412  140.0169  159.4678 H   0  0  0  0  0  0  0  0  0  0  0  0
  152.3044  140.0073  157.1771 H   0  0  0  0  0  0  0  0  0  0  0  0
  151.6716  140.1896  154.3495 H   0  0  0  0  0  0  0  0  0  0  0  0
  151.8661  139.4703  155.9245 H   0  0  0  0  0  0  0  0  0  0  0  0
  151.3621  137.7697  154.1468 H   0  0  0  0  0  0  0  0  0  0  0  0
  150.1323  137.7602  155.3931 H   0  0  0  0  0  0  0  0  0  0  0  0
  149.9596  139.1114  152.7933 H   0  0  0  0  0  0  0  0  0  0  0  0
  147.6960  139.6052  153.2764 H   0  0  0  0  0  0  0  0  0  0  0  0
  147.8888  138.8815  154.8591 H   0  0  0  0  0  0  0  0  0  0  0  0
  148.0685  141.3428  155.0367 H   0  0  0  0  0  0  0  0  0  0  0  0
  149.2997  141.3837  153.8006 H   0  0  0  0  0  0  0  0  0  0  0  0
  149.1690  137.7415  153.2366 H   0  0  0  0  0  0  0  0  0  0  0  0
  153.0950  141.8173  160.8815 H   0  0  0  0  0  0  0  0  0  0  0  0
  1  2  1  0  0  0  0
  1 15  1  0  0  0  0
  2 14  1  0  0  0  0
  2  3  1  0  0  0  0
  2 10  1  0  0  0  0
  3  4  1  0  0  0  0
  3 16  1  0  0  0  0
  3 17  1  0  0  0  0
  4  9  1  0  0  0  0
  4  5  2  0  0  0  0
  5  6  1  0  0  0  0
  5 18  1  0  0  0  0
  6  7  2  0  0  0  0
  6 19  1  0  0  0  0
  7  8  1  0  0  0  0
  7 32  1  0  0  0  0
  8  9  2  0  0  0  0
  8 20  1  0  0  0  0
  9 21  1  0  0  0  0
 10 11  1  0  0  0  0
 10 22  1  0  0  0  0
 10 23  1  0  0  0  0
 11 12  1  0  0  0  0
 11 24  1  0  0  0  0
 11 25  1  0  0  0  0
 12 13  1  0  0  0  0
 12 26  1  0  0  0  0
 12 31  1  0  0  0  0
 13 14  1  0  0  0  0
 13 27  1  0  0  0  0
 13 28  1  0  0  0  0
 14 29  1  0  0  0  0
 14 30  1  0  0  0  0
M  CHG  1   7   1
M  CHG  1  12   1
M  END
> <s_m_source_file>
AV-unprocessed.smi

> <i_m_source_file_index>
2720

> <i_lp_mmshare_version>
43012

> <i_f3d_flags>
0

> <s_epik_input>
W0NIMl0xW0NIMl1bTkhdW0NIMl1bQ0gyXUMxKFtPSF0pW0NIMl1jMltjSF1bY0hdbltjSF1bY0hdMg==

> <s_epik_cmdline>
J2VwaWtfcHl0aG9uJywgJy1waCcsICc3LjAnLCAnLXRuJywgJzgnLCAnLW1hJywgJzIwMCcsICctbWV0YWxfYmluZGluZycsICctaW1hZScsICc8aW5maWxlLm1hZT4nLCAnLW9tYWUnLCAnPG91dGZpbGUubWFlPic=

> <r_epik_Ionization_Penalty>
1.30405

> <r_epik_Ionization_Penalty_Charging>
1.30405

> <r_epik_Ionization_Penalty_Neutral>
5.30574e-07

> <r_epik_State_Penalty>
1.37793

> <r_epik_Charging_Adjusted_Penalty>
2.68198

> <i_epik_Tot_Q>
2

> <i_epik_Tot_abs_Q>
2

> <r_epik_Metal_State_Penalty>
5.40982

> <b_epik_Metal_Only>
0

> <s_lp_Force_Field>
OPLS_2005

> <r_lp_Energy>
28.3784

> <b_lp_Chiralities_Consistent>
1

> <s_lp_Variant>
AV-unprocessed.smi:2720-2

> <Gold.Version>
5.8.1

> <Gold.Id.Protein>
6NUR|6NUR_protein|mol2

> <Gold.PLP.Fitness>
35.6911

> <Gold.PLP.PLP>
-28.1270

> <Gold.PLP.part.hbond>
-2.0000

> <Gold.PLP.part.metal>
0.0000

> <Gold.PLP.part.buried>
-3.1330

> <Gold.PLP.part.nonpolar>
-23.1958

> <Gold.PLP.part.repulsive>
0.1742

> <Gold.PLP.ligand.clash>
0.0000

> <Gold.PLP.ligand.torsion>
0.5397

> <Gold.PLP.Chemscore.Hbond>
2.8800

> <Gold.PLP.Chemscore.CHOScore>
0.0000

> <Gold.PLP.Chemscore.Metal>
0.0000

> <Gold.Chemscore.Hbonds>
donor molecule, donor type, donor heavy atom, donor atom, acceptor molecule, acceptor atom, score
      L1  H    12    26       P1  7957  0.90
      L1  H    12    31       P1  7948  2.00

> <Gold.PLP.Chemscore.Internal.Correction>
0.0035

> <Gold.Rescore>
     Score         DG    S(hbond)    S(metal)    S(lipo)     H(rot)  DE(clash)    DE(int)     intcor
     16.27     -16.73       1.72        0.00      83.53       1.67       0.09       0.36       ----

> <Gold.Chemscore.Fitness>
16.2682

> <Gold.Chemscore.DG>
-16.7262

> <Gold.Chemscore.ZeroCoef>
-5.4800

> <Gold.Chemscore.Hbond>
1.7205

> <Gold.Chemscore.Metal>
0.0000

> <Gold.Chemscore.Lipo>
83.5276

> <Gold.Chemscore.Internal_Hbond>
0.0000

> <Gold.Chemscore.DEClash>
0.0950

> <Gold.Chemscore.DEInternal>
0.3631

> <Gold.Chemscore.Rot>
1.6691

> <Gold.Chemscore.Internal.Correction>
   9.000000E+99

> <Gold.Chemscore.Hbonds>
donor molecule, donor type, donor heavy atom, donor atom, acceptor molecule, acceptor atom, score
      L1  H    12    26       P1  7957  0.78
      L1  H    12    31       P1  7948  0.90

> <Gold.Chemscore.Hbond.Weighted>
-5.7463

> <Gold.Chemscore.Metal.Weighted>
-0.0000

> <Gold.Chemscore.Lipo.Weighted>
-9.7727

> <Gold.Chemscore.Internal_Hbond.Weighted>
0.0000

> <Gold.Chemscore.DEClash.Weighted>
0.0950

> <Gold.Chemscore.DEInternal.Weighted>
0.3631

> <Gold.Chemscore.Rot.Weighted>
4.2728

> <Gold.Chemscore.Internal.Correction.Weighted>
   9.000000E+99

> <Gold.Protein.RotatedTorsions>
[ 6907 6896 6895 6894 ] final  132.69 input  -60.11 | X-H torsion
[ 7974 7965 7964 7962 ] final  -43.56 input  175.53 | X-H torsion
[ 8008 7997 7996 7995 ] final   95.53 input   59.86 | X-H torsion
[ 10167 10162 10161 10158 ] final  -61.23 input  -65.29 | X-H torsion
[ 10718 10713 10712 10709 ] final    7.73 input   66.30 | X-H torsion
[ 10763 10752 10751 10750 ] final  -14.04 input  -60.55 | X-H torsion
[ 11005 11000 10999 10996 ] final  169.49 input  -57.11 | X-H torsion

> <Gold.Protein.ActiveResidues>
 VAL166  LYS551  ARG553  GLY616  TRP617  ASP618  TYR619  PRO620  LYS621  CYS622 
 ASP623  PHE694  ASN695  SER759  ASP760  ASP761  ALA762  ILE779  LEU786  VAL792 
 PHE793  MET794  SER795  GLU796  ALA797  LYS798  CYS799  TRP800  GLU811  SER814 

> <Gold.Protein.RotatedAtoms>
  152.3298  133.5945  159.5801 H   0  0  0  0  0  0  0  0  0  0  0  0  # atno 6907 bound_to 6896
  150.7417  133.9885  159.3608 H   0  0  0  0  0  0  0  0  0  0  0  0  # atno 6908 bound_to 6896
  151.7761  135.0774  160.0418 H   0  0  0  0  0  0  0  0  0  0  0  0  # atno 6909 bound_to 6896
  146.0007  140.7077  142.9272 H   0  0  0  0  0  0  0  0  0  0  0  0  # atno 7974 bound_to 7965
  156.0699  140.3285  155.7563 H   0  0  0  0  0  0  0  0  0  0  0  0  # atno 8008 bound_to 7997
  155.5322  140.0594  157.2904 H   0  0  0  0  0  0  0  0  0  0  0  0  # atno 8009 bound_to 7997
  154.4524  140.1925  156.0496 H   0  0  0  0  0  0  0  0  0  0  0  0  # atno 8010 bound_to 7997
  140.6019  143.2364  151.5908 H   0  0  0  0  0  0  0  0  0  0  0  0  # atno 10167 bound_to 10162
  156.9413  130.5862  149.5652 H   0  0  0  0  0  0  0  0  0  0  0  0  # atno 10718 bound_to 10713
  153.5222  135.7015  153.5725 H   0  0  0  0  0  0  0  0  0  0  0  0  # atno 10763 bound_to 10752
  153.3769  135.3930  155.1829 H   0  0  0  0  0  0  0  0  0  0  0  0  # atno 10764 bound_to 10752
  154.8693  135.3825  154.4712 H   0  0  0  0  0  0  0  0  0  0  0  0  # atno 10765 bound_to 10752
  140.2984  134.7616  157.3896 H   0  0  0  0  0  0  0  0  0  0  0  0  # atno 11005 bound_to 11000
  144.6918  140.3229  143.7229 LP  0  0  0  0  0  0  0  0  0  0  0  0  # atno 17320 bound_to 7965
  145.7491  139.1788  143.2332 LP  0  0  0  0  0  0  0  0  0  0  0  0  # atno 17321 bound_to 7965
  139.5297  144.2952  152.1119 LP  0  0  0  0  0  0  0  0  0  0  0  0  # atno 17342 bound_to 10162
  140.2134  144.4539  150.6375 LP  0  0  0  0  0  0  0  0  0  0  0  0  # atno 17343 bound_to 10162
  156.0403  130.5486  150.8755 LP  0  0  0  0  0  0  0  0  0  0  0  0  # atno 17370 bound_to 10713
  157.5783  131.0946  150.9311 LP  0  0  0  0  0  0  0  0  0  0  0  0  # atno 17371 bound_to 10713
  140.1132  134.5318  155.8248 LP  0  0  0  0  0  0  0  0  0  0  0  0  # atno 17394 bound_to 11000
  141.2133  133.6731  156.6728 LP  0  0  0  0  0  0  0  0  0  0  0  0  # atno 17395 bound_to 11000

$$$$
