AV-unprocessed.smi:3116|AV-procd|sdf|11870|dock8
  -GOLD-   2272017253D 1   1.00000     0.00000
 Structure written by MMmdl.
 33 33  0  0  0  0  0  0  0  0  1 V2000
  149.0240  141.8664  157.9462 C   0  0  0  0  0  0  0  0  0  0  0  0
  150.2925  141.6502  157.0950 C   0  0  2  0  0  0  0  0  0  0  0  0
  151.2415  142.7658  157.2392 N   0  0  0  0  0  0  0  0  0  0  0  0
  151.4905  143.1680  158.6219 C   0  0  2  0  0  0  0  0  0  0  0  0
  151.7171  144.6926  158.6291 C   0  0  0  0  0  0  0  0  0  0  0  0
  152.6998  142.3587  159.1624 C   0  0  2  0  0  0  0  0  0  0  0  0
  152.5847  140.8522  158.8573 C   0  0  0  0  0  0  0  0  0  0  0  0
  152.9066  142.5686  160.5905 N   0  0  0  0  0  0  0  0  0  0  0  0
  152.2763  143.4749  161.4183 C   0  0  0  0  0  0  0  0  0  0  0  0
  152.7831  143.3035  162.6745 C   0  0  0  0  0  0  0  0  0  0  0  0
  153.7322  142.2557  162.5155 C   0  0  0  0  0  0  0  0  0  0  0  0
  153.8034  141.8171  161.2694 N   0  0  0  0  0  0  0  0  0  0  0  0
  149.9565  141.4488  155.6106 C   0  0  0  0  0  0  0  0  0  0  0  0
  149.2232  142.4005  155.0273 N   0  0  0  0  0  0  0  0  0  0  0  0
  150.3341  140.4518  154.9971 O   0  0  0  0  0  0  0  0  0  0  0  0
  148.2941  141.0737  157.7771 H   0  0  0  0  0  0  0  0  0  0  0  0
  148.5419  142.8174  157.7150 H   0  0  0  0  0  0  0  0  0  0  0  0
  149.2523  141.8624  159.0120 H   0  0  0  0  0  0  0  0  0  0  0  0
  150.7768  140.7296  157.4264 H   0  0  0  0  0  0  0  0  0  0  0  0
  150.9650  143.5677  156.6909 H   0  0  0  0  0  0  0  0  0  0  0  0
  150.6265  142.9511  159.2524 H   0  0  0  0  0  0  0  0  0  0  0  0
  151.8256  145.0770  159.6433 H   0  0  0  0  0  0  0  0  0  0  0  0
  150.8777  145.2235  158.1796 H   0  0  0  0  0  0  0  0  0  0  0  0
  152.6157  144.9637  158.0738 H   0  0  0  0  0  0  0  0  0  0  0  0
  153.6009  142.7247  158.6668 H   0  0  0  0  0  0  0  0  0  0  0  0
  152.5600  140.6646  157.7839 H   0  0  0  0  0  0  0  0  0  0  0  0
  151.6783  140.4244  159.2871 H   0  0  0  0  0  0  0  0  0  0  0  0
  153.4360  140.3043  159.2622 H   0  0  0  0  0  0  0  0  0  0  0  0
  151.5256  144.1577  161.0488 H   0  0  0  0  0  0  0  0  0  0  0  0
  152.5160  143.8439  163.5705 H   0  0  0  0  0  0  0  0  0  0  0  0
  154.3662  141.8029  163.2634 H   0  0  0  0  0  0  0  0  0  0  0  0
  148.9774  142.3175  154.0516 H   0  0  0  0  0  0  0  0  0  0  0  0
  148.9206  143.2003  155.5640 H   0  0  0  0  0  0  0  0  0  0  0  0
  1  2  1  0  0  0  0
  1 16  1  0  0  0  0
  1 17  1  0  0  0  0
  1 18  1  0  0  0  0
  2  3  1  0  0  0  0
  2 13  1  0  0  0  0
  2 19  1  0  0  0  0
  3  4  1  0  0  0  0
  3 20  1  0  0  0  0
  4  5  1  0  0  0  0
  4  6  1  0  0  0  0
  4 21  1  0  0  0  0
  5 22  1  0  0  0  0
  5 23  1  0  0  0  0
  5 24  1  0  0  0  0
  6  7  1  0  0  0  0
  6  8  1  0  0  0  0
  6 25  1  0  0  0  0
  7 26  1  0  0  0  0
  7 27  1  0  0  0  0
  7 28  1  0  0  0  0
  8 12  1  0  0  0  0
  8  9  1  0  0  0  0
  9 10  2  0  0  0  0
  9 29  1  0  0  0  0
 10 11  1  0  0  0  0
 10 30  1  0  0  0  0
 11 12  2  0  0  0  0
 11 31  1  0  0  0  0
 13 14  1  0  0  0  0
 13 15  2  0  0  0  0
 14 32  1  0  0  0  0
 14 33  1  0  0  0  0
M  END
> <s_m_source_file>
AV-unprocessed.smi

> <i_m_source_file_index>
3116

> <i_lp_mmshare_version>
43012

> <i_f3d_flags>
0

> <s_epik_input>
W05IMl1DKD1PKVtDQEhdKFtDSDNdKVtOSF1bQ0BIXShbQ0gzXSlbQ0BIXShbQ0gzXSluMVtjSF1bY0hdW2NIXW4x

> <s_epik_cmdline>
J2VwaWtfcHl0aG9uJywgJy1waCcsICc3LjAnLCAnLXRuJywgJzgnLCAnLW1hJywgJzIwMCcsICctbWV0YWxfYmluZGluZycsICctaW1hZScsICc8aW5maWxlLm1hZT4nLCAnLW9tYWUnLCAnPG91dGZpbGUubWFlPic=

> <r_lp_tautomer_probability>
1

> <r_epik_Ionization_Penalty>
0.865977

> <r_epik_Ionization_Penalty_Charging>
0

> <r_epik_Ionization_Penalty_Neutral>
0.865977

> <r_epik_State_Penalty>
0.901888

> <r_epik_Charging_Adjusted_Penalty>
0.901888

> <i_epik_Tot_Q>
0

> <i_epik_Tot_abs_Q>
0

> <r_epik_Metal_State_Penalty>
0.901181

> <b_epik_Metal_Only>
0

> <s_lp_Force_Field>
OPLS_2005

> <r_lp_Energy>
9.43225

> <b_lp_Chiralities_Consistent>
1

> <s_lp_Variant>
AV-unprocessed.smi:3116-9

> <Gold.Version>
5.8.1

> <Gold.Id.Protein>
6NUR|6NUR_protein|mol2

> <Gold.PLP.Fitness>
42.3215

> <Gold.PLP.PLP>
-38.0651

> <Gold.PLP.part.hbond>
-1.9100

> <Gold.PLP.part.metal>
0.0000

> <Gold.PLP.part.buried>
-4.3427

> <Gold.PLP.part.nonpolar>
-31.6913

> <Gold.PLP.part.repulsive>
0.3052

> <Gold.PLP.ligand.clash>
0.0195

> <Gold.PLP.ligand.torsion>
0.9289

> <Gold.PLP.Chemscore.Hbond>
2.0000

> <Gold.PLP.Chemscore.CHOScore>
0.0000

> <Gold.PLP.Chemscore.Metal>
0.0000

> <Gold.Chemscore.Hbonds>
donor molecule, donor type, donor heavy atom, donor atom, acceptor molecule, acceptor atom, score
      L1  H    14    33       P1  8028  0.87
      P1  H  7989  7998       L1    15  1.00

> <Gold.PLP.Chemscore.Internal.Correction>
0.1338

> <Gold.Rescore>
     Score         DG    S(hbond)    S(metal)    S(lipo)     H(rot)  DE(clash)    DE(int)     intcor
     12.98     -15.15       1.68        0.00      86.89       2.38       0.05       2.12       ----

> <Gold.Chemscore.Fitness>
12.9792

> <Gold.Chemscore.DG>
-15.1508

> <Gold.Chemscore.ZeroCoef>
-5.4800

> <Gold.Chemscore.Hbond>
1.6786

> <Gold.Chemscore.Metal>
0.0000

> <Gold.Chemscore.Lipo>
86.8922

> <Gold.Chemscore.Internal_Hbond>
0.0000

> <Gold.Chemscore.DEClash>
0.0484

> <Gold.Chemscore.DEInternal>
2.1232

> <Gold.Chemscore.Rot>
2.3836

> <Gold.Chemscore.Internal.Correction>
   9.000000E+99

> <Gold.Chemscore.Hbonds>
donor molecule, donor type, donor heavy atom, donor atom, acceptor molecule, acceptor atom, score
      L1  H    14    33       P1  8028  0.82
      P1  H  7989  7998       L1    15  0.77

> <Gold.Chemscore.Hbond.Weighted>
-5.6064

> <Gold.Chemscore.Metal.Weighted>
-0.0000

> <Gold.Chemscore.Lipo.Weighted>
-10.1664

> <Gold.Chemscore.Internal_Hbond.Weighted>
0.0000

> <Gold.Chemscore.DEClash.Weighted>
0.0484

> <Gold.Chemscore.DEInternal.Weighted>
2.1232

> <Gold.Chemscore.Rot.Weighted>
6.1020

> <Gold.Chemscore.Internal.Correction.Weighted>
   9.000000E+99

> <Gold.Protein.RotatedTorsions>
[ 6907 6896 6895 6894 ] final -130.81 input  -60.11 | X-H torsion
[ 7974 7965 7964 7962 ] final  172.77 input  175.53 | X-H torsion
[ 8008 7997 7996 7995 ] final  164.11 input   59.86 | X-H torsion
[ 10167 10162 10161 10158 ] final  151.27 input  -65.29 | X-H torsion
[ 10718 10713 10712 10709 ] final  157.37 input   66.30 | X-H torsion
[ 10763 10752 10751 10750 ] final   92.37 input  -60.55 | X-H torsion
[ 11005 11000 10999 10996 ] final -140.11 input  -57.11 | X-H torsion

> <Gold.Protein.ActiveResidues>
 VAL166  LYS551  ARG553  GLY616  TRP617  ASP618  TYR619  PRO620  LYS621  CYS622 
 ASP623  PHE694  ASN695  SER759  ASP760  ASP761  ALA762  ILE779  LEU786  VAL792 
 PHE793  MET794  SER795  GLU796  ALA797  LYS798  CYS799  TRP800  GLU811  SER814 

> <Gold.Protein.RotatedAtoms>
  150.9439  133.6625  159.2784 H   0  0  0  0  0  0  0  0  0  0  0  0  # atno 6907 bound_to 6896
  151.4005  135.0969  159.9564 H   0  0  0  0  0  0  0  0  0  0  0  0  # atno 6908 bound_to 6896
  152.5081  133.8934  159.7460 H   0  0  0  0  0  0  0  0  0  0  0  0  # atno 6909 bound_to 6896
  144.7260  139.9548  143.6433 H   0  0  0  0  0  0  0  0  0  0  0  0  # atno 7974 bound_to 7965
  156.1905  140.1705  156.8100 H   0  0  0  0  0  0  0  0  0  0  0  0  # atno 8008 bound_to 7997
  154.5466  140.0726  156.8631 H   0  0  0  0  0  0  0  0  0  0  0  0  # atno 8009 bound_to 7997
  155.3110  140.3367  155.4246 H   0  0  0  0  0  0  0  0  0  0  0  0  # atno 8010 bound_to 7997
  139.4842  144.5454  151.7492 H   0  0  0  0  0  0  0  0  0  0  0  0  # atno 10167 bound_to 10162
  157.1924  131.0657  151.2072 H   0  0  0  0  0  0  0  0  0  0  0  0  # atno 10718 bound_to 10713
  153.2184  135.4364  155.0461 H   0  0  0  0  0  0  0  0  0  0  0  0  # atno 10763 bound_to 10752
  154.8237  135.3350  154.6963 H   0  0  0  0  0  0  0  0  0  0  0  0  # atno 10764 bound_to 10752
  153.7396  135.7005  153.5026 H   0  0  0  0  0  0  0  0  0  0  0  0  # atno 10765 bound_to 10752
  140.8455  134.2350  157.4788 H   0  0  0  0  0  0  0  0  0  0  0  0  # atno 11005 bound_to 11000
  146.0683  139.3673  143.0539 LP  0  0  0  0  0  0  0  0  0  0  0  0  # atno 17320 bound_to 7965
  145.8002  140.9774  143.1003 LP  0  0  0  0  0  0  0  0  0  0  0  0  # atno 17321 bound_to 7965
  140.5000  144.1183  150.5969 LP  0  0  0  0  0  0  0  0  0  0  0  0  # atno 17342 bound_to 10162
  140.4073  143.2674  151.9876 LP  0  0  0  0  0  0  0  0  0  0  0  0  # atno 17343 bound_to 10162
  157.3847  130.7250  149.6655 LP  0  0  0  0  0  0  0  0  0  0  0  0  # atno 17370 bound_to 10713
  155.9710  130.4162  150.4222 LP  0  0  0  0  0  0  0  0  0  0  0  0  # atno 17371 bound_to 10713
  139.8703  134.9657  156.4537 LP  0  0  0  0  0  0  0  0  0  0  0  0  # atno 17394 bound_to 11000
  140.8848  133.7891  155.9507 LP  0  0  0  0  0  0  0  0  0  0  0  0  # atno 17395 bound_to 11000

$$$$
