AV-unprocessed.smi:1962|AV-procd|sdf|7924|dock9
  -GOLD-   2272010 93D 1   1.00000     0.00000
 Structure written by MMmdl.
 35 36  0  0  0  0  0  0  0  0  2 V2000
  150.4489  137.2991  155.3512 C   0  0  0  0  0  0  0  0  0  0  0  0
  149.9753  138.7152  155.7072 C   0  0  2  0  0  0  0  0  0  0  0  0
  150.0900  139.6670  154.4869 C   0  0  0  0  0  0  0  0  0  0  0  0
  148.8541  140.3686  154.1473 N   0  0  0  0  0  0  0  0  0  0  0  0
  148.5171  141.6899  154.3751 C   0  0  0  0  0  0  0  0  0  0  0  0
  147.2535  141.8808  153.8943 C   0  0  0  0  0  0  0  0  0  0  0  0
  146.8860  140.6005  153.3953 C   0  0  0  0  0  0  0  0  0  0  0  0
  147.8366  139.6958  153.5596 N   0  0  0  0  0  0  0  0  0  0  0  0
  150.7907  139.2138  156.8208 N   0  5  0  0  0  0  0  0  0  0  0  0
  150.6759  140.4486  157.3988 C   0  0  0  0  0  0  0  0  0  0  0  0
  149.8271  141.3059  157.1249 O   0  0  0  0  0  0  0  0  0  0  0  0
  151.6595  140.8423  158.4507 C   0  0  0  0  0  0  0  0  0  0  0  0
  152.3643  139.9293  159.0434 N   0  0  0  0  0  0  0  0  0  0  0  0
  153.3080  140.2337  160.0022 N   0  0  0  0  0  0  0  0  0  0  0  0
  154.1989  139.1305  160.3555 C   0  0  0  0  0  0  0  0  0  0  0  0
  153.4260  141.4386  160.6120 C   0  0  0  0  0  0  0  0  0  0  0  0
  154.2873  141.6998  161.4523 O   0  0  0  0  0  0  0  0  0  0  0  0
  152.3919  142.5003  160.2291 C   0  0  0  0  0  0  0  0  0  0  0  0
  151.8628  142.3074  158.7941 C   0  0  0  0  0  0  0  0  0  0  0  0
  149.8567  136.8827  154.5362 H   0  0  0  0  0  0  0  0  0  0  0  0
  150.3524  136.6252  156.2032 H   0  0  0  0  0  0  0  0  0  0  0  0
  151.4938  137.2940  155.0382 H   0  0  0  0  0  0  0  0  0  0  0  0
  148.9207  138.6378  155.9772 H   0  0  0  0  0  0  0  0  0  0  0  0
  150.8815  140.4005  154.6523 H   0  0  0  0  0  0  0  0  0  0  0  0
  150.3880  139.0955  153.6075 H   0  0  0  0  0  0  0  0  0  0  0  0
  149.2030  142.3770  154.8483 H   0  0  0  0  0  0  0  0  0  0  0  0
  146.6798  142.7953  153.8989 H   0  0  0  0  0  0  0  0  0  0  0  0
  145.9602  140.3018  152.9263 H   0  0  0  0  0  0  0  0  0  0  0  0
  154.1437  138.9157  161.4238 H   0  0  0  0  0  0  0  0  0  0  0  0
  155.2318  139.3804  160.1084 H   0  0  0  0  0  0  0  0  0  0  0  0
  153.9448  138.2128  159.8218 H   0  0  0  0  0  0  0  0  0  0  0  0
  151.5661  142.4230  160.9374 H   0  0  0  0  0  0  0  0  0  0  0  0
  152.8153  143.4983  160.3468 H   0  0  0  0  0  0  0  0  0  0  0  0
  152.5559  142.7506  158.0782 H   0  0  0  0  0  0  0  0  0  0  0  0
  150.9278  142.8611  158.7017 H   0  0  0  0  0  0  0  0  0  0  0  0
  1  2  1  0  0  0  0
  1 20  1  0  0  0  0
  1 21  1  0  0  0  0
  1 22  1  0  0  0  0
  2  3  1  0  0  0  0
  2  9  1  0  0  0  0
  2 23  1  0  0  0  0
  3  4  1  0  0  0  0
  3 24  1  0  0  0  0
  3 25  1  0  0  0  0
  4  8  1  0  0  0  0
  4  5  1  0  0  0  0
  5  6  2  0  0  0  0
  5 26  1  0  0  0  0
  6  7  1  0  0  0  0
  6 27  1  0  0  0  0
  7  8  2  0  0  0  0
  7 28  1  0  0  0  0
  9 10  1  0  0  0  0
 10 11  2  0  0  0  0
 10 12  1  0  0  0  0
 12 19  1  0  0  0  0
 12 13  2  0  0  0  0
 13 14  1  0  0  0  0
 14 15  1  0  0  0  0
 14 16  1  0  0  0  0
 15 29  1  0  0  0  0
 15 30  1  0  0  0  0
 15 31  1  0  0  0  0
 16 17  2  0  0  0  0
 16 18  1  0  0  0  0
 18 19  1  0  0  0  0
 18 32  1  0  0  0  0
 18 33  1  0  0  0  0
 19 34  1  0  0  0  0
 19 35  1  0  0  0  0
M  CHG  1   9  -1
M  END
> <s_m_source_file>
AV-unprocessed.smi

> <i_m_source_file_index>
1962

> <i_lp_mmshare_version>
43012

> <i_f3d_flags>
0

> <s_epik_input>
bjFbY0hdW2NIXVtjSF1uMVtDSDJdW0NAQEhdKFtDSDNdKVtOSF1DKD1PKUMyPU5OKFtDSDNdKUMoPU8pW0NIMl1bQ0gyXTI=

> <s_epik_cmdline>
J2VwaWtfcHl0aG9uJywgJy1waCcsICc3LjAnLCAnLXRuJywgJzgnLCAnLW1hJywgJzIwMCcsICctbWV0YWxfYmluZGluZycsICctaW1hZScsICc8aW5maWxlLm1hZT4nLCAnLW9tYWUnLCAnPG91dGZpbGUubWFlPic=

> <r_lp_tautomer_probability>
1

> <r_epik_Ionization_Penalty>
5.21086

> <r_epik_Ionization_Penalty_Charging>
5.21084

> <r_epik_Ionization_Penalty_Neutral>
2.41961e-05

> <r_epik_State_Penalty>
5.21075

> <r_epik_Charging_Adjusted_Penalty>
10.4216

> <i_epik_Tot_Q>
-1

> <i_epik_Tot_abs_Q>
1

> <r_epik_Metal_State_Penalty>
1.27477

> <b_epik_Metal_Only>
1

> <s_epik_Chemistry_Notes>
This compound has an imine and may undergo hydrolysis.

> <s_lp_Force_Field>
OPLS_2005

> <r_lp_Energy>
24.8429

> <b_lp_Chiralities_Consistent>
1

> <s_lp_Variant>
AV-unprocessed.smi:1962-3

> <Gold.Version>
5.8.1

> <Gold.Id.Protein>
6NUR|6NUR_protein|mol2

> <Gold.PLP.Fitness>
36.9727

> <Gold.PLP.PLP>
-33.0787

> <Gold.PLP.part.hbond>
-1.0000

> <Gold.PLP.part.metal>
0.0000

> <Gold.PLP.part.buried>
-2.6882

> <Gold.PLP.part.nonpolar>
-29.7453

> <Gold.PLP.part.repulsive>
0.6639

> <Gold.PLP.ligand.clash>
0.0000

> <Gold.PLP.ligand.torsion>
1.0672

> <Gold.PLP.Chemscore.Hbond>
0.0000

> <Gold.PLP.Chemscore.CHOScore>
1.9959

> <Gold.PLP.Chemscore.Metal>
0.0000

> <Gold.Chemscore.Hbonds>
donor molecule, donor type, donor heavy atom, donor atom, acceptor molecule, acceptor atom, score
      L1  C     5    26       P1  8028  1.00
      L1  C     7    28       P1 10175  1.00

> <Gold.PLP.Chemscore.Internal.Correction>
0.0410

> <Gold.Rescore>
     Score         DG    S(hbond)    S(metal)    S(lipo)     H(rot)  DE(clash)    DE(int)     intcor
      8.73      -9.71       0.00        0.00      68.93       1.50       0.11       0.87       ----

> <Gold.Chemscore.Fitness>
8.7280

> <Gold.Chemscore.DG>
-9.7144

> <Gold.Chemscore.ZeroCoef>
-5.4800

> <Gold.Chemscore.Hbond>
0.0000

> <Gold.Chemscore.Metal>
0.0000

> <Gold.Chemscore.Lipo>
68.9339

> <Gold.Chemscore.Internal_Hbond>
0.0000

> <Gold.Chemscore.DEClash>
0.1136

> <Gold.Chemscore.DEInternal>
0.8728

> <Gold.Chemscore.Rot>
1.4964

> <Gold.Chemscore.Internal.Correction>
   9.000000E+99

> <Gold.Chemscore.Hbond.Weighted>
-0.0000

> <Gold.Chemscore.Metal.Weighted>
-0.0000

> <Gold.Chemscore.Lipo.Weighted>
-8.0653

> <Gold.Chemscore.Internal_Hbond.Weighted>
0.0000

> <Gold.Chemscore.DEClash.Weighted>
0.1136

> <Gold.Chemscore.DEInternal.Weighted>
0.8728

> <Gold.Chemscore.Rot.Weighted>
3.8309

> <Gold.Chemscore.Internal.Correction.Weighted>
   9.000000E+99

> <Gold.Protein.RotatedTorsions>
[ 6907 6896 6895 6894 ] final  114.51 input  -60.11 | X-H torsion
[ 7974 7965 7964 7962 ] final  -50.78 input  175.53 | X-H torsion
[ 8008 7997 7996 7995 ] final -158.61 input   59.86 | X-H torsion
[ 10167 10162 10161 10158 ] final -110.97 input  -65.29 | X-H torsion
[ 10718 10713 10712 10709 ] final -159.88 input   66.30 | X-H torsion
[ 10763 10752 10751 10750 ] final   37.32 input  -60.55 | X-H torsion
[ 11005 11000 10999 10996 ] final  126.48 input  -57.11 | X-H torsion

> <Gold.Protein.ActiveResidues>
 VAL166  LYS551  ARG553  GLY616  TRP617  ASP618  TYR619  PRO620  LYS621  CYS622 
 ASP623  PHE694  ASN695  SER759  ASP760  ASP761  ALA762  ILE779  LEU786  VAL792 
 PHE793  MET794  SER795  GLU796  ALA797  LYS798  CYS799  TRP800  GLU811  SER814 

> <Gold.Protein.RotatedAtoms>
  152.4798  133.8227  159.7061 H   0  0  0  0  0  0  0  0  0  0  0  0  # atno 6907 bound_to 6896
  150.8840  133.7324  159.2930 H   0  0  0  0  0  0  0  0  0  0  0  0  # atno 6908 bound_to 6896
  151.4818  135.1056  159.9832 H   0  0  0  0  0  0  0  0  0  0  0  0  # atno 6909 bound_to 6896
  145.9261  140.7791  142.9623 H   0  0  0  0  0  0  0  0  0  0  0  0  # atno 7974 bound_to 7965
  155.7502  140.0825  157.2205 H   0  0  0  0  0  0  0  0  0  0  0  0  # atno 8008 bound_to 7997
  154.4013  140.1562  156.2771 H   0  0  0  0  0  0  0  0  0  0  0  0  # atno 8009 bound_to 7997
  155.8938  140.3414  155.5978 H   0  0  0  0  0  0  0  0  0  0  0  0  # atno 8010 bound_to 7997
  140.1386  143.4298  152.1577 H   0  0  0  0  0  0  0  0  0  0  0  0  # atno 10167 bound_to 10162
  156.5743  130.8702  151.2846 H   0  0  0  0  0  0  0  0  0  0  0  0  # atno 10718 bound_to 10713
  153.0042  135.6281  154.2126 H   0  0  0  0  0  0  0  0  0  0  0  0  # atno 10763 bound_to 10752
  154.1870  135.2810  155.3036 H   0  0  0  0  0  0  0  0  0  0  0  0  # atno 10764 bound_to 10752
  154.5790  135.5653  153.7226 H   0  0  0  0  0  0  0  0  0  0  0  0  # atno 10765 bound_to 10752
  139.9458  134.9630  156.8713 H   0  0  0  0  0  0  0  0  0  0  0  0  # atno 11005 bound_to 11000
  144.6759  140.2053  143.7383 LP  0  0  0  0  0  0  0  0  0  0  0  0  # atno 17320 bound_to 7965
  145.8487  139.2165  143.1785 LP  0  0  0  0  0  0  0  0  0  0  0  0  # atno 17321 bound_to 7965
  139.5483  144.7317  151.4514 LP  0  0  0  0  0  0  0  0  0  0  0  0  # atno 17342 bound_to 10162
  140.6774  143.8159  150.7076 LP  0  0  0  0  0  0  0  0  0  0  0  0  # atno 17343 bound_to 10162
  157.7341  130.9741  150.2012 LP  0  0  0  0  0  0  0  0  0  0  0  0  # atno 17370 bound_to 10713
  156.2687  130.3719  149.8054 LP  0  0  0  0  0  0  0  0  0  0  0  0  # atno 17371 bound_to 10713
  140.5838  134.0327  155.7474 LP  0  0  0  0  0  0  0  0  0  0  0  0  # atno 17394 bound_to 11000
  141.1108  133.9619  157.2913 LP  0  0  0  0  0  0  0  0  0  0  0  0  # atno 17395 bound_to 11000

$$$$
