AV-unprocessed.smi:34|AV-procd|sdf|245|dock3
  -GOLD-   2262016 03D 1   1.00000     0.00000
 Structure written by MMmdl.
 54 58  0  0  0  0  0  0  0  0  2 V2000
  152.0203  139.7178  159.3269 O   0  0  0  0  0  0  0  0  0  0  0  0
  152.3237  140.4044  158.3489 C   0  0  0  0  0  0  0  0  0  0  0  0
  152.5511  139.9888  157.0770 N   0  5  0  0  0  0  0  0  0  0  0  0
  151.5177  139.7171  156.2655 C   0  0  0  0  0  0  0  0  0  0  0  0
  151.5481  140.0995  154.9636 N   0  0  0  0  0  0  0  0  0  0  0  0
  150.5229  139.8153  154.1523 C   0  0  0  0  0  0  0  0  0  0  0  0
  149.3899  139.1625  154.4276 N   0  0  0  0  0  0  0  0  0  0  0  0
  149.3464  138.7689  155.7340 C   0  0  0  0  0  0  0  0  0  0  0  0
  150.3669  139.0049  156.7017 C   0  0  0  0  0  0  0  0  0  0  0  0
  150.0159  138.4665  157.9308 N   0  0  0  0  0  0  0  0  0  0  0  0
  148.8234  137.9409  157.6619 C   0  0  0  0  0  0  0  0  0  0  0  0
  148.3525  138.0725  156.4056 N   0  0  0  0  0  0  0  0  0  0  0  0
  147.0459  137.5658  155.8769 C   0  0  2  0  0  0  0  0  0  0  0  0
  147.1875  137.3109  154.5119 O   0  0  0  0  0  0  0  0  0  0  0  0
  146.0158  137.7488  153.8355 C   0  0  2  0  0  0  0  0  0  0  0  0
  146.2985  137.9678  152.3434 C   0  0  0  0  0  0  0  0  0  0  0  0
  146.2279  136.7264  151.6601 O   0  0  0  0  0  0  0  0  0  0  0  0
  145.0304  136.1538  151.4262 C   0  0  0  0  0  0  0  0  0  0  0  0
  143.9548  136.7369  151.5776 O   0  0  0  0  0  0  0  0  0  0  0  0
  145.1421  134.7419  150.9583 C   0  0  0  0  0  0  0  0  0  0  0  0
  143.9653  133.9813  150.7640 C   0  0  0  0  0  0  0  0  0  0  0  0
  144.0383  132.6472  150.3186 C   0  0  0  0  0  0  0  0  0  0  0  0
  145.2896  132.0564  150.0634 C   0  0  0  0  0  0  0  0  0  0  0  0
  146.4679  132.8013  150.2554 C   0  0  0  0  0  0  0  0  0  0  0  0
  146.3967  134.1361  150.7000 C   0  0  0  0  0  0  0  0  0  0  0  0
  145.5946  138.9968  154.6140 C   0  0  2  0  0  0  0  0  0  0  0  0
  146.3553  140.0310  154.2487 F   0  0  0  0  0  0  0  0  0  0  0  0
  145.8899  138.5757  156.0462 C   0  0  2  0  0  0  0  0  0  0  0  0
  146.1490  139.6810  156.8937 O   0  0  0  0  0  0  0  0  0  0  0  0
  152.4073  141.8989  158.5091 C   0  0  0  0  0  0  0  0  0  0  0  0
  152.7828  142.4503  159.7554 C   0  0  0  0  0  0  0  0  0  0  0  0
  152.8924  143.8453  159.9179 C   0  0  0  0  0  0  0  0  0  0  0  0
  152.6370  144.7038  158.8321 C   0  0  0  0  0  0  0  0  0  0  0  0
  152.2759  144.1660  157.5827 C   0  0  0  0  0  0  0  0  0  0  0  0
  152.1659  142.7713  157.4196 C   0  0  0  0  0  0  0  0  0  0  0  0
  150.6264  140.1586  153.1338 H   0  0  0  0  0  0  0  0  0  0  0  0
  148.2560  137.4307  158.4262 H   0  0  0  0  0  0  0  0  0  0  0  0
  146.8748  136.6359  156.4212 H   0  0  0  0  0  0  0  0  0  0  0  0
  145.2583  136.9718  153.9551 H   0  0  0  0  0  0  0  0  0  0  0  0
  145.5929  138.6808  151.9149 H   0  0  0  0  0  0  0  0  0  0  0  0
  147.2980  138.3870  152.2197 H   0  0  0  0  0  0  0  0  0  0  0  0
  142.9932  134.4138  150.9521 H   0  0  0  0  0  0  0  0  0  0  0  0
  143.1327  132.0772  150.1721 H   0  0  0  0  0  0  0  0  0  0  0  0
  145.3454  131.0333  149.7212 H   0  0  0  0  0  0  0  0  0  0  0  0
  147.4290  132.3481  150.0610 H   0  0  0  0  0  0  0  0  0  0  0  0
  147.3204  134.6792  150.8373 H   0  0  0  0  0  0  0  0  0  0  0  0
  144.5542  139.2793  154.4507 H   0  0  0  0  0  0  0  0  0  0  0  0
  145.0352  138.0253  156.4416 H   0  0  0  0  0  0  0  0  0  0  0  0
  146.6929  139.3921  157.6104 H   0  0  0  0  0  0  0  0  0  0  0  0
  152.9847  141.8046  160.5980 H   0  0  0  0  0  0  0  0  0  0  0  0
  153.1742  144.2555  160.8762 H   0  0  0  0  0  0  0  0  0  0  0  0
  152.7219  145.7732  158.9560 H   0  0  0  0  0  0  0  0  0  0  0  0
  152.0862  144.8226  156.7466 H   0  0  0  0  0  0  0  0  0  0  0  0
  151.8985  142.3785  156.4492 H   0  0  0  0  0  0  0  0  0  0  0  0
  1  2  2  0  0  0  0
  2  3  1  0  0  0  0
  2 30  1  0  0  0  0
  3  4  1  0  0  0  0
  4  9  1  0  0  0  0
  4  5  2  0  0  0  0
  5  6  1  0  0  0  0
  6  7  2  0  0  0  0
  6 36  1  0  0  0  0
  7  8  1  0  0  0  0
  8 12  1  0  0  0  0
  8  9  2  0  0  0  0
  9 10  1  0  0  0  0
 10 11  2  0  0  0  0
 11 12  1  0  0  0  0
 11 37  1  0  0  0  0
 12 13  1  0  0  0  0
 13 28  1  0  0  0  0
 13 14  1  0  0  0  0
 13 38  1  0  0  0  0
 14 15  1  0  0  0  0
 15 16  1  0  0  0  0
 15 26  1  0  0  0  0
 15 39  1  0  0  0  0
 16 17  1  0  0  0  0
 16 40  1  0  0  0  0
 16 41  1  0  0  0  0
 17 18  1  0  0  0  0
 18 19  2  0  0  0  0
 18 20  1  0  0  0  0
 20 25  1  0  0  0  0
 20 21  2  0  0  0  0
 21 22  1  0  0  0  0
 21 42  1  0  0  0  0
 22 23  2  0  0  0  0
 22 43  1  0  0  0  0
 23 24  1  0  0  0  0
 23 44  1  0  0  0  0
 24 25  2  0  0  0  0
 24 45  1  0  0  0  0
 25 46  1  0  0  0  0
 26 27  1  0  0  0  0
 26 28  1  0  0  0  0
 26 47  1  0  0  0  0
 28 29  1  0  0  0  0
 28 48  1  0  0  0  0
 29 49  1  0  0  0  0
 30 35  1  0  0  0  0
 30 31  2  0  0  0  0
 31 32  1  0  0  0  0
 31 50  1  0  0  0  0
 32 33  2  0  0  0  0
 32 51  1  0  0  0  0
 33 34  1  0  0  0  0
 33 52  1  0  0  0  0
 34 35  2  0  0  0  0
 34 53  1  0  0  0  0
 35 54  1  0  0  0  0
M  CHG  1   3  -1
M  END
> <s_m_source_file>
AV-unprocessed.smi

> <i_m_source_file_index>
34

> <i_lp_mmshare_version>
43012

> <i_f3d_flags>
0

> <s_epik_input>
W2NIXTFbY0hdW2NIXVtjSF1bY0hdYzFDKD1PKVtOSF1jKG5bY0hdbjIpYyhjMjMpbltjSF1uM1tDQEBIXTRPW0NASF0oW0NAQEhdKEYpW0NASF00W09IXSlbQ0gyXU9DKD1PKWM1W2NIXVtjSF1bY0hdW2NIXVtjSF01

> <s_epik_cmdline>
J2VwaWtfcHl0aG9uJywgJy1waCcsICc3LjAnLCAnLXRuJywgJzgnLCAnLW1hJywgJzIwMCcsICctbWV0YWxfYmluZGluZycsICctaW1hZScsICc8aW5maWxlLm1hZT4nLCAnLW9tYWUnLCAnPG91dGZpbGUubWFlPic=

> <r_lp_tautomer_probability>
1

> <r_epik_Ionization_Penalty>
4.33227

> <r_epik_Ionization_Penalty_Charging>
3.41027

> <r_epik_Ionization_Penalty_Neutral>
0.922001

> <r_epik_State_Penalty>
3.41358

> <r_epik_Charging_Adjusted_Penalty>
6.82385

> <i_epik_Tot_Q>
-1

> <i_epik_Tot_abs_Q>
1

> <r_epik_Metal_State_Penalty>
0.496292

> <b_epik_Metal_Only>
1

> <s_epik_Chemistry_Notes>
This compound has an ester and may undergo hydrolysis at high or low pH. This compound contains an acetal/aminal-like group ( X-CH(R)-Y where X, Y are N, S, or O) that may be acid/base labile, releasing an aldehyde.

> <s_lp_Force_Field>
OPLS_2005

> <r_lp_Energy>
53.545

> <b_lp_Chiralities_Consistent>
1

> <s_lp_Variant>
AV-unprocessed.smi:34-31

> <Gold.Version>
5.8.1

> <Gold.Id.Protein>
6NUR|6NUR_protein|mol2

> <Gold.PLP.Fitness>
56.7835

> <Gold.PLP.PLP>
-50.0221

> <Gold.PLP.part.hbond>
-2.0000

> <Gold.PLP.part.metal>
0.0000

> <Gold.PLP.part.buried>
-7.1685

> <Gold.PLP.part.nonpolar>
-41.1245

> <Gold.PLP.part.repulsive>
0.5834

> <Gold.PLP.ligand.clash>
0.0000

> <Gold.PLP.ligand.torsion>
2.5260

> <Gold.PLP.Chemscore.Hbond>
2.6325

> <Gold.PLP.Chemscore.CHOScore>
1.0000

> <Gold.PLP.Chemscore.Metal>
0.0000

> <Gold.Chemscore.Hbonds>
donor molecule, donor type, donor heavy atom, donor atom, acceptor molecule, acceptor atom, score
      P1  H  7997  8008       L1     3  2.00
      L1  C     6    36       P1  7957  1.00

> <Gold.PLP.Chemscore.Internal.Correction>
0.9159

> <Gold.Rescore>
     Score         DG    S(hbond)    S(metal)    S(lipo)     H(rot)  DE(clash)    DE(int)     intcor
      8.18     -14.39       0.06        0.00     133.47       2.69       0.28       5.94       ----

> <Gold.Chemscore.Fitness>
8.1763

> <Gold.Chemscore.DG>
-14.3919

> <Gold.Chemscore.ZeroCoef>
-5.4800

> <Gold.Chemscore.Hbond>
0.0579

> <Gold.Chemscore.Metal>
0.0000

> <Gold.Chemscore.Lipo>
133.4703

> <Gold.Chemscore.Internal_Hbond>
0.0000

> <Gold.Chemscore.DEClash>
0.2797

> <Gold.Chemscore.DEInternal>
5.9359

> <Gold.Chemscore.Rot>
2.6944

> <Gold.Chemscore.Internal.Correction>
   9.000000E+99

> <Gold.Chemscore.Hbonds>
donor molecule, donor type, donor heavy atom, donor atom, acceptor molecule, acceptor atom, score
      P1  H  7997  8008       L1     3  0.89

> <Gold.Chemscore.Hbond.Weighted>
-0.1935

> <Gold.Chemscore.Metal.Weighted>
-0.0000

> <Gold.Chemscore.Lipo.Weighted>
-15.6160

> <Gold.Chemscore.Internal_Hbond.Weighted>
0.0000

> <Gold.Chemscore.DEClash.Weighted>
0.2797

> <Gold.Chemscore.DEInternal.Weighted>
5.9359

> <Gold.Chemscore.Rot.Weighted>
6.8975

> <Gold.Chemscore.Internal.Correction.Weighted>
   9.000000E+99

> <Gold.Protein.RotatedTorsions>
[ 6907 6896 6895 6894 ] final  178.71 input  -60.11 | X-H torsion
[ 7974 7965 7964 7962 ] final  -95.36 input  175.53 | X-H torsion
[ 8008 7997 7996 7995 ] final  -51.20 input   59.86 | X-H torsion
[ 10167 10162 10161 10158 ] final -109.87 input  -65.29 | X-H torsion
[ 10718 10713 10712 10709 ] final  104.67 input   66.30 | X-H torsion
[ 10763 10752 10751 10750 ] final -164.17 input  -60.55 | X-H torsion
[ 11005 11000 10999 10996 ] final -139.45 input  -57.11 | X-H torsion

> <Gold.Protein.ActiveResidues>
 VAL166  LYS551  ARG553  GLY616  TRP617  ASP618  TYR619  PRO620  LYS621  CYS622 
 ASP623  PHE694  ASN695  SER759  ASP760  ASP761  ALA762  ILE779  LEU786  VAL792 
 PHE793  MET794  SER795  GLU796  ALA797  LYS798  CYS799  TRP800  GLU811  SER814 

> <Gold.Protein.RotatedAtoms>
  151.6834  133.3311  159.3224 H   0  0  0  0  0  0  0  0  0  0  0  0  # atno 6907 bound_to 6896
  150.7812  134.6761  159.6428 H   0  0  0  0  0  0  0  0  0  0  0  0  # atno 6908 bound_to 6896
  152.3870  134.6505  160.0174 H   0  0  0  0  0  0  0  0  0  0  0  0  # atno 6909 bound_to 6896
  145.3611  140.9492  143.2500 H   0  0  0  0  0  0  0  0  0  0  0  0  # atno 7974 bound_to 7965
  154.4078  140.1254  156.4789 H   0  0  0  0  0  0  0  0  0  0  0  0  # atno 8008 bound_to 7997
  155.7104  140.3494  155.4952 H   0  0  0  0  0  0  0  0  0  0  0  0  # atno 8009 bound_to 7997
  155.9305  140.1069  157.1126 H   0  0  0  0  0  0  0  0  0  0  0  0  # atno 8010 bound_to 7997
  140.1506  143.4202  152.1497 H   0  0  0  0  0  0  0  0  0  0  0  0  # atno 10167 bound_to 10162
  157.6732  131.0809  150.5742 H   0  0  0  0  0  0  0  0  0  0  0  0  # atno 10718 bound_to 10713
  154.7054  135.2996  154.9279 H   0  0  0  0  0  0  0  0  0  0  0  0  # atno 10763 bound_to 10752
  154.0198  135.6684  153.4775 H   0  0  0  0  0  0  0  0  0  0  0  0  # atno 10764 bound_to 10752
  153.0713  135.5059  154.8221 H   0  0  0  0  0  0  0  0  0  0  0  0  # atno 10765 bound_to 10752
  140.8518  134.2276  157.4756 H   0  0  0  0  0  0  0  0  0  0  0  0  # atno 11005 bound_to 11000
  144.8645  139.5127  143.6796 LP  0  0  0  0  0  0  0  0  0  0  0  0  # atno 17320 bound_to 7965
  146.2927  139.7185  142.9149 LP  0  0  0  0  0  0  0  0  0  0  0  0  # atno 17321 bound_to 7965
  139.5428  144.7271  151.4680 LP  0  0  0  0  0  0  0  0  0  0  0  0  # atno 17342 bound_to 10162
  140.6705  143.8305  150.6993 LP  0  0  0  0  0  0  0  0  0  0  0  0  # atno 17343 bound_to 10162
  156.6043  130.4363  149.5884 LP  0  0  0  0  0  0  0  0  0  0  0  0  # atno 17370 bound_to 10713
  156.2481  130.6891  151.1619 LP  0  0  0  0  0  0  0  0  0  0  0  0  # atno 17371 bound_to 10713
  139.8704  134.9687  156.4640 LP  0  0  0  0  0  0  0  0  0  0  0  0  # atno 17394 bound_to 11000
  140.8781  133.7938  155.9437 LP  0  0  0  0  0  0  0  0  0  0  0  0  # atno 17395 bound_to 11000

$$$$
