AV-unprocessed.smi:2027|AV-procd|sdf|8218|dock2
  -GOLD-   2272010483D 1   1.00000     0.00000
 Structure written by MMmdl.
 51 53  0  0  0  0  0  0  0  0  3 V2000
  152.4469  143.2509  160.4819 C   0  0  0  0  0  0  0  0  0  0  0  0
  152.0970  142.4604  159.2324 C   0  0  0  0  0  0  0  0  0  0  0  0
  151.0514  142.9317  158.4069 C   0  0  0  0  0  0  0  0  0  0  0  0
  150.7531  142.1859  157.2728 C   0  0  0  0  0  0  0  0  0  0  0  0
  149.7944  142.3819  156.2767 N   0  3  0  0  0  0  0  0  0  0  0  0
  149.8782  141.3778  155.3610 C   0  0  0  0  0  0  0  0  0  0  0  0
  150.8787  140.5433  155.7558 N   0  0  0  0  0  0  0  0  0  0  0  0
  151.3677  139.3046  155.1322 C   0  0  0  0  0  0  0  0  0  0  0  0
  150.2409  138.3008  154.8200 C   0  0  1  0  0  0  0  0  0  0  0  0
  149.6805  138.5936  153.5551 O   0  0  0  0  0  0  0  0  0  0  0  0
  150.7637  136.8503  154.8008 C   0  0  0  0  0  0  0  0  0  0  0  0
  149.6653  135.8534  154.7173 N   0  3  1  0  0  0  0  0  0  0  0  0
  150.1519  134.4739  154.9572 C   0  0  0  0  0  0  0  0  0  0  0  0
  148.4965  136.2053  155.5651 C   0  0  0  0  0  0  0  0  0  0  0  0
  148.8431  136.1641  157.0287 C   0  0  0  0  0  0  0  0  0  0  0  0
  150.1183  135.9223  157.6152 C   0  0  0  0  0  0  0  0  0  0  0  0
  150.0905  135.9532  158.9370 N   0  0  0  0  0  0  0  0  0  0  0  0
  148.8017  136.2087  159.2409 N   0  0  0  0  0  0  0  0  0  0  0  0
  148.4012  136.3078  160.6282 C   0  0  0  0  0  0  0  0  0  0  0  0
  148.0251  136.3381  158.1100 C   0  0  0  0  0  0  0  0  0  0  0  0
  151.4539  141.0084  156.9454 C   0  0  0  0  0  0  0  0  0  0  0  0
  152.4899  140.5329  157.7466 C   0  0  0  0  0  0  0  0  0  0  0  0
  152.8079  141.2769  158.9054 C   0  0  0  0  0  0  0  0  0  0  0  0
  153.9326  140.7809  159.7984 C   0  0  0  0  0  0  0  0  0  0  0  0
  151.7810  144.1045  160.6139 H   0  0  0  0  0  0  0  0  0  0  0  0
  153.4674  143.6295  160.4208 H   0  0  0  0  0  0  0  0  0  0  0  0
  152.3621  142.6240  161.3699 H   0  0  0  0  0  0  0  0  0  0  0  0
  150.5067  143.8328  158.6490 H   0  0  0  0  0  0  0  0  0  0  0  0
  149.2588  141.2628  154.4830 H   0  0  0  0  0  0  0  0  0  0  0  0
  151.9396  139.5507  154.2374 H   0  0  0  0  0  0  0  0  0  0  0  0
  152.0762  138.8563  155.8298 H   0  0  0  0  0  0  0  0  0  0  0  0
  149.4579  138.4166  155.5691 H   0  0  0  0  0  0  0  0  0  0  0  0
  149.3897  137.7850  153.1607 H   0  0  0  0  0  0  0  0  0  0  0  0
  151.4370  136.7395  153.9487 H   0  0  0  0  0  0  0  0  0  0  0  0
  151.3665  136.6445  155.6870 H   0  0  0  0  0  0  0  0  0  0  0  0
  150.5293  134.3645  155.9747 H   0  0  0  0  0  0  0  0  0  0  0  0
  150.9571  134.2232  154.2658 H   0  0  0  0  0  0  0  0  0  0  0  0
  149.3606  133.7401  154.8046 H   0  0  0  0  0  0  0  0  0  0  0  0
  148.1242  137.1883  155.2725 H   0  0  0  0  0  0  0  0  0  0  0  0
  147.6765  135.5150  155.3704 H   0  0  0  0  0  0  0  0  0  0  0  0
  151.0590  135.7294  157.1205 H   0  0  0  0  0  0  0  0  0  0  0  0
  147.3702  136.6562  160.6958 H   0  0  0  0  0  0  0  0  0  0  0  0
  149.0471  137.0127  161.1526 H   0  0  0  0  0  0  0  0  0  0  0  0
  148.4771  135.3294  161.1033 H   0  0  0  0  0  0  0  0  0  0  0  0
  146.9661  136.5430  158.1672 H   0  0  0  0  0  0  0  0  0  0  0  0
  153.0352  139.6340  157.4999 H   0  0  0  0  0  0  0  0  0  0  0  0
  154.3908  139.8758  159.3986 H   0  0  0  0  0  0  0  0  0  0  0  0
  153.5559  140.5507  160.7954 H   0  0  0  0  0  0  0  0  0  0  0  0
  154.7129  141.5370  159.8883 H   0  0  0  0  0  0  0  0  0  0  0  0
  149.3492  135.8752  153.7577 H   0  0  0  0  0  0  0  0  0  0  0  0
  149.1274  143.1418  156.2267 H   0  0  0  0  0  0  0  0  0  0  0  0
  1  2  1  0  0  0  0
  1 25  1  0  0  0  0
  1 26  1  0  0  0  0
  1 27  1  0  0  0  0
  2 23  1  0  0  0  0
  2  3  2  0  0  0  0
  3  4  1  0  0  0  0
  3 28  1  0  0  0  0
  4 21  2  0  0  0  0
  4  5  1  0  0  0  0
  5  6  2  0  0  0  0
  5 51  1  0  0  0  0
  6  7  1  0  0  0  0
  6 29  1  0  0  0  0
  7  8  1  0  0  0  0
  7 21  1  0  0  0  0
  8  9  1  0  0  0  0
  8 30  1  0  0  0  0
  8 31  1  0  0  0  0
  9 10  1  0  0  0  0
  9 11  1  0  0  0  0
  9 32  1  0  0  0  0
 10 33  1  0  0  0  0
 11 12  1  0  0  0  0
 11 34  1  0  0  0  0
 11 35  1  0  0  0  0
 12 13  1  0  0  0  0
 12 14  1  0  0  0  0
 12 50  1  0  0  0  0
 13 36  1  0  0  0  0
 13 37  1  0  0  0  0
 13 38  1  0  0  0  0
 14 15  1  0  0  0  0
 14 39  1  0  0  0  0
 14 40  1  0  0  0  0
 15 20  2  0  0  0  0
 15 16  1  0  0  0  0
 16 17  2  0  0  0  0
 16 41  1  0  0  0  0
 17 18  1  0  0  0  0
 18 19  1  0  0  0  0
 18 20  1  0  0  0  0
 19 42  1  0  0  0  0
 19 43  1  0  0  0  0
 19 44  1  0  0  0  0
 20 45  1  0  0  0  0
 21 22  1  0  0  0  0
 22 23  2  0  0  0  0
 22 46  1  0  0  0  0
 23 24  1  0  0  0  0
 24 47  1  0  0  0  0
 24 48  1  0  0  0  0
 24 49  1  0  0  0  0
M  CHG  1   5   1
M  CHG  1  12   1
M  END
> <s_m_source_file>
AV-unprocessed.smi

> <i_m_source_file_index>
2027

> <i_lp_mmshare_version>
43012

> <i_f3d_flags>
0

> <s_epik_input>
W0NIM11jKFtjSF0xKWMoW0NIM10pW2NIXWMoYzEyKW4oW2NIXW4yKVtDSDJdW0NASF0oW09IXSlbQ0gyXU4oW0NIM10pW0NIMl1jM1tjSF1ubihbQ0gzXSlbY0hdMw==

> <s_epik_cmdline>
J2VwaWtfcHl0aG9uJywgJy1waCcsICc3LjAnLCAnLXRuJywgJzgnLCAnLW1hJywgJzIwMCcsICctbWV0YWxfYmluZGluZycsICctaW1hZScsICc8aW5maWxlLm1hZT4nLCAnLW9tYWUnLCAnPG91dGZpbGUubWFlPic=

> <r_lp_tautomer_probability>
1

> <r_epik_Ionization_Penalty>
1.77469

> <r_epik_Ionization_Penalty_Charging>
1.77463

> <r_epik_Ionization_Penalty_Neutral>
6.41153e-05

> <r_epik_State_Penalty>
1.85225

> <r_epik_Charging_Adjusted_Penalty>
3.62688

> <i_epik_Tot_Q>
2

> <i_epik_Tot_abs_Q>
2

> <r_epik_Metal_State_Penalty>
1.92669

> <b_epik_Metal_Only>
0

> <s_lp_Force_Field>
OPLS_2005

> <r_lp_Energy>
18.885

> <b_lp_Chiralities_Consistent>
1

> <s_lp_Variant>
AV-unprocessed.smi:2027-10

> <Gold.Version>
5.8.1

> <Gold.Id.Protein>
6NUR|6NUR_protein|mol2

> <Gold.PLP.Fitness>
62.1152

> <Gold.PLP.PLP>
-44.8735

> <Gold.PLP.part.hbond>
-4.9391

> <Gold.PLP.part.metal>
0.0000

> <Gold.PLP.part.buried>
-5.2715

> <Gold.PLP.part.nonpolar>
-35.2876

> <Gold.PLP.part.repulsive>
0.1400

> <Gold.PLP.ligand.clash>
0.0000

> <Gold.PLP.ligand.torsion>
0.5593

> <Gold.PLP.Chemscore.Hbond>
6.0000

> <Gold.PLP.Chemscore.CHOScore>
0.0000

> <Gold.PLP.Chemscore.Metal>
0.0000

> <Gold.Chemscore.Hbonds>
donor molecule, donor type, donor heavy atom, donor atom, acceptor molecule, acceptor atom, score
      L1  H     5    51       P1  8028  1.79
      L1  H    10    33       P1  7948  0.98
      L1  H    12    50       P1  7948  2.00
      P1  H  6896  6908       L1    17  0.86

> <Gold.PLP.Chemscore.Internal.Correction>
0.3603

> <Gold.Rescore>
     Score         DG    S(hbond)    S(metal)    S(lipo)     H(rot)  DE(clash)    DE(int)     intcor
     22.32     -24.25       3.86        0.00     106.84       2.58       0.24       1.69       ----

> <Gold.Chemscore.Fitness>
22.3157

> <Gold.Chemscore.DG>
-24.2452

> <Gold.Chemscore.ZeroCoef>
-5.4800

> <Gold.Chemscore.Hbond>
3.8559

> <Gold.Chemscore.Metal>
0.0000

> <Gold.Chemscore.Lipo>
106.8409

> <Gold.Chemscore.Internal_Hbond>
0.0000

> <Gold.Chemscore.DEClash>
0.2370

> <Gold.Chemscore.DEInternal>
1.6925

> <Gold.Chemscore.Rot>
2.5836

> <Gold.Chemscore.Internal.Correction>
   9.000000E+99

> <Gold.Chemscore.Hbonds>
donor molecule, donor type, donor heavy atom, donor atom, acceptor molecule, acceptor atom, score
      L1  H     5    51       P1  8028  0.88
      L1  H    10    33       P1  7948  0.87
      L1  H    12    50       P1  7948  0.65
      P1  H  6896  6908       L1    17  0.58

> <Gold.Chemscore.Hbond.Weighted>
-12.8787

> <Gold.Chemscore.Metal.Weighted>
-0.0000

> <Gold.Chemscore.Lipo.Weighted>
-12.5004

> <Gold.Chemscore.Internal_Hbond.Weighted>
0.0000

> <Gold.Chemscore.DEClash.Weighted>
0.2370

> <Gold.Chemscore.DEInternal.Weighted>
1.6925

> <Gold.Chemscore.Rot.Weighted>
6.6139

> <Gold.Chemscore.Internal.Correction.Weighted>
   9.000000E+99

> <Gold.Protein.RotatedTorsions>
[ 6907 6896 6895 6894 ] final  167.01 input  -60.11 | X-H torsion
[ 7974 7965 7964 7962 ] final   24.55 input  175.53 | X-H torsion
[ 8008 7997 7996 7995 ] final  -49.22 input   59.86 | X-H torsion
[ 10167 10162 10161 10158 ] final   76.98 input  -65.29 | X-H torsion
[ 10718 10713 10712 10709 ] final  124.56 input   66.30 | X-H torsion
[ 10763 10752 10751 10750 ] final -169.66 input  -60.55 | X-H torsion
[ 11005 11000 10999 10996 ] final  -84.57 input  -57.11 | X-H torsion

> <Gold.Protein.ActiveResidues>
 VAL166  LYS551  ARG553  GLY616  TRP617  ASP618  TYR619  PRO620  LYS621  CYS622 
 ASP623  PHE694  ASN695  SER759  ASP760  ASP761  ALA762  ILE779  LEU786  VAL792 
 PHE793  MET794  SER795  GLU796  ALA797  LYS798  CYS799  TRP800  GLU811  SER814 

> <Gold.Protein.RotatedAtoms>
  151.8699  133.3473  159.3731 H   0  0  0  0  0  0  0  0  0  0  0  0  # atno 6907 bound_to 6896
  150.7155  134.5123  159.5622 H   0  0  0  0  0  0  0  0  0  0  0  0  # atno 6908 bound_to 6896
  152.2653  134.7991  160.0474 H   0  0  0  0  0  0  0  0  0  0  0  0  # atno 6909 bound_to 6896
  146.1932  139.7589  142.8816 H   0  0  0  0  0  0  0  0  0  0  0  0  # atno 7974 bound_to 7965
  154.4040  140.1302  156.4466 H   0  0  0  0  0  0  0  0  0  0  0  0  # atno 8008 bound_to 7997
  155.7407  140.3490  155.5083 H   0  0  0  0  0  0  0  0  0  0  0  0  # atno 8009 bound_to 7997
  155.9042  140.1024  157.1318 H   0  0  0  0  0  0  0  0  0  0  0  0  # atno 8010 bound_to 7997
  139.9865  144.5788  150.7855 H   0  0  0  0  0  0  0  0  0  0  0  0  # atno 10167 bound_to 10162
  157.5575  131.1091  150.8597 H   0  0  0  0  0  0  0  0  0  0  0  0  # atno 10718 bound_to 10713
  154.6499  135.2910  155.0000 H   0  0  0  0  0  0  0  0  0  0  0  0  # atno 10763 bound_to 10752
  154.1096  135.6564  153.4886 H   0  0  0  0  0  0  0  0  0  0  0  0  # atno 10764 bound_to 10752
  153.0371  135.5262  154.7402 H   0  0  0  0  0  0  0  0  0  0  0  0  # atno 10765 bound_to 10752
  141.1649  133.7353  156.8888 H   0  0  0  0  0  0  0  0  0  0  0  0  # atno 11005 bound_to 11000
  145.3727  141.0345  143.3222 LP  0  0  0  0  0  0  0  0  0  0  0  0  # atno 17320 bound_to 7965
  144.8528  139.5296  143.6848 LP  0  0  0  0  0  0  0  0  0  0  0  0  # atno 17321 bound_to 7965
  140.7470  143.2900  151.3357 LP  0  0  0  0  0  0  0  0  0  0  0  0  # atno 17342 bound_to 10162
  139.6371  144.0609  152.2525 LP  0  0  0  0  0  0  0  0  0  0  0  0  # atno 17343 bound_to 10162
  156.9104  130.5278  149.5280 LP  0  0  0  0  0  0  0  0  0  0  0  0  # atno 17370 bound_to 10713
  156.0632  130.5680  150.9234 LP  0  0  0  0  0  0  0  0  0  0  0  0  # atno 17371 bound_to 10713
  140.1663  134.9131  157.2778 LP  0  0  0  0  0  0  0  0  0  0  0  0  # atno 17394 bound_to 11000
  140.2553  134.3635  155.7427 LP  0  0  0  0  0  0  0  0  0  0  0  0  # atno 17395 bound_to 11000

$$$$
