AV-unprocessed.smi:2910|AV-procd|sdf|11175|dock7
  -GOLD-   2272016 63D 1   1.00000     0.00000
 Structure written by MMmdl.
 47 48  0  0  0  0  0  0  0  0  1 V2000
  153.5963  141.6566  161.6391 C   0  0  0  0  0  0  0  0  0  0  0  0
  153.0039  142.1481  160.3516 C   0  0  0  0  0  0  0  0  0  0  0  0
  152.2049  141.4230  159.4205 C   0  0  0  0  0  0  0  0  0  0  0  0
  151.9480  142.3560  158.4534 C   0  0  0  0  0  0  0  0  0  0  0  0
  151.2180  142.2275  157.3136 N   0  0  0  0  0  0  0  0  0  0  0  0
  150.0086  141.6639  157.1501 C   0  0  0  0  0  0  0  0  0  0  0  0
  149.3491  141.1217  158.0371 O   0  0  0  0  0  0  0  0  0  0  0  0
  149.6001  141.7629  155.8758 N   0  0  0  0  0  0  0  0  0  0  0  0
  148.3281  141.2724  155.3376 C   0  0  2  0  0  0  0  0  0  0  0  0
  148.6124  140.3961  154.0941 C   0  0  0  0  0  0  0  0  0  0  0  0
  149.5857  139.2321  154.3516 C   0  0  0  0  0  0  0  0  0  0  0  0
  150.8880  139.7360  154.5556 O   0  0  0  0  0  0  0  0  0  0  0  0
  147.3738  142.4690  155.0536 C   0  0  0  0  0  0  0  0  0  0  0  0
  146.2635  142.5995  156.1288 C   0  0  0  0  0  0  0  0  0  0  0  0
  145.3100  143.7720  155.8508 C   0  0  0  0  0  0  0  0  0  0  0  0
  144.6761  143.6543  154.4598 C   0  0  0  0  0  0  0  0  0  0  0  0
  145.7610  143.5575  153.3804 C   0  0  0  0  0  0  0  0  0  0  0  0
  146.7196  142.3866  153.6519 C   0  0  0  0  0  0  0  0  0  0  0  0
  152.5580  143.5398  158.8043 N   0  0  0  0  0  0  0  0  0  0  0  0
  152.5743  144.8098  158.1048 C   0  0  0  0  0  0  0  0  0  0  0  0
  153.2114  143.4060  159.9786 N   0  0  0  0  0  0  0  0  0  0  0  0
  153.3599  140.6055  161.8052 H   0  0  0  0  0  0  0  0  0  0  0  0
  153.2106  142.2207  162.4887 H   0  0  0  0  0  0  0  0  0  0  0  0
  154.6820  141.7560  161.6360 H   0  0  0  0  0  0  0  0  0  0  0  0
  151.8845  140.3936  159.4750 H   0  0  0  0  0  0  0  0  0  0  0  0
  151.6430  142.6171  156.4853 H   0  0  0  0  0  0  0  0  0  0  0  0
  150.2134  142.2255  155.2207 H   0  0  0  0  0  0  0  0  0  0  0  0
  147.8386  140.6356  156.0767 H   0  0  0  0  0  0  0  0  0  0  0  0
  147.6813  139.9652  153.7287 H   0  0  0  0  0  0  0  0  0  0  0  0
  148.9983  141.0202  153.2867 H   0  0  0  0  0  0  0  0  0  0  0  0
  149.2961  138.6587  155.2322 H   0  0  0  0  0  0  0  0  0  0  0  0
  149.5987  138.5468  153.5036 H   0  0  0  0  0  0  0  0  0  0  0  0
  151.1648  139.5085  155.4302 H   0  0  0  0  0  0  0  0  0  0  0  0
  147.9691  143.3829  155.0863 H   0  0  0  0  0  0  0  0  0  0  0  0
  145.6925  141.6714  156.1788 H   0  0  0  0  0  0  0  0  0  0  0  0
  146.6961  142.7452  157.1185 H   0  0  0  0  0  0  0  0  0  0  0  0
  144.5302  143.8041  156.6121 H   0  0  0  0  0  0  0  0  0  0  0  0
  145.8557  144.7134  155.9268 H   0  0  0  0  0  0  0  0  0  0  0  0
  144.0367  142.7715  154.4198 H   0  0  0  0  0  0  0  0  0  0  0  0
  144.0328  144.5134  154.2680 H   0  0  0  0  0  0  0  0  0  0  0  0
  145.2985  143.4381  152.4003 H   0  0  0  0  0  0  0  0  0  0  0  0
  146.3250  144.4904  153.3441 H   0  0  0  0  0  0  0  0  0  0  0  0
  147.4766  142.3909  152.8692 H   0  0  0  0  0  0  0  0  0  0  0  0
  146.1786  141.4444  153.5538 H   0  0  0  0  0  0  0  0  0  0  0  0
  151.5517  145.1344  157.9116 H   0  0  0  0  0  0  0  0  0  0  0  0
  153.0990  144.6972  157.1559 H   0  0  0  0  0  0  0  0  0  0  0  0
  153.0791  145.5712  158.7013 H   0  0  0  0  0  0  0  0  0  0  0  0
  1  2  1  0  0  0  0
  1 22  1  0  0  0  0
  1 23  1  0  0  0  0
  1 24  1  0  0  0  0
  2 21  2  0  0  0  0
  2  3  1  0  0  0  0
  3  4  2  0  0  0  0
  3 25  1  0  0  0  0
  4  5  1  0  0  0  0
  4 19  1  0  0  0  0
  5  6  1  0  0  0  0
  5 26  1  0  0  0  0
  6  7  2  0  0  0  0
  6  8  1  0  0  0  0
  8  9  1  0  0  0  0
  8 27  1  0  0  0  0
  9 10  1  0  0  0  0
  9 13  1  0  0  0  0
  9 28  1  0  0  0  0
 10 11  1  0  0  0  0
 10 29  1  0  0  0  0
 10 30  1  0  0  0  0
 11 12  1  0  0  0  0
 11 31  1  0  0  0  0
 11 32  1  0  0  0  0
 12 33  1  0  0  0  0
 13 18  1  0  0  0  0
 13 14  1  0  0  0  0
 13 34  1  0  0  0  0
 14 15  1  0  0  0  0
 14 35  1  0  0  0  0
 14 36  1  0  0  0  0
 15 16  1  0  0  0  0
 15 37  1  0  0  0  0
 15 38  1  0  0  0  0
 16 17  1  0  0  0  0
 16 39  1  0  0  0  0
 16 40  1  0  0  0  0
 17 18  1  0  0  0  0
 17 41  1  0  0  0  0
 17 42  1  0  0  0  0
 18 43  1  0  0  0  0
 18 44  1  0  0  0  0
 19 20  1  0  0  0  0
 19 21  1  0  0  0  0
 20 45  1  0  0  0  0
 20 46  1  0  0  0  0
 20 47  1  0  0  0  0
M  END
> <s_m_source_file>
AV-unprocessed.smi

> <i_m_source_file_index>
2910

> <i_lp_mmshare_version>
43012

> <i_f3d_flags>
0

> <s_epik_input>
W0NIM11jMVtjSF1jKG4objEpW0NIM10pW05IXUMoPU8pW05IXVtDQEhdKFtDSDJdW0NIMl1bT0hdKVtDSF0yW0NIMl1bQ0gyXVtDSDJdW0NIMl1bQ0gyXTI=

> <s_epik_cmdline>
J2VwaWtfcHl0aG9uJywgJy1waCcsICc3LjAnLCAnLXRuJywgJzgnLCAnLW1hJywgJzIwMCcsICctbWV0YWxfYmluZGluZycsICctaW1hZScsICc8aW5maWxlLm1hZT4nLCAnLW9tYWUnLCAnPG91dGZpbGUubWFlPic=

> <r_lp_tautomer_probability>
1

> <r_epik_Ionization_Penalty>
0.000101449

> <r_epik_Ionization_Penalty_Charging>
0

> <r_epik_Ionization_Penalty_Neutral>
0.000101449

> <r_epik_State_Penalty>
-0

> <r_epik_Charging_Adjusted_Penalty>
0

> <i_epik_Tot_Q>
0

> <i_epik_Tot_abs_Q>
0

> <r_epik_Metal_State_Penalty>
-0

> <b_epik_Metal_Only>
0

> <s_lp_Force_Field>
OPLS_2005

> <r_lp_Energy>
16.2269

> <b_lp_Chiralities_Consistent>
1

> <s_lp_Variant>
AV-unprocessed.smi:2910-1

> <Gold.Version>
5.8.1

> <Gold.Id.Protein>
6NUR|6NUR_protein|mol2

> <Gold.PLP.Fitness>
43.6473

> <Gold.PLP.PLP>
-44.2568

> <Gold.PLP.part.hbond>
-1.7277

> <Gold.PLP.part.metal>
0.0000

> <Gold.PLP.part.buried>
-3.7613

> <Gold.PLP.part.nonpolar>
-39.3409

> <Gold.PLP.part.repulsive>
0.1675

> <Gold.PLP.ligand.clash>
0.0000

> <Gold.PLP.ligand.torsion>
1.8622

> <Gold.PLP.Chemscore.Hbond>
1.0000

> <Gold.PLP.Chemscore.CHOScore>
0.0000

> <Gold.PLP.Chemscore.Metal>
0.0000

> <Gold.Chemscore.Hbonds>
donor molecule, donor type, donor heavy atom, donor atom, acceptor molecule, acceptor atom, score
      P1  H  7989  7998       L1    12  1.00

> <Gold.PLP.Chemscore.Internal.Correction>
0.1149

> <Gold.Rescore>
     Score         DG    S(hbond)    S(metal)    S(lipo)     H(rot)  DE(clash)    DE(int)     intcor
     10.20     -13.90       0.99        0.00      93.53       2.27       0.56       3.14       ----

> <Gold.Chemscore.Fitness>
10.2022

> <Gold.Chemscore.DG>
-13.9020

> <Gold.Chemscore.ZeroCoef>
-5.4800

> <Gold.Chemscore.Hbond>
0.9882

> <Gold.Chemscore.Metal>
0.0000

> <Gold.Chemscore.Lipo>
93.5344

> <Gold.Chemscore.Internal_Hbond>
0.0000

> <Gold.Chemscore.DEClash>
0.5599

> <Gold.Chemscore.DEInternal>
3.1399

> <Gold.Chemscore.Rot>
2.2743

> <Gold.Chemscore.Internal.Correction>
   9.000000E+99

> <Gold.Chemscore.Hbonds>
donor molecule, donor type, donor heavy atom, donor atom, acceptor molecule, acceptor atom, score
      P1  H  7989  7998       L1    12  0.99

> <Gold.Chemscore.Hbond.Weighted>
-3.3007

> <Gold.Chemscore.Metal.Weighted>
-0.0000

> <Gold.Chemscore.Lipo.Weighted>
-10.9435

> <Gold.Chemscore.Internal_Hbond.Weighted>
0.0000

> <Gold.Chemscore.DEClash.Weighted>
0.5599

> <Gold.Chemscore.DEInternal.Weighted>
3.1399

> <Gold.Chemscore.Rot.Weighted>
5.8223

> <Gold.Chemscore.Internal.Correction.Weighted>
   9.000000E+99

> <Gold.Protein.RotatedTorsions>
[ 6907 6896 6895 6894 ] final  122.93 input  -60.11 | X-H torsion
[ 7974 7965 7964 7962 ] final  -71.26 input  175.53 | X-H torsion
[ 8008 7997 7996 7995 ] final   65.40 input   59.86 | X-H torsion
[ 10167 10162 10161 10158 ] final -114.49 input  -65.29 | X-H torsion
[ 10718 10713 10712 10709 ] final   94.31 input   66.30 | X-H torsion
[ 10763 10752 10751 10750 ] final  -35.21 input  -60.55 | X-H torsion
[ 11005 11000 10999 10996 ] final   14.92 input  -57.11 | X-H torsion

> <Gold.Protein.ActiveResidues>
 VAL166  LYS551  ARG553  GLY616  TRP617  ASP618  TYR619  PRO620  LYS621  CYS622 
 ASP623  PHE694  ASN695  SER759  ASP760  ASP761  ALA762  ILE779  LEU786  VAL792 
 PHE793  MET794  SER795  GLU796  ALA797  LYS798  CYS799  TRP800  GLU811  SER814 

> <Gold.Protein.RotatedAtoms>
  152.4203  133.7105  159.6475 H   0  0  0  0  0  0  0  0  0  0  0  0  # atno 6907 bound_to 6896
  150.8079  133.8465  159.3202 H   0  0  0  0  0  0  0  0  0  0  0  0  # atno 6908 bound_to 6896
  151.6184  135.1036  160.0148 H   0  0  0  0  0  0  0  0  0  0  0  0  # atno 6909 bound_to 6896
  145.6803  140.9190  143.0836 H   0  0  0  0  0  0  0  0  0  0  0  0  # atno 7974 bound_to 7965
  155.6612  140.3497  155.4783 H   0  0  0  0  0  0  0  0  0  0  0  0  # atno 8008 bound_to 7997
  155.9767  140.1166  157.0787 H   0  0  0  0  0  0  0  0  0  0  0  0  # atno 8009 bound_to 7997
  154.4180  140.1146  156.5366 H   0  0  0  0  0  0  0  0  0  0  0  0  # atno 8010 bound_to 7997
  140.1004  143.4618  152.1815 H   0  0  0  0  0  0  0  0  0  0  0  0  # atno 10167 bound_to 10162
  157.6949  131.0508  150.4167 H   0  0  0  0  0  0  0  0  0  0  0  0  # atno 10718 bound_to 10713
  153.8594  135.6841  153.4784 H   0  0  0  0  0  0  0  0  0  0  0  0  # atno 10763 bound_to 10752
  153.1351  135.4681  154.9407 H   0  0  0  0  0  0  0  0  0  0  0  0  # atno 10764 bound_to 10752
  154.7766  135.3255  154.8029 H   0  0  0  0  0  0  0  0  0  0  0  0  # atno 10765 bound_to 10752
  140.4641  134.1098  155.7721 H   0  0  0  0  0  0  0  0  0  0  0  0  # atno 11005 bound_to 11000
  144.7028  139.8688  143.7439 LP  0  0  0  0  0  0  0  0  0  0  0  0  # atno 17320 bound_to 7965
  146.0970  139.3963  143.0370 LP  0  0  0  0  0  0  0  0  0  0  0  0  # atno 17321 bound_to 7965
  139.5674  144.7443  151.3984 LP  0  0  0  0  0  0  0  0  0  0  0  0  # atno 17342 bound_to 10162
  140.6981  143.7700  150.7358 LP  0  0  0  0  0  0  0  0  0  0  0  0  # atno 17343 bound_to 10162
  156.4546  130.4019  149.6614 LP  0  0  0  0  0  0  0  0  0  0  0  0  # atno 17370 bound_to 10713
  156.3751  130.7550  151.2538 LP  0  0  0  0  0  0  0  0  0  0  0  0  # atno 17371 bound_to 10713
  141.1608  133.8797  157.1854 LP  0  0  0  0  0  0  0  0  0  0  0  0  # atno 17394 bound_to 11000
  139.9927  135.0058  157.0011 LP  0  0  0  0  0  0  0  0  0  0  0  0  # atno 17395 bound_to 11000

$$$$
