AV-unprocessed.smi:1732|AV-procd|sdf|6977|dock5
  -GOLD-   22720 8193D 1   1.00000     0.00000
 Structure written by MMmdl.
 35 36  0  0  0  0  0  0  0  0  2 V2000
  155.1930  139.6899  159.2259 O   0  0  0  0  0  0  0  0  0  0  0  0
  154.5911  140.0116  160.2498 C   0  0  0  0  0  0  0  0  0  0  0  0
  154.2345  141.4782  160.4758 C   0  0  0  0  0  0  0  0  0  0  0  0
  153.2439  141.8504  159.5297 O   0  0  0  0  0  0  0  0  0  0  0  0
  152.9945  143.2475  159.4843 C   0  0  0  0  0  0  0  0  0  0  0  0
  152.1299  143.6742  160.6696 C   0  0  0  0  0  0  0  0  0  0  0  0
  151.4765  144.9884  160.2282 C   0  0  0  0  0  0  0  0  0  0  0  0
  151.4857  144.9788  158.6912 C   0  0  0  0  0  0  0  0  0  0  0  0
  152.1583  143.6666  158.2720 C   0  0  0  0  0  0  0  0  0  0  0  0
  154.1814  139.1653  161.2149 N   0  0  0  0  0  0  0  0  0  0  0  0
  154.3683  137.7767  161.3200 C   0  0  0  0  0  0  0  0  0  0  0  0
  154.7826  137.1339  162.4469 C   0  0  0  0  0  0  0  0  0  0  0  0
  154.9434  135.6863  162.5048 C   0  0  0  0  0  0  0  0  0  0  0  0
  155.4888  134.9435  163.7116 C   0  0  0  0  0  0  0  0  0  0  0  0
  154.5688  134.1261  164.2244 F   0  0  0  0  0  0  0  0  0  0  0  0
  156.5602  134.2200  163.3862 F   0  0  0  0  0  0  0  0  0  0  0  0
  155.8444  135.8124  164.6568 F   0  0  0  0  0  0  0  0  0  0  0  0
  154.6393  135.0765  161.3033 C   0  0  0  0  0  0  0  0  0  0  0  0
  154.1986  135.6336  160.1539 N   0  5  0  0  0  0  0  0  0  0  0  0
  154.0476  136.9877  160.1122 C   0  0  0  0  0  0  0  0  0  0  0  0
  153.6526  137.5611  159.0963 O   0  0  0  0  0  0  0  0  0  0  0  0
  153.8605  141.6152  161.4917 H   0  0  0  0  0  0  0  0  0  0  0  0
  155.1318  142.0893  160.3682 H   0  0  0  0  0  0  0  0  0  0  0  0
  153.9298  143.8103  159.5098 H   0  0  0  0  0  0  0  0  0  0  0  0
  151.3545  142.9273  160.8465 H   0  0  0  0  0  0  0  0  0  0  0  0
  152.7038  143.7783  161.5910 H   0  0  0  0  0  0  0  0  0  0  0  0
  150.4675  145.0855  160.6305 H   0  0  0  0  0  0  0  0  0  0  0  0
  152.0562  145.8366  160.5945 H   0  0  0  0  0  0  0  0  0  0  0  0
  150.4801  145.0581  158.2772 H   0  0  0  0  0  0  0  0  0  0  0  0
  152.0583  145.8300  158.3210 H   0  0  0  0  0  0  0  0  0  0  0  0
  152.7532  143.7745  157.3647 H   0  0  0  0  0  0  0  0  0  0  0  0
  151.3930  142.9135  158.0780 H   0  0  0  0  0  0  0  0  0  0  0  0
  153.6270  139.5680  161.9567 H   0  0  0  0  0  0  0  0  0  0  0  0
  154.9854  137.6833  163.3515 H   0  0  0  0  0  0  0  0  0  0  0  0
  154.7723  133.9743  161.2593 H   0  0  0  0  0  0  0  0  0  0  0  0
  1  2  2  0  0  0  0
  2  3  1  0  0  0  0
  2 10  1  0  0  0  0
  3  4  1  0  0  0  0
  3 22  1  0  0  0  0
  3 23  1  0  0  0  0
  4  5  1  0  0  0  0
  5  9  1  0  0  0  0
  5  6  1  0  0  0  0
  5 24  1  0  0  0  0
  6  7  1  0  0  0  0
  6 25  1  0  0  0  0
  6 26  1  0  0  0  0
  7  8  1  0  0  0  0
  7 27  1  0  0  0  0
  7 28  1  0  0  0  0
  8  9  1  0  0  0  0
  8 29  1  0  0  0  0
  8 30  1  0  0  0  0
  9 31  1  0  0  0  0
  9 32  1  0  0  0  0
 10 11  1  0  0  0  0
 10 33  1  0  0  0  0
 11 20  1  0  0  0  0
 11 12  2  0  0  0  0
 12 13  1  0  0  0  0
 12 34  1  0  0  0  0
 13 14  1  0  0  0  0
 13 18  2  0  0  0  0
 14 15  1  0  0  0  0
 14 16  1  0  0  0  0
 14 17  1  0  0  0  0
 18 19  1  0  0  0  0
 18 35  1  0  0  0  0
 19 20  1  0  0  0  0
 20 21  2  0  0  0  0
M  CHG  1  19  -1
M  END
> <s_m_source_file>
AV-unprocessed.smi

> <i_m_source_file_index>
1732

> <i_lp_mmshare_version>
43012

> <i_f3d_flags>
0

> <s_epik_input>
W0NIMl0xW0NIMl1bQ0gyXVtDSDJdW0NIXTFPW0NIMl1DKD1PKVtOSF1jMltjSF1jKEMoRikoRilGKVtjSF1bbkhdYzI9Tw==

> <s_epik_cmdline>
J2VwaWtfcHl0aG9uJywgJy1waCcsICc3LjAnLCAnLXRuJywgJzgnLCAnLW1hJywgJzIwMCcsICctbWV0YWxfYmluZGluZycsICctaW1hZScsICc8aW5maWxlLm1hZT4nLCAnLW9tYWUnLCAnPG91dGZpbGUubWFlPic=

> <r_epik_Ionization_Penalty>
2.40879

> <r_epik_Ionization_Penalty_Charging>
0.039975

> <r_epik_Ionization_Penalty_Neutral>
2.36882

> <r_epik_State_Penalty>
2.52443

> <r_epik_Charging_Adjusted_Penalty>
2.5644

> <i_epik_Tot_Q>
-1

> <i_epik_Tot_abs_Q>
1

> <r_epik_Metal_State_Penalty>
0.506326

> <b_epik_Metal_Only>
0

> <s_lp_Force_Field>
OPLS_2005

> <r_lp_Energy>
39.1091

> <b_lp_Chiralities_Consistent>
1

> <s_lp_Variant>
AV-unprocessed.smi:1732-2

> <Gold.Version>
5.8.1

> <Gold.Id.Protein>
6NUR|6NUR_protein|mol2

> <Gold.PLP.Fitness>
48.3815

> <Gold.PLP.PLP>
-40.8062

> <Gold.PLP.part.hbond>
-2.0000

> <Gold.PLP.part.metal>
0.0000

> <Gold.PLP.part.buried>
-5.1286

> <Gold.PLP.part.nonpolar>
-33.5275

> <Gold.PLP.part.repulsive>
0.0082

> <Gold.PLP.ligand.clash>
0.0000

> <Gold.PLP.ligand.torsion>
0.7350

> <Gold.PLP.Chemscore.Hbond>
2.9920

> <Gold.PLP.Chemscore.CHOScore>
0.0000

> <Gold.PLP.Chemscore.Metal>
0.0000

> <Gold.Chemscore.Hbonds>
donor molecule, donor type, donor heavy atom, donor atom, acceptor molecule, acceptor atom, score
      P1  H  6896  6908       L1    19  1.80
      P1  H  7997  8010       L1     1  0.98

> <Gold.PLP.Chemscore.Internal.Correction>
0.0693

> <Gold.Rescore>
     Score         DG    S(hbond)    S(metal)    S(lipo)     H(rot)  DE(clash)    DE(int)     intcor
     15.91     -19.45       1.83        0.00     101.60       1.58       0.04       3.50       ----

> <Gold.Chemscore.Fitness>
15.9077

> <Gold.Chemscore.DG>
-19.4506

> <Gold.Chemscore.ZeroCoef>
-5.4800

> <Gold.Chemscore.Hbond>
1.8332

> <Gold.Chemscore.Metal>
0.0000

> <Gold.Chemscore.Lipo>
101.6030

> <Gold.Chemscore.Internal_Hbond>
0.0000

> <Gold.Chemscore.DEClash>
0.0383

> <Gold.Chemscore.DEInternal>
3.5046

> <Gold.Chemscore.Rot>
1.5781

> <Gold.Chemscore.Internal.Correction>
   9.000000E+99

> <Gold.Chemscore.Hbonds>
donor molecule, donor type, donor heavy atom, donor atom, acceptor molecule, acceptor atom, score
      P1  H  6896  6908       L1    19  0.15
      P1  H  7997  8010       L1     1  0.92

> <Gold.Chemscore.Hbond.Weighted>
-6.1230

> <Gold.Chemscore.Metal.Weighted>
-0.0000

> <Gold.Chemscore.Lipo.Weighted>
-11.8876

> <Gold.Chemscore.Internal_Hbond.Weighted>
0.0000

> <Gold.Chemscore.DEClash.Weighted>
0.0383

> <Gold.Chemscore.DEInternal.Weighted>
3.5046

> <Gold.Chemscore.Rot.Weighted>
4.0399

> <Gold.Chemscore.Internal.Correction.Weighted>
   9.000000E+99

> <Gold.Protein.RotatedTorsions>
[ 6907 6896 6895 6894 ] final  -60.01 input  -60.11 | X-H torsion
[ 7974 7965 7964 7962 ] final  -43.45 input  175.53 | X-H torsion
[ 8008 7997 7996 7995 ] final  -27.70 input   59.86 | X-H torsion
[ 10167 10162 10161 10158 ] final   42.37 input  -65.29 | X-H torsion
[ 10718 10713 10712 10709 ] final   70.13 input   66.30 | X-H torsion
[ 10763 10752 10751 10750 ] final -144.55 input  -60.55 | X-H torsion
[ 11005 11000 10999 10996 ] final   20.71 input  -57.11 | X-H torsion

> <Gold.Protein.ActiveResidues>
 VAL166  LYS551  ARG553  GLY616  TRP617  ASP618  TYR619  PRO620  LYS621  CYS622 
 ASP623  PHE694  ASN695  SER759  ASP760  ASP761  ALA762  ILE779  LEU786  VAL792 
 PHE793  MET794  SER795  GLU796  ALA797  LYS798  CYS799  TRP800  GLU811  SER814 

> <Gold.Protein.RotatedAtoms>
  150.7888  134.6894  159.6487 H   0  0  0  0  0  0  0  0  0  0  0  0  # atno 6907 bound_to 6896
  152.3989  134.6316  160.0086 H   0  0  0  0  0  0  0  0  0  0  0  0  # atno 6908 bound_to 6896
  151.6593  133.3281  159.3206 H   0  0  0  0  0  0  0  0  0  0  0  0  # atno 6909 bound_to 6896
  146.0017  140.7066  142.9267 H   0  0  0  0  0  0  0  0  0  0  0  0  # atno 7974 bound_to 7965
  154.4365  140.1865  156.0973 H   0  0  0  0  0  0  0  0  0  0  0  0  # atno 8008 bound_to 7997
  156.0319  140.3329  155.7123 H   0  0  0  0  0  0  0  0  0  0  0  0  # atno 8009 bound_to 7997
  155.5826  140.0623  157.2770 H   0  0  0  0  0  0  0  0  0  0  0  0  # atno 8010 bound_to 7997
  140.3551  144.2300  150.6142 H   0  0  0  0  0  0  0  0  0  0  0  0  # atno 10167 bound_to 10162
  157.6383  130.9461  150.0609 H   0  0  0  0  0  0  0  0  0  0  0  0  # atno 10718 bound_to 10713
  154.8423  135.3437  154.6364 H   0  0  0  0  0  0  0  0  0  0  0  0  # atno 10763 bound_to 10752
  153.6974  135.6971  153.5077 H   0  0  0  0  0  0  0  0  0  0  0  0  # atno 10764 bound_to 10752
  153.2548  135.4341  155.0789 H   0  0  0  0  0  0  0  0  0  0  0  0  # atno 10765 bound_to 10752
  140.3996  134.1732  155.7663 H   0  0  0  0  0  0  0  0  0  0  0  0  # atno 11005 bound_to 11000
  144.6922  140.3245  143.7226 LP  0  0  0  0  0  0  0  0  0  0  0  0  # atno 17320 bound_to 7965
  145.7477  139.1784  143.2339 LP  0  0  0  0  0  0  0  0  0  0  0  0  # atno 17321 bound_to 7965
  140.5181  143.2272  151.8431 LP  0  0  0  0  0  0  0  0  0  0  0  0  # atno 17342 bound_to 10162
  139.4821  144.4869  151.9235 LP  0  0  0  0  0  0  0  0  0  0  0  0  # atno 17343 bound_to 10162
  156.1642  130.3644  149.9256 LP  0  0  0  0  0  0  0  0  0  0  0  0  # atno 17370 bound_to 10713
  156.7247  130.9020  151.3621 LP  0  0  0  0  0  0  0  0  0  0  0  0  # atno 17371 bound_to 10713
  141.1861  133.8308  157.1079 LP  0  0  0  0  0  0  0  0  0  0  0  0  # atno 17394 bound_to 11000
  140.0346  134.9884  157.0846 LP  0  0  0  0  0  0  0  0  0  0  0  0  # atno 17395 bound_to 11000

$$$$
