AV-unprocessed.smi:822|AV-procd|sdf|3843|dock10
  -GOLD-   22720 1293D 1   1.00000     0.00000
 Structure written by MMmdl.
 38 39  0  0  0  0  0  0  0  0  1 V2000
  151.4878  140.2666  155.1913 O   0  0  0  0  0  0  0  0  0  0  0  0
  150.8605  140.7755  156.1202 C   0  0  0  0  0  0  0  0  0  0  0  0
  151.4295  140.7467  157.5430 C   0  0  0  0  0  0  0  0  0  0  0  0
  151.3459  142.1044  158.2766 C   0  0  0  0  0  0  0  0  0  0  0  0
  151.5931  143.2682  157.2942 C   0  0  0  0  0  0  0  0  0  0  0  0
  151.5103  144.6348  157.9931 C   0  0  0  0  0  0  0  0  0  0  0  0
  152.4885  144.7146  159.1744 C   0  0  0  0  0  0  0  0  0  0  0  0
  152.2486  143.5667  160.1661 C   0  0  0  0  0  0  0  0  0  0  0  0
  152.3277  142.1993  159.4680 C   0  0  0  0  0  0  0  0  0  0  0  0
  149.6679  141.3706  155.9652 N   0  0  0  0  0  0  0  0  0  0  0  0
  148.9573  141.5030  154.6992 C   0  0  0  0  0  0  0  0  0  0  0  0
  147.5261  140.9513  154.7967 C   0  0  0  0  0  0  0  0  0  0  0  0
  146.5429  142.0133  154.7341 N   0  0  0  0  0  0  0  0  0  0  0  0
  146.3505  142.9166  153.6971 C   0  0  0  0  0  0  0  0  0  0  0  0
  145.3089  143.7331  154.0758 C   0  0  0  0  0  0  0  0  0  0  0  0
  144.8473  143.3517  155.3335 N   0  0  0  0  0  0  0  0  0  0  0  0
  145.6257  142.3274  155.6592 C   0  0  0  0  0  0  0  0  0  0  0  0
  150.9240  139.9786  158.1303 H   0  0  0  0  0  0  0  0  0  0  0  0
  152.4720  140.4349  157.4678 H   0  0  0  0  0  0  0  0  0  0  0  0
  150.3331  142.2198  158.6666 H   0  0  0  0  0  0  0  0  0  0  0  0
  152.5748  143.1573  156.8316 H   0  0  0  0  0  0  0  0  0  0  0  0
  150.8657  143.2325  156.4825 H   0  0  0  0  0  0  0  0  0  0  0  0
  151.7254  145.4303  157.2790 H   0  0  0  0  0  0  0  0  0  0  0  0
  150.4928  144.8041  158.3479 H   0  0  0  0  0  0  0  0  0  0  0  0
  153.5136  144.6707  158.8044 H   0  0  0  0  0  0  0  0  0  0  0  0
  152.3830  145.6740  159.6818 H   0  0  0  0  0  0  0  0  0  0  0  0
  152.9804  143.6143  160.9731 H   0  0  0  0  0  0  0  0  0  0  0  0
  151.2687  143.6831  160.6307 H   0  0  0  0  0  0  0  0  0  0  0  0
  152.1203  141.4181  160.1996 H   0  0  0  0  0  0  0  0  0  0  0  0
  153.3470  142.0303  159.1182 H   0  0  0  0  0  0  0  0  0  0  0  0
  149.2230  141.7638  156.7820 H   0  0  0  0  0  0  0  0  0  0  0  0
  148.9310  142.5610  154.4361 H   0  0  0  0  0  0  0  0  0  0  0  0
  149.5099  140.9999  153.9036 H   0  0  0  0  0  0  0  0  0  0  0  0
  147.3269  140.2465  153.9880 H   0  0  0  0  0  0  0  0  0  0  0  0
  147.3890  140.4081  155.7326 H   0  0  0  0  0  0  0  0  0  0  0  0
  146.9530  142.9035  152.8007 H   0  0  0  0  0  0  0  0  0  0  0  0
  144.8591  144.5587  153.5439 H   0  0  0  0  0  0  0  0  0  0  0  0
  145.5245  141.7922  156.5922 H   0  0  0  0  0  0  0  0  0  0  0  0
  1  2  2  0  0  0  0
  2  3  1  0  0  0  0
  2 10  1  0  0  0  0
  3  4  1  0  0  0  0
  3 18  1  0  0  0  0
  3 19  1  0  0  0  0
  4  9  1  0  0  0  0
  4  5  1  0  0  0  0
  4 20  1  0  0  0  0
  5  6  1  0  0  0  0
  5 21  1  0  0  0  0
  5 22  1  0  0  0  0
  6  7  1  0  0  0  0
  6 23  1  0  0  0  0
  6 24  1  0  0  0  0
  7  8  1  0  0  0  0
  7 25  1  0  0  0  0
  7 26  1  0  0  0  0
  8  9  1  0  0  0  0
  8 27  1  0  0  0  0
  8 28  1  0  0  0  0
  9 29  1  0  0  0  0
  9 30  1  0  0  0  0
 10 11  1  0  0  0  0
 10 31  1  0  0  0  0
 11 12  1  0  0  0  0
 11 32  1  0  0  0  0
 11 33  1  0  0  0  0
 12 13  1  0  0  0  0
 12 34  1  0  0  0  0
 12 35  1  0  0  0  0
 13 17  1  0  0  0  0
 13 14  1  0  0  0  0
 14 15  2  0  0  0  0
 14 36  1  0  0  0  0
 15 16  1  0  0  0  0
 15 37  1  0  0  0  0
 16 17  2  0  0  0  0
 17 38  1  0  0  0  0
M  END
> <s_m_source_file>
AV-unprocessed.smi

> <i_m_source_file_index>
822

> <i_lp_mmshare_version>
43012

> <i_f3d_flags>
0

> <s_epik_input>
W0NIMl0xW0NIMl1bQ0gyXVtDSDJdW0NIMl1bQ0hdMVtDSDJdQyg9TylbTkhdW0NIMl1bQ0gyXW4yW2NIXVtjSF1uW2NIXTI=

> <s_epik_cmdline>
J2VwaWtfcHl0aG9uJywgJy1waCcsICc3LjAnLCAnLXRuJywgJzgnLCAnLW1hJywgJzIwMCcsICctbWV0YWxfYmluZGluZycsICctaW1hZScsICc8aW5maWxlLm1hZT4nLCAnLW9tYWUnLCAnPG91dGZpbGUubWFlPic=

> <r_lp_tautomer_probability>
1

> <r_epik_Ionization_Penalty>
0.600603

> <r_epik_Ionization_Penalty_Charging>
0.600603

> <r_epik_Ionization_Penalty_Neutral>
2.18922e-08

> <r_epik_State_Penalty>
0.614954

> <r_epik_Charging_Adjusted_Penalty>
1.21556

> <i_epik_Tot_Q>
0

> <i_epik_Tot_abs_Q>
0

> <r_epik_Metal_State_Penalty>
0.301281

> <b_epik_Metal_Only>
0

> <s_lp_Force_Field>
OPLS_2005

> <r_lp_Energy>
10.0857

> <b_lp_Chiralities_Consistent>
1

> <s_lp_Variant>
AV-unprocessed.smi:822-2

> <Gold.Version>
5.8.1

> <Gold.Id.Protein>
6NUR|6NUR_protein|mol2

> <Gold.PLP.Fitness>
42.3898

> <Gold.PLP.PLP>
-40.9345

> <Gold.PLP.part.hbond>
-1.0000

> <Gold.PLP.part.metal>
0.0000

> <Gold.PLP.part.buried>
-7.2450

> <Gold.PLP.part.nonpolar>
-32.9517

> <Gold.PLP.part.repulsive>
0.2874

> <Gold.PLP.ligand.clash>
0.0000

> <Gold.PLP.ligand.torsion>
0.7445

> <Gold.PLP.Chemscore.Hbond>
0.9760

> <Gold.PLP.Chemscore.CHOScore>
0.0000

> <Gold.PLP.Chemscore.Metal>
0.0000

> <Gold.Chemscore.Hbonds>
donor molecule, donor type, donor heavy atom, donor atom, acceptor molecule, acceptor atom, score
      P1  H  7989  7998       L1     1  0.98

> <Gold.PLP.Chemscore.Internal.Correction>
0.0162

> <Gold.Rescore>
     Score         DG    S(hbond)    S(metal)    S(lipo)     H(rot)  DE(clash)    DE(int)     intcor
     13.30     -15.35       0.95        0.00     100.19       1.97       0.07       1.98       ----

> <Gold.Chemscore.Fitness>
13.2988

> <Gold.Chemscore.DG>
-15.3457

> <Gold.Chemscore.ZeroCoef>
-5.4800

> <Gold.Chemscore.Hbond>
0.9534

> <Gold.Chemscore.Metal>
0.0000

> <Gold.Chemscore.Lipo>
100.1910

> <Gold.Chemscore.Internal_Hbond>
0.0000

> <Gold.Chemscore.DEClash>
0.0698

> <Gold.Chemscore.DEInternal>
1.9771

> <Gold.Chemscore.Rot>
1.9692

> <Gold.Chemscore.Internal.Correction>
   9.000000E+99

> <Gold.Chemscore.Hbonds>
donor molecule, donor type, donor heavy atom, donor atom, acceptor molecule, acceptor atom, score
      P1  H  7989  7998       L1     1  0.93

> <Gold.Chemscore.Hbond.Weighted>
-3.1844

> <Gold.Chemscore.Metal.Weighted>
-0.0000

> <Gold.Chemscore.Lipo.Weighted>
-11.7224

> <Gold.Chemscore.Internal_Hbond.Weighted>
0.0000

> <Gold.Chemscore.DEClash.Weighted>
0.0698

> <Gold.Chemscore.DEInternal.Weighted>
1.9771

> <Gold.Chemscore.Rot.Weighted>
5.0410

> <Gold.Chemscore.Internal.Correction.Weighted>
   9.000000E+99

> <Gold.Protein.RotatedTorsions>
[ 6907 6896 6895 6894 ] final -120.98 input  -60.11 | X-H torsion
[ 7974 7965 7964 7962 ] final   86.51 input  175.53 | X-H torsion
[ 8008 7997 7996 7995 ] final  161.80 input   59.86 | X-H torsion
[ 10167 10162 10161 10158 ] final -126.89 input  -65.29 | X-H torsion
[ 10718 10713 10712 10709 ] final -175.64 input   66.30 | X-H torsion
[ 10763 10752 10751 10750 ] final   -1.66 input  -60.55 | X-H torsion
[ 11005 11000 10999 10996 ] final -164.26 input  -57.11 | X-H torsion

> <Gold.Protein.ActiveResidues>
 VAL166  LYS551  ARG553  GLY616  TRP617  ASP618  TYR619  PRO620  LYS621  CYS622 
 ASP623  PHE694  ASN695  SER759  ASP760  ASP761  ALA762  ILE779  LEU786  VAL792 
 PHE793  MET794  SER795  GLU796  ALA797  LYS798  CYS799  TRP800  GLU811  SER814 

> <Gold.Protein.RotatedAtoms>
  150.8442  133.7888  159.3049 H   0  0  0  0  0  0  0  0  0  0  0  0  # atno 6907 bound_to 6896
  151.5581  135.1064  159.9975 H   0  0  0  0  0  0  0  0  0  0  0  0  # atno 6908 bound_to 6896
  152.4499  133.7566  159.6780 H   0  0  0  0  0  0  0  0  0  0  0  0  # atno 6909 bound_to 6896
  145.5713  139.2314  143.2404 H   0  0  0  0  0  0  0  0  0  0  0  0  # atno 7974 bound_to 7965
  156.2077  140.1767  156.7763 H   0  0  0  0  0  0  0  0  0  0  0  0  # atno 8008 bound_to 7997
  154.5678  140.0688  156.8949 H   0  0  0  0  0  0  0  0  0  0  0  0  # atno 8009 bound_to 7997
  155.2728  140.3343  155.4266 H   0  0  0  0  0  0  0  0  0  0  0  0  # atno 8010 bound_to 7997
  139.9667  143.5890  152.2427 H   0  0  0  0  0  0  0  0  0  0  0  0  # atno 10167 bound_to 10162
  156.8028  130.9558  151.3118 H   0  0  0  0  0  0  0  0  0  0  0  0  # atno 10718 bound_to 10713
  153.3477  135.6984  153.6814 H   0  0  0  0  0  0  0  0  0  0  0  0  # atno 10763 bound_to 10752
  153.5553  135.3545  155.2777 H   0  0  0  0  0  0  0  0  0  0  0  0  # atno 10764 bound_to 10752
  154.8648  135.4236  154.2706 H   0  0  0  0  0  0  0  0  0  0  0  0  # atno 10765 bound_to 10752
  140.5889  134.5065  157.5190 H   0  0  0  0  0  0  0  0  0  0  0  0  # atno 11005 bound_to 11000
  146.1782  140.6539  142.9201 LP  0  0  0  0  0  0  0  0  0  0  0  0  # atno 17320 bound_to 7965
  144.7436  140.5009  143.6851 LP  0  0  0  0  0  0  0  0  0  0  0  0  # atno 17321 bound_to 7965
  139.6512  144.7661  151.2144 LP  0  0  0  0  0  0  0  0  0  0  0  0  # atno 17342 bound_to 10162
  140.7535  143.6157  150.8561 LP  0  0  0  0  0  0  0  0  0  0  0  0  # atno 17343 bound_to 10162
  157.6545  130.8912  149.9700 LP  0  0  0  0  0  0  0  0  0  0  0  0  # atno 17370 bound_to 10713
  156.1091  130.3651  150.0081 LP  0  0  0  0  0  0  0  0  0  0  0  0  # atno 17371 bound_to 10713
  139.9283  134.8013  156.1004 LP  0  0  0  0  0  0  0  0  0  0  0  0  # atno 17394 bound_to 11000
  141.0948  133.6700  156.2620 LP  0  0  0  0  0  0  0  0  0  0  0  0  # atno 17395 bound_to 11000

$$$$
