AV-unprocessed.smi:3219|AV-procd|sdf|12295|dock10
  -GOLD-   2272018133D 1   1.00000     0.00000
 Structure written by MMmdl.
 41 42  0  0  0  0  0  0  0  0  2 V2000
  151.6177  139.9962  157.8042 C   0  0  0  0  0  0  0  0  0  0  0  0
  150.9211  140.1944  156.4963 C   0  0  0  0  0  0  0  0  0  0  0  0
  149.7812  140.8861  156.1821 C   0  0  0  0  0  0  0  0  0  0  0  0
  148.8642  141.6747  157.0808 C   0  0  0  0  0  0  0  0  0  0  0  0
  149.6346  142.4424  158.1654 C   0  0  0  0  0  0  0  0  0  0  0  0
  150.6917  143.2920  157.5814 N   0  3  0  0  0  0  0  0  0  0  0  0
  151.3989  144.1376  158.5628 C   0  0  0  0  0  0  0  0  0  0  0  0
  151.8906  143.3137  159.7668 C   0  0  2  0  0  0  0  0  0  0  0  0
  152.0698  144.1875  161.0312 C   0  0  0  0  0  0  0  0  0  0  0  0
  152.8212  143.4702  162.1387 C   0  0  0  0  0  0  0  0  0  0  0  0
  153.5251  142.3425  161.9454 C   0  0  0  0  0  0  0  0  0  0  0  0
  153.6536  141.6622  160.5957 C   0  0  0  0  0  0  0  0  0  0  0  0
  153.2018  142.5731  159.4391 C   0  0  0  0  0  0  0  0  0  0  0  0
  149.6469  140.6933  154.7782 C   0  0  0  0  0  0  0  0  0  0  0  0
  150.6155  139.9559  154.2661 N   0  0  0  0  0  0  0  0  0  0  0  0
  151.3971  139.6453  155.3203 N   0  0  0  0  0  0  0  0  0  0  0  0
  152.5734  138.8225  155.1149 C   0  0  0  0  0  0  0  0  0  0  0  0
  151.1583  140.5902  158.5937 H   0  0  0  0  0  0  0  0  0  0  0  0
  152.6654  140.2897  157.7354 H   0  0  0  0  0  0  0  0  0  0  0  0
  151.5789  138.9499  158.1074 H   0  0  0  0  0  0  0  0  0  0  0  0
  148.2868  142.3890  156.4930 H   0  0  0  0  0  0  0  0  0  0  0  0
  148.1244  141.0272  157.5521 H   0  0  0  0  0  0  0  0  0  0  0  0
  148.9474  143.0622  158.7431 H   0  0  0  0  0  0  0  0  0  0  0  0
  150.0904  141.7361  158.8604 H   0  0  0  0  0  0  0  0  0  0  0  0
  151.3677  142.6959  157.1258 H   0  0  0  0  0  0  0  0  0  0  0  0
  152.2478  144.6067  158.0634 H   0  0  0  0  0  0  0  0  0  0  0  0
  150.7412  144.9414  158.8966 H   0  0  0  0  0  0  0  0  0  0  0  0
  151.1384  142.5529  159.9828 H   0  0  0  0  0  0  0  0  0  0  0  0
  152.6212  145.0981  160.7937 H   0  0  0  0  0  0  0  0  0  0  0  0
  151.0968  144.4967  161.4145 H   0  0  0  0  0  0  0  0  0  0  0  0
  152.7824  143.9161  163.1219 H   0  0  0  0  0  0  0  0  0  0  0  0
  154.0270  141.8722  162.7785 H   0  0  0  0  0  0  0  0  0  0  0  0
  154.6892  141.3566  160.4441 H   0  0  0  0  0  0  0  0  0  0  0  0
  153.0539  140.7518  160.6171 H   0  0  0  0  0  0  0  0  0  0  0  0
  153.0901  141.9775  158.5322 H   0  0  0  0  0  0  0  0  0  0  0  0
  153.9838  143.3044  159.2298 H   0  0  0  0  0  0  0  0  0  0  0  0
  148.8782  141.0695  154.1192 H   0  0  0  0  0  0  0  0  0  0  0  0
  152.5162  137.9369  155.7482 H   0  0  0  0  0  0  0  0  0  0  0  0
  153.4676  139.3897  155.3741 H   0  0  0  0  0  0  0  0  0  0  0  0
  152.6465  138.5056  154.0736 H   0  0  0  0  0  0  0  0  0  0  0  0
  150.2699  143.8914  156.8865 H   0  0  0  0  0  0  0  0  0  0  0  0
  1  2  1  0  0  0  0
  1 18  1  0  0  0  0
  1 19  1  0  0  0  0
  1 20  1  0  0  0  0
  2 16  1  0  0  0  0
  2  3  2  0  0  0  0
  3  4  1  0  0  0  0
  3 14  1  0  0  0  0
  4  5  1  0  0  0  0
  4 21  1  0  0  0  0
  4 22  1  0  0  0  0
  5  6  1  0  0  0  0
  5 23  1  0  0  0  0
  5 24  1  0  0  0  0
  6  7  1  0  0  0  0
  6 25  1  0  0  0  0
  6 41  1  0  0  0  0
  7  8  1  0  0  0  0
  7 26  1  0  0  0  0
  7 27  1  0  0  0  0
  8 13  1  0  0  0  0
  8  9  1  0  0  0  0
  8 28  1  0  0  0  0
  9 10  1  0  0  0  0
  9 29  1  0  0  0  0
  9 30  1  0  0  0  0
 10 11  2  0  0  0  0
 10 31  1  0  0  0  0
 11 12  1  0  0  0  0
 11 32  1  0  0  0  0
 12 13  1  0  0  0  0
 12 33  1  0  0  0  0
 12 34  1  0  0  0  0
 13 35  1  0  0  0  0
 13 36  1  0  0  0  0
 14 15  2  0  0  0  0
 14 37  1  0  0  0  0
 15 16  1  0  0  0  0
 16 17  1  0  0  0  0
 17 38  1  0  0  0  0
 17 39  1  0  0  0  0
 17 40  1  0  0  0  0
M  CHG  1   6   1
M  END
> <s_m_source_file>
AV-unprocessed.smi

> <i_m_source_file_index>
3219

> <i_lp_mmshare_version>
43012

> <i_f3d_flags>
0

> <s_epik_input>
W0NIM11uMW5bY0hdYyhjMVtDSDNdKVtDSDJdW0NIMl1bTkhdW0NIMl1bQ0BASF0yW0NIMl1bQ0hdPVtDSF1bQ0gyXVtDSDJdMg==

> <s_epik_cmdline>
J2VwaWtfcHl0aG9uJywgJy1waCcsICc3LjAnLCAnLXRuJywgJzgnLCAnLW1hJywgJzIwMCcsICctbWV0YWxfYmluZGluZycsICctaW1hZScsICc8aW5maWxlLm1hZT4nLCAnLW9tYWUnLCAnPG91dGZpbGUubWFlPic=

> <r_lp_tautomer_probability>
1

> <r_epik_Ionization_Penalty>
0.000661401

> <r_epik_Ionization_Penalty_Charging>
0.00057791

> <r_epik_Ionization_Penalty_Neutral>
8.34914e-05

> <r_epik_State_Penalty>
-0

> <r_epik_Charging_Adjusted_Penalty>
0.00057791

> <i_epik_Tot_Q>
1

> <i_epik_Tot_abs_Q>
1

> <r_epik_Metal_State_Penalty>
-0

> <b_epik_Metal_Only>
0

> <s_lp_Force_Field>
OPLS_2005

> <r_lp_Energy>
9.86252

> <b_lp_Chiralities_Consistent>
1

> <s_lp_Variant>
AV-unprocessed.smi:3219-1

> <Gold.Version>
5.8.1

> <Gold.Id.Protein>
6NUR|6NUR_protein|mol2

> <Gold.PLP.Fitness>
53.1237

> <Gold.PLP.PLP>
-45.2750

> <Gold.PLP.part.hbond>
-2.0000

> <Gold.PLP.part.metal>
0.0000

> <Gold.PLP.part.buried>
-4.0167

> <Gold.PLP.part.nonpolar>
-39.3750

> <Gold.PLP.part.repulsive>
0.1430

> <Gold.PLP.ligand.clash>
0.0000

> <Gold.PLP.ligand.torsion>
0.5853

> <Gold.PLP.Chemscore.Hbond>
3.0000

> <Gold.PLP.Chemscore.CHOScore>
0.0000

> <Gold.PLP.Chemscore.Metal>
0.0000

> <Gold.Chemscore.Hbonds>
donor molecule, donor type, donor heavy atom, donor atom, acceptor molecule, acceptor atom, score
      L1  H     6    41       P1  8028  2.00
      P1  H  7989  7998       L1    15  0.95

> <Gold.PLP.Chemscore.Internal.Correction>
0.0194

> <Gold.Rescore>
     Score         DG    S(hbond)    S(metal)    S(lipo)     H(rot)  DE(clash)    DE(int)     intcor
     19.56     -20.27       1.39        0.00     118.83       1.46       0.17       0.54       ----

> <Gold.Chemscore.Fitness>
19.5650

> <Gold.Chemscore.DG>
-20.2738

> <Gold.Chemscore.ZeroCoef>
-5.4800

> <Gold.Chemscore.Hbond>
1.3856

> <Gold.Chemscore.Metal>
0.0000

> <Gold.Chemscore.Lipo>
118.8272

> <Gold.Chemscore.Internal_Hbond>
0.0000

> <Gold.Chemscore.DEClash>
0.1677

> <Gold.Chemscore.DEInternal>
0.5411

> <Gold.Chemscore.Rot>
1.4597

> <Gold.Chemscore.Internal.Correction>
   9.000000E+99

> <Gold.Chemscore.Hbonds>
donor molecule, donor type, donor heavy atom, donor atom, acceptor molecule, acceptor atom, score
      L1  H     6    41       P1  8028  0.94
      P1  H  7989  7998       L1    15  0.15

> <Gold.Chemscore.Hbond.Weighted>
-4.6278

> <Gold.Chemscore.Metal.Weighted>
-0.0000

> <Gold.Chemscore.Lipo.Weighted>
-13.9028

> <Gold.Chemscore.Internal_Hbond.Weighted>
0.0000

> <Gold.Chemscore.DEClash.Weighted>
0.1677

> <Gold.Chemscore.DEInternal.Weighted>
0.5411

> <Gold.Chemscore.Rot.Weighted>
3.7368

> <Gold.Chemscore.Internal.Correction.Weighted>
   9.000000E+99

> <Gold.Protein.RotatedTorsions>
[ 6907 6896 6895 6894 ] final -125.32 input  -60.11 | X-H torsion
[ 7974 7965 7964 7962 ] final  -10.76 input  175.53 | X-H torsion
[ 8008 7997 7996 7995 ] final  -52.34 input   59.86 | X-H torsion
[ 10167 10162 10161 10158 ] final  -59.16 input  -65.29 | X-H torsion
[ 10718 10713 10712 10709 ] final  -99.70 input   66.30 | X-H torsion
[ 10763 10752 10751 10750 ] final -134.22 input  -60.55 | X-H torsion
[ 11005 11000 10999 10996 ] final   96.09 input  -57.11 | X-H torsion

> <Gold.Protein.ActiveResidues>
 VAL166  LYS551  ARG553  GLY616  TRP617  ASP618  TYR619  PRO620  LYS621  CYS622 
 ASP623  PHE694  ASN695  SER759  ASP760  ASP761  ALA762  ILE779  LEU786  VAL792 
 PHE793  MET794  SER795  GLU796  ALA797  LYS798  CYS799  TRP800  GLU811  SER814 

> <Gold.Protein.RotatedAtoms>
  150.8855  133.7313  159.2919 H   0  0  0  0  0  0  0  0  0  0  0  0  # atno 6907 bound_to 6896
  151.4880  135.1054  159.9805 H   0  0  0  0  0  0  0  0  0  0  0  0  # atno 6908 bound_to 6896
  152.4787  133.8155  159.7082 H   0  0  0  0  0  0  0  0  0  0  0  0  # atno 6909 bound_to 6896
  146.2210  140.2811  142.8362 H   0  0  0  0  0  0  0  0  0  0  0  0  # atno 7974 bound_to 7965
  154.4104  140.1226  156.4976 H   0  0  0  0  0  0  0  0  0  0  0  0  # atno 8008 bound_to 7997
  155.6927  140.3495  155.4881 H   0  0  0  0  0  0  0  0  0  0  0  0  # atno 8009 bound_to 7997
  155.9454  140.1095  157.1011 H   0  0  0  0  0  0  0  0  0  0  0  0  # atno 8010 bound_to 7997
  140.6152  143.2400  151.5614 H   0  0  0  0  0  0  0  0  0  0  0  0  # atno 10167 bound_to 10162
  156.0141  130.5294  150.6709 H   0  0  0  0  0  0  0  0  0  0  0  0  # atno 10718 bound_to 10713
  154.8722  135.3741  154.4701 H   0  0  0  0  0  0  0  0  0  0  0  0  # atno 10763 bound_to 10752
  153.5362  135.7027  153.5664 H   0  0  0  0  0  0  0  0  0  0  0  0  # atno 10764 bound_to 10752
  153.3846  135.3988  155.1846 H   0  0  0  0  0  0  0  0  0  0  0  0  # atno 10765 bound_to 10752
  139.8784  134.8933  156.4107 H   0  0  0  0  0  0  0  0  0  0  0  0  # atno 11005 bound_to 11000
  144.9196  140.7852  143.5756 LP  0  0  0  0  0  0  0  0  0  0  0  0  # atno 17320 bound_to 7965
  145.2747  139.1941  143.4823 LP  0  0  0  0  0  0  0  0  0  0  0  0  # atno 17321 bound_to 7965
  139.5393  144.2692  152.1317 LP  0  0  0  0  0  0  0  0  0  0  0  0  # atno 17342 bound_to 10162
  140.1900  144.4761  150.6484 LP  0  0  0  0  0  0  0  0  0  0  0  0  # atno 17343 bound_to 10162
  157.4431  131.0863  151.0923 LP  0  0  0  0  0  0  0  0  0  0  0  0  # atno 17370 bound_to 10713
  157.1461  130.6164  149.5569 LP  0  0  0  0  0  0  0  0  0  0  0  0  # atno 17371 bound_to 10713
  140.9202  133.7650  155.9897 LP  0  0  0  0  0  0  0  0  0  0  0  0  # atno 17394 bound_to 11000
  140.8448  134.3024  157.5299 LP  0  0  0  0  0  0  0  0  0  0  0  0  # atno 17395 bound_to 11000

$$$$
