AV-unprocessed.smi:703|AV-procd|sdf|3428|dock3
  -GOLD-   22720 0413D 1   1.00000     0.00000
 Structure written by MMmdl.
 38 39  0  0  0  0  0  0  0  0  2 V2000
  151.7300  137.9708  154.4348 C   0  0  0  0  0  0  0  0  0  0  0  0
  150.2190  137.9846  154.7028 C   0  0  0  0  0  0  0  0  0  0  0  0
  149.6154  136.6365  154.5829 N   0  3  1  0  0  0  0  0  0  0  0  0
  150.4958  135.5180  154.9807 C   0  0  0  0  0  0  0  0  0  0  0  0
  149.5625  134.3699  155.3741 C   0  0  2  0  0  0  0  0  0  0  0  0
  149.1692  133.5109  154.1607 C   0  0  0  0  0  0  0  0  0  0  0  0
  148.3579  135.0970  155.9867 C   0  0  1  0  0  0  0  0  0  0  0  0
  148.5421  135.2331  157.4354 N   0  0  0  0  0  0  0  0  0  0  0  0
  147.4436  134.4064  158.4783 S   0  0  0  0  0  0  0  0  0  0  0  0
  146.5179  133.6352  157.6341 O   0  0  0  0  0  0  0  0  0  0  0  0
  148.2445  133.7214  159.5038 O   0  0  0  0  0  0  0  0  0  0  0  0
  146.5116  135.7894  159.2605 C   0  0  0  0  0  0  0  0  0  0  0  0
  147.0409  136.0279  160.6452 C   0  0  0  0  0  0  0  0  0  0  0  0
  147.1187  135.1129  161.7311 C   0  0  0  0  0  0  0  0  0  0  0  0
  147.6789  135.8534  162.7318 C   0  0  0  0  0  0  0  0  0  0  0  0
  147.9234  137.1185  162.3068 O   0  0  0  0  0  0  0  0  0  0  0  0
  147.5108  137.2207  160.9735 N   0  0  0  0  0  0  0  0  0  0  0  0
  148.3327  136.4784  155.3061 C   0  0  0  0  0  0  0  0  0  0  0  0
  152.1361  138.9818  154.4728 H   0  0  0  0  0  0  0  0  0  0  0  0
  151.9520  137.5622  153.4485 H   0  0  0  0  0  0  0  0  0  0  0  0
  152.2656  137.3759  155.1749 H   0  0  0  0  0  0  0  0  0  0  0  0
  150.0111  138.4002  155.6899 H   0  0  0  0  0  0  0  0  0  0  0  0
  149.7427  138.6453  153.9772 H   0  0  0  0  0  0  0  0  0  0  0  0
  151.1911  135.2471  154.1852 H   0  0  0  0  0  0  0  0  0  0  0  0
  151.0866  135.8131  155.8495 H   0  0  0  0  0  0  0  0  0  0  0  0
  150.0486  133.7167  156.1008 H   0  0  0  0  0  0  0  0  0  0  0  0
  148.6785  134.1047  153.3888 H   0  0  0  0  0  0  0  0  0  0  0  0
  148.4833  132.7150  154.4524 H   0  0  0  0  0  0  0  0  0  0  0  0
  150.0450  133.0405  153.7126 H   0  0  0  0  0  0  0  0  0  0  0  0
  147.4327  134.5467  155.8076 H   0  0  0  0  0  0  0  0  0  0  0  0
  149.5073  135.0350  157.6996 H   0  0  0  0  0  0  0  0  0  0  0  0
  146.6154  136.6758  158.6342 H   0  0  0  0  0  0  0  0  0  0  0  0
  145.4557  135.5216  159.2884 H   0  0  0  0  0  0  0  0  0  0  0  0
  146.8164  134.0770  161.7686 H   0  0  0  0  0  0  0  0  0  0  0  0
  147.9529  135.6344  163.7531 H   0  0  0  0  0  0  0  0  0  0  0  0
  148.1799  137.2818  156.0289 H   0  0  0  0  0  0  0  0  0  0  0  0
  147.5186  136.5389  154.5832 H   0  0  0  0  0  0  0  0  0  0  0  0
  149.3970  136.4919  153.6072 H   0  0  0  0  0  0  0  0  0  0  0  0
  1  2  1  0  0  0  0
  1 19  1  0  0  0  0
  1 20  1  0  0  0  0
  1 21  1  0  0  0  0
  2  3  1  0  0  0  0
  2 22  1  0  0  0  0
  2 23  1  0  0  0  0
  3 18  1  0  0  0  0
  3  4  1  0  0  0  0
  3 38  1  0  0  0  0
  4  5  1  0  0  0  0
  4 24  1  0  0  0  0
  4 25  1  0  0  0  0
  5  6  1  0  0  0  0
  5  7  1  0  0  0  0
  5 26  1  0  0  0  0
  6 27  1  0  0  0  0
  6 28  1  0  0  0  0
  6 29  1  0  0  0  0
  7  8  1  0  0  0  0
  7 18  1  0  0  0  0
  7 30  1  0  0  0  0
  8  9  1  0  0  0  0
  8 31  1  0  0  0  0
  9 10  2  0  0  0  0
  9 11  2  0  0  0  0
  9 12  1  0  0  0  0
 12 13  1  0  0  0  0
 12 32  1  0  0  0  0
 12 33  1  0  0  0  0
 13 17  2  0  0  0  0
 13 14  1  0  0  0  0
 14 15  2  0  0  0  0
 14 34  1  0  0  0  0
 15 16  1  0  0  0  0
 15 35  1  0  0  0  0
 16 17  1  0  0  0  0
 18 36  1  0  0  0  0
 18 37  1  0  0  0  0
M  CHG  1   3   1
M  END
> <s_m_source_file>
AV-unprocessed.smi

> <i_m_source_file_index>
703

> <i_lp_mmshare_version>
43012

> <i_f3d_flags>
0

> <s_epik_input>
W0NIM11bQ0gyXU4xW0NIMl1bQ0BASF0oW0NIM10pW0NASF0oW0NIMl0xKVtOSF1TKD1PKSg9TylbQ0gyXWMyW2NIXVtjSF1vbjI=

> <s_epik_cmdline>
J2VwaWtfcHl0aG9uJywgJy1waCcsICc3LjAnLCAnLXRuJywgJzgnLCAnLW1hJywgJzIwMCcsICctbWV0YWxfYmluZGluZycsICctaW1hZScsICc8aW5maWxlLm1hZT4nLCAnLW9tYWUnLCAnPG91dGZpbGUubWFlPic=

> <r_epik_Ionization_Penalty>
0.00324529

> <r_epik_Ionization_Penalty_Charging>
0.0019384

> <r_epik_Ionization_Penalty_Neutral>
0.00130689

> <r_epik_State_Penalty>
0.00218682

> <r_epik_Charging_Adjusted_Penalty>
0.00412522

> <i_epik_Tot_Q>
1

> <i_epik_Tot_abs_Q>
1

> <r_epik_Metal_State_Penalty>
0.310831

> <b_epik_Metal_Only>
0

> <s_lp_Force_Field>
OPLS_2005

> <r_lp_Energy>
19.6453

> <b_lp_Chiralities_Consistent>
1

> <s_lp_Variant>
AV-unprocessed.smi:703-3

> <Gold.Version>
5.8.1

> <Gold.Id.Protein>
6NUR|6NUR_protein|mol2

> <Gold.PLP.Fitness>
35.5372

> <Gold.PLP.PLP>
-28.5450

> <Gold.PLP.part.hbond>
-5.0602

> <Gold.PLP.part.metal>
0.0000

> <Gold.PLP.part.buried>
-4.6727

> <Gold.PLP.part.nonpolar>
-19.6045

> <Gold.PLP.part.repulsive>
0.0251

> <Gold.PLP.ligand.clash>
0.0000

> <Gold.PLP.ligand.torsion>
1.4756

> <Gold.PLP.Chemscore.Hbond>
3.2500

> <Gold.PLP.Chemscore.CHOScore>
0.0000

> <Gold.PLP.Chemscore.Metal>
0.0000

> <Gold.Chemscore.Hbonds>
donor molecule, donor type, donor heavy atom, donor atom, acceptor molecule, acceptor atom, score
      L1  H     3    38       P1  7948  2.00
      P1  H  6931  6943       L1    16  0.30
      P1  H  6934  6947       L1    17  0.89

> <Gold.PLP.Chemscore.Internal.Correction>
0.1934

> <Gold.Rescore>
     Score         DG    S(hbond)    S(metal)    S(lipo)     H(rot)  DE(clash)    DE(int)     intcor
      9.88     -13.09       1.68        0.00      59.51       1.94       0.07       3.13       ----

> <Gold.Chemscore.Fitness>
9.8806

> <Gold.Chemscore.DG>
-13.0897

> <Gold.Chemscore.ZeroCoef>
-5.4800

> <Gold.Chemscore.Hbond>
1.6807

> <Gold.Chemscore.Metal>
0.0000

> <Gold.Chemscore.Lipo>
59.5102

> <Gold.Chemscore.Internal_Hbond>
0.0000

> <Gold.Chemscore.DEClash>
0.0747

> <Gold.Chemscore.DEInternal>
3.1344

> <Gold.Chemscore.Rot>
1.9400

> <Gold.Chemscore.Internal.Correction>
   9.000000E+99

> <Gold.Chemscore.Hbonds>
donor molecule, donor type, donor heavy atom, donor atom, acceptor molecule, acceptor atom, score
      L1  H     3    38       P1  7948  0.85
      P1  H  6934  6947       L1    17  0.17

> <Gold.Chemscore.Hbond.Weighted>
-5.6135

> <Gold.Chemscore.Metal.Weighted>
-0.0000

> <Gold.Chemscore.Lipo.Weighted>
-6.9627

> <Gold.Chemscore.Internal_Hbond.Weighted>
0.0000

> <Gold.Chemscore.DEClash.Weighted>
0.0747

> <Gold.Chemscore.DEInternal.Weighted>
3.1344

> <Gold.Chemscore.Rot.Weighted>
4.9665

> <Gold.Chemscore.Internal.Correction.Weighted>
   9.000000E+99

> <Gold.Protein.RotatedTorsions>
[ 6907 6896 6895 6894 ] final  -22.70 input  -60.11 | X-H torsion
[ 7974 7965 7964 7962 ] final   98.61 input  175.53 | X-H torsion
[ 8008 7997 7996 7995 ] final -132.55 input   59.86 | X-H torsion
[ 10167 10162 10161 10158 ] final  -27.09 input  -65.29 | X-H torsion
[ 10718 10713 10712 10709 ] final -170.06 input   66.30 | X-H torsion
[ 10763 10752 10751 10750 ] final   58.86 input  -60.55 | X-H torsion
[ 11005 11000 10999 10996 ] final -155.12 input  -57.11 | X-H torsion

> <Gold.Protein.ActiveResidues>
 VAL166  LYS551  ARG553  GLY616  TRP617  ASP618  TYR619  PRO620  LYS621  CYS622 
 ASP623  PHE694  ASN695  SER759  ASP760  ASP761  ALA762  ILE779  LEU786  VAL792 
 PHE793  MET794  SER795  GLU796  ALA797  LYS798  CYS799  TRP800  GLU811  SER814 

> <Gold.Protein.RotatedAtoms>
  151.2148  135.0495  159.8925 H   0  0  0  0  0  0  0  0  0  0  0  0  # atno 6907 bound_to 6896
  152.5421  134.0705  159.8202 H   0  0  0  0  0  0  0  0  0  0  0  0  # atno 6908 bound_to 6896
  151.0863  133.5302  159.2649 H   0  0  0  0  0  0  0  0  0  0  0  0  # atno 6909 bound_to 6896
  145.4099  139.2335  143.3254 H   0  0  0  0  0  0  0  0  0  0  0  0  # atno 7974 bound_to 7965
  155.3308  140.0467  157.3042 H   0  0  0  0  0  0  0  0  0  0  0  0  # atno 8008 bound_to 7997
  154.5329  140.2263  155.8738 H   0  0  0  0  0  0  0  0  0  0  0  0  # atno 8009 bound_to 7997
  156.1806  140.3074  155.9148 H   0  0  0  0  0  0  0  0  0  0  0  0  # atno 8010 bound_to 7997
  140.7279  143.4123  151.1086 H   0  0  0  0  0  0  0  0  0  0  0  0  # atno 10167 bound_to 10162
  156.7206  130.9268  151.3097 H   0  0  0  0  0  0  0  0  0  0  0  0  # atno 10718 bound_to 10713
  152.9880  135.5592  154.5620 H   0  0  0  0  0  0  0  0  0  0  0  0  # atno 10763 bound_to 10752
  154.5037  135.2798  155.1402 H   0  0  0  0  0  0  0  0  0  0  0  0  # atno 10764 bound_to 10752
  154.2822  135.6342  153.5404 H   0  0  0  0  0  0  0  0  0  0  0  0  # atno 10765 bound_to 10752
  140.6899  134.4053  157.5220 H   0  0  0  0  0  0  0  0  0  0  0  0  # atno 11005 bound_to 11000
  146.2710  140.4809  142.8814 LP  0  0  0  0  0  0  0  0  0  0  0  0  # atno 17320 bound_to 7965
  144.8316  140.6716  143.6287 LP  0  0  0  0  0  0  0  0  0  0  0  0  # atno 17321 bound_to 7965
  139.7757  143.8428  152.3129 LP  0  0  0  0  0  0  0  0  0  0  0  0  # atno 17342 bound_to 10162
  139.8362  144.7231  150.9388 LP  0  0  0  0  0  0  0  0  0  0  0  0  # atno 17343 bound_to 10162
  157.6899  130.9223  150.0487 LP  0  0  0  0  0  0  0  0  0  0  0  0  # atno 17370 bound_to 10713
  156.1597  130.3643  149.9317 LP  0  0  0  0  0  0  0  0  0  0  0  0  # atno 17371 bound_to 10713
  139.8926  134.8750  156.2261 LP  0  0  0  0  0  0  0  0  0  0  0  0  # atno 17394 bound_to 11000
  141.0250  133.7020  156.1332 LP  0  0  0  0  0  0  0  0  0  0  0  0  # atno 17395 bound_to 11000

$$$$
