AV-unprocessed.smi:101|AV-procd|sdf|932|dock7
  -GOLD-   2262017443D 1   1.00000     0.00000
 Structure written by MMmdl.
 43 45  0  0  0  0  0  0  0  0  2 V2000
  143.9176  145.1545  153.8029 C   0  0  0  0  0  0  0  0  0  0  0  0
  144.8236  144.1148  154.4391 C   0  0  0  0  0  0  0  0  0  0  0  0
  145.7198  143.4023  153.7204 C   0  0  0  0  0  0  0  0  0  0  0  0
  146.5439  142.4559  154.3060 N   0  0  0  0  0  0  0  0  0  0  0  0
  147.5475  141.6603  153.4913 C   0  0  1  0  0  0  0  0  0  0  0  0
  148.7618  141.5879  154.1844 O   0  0  0  0  0  0  0  0  0  0  0  0
  148.9793  140.2608  154.6496 C   0  0  2  0  0  0  0  0  0  0  0  0
  150.4825  140.0363  154.8536 C   0  0  0  0  0  0  0  0  0  0  0  0
  150.9925  141.0068  155.7531 O   0  0  0  0  0  0  0  0  0  0  0  0
  150.8305  140.8480  157.0804 C   0  0  0  0  0  0  0  0  0  0  0  0
  150.2725  139.8728  157.5875 O   0  0  0  0  0  0  0  0  0  0  0  0
  151.3982  141.9767  157.8732 C   0  0  0  0  0  0  0  0  0  0  0  0
  151.3119  143.2937  157.3642 C   0  0  0  0  0  0  0  0  0  0  0  0
  151.8413  144.3793  158.0888 C   0  0  0  0  0  0  0  0  0  0  0  0
  152.4653  144.1611  159.3307 C   0  0  0  0  0  0  0  0  0  0  0  0
  152.5586  142.8557  159.8478 C   0  0  0  0  0  0  0  0  0  0  0  0
  152.0284  141.7688  159.1252 C   0  0  0  0  0  0  0  0  0  0  0  0
  148.3519  139.4186  153.5401 C   0  0  1  0  0  0  0  0  0  0  0  0
  148.0891  138.0816  153.9236 O   0  0  0  0  0  0  0  0  0  0  0  0
  147.0893  140.2078  153.2103 C   0  0  1  0  0  0  0  0  0  0  0  0
  145.9872  139.7965  154.0068 O   0  0  0  0  0  0  0  0  0  0  0  0
  146.4602  142.2227  155.7032 C   0  0  0  0  0  0  0  0  0  0  0  0
  147.2218  141.3888  156.1941 O   0  0  0  0  0  0  0  0  0  0  0  0
  145.5572  142.9340  156.4358 N   0  5  0  0  0  0  0  0  0  0  0  0
  144.7319  143.8689  155.8832 C   0  0  0  0  0  0  0  0  0  0  0  0
  143.9219  144.5053  156.5566 O   0  0  0  0  0  0  0  0  0  0  0  0
  144.0855  145.2229  152.7277 H   0  0  0  0  0  0  0  0  0  0  0  0
  144.1030  146.1375  154.2368 H   0  0  0  0  0  0  0  0  0  0  0  0
  142.8703  144.8978  153.9658 H   0  0  0  0  0  0  0  0  0  0  0  0
  145.7862  143.5872  152.6596 H   0  0  0  0  0  0  0  0  0  0  0  0
  147.7217  142.2433  152.5855 H   0  0  0  0  0  0  0  0  0  0  0  0
  148.4388  140.1252  155.5881 H   0  0  0  0  0  0  0  0  0  0  0  0
  150.6681  139.0301  155.2322 H   0  0  0  0  0  0  0  0  0  0  0  0
  151.0022  140.1280  153.8988 H   0  0  0  0  0  0  0  0  0  0  0  0
  150.8378  143.4858  156.4123 H   0  0  0  0  0  0  0  0  0  0  0  0
  151.7686  145.3806  157.6903 H   0  0  0  0  0  0  0  0  0  0  0  0
  152.8721  144.9937  159.8858 H   0  0  0  0  0  0  0  0  0  0  0  0
  153.0386  142.6865  160.8004 H   0  0  0  0  0  0  0  0  0  0  0  0
  152.1191  140.7794  159.5497 H   0  0  0  0  0  0  0  0  0  0  0  0
  149.0118  139.4146  152.6713 H   0  0  0  0  0  0  0  0  0  0  0  0
  148.2939  137.5211  153.1904 H   0  0  0  0  0  0  0  0  0  0  0  0
  146.8143  140.1069  152.1598 H   0  0  0  0  0  0  0  0  0  0  0  0
  145.2278  139.7292  153.4472 H   0  0  0  0  0  0  0  0  0  0  0  0
  1  2  1  0  0  0  0
  1 27  1  0  0  0  0
  1 28  1  0  0  0  0
  1 29  1  0  0  0  0
  2 25  1  0  0  0  0
  2  3  2  0  0  0  0
  3  4  1  0  0  0  0
  3 30  1  0  0  0  0
  4  5  1  0  0  0  0
  4 22  1  0  0  0  0
  5 20  1  0  0  0  0
  5  6  1  0  0  0  0
  5 31  1  0  0  0  0
  6  7  1  0  0  0  0
  7  8  1  0  0  0  0
  7 18  1  0  0  0  0
  7 32  1  0  0  0  0
  8  9  1  0  0  0  0
  8 33  1  0  0  0  0
  8 34  1  0  0  0  0
  9 10  1  0  0  0  0
 10 11  2  0  0  0  0
 10 12  1  0  0  0  0
 12 17  1  0  0  0  0
 12 13  2  0  0  0  0
 13 14  1  0  0  0  0
 13 35  1  0  0  0  0
 14 15  2  0  0  0  0
 14 36  1  0  0  0  0
 15 16  1  0  0  0  0
 15 37  1  0  0  0  0
 16 17  2  0  0  0  0
 16 38  1  0  0  0  0
 17 39  1  0  0  0  0
 18 19  1  0  0  0  0
 18 20  1  0  0  0  0
 18 40  1  0  0  0  0
 19 41  1  0  0  0  0
 20 21  1  0  0  0  0
 20 42  1  0  0  0  0
 21 43  1  0  0  0  0
 22 23  2  0  0  0  0
 22 24  1  0  0  0  0
 24 25  1  0  0  0  0
 25 26  2  0  0  0  0
M  CHG  1  24  -1
M  END
> <s_m_source_file>
AV-unprocessed.smi

> <i_m_source_file_index>
101

> <i_lp_mmshare_version>
43012

> <i_f3d_flags>
0

> <s_epik_input>
Tz1jMVtuSF1jKD1PKW4oW2NIXWMxW0NIM10pW0NAQEhdMk9bQ0BIXShbQ0BASF0oW09IXSlbQ0BIXTJbT0hdKVtDSDJdT0MoPU8pYzNbY0hdW2NIXVtjSF1bY0hdW2NIXTM=

> <s_epik_cmdline>
J2VwaWtfcHl0aG9uJywgJy1waCcsICc3LjAnLCAnLXRuJywgJzgnLCAnLW1hJywgJzIwMCcsICctbWV0YWxfYmluZGluZycsICctaW1hZScsICc8aW5maWxlLm1hZT4nLCAnLW9tYWUnLCAnPG91dGZpbGUubWFlPic=

> <r_lp_tautomer_probability>
0.999537

> <r_epik_Ionization_Penalty>
3.21006

> <r_epik_Ionization_Penalty_Charging>
5.75142e-08

> <r_epik_Ionization_Penalty_Neutral>
3.21006

> <r_epik_State_Penalty>
3.20925

> <r_epik_Charging_Adjusted_Penalty>
3.20925

> <i_epik_Tot_Q>
-1

> <i_epik_Tot_abs_Q>
1

> <r_epik_Metal_State_Penalty>
0.119957

> <b_epik_Metal_Only>
1

> <s_epik_Chemistry_Notes>
This compound has an ester and may undergo hydrolysis at high or low pH. This compound contains an acetal/aminal-like group ( X-CH(R)-Y where X, Y are N, S, or O) that may be acid/base labile, releasing an aldehyde.

> <s_lp_Force_Field>
OPLS_2005

> <r_lp_Energy>
48.7646

> <b_lp_Chiralities_Consistent>
1

> <s_lp_Variant>
AV-unprocessed.smi:101-20

> <Gold.Version>
5.8.1

> <Gold.Id.Protein>
6NUR|6NUR_protein|mol2

> <Gold.PLP.Fitness>
50.1744

> <Gold.PLP.PLP>
-51.3941

> <Gold.PLP.part.hbond>
-3.7918

> <Gold.PLP.part.metal>
0.0000

> <Gold.PLP.part.buried>
-2.9485

> <Gold.PLP.part.nonpolar>
-45.7178

> <Gold.PLP.part.repulsive>
0.4625

> <Gold.PLP.ligand.clash>
5.4604

> <Gold.PLP.ligand.torsion>
1.0962

> <Gold.PLP.Chemscore.Hbond>
2.1169

> <Gold.PLP.Chemscore.CHOScore>
0.0000

> <Gold.PLP.Chemscore.Metal>
0.0000

> <Gold.Chemscore.Hbonds>
donor molecule, donor type, donor heavy atom, donor atom, acceptor molecule, acceptor atom, score
      L1  H    19    41       P1  7948  1.00
      L1  H    21    43       P1 10175  1.00
      P1  H  8011  8017       L1     6  0.09

> <Gold.PLP.Chemscore.Internal.Correction>
0.0825

> <Gold.Rescore>
     Score         DG    S(hbond)    S(metal)    S(lipo)     H(rot)  DE(clash)    DE(int)     intcor
     11.04     -16.11       1.72        0.00     113.08       3.27       0.26       4.81       ----

> <Gold.Chemscore.Fitness>
11.0433

> <Gold.Chemscore.DG>
-16.1068

> <Gold.Chemscore.ZeroCoef>
-5.4800

> <Gold.Chemscore.Hbond>
1.7235

> <Gold.Chemscore.Metal>
0.0000

> <Gold.Chemscore.Lipo>
113.0785

> <Gold.Chemscore.Internal_Hbond>
0.0000

> <Gold.Chemscore.DEClash>
0.2553

> <Gold.Chemscore.DEInternal>
4.8081

> <Gold.Chemscore.Rot>
3.2656

> <Gold.Chemscore.Internal.Correction>
   9.000000E+99

> <Gold.Chemscore.Hbonds>
donor molecule, donor type, donor heavy atom, donor atom, acceptor molecule, acceptor atom, score
      L1  H    19    41       P1  7948  0.99
      L1  H    21    43       P1 10175  0.95

> <Gold.Chemscore.Hbond.Weighted>
-5.7564

> <Gold.Chemscore.Metal.Weighted>
-0.0000

> <Gold.Chemscore.Lipo.Weighted>
-13.2302

> <Gold.Chemscore.Internal_Hbond.Weighted>
0.0000

> <Gold.Chemscore.DEClash.Weighted>
0.2553

> <Gold.Chemscore.DEInternal.Weighted>
4.8081

> <Gold.Chemscore.Rot.Weighted>
8.3598

> <Gold.Chemscore.Internal.Correction.Weighted>
   9.000000E+99

> <Gold.Protein.RotatedTorsions>
[ 6907 6896 6895 6894 ] final   83.48 input  -60.11 | X-H torsion
[ 7974 7965 7964 7962 ] final -155.22 input  175.53 | X-H torsion
[ 8008 7997 7996 7995 ] final  -28.26 input   59.86 | X-H torsion
[ 10167 10162 10161 10158 ] final   58.15 input  -65.29 | X-H torsion
[ 10718 10713 10712 10709 ] final  110.53 input   66.30 | X-H torsion
[ 10763 10752 10751 10750 ] final  -75.41 input  -60.55 | X-H torsion
[ 11005 11000 10999 10996 ] final  -66.76 input  -57.11 | X-H torsion

> <Gold.Protein.ActiveResidues>
 VAL166  LYS551  ARG553  GLY616  TRP617  ASP618  TYR619  PRO620  LYS621  CYS622 
 ASP623  PHE694  ASN695  SER759  ASP760  ASP761  ALA762  ILE779  LEU786  VAL792 
 PHE793  MET794  SER795  GLU796  ALA797  LYS798  CYS799  TRP800  GLU811  SER814 

> <Gold.Protein.RotatedAtoms>
  152.5328  134.2889  159.9035 H   0  0  0  0  0  0  0  0  0  0  0  0  # atno 6907 bound_to 6896
  151.2842  133.4189  159.2636 H   0  0  0  0  0  0  0  0  0  0  0  0  # atno 6908 bound_to 6896
  151.0257  134.9518  159.8140 H   0  0  0  0  0  0  0  0  0  0  0  0  # atno 6909 bound_to 6896
  144.7651  140.4280  143.5948 H   0  0  0  0  0  0  0  0  0  0  0  0  # atno 7974 bound_to 7965
  154.4340  140.1850  156.1061 H   0  0  0  0  0  0  0  0  0  0  0  0  # atno 8008 bound_to 7997
  156.0254  140.3336  155.7057 H   0  0  0  0  0  0  0  0  0  0  0  0  # atno 8009 bound_to 7997
  155.5916  140.0631  157.2748 H   0  0  0  0  0  0  0  0  0  0  0  0  # atno 8010 bound_to 7997
  140.1903  144.4092  150.6574 H   0  0  0  0  0  0  0  0  0  0  0  0  # atno 10167 bound_to 10162
  157.6489  131.0934  150.6616 H   0  0  0  0  0  0  0  0  0  0  0  0  # atno 10718 bound_to 10713
  154.4862  135.5832  153.6425 H   0  0  0  0  0  0  0  0  0  0  0  0  # atno 10763 bound_to 10752
  152.9855  135.6101  154.3183 H   0  0  0  0  0  0  0  0  0  0  0  0  # atno 10764 bound_to 10752
  154.3079  135.2845  155.2559 H   0  0  0  0  0  0  0  0  0  0  0  0  # atno 10765 bound_to 10752
  141.1491  133.6705  156.6189 H   0  0  0  0  0  0  0  0  0  0  0  0  # atno 11005 bound_to 11000
  145.6497  139.1563  143.2869 LP  0  0  0  0  0  0  0  0  0  0  0  0  # atno 17320 bound_to 7965
  146.1750  140.6586  142.9215 LP  0  0  0  0  0  0  0  0  0  0  0  0  # atno 17321 bound_to 7965
  140.6460  143.2213  151.6185 LP  0  0  0  0  0  0  0  0  0  0  0  0  # atno 17342 bound_to 10162
  139.5258  144.3063  152.1031 LP  0  0  0  0  0  0  0  0  0  0  0  0  # atno 17343 bound_to 10162
  156.6929  130.4600  149.5594 LP  0  0  0  0  0  0  0  0  0  0  0  0  # atno 17370 bound_to 10713
  156.1849  130.6522  151.0994 LP  0  0  0  0  0  0  0  0  0  0  0  0  # atno 17371 bound_to 10713
  140.3556  134.7732  157.4497 LP  0  0  0  0  0  0  0  0  0  0  0  0  # atno 17394 bound_to 11000
  140.0826  134.5710  155.8525 LP  0  0  0  0  0  0  0  0  0  0  0  0  # atno 17395 bound_to 11000

$$$$
