AV-unprocessed.smi:1813|AV-procd|sdf|7344|dock10
  -GOLD-   22720 9 03D 1   1.00000     0.00000
 Structure written by MMmdl.
 39 40  0  0  0  0  0  0  0  0  3 V2000
  150.9869  134.0892  156.1890 C   0  0  0  0  0  0  0  0  0  0  0  0
  151.3277  135.4656  155.8486 N   0  5  0  0  0  0  0  0  0  0  0  0
  150.4309  136.3604  155.3541 C   0  0  0  0  0  0  0  0  0  0  0  0
  149.1990  136.3083  155.2764 O   0  0  0  0  0  0  0  0  0  0  0  0
  151.1324  137.6284  154.8544 C   0  0  0  0  0  0  0  0  0  0  0  0
  150.5750  138.8194  155.5424 N   0  3  2  0  0  0  0  0  0  0  0  0
  149.3504  139.3358  154.8807 C   0  0  0  0  0  0  0  0  0  0  0  0
  148.7102  140.4645  155.7056 C   0  0  0  0  0  0  0  0  0  0  0  0
  149.7077  141.6064  155.9589 C   0  0  1  0  0  0  0  0  0  0  0  0
  149.0981  142.6104  156.8260 N   0  0  0  0  0  0  0  0  0  0  0  0
  148.3527  142.3474  157.9091 C   0  0  0  0  0  0  0  0  0  0  0  0
  148.1000  141.2068  158.2986 O   0  0  0  0  0  0  0  0  0  0  0  0
  147.9265  143.4813  158.4925 N   0  0  0  0  0  0  0  0  0  0  0  0
  147.1403  143.6231  159.6659 C   0  0  0  0  0  0  0  0  0  0  0  0
  146.7540  142.6045  160.4431 N   0  0  0  0  0  0  0  0  0  0  0  0
  145.9951  143.0364  161.5337 C   0  0  0  0  0  0  0  0  0  0  0  0
  145.8114  144.3963  161.5709 C   0  0  0  0  0  0  0  0  0  0  0  0
  146.5899  145.1938  160.2304 S   0  0  0  0  0  0  0  0  0  0  0  0
  150.9895  141.0414  156.5980 C   0  0  0  0  0  0  0  0  0  0  0  0
  151.5767  139.8987  155.7539 C   0  0  0  0  0  0  0  0  0  0  0  0
  151.8648  133.5156  156.4852 H   0  0  0  0  0  0  0  0  0  0  0  0
  150.5332  133.5516  155.3560 H   0  0  0  0  0  0  0  0  0  0  0  0
  150.2853  134.0314  157.0218 H   0  0  0  0  0  0  0  0  0  0  0  0
  152.2179  137.5893  154.9708 H   0  0  0  0  0  0  0  0  0  0  0  0
  150.9413  137.6925  153.7823 H   0  0  0  0  0  0  0  0  0  0  0  0
  149.5984  139.6918  153.8795 H   0  0  0  0  0  0  0  0  0  0  0  0
  148.6272  138.5282  154.7613 H   0  0  0  0  0  0  0  0  0  0  0  0
  147.8292  140.8451  155.1876 H   0  0  0  0  0  0  0  0  0  0  0  0
  148.3592  140.0600  156.6563 H   0  0  0  0  0  0  0  0  0  0  0  0
  149.9584  142.0615  154.9986 H   0  0  0  0  0  0  0  0  0  0  0  0
  149.2550  143.5774  156.5822 H   0  0  0  0  0  0  0  0  0  0  0  0
  148.2021  144.3458  158.0507 H   0  0  0  0  0  0  0  0  0  0  0  0
  145.6244  142.3060  162.2376 H   0  0  0  0  0  0  0  0  0  0  0  0
  145.2685  144.9748  162.3035 H   0  0  0  0  0  0  0  0  0  0  0  0
  151.7338  141.8304  156.7129 H   0  0  0  0  0  0  0  0  0  0  0  0
  150.7735  140.6733  157.6024 H   0  0  0  0  0  0  0  0  0  0  0  0
  152.4582  139.5049  156.2598 H   0  0  0  0  0  0  0  0  0  0  0  0
  151.9128  140.2790  154.7880 H   0  0  0  0  0  0  0  0  0  0  0  0
  150.2911  138.4979  156.4570 H   0  0  0  0  0  0  0  0  0  0  0  0
  1  2  1  0  0  0  0
  1 21  1  0  0  0  0
  1 22  1  0  0  0  0
  1 23  1  0  0  0  0
  2  3  1  0  0  0  0
  3  4  2  0  0  0  0
  3  5  1  0  0  0  0
  5  6  1  0  0  0  0
  5 24  1  0  0  0  0
  5 25  1  0  0  0  0
  6 20  1  0  0  0  0
  6  7  1  0  0  0  0
  6 39  1  0  0  0  0
  7  8  1  0  0  0  0
  7 26  1  0  0  0  0
  7 27  1  0  0  0  0
  8  9  1  0  0  0  0
  8 28  1  0  0  0  0
  8 29  1  0  0  0  0
  9 10  1  0  0  0  0
  9 19  1  0  0  0  0
  9 30  1  0  0  0  0
 10 11  1  0  0  0  0
 10 31  1  0  0  0  0
 11 12  2  0  0  0  0
 11 13  1  0  0  0  0
 13 14  1  0  0  0  0
 13 32  1  0  0  0  0
 14 18  1  0  0  0  0
 14 15  2  0  0  0  0
 15 16  1  0  0  0  0
 16 17  2  0  0  0  0
 16 33  1  0  0  0  0
 17 18  1  0  0  0  0
 17 34  1  0  0  0  0
 19 20  1  0  0  0  0
 19 35  1  0  0  0  0
 19 36  1  0  0  0  0
 20 37  1  0  0  0  0
 20 38  1  0  0  0  0
M  CHG  1   2  -1
M  CHG  1   6   1
M  END
> <s_m_source_file>
AV-unprocessed.smi

> <i_m_source_file_index>
1813

> <i_lp_mmshare_version>
43012

> <i_f3d_flags>
0

> <s_epik_input>
W0NIM11bTkhdQyg9TylbQ0gyXU4xW0NIMl1bQ0gyXVtDSF0oW0NIMl1bQ0gyXTEpW05IXUMoPU8pW05IXWMybltjSF1bY0hdczI=

> <s_epik_cmdline>
J2VwaWtfcHl0aG9uJywgJy1waCcsICc3LjAnLCAnLXRuJywgJzgnLCAnLW1hJywgJzIwMCcsICctbWV0YWxfYmluZGluZycsICctaW1hZScsICc8aW5maWxlLm1hZT4nLCAnLW9tYWUnLCAnPG91dGZpbGUubWFlPic=

> <r_lp_tautomer_probability>
0.999

> <r_epik_Ionization_Penalty>
6.14232

> <r_epik_Ionization_Penalty_Charging>
6.14218

> <r_epik_Ionization_Penalty_Neutral>
0.000139308

> <r_epik_State_Penalty>
6.98503

> <r_epik_Charging_Adjusted_Penalty>
13.1272

> <i_epik_Tot_Q>
0

> <i_epik_Tot_abs_Q>
2

> <r_epik_Metal_State_Penalty>
2.95036

> <b_epik_Metal_Only>
1

> <s_lp_Force_Field>
OPLS_2005

> <r_lp_Energy>
7.46639

> <b_lp_Chiralities_Consistent>
1

> <s_lp_Variant>
AV-unprocessed.smi:1813-5

> <Gold.Version>
5.8.1

> <Gold.Id.Protein>
6NUR|6NUR_protein|mol2

> <Gold.PLP.Fitness>
45.4564

> <Gold.PLP.PLP>
-30.1550

> <Gold.PLP.part.hbond>
-6.0806

> <Gold.PLP.part.metal>
0.0000

> <Gold.PLP.part.buried>
-3.7278

> <Gold.PLP.part.nonpolar>
-22.0485

> <Gold.PLP.part.repulsive>
0.3554

> <Gold.PLP.ligand.clash>
0.0000

> <Gold.PLP.ligand.torsion>
0.6514

> <Gold.PLP.Chemscore.Hbond>
5.5105

> <Gold.PLP.Chemscore.CHOScore>
0.0000

> <Gold.PLP.Chemscore.Metal>
0.0000

> <Gold.Chemscore.Hbonds>
donor molecule, donor type, donor heavy atom, donor atom, acceptor molecule, acceptor atom, score
      L1  H    10    31       P1  8028  0.89
      L1  H    13    32       P1  8029  1.00
      P1  H  6933  6944       L1    15  0.59
      P1  H  6934  6946       L1    15  0.98
      P1  H 10752 10765       L1     2  2.00

> <Gold.PLP.Chemscore.Internal.Correction>
0.0726

> <Gold.Rescore>
     Score         DG    S(hbond)    S(metal)    S(lipo)     H(rot)  DE(clash)    DE(int)     intcor
     13.02     -16.43       2.66        0.00      55.61       1.73       0.02       3.39       ----

> <Gold.Chemscore.Fitness>
13.0242

> <Gold.Chemscore.DG>
-16.4277

> <Gold.Chemscore.ZeroCoef>
-5.4800

> <Gold.Chemscore.Hbond>
2.6565

> <Gold.Chemscore.Metal>
0.0000

> <Gold.Chemscore.Lipo>
55.6135

> <Gold.Chemscore.Internal_Hbond>
0.0000

> <Gold.Chemscore.DEClash>
0.0178

> <Gold.Chemscore.DEInternal>
3.3857

> <Gold.Chemscore.Rot>
1.7312

> <Gold.Chemscore.Internal.Correction>
   9.000000E+99

> <Gold.Chemscore.Hbonds>
donor molecule, donor type, donor heavy atom, donor atom, acceptor molecule, acceptor atom, score
      L1  H    10    31       P1  8028  0.80
      L1  H    13    32       P1  8029  0.25
      P1  H  6933  6944       L1    15  0.02
      P1  H  6934  6946       L1    15  0.37
      P1  H 10752 10765       L1     2  0.57

> <Gold.Chemscore.Hbond.Weighted>
-8.8728

> <Gold.Chemscore.Metal.Weighted>
-0.0000

> <Gold.Chemscore.Lipo.Weighted>
-6.5068

> <Gold.Chemscore.Internal_Hbond.Weighted>
0.0000

> <Gold.Chemscore.DEClash.Weighted>
0.0178

> <Gold.Chemscore.DEInternal.Weighted>
3.3857

> <Gold.Chemscore.Rot.Weighted>
4.4319

> <Gold.Chemscore.Internal.Correction.Weighted>
   9.000000E+99

> <Gold.Protein.RotatedTorsions>
[ 6907 6896 6895 6894 ] final  162.53 input  -60.11 | X-H torsion
[ 7974 7965 7964 7962 ] final  106.53 input  175.53 | X-H torsion
[ 8008 7997 7996 7995 ] final  133.48 input   59.86 | X-H torsion
[ 10167 10162 10161 10158 ] final  -87.59 input  -65.29 | X-H torsion
[ 10718 10713 10712 10709 ] final  128.77 input   66.30 | X-H torsion
[ 10763 10752 10751 10750 ] final -169.89 input  -60.55 | X-H torsion
[ 11005 11000 10999 10996 ] final   -4.62 input  -57.11 | X-H torsion

> <Gold.Protein.ActiveResidues>
 VAL166  LYS551  ARG553  GLY616  TRP617  ASP618  TYR619  PRO620  LYS621  CYS622 
 ASP623  PHE694  ASN695  SER759  ASP760  ASP761  ALA762  ILE779  LEU786  VAL792 
 PHE793  MET794  SER795  GLU796  ALA797  LYS798  CYS799  TRP800  GLU811  SER814 

> <Gold.Protein.RotatedAtoms>
  151.9390  133.3632  159.3957 H   0  0  0  0  0  0  0  0  0  0  0  0  # atno 6907 bound_to 6896
  150.7002  134.4459  159.5323 H   0  0  0  0  0  0  0  0  0  0  0  0  # atno 6908 bound_to 6896
  152.2113  134.8499  160.0548 H   0  0  0  0  0  0  0  0  0  0  0  0  # atno 6909 bound_to 6896
  145.3054  139.2556  143.3791 H   0  0  0  0  0  0  0  0  0  0  0  0  # atno 7974 bound_to 7965
  156.2992  140.2520  156.3260 H   0  0  0  0  0  0  0  0  0  0  0  0  # atno 8008 bound_to 7997
  154.9190  140.0401  157.2006 H   0  0  0  0  0  0  0  0  0  0  0  0  # atno 8009 bound_to 7997
  154.8330  140.2878  155.5714 H   0  0  0  0  0  0  0  0  0  0  0  0  # atno 8010 bound_to 7997
  140.3830  143.2740  151.9360 H   0  0  0  0  0  0  0  0  0  0  0  0  # atno 10167 bound_to 10162
  157.5215  131.1098  150.9147 H   0  0  0  0  0  0  0  0  0  0  0  0  # atno 10718 bound_to 10713
  154.6475  135.2907  155.0028 H   0  0  0  0  0  0  0  0  0  0  0  0  # atno 10763 bound_to 10752
  154.1133  135.6559  153.4893 H   0  0  0  0  0  0  0  0  0  0  0  0  # atno 10764 bound_to 10752
  153.0358  135.5270  154.7368 H   0  0  0  0  0  0  0  0  0  0  0  0  # atno 10765 bound_to 10752
  140.6822  133.9143  155.8563 H   0  0  0  0  0  0  0  0  0  0  0  0  # atno 11005 bound_to 11000
  146.3137  140.3577  142.8662 LP  0  0  0  0  0  0  0  0  0  0  0  0  # atno 17320 bound_to 7965
  144.9059  140.7699  143.5837 LP  0  0  0  0  0  0  0  0  0  0  0  0  # atno 17321 bound_to 7965
  139.4794  144.5801  151.7947 LP  0  0  0  0  0  0  0  0  0  0  0  0  # atno 17342 bound_to 10162
  140.4918  144.1298  150.5952 LP  0  0  0  0  0  0  0  0  0  0  0  0  # atno 17343 bound_to 10162
  156.9756  130.5507  149.5293 LP  0  0  0  0  0  0  0  0  0  0  0  0  # atno 17370 bound_to 10713
  156.0357  130.5444  150.8646 LP  0  0  0  0  0  0  0  0  0  0  0  0  # atno 17371 bound_to 10713
  141.0308  134.0758  157.4016 LP  0  0  0  0  0  0  0  0  0  0  0  0  # atno 17394 bound_to 11000
  139.8948  135.0138  156.6970 LP  0  0  0  0  0  0  0  0  0  0  0  0  # atno 17395 bound_to 11000

$$$$
