AV-unprocessed.smi:110|AV-procd|sdf|1072|dock7
  -GOLD-   2262018153D 1   1.00000     0.00000
 Structure written by MMmdl.
 46 50  0  0  0  0  0  0  0  0  1 V2000
  147.1764  139.9246  151.7733 O   0  0  0  0  0  0  0  0  0  0  0  0
  147.0751  140.6059  153.0065 C   0  0  0  0  0  0  0  0  0  0  0  0
  148.1148  140.1139  154.0294 C   0  0  2  0  0  0  0  0  0  0  0  0
  149.4275  140.4827  153.6364 O   0  0  0  0  0  0  0  0  0  0  0  0
  150.3438  139.7255  154.3657 C   0  0  1  0  0  0  0  0  0  0  0  0
  150.7399  140.4971  155.5886 N   0  0  0  0  0  0  0  0  0  0  0  0
  150.3629  141.7599  155.9939 C   0  0  0  0  0  0  0  0  0  0  0  0
  150.8938  142.1663  157.1152 N   0  0  0  0  0  0  0  0  0  0  0  0
  151.7303  141.1246  157.4984 C   0  0  0  0  0  0  0  0  0  0  0  0
  152.6043  140.8927  158.5991 C   0  0  0  0  0  0  0  0  0  0  0  0
  152.8105  141.7611  159.6167 N   0  0  0  0  0  0  0  0  0  0  0  0
  153.1534  141.2410  160.9480 C   0  0  0  0  0  0  0  0  0  0  0  0
  152.8666  142.3563  161.9709 C   0  0  0  0  0  0  0  0  0  0  0  0
  152.4947  143.4851  161.0647 C   0  0  0  0  0  0  0  0  0  0  0  0
  152.2004  144.8097  161.4314 C   0  0  0  0  0  0  0  0  0  0  0  0
  151.8969  145.7314  160.4069 C   0  0  0  0  0  0  0  0  0  0  0  0
  151.9022  145.3225  159.0530 C   0  0  0  0  0  0  0  0  0  0  0  0
  152.2027  143.9863  158.7079 C   0  0  0  0  0  0  0  0  0  0  0  0
  152.4835  143.0651  159.7382 C   0  0  0  0  0  0  0  0  0  0  0  0
  153.2375  139.6931  158.6563 N   0  0  0  0  0  0  0  0  0  0  0  0
  153.0647  138.7941  157.6838 C   0  0  0  0  0  0  0  0  0  0  0  0
  152.3027  138.8822  156.5923 N   0  0  0  0  0  0  0  0  0  0  0  0
  151.6366  140.0721  156.5449 C   0  0  0  0  0  0  0  0  0  0  0  0
  149.6367  138.4121  154.7672 C   0  0  2  0  0  0  0  0  0  0  0  0
  150.2344  137.2948  154.1416 O   0  0  0  0  0  0  0  0  0  0  0  0
  148.2019  138.6026  154.2716 C   0  0  1  0  0  0  0  0  0  0  0  0
  147.2729  138.2182  155.2658 O   0  0  0  0  0  0  0  0  0  0  0  0
  147.9191  140.6174  154.9780 H   0  0  0  0  0  0  0  0  0  0  0  0
  151.2785  139.5941  153.8185 H   0  0  0  0  0  0  0  0  0  0  0  0
  149.6744  138.2793  155.8498 H   0  0  0  0  0  0  0  0  0  0  0  0
  148.0317  138.0370  153.3549 H   0  0  0  0  0  0  0  0  0  0  0  0
  148.0908  139.7810  151.5825 H   0  0  0  0  0  0  0  0  0  0  0  0
  147.1798  141.6785  152.8409 H   0  0  0  0  0  0  0  0  0  0  0  0
  146.0707  140.4405  153.3970 H   0  0  0  0  0  0  0  0  0  0  0  0
  149.6747  142.3788  155.4372 H   0  0  0  0  0  0  0  0  0  0  0  0
  152.5779  140.3428  161.1763 H   0  0  0  0  0  0  0  0  0  0  0  0
  154.2106  140.9732  160.9638 H   0  0  0  0  0  0  0  0  0  0  0  0
  152.0321  142.1047  162.6260 H   0  0  0  0  0  0  0  0  0  0  0  0
  153.7412  142.6015  162.5737 H   0  0  0  0  0  0  0  0  0  0  0  0
  152.2118  145.1149  162.4673 H   0  0  0  0  0  0  0  0  0  0  0  0
  151.6681  146.7567  160.6575 H   0  0  0  0  0  0  0  0  0  0  0  0
  151.6798  146.0389  158.2760 H   0  0  0  0  0  0  0  0  0  0  0  0
  152.2211  143.6864  157.6709 H   0  0  0  0  0  0  0  0  0  0  0  0
  153.6135  137.8710  157.7984 H   0  0  0  0  0  0  0  0  0  0  0  0
  149.9332  137.2589  153.2464 H   0  0  0  0  0  0  0  0  0  0  0  0
  146.7322  138.9645  155.4743 H   0  0  0  0  0  0  0  0  0  0  0  0
  1  2  1  0  0  0  0
  1 32  1  0  0  0  0
  2  3  1  0  0  0  0
  2 33  1  0  0  0  0
  2 34  1  0  0  0  0
  3 28  1  0  0  0  0
  3 26  1  0  0  0  0
  3  4  1  0  0  0  0
  4  5  1  0  0  0  0
  5 29  1  0  0  0  0
  5  6  1  0  0  0  0
  5 24  1  0  0  0  0
  6 23  1  0  0  0  0
  6  7  1  0  0  0  0
  7  8  2  0  0  0  0
  7 35  1  0  0  0  0
  8  9  1  0  0  0  0
  9 23  2  0  0  0  0
  9 10  1  0  0  0  0
 10 11  1  0  0  0  0
 10 20  2  0  0  0  0
 11 19  1  0  0  0  0
 11 12  1  0  0  0  0
 12 13  1  0  0  0  0
 12 36  1  0  0  0  0
 12 37  1  0  0  0  0
 13 14  1  0  0  0  0
 13 38  1  0  0  0  0
 13 39  1  0  0  0  0
 14 19  2  0  0  0  0
 14 15  1  0  0  0  0
 15 16  2  0  0  0  0
 15 40  1  0  0  0  0
 16 17  1  0  0  0  0
 16 41  1  0  0  0  0
 17 18  2  0  0  0  0
 17 42  1  0  0  0  0
 18 19  1  0  0  0  0
 18 43  1  0  0  0  0
 20 21  1  0  0  0  0
 21 22  2  0  0  0  0
 21 44  1  0  0  0  0
 22 23  1  0  0  0  0
 24 30  1  0  0  0  0
 24 25  1  0  0  0  0
 24 26  1  0  0  0  0
 25 45  1  0  0  0  0
 26 31  1  0  0  0  0
 26 27  1  0  0  0  0
 27 46  1  0  0  0  0
M  END
> <s_m_source_file>
AV-unprocessed.smi

> <i_m_source_file_index>
110

> <i_lp_mmshare_version>
43012

> <i_f3d_flags>
0

> <s_epik_input>
W09IXVtDSDJdW0NASF0xT1tDQEhdKFtDQEhdKFtPSF0pW0NAQEhdMVtPSF0pbihbY0hdbjIpYyhjMjMpbltjSF1uYzNOKFtDSDJdW0NIMl00KWMoYzQ1KVtjSF1bY0hdW2NIXVtjSF01

> <s_epik_cmdline>
J2VwaWtfcHl0aG9uJywgJy1waCcsICc3LjAnLCAnLXRuJywgJzgnLCAnLW1hJywgJzIwMCcsICctbWV0YWxfYmluZGluZycsICctaW1hZScsICc8aW5maWxlLm1hZT4nLCAnLW9tYWUnLCAnPG91dGZpbGUubWFlPic=

> <r_lp_tautomer_probability>
1

> <r_epik_Ionization_Penalty>
0.00068475

> <r_epik_Ionization_Penalty_Charging>
0

> <r_epik_Ionization_Penalty_Neutral>
0.00068475

> <r_epik_State_Penalty>
0.000417442

> <r_epik_Charging_Adjusted_Penalty>
0.000417442

> <i_epik_Tot_Q>
0

> <i_epik_Tot_abs_Q>
0

> <r_epik_Metal_State_Penalty>
-0

> <b_epik_Metal_Only>
0

> <s_epik_Chemistry_Notes>
This compound contains an acetal/aminal-like group ( X-CH(R)-Y where X, Y are N, S, or O) that may be acid/base labile, releasing an aldehyde.

> <s_lp_Force_Field>
OPLS_2005

> <r_lp_Energy>
55.1552

> <b_lp_Chiralities_Consistent>
1

> <s_lp_Variant>
AV-unprocessed.smi:110-10

> <Gold.Version>
5.8.1

> <Gold.Id.Protein>
6NUR|6NUR_protein|mol2

> <Gold.PLP.Fitness>
63.8190

> <Gold.PLP.PLP>
-55.2489

> <Gold.PLP.part.hbond>
-4.3397

> <Gold.PLP.part.metal>
0.0000

> <Gold.PLP.part.buried>
-3.0071

> <Gold.PLP.part.nonpolar>
-51.6333

> <Gold.PLP.part.repulsive>
3.7826

> <Gold.PLP.ligand.clash>
0.0000

> <Gold.PLP.ligand.torsion>
0.2509

> <Gold.PLP.Chemscore.Hbond>
2.0000

> <Gold.PLP.Chemscore.CHOScore>
0.9975

> <Gold.PLP.Chemscore.Metal>
0.0000

> <Gold.Chemscore.Hbonds>
donor molecule, donor type, donor heavy atom, donor atom, acceptor molecule, acceptor atom, score
      L1  H     1    32       P1  7957  1.00
      L1  H    25    45       P1  7948  0.96
      P1  H  8011  8017       L1     4  0.18
      L1  C     7    35       P1  8028  1.00

> <Gold.PLP.Chemscore.Internal.Correction>
0.0794

> <Gold.Rescore>
     Score         DG    S(hbond)    S(metal)    S(lipo)     H(rot)  DE(clash)    DE(int)     intcor
     14.82     -18.63       2.18        0.00     124.11       3.38       2.08       1.73       ----

> <Gold.Chemscore.Fitness>
14.8240

> <Gold.Chemscore.DG>
-18.6300

> <Gold.Chemscore.ZeroCoef>
-5.4800

> <Gold.Chemscore.Hbond>
2.1831

> <Gold.Chemscore.Metal>
0.0000

> <Gold.Chemscore.Lipo>
124.1073

> <Gold.Chemscore.Internal_Hbond>
0.0000

> <Gold.Chemscore.DEClash>
2.0752

> <Gold.Chemscore.DEInternal>
1.7309

> <Gold.Chemscore.Rot>
3.3837

> <Gold.Chemscore.Internal.Correction>
   9.000000E+99

> <Gold.Chemscore.Hbonds>
donor molecule, donor type, donor heavy atom, donor atom, acceptor molecule, acceptor atom, score
      L1  H     1    32       P1  7957  0.96
      L1  H    25    45       P1  7948  0.27
      P1  H  8011  8017       L1     4  0.19

> <Gold.Chemscore.Hbond.Weighted>
-7.2916

> <Gold.Chemscore.Metal.Weighted>
-0.0000

> <Gold.Chemscore.Lipo.Weighted>
-14.5205

> <Gold.Chemscore.Internal_Hbond.Weighted>
0.0000

> <Gold.Chemscore.DEClash.Weighted>
2.0752

> <Gold.Chemscore.DEInternal.Weighted>
1.7309

> <Gold.Chemscore.Rot.Weighted>
8.6622

> <Gold.Chemscore.Internal.Correction.Weighted>
   9.000000E+99

> <Gold.Protein.RotatedTorsions>
[ 6907 6896 6895 6894 ] final   58.29 input  -60.11 | X-H torsion
[ 7974 7965 7964 7962 ] final  -60.88 input  175.53 | X-H torsion
[ 8008 7997 7996 7995 ] final   20.94 input   59.86 | X-H torsion
[ 10167 10162 10161 10158 ] final  123.51 input  -65.29 | X-H torsion
[ 10718 10713 10712 10709 ] final  -72.56 input   66.30 | X-H torsion
[ 10763 10752 10751 10750 ] final  -62.79 input  -60.55 | X-H torsion
[ 11005 11000 10999 10996 ] final  100.26 input  -57.11 | X-H torsion

> <Gold.Protein.ActiveResidues>
 VAL166  LYS551  ARG553  GLY616  TRP617  ASP618  TYR619  PRO620  LYS621  CYS622 
 ASP623  PHE694  ASN695  SER759  ASP760  ASP761  ALA762  ILE779  LEU786  VAL792 
 PHE793  MET794  SER795  GLU796  ALA797  LYS798  CYS799  TRP800  GLU811  SER814 

> <Gold.Protein.RotatedAtoms>
  152.3810  134.6590  160.0142 H   0  0  0  0  0  0  0  0  0  0  0  0  # atno 6907 bound_to 6896
  151.6853  133.3306  159.3237 H   0  0  0  0  0  0  0  0  0  0  0  0  # atno 6908 bound_to 6896
  150.7748  134.6681  159.6421 H   0  0  0  0  0  0  0  0  0  0  0  0  # atno 6909 bound_to 6896
  145.8102  140.8603  143.0186 H   0  0  0  0  0  0  0  0  0  0  0  0  # atno 7974 bound_to 7965
  154.9431  140.3055  155.5111 H   0  0  0  0  0  0  0  0  0  0  0  0  # atno 8008 bound_to 7997
  156.2994  140.2332  156.4439 H   0  0  0  0  0  0  0  0  0  0  0  0  # atno 8009 bound_to 7997
  154.8127  140.0427  157.1342 H   0  0  0  0  0  0  0  0  0  0  0  0  # atno 8010 bound_to 7997
  139.5795  144.6980  151.3564 H   0  0  0  0  0  0  0  0  0  0  0  0  # atno 10167 bound_to 10162
  156.0315  130.4375  150.2612 H   0  0  0  0  0  0  0  0  0  0  0  0  # atno 10718 bound_to 10713
  154.3053  135.6226  153.5442 H   0  0  0  0  0  0  0  0  0  0  0  0  # atno 10763 bound_to 10752
  152.9836  135.5688  154.5238 H   0  0  0  0  0  0  0  0  0  0  0  0  # atno 10764 bound_to 10752
  154.4877  135.2866  155.1497 H   0  0  0  0  0  0  0  0  0  0  0  0  # atno 10765 bound_to 10752
  139.8771  134.9132  156.4729 H   0  0  0  0  0  0  0  0  0  0  0  0  # atno 11005 bound_to 11000
  144.6758  140.0385  143.7481 LP  0  0  0  0  0  0  0  0  0  0  0  0  # atno 17320 bound_to 7965
  145.9785  139.2923  143.1056 LP  0  0  0  0  0  0  0  0  0  0  0  0  # atno 17321 bound_to 7965
  140.7075  143.7476  150.7508 LP  0  0  0  0  0  0  0  0  0  0  0  0  # atno 17342 bound_to 10162
  140.1005  143.4792  152.2428 LP  0  0  0  0  0  0  0  0  0  0  0  0  # atno 17343 bound_to 10162
  157.0713  131.0117  151.3189 LP  0  0  0  0  0  0  0  0  0  0  0  0  # atno 17370 bound_to 10713
  157.4997  130.7872  149.7592 LP  0  0  0  0  0  0  0  0  0  0  0  0  # atno 17371 bound_to 10713
  140.8783  133.7937  155.9439 LP  0  0  0  0  0  0  0  0  0  0  0  0  # atno 17394 bound_to 11000
  140.8881  134.2529  157.5109 LP  0  0  0  0  0  0  0  0  0  0  0  0  # atno 17395 bound_to 11000

$$$$
